1D4I_BEG_A_501


 52 57  0  0  0  0  0  0  0  0999 V2000
   13.1972   24.6028    5.3673 C   0  0  0  0  0  0  0  0  0  0  0  0
   14.2516   25.0760    4.5395 O   0  0  0  0  0  0  0  0  0  0  0  0
   14.3448   24.4931    3.7698 H   0  0  0  0  0  0  0  0  0  0  0  0
   13.5918   23.2043    5.7006 C   0  0  0  0  0  0  0  0  0  0  0  0
   15.0665   22.9514    5.5126 C   0  0  0  0  0  0  0  0  0  0  0  0
   15.1105   21.4461    5.4639 C   0  0  0  0  0  0  0  0  0  0  0  0
   14.1136   20.7665    5.6848 O   0  0  0  0  0  0  0  0  0  0  0  0
   16.3262   20.8605    5.1763 N   0  0  0  0  0  0  0  0  0  0  0  0
   17.0996   21.4492    5.0198 H   0  0  0  0  0  0  0  0  0  0  0  0
   16.5295   19.4277    5.0914 C   0  0  0  0  0  0  0  0  0  0  0  0
   16.4570   18.9092    3.6808 C   0  0  0  0  0  0  0  0  0  0  0  0
   17.3774   17.8576    3.4744 C   0  0  0  0  0  0  0  0  0  0  0  0
   15.6333   19.3429    2.6115 C   0  0  0  0  0  0  0  0  0  0  0  0
   15.7363   18.7059    1.3400 C   0  0  0  0  0  0  0  0  0  0  0  0
   16.6633   17.6438    1.1473 C   0  0  0  0  0  0  0  0  0  0  0  0
   17.9079   18.9020    5.5319 C   0  0  0  0  0  0  0  0  0  0  0  0
   18.8673   19.8847    5.1706 O   0  0  0  0  0  0  0  0  0  0  0  0
   17.4940   17.2109    2.2175 C   0  0  0  0  0  0  0  0  0  0  0  0
   18.1443   17.5948    4.7334 C   0  0  0  0  0  0  0  0  0  0  0  0
   18.8093   20.0585    4.2181 H   0  0  0  0  0  0  0  0  0  0  0  0
   15.7891   23.4004    6.6665 O   0  0  0  0  0  0  0  0  0  0  0  0
   15.1502   23.0396    7.8914 C   0  0  0  0  0  0  0  0  0  0  0  0
   15.8869   21.9517    8.6752 C   0  0  0  0  0  0  0  0  0  0  0  0
   15.1599   21.0818    9.5433 C   0  0  0  0  0  0  0  0  0  0  0  0
   15.7625   19.9866   10.2129 C   0  0  0  0  0  0  0  0  0  0  0  0
   17.1450   19.7356   10.0307 C   0  0  0  0  0  0  0  0  0  0  0  0
   17.8980   20.5864    9.1862 C   0  0  0  0  0  0  0  0  0  0  0  0
   17.2754   21.6756    8.5221 C   0  0  0  0  0  0  0  0  0  0  0  0
   11.8473   24.6072    4.6359 C   0  0  0  0  0  0  0  0  0  0  0  0
   10.6250   24.6038    5.5457 C   0  0  0  0  0  0  0  0  0  0  0  0
   10.2711   23.6062    6.1698 O   0  0  0  0  0  0  0  0  0  0  0  0
    9.9028   25.7787    5.6036 N   0  0  0  0  0  0  0  0  0  0  0  0
   10.2286   26.5319    5.0596 H   0  0  0  0  0  0  0  0  0  0  0  0
    8.7045   26.0044    6.3953 C   0  0  0  0  0  0  0  0  0  0  0  0
    8.9713   26.7075    7.7011 C   0  0  0  0  0  0  0  0  0  0  0  0
    7.9265   27.6130    8.0186 C   0  0  0  0  0  0  0  0  0  0  0  0
   10.0802   26.5806    8.5799 C   0  0  0  0  0  0  0  0  0  0  0  0
   10.1265   27.3612    9.7753 C   0  0  0  0  0  0  0  0  0  0  0  0
    9.0670   28.2626   10.0801 C   0  0  0  0  0  0  0  0  0  0  0  0
    7.6600   26.9506    5.7641 C   0  0  0  0  0  0  0  0  0  0  0  0
    8.3778   27.9434    5.0464 O   0  0  0  0  0  0  0  0  0  0  0  0
    7.9573   28.3955    9.2023 C   0  0  0  0  0  0  0  0  0  0  0  0
    6.8827   27.5893    6.9424 C   0  0  0  0  0  0  0  0  0  0  0  0
    8.9927   28.3945    5.6458 H   0  0  0  0  0  0  0  0  0  0  0  0
   11.7365   23.5252    3.6843 O   0  0  0  0  0  0  0  0  0  0  0  0
   11.2686   23.9401    2.4036 C   0  0  0  0  0  0  0  0  0  0  0  0
    9.7480   24.0101    2.3044 C   0  0  0  0  0  0  0  0  0  0  0  0
    9.1246   25.2173    1.8933 C   0  0  0  0  0  0  0  0  0  0  0  0
    7.7210   25.3855    1.8619 C   0  0  0  0  0  0  0  0  0  0  0  0
    6.8837   24.3123    2.2506 C   0  0  0  0  0  0  0  0  0  0  0  0
    7.4674   23.0897    2.6593 C   0  0  0  0  0  0  0  0  0  0  0  0
    8.8790   22.9415    2.6822 C   0  0  0  0  0  0  0  0  0  0  0  0
 47 48  2  0  0  0
 47 52  1  0  0  0
 47 46  1  0  0  0
 48 49  1  0  0  0
 49 50  2  0  0  0
 50 51  1  0  0  0
 51 52  2  0  0  0
 23 24  2  0  0  0
 23 28  1  0  0  0
 23 22  1  0  0  0
 24 25  1  0  0  0
 25 26  2  0  0  0
 26 27  1  0  0  0
 27 28  2  0  0  0
 22 21  1  0  0  0
 21  5  1  0  0  0
 46 45  1  0  0  0
 45 29  1  0  0  0
  5  4  1  0  0  0
  5  6  1  0  0  0
  4  1  1  0  0  0
  1  2  1  0  0  0
  1 29  1  0  0  0
 29 30  1  0  0  0
 30 31  2  0  0  0
 30 32  1  0  0  0
 32 34  1  0  0  0
  6  7  2  0  0  0
  6  8  1  0  0  0
  8 10  1  0  0  0
 10 11  1  0  0  0
 10 16  1  0  0  0
 11 12  2  0  0  0
 11 13  1  0  0  0
 12 18  1  0  0  0
 12 19  1  0  0  0
 13 14  2  0  0  0
 14 15  1  0  0  0
 15 18  2  0  0  0
 16 17  1  0  0  0
 16 19  1  0  0  0
 34 35  1  0  0  0
 34 40  1  0  0  0
 35 36  2  0  0  0
 35 37  1  0  0  0
 36 42  1  0  0  0
 36 43  1  0  0  0
 37 38  2  0  0  0
 38 39  1  0  0  0
 39 42  2  0  0  0
 40 41  1  0  0  0
 40 43  1  0  0  0
  2  3  1  0  0  0
 32 33  1  0  0  0
  8  9  1  0  0  0
 17 20  1  0  0  0
 41 44  1  0  0  0
M  END
> <minimizedAffinity>
-13.48411

$$$$
1D4I_BEG_A_501


 52 57  0  0  0  0  0  0  0  0999 V2000
   14.3408   23.3980    5.0718 C   0  0  0  0  0  0  0  0  0  0  0  0
   15.1120   24.4649    4.5353 O   0  0  0  0  0  0  0  0  0  0  0  0
   15.3566   25.0769    5.2470 H   0  0  0  0  0  0  0  0  0  0  0  0
   13.1835   24.0741    5.7247 C   0  0  0  0  0  0  0  0  0  0  0  0
   12.2156   24.6670    4.7320 C   0  0  0  0  0  0  0  0  0  0  0  0
   10.9379   24.6846    5.5303 C   0  0  0  0  0  0  0  0  0  0  0  0
   10.5694   23.7083    6.1750 O   0  0  0  0  0  0  0  0  0  0  0  0
   10.1877   25.8419    5.4930 N   0  0  0  0  0  0  0  0  0  0  0  0
   10.5198   26.5931    4.9501 H   0  0  0  0  0  0  0  0  0  0  0  0
    8.9384   26.0150    6.2077 C   0  0  0  0  0  0  0  0  0  0  0  0
    9.1149   26.6973    7.5371 C   0  0  0  0  0  0  0  0  0  0  0  0
    8.0262   27.5513    7.8221 C   0  0  0  0  0  0  0  0  0  0  0  0
   10.1866   26.5925    8.4591 C   0  0  0  0  0  0  0  0  0  0  0  0
   10.1499   27.3441    9.6702 C   0  0  0  0  0  0  0  0  0  0  0  0
    9.0445   28.1960    9.9478 C   0  0  0  0  0  0  0  0  0  0  0  0
    7.8870   26.9226    5.5437 C   0  0  0  0  0  0  0  0  0  0  0  0
    8.5898   27.9552    4.8682 O   0  0  0  0  0  0  0  0  0  0  0  0
    7.9709   28.3063    9.0215 C   0  0  0  0  0  0  0  0  0  0  0  0
    7.0372   27.5114    6.6985 C   0  0  0  0  0  0  0  0  0  0  0  0
    9.1592   28.4244    5.4980 H   0  0  0  0  0  0  0  0  0  0  0  0
   12.0553   23.7793    3.6177 O   0  0  0  0  0  0  0  0  0  0  0  0
   11.5255   24.4332    2.4642 C   0  0  0  0  0  0  0  0  0  0  0  0
   10.0193   24.2383    2.2809 C   0  0  0  0  0  0  0  0  0  0  0  0
    9.4311   22.9594    2.5204 C   0  0  0  0  0  0  0  0  0  0  0  0
    8.0312   22.7378    2.4752 C   0  0  0  0  0  0  0  0  0  0  0  0
    7.1657   23.8180    2.1727 C   0  0  0  0  0  0  0  0  0  0  0  0
    7.7168   25.0968    1.9178 C   0  0  0  0  0  0  0  0  0  0  0  0
    9.1209   25.2989    1.9713 C   0  0  0  0  0  0  0  0  0  0  0  0
   15.1284   22.5861    6.1100 C   0  0  0  0  0  0  0  0  0  0  0  0
   15.1742   21.0855    5.8501 C   0  0  0  0  0  0  0  0  0  0  0  0
   14.1864   20.3651    5.9734 O   0  0  0  0  0  0  0  0  0  0  0  0
   16.4040   20.5623    5.5045 N   0  0  0  0  0  0  0  0  0  0  0  0
   17.1585   21.1921    5.4470 H   0  0  0  0  0  0  0  0  0  0  0  0
   16.6855   19.1650    5.2177 C   0  0  0  0  0  0  0  0  0  0  0  0
   16.4948   18.7994    3.7683 C   0  0  0  0  0  0  0  0  0  0  0  0
   17.4701   17.8609    3.3438 C   0  0  0  0  0  0  0  0  0  0  0  0
   15.5226   19.2668    2.8440 C   0  0  0  0  0  0  0  0  0  0  0  0
   15.5349   18.7812    1.5007 C   0  0  0  0  0  0  0  0  0  0  0  0
   16.5191   17.8363    1.0927 C   0  0  0  0  0  0  0  0  0  0  0  0
   18.1488   18.7236    5.4385 C   0  0  0  0  0  0  0  0  0  0  0  0
   18.9733   19.8242    5.0852 O   0  0  0  0  0  0  0  0  0  0  0  0
   17.4958   17.3685    2.0129 C   0  0  0  0  0  0  0  0  0  0  0  0
   18.3939   17.5326    4.4783 C   0  0  0  0  0  0  0  0  0  0  0  0
   18.7852   20.0889    4.1712 H   0  0  0  0  0  0  0  0  0  0  0  0
   14.6633   22.8227    7.4577 O   0  0  0  0  0  0  0  0  0  0  0  0
   15.7175   23.0111    8.3982 C   0  0  0  0  0  0  0  0  0  0  0  0
   16.2241   21.7103    9.0134 C   0  0  0  0  0  0  0  0  0  0  0  0
   17.5803   21.3300    8.8369 C   0  0  0  0  0  0  0  0  0  0  0  0
   18.1000   20.0996    9.3011 C   0  0  0  0  0  0  0  0  0  0  0  0
   17.2462   19.1954    9.9772 C   0  0  0  0  0  0  0  0  0  0  0  0
   15.8892   19.5419   10.1797 C   0  0  0  0  0  0  0  0  0  0  0  0
   15.3880   20.7830    9.7068 C   0  0  0  0  0  0  0  0  0  0  0  0
 47 48  2  0  0  0
 47 52  1  0  0  0
 47 46  1  0  0  0
 48 49  1  0  0  0
 49 50  2  0  0  0
 50 51  1  0  0  0
 51 52  2  0  0  0
 23 24  2  0  0  0
 23 28  1  0  0  0
 23 22  1  0  0  0
 24 25  1  0  0  0
 25 26  2  0  0  0
 26 27  1  0  0  0
 27 28  2  0  0  0
 22 21  1  0  0  0
 21  5  1  0  0  0
 46 45  1  0  0  0
 45 29  1  0  0  0
  5  4  1  0  0  0
  5  6  1  0  0  0
  4  1  1  0  0  0
  1  2  1  0  0  0
  1 29  1  0  0  0
 29 30  1  0  0  0
 30 31  2  0  0  0
 30 32  1  0  0  0
 32 34  1  0  0  0
  6  7  2  0  0  0
  6  8  1  0  0  0
  8 10  1  0  0  0
 10 11  1  0  0  0
 10 16  1  0  0  0
 11 12  2  0  0  0
 11 13  1  0  0  0
 12 18  1  0  0  0
 12 19  1  0  0  0
 13 14  2  0  0  0
 14 15  1  0  0  0
 15 18  2  0  0  0
 16 17  1  0  0  0
 16 19  1  0  0  0
 34 35  1  0  0  0
 34 40  1  0  0  0
 35 36  2  0  0  0
 35 37  1  0  0  0
 36 42  1  0  0  0
 36 43  1  0  0  0
 37 38  2  0  0  0
 38 39  1  0  0  0
 39 42  2  0  0  0
 40 41  1  0  0  0
 40 43  1  0  0  0
  2  3  1  0  0  0
 32 33  1  0  0  0
  8  9  1  0  0  0
 17 20  1  0  0  0
 41 44  1  0  0  0
M  END
> <minimizedAffinity>
-13.46692

$$$$
1D4I_BEG_A_501


 52 57  0  0  0  0  0  0  0  0999 V2000
   12.5550   24.2337    6.3586 C   0  0  0  0  0  0  0  0  0  0  0  0
   13.2433   24.8000    5.2512 O   0  0  0  0  0  0  0  0  0  0  0  0
   13.2557   24.1642    4.5187 H   0  0  0  0  0  0  0  0  0  0  0  0
   13.3008   22.9761    6.6500 C   0  0  0  0  0  0  0  0  0  0  0  0
   14.6141   22.8903    5.9139 C   0  0  0  0  0  0  0  0  0  0  0  0
   14.7641   21.4014    5.7377 C   0  0  0  0  0  0  0  0  0  0  0  0
   13.8276   20.6335    5.9321 O   0  0  0  0  0  0  0  0  0  0  0  0
   16.0070   20.9335    5.3635 N   0  0  0  0  0  0  0  0  0  0  0  0
   16.7297   21.5891    5.2325 H   0  0  0  0  0  0  0  0  0  0  0  0
   16.3093   19.5316    5.1521 C   0  0  0  0  0  0  0  0  0  0  0  0
   16.1762   19.1152    3.7125 C   0  0  0  0  0  0  0  0  0  0  0  0
   17.1550   18.1579    3.3643 C   0  0  0  0  0  0  0  0  0  0  0  0
   15.2495   19.5604    2.7363 C   0  0  0  0  0  0  0  0  0  0  0  0
   15.3096   19.0297    1.4143 C   0  0  0  0  0  0  0  0  0  0  0  0
   16.2967   18.0616    1.0784 C   0  0  0  0  0  0  0  0  0  0  0  0
   17.7503   19.0855    5.4597 C   0  0  0  0  0  0  0  0  0  0  0  0
   18.6066   20.1652    5.1165 O   0  0  0  0  0  0  0  0  0  0  0  0
   17.2304   17.6176    2.0551 C   0  0  0  0  0  0  0  0  0  0  0  0
   18.0260   17.8640    4.5464 C   0  0  0  0  0  0  0  0  0  0  0  0
   18.4690   20.4041    4.1865 H   0  0  0  0  0  0  0  0  0  0  0  0
   15.6746   23.3682    6.7518 O   0  0  0  0  0  0  0  0  0  0  0  0
   15.3855   23.2242    8.1426 C   0  0  0  0  0  0  0  0  0  0  0  0
   16.0994   22.0431    8.8028 C   0  0  0  0  0  0  0  0  0  0  0  0
   15.3630   21.1277    9.6144 C   0  0  0  0  0  0  0  0  0  0  0  0
   15.9393   19.9547   10.1646 C   0  0  0  0  0  0  0  0  0  0  0  0
   17.3043   19.6680    9.9156 C   0  0  0  0  0  0  0  0  0  0  0  0
   18.0667   20.5612    9.1250 C   0  0  0  0  0  0  0  0  0  0  0  0
   17.4703   21.7285    8.5803 C   0  0  0  0  0  0  0  0  0  0  0  0
   11.0925   23.9105    6.0210 C   0  0  0  0  0  0  0  0  0  0  0  0
   10.7842   23.8148    4.5319 C   0  0  0  0  0  0  0  0  0  0  0  0
   11.5961   23.3818    3.7175 O   0  0  0  0  0  0  0  0  0  0  0  0
    9.5481   24.2817    4.1324 N   0  0  0  0  0  0  0  0  0  0  0  0
    8.9557   24.6375    4.8336 H   0  0  0  0  0  0  0  0  0  0  0  0
    9.0421   24.2955    2.7695 C   0  0  0  0  0  0  0  0  0  0  0  0
    7.5574   24.0547    2.6779 C   0  0  0  0  0  0  0  0  0  0  0  0
    6.9735   24.8384    1.6496 C   0  0  0  0  0  0  0  0  0  0  0  0
    6.7357   23.1995    3.4599 C   0  0  0  0  0  0  0  0  0  0  0  0
    5.3332   23.1341    3.1969 C   0  0  0  0  0  0  0  0  0  0  0  0
    4.7645   23.9250    2.1582 C   0  0  0  0  0  0  0  0  0  0  0  0
    9.1636   25.6455    2.0296 C   0  0  0  0  0  0  0  0  0  0  0  0
    8.9703   26.6682    2.9954 O   0  0  0  0  0  0  0  0  0  0  0  0
    5.5819   24.7847    1.3756 C   0  0  0  0  0  0  0  0  0  0  0  0
    8.0253   25.6703    0.9789 C   0  0  0  0  0  0  0  0  0  0  0  0
    8.1123   26.5441    3.4305 H   0  0  0  0  0  0  0  0  0  0  0  0
   10.1703   24.8349    6.6404 O   0  0  0  0  0  0  0  0  0  0  0  0
   10.7582   25.6144    7.6788 C   0  0  0  0  0  0  0  0  0  0  0  0
    9.8007   26.6303    8.2938 C   0  0  0  0  0  0  0  0  0  0  0  0
   10.1071   27.2147    9.5506 C   0  0  0  0  0  0  0  0  0  0  0  0
    9.2287   28.0951   10.2234 C   0  0  0  0  0  0  0  0  0  0  0  0
    7.9854   28.4230    9.6314 C   0  0  0  0  0  0  0  0  0  0  0  0
    7.6468   27.8667    8.3751 C   0  0  0  0  0  0  0  0  0  0  0  0
    8.5439   26.9859    7.7159 C   0  0  0  0  0  0  0  0  0  0  0  0
 47 48  2  0  0  0
 47 52  1  0  0  0
 47 46  1  0  0  0
 48 49  1  0  0  0
 49 50  2  0  0  0
 50 51  1  0  0  0
 51 52  2  0  0  0
 23 24  2  0  0  0
 23 28  1  0  0  0
 23 22  1  0  0  0
 24 25  1  0  0  0
 25 26  2  0  0  0
 26 27  1  0  0  0
 27 28  2  0  0  0
 22 21  1  0  0  0
 21  5  1  0  0  0
 46 45  1  0  0  0
 45 29  1  0  0  0
  5  4  1  0  0  0
  5  6  1  0  0  0
  4  1  1  0  0  0
  1  2  1  0  0  0
  1 29  1  0  0  0
 29 30  1  0  0  0
 30 31  2  0  0  0
 30 32  1  0  0  0
 32 34  1  0  0  0
  6  7  2  0  0  0
  6  8  1  0  0  0
  8 10  1  0  0  0
 10 11  1  0  0  0
 10 16  1  0  0  0
 11 12  2  0  0  0
 11 13  1  0  0  0
 12 18  1  0  0  0
 12 19  1  0  0  0
 13 14  2  0  0  0
 14 15  1  0  0  0
 15 18  2  0  0  0
 16 17  1  0  0  0
 16 19  1  0  0  0
 34 35  1  0  0  0
 34 40  1  0  0  0
 35 36  2  0  0  0
 35 37  1  0  0  0
 36 42  1  0  0  0
 36 43  1  0  0  0
 37 38  2  0  0  0
 38 39  1  0  0  0
 39 42  2  0  0  0
 40 41  1  0  0  0
 40 43  1  0  0  0
  2  3  1  0  0  0
 32 33  1  0  0  0
  8  9  1  0  0  0
 17 20  1  0  0  0
 41 44  1  0  0  0
M  END
> <minimizedAffinity>
-12.49823

$$$$
1D4I_BEG_A_501


 52 57  0  0  0  0  0  0  0  0999 V2000
   14.2794   22.6558    4.6029 C   0  0  0  0  0  0  0  0  0  0  0  0
   14.7992   23.8654    5.1391 O   0  0  0  0  0  0  0  0  0  0  0  0
   14.3884   24.0401    6.0003 H   0  0  0  0  0  0  0  0  0  0  0  0
   12.8070   22.8825    4.5460 C   0  0  0  0  0  0  0  0  0  0  0  0
   12.4399   24.3451    4.5349 C   0  0  0  0  0  0  0  0  0  0  0  0
   11.2407   24.3618    5.4471 C   0  0  0  0  0  0  0  0  0  0  0  0
   10.9534   23.3976    6.1488 O   0  0  0  0  0  0  0  0  0  0  0  0
   10.4663   25.5037    5.4487 N   0  0  0  0  0  0  0  0  0  0  0  0
   10.7314   26.2451    4.8577 H   0  0  0  0  0  0  0  0  0  0  0  0
    9.2846   25.6739    6.2709 C   0  0  0  0  0  0  0  0  0  0  0  0
    9.5844   26.3100    7.6011 C   0  0  0  0  0  0  0  0  0  0  0  0
    8.5397   27.1720    8.0028 C   0  0  0  0  0  0  0  0  0  0  0  0
   10.7272   26.1580    8.4260 C   0  0  0  0  0  0  0  0  0  0  0  0
   10.8060   26.8706    9.6586 C   0  0  0  0  0  0  0  0  0  0  0  0
    9.7441   27.7310   10.0542 C   0  0  0  0  0  0  0  0  0  0  0  0
    8.1988   26.6195    5.7259 C   0  0  0  0  0  0  0  0  0  0  0  0
    8.8623   27.6619    5.0258 O   0  0  0  0  0  0  0  0  0  0  0  0
    8.5991   27.8886    9.2253 C   0  0  0  0  0  0  0  0  0  0  0  0
    7.4597   27.1846    6.9656 C   0  0  0  0  0  0  0  0  0  0  0  0
    9.4910   28.1011    5.6196 H   0  0  0  0  0  0  0  0  0  0  0  0
   12.0275   24.7343    3.2182 O   0  0  0  0  0  0  0  0  0  0  0  0
   11.3628   23.6837    2.5160 C   0  0  0  0  0  0  0  0  0  0  0  0
    9.8530   23.8900    2.3807 C   0  0  0  0  0  0  0  0  0  0  0  0
    8.9528   22.8597    2.7894 C   0  0  0  0  0  0  0  0  0  0  0  0
    7.5447   23.0276    2.7928 C   0  0  0  0  0  0  0  0  0  0  0  0
    6.9904   24.2604    2.3678 C   0  0  0  0  0  0  0  0  0  0  0  0
    7.8543   25.2989    1.9443 C   0  0  0  0  0  0  0  0  0  0  0  0
    9.2615   25.1122    1.9515 C   0  0  0  0  0  0  0  0  0  0  0  0
   14.5904   21.4497    5.5007 C   0  0  0  0  0  0  0  0  0  0  0  0
   15.0890   21.8013    6.8969 C   0  0  0  0  0  0  0  0  0  0  0  0
   14.4267   22.4750    7.6827 O   0  0  0  0  0  0  0  0  0  0  0  0
   16.3533   21.3547    7.2249 N   0  0  0  0  0  0  0  0  0  0  0  0
   16.8385   20.8408    6.5396 H   0  0  0  0  0  0  0  0  0  0  0  0
   17.0330   21.5748    8.4911 C   0  0  0  0  0  0  0  0  0  0  0  0
   17.0679   20.3540    9.3739 C   0  0  0  0  0  0  0  0  0  0  0  0
   18.2959   20.2660   10.0787 C   0  0  0  0  0  0  0  0  0  0  0  0
   16.0816   19.3479    9.5556 C   0  0  0  0  0  0  0  0  0  0  0  0
   16.3356   18.2639   10.4505 C   0  0  0  0  0  0  0  0  0  0  0  0
   17.5725   18.1934   11.1526 C   0  0  0  0  0  0  0  0  0  0  0  0
   18.5387   21.9022    8.3885 C   0  0  0  0  0  0  0  0  0  0  0  0
   19.0515   21.1620    7.2906 O   0  0  0  0  0  0  0  0  0  0  0  0
   18.5636   19.1956   10.9715 C   0  0  0  0  0  0  0  0  0  0  0  0
   19.1804   21.4205    9.7139 C   0  0  0  0  0  0  0  0  0  0  0  0
   18.8714   20.2183    7.4245 H   0  0  0  0  0  0  0  0  0  0  0  0
   15.5172   20.5302    4.8809 O   0  0  0  0  0  0  0  0  0  0  0  0
   14.9452   19.2584    4.5866 C   0  0  0  0  0  0  0  0  0  0  0  0
   15.6192   18.5431    3.4199 C   0  0  0  0  0  0  0  0  0  0  0  0
   16.7616   17.7342    3.6560 C   0  0  0  0  0  0  0  0  0  0  0  0
   17.4909   17.1122    2.6165 C   0  0  0  0  0  0  0  0  0  0  0  0
   17.0766   17.2894    1.2745 C   0  0  0  0  0  0  0  0  0  0  0  0
   15.9374   18.0825    0.9990 C   0  0  0  0  0  0  0  0  0  0  0  0
   15.2187   18.6969    2.0577 C   0  0  0  0  0  0  0  0  0  0  0  0
 47 48  2  0  0  0
 47 52  1  0  0  0
 47 46  1  0  0  0
 48 49  1  0  0  0
 49 50  2  0  0  0
 50 51  1  0  0  0
 51 52  2  0  0  0
 23 24  2  0  0  0
 23 28  1  0  0  0
 23 22  1  0  0  0
 24 25  1  0  0  0
 25 26  2  0  0  0
 26 27  1  0  0  0
 27 28  2  0  0  0
 22 21  1  0  0  0
 21  5  1  0  0  0
 46 45  1  0  0  0
 45 29  1  0  0  0
  5  4  1  0  0  0
  5  6  1  0  0  0
  4  1  1  0  0  0
  1  2  1  0  0  0
  1 29  1  0  0  0
 29 30  1  0  0  0
 30 31  2  0  0  0
 30 32  1  0  0  0
 32 34  1  0  0  0
  6  7  2  0  0  0
  6  8  1  0  0  0
  8 10  1  0  0  0
 10 11  1  0  0  0
 10 16  1  0  0  0
 11 12  2  0  0  0
 11 13  1  0  0  0
 12 18  1  0  0  0
 12 19  1  0  0  0
 13 14  2  0  0  0
 14 15  1  0  0  0
 15 18  2  0  0  0
 16 17  1  0  0  0
 16 19  1  0  0  0
 34 35  1  0  0  0
 34 40  1  0  0  0
 35 36  2  0  0  0
 35 37  1  0  0  0
 36 42  1  0  0  0
 36 43  1  0  0  0
 37 38  2  0  0  0
 38 39  1  0  0  0
 39 42  2  0  0  0
 40 41  1  0  0  0
 40 43  1  0  0  0
  2  3  1  0  0  0
 32 33  1  0  0  0
  8  9  1  0  0  0
 17 20  1  0  0  0
 41 44  1  0  0  0
M  END
> <minimizedAffinity>
-12.25232

$$$$
1D4I_BEG_A_501


 52 57  0  0  0  0  0  0  0  0999 V2000
   13.4673   24.0825    5.2980 C   0  0  0  0  0  0  0  0  0  0  0  0
   14.6298   24.5449    4.6230 O   0  0  0  0  0  0  0  0  0  0  0  0
   14.6575   24.1662    3.7304 H   0  0  0  0  0  0  0  0  0  0  0  0
   13.5904   22.5971    5.2651 C   0  0  0  0  0  0  0  0  0  0  0  0
   14.7971   22.0928    6.0158 C   0  0  0  0  0  0  0  0  0  0  0  0
   15.5192   21.3208    4.9420 C   0  0  0  0  0  0  0  0  0  0  0  0
   15.3411   21.5558    3.7514 O   0  0  0  0  0  0  0  0  0  0  0  0
   16.3795   20.3237    5.3536 N   0  0  0  0  0  0  0  0  0  0  0  0
   16.4777   20.1651    6.3202 H   0  0  0  0  0  0  0  0  0  0  0  0
   17.1468   19.4962    4.4437 C   0  0  0  0  0  0  0  0  0  0  0  0
   17.8108   18.3332    5.1296 C   0  0  0  0  0  0  0  0  0  0  0  0
   17.8246   17.1900    4.2998 C   0  0  0  0  0  0  0  0  0  0  0  0
   18.3698   18.2647    6.4306 C   0  0  0  0  0  0  0  0  0  0  0  0
   18.9490   17.0435    6.8849 C   0  0  0  0  0  0  0  0  0  0  0  0
   18.9616   15.9011    6.0368 C   0  0  0  0  0  0  0  0  0  0  0  0
   16.3558   18.7771    3.3358 C   0  0  0  0  0  0  0  0  0  0  0  0
   15.0893   18.4341    3.8790 O   0  0  0  0  0  0  0  0  0  0  0  0
   18.3967   15.9666    4.7332 C   0  0  0  0  0  0  0  0  0  0  0  0
   17.1624   17.4988    2.9927 C   0  0  0  0  0  0  0  0  0  0  0  0
   15.2144   17.8930    4.6743 H   0  0  0  0  0  0  0  0  0  0  0  0
   14.3860   21.1836    7.0451 O   0  0  0  0  0  0  0  0  0  0  0  0
   14.6989   21.6568    8.3554 C   0  0  0  0  0  0  0  0  0  0  0  0
   15.9470   21.0135    8.9627 C   0  0  0  0  0  0  0  0  0  0  0  0
   15.8249   19.8412    9.7688 C   0  0  0  0  0  0  0  0  0  0  0  0
   16.9472   19.1343   10.2703 C   0  0  0  0  0  0  0  0  0  0  0  0
   18.2519   19.6018    9.9757 C   0  0  0  0  0  0  0  0  0  0  0  0
   18.4085   20.7685    9.1893 C   0  0  0  0  0  0  0  0  0  0  0  0
   17.2722   21.4601    8.6937 C   0  0  0  0  0  0  0  0  0  0  0  0
   12.1787   24.5183    4.5861 C   0  0  0  0  0  0  0  0  0  0  0  0
   10.9370   24.5475    5.4687 C   0  0  0  0  0  0  0  0  0  0  0  0
   10.5960   23.5892    6.1580 O   0  0  0  0  0  0  0  0  0  0  0  0
   10.1825   25.7026    5.4241 N   0  0  0  0  0  0  0  0  0  0  0  0
   10.5001   26.4224    4.8322 H   0  0  0  0  0  0  0  0  0  0  0  0
    8.9611   25.9522    6.1723 C   0  0  0  0  0  0  0  0  0  0  0  0
    9.1976   26.6209    7.5018 C   0  0  0  0  0  0  0  0  0  0  0  0
    8.1704   27.5539    7.7962 C   0  0  0  0  0  0  0  0  0  0  0  0
   10.2658   26.4410    8.4209 C   0  0  0  0  0  0  0  0  0  0  0  0
   10.2889   27.1966    9.6330 C   0  0  0  0  0  0  0  0  0  0  0  0
    9.2474   28.1262    9.9140 C   0  0  0  0  0  0  0  0  0  0  0  0
    7.9736   26.9440    5.5199 C   0  0  0  0  0  0  0  0  0  0  0  0
    8.7510   27.9264    4.8515 O   0  0  0  0  0  0  0  0  0  0  0  0
    8.1786   28.3121    8.9960 C   0  0  0  0  0  0  0  0  0  0  0  0
    7.1704   27.5851    6.6794 C   0  0  0  0  0  0  0  0  0  0  0  0
    9.3555   28.3455    5.4839 H   0  0  0  0  0  0  0  0  0  0  0  0
   11.9084   23.7250    3.4087 O   0  0  0  0  0  0  0  0  0  0  0  0
   11.3420   24.4738    2.3363 C   0  0  0  0  0  0  0  0  0  0  0  0
    9.8235   24.3583    2.2487 C   0  0  0  0  0  0  0  0  0  0  0  0
    9.2020   23.0961    2.4370 C   0  0  0  0  0  0  0  0  0  0  0  0
    7.8108   22.8941    2.2843 C   0  0  0  0  0  0  0  0  0  0  0  0
    6.9843   23.9879    1.9319 C   0  0  0  0  0  0  0  0  0  0  0  0
    7.5656   25.2643    1.7431 C   0  0  0  0  0  0  0  0  0  0  0  0
    8.9645   25.4456    1.9027 C   0  0  0  0  0  0  0  0  0  0  0  0
 47 48  2  0  0  0
 47 52  1  0  0  0
 47 46  1  0  0  0
 48 49  1  0  0  0
 49 50  2  0  0  0
 50 51  1  0  0  0
 51 52  2  0  0  0
 23 24  2  0  0  0
 23 28  1  0  0  0
 23 22  1  0  0  0
 24 25  1  0  0  0
 25 26  2  0  0  0
 26 27  1  0  0  0
 27 28  2  0  0  0
 22 21  1  0  0  0
 21  5  1  0  0  0
 46 45  1  0  0  0
 45 29  1  0  0  0
  5  4  1  0  0  0
  5  6  1  0  0  0
  4  1  1  0  0  0
  1  2  1  0  0  0
  1 29  1  0  0  0
 29 30  1  0  0  0
 30 31  2  0  0  0
 30 32  1  0  0  0
 32 34  1  0  0  0
  6  7  2  0  0  0
  6  8  1  0  0  0
  8 10  1  0  0  0
 10 11  1  0  0  0
 10 16  1  0  0  0
 11 12  2  0  0  0
 11 13  1  0  0  0
 12 18  1  0  0  0
 12 19  1  0  0  0
 13 14  2  0  0  0
 14 15  1  0  0  0
 15 18  2  0  0  0
 16 17  1  0  0  0
 16 19  1  0  0  0
 34 35  1  0  0  0
 34 40  1  0  0  0
 35 36  2  0  0  0
 35 37  1  0  0  0
 36 42  1  0  0  0
 36 43  1  0  0  0
 37 38  2  0  0  0
 38 39  1  0  0  0
 39 42  2  0  0  0
 40 41  1  0  0  0
 40 43  1  0  0  0
  2  3  1  0  0  0
 32 33  1  0  0  0
  8  9  1  0  0  0
 17 20  1  0  0  0
 41 44  1  0  0  0
M  END
> <minimizedAffinity>
-12.08043

$$$$
1D4I_BEG_A_501


 52 57  0  0  0  0  0  0  0  0999 V2000
   13.8711   23.6709    5.0981 C   0  0  0  0  0  0  0  0  0  0  0  0
   14.6075   24.7083    4.4639 O   0  0  0  0  0  0  0  0  0  0  0  0
   14.9066   25.3465    5.1304 H   0  0  0  0  0  0  0  0  0  0  0  0
   12.7682   24.3830    5.8046 C   0  0  0  0  0  0  0  0  0  0  0  0
   11.4701   23.6157    5.7870 C   0  0  0  0  0  0  0  0  0  0  0  0
   11.0516   23.7645    4.3472 C   0  0  0  0  0  0  0  0  0  0  0  0
   11.8635   23.6901    3.4308 O   0  0  0  0  0  0  0  0  0  0  0  0
    9.7155   24.0055    4.1014 N   0  0  0  0  0  0  0  0  0  0  0  0
    9.1059   24.0697    4.8718 H   0  0  0  0  0  0  0  0  0  0  0  0
    9.1581   24.1696    2.7732 C   0  0  0  0  0  0  0  0  0  0  0  0
    7.6739   23.9267    2.7278 C   0  0  0  0  0  0  0  0  0  0  0  0
    7.0411   24.7967    1.8122 C   0  0  0  0  0  0  0  0  0  0  0  0
    6.8987   22.9954    3.4637 C   0  0  0  0  0  0  0  0  0  0  0  0
    5.4879   22.9404    3.2647 C   0  0  0  0  0  0  0  0  0  0  0  0
    4.8638   23.8183    2.3350 C   0  0  0  0  0  0  0  0  0  0  0  0
    9.2488   25.5785    2.1593 C   0  0  0  0  0  0  0  0  0  0  0  0
    9.1106   26.5098    3.2225 O   0  0  0  0  0  0  0  0  0  0  0  0
    5.6393   24.7567    1.5997 C   0  0  0  0  0  0  0  0  0  0  0  0
    8.0556   25.6966    1.1771 C   0  0  0  0  0  0  0  0  0  0  0  0
    8.2755   26.3471    3.6883 H   0  0  0  0  0  0  0  0  0  0  0  0
   10.5056   24.2704    6.6214 O   0  0  0  0  0  0  0  0  0  0  0  0
   11.1094   25.0729    7.6363 C   0  0  0  0  0  0  0  0  0  0  0  0
   10.1691   26.1193    8.2374 C   0  0  0  0  0  0  0  0  0  0  0  0
    8.8403   26.2577    7.7331 C   0  0  0  0  0  0  0  0  0  0  0  0
    7.8854   27.1294    8.3154 C   0  0  0  0  0  0  0  0  0  0  0  0
    8.2509   27.9095    9.4403 C   0  0  0  0  0  0  0  0  0  0  0  0
    9.5643   27.8056    9.9581 C   0  0  0  0  0  0  0  0  0  0  0  0
   10.5048   26.9244    9.3629 C   0  0  0  0  0  0  0  0  0  0  0  0
   14.7273   22.8948    6.1091 C   0  0  0  0  0  0  0  0  0  0  0  0
   14.7893   21.3904    5.8757 C   0  0  0  0  0  0  0  0  0  0  0  0
   13.8194   20.6562    6.0495 O   0  0  0  0  0  0  0  0  0  0  0  0
   16.0141   20.8811    5.4938 N   0  0  0  0  0  0  0  0  0  0  0  0
   16.7549   21.5221    5.3962 H   0  0  0  0  0  0  0  0  0  0  0  0
   16.3089   19.4834    5.2228 C   0  0  0  0  0  0  0  0  0  0  0  0
   16.1684   19.1112    3.7693 C   0  0  0  0  0  0  0  0  0  0  0  0
   17.1600   18.1736    3.3821 C   0  0  0  0  0  0  0  0  0  0  0  0
   15.2268   19.5721    2.8106 C   0  0  0  0  0  0  0  0  0  0  0  0
   15.2859   19.0808    1.4706 C   0  0  0  0  0  0  0  0  0  0  0  0
   16.2859   18.1370    1.1003 C   0  0  0  0  0  0  0  0  0  0  0  0
   17.7650   19.0470    5.4949 C   0  0  0  0  0  0  0  0  0  0  0  0
   18.5981   20.1484    5.1651 O   0  0  0  0  0  0  0  0  0  0  0  0
   17.2321   17.6757    2.0550 C   0  0  0  0  0  0  0  0  0  0  0  0
   18.0457   17.8527    4.5487 C   0  0  0  0  0  0  0  0  0  0  0  0
   18.4405   20.4087    4.2440 H   0  0  0  0  0  0  0  0  0  0  0  0
   14.3278   23.1494    7.4745 O   0  0  0  0  0  0  0  0  0  0  0  0
   15.4264   23.3425    8.3617 C   0  0  0  0  0  0  0  0  0  0  0  0
   15.9747   22.0433    8.9434 C   0  0  0  0  0  0  0  0  0  0  0  0
   17.3153   21.6623    8.6739 C   0  0  0  0  0  0  0  0  0  0  0  0
   17.8662   20.4331    9.1039 C   0  0  0  0  0  0  0  0  0  0  0  0
   17.0615   19.5307    9.8401 C   0  0  0  0  0  0  0  0  0  0  0  0
   15.7219   19.8779   10.1357 C   0  0  0  0  0  0  0  0  0  0  0  0
   15.1889   21.1178    9.6956 C   0  0  0  0  0  0  0  0  0  0  0  0
 47 48  2  0  0  0
 47 52  1  0  0  0
 47 46  1  0  0  0
 48 49  1  0  0  0
 49 50  2  0  0  0
 50 51  1  0  0  0
 51 52  2  0  0  0
 23 24  2  0  0  0
 23 28  1  0  0  0
 23 22  1  0  0  0
 24 25  1  0  0  0
 25 26  2  0  0  0
 26 27  1  0  0  0
 27 28  2  0  0  0
 22 21  1  0  0  0
 21  5  1  0  0  0
 46 45  1  0  0  0
 45 29  1  0  0  0
  5  4  1  0  0  0
  5  6  1  0  0  0
  4  1  1  0  0  0
  1  2  1  0  0  0
  1 29  1  0  0  0
 29 30  1  0  0  0
 30 31  2  0  0  0
 30 32  1  0  0  0
 32 34  1  0  0  0
  6  7  2  0  0  0
  6  8  1  0  0  0
  8 10  1  0  0  0
 10 11  1  0  0  0
 10 16  1  0  0  0
 11 12  2  0  0  0
 11 13  1  0  0  0
 12 18  1  0  0  0
 12 19  1  0  0  0
 13 14  2  0  0  0
 14 15  1  0  0  0
 15 18  2  0  0  0
 16 17  1  0  0  0
 16 19  1  0  0  0
 34 35  1  0  0  0
 34 40  1  0  0  0
 35 36  2  0  0  0
 35 37  1  0  0  0
 36 42  1  0  0  0
 36 43  1  0  0  0
 37 38  2  0  0  0
 38 39  1  0  0  0
 39 42  2  0  0  0
 40 41  1  0  0  0
 40 43  1  0  0  0
  2  3  1  0  0  0
 32 33  1  0  0  0
  8  9  1  0  0  0
 17 20  1  0  0  0
 41 44  1  0  0  0
M  END
> <minimizedAffinity>
-12.04521

$$$$
1D4I_BEG_A_501


 52 57  0  0  0  0  0  0  0  0999 V2000
   14.4101   23.8739    5.4408 C   0  0  0  0  0  0  0  0  0  0  0  0
   13.3910   24.5624    4.7280 O   0  0  0  0  0  0  0  0  0  0  0  0
   12.7367   23.9245    4.4026 H   0  0  0  0  0  0  0  0  0  0  0  0
   14.9473   22.8919    4.4561 C   0  0  0  0  0  0  0  0  0  0  0  0
   13.9471   21.8251    4.0879 C   0  0  0  0  0  0  0  0  0  0  0  0
   14.8109   20.8509    3.3295 C   0  0  0  0  0  0  0  0  0  0  0  0
   14.6259   20.6194    2.1393 O   0  0  0  0  0  0  0  0  0  0  0  0
   15.8115   20.2147    4.0350 N   0  0  0  0  0  0  0  0  0  0  0  0
   15.9107   20.4249    4.9917 H   0  0  0  0  0  0  0  0  0  0  0  0
   16.7249   19.2543    3.4478 C   0  0  0  0  0  0  0  0  0  0  0  0
   17.4742   18.4541    4.4784 C   0  0  0  0  0  0  0  0  0  0  0  0
   17.6719   17.1232    4.0480 C   0  0  0  0  0  0  0  0  0  0  0  0
   17.9544   18.8611    5.7487 C   0  0  0  0  0  0  0  0  0  0  0  0
   18.6409   17.9239    6.5755 C   0  0  0  0  0  0  0  0  0  0  0  0
   18.8385   16.5880    6.1274 C   0  0  0  0  0  0  0  0  0  0  0  0
   16.0935   18.1340    2.6015 C   0  0  0  0  0  0  0  0  0  0  0  0
   14.8433   17.8135    3.1942 O   0  0  0  0  0  0  0  0  0  0  0  0
   18.3530   16.1767    4.8554 C   0  0  0  0  0  0  0  0  0  0  0  0
   17.0622   16.9276    2.6944 C   0  0  0  0  0  0  0  0  0  0  0  0
   14.9797   17.5637    4.1214 H   0  0  0  0  0  0  0  0  0  0  0  0
   12.9635   22.3660    3.1962 O   0  0  0  0  0  0  0  0  0  0  0  0
   11.6396   21.9302    3.5064 C   0  0  0  0  0  0  0  0  0  0  0  0
   10.5431   22.8331    2.9382 C   0  0  0  0  0  0  0  0  0  0  0  0
    9.1700   22.4783    3.1038 C   0  0  0  0  0  0  0  0  0  0  0  0
    8.1049   23.3223    2.6988 C   0  0  0  0  0  0  0  0  0  0  0  0
    8.3977   24.5702    2.0949 C   0  0  0  0  0  0  0  0  0  0  0  0
    9.7488   24.9475    1.9045 C   0  0  0  0  0  0  0  0  0  0  0  0
   10.8009   24.0898    2.3201 C   0  0  0  0  0  0  0  0  0  0  0  0
   13.8545   23.1366    6.6676 C   0  0  0  0  0  0  0  0  0  0  0  0
   12.3390   23.1905    6.8162 C   0  0  0  0  0  0  0  0  0  0  0  0
   11.6306   22.1922    6.7089 O   0  0  0  0  0  0  0  0  0  0  0  0
   11.7907   24.4375    7.0394 N   0  0  0  0  0  0  0  0  0  0  0  0
   12.4138   25.1980    7.0905 H   0  0  0  0  0  0  0  0  0  0  0  0
   10.3762   24.7291    7.2061 C   0  0  0  0  0  0  0  0  0  0  0  0
   10.1084   25.9124    8.0999 C   0  0  0  0  0  0  0  0  0  0  0  0
    9.0018   26.6673    7.6331 C   0  0  0  0  0  0  0  0  0  0  0  0
   10.8001   26.3311    9.2679 C   0  0  0  0  0  0  0  0  0  0  0  0
   10.3689   27.5030    9.9616 C   0  0  0  0  0  0  0  0  0  0  0  0
    9.2537   28.2467    9.4809 C   0  0  0  0  0  0  0  0  0  0  0  0
    9.6313   25.1593    5.9236 C   0  0  0  0  0  0  0  0  0  0  0  0
   10.5467   25.9149    5.1443 O   0  0  0  0  0  0  0  0  0  0  0  0
    8.5608   27.8337    8.3109 C   0  0  0  0  0  0  0  0  0  0  0  0
    8.4490   26.0484    6.3842 C   0  0  0  0  0  0  0  0  0  0  0  0
   10.8759   26.6628    5.6670 H   0  0  0  0  0  0  0  0  0  0  0  0
   14.4702   23.5793    7.8979 O   0  0  0  0  0  0  0  0  0  0  0  0
   15.8648   23.2940    7.9704 C   0  0  0  0  0  0  0  0  0  0  0  0
   16.1886   22.0408    8.7776 C   0  0  0  0  0  0  0  0  0  0  0  0
   17.4617   21.4273    8.6441 C   0  0  0  0  0  0  0  0  0  0  0  0
   17.8033   20.2172    9.2909 C   0  0  0  0  0  0  0  0  0  0  0  0
   16.8477   19.5760   10.1152 C   0  0  0  0  0  0  0  0  0  0  0  0
   15.5695   20.1607   10.2798 C   0  0  0  0  0  0  0  0  0  0  0  0
   15.2475   21.3769    9.6224 C   0  0  0  0  0  0  0  0  0  0  0  0
 47 48  2  0  0  0
 47 52  1  0  0  0
 47 46  1  0  0  0
 48 49  1  0  0  0
 49 50  2  0  0  0
 50 51  1  0  0  0
 51 52  2  0  0  0
 23 24  2  0  0  0
 23 28  1  0  0  0
 23 22  1  0  0  0
 24 25  1  0  0  0
 25 26  2  0  0  0
 26 27  1  0  0  0
 27 28  2  0  0  0
 22 21  1  0  0  0
 21  5  1  0  0  0
 46 45  1  0  0  0
 45 29  1  0  0  0
  5  4  1  0  0  0
  5  6  1  0  0  0
  4  1  1  0  0  0
  1  2  1  0  0  0
  1 29  1  0  0  0
 29 30  1  0  0  0
 30 31  2  0  0  0
 30 32  1  0  0  0
 32 34  1  0  0  0
  6  7  2  0  0  0
  6  8  1  0  0  0
  8 10  1  0  0  0
 10 11  1  0  0  0
 10 16  1  0  0  0
 11 12  2  0  0  0
 11 13  1  0  0  0
 12 18  1  0  0  0
 12 19  1  0  0  0
 13 14  2  0  0  0
 14 15  1  0  0  0
 15 18  2  0  0  0
 16 17  1  0  0  0
 16 19  1  0  0  0
 34 35  1  0  0  0
 34 40  1  0  0  0
 35 36  2  0  0  0
 35 37  1  0  0  0
 36 42  1  0  0  0
 36 43  1  0  0  0
 37 38  2  0  0  0
 38 39  1  0  0  0
 39 42  2  0  0  0
 40 41  1  0  0  0
 40 43  1  0  0  0
  2  3  1  0  0  0
 32 33  1  0  0  0
  8  9  1  0  0  0
 17 20  1  0  0  0
 41 44  1  0  0  0
M  END
> <minimizedAffinity>
-11.49223

$$$$
1D4I_BEG_A_501


 52 57  0  0  0  0  0  0  0  0999 V2000
   15.1603   21.2532    6.9460 C   0  0  0  0  0  0  0  0  0  0  0  0
   15.9676   22.4037    7.1591 O   0  0  0  0  0  0  0  0  0  0  0  0
   16.6483   22.4532    6.4699 H   0  0  0  0  0  0  0  0  0  0  0  0
   16.1279   20.1190    6.9564 C   0  0  0  0  0  0  0  0  0  0  0  0
   17.5103   20.5327    7.3943 C   0  0  0  0  0  0  0  0  0  0  0  0
   18.3683   19.5210    6.6799 C   0  0  0  0  0  0  0  0  0  0  0  0
   19.1595   19.8536    5.8036 O   0  0  0  0  0  0  0  0  0  0  0  0
   18.2152   18.1982    7.0409 N   0  0  0  0  0  0  0  0  0  0  0  0
   17.5574   17.9811    7.7405 H   0  0  0  0  0  0  0  0  0  0  0  0
   18.9677   17.1098    6.4489 C   0  0  0  0  0  0  0  0  0  0  0  0
   19.0625   15.9072    7.3481 C   0  0  0  0  0  0  0  0  0  0  0  0
   19.0159   14.7072    6.6041 C   0  0  0  0  0  0  0  0  0  0  0  0
   19.1707   15.8550    8.7607 C   0  0  0  0  0  0  0  0  0  0  0  0
   19.2408   14.5903    9.4155 C   0  0  0  0  0  0  0  0  0  0  0  0
   19.1989   13.3893    8.6536 C   0  0  0  0  0  0  0  0  0  0  0  0
   18.3791   16.4821    5.1723 C   0  0  0  0  0  0  0  0  0  0  0  0
   16.9651   16.5223    5.2978 O   0  0  0  0  0  0  0  0  0  0  0  0
   19.0852   13.4398    7.2368 C   0  0  0  0  0  0  0  0  0  0  0  0
   18.8791   15.0152    5.1450 C   0  0  0  0  0  0  0  0  0  0  0  0
   16.6994   16.0624    6.1094 H   0  0  0  0  0  0  0  0  0  0  0  0
   17.6502   20.3447    8.8087 O   0  0  0  0  0  0  0  0  0  0  0  0
   16.5715   19.5999    9.3748 C   0  0  0  0  0  0  0  0  0  0  0  0
   17.0106   18.5797   10.4269 C   0  0  0  0  0  0  0  0  0  0  0  0
   16.2347   17.4010   10.6449 C   0  0  0  0  0  0  0  0  0  0  0  0
   16.6420   16.3658   11.5242 C   0  0  0  0  0  0  0  0  0  0  0  0
   17.8635   16.4940   12.2307 C   0  0  0  0  0  0  0  0  0  0  0  0
   18.6512   17.6558   12.0471 C   0  0  0  0  0  0  0  0  0  0  0  0
   18.2276   18.6795   11.1595 C   0  0  0  0  0  0  0  0  0  0  0  0
   14.4291   21.3070    5.5970 C   0  0  0  0  0  0  0  0  0  0  0  0
   12.9377   21.6060    5.6875 C   0  0  0  0  0  0  0  0  0  0  0  0
   12.1678   20.9206    6.3563 O   0  0  0  0  0  0  0  0  0  0  0  0
   12.4819   22.6731    4.9399 N   0  0  0  0  0  0  0  0  0  0  0  0
   13.1487   23.1645    4.4079 H   0  0  0  0  0  0  0  0  0  0  0  0
   11.1058   23.1368    4.8673 C   0  0  0  0  0  0  0  0  0  0  0  0
   10.7918   24.2400    5.8446 C   0  0  0  0  0  0  0  0  0  0  0  0
    9.8997   25.1871    5.2792 C   0  0  0  0  0  0  0  0  0  0  0  0
   11.2662   24.4282    7.1703 C   0  0  0  0  0  0  0  0  0  0  0  0
   10.8341   25.5648    7.9200 C   0  0  0  0  0  0  0  0  0  0  0  0
    9.9353   26.5035    7.3378 C   0  0  0  0  0  0  0  0  0  0  0  0
   10.6994   23.8042    3.5354 C   0  0  0  0  0  0  0  0  0  0  0  0
   11.8369   24.5076    3.0582 O   0  0  0  0  0  0  0  0  0  0  0  0
    9.4608   26.3214    6.0108 C   0  0  0  0  0  0  0  0  0  0  0  0
    9.5547   24.7917    3.8746 C   0  0  0  0  0  0  0  0  0  0  0  0
   12.1314   25.1407    3.7315 H   0  0  0  0  0  0  0  0  0  0  0  0
   14.6283   20.1062    4.8179 O   0  0  0  0  0  0  0  0  0  0  0  0
   14.7681   20.3516    3.4208 C   0  0  0  0  0  0  0  0  0  0  0  0
   15.5410   19.2611    2.6856 C   0  0  0  0  0  0  0  0  0  0  0  0
   16.8913   18.9981    3.0356 C   0  0  0  0  0  0  0  0  0  0  0  0
   17.6974   18.0660    2.3422 C   0  0  0  0  0  0  0  0  0  0  0  0
   17.1499   17.3511    1.2499 C   0  0  0  0  0  0  0  0  0  0  0  0
   15.8046   17.5797    0.8752 C   0  0  0  0  0  0  0  0  0  0  0  0
   15.0123   18.5190    1.5858 C   0  0  0  0  0  0  0  0  0  0  0  0
 47 48  2  0  0  0
 47 52  1  0  0  0
 47 46  1  0  0  0
 48 49  1  0  0  0
 49 50  2  0  0  0
 50 51  1  0  0  0
 51 52  2  0  0  0
 23 24  2  0  0  0
 23 28  1  0  0  0
 23 22  1  0  0  0
 24 25  1  0  0  0
 25 26  2  0  0  0
 26 27  1  0  0  0
 27 28  2  0  0  0
 22 21  1  0  0  0
 21  5  1  0  0  0
 46 45  1  0  0  0
 45 29  1  0  0  0
  5  4  1  0  0  0
  5  6  1  0  0  0
  4  1  1  0  0  0
  1  2  1  0  0  0
  1 29  1  0  0  0
 29 30  1  0  0  0
 30 31  2  0  0  0
 30 32  1  0  0  0
 32 34  1  0  0  0
  6  7  2  0  0  0
  6  8  1  0  0  0
  8 10  1  0  0  0
 10 11  1  0  0  0
 10 16  1  0  0  0
 11 12  2  0  0  0
 11 13  1  0  0  0
 12 18  1  0  0  0
 12 19  1  0  0  0
 13 14  2  0  0  0
 14 15  1  0  0  0
 15 18  2  0  0  0
 16 17  1  0  0  0
 16 19  1  0  0  0
 34 35  1  0  0  0
 34 40  1  0  0  0
 35 36  2  0  0  0
 35 37  1  0  0  0
 36 42  1  0  0  0
 36 43  1  0  0  0
 37 38  2  0  0  0
 38 39  1  0  0  0
 39 42  2  0  0  0
 40 41  1  0  0  0
 40 43  1  0  0  0
  2  3  1  0  0  0
 32 33  1  0  0  0
  8  9  1  0  0  0
 17 20  1  0  0  0
 41 44  1  0  0  0
M  END
> <minimizedAffinity>
-11.29334

$$$$
1D4I_BEG_A_501


 52 57  0  0  0  0  0  0  0  0999 V2000
   12.7812   23.6778    4.4814 C   0  0  0  0  0  0  0  0  0  0  0  0
   14.1803   23.4451    4.5770 O   0  0  0  0  0  0  0  0  0  0  0  0
   14.4121   23.2413    5.4966 H   0  0  0  0  0  0  0  0  0  0  0  0
   12.5282   24.7918    5.4395 C   0  0  0  0  0  0  0  0  0  0  0  0
   12.5625   24.3448    6.8793 C   0  0  0  0  0  0  0  0  0  0  0  0
   12.2415   25.6280    7.6010 C   0  0  0  0  0  0  0  0  0  0  0  0
   13.1222   26.3288    8.0885 O   0  0  0  0  0  0  0  0  0  0  0  0
   10.9104   25.9754    7.7062 N   0  0  0  0  0  0  0  0  0  0  0  0
   10.2406   25.3727    7.3097 H   0  0  0  0  0  0  0  0  0  0  0  0
   10.4420   27.1775    8.3675 C   0  0  0  0  0  0  0  0  0  0  0  0
    9.0327   27.5425    7.9877 C   0  0  0  0  0  0  0  0  0  0  0  0
    8.3323   28.0893    9.0859 C   0  0  0  0  0  0  0  0  0  0  0  0
    8.3772   27.3929    6.7396 C   0  0  0  0  0  0  0  0  0  0  0  0
    7.0190   27.8051    6.6034 C   0  0  0  0  0  0  0  0  0  0  0  0
    6.3270   28.3598    7.7160 C   0  0  0  0  0  0  0  0  0  0  0  0
   10.3319   27.1191    9.9019 C   0  0  0  0  0  0  0  0  0  0  0  0
    9.9460   25.7962   10.2454 O   0  0  0  0  0  0  0  0  0  0  0  0
    6.9815   28.5059    8.9703 C   0  0  0  0  0  0  0  0  0  0  0  0
    9.2200   28.1262   10.2914 C   0  0  0  0  0  0  0  0  0  0  0  0
    9.1179   25.5731    9.7924 H   0  0  0  0  0  0  0  0  0  0  0  0
   13.8902   23.9336    7.2306 O   0  0  0  0  0  0  0  0  0  0  0  0
   13.9191   23.0902    8.3824 C   0  0  0  0  0  0  0  0  0  0  0  0
   15.2065   22.2752    8.5190 C   0  0  0  0  0  0  0  0  0  0  0  0
   16.4679   22.8813    8.2352 C   0  0  0  0  0  0  0  0  0  0  0  0
   17.7031   22.2175    8.4460 C   0  0  0  0  0  0  0  0  0  0  0  0
   17.7038   20.8936    8.9508 C   0  0  0  0  0  0  0  0  0  0  0  0
   16.4699   20.2587    9.2312 C   0  0  0  0  0  0  0  0  0  0  0  0
   15.2441   20.9415    9.0167 C   0  0  0  0  0  0  0  0  0  0  0  0
   11.9648   22.4420    4.8860 C   0  0  0  0  0  0  0  0  0  0  0  0
   12.7924   21.2547    5.3625 C   0  0  0  0  0  0  0  0  0  0  0  0
   12.6431   20.7510    6.4733 O   0  0  0  0  0  0  0  0  0  0  0  0
   13.7574   20.7929    4.4902 N   0  0  0  0  0  0  0  0  0  0  0  0
   13.8395   21.2577    3.6262 H   0  0  0  0  0  0  0  0  0  0  0  0
   14.6636   19.6820    4.7321 C   0  0  0  0  0  0  0  0  0  0  0  0
   15.3065   19.1477    3.4784 C   0  0  0  0  0  0  0  0  0  0  0  0
   16.6495   18.7579    3.7171 C   0  0  0  0  0  0  0  0  0  0  0  0
   14.7584   19.0123    2.1748 C   0  0  0  0  0  0  0  0  0  0  0  0
   15.5637   18.4793    1.1223 C   0  0  0  0  0  0  0  0  0  0  0  0
   16.9088   18.0896    1.3807 C   0  0  0  0  0  0  0  0  0  0  0  0
   15.9111   20.0150    5.5791 C   0  0  0  0  0  0  0  0  0  0  0  0
   16.2961   21.3414    5.2493 O   0  0  0  0  0  0  0  0  0  0  0  0
   17.4626   18.2264    2.6823 C   0  0  0  0  0  0  0  0  0  0  0  0
   17.0094   19.0096    5.1507 C   0  0  0  0  0  0  0  0  0  0  0  0
   16.4517   21.4048    4.2940 H   0  0  0  0  0  0  0  0  0  0  0  0
   11.0700   22.0093    3.8368 O   0  0  0  0  0  0  0  0  0  0  0  0
   11.0412   22.8886    2.7155 C   0  0  0  0  0  0  0  0  0  0  0  0
    9.6706   23.5090    2.4636 C   0  0  0  0  0  0  0  0  0  0  0  0
    9.5779   24.8546    2.0212 C   0  0  0  0  0  0  0  0  0  0  0  0
    8.3443   25.5245    1.8510 C   0  0  0  0  0  0  0  0  0  0  0  0
    7.1372   24.8380    2.1256 C   0  0  0  0  0  0  0  0  0  0  0  0
    7.1877   23.4926    2.5613 C   0  0  0  0  0  0  0  0  0  0  0  0
    8.4369   22.8383    2.7243 C   0  0  0  0  0  0  0  0  0  0  0  0
 47 48  2  0  0  0
 47 52  1  0  0  0
 47 46  1  0  0  0
 48 49  1  0  0  0
 49 50  2  0  0  0
 50 51  1  0  0  0
 51 52  2  0  0  0
 23 24  2  0  0  0
 23 28  1  0  0  0
 23 22  1  0  0  0
 24 25  1  0  0  0
 25 26  2  0  0  0
 26 27  1  0  0  0
 27 28  2  0  0  0
 22 21  1  0  0  0
 21  5  1  0  0  0
 46 45  1  0  0  0
 45 29  1  0  0  0
  5  4  1  0  0  0
  5  6  1  0  0  0
  4  1  1  0  0  0
  1  2  1  0  0  0
  1 29  1  0  0  0
 29 30  1  0  0  0
 30 31  2  0  0  0
 30 32  1  0  0  0
 32 34  1  0  0  0
  6  7  2  0  0  0
  6  8  1  0  0  0
  8 10  1  0  0  0
 10 11  1  0  0  0
 10 16  1  0  0  0
 11 12  2  0  0  0
 11 13  1  0  0  0
 12 18  1  0  0  0
 12 19  1  0  0  0
 13 14  2  0  0  0
 14 15  1  0  0  0
 15 18  2  0  0  0
 16 17  1  0  0  0
 16 19  1  0  0  0
 34 35  1  0  0  0
 34 40  1  0  0  0
 35 36  2  0  0  0
 35 37  1  0  0  0
 36 42  1  0  0  0
 36 43  1  0  0  0
 37 38  2  0  0  0
 38 39  1  0  0  0
 39 42  2  0  0  0
 40 41  1  0  0  0
 40 43  1  0  0  0
  2  3  1  0  0  0
 32 33  1  0  0  0
  8  9  1  0  0  0
 17 20  1  0  0  0
 41 44  1  0  0  0
M  END
> <minimizedAffinity>
-11.25061

$$$$
1D4I_BEG_A_501


 52 57  0  0  0  0  0  0  0  0999 V2000
   13.8076   22.9562    6.8951 C   0  0  0  0  0  0  0  0  0  0  0  0
   14.4602   24.0231    7.5708 O   0  0  0  0  0  0  0  0  0  0  0  0
   14.9746   24.5428    6.9335 H   0  0  0  0  0  0  0  0  0  0  0  0
   14.9161   22.2032    6.2417 C   0  0  0  0  0  0  0  0  0  0  0  0
   14.9974   20.7681    6.6976 C   0  0  0  0  0  0  0  0  0  0  0  0
   15.8641   20.8900    7.9241 C   0  0  0  0  0  0  0  0  0  0  0  0
   16.4904   21.9157    8.1691 O   0  0  0  0  0  0  0  0  0  0  0  0
   15.9382   19.7909    8.7547 N   0  0  0  0  0  0  0  0  0  0  0  0
   15.4271   18.9867    8.5073 H   0  0  0  0  0  0  0  0  0  0  0  0
   16.7259   19.7527    9.9712 C   0  0  0  0  0  0  0  0  0  0  0  0
   16.7790   18.3827   10.5907 C   0  0  0  0  0  0  0  0  0  0  0  0
   18.0421   18.1329   11.1721 C   0  0  0  0  0  0  0  0  0  0  0  0
   15.7740   17.3838   10.6363 C   0  0  0  0  0  0  0  0  0  0  0  0
   16.0461   16.1396   11.2774 C   0  0  0  0  0  0  0  0  0  0  0  0
   17.3205   15.9032   11.8643 C   0  0  0  0  0  0  0  0  0  0  0  0
   18.2247   20.0745    9.8296 C   0  0  0  0  0  0  0  0  0  0  0  0
   18.6452   19.5718    8.5697 O   0  0  0  0  0  0  0  0  0  0  0  0
   18.3316   16.9022   11.8150 C   0  0  0  0  0  0  0  0  0  0  0  0
   18.9369   19.3181   10.9798 C   0  0  0  0  0  0  0  0  0  0  0  0
   18.4497   18.6231    8.5186 H   0  0  0  0  0  0  0  0  0  0  0  0
   15.6881   19.9834    5.7166 O   0  0  0  0  0  0  0  0  0  0  0  0
   14.8772   19.6838    4.5801 C   0  0  0  0  0  0  0  0  0  0  0  0
   15.5851   18.8344    3.5229 C   0  0  0  0  0  0  0  0  0  0  0  0
   15.1427   18.8703    2.1657 C   0  0  0  0  0  0  0  0  0  0  0  0
   15.8203   18.1942    1.1195 C   0  0  0  0  0  0  0  0  0  0  0  0
   16.9819   17.4395    1.4171 C   0  0  0  0  0  0  0  0  0  0  0  0
   17.4407   17.3727    2.7547 C   0  0  0  0  0  0  0  0  0  0  0  0
   16.7503   18.0596    3.7874 C   0  0  0  0  0  0  0  0  0  0  0  0
   12.8224   23.4662    5.8337 C   0  0  0  0  0  0  0  0  0  0  0  0
   11.3792   23.5918    6.3060 C   0  0  0  0  0  0  0  0  0  0  0  0
   10.6783   22.6124    6.5500 O   0  0  0  0  0  0  0  0  0  0  0  0
   10.8791   24.8743    6.4086 N   0  0  0  0  0  0  0  0  0  0  0  0
   11.4873   25.6122    6.1746 H   0  0  0  0  0  0  0  0  0  0  0  0
    9.5351   25.2336    6.8309 C   0  0  0  0  0  0  0  0  0  0  0  0
    9.5073   26.2128    7.9760 C   0  0  0  0  0  0  0  0  0  0  0  0
    8.4393   27.1358    7.8354 C   0  0  0  0  0  0  0  0  0  0  0  0
   10.3778   26.3129    9.0941 C   0  0  0  0  0  0  0  0  0  0  0  0
   10.1631   27.3372   10.0663 C   0  0  0  0  0  0  0  0  0  0  0  0
    9.0837   28.2530    9.9112 C   0  0  0  0  0  0  0  0  0  0  0  0
    8.6892   25.9886    5.7825 C   0  0  0  0  0  0  0  0  0  0  0  0
    9.5780   26.8203    5.0513 O   0  0  0  0  0  0  0  0  0  0  0  0
    8.2124   28.1590    8.7925 C   0  0  0  0  0  0  0  0  0  0  0  0
    7.6745   26.8475    6.5783 C   0  0  0  0  0  0  0  0  0  0  0  0
   10.0471   27.4089    5.6632 H   0  0  0  0  0  0  0  0  0  0  0  0
   12.8615   22.6749    4.6250 O   0  0  0  0  0  0  0  0  0  0  0  0
   12.5528   23.4180    3.4486 C   0  0  0  0  0  0  0  0  0  0  0  0
   11.0729   23.3872    3.0800 C   0  0  0  0  0  0  0  0  0  0  0  0
   10.3752   22.1510    3.0731 C   0  0  0  0  0  0  0  0  0  0  0  0
    9.0287   22.0307    2.6584 C   0  0  0  0  0  0  0  0  0  0  0  0
    8.3276   23.1839    2.2311 C   0  0  0  0  0  0  0  0  0  0  0  0
    8.9865   24.4362    2.2312 C   0  0  0  0  0  0  0  0  0  0  0  0
   10.3383   24.5351    2.6527 C   0  0  0  0  0  0  0  0  0  0  0  0
 47 48  2  0  0  0
 47 52  1  0  0  0
 47 46  1  0  0  0
 48 49  1  0  0  0
 49 50  2  0  0  0
 50 51  1  0  0  0
 51 52  2  0  0  0
 23 24  2  0  0  0
 23 28  1  0  0  0
 23 22  1  0  0  0
 24 25  1  0  0  0
 25 26  2  0  0  0
 26 27  1  0  0  0
 27 28  2  0  0  0
 22 21  1  0  0  0
 21  5  1  0  0  0
 46 45  1  0  0  0
 45 29  1  0  0  0
  5  4  1  0  0  0
  5  6  1  0  0  0
  4  1  1  0  0  0
  1  2  1  0  0  0
  1 29  1  0  0  0
 29 30  1  0  0  0
 30 31  2  0  0  0
 30 32  1  0  0  0
 32 34  1  0  0  0
  6  7  2  0  0  0
  6  8  1  0  0  0
  8 10  1  0  0  0
 10 11  1  0  0  0
 10 16  1  0  0  0
 11 12  2  0  0  0
 11 13  1  0  0  0
 12 18  1  0  0  0
 12 19  1  0  0  0
 13 14  2  0  0  0
 14 15  1  0  0  0
 15 18  2  0  0  0
 16 17  1  0  0  0
 16 19  1  0  0  0
 34 35  1  0  0  0
 34 40  1  0  0  0
 35 36  2  0  0  0
 35 37  1  0  0  0
 36 42  1  0  0  0
 36 43  1  0  0  0
 37 38  2  0  0  0
 38 39  1  0  0  0
 39 42  2  0  0  0
 40 41  1  0  0  0
 40 43  1  0  0  0
  2  3  1  0  0  0
 32 33  1  0  0  0
  8  9  1  0  0  0
 17 20  1  0  0  0
 41 44  1  0  0  0
M  END
> <minimizedAffinity>
-11.15870

$$$$
