3Q71_AR6_A_800


 45 48  0  0  0  0  0  0  0  0999 V2000
  -24.7853   14.7464  -23.3221 O   0  0  0  0  0  0  0  0  0  0  0  0
  -24.7486   16.1739  -24.0701 P   0  0  0  0  0  0  0  0  0  0  0  0
  -24.7897   15.9021  -25.5108 O   0  0  0  0  0  0  0  0  0  0  0  0
  -23.5970   16.9226  -23.5256 O   0  0  0  0  0  0  0  0  0  0  0  0
  -24.7693   16.7403  -25.9986 H   0  0  0  0  0  0  0  0  0  0  0  0
  -26.1317   16.8708  -23.6834 O   0  0  0  0  0  0  0  0  0  0  0  0
  -26.3791   18.1849  -22.7582 P   0  0  0  0  0  0  0  0  0  0  0  0
  -27.8348   18.4783  -22.9250 O   0  0  0  0  0  0  0  0  0  0  0  0
  -25.8102   18.0026  -21.4070 O   0  0  0  0  0  0  0  0  0  0  0  0
  -28.3557   17.8051  -22.4599 H   0  0  0  0  0  0  0  0  0  0  0  0
  -25.7358   19.3900  -23.5846 O   0  0  0  0  0  0  0  0  0  0  0  0
  -26.2153   19.7546  -24.8672 C   0  0  0  0  0  0  0  0  0  0  0  0
  -26.1856   20.1356  -27.8732 C   0  0  0  0  0  0  0  0  0  0  0  0
  -25.6486   19.7606  -29.0812 O   0  0  0  0  0  0  0  0  0  0  0  0
  -25.6157   21.4655  -27.3769 C   0  0  0  0  0  0  0  0  0  0  0  0
  -24.8965   22.1002  -28.4215 O   0  0  0  0  0  0  0  0  0  0  0  0
  -24.6457   21.0610  -26.3011 C   0  0  0  0  0  0  0  0  0  0  0  0
  -23.3736   20.8450  -26.9092 O   0  0  0  0  0  0  0  0  0  0  0  0
  -25.1437   19.6905  -25.8945 C   0  0  0  0  0  0  0  0  0  0  0  0
  -25.6310   19.1016  -27.0789 O   0  0  0  0  0  0  0  0  0  0  0  0
  -24.6867   19.6711  -28.9936 H   0  0  0  0  0  0  0  0  0  0  0  0
  -24.2007   21.5055  -28.7428 H   0  0  0  0  0  0  0  0  0  0  0  0
  -23.4629   20.1949  -27.6235 H   0  0  0  0  0  0  0  0  0  0  0  0
  -25.7102   14.4259  -22.2693 C   0  0  0  0  0  0  0  0  0  0  0  0
  -24.5788   10.9983  -22.4774 C   0  0  0  0  0  0  0  0  0  0  0  0
  -23.3984   11.7885  -21.9731 C   0  0  0  0  0  0  0  0  0  0  0  0
  -22.6169   10.9397  -21.1544 O   0  0  0  0  0  0  0  0  0  0  0  0
  -24.0937   12.8409  -21.1199 C   0  0  0  0  0  0  0  0  0  0  0  0
  -24.2524   12.3253  -19.8007 O   0  0  0  0  0  0  0  0  0  0  0  0
  -25.4886   12.9890  -21.7559 C   0  0  0  0  0  0  0  0  0  0  0  0
  -25.4963   12.0564  -22.8498 O   0  0  0  0  0  0  0  0  0  0  0  0
  -23.1753   10.5562  -20.4602 H   0  0  0  0  0  0  0  0  0  0  0  0
  -24.7419   11.4887  -19.8372 H   0  0  0  0  0  0  0  0  0  0  0  0
  -26.3242    7.4624  -25.7580 N   0  0  0  0  0  0  0  0  0  0  0  0
  -26.7301    7.7223  -24.5152 C   0  0  0  0  0  0  0  0  0  0  0  0
  -26.1789    8.6786  -23.7617 N   0  0  0  0  0  0  0  0  0  0  0  0
  -25.1633    9.4083  -24.2636 C   0  0  0  0  0  0  0  0  0  0  0  0
  -24.7120    9.1601  -25.5464 C   0  0  0  0  0  0  0  0  0  0  0  0
  -25.3159    8.1683  -26.3008 C   0  0  0  0  0  0  0  0  0  0  0  0
  -24.8730    7.9394  -27.5289 N   0  0  0  0  0  0  0  0  0  0  0  0
  -23.7180   10.0076  -25.7962 N   0  0  0  0  0  0  0  0  0  0  0  0
  -23.5352   10.7660  -24.7179 C   0  0  0  0  0  0  0  0  0  0  0  0
  -24.4126   10.3920  -23.7791 N   0  0  0  0  0  0  0  0  0  0  0  0
  -25.2901    7.2383  -28.0799 H   0  0  0  0  0  0  0  0  0  0  0  0
  -24.1268    8.4705  -27.8900 H   0  0  0  0  0  0  0  0  0  0  0  0
 34 35  2  0  0  0
 34 39  1  0  0  0
 35 36  1  0  0  0
 36 37  2  0  0  0
 37 38  1  0  0  0
 37 43  1  0  0  0
 38 39  2  0  0  0
 38 41  1  0  0  0
 39 40  1  0  0  0
 41 42  2  0  0  0
 42 43  1  0  0  0
 43 25  1  0  0  0
  2  3  1  0  0  0
  2  4  2  0  0  0
  2  6  1  0  0  0
  2  1  1  0  0  0
  7  8  1  0  0  0
  7  9  2  0  0  0
  7  6  1  0  0  0
  7 11  1  0  0  0
 25 26  1  0  0  0
 25 31  1  0  0  0
 13 14  1  0  0  0
 13 15  1  0  0  0
 13 20  1  0  0  0
 26 27  1  0  0  0
 26 28  1  0  0  0
 15 16  1  0  0  0
 15 17  1  0  0  0
 28 29  1  0  0  0
 28 30  1  0  0  0
 17 18  1  0  0  0
 17 19  1  0  0  0
 30 31  1  0  0  0
 30 24  1  0  0  0
 19 20  1  0  0  0
 19 12  1  0  0  0
 24  1  1  0  0  0
 12 11  1  0  0  0
 40 44  1  0  0  0
 40 45  1  0  0  0
  3  5  1  0  0  0
  8 10  1  0  0  0
 14 21  1  0  0  0
 27 32  1  0  0  0
 16 22  1  0  0  0
 29 33  1  0  0  0
 18 23  1  0  0  0
M  END
> <minimizedAffinity>
-11.76189

$$$$
3Q71_AR6_A_800


 45 48  0  0  0  0  0  0  0  0999 V2000
  -24.4946   16.2485  -22.6905 O   0  0  0  0  0  0  0  0  0  0  0  0
  -25.9483   16.9365  -22.7998 P   0  0  0  0  0  0  0  0  0  0  0  0
  -25.7521   18.3793  -22.6239 O   0  0  0  0  0  0  0  0  0  0  0  0
  -26.8395   16.2255  -21.8598 O   0  0  0  0  0  0  0  0  0  0  0  0
  -26.6082   18.8316  -22.6833 H   0  0  0  0  0  0  0  0  0  0  0  0
  -26.3950   16.7039  -24.3146 O   0  0  0  0  0  0  0  0  0  0  0  0
  -25.9105   17.5008  -25.6465 P   0  0  0  0  0  0  0  0  0  0  0  0
  -24.5208   17.9430  -25.3204 O   0  0  0  0  0  0  0  0  0  0  0  0
  -26.1689   16.7095  -26.8670 O   0  0  0  0  0  0  0  0  0  0  0  0
  -23.9287   17.1746  -25.3203 H   0  0  0  0  0  0  0  0  0  0  0  0
  -26.6872   18.8946  -25.5907 O   0  0  0  0  0  0  0  0  0  0  0  0
  -26.4594   19.9143  -26.5478 C   0  0  0  0  0  0  0  0  0  0  0  0
  -23.8468   21.2920  -27.2243 C   0  0  0  0  0  0  0  0  0  0  0  0
  -22.7309   21.9469  -26.7613 O   0  0  0  0  0  0  0  0  0  0  0  0
  -24.8782   22.2561  -27.8130 C   0  0  0  0  0  0  0  0  0  0  0  0
  -24.2957   23.5378  -27.9839 O   0  0  0  0  0  0  0  0  0  0  0  0
  -25.9350   22.3457  -26.7468 C   0  0  0  0  0  0  0  0  0  0  0  0
  -25.5820   23.4059  -25.8603 O   0  0  0  0  0  0  0  0  0  0  0  0
  -25.7311   21.0685  -25.9602 C   0  0  0  0  0  0  0  0  0  0  0  0
  -24.3412   20.8348  -25.9777 O   0  0  0  0  0  0  0  0  0  0  0  0
  -22.9897   22.5802  -26.0736 H   0  0  0  0  0  0  0  0  0  0  0  0
  -23.9504   23.8520  -27.1336 H   0  0  0  0  0  0  0  0  0  0  0  0
  -24.6875   23.2555  -25.5164 H   0  0  0  0  0  0  0  0  0  0  0  0
  -24.1178   15.0696  -23.4218 C   0  0  0  0  0  0  0  0  0  0  0  0
  -24.5614   11.5076  -22.9886 C   0  0  0  0  0  0  0  0  0  0  0  0
  -23.2624   11.8443  -22.3019 C   0  0  0  0  0  0  0  0  0  0  0  0
  -23.0791   10.9341  -21.2345 O   0  0  0  0  0  0  0  0  0  0  0  0
  -23.5708   13.2325  -21.7568 C   0  0  0  0  0  0  0  0  0  0  0  0
  -24.1623   13.0942  -20.4675 O   0  0  0  0  0  0  0  0  0  0  0  0
  -24.6314   13.7956  -22.7213 C   0  0  0  0  0  0  0  0  0  0  0  0
  -24.8518   12.7476  -23.6801 O   0  0  0  0  0  0  0  0  0  0  0  0
  -23.8592   10.9503  -20.6582 H   0  0  0  0  0  0  0  0  0  0  0  0
  -24.9507   12.5328  -20.5320 H   0  0  0  0  0  0  0  0  0  0  0  0
  -26.4588    7.3929  -25.3925 N   0  0  0  0  0  0  0  0  0  0  0  0
  -26.8134    7.9115  -24.2169 C   0  0  0  0  0  0  0  0  0  0  0  0
  -26.2264    8.9954  -23.7004 N   0  0  0  0  0  0  0  0  0  0  0  0
  -25.2268    9.5897  -24.3811 C   0  0  0  0  0  0  0  0  0  0  0  0
  -24.8284    9.0736  -25.5999 C   0  0  0  0  0  0  0  0  0  0  0  0
  -25.4684    7.9555  -26.1080 C   0  0  0  0  0  0  0  0  0  0  0  0
  -25.0760    7.4697  -27.2771 N   0  0  0  0  0  0  0  0  0  0  0  0
  -23.8396    9.8358  -26.0580 N   0  0  0  0  0  0  0  0  0  0  0  0
  -23.6091   10.7992  -25.1690 C   0  0  0  0  0  0  0  0  0  0  0  0
  -24.4510   10.6415  -24.1407 N   0  0  0  0  0  0  0  0  0  0  0  0
  -25.5193    6.6755  -27.6539 H   0  0  0  0  0  0  0  0  0  0  0  0
  -24.3414    7.9031  -27.7687 H   0  0  0  0  0  0  0  0  0  0  0  0
 34 35  2  0  0  0
 34 39  1  0  0  0
 35 36  1  0  0  0
 36 37  2  0  0  0
 37 38  1  0  0  0
 37 43  1  0  0  0
 38 39  2  0  0  0
 38 41  1  0  0  0
 39 40  1  0  0  0
 41 42  2  0  0  0
 42 43  1  0  0  0
 43 25  1  0  0  0
  2  3  1  0  0  0
  2  4  2  0  0  0
  2  6  1  0  0  0
  2  1  1  0  0  0
  7  8  1  0  0  0
  7  9  2  0  0  0
  7  6  1  0  0  0
  7 11  1  0  0  0
 25 26  1  0  0  0
 25 31  1  0  0  0
 13 14  1  0  0  0
 13 15  1  0  0  0
 13 20  1  0  0  0
 26 27  1  0  0  0
 26 28  1  0  0  0
 15 16  1  0  0  0
 15 17  1  0  0  0
 28 29  1  0  0  0
 28 30  1  0  0  0
 17 18  1  0  0  0
 17 19  1  0  0  0
 30 31  1  0  0  0
 30 24  1  0  0  0
 19 20  1  0  0  0
 19 12  1  0  0  0
 24  1  1  0  0  0
 12 11  1  0  0  0
 40 44  1  0  0  0
 40 45  1  0  0  0
  3  5  1  0  0  0
  8 10  1  0  0  0
 14 21  1  0  0  0
 27 32  1  0  0  0
 16 22  1  0  0  0
 29 33  1  0  0  0
 18 23  1  0  0  0
M  END
> <minimizedAffinity>
-11.60693

$$$$
3Q71_AR6_A_800


 45 48  0  0  0  0  0  0  0  0999 V2000
  -26.3578   16.1493  -21.8825 O   0  0  0  0  0  0  0  0  0  0  0  0
  -26.4777   17.4111  -22.8785 P   0  0  0  0  0  0  0  0  0  0  0  0
  -25.3303   18.2824  -22.6038 O   0  0  0  0  0  0  0  0  0  0  0  0
  -27.8384   17.9647  -22.7198 O   0  0  0  0  0  0  0  0  0  0  0  0
  -25.3662   19.0574  -23.1860 H   0  0  0  0  0  0  0  0  0  0  0  0
  -26.2646   16.7989  -24.3373 O   0  0  0  0  0  0  0  0  0  0  0  0
  -25.7639   17.5529  -25.6882 P   0  0  0  0  0  0  0  0  0  0  0  0
  -24.4206   18.0970  -25.3244 O   0  0  0  0  0  0  0  0  0  0  0  0
  -25.9150   16.6836  -26.8732 O   0  0  0  0  0  0  0  0  0  0  0  0
  -23.7846   17.3680  -25.2545 H   0  0  0  0  0  0  0  0  0  0  0  0
  -26.6241   18.8968  -25.7455 O   0  0  0  0  0  0  0  0  0  0  0  0
  -26.3542   19.9152  -26.6930 C   0  0  0  0  0  0  0  0  0  0  0  0
  -23.7532   21.3814  -27.2097 C   0  0  0  0  0  0  0  0  0  0  0  0
  -22.6912   22.0744  -26.6801 O   0  0  0  0  0  0  0  0  0  0  0  0
  -24.7784   22.3092  -27.8638 C   0  0  0  0  0  0  0  0  0  0  0  0
  -24.2306   23.6101  -28.0016 O   0  0  0  0  0  0  0  0  0  0  0  0
  -25.9019   22.3630  -26.8654 C   0  0  0  0  0  0  0  0  0  0  0  0
  -25.6410   23.4352  -25.9615 O   0  0  0  0  0  0  0  0  0  0  0  0
  -25.7036   21.0940  -26.0644 C   0  0  0  0  0  0  0  0  0  0  0  0
  -24.3082   20.9081  -25.9950 O   0  0  0  0  0  0  0  0  0  0  0  0
  -23.0137   22.6987  -26.0115 H   0  0  0  0  0  0  0  0  0  0  0  0
  -23.9498   23.9364  -27.1323 H   0  0  0  0  0  0  0  0  0  0  0  0
  -24.7650   23.3157  -25.5624 H   0  0  0  0  0  0  0  0  0  0  0  0
  -26.7338   14.8110  -22.2488 C   0  0  0  0  0  0  0  0  0  0  0  0
  -25.0059   11.6474  -22.5291 C   0  0  0  0  0  0  0  0  0  0  0  0
  -24.6737   12.4075  -23.7877 C   0  0  0  0  0  0  0  0  0  0  0  0
  -23.3898   12.0019  -24.2218 O   0  0  0  0  0  0  0  0  0  0  0  0
  -24.6196   13.8356  -23.2614 C   0  0  0  0  0  0  0  0  0  0  0  0
  -23.2957   14.1032  -22.8064 O   0  0  0  0  0  0  0  0  0  0  0  0
  -25.5617   13.8305  -22.0429 C   0  0  0  0  0  0  0  0  0  0  0  0
  -26.0445   12.4794  -21.9554 O   0  0  0  0  0  0  0  0  0  0  0  0
  -22.7532   12.1155  -23.4989 H   0  0  0  0  0  0  0  0  0  0  0  0
  -23.0449   13.4470  -22.1374 H   0  0  0  0  0  0  0  0  0  0  0  0
  -25.9587    7.6625  -25.6150 N   0  0  0  0  0  0  0  0  0  0  0  0
  -25.1458    8.6996  -25.8159 C   0  0  0  0  0  0  0  0  0  0  0  0
  -24.9941    9.6808  -24.9213 N   0  0  0  0  0  0  0  0  0  0  0  0
  -25.6946    9.6366  -23.7710 C   0  0  0  0  0  0  0  0  0  0  0  0
  -26.5527    8.5792  -23.5334 C   0  0  0  0  0  0  0  0  0  0  0  0
  -26.6747    7.5754  -24.4797 C   0  0  0  0  0  0  0  0  0  0  0  0
  -27.5018    6.5678  -24.2403 N   0  0  0  0  0  0  0  0  0  0  0  0
  -27.1125    8.7725  -22.3427 N   0  0  0  0  0  0  0  0  0  0  0  0
  -26.6373    9.9086  -21.8377 C   0  0  0  0  0  0  0  0  0  0  0  0
  -25.7785   10.4400  -22.7159 N   0  0  0  0  0  0  0  0  0  0  0  0
  -27.6016    5.8451  -24.9015 H   0  0  0  0  0  0  0  0  0  0  0  0
  -28.0164    6.5419  -23.4014 H   0  0  0  0  0  0  0  0  0  0  0  0
 34 35  2  0  0  0
 34 39  1  0  0  0
 35 36  1  0  0  0
 36 37  2  0  0  0
 37 38  1  0  0  0
 37 43  1  0  0  0
 38 39  2  0  0  0
 38 41  1  0  0  0
 39 40  1  0  0  0
 41 42  2  0  0  0
 42 43  1  0  0  0
 43 25  1  0  0  0
  2  3  1  0  0  0
  2  4  2  0  0  0
  2  6  1  0  0  0
  2  1  1  0  0  0
  7  8  1  0  0  0
  7  9  2  0  0  0
  7  6  1  0  0  0
  7 11  1  0  0  0
 25 26  1  0  0  0
 25 31  1  0  0  0
 13 14  1  0  0  0
 13 15  1  0  0  0
 13 20  1  0  0  0
 26 27  1  0  0  0
 26 28  1  0  0  0
 15 16  1  0  0  0
 15 17  1  0  0  0
 28 29  1  0  0  0
 28 30  1  0  0  0
 17 18  1  0  0  0
 17 19  1  0  0  0
 30 31  1  0  0  0
 30 24  1  0  0  0
 19 20  1  0  0  0
 19 12  1  0  0  0
 24  1  1  0  0  0
 12 11  1  0  0  0
 40 44  1  0  0  0
 40 45  1  0  0  0
  3  5  1  0  0  0
  8 10  1  0  0  0
 14 21  1  0  0  0
 27 32  1  0  0  0
 16 22  1  0  0  0
 29 33  1  0  0  0
 18 23  1  0  0  0
M  END
> <minimizedAffinity>
-11.57158

$$$$
3Q71_AR6_A_800


 45 48  0  0  0  0  0  0  0  0999 V2000
  -25.1661   15.6581  -23.5845 O   0  0  0  0  0  0  0  0  0  0  0  0
  -25.8959   14.8153  -22.4202 P   0  0  0  0  0  0  0  0  0  0  0  0
  -26.7691   13.8403  -23.0821 O   0  0  0  0  0  0  0  0  0  0  0  0
  -26.5034   15.7903  -21.4909 O   0  0  0  0  0  0  0  0  0  0  0  0
  -27.2287   13.3106  -22.4120 H   0  0  0  0  0  0  0  0  0  0  0  0
  -24.7220   13.9936  -21.7167 O   0  0  0  0  0  0  0  0  0  0  0  0
  -23.4752   13.2140  -22.4108 P   0  0  0  0  0  0  0  0  0  0  0  0
  -23.8292   13.1816  -23.8622 O   0  0  0  0  0  0  0  0  0  0  0  0
  -22.1816   13.7802  -21.9762 O   0  0  0  0  0  0  0  0  0  0  0  0
  -23.7417   14.0722  -24.2363 H   0  0  0  0  0  0  0  0  0  0  0  0
  -23.6861   11.6809  -22.0185 O   0  0  0  0  0  0  0  0  0  0  0  0
  -24.0232   10.7027  -22.9867 C   0  0  0  0  0  0  0  0  0  0  0  0
  -26.0553    8.4622  -22.8059 C   0  0  0  0  0  0  0  0  0  0  0  0
  -27.2070    7.9024  -23.3047 O   0  0  0  0  0  0  0  0  0  0  0  0
  -26.3021    9.2234  -21.5023 C   0  0  0  0  0  0  0  0  0  0  0  0
  -27.5934    8.9159  -21.0030 O   0  0  0  0  0  0  0  0  0  0  0  0
  -26.2789   10.6679  -21.9203 C   0  0  0  0  0  0  0  0  0  0  0  0
  -27.6048   11.0449  -22.2870 O   0  0  0  0  0  0  0  0  0  0  0  0
  -25.4903   10.6335  -23.2121 C   0  0  0  0  0  0  0  0  0  0  0  0
  -25.8370    9.4156  -23.8311 O   0  0  0  0  0  0  0  0  0  0  0  0
  -27.8592    8.6003  -23.4731 H   0  0  0  0  0  0  0  0  0  0  0  0
  -28.2590    9.1262  -21.6765 H   0  0  0  0  0  0  0  0  0  0  0  0
  -27.9346   10.4421  -22.9717 H   0  0  0  0  0  0  0  0  0  0  0  0
  -25.0817   17.0931  -23.5911 C   0  0  0  0  0  0  0  0  0  0  0  0
  -26.5493   19.5966  -25.7477 C   0  0  0  0  0  0  0  0  0  0  0  0
  -25.7713   18.6794  -26.6565 C   0  0  0  0  0  0  0  0  0  0  0  0
  -26.4090   18.6651  -27.9193 O   0  0  0  0  0  0  0  0  0  0  0  0
  -25.9669   17.3404  -25.9580 C   0  0  0  0  0  0  0  0  0  0  0  0
  -27.1613   16.7396  -26.4516 O   0  0  0  0  0  0  0  0  0  0  0  0
  -26.1827   17.7086  -24.4780 C   0  0  0  0  0  0  0  0  0  0  0  0
  -26.1154   19.1440  -24.4413 O   0  0  0  0  0  0  0  0  0  0  0  0
  -27.3431   18.4290  -27.8071 H   0  0  0  0  0  0  0  0  0  0  0  0
  -27.9071   17.3451  -26.3176 H   0  0  0  0  0  0  0  0  0  0  0  0
  -27.8205   24.5082  -24.9925 N   0  0  0  0  0  0  0  0  0  0  0  0
  -28.6136   23.4382  -25.0454 C   0  0  0  0  0  0  0  0  0  0  0  0
  -28.1463   22.2039  -25.2559 N   0  0  0  0  0  0  0  0  0  0  0  0
  -26.8230   22.0230  -25.4348 C   0  0  0  0  0  0  0  0  0  0  0  0
  -25.9725   23.1118  -25.3939 C   0  0  0  0  0  0  0  0  0  0  0  0
  -26.4929   24.3741  -25.1621 C   0  0  0  0  0  0  0  0  0  0  0  0
  -25.6668   25.4100  -25.1264 N   0  0  0  0  0  0  0  0  0  0  0  0
  -24.7356   22.6665  -25.5948 N   0  0  0  0  0  0  0  0  0  0  0  0
  -24.7891   21.3472  -25.7620 C   0  0  0  0  0  0  0  0  0  0  0  0
  -26.0663   20.9570  -25.6736 N   0  0  0  0  0  0  0  0  0  0  0  0
  -26.0187   26.3148  -24.9629 H   0  0  0  0  0  0  0  0  0  0  0  0
  -24.7014   25.2747  -25.2635 H   0  0  0  0  0  0  0  0  0  0  0  0
 34 35  2  0  0  0
 34 39  1  0  0  0
 35 36  1  0  0  0
 36 37  2  0  0  0
 37 38  1  0  0  0
 37 43  1  0  0  0
 38 39  2  0  0  0
 38 41  1  0  0  0
 39 40  1  0  0  0
 41 42  2  0  0  0
 42 43  1  0  0  0
 43 25  1  0  0  0
  2  3  1  0  0  0
  2  4  2  0  0  0
  2  6  1  0  0  0
  2  1  1  0  0  0
  7  8  1  0  0  0
  7  9  2  0  0  0
  7  6  1  0  0  0
  7 11  1  0  0  0
 25 26  1  0  0  0
 25 31  1  0  0  0
 13 14  1  0  0  0
 13 15  1  0  0  0
 13 20  1  0  0  0
 26 27  1  0  0  0
 26 28  1  0  0  0
 15 16  1  0  0  0
 15 17  1  0  0  0
 28 29  1  0  0  0
 28 30  1  0  0  0
 17 18  1  0  0  0
 17 19  1  0  0  0
 30 31  1  0  0  0
 30 24  1  0  0  0
 19 20  1  0  0  0
 19 12  1  0  0  0
 24  1  1  0  0  0
 12 11  1  0  0  0
 40 44  1  0  0  0
 40 45  1  0  0  0
  3  5  1  0  0  0
  8 10  1  0  0  0
 14 21  1  0  0  0
 27 32  1  0  0  0
 16 22  1  0  0  0
 29 33  1  0  0  0
 18 23  1  0  0  0
M  END
> <minimizedAffinity>
-10.88795

$$$$
3Q71_AR6_A_800


 45 48  0  0  0  0  0  0  0  0999 V2000
  -24.6284   14.6689  -22.2413 O   0  0  0  0  0  0  0  0  0  0  0  0
  -26.2157   14.8401  -22.4638 P   0  0  0  0  0  0  0  0  0  0  0  0
  -26.7661   15.3792  -21.2157 O   0  0  0  0  0  0  0  0  0  0  0  0
  -26.7288   13.5466  -22.9609 O   0  0  0  0  0  0  0  0  0  0  0  0
  -27.7243   15.4973  -21.3093 H   0  0  0  0  0  0  0  0  0  0  0  0
  -26.3501   15.9836  -23.5695 O   0  0  0  0  0  0  0  0  0  0  0  0
  -25.6640   17.4577  -23.5898 P   0  0  0  0  0  0  0  0  0  0  0  0
  -25.6572   17.8754  -22.1551 O   0  0  0  0  0  0  0  0  0  0  0  0
  -24.4068   17.4519  -24.3657 O   0  0  0  0  0  0  0  0  0  0  0  0
  -24.9983   17.3546  -21.6698 H   0  0  0  0  0  0  0  0  0  0  0  0
  -26.7930   18.4227  -24.1756 O   0  0  0  0  0  0  0  0  0  0  0  0
  -26.5852   19.8179  -24.3104 C   0  0  0  0  0  0  0  0  0  0  0  0
  -25.4084   21.8999  -26.1710 C   0  0  0  0  0  0  0  0  0  0  0  0
  -25.6404   22.8648  -27.1216 O   0  0  0  0  0  0  0  0  0  0  0  0
  -24.8969   20.5961  -26.7861 C   0  0  0  0  0  0  0  0  0  0  0  0
  -24.5286   20.8143  -28.1382 O   0  0  0  0  0  0  0  0  0  0  0  0
  -26.0964   19.6895  -26.7539 C   0  0  0  0  0  0  0  0  0  0  0  0
  -26.8233   19.8724  -27.9675 O   0  0  0  0  0  0  0  0  0  0  0  0
  -26.9536   20.3011  -25.6664 C   0  0  0  0  0  0  0  0  0  0  0  0
  -26.7502   21.6923  -25.7660 O   0  0  0  0  0  0  0  0  0  0  0  0
  -26.3003   22.5424  -27.7553 H   0  0  0  0  0  0  0  0  0  0  0  0
  -25.2869   21.1717  -28.6262 H   0  0  0  0  0  0  0  0  0  0  0  0
  -27.0422   20.8113  -28.0749 H   0  0  0  0  0  0  0  0  0  0  0  0
  -23.7816   13.9088  -23.1199 C   0  0  0  0  0  0  0  0  0  0  0  0
  -23.6601   10.3719  -22.3800 C   0  0  0  0  0  0  0  0  0  0  0  0
  -22.7627   10.5707  -23.5748 C   0  0  0  0  0  0  0  0  0  0  0  0
  -21.7431    9.5910  -23.5282 O   0  0  0  0  0  0  0  0  0  0  0  0
  -22.1794   11.9455  -23.2771 C   0  0  0  0  0  0  0  0  0  0  0  0
  -21.0073   11.7805  -22.4831 O   0  0  0  0  0  0  0  0  0  0  0  0
  -23.2542   12.6401  -22.4201 C   0  0  0  0  0  0  0  0  0  0  0  0
  -24.3033   11.6669  -22.2839 O   0  0  0  0  0  0  0  0  0  0  0  0
  -21.2925    9.6339  -22.6703 H   0  0  0  0  0  0  0  0  0  0  0  0
  -21.2284   11.2847  -21.6792 H   0  0  0  0  0  0  0  0  0  0  0  0
  -26.3957    7.7703  -25.8526 N   0  0  0  0  0  0  0  0  0  0  0  0
  -25.2943    8.4994  -26.0318 C   0  0  0  0  0  0  0  0  0  0  0  0
  -24.6795    9.1353  -25.0299 N   0  0  0  0  0  0  0  0  0  0  0  0
  -25.1910    9.0528  -23.7860 C   0  0  0  0  0  0  0  0  0  0  0  0
  -26.3366    8.3114  -23.5657 C   0  0  0  0  0  0  0  0  0  0  0  0
  -26.9391    7.6573  -24.6273 C   0  0  0  0  0  0  0  0  0  0  0  0
  -28.0379    6.9508  -24.4030 N   0  0  0  0  0  0  0  0  0  0  0  0
  -26.6264    8.3904  -22.2702 N   0  0  0  0  0  0  0  0  0  0  0  0
  -25.7079    9.1539  -21.6829 C   0  0  0  0  0  0  0  0  0  0  0  0
  -24.8372    9.5656  -22.6122 N   0  0  0  0  0  0  0  0  0  0  0  0
  -28.4799    6.4791  -25.1455 H   0  0  0  0  0  0  0  0  0  0  0  0
  -28.4120    6.8978  -23.4939 H   0  0  0  0  0  0  0  0  0  0  0  0
 34 35  2  0  0  0
 34 39  1  0  0  0
 35 36  1  0  0  0
 36 37  2  0  0  0
 37 38  1  0  0  0
 37 43  1  0  0  0
 38 39  2  0  0  0
 38 41  1  0  0  0
 39 40  1  0  0  0
 41 42  2  0  0  0
 42 43  1  0  0  0
 43 25  1  0  0  0
  2  3  1  0  0  0
  2  4  2  0  0  0
  2  6  1  0  0  0
  2  1  1  0  0  0
  7  8  1  0  0  0
  7  9  2  0  0  0
  7  6  1  0  0  0
  7 11  1  0  0  0
 25 26  1  0  0  0
 25 31  1  0  0  0
 13 14  1  0  0  0
 13 15  1  0  0  0
 13 20  1  0  0  0
 26 27  1  0  0  0
 26 28  1  0  0  0
 15 16  1  0  0  0
 15 17  1  0  0  0
 28 29  1  0  0  0
 28 30  1  0  0  0
 17 18  1  0  0  0
 17 19  1  0  0  0
 30 31  1  0  0  0
 30 24  1  0  0  0
 19 20  1  0  0  0
 19 12  1  0  0  0
 24  1  1  0  0  0
 12 11  1  0  0  0
 40 44  1  0  0  0
 40 45  1  0  0  0
  3  5  1  0  0  0
  8 10  1  0  0  0
 14 21  1  0  0  0
 27 32  1  0  0  0
 16 22  1  0  0  0
 29 33  1  0  0  0
 18 23  1  0  0  0
M  END
> <minimizedAffinity>
-10.81598

$$$$
3Q71_AR6_A_800


 45 48  0  0  0  0  0  0  0  0999 V2000
  -24.9593   18.4416  -24.3575 O   0  0  0  0  0  0  0  0  0  0  0  0
  -24.4520   16.9309  -24.1149 P   0  0  0  0  0  0  0  0  0  0  0  0
  -23.0243   17.0072  -23.7875 O   0  0  0  0  0  0  0  0  0  0  0  0
  -24.8650   16.1375  -25.2911 O   0  0  0  0  0  0  0  0  0  0  0  0
  -22.6797   16.1137  -23.6336 H   0  0  0  0  0  0  0  0  0  0  0  0
  -25.2122   16.4540  -22.7947 O   0  0  0  0  0  0  0  0  0  0  0  0
  -26.4222   15.3764  -22.6568 P   0  0  0  0  0  0  0  0  0  0  0  0
  -26.6563   15.2791  -21.1842 O   0  0  0  0  0  0  0  0  0  0  0  0
  -27.5398   15.7081  -23.5643 O   0  0  0  0  0  0  0  0  0  0  0  0
  -27.0773   16.0942  -20.8691 H   0  0  0  0  0  0  0  0  0  0  0  0
  -25.7404   13.9616  -22.9441 O   0  0  0  0  0  0  0  0  0  0  0  0
  -26.4389   12.7440  -22.7507 C   0  0  0  0  0  0  0  0  0  0  0  0
  -24.7888   10.2462  -22.2820 C   0  0  0  0  0  0  0  0  0  0  0  0
  -24.5671    9.1357  -21.5033 O   0  0  0  0  0  0  0  0  0  0  0  0
  -23.7736   11.3564  -22.0053 C   0  0  0  0  0  0  0  0  0  0  0  0
  -22.7042   10.8466  -21.2256 O   0  0  0  0  0  0  0  0  0  0  0  0
  -24.5433   12.3481  -21.1771 C   0  0  0  0  0  0  0  0  0  0  0  0
  -24.3930   11.9910  -19.8043 O   0  0  0  0  0  0  0  0  0  0  0  0
  -25.9827   12.0358  -21.5267 C   0  0  0  0  0  0  0  0  0  0  0  0
  -26.0280   10.6402  -21.7191 O   0  0  0  0  0  0  0  0  0  0  0  0
  -24.6250    9.3809  -20.5666 H   0  0  0  0  0  0  0  0  0  0  0  0
  -23.0551   10.4644  -20.4060 H   0  0  0  0  0  0  0  0  0  0  0  0
  -24.6724   11.0709  -19.6771 H   0  0  0  0  0  0  0  0  0  0  0  0
  -26.3438   18.8274  -24.3310 C   0  0  0  0  0  0  0  0  0  0  0  0
  -26.1663   21.7344  -26.4734 C   0  0  0  0  0  0  0  0  0  0  0  0
  -25.0643   20.8165  -26.9376 C   0  0  0  0  0  0  0  0  0  0  0  0
  -24.8660   21.0306  -28.3219 O   0  0  0  0  0  0  0  0  0  0  0  0
  -25.7022   19.4532  -26.7065 C   0  0  0  0  0  0  0  0  0  0  0  0
  -26.4336   19.0890  -27.8744 O   0  0  0  0  0  0  0  0  0  0  0  0
  -26.7025   19.6880  -25.5591 C   0  0  0  0  0  0  0  0  0  0  0  0
  -26.5838   21.0860  -25.2465 O   0  0  0  0  0  0  0  0  0  0  0  0
  -25.7088   20.9223  -28.7898 H   0  0  0  0  0  0  0  0  0  0  0  0
  -27.0851   19.7787  -28.0760 H   0  0  0  0  0  0  0  0  0  0  0  0
  -27.6419   26.0977  -24.2163 N   0  0  0  0  0  0  0  0  0  0  0  0
  -28.3950   25.1021  -24.6836 C   0  0  0  0  0  0  0  0  0  0  0  0
  -27.8753   24.0137  -25.2592 N   0  0  0  0  0  0  0  0  0  0  0  0
  -26.5378   23.9126  -25.3883 C   0  0  0  0  0  0  0  0  0  0  0  0
  -25.7272   24.9303  -24.9215 C   0  0  0  0  0  0  0  0  0  0  0  0
  -26.3021   26.0376  -24.3206 C   0  0  0  0  0  0  0  0  0  0  0  0
  -25.5139   27.0071  -23.8784 N   0  0  0  0  0  0  0  0  0  0  0  0
  -24.4659   24.5870  -25.1663 N   0  0  0  0  0  0  0  0  0  0  0  0
  -24.4658   23.4002  -25.7688 C   0  0  0  0  0  0  0  0  0  0  0  0
  -25.7330   22.9942  -25.9123 N   0  0  0  0  0  0  0  0  0  0  0  0
  -25.9048   27.8018  -23.4486 H   0  0  0  0  0  0  0  0  0  0  0  0
  -24.5375   26.9324  -23.9799 H   0  0  0  0  0  0  0  0  0  0  0  0
 34 35  2  0  0  0
 34 39  1  0  0  0
 35 36  1  0  0  0
 36 37  2  0  0  0
 37 38  1  0  0  0
 37 43  1  0  0  0
 38 39  2  0  0  0
 38 41  1  0  0  0
 39 40  1  0  0  0
 41 42  2  0  0  0
 42 43  1  0  0  0
 43 25  1  0  0  0
  2  3  1  0  0  0
  2  4  2  0  0  0
  2  6  1  0  0  0
  2  1  1  0  0  0
  7  8  1  0  0  0
  7  9  2  0  0  0
  7  6  1  0  0  0
  7 11  1  0  0  0
 25 26  1  0  0  0
 25 31  1  0  0  0
 13 14  1  0  0  0
 13 15  1  0  0  0
 13 20  1  0  0  0
 26 27  1  0  0  0
 26 28  1  0  0  0
 15 16  1  0  0  0
 15 17  1  0  0  0
 28 29  1  0  0  0
 28 30  1  0  0  0
 17 18  1  0  0  0
 17 19  1  0  0  0
 30 31  1  0  0  0
 30 24  1  0  0  0
 19 20  1  0  0  0
 19 12  1  0  0  0
 24  1  1  0  0  0
 12 11  1  0  0  0
 40 44  1  0  0  0
 40 45  1  0  0  0
  3  5  1  0  0  0
  8 10  1  0  0  0
 14 21  1  0  0  0
 27 32  1  0  0  0
 16 22  1  0  0  0
 29 33  1  0  0  0
 18 23  1  0  0  0
M  END
> <minimizedAffinity>
-10.80768

$$$$
3Q71_AR6_A_800


 45 48  0  0  0  0  0  0  0  0999 V2000
  -24.9382   16.6994  -23.5646 O   0  0  0  0  0  0  0  0  0  0  0  0
  -26.2150   16.6890  -22.5806 P   0  0  0  0  0  0  0  0  0  0  0  0
  -27.3837   16.3543  -23.4011 O   0  0  0  0  0  0  0  0  0  0  0  0
  -26.2113   17.9718  -21.8473 O   0  0  0  0  0  0  0  0  0  0  0  0
  -28.1767   16.3378  -22.8428 H   0  0  0  0  0  0  0  0  0  0  0  0
  -25.9612   15.4562  -21.5987 O   0  0  0  0  0  0  0  0  0  0  0  0
  -25.3376   13.9957  -21.9480 P   0  0  0  0  0  0  0  0  0  0  0  0
  -24.3029   14.2812  -22.9877 O   0  0  0  0  0  0  0  0  0  0  0  0
  -24.9701   13.2631  -20.7187 O   0  0  0  0  0  0  0  0  0  0  0  0
  -23.5467   14.7287  -22.5770 H   0  0  0  0  0  0  0  0  0  0  0  0
  -26.4569   13.2771  -22.8311 O   0  0  0  0  0  0  0  0  0  0  0  0
  -26.9616   11.9958  -22.4973 C   0  0  0  0  0  0  0  0  0  0  0  0
  -26.6260    9.2116  -21.3494 C   0  0  0  0  0  0  0  0  0  0  0  0
  -25.7613    8.2405  -20.9047 O   0  0  0  0  0  0  0  0  0  0  0  0
  -27.1504    8.9164  -22.7557 C   0  0  0  0  0  0  0  0  0  0  0  0
  -26.8304    7.5832  -23.1182 O   0  0  0  0  0  0  0  0  0  0  0  0
  -26.3697    9.8549  -23.6341 C   0  0  0  0  0  0  0  0  0  0  0  0
  -25.1730    9.1921  -24.0380 O   0  0  0  0  0  0  0  0  0  0  0  0
  -25.9335   10.9369  -22.6695 C   0  0  0  0  0  0  0  0  0  0  0  0
  -25.6964   10.2766  -21.4470 O   0  0  0  0  0  0  0  0  0  0  0  0
  -25.0056    8.1787  -21.5097 H   0  0  0  0  0  0  0  0  0  0  0  0
  -25.8714    7.4521  -23.0546 H   0  0  0  0  0  0  0  0  0  0  0  0
  -24.6883    8.8928  -23.2529 H   0  0  0  0  0  0  0  0  0  0  0  0
  -24.6270   17.7892  -24.4489 C   0  0  0  0  0  0  0  0  0  0  0  0
  -26.5960   20.1002  -26.4122 C   0  0  0  0  0  0  0  0  0  0  0  0
  -25.8612   19.2402  -27.4085 C   0  0  0  0  0  0  0  0  0  0  0  0
  -26.6554   19.1404  -28.5750 O   0  0  0  0  0  0  0  0  0  0  0  0
  -25.8356   17.9038  -26.6788 C   0  0  0  0  0  0  0  0  0  0  0  0
  -27.0224   17.1847  -27.0040 O   0  0  0  0  0  0  0  0  0  0  0  0
  -25.8884   18.2813  -25.1865 C   0  0  0  0  0  0  0  0  0  0  0  0
  -25.9529   19.7172  -25.1712 O   0  0  0  0  0  0  0  0  0  0  0  0
  -27.5401   18.8212  -28.3375 H   0  0  0  0  0  0  0  0  0  0  0  0
  -27.7979   17.7213  -26.7770 H   0  0  0  0  0  0  0  0  0  0  0  0
  -28.0123   24.8368  -25.0449 N   0  0  0  0  0  0  0  0  0  0  0  0
  -28.6836   23.6928  -24.9129 C   0  0  0  0  0  0  0  0  0  0  0  0
  -28.1939   22.5182  -25.3210 N   0  0  0  0  0  0  0  0  0  0  0  0
  -26.9783   22.4778  -25.9011 C   0  0  0  0  0  0  0  0  0  0  0  0
  -26.2580   23.6467  -26.0608 C   0  0  0  0  0  0  0  0  0  0  0  0
  -26.7940   24.8433  -25.6150 C   0  0  0  0  0  0  0  0  0  0  0  0
  -26.0937   25.9571  -25.7752 N   0  0  0  0  0  0  0  0  0  0  0  0
  -25.1072   23.3351  -26.6500 N   0  0  0  0  0  0  0  0  0  0  0  0
  -25.0901   22.0215  -26.8639 C   0  0  0  0  0  0  0  0  0  0  0  0
  -26.2382   21.5008  -26.4145 N   0  0  0  0  0  0  0  0  0  0  0  0
  -26.4587   26.8170  -25.4645 H   0  0  0  0  0  0  0  0  0  0  0  0
  -25.2085   25.9245  -26.2048 H   0  0  0  0  0  0  0  0  0  0  0  0
 34 35  2  0  0  0
 34 39  1  0  0  0
 35 36  1  0  0  0
 36 37  2  0  0  0
 37 38  1  0  0  0
 37 43  1  0  0  0
 38 39  2  0  0  0
 38 41  1  0  0  0
 39 40  1  0  0  0
 41 42  2  0  0  0
 42 43  1  0  0  0
 43 25  1  0  0  0
  2  3  1  0  0  0
  2  4  2  0  0  0
  2  6  1  0  0  0
  2  1  1  0  0  0
  7  8  1  0  0  0
  7  9  2  0  0  0
  7  6  1  0  0  0
  7 11  1  0  0  0
 25 26  1  0  0  0
 25 31  1  0  0  0
 13 14  1  0  0  0
 13 15  1  0  0  0
 13 20  1  0  0  0
 26 27  1  0  0  0
 26 28  1  0  0  0
 15 16  1  0  0  0
 15 17  1  0  0  0
 28 29  1  0  0  0
 28 30  1  0  0  0
 17 18  1  0  0  0
 17 19  1  0  0  0
 30 31  1  0  0  0
 30 24  1  0  0  0
 19 20  1  0  0  0
 19 12  1  0  0  0
 24  1  1  0  0  0
 12 11  1  0  0  0
 40 44  1  0  0  0
 40 45  1  0  0  0
  3  5  1  0  0  0
  8 10  1  0  0  0
 14 21  1  0  0  0
 27 32  1  0  0  0
 16 22  1  0  0  0
 29 33  1  0  0  0
 18 23  1  0  0  0
M  END
> <minimizedAffinity>
-10.66023

$$$$
3Q71_AR6_A_800


 45 48  0  0  0  0  0  0  0  0999 V2000
  -22.9983   13.4182  -22.1522 O   0  0  0  0  0  0  0  0  0  0  0  0
  -21.8040   12.3599  -22.3803 P   0  0  0  0  0  0  0  0  0  0  0  0
  -21.9995   11.2793  -21.4079 O   0  0  0  0  0  0  0  0  0  0  0  0
  -20.5364   13.1184  -22.3472 O   0  0  0  0  0  0  0  0  0  0  0  0
  -21.2972   10.6186  -21.5133 H   0  0  0  0  0  0  0  0  0  0  0  0
  -22.0770   11.7449  -23.8278 O   0  0  0  0  0  0  0  0  0  0  0  0
  -22.6289   10.2641  -24.2109 P   0  0  0  0  0  0  0  0  0  0  0  0
  -22.2579   10.0984  -25.6489 O   0  0  0  0  0  0  0  0  0  0  0  0
  -22.2015    9.2599  -23.2151 O   0  0  0  0  0  0  0  0  0  0  0  0
  -21.2981    9.9799  -25.7236 H   0  0  0  0  0  0  0  0  0  0  0  0
  -24.2114   10.4390  -24.3298 O   0  0  0  0  0  0  0  0  0  0  0  0
  -25.0950    9.3384  -24.2035 C   0  0  0  0  0  0  0  0  0  0  0  0
  -25.4315    9.1448  -21.1983 C   0  0  0  0  0  0  0  0  0  0  0  0
  -26.2719    8.8819  -20.1432 O   0  0  0  0  0  0  0  0  0  0  0  0
  -25.2102   10.6450  -21.3990 C   0  0  0  0  0  0  0  0  0  0  0  0
  -25.7008   11.3580  -20.2756 O   0  0  0  0  0  0  0  0  0  0  0  0
  -26.0648   10.9773  -22.5911 C   0  0  0  0  0  0  0  0  0  0  0  0
  -27.3664   11.3230  -22.1212 O   0  0  0  0  0  0  0  0  0  0  0  0
  -26.2198    9.6384  -23.2801 C   0  0  0  0  0  0  0  0  0  0  0  0
  -26.2728    8.6861  -22.2422 O   0  0  0  0  0  0  0  0  0  0  0  0
  -27.1314    9.3026  -20.3018 H   0  0  0  0  0  0  0  0  0  0  0  0
  -26.6376   11.1451  -20.1414 H   0  0  0  0  0  0  0  0  0  0  0  0
  -27.7155   10.6010  -21.5755 H   0  0  0  0  0  0  0  0  0  0  0  0
  -23.8653   13.8748  -23.2040 C   0  0  0  0  0  0  0  0  0  0  0  0
  -25.9448   16.7928  -23.6871 C   0  0  0  0  0  0  0  0  0  0  0  0
  -26.8951   15.6288  -23.5678 C   0  0  0  0  0  0  0  0  0  0  0  0
  -28.1038   16.1023  -23.0054 O   0  0  0  0  0  0  0  0  0  0  0  0
  -26.1598   14.7526  -22.5625 C   0  0  0  0  0  0  0  0  0  0  0  0
  -26.5479   15.1437  -21.2481 O   0  0  0  0  0  0  0  0  0  0  0  0
  -24.6743   15.1094  -22.7581 C   0  0  0  0  0  0  0  0  0  0  0  0
  -24.6683   16.1139  -23.7863 O   0  0  0  0  0  0  0  0  0  0  0  0
  -27.9148   16.5594  -22.1710 H   0  0  0  0  0  0  0  0  0  0  0  0
  -26.3668   16.0887  -21.1252 H   0  0  0  0  0  0  0  0  0  0  0  0
  -25.6653   21.3004  -26.1190 N   0  0  0  0  0  0  0  0  0  0  0  0
  -25.7035   21.0585  -24.8087 C   0  0  0  0  0  0  0  0  0  0  0  0
  -25.7821   19.8229  -24.3056 N   0  0  0  0  0  0  0  0  0  0  0  0
  -25.8373   18.7720  -25.1471 C   0  0  0  0  0  0  0  0  0  0  0  0
  -25.8077   18.9871  -26.5123 C   0  0  0  0  0  0  0  0  0  0  0  0
  -25.7143   20.2815  -26.9958 C   0  0  0  0  0  0  0  0  0  0  0  0
  -25.6881   20.4743  -28.3068 N   0  0  0  0  0  0  0  0  0  0  0  0
  -25.8722   17.8009  -27.1100 N   0  0  0  0  0  0  0  0  0  0  0  0
  -25.9444   16.8627  -26.1687 C   0  0  0  0  0  0  0  0  0  0  0  0
  -25.9327   17.4584  -24.9703 N   0  0  0  0  0  0  0  0  0  0  0  0
  -25.6220   21.3875  -28.6688 H   0  0  0  0  0  0  0  0  0  0  0  0
  -25.7346   19.7044  -28.9187 H   0  0  0  0  0  0  0  0  0  0  0  0
 34 35  2  0  0  0
 34 39  1  0  0  0
 35 36  1  0  0  0
 36 37  2  0  0  0
 37 38  1  0  0  0
 37 43  1  0  0  0
 38 39  2  0  0  0
 38 41  1  0  0  0
 39 40  1  0  0  0
 41 42  2  0  0  0
 42 43  1  0  0  0
 43 25  1  0  0  0
  2  3  1  0  0  0
  2  4  2  0  0  0
  2  6  1  0  0  0
  2  1  1  0  0  0
  7  8  1  0  0  0
  7  9  2  0  0  0
  7  6  1  0  0  0
  7 11  1  0  0  0
 25 26  1  0  0  0
 25 31  1  0  0  0
 13 14  1  0  0  0
 13 15  1  0  0  0
 13 20  1  0  0  0
 26 27  1  0  0  0
 26 28  1  0  0  0
 15 16  1  0  0  0
 15 17  1  0  0  0
 28 29  1  0  0  0
 28 30  1  0  0  0
 17 18  1  0  0  0
 17 19  1  0  0  0
 30 31  1  0  0  0
 30 24  1  0  0  0
 19 20  1  0  0  0
 19 12  1  0  0  0
 24  1  1  0  0  0
 12 11  1  0  0  0
 40 44  1  0  0  0
 40 45  1  0  0  0
  3  5  1  0  0  0
  8 10  1  0  0  0
 14 21  1  0  0  0
 27 32  1  0  0  0
 16 22  1  0  0  0
 29 33  1  0  0  0
 18 23  1  0  0  0
M  END
> <minimizedAffinity>
-10.40315

$$$$
3Q71_AR6_A_800


 45 48  0  0  0  0  0  0  0  0999 V2000
  -25.5662   15.2801  -23.7220 O   0  0  0  0  0  0  0  0  0  0  0  0
  -25.7530   14.4352  -22.3619 P   0  0  0  0  0  0  0  0  0  0  0  0
  -26.6820   15.1902  -21.5145 O   0  0  0  0  0  0  0  0  0  0  0  0
  -24.4016   14.1421  -21.8411 O   0  0  0  0  0  0  0  0  0  0  0  0
  -26.8213   14.7124  -20.6819 H   0  0  0  0  0  0  0  0  0  0  0  0
  -26.5055   13.1014  -22.8123 O   0  0  0  0  0  0  0  0  0  0  0  0
  -26.3349   11.5952  -22.2238 P   0  0  0  0  0  0  0  0  0  0  0  0
  -25.9454   11.8043  -20.7965 O   0  0  0  0  0  0  0  0  0  0  0  0
  -27.5036   10.7551  -22.5574 O   0  0  0  0  0  0  0  0  0  0  0  0
  -26.7107   12.1290  -20.2967 H   0  0  0  0  0  0  0  0  0  0  0  0
  -24.9554   11.0741  -22.8358 O   0  0  0  0  0  0  0  0  0  0  0  0
  -24.7159   11.0630  -24.2324 C   0  0  0  0  0  0  0  0  0  0  0  0
  -25.8085    8.5158  -25.4570 C   0  0  0  0  0  0  0  0  0  0  0  0
  -25.7176    7.1481  -25.5550 O   0  0  0  0  0  0  0  0  0  0  0  0
  -25.2061    9.2221  -26.6728 C   0  0  0  0  0  0  0  0  0  0  0  0
  -24.9679    8.2808  -27.7066 O   0  0  0  0  0  0  0  0  0  0  0  0
  -23.8831    9.7325  -26.1721 C   0  0  0  0  0  0  0  0  0  0  0  0
  -22.9049    8.7173  -26.3892 O   0  0  0  0  0  0  0  0  0  0  0  0
  -24.0881    9.7905  -24.6734 C   0  0  0  0  0  0  0  0  0  0  0  0
  -24.9226    8.6968  -24.3662 O   0  0  0  0  0  0  0  0  0  0  0  0
  -24.7855    6.8906  -25.6315 H   0  0  0  0  0  0  0  0  0  0  0  0
  -24.3906    7.5754  -27.3748 H   0  0  0  0  0  0  0  0  0  0  0  0
  -23.1946    7.8936  -25.9666 H   0  0  0  0  0  0  0  0  0  0  0  0
  -25.3710   16.7040  -23.7510 C   0  0  0  0  0  0  0  0  0  0  0  0
  -26.6127   19.3292  -25.9048 C   0  0  0  0  0  0  0  0  0  0  0  0
  -25.7906   18.4282  -26.7906 C   0  0  0  0  0  0  0  0  0  0  0  0
  -26.3319   18.4809  -28.0967 O   0  0  0  0  0  0  0  0  0  0  0  0
  -26.0698   17.0683  -26.1645 C   0  0  0  0  0  0  0  0  0  0  0  0
  -27.2378   16.5197  -26.7698 O   0  0  0  0  0  0  0  0  0  0  0  0
  -26.3873   17.3833  -24.6907 C   0  0  0  0  0  0  0  0  0  0  0  0
  -26.2890   18.8138  -24.5896 O   0  0  0  0  0  0  0  0  0  0  0  0
  -27.2771   18.2656  -28.0639 H   0  0  0  0  0  0  0  0  0  0  0  0
  -27.9770   17.1392  -26.6664 H   0  0  0  0  0  0  0  0  0  0  0  0
  -27.8089   24.2218  -24.9342 N   0  0  0  0  0  0  0  0  0  0  0  0
  -28.6217   23.1747  -25.0752 C   0  0  0  0  0  0  0  0  0  0  0  0
  -28.1725   21.9429  -25.3342 N   0  0  0  0  0  0  0  0  0  0  0  0
  -26.8473   21.7412  -25.4718 C   0  0  0  0  0  0  0  0  0  0  0  0
  -25.9763   22.8063  -25.3395 C   0  0  0  0  0  0  0  0  0  0  0  0
  -26.4788   24.0662  -25.0599 C   0  0  0  0  0  0  0  0  0  0  0  0
  -25.6331   25.0793  -24.9367 N   0  0  0  0  0  0  0  0  0  0  0  0
  -24.7422   22.3438  -25.5168 N   0  0  0  0  0  0  0  0  0  0  0  0
  -24.8168   21.0368  -25.7570 C   0  0  0  0  0  0  0  0  0  0  0  0
  -26.1044   20.6722  -25.7388 N   0  0  0  0  0  0  0  0  0  0  0  0
  -25.9721   25.9820  -24.7381 H   0  0  0  0  0  0  0  0  0  0  0  0
  -24.6661   24.9292  -25.0438 H   0  0  0  0  0  0  0  0  0  0  0  0
 34 35  2  0  0  0
 34 39  1  0  0  0
 35 36  1  0  0  0
 36 37  2  0  0  0
 37 38  1  0  0  0
 37 43  1  0  0  0
 38 39  2  0  0  0
 38 41  1  0  0  0
 39 40  1  0  0  0
 41 42  2  0  0  0
 42 43  1  0  0  0
 43 25  1  0  0  0
  2  3  1  0  0  0
  2  4  2  0  0  0
  2  6  1  0  0  0
  2  1  1  0  0  0
  7  8  1  0  0  0
  7  9  2  0  0  0
  7  6  1  0  0  0
  7 11  1  0  0  0
 25 26  1  0  0  0
 25 31  1  0  0  0
 13 14  1  0  0  0
 13 15  1  0  0  0
 13 20  1  0  0  0
 26 27  1  0  0  0
 26 28  1  0  0  0
 15 16  1  0  0  0
 15 17  1  0  0  0
 28 29  1  0  0  0
 28 30  1  0  0  0
 17 18  1  0  0  0
 17 19  1  0  0  0
 30 31  1  0  0  0
 30 24  1  0  0  0
 19 20  1  0  0  0
 19 12  1  0  0  0
 24  1  1  0  0  0
 12 11  1  0  0  0
 40 44  1  0  0  0
 40 45  1  0  0  0
  3  5  1  0  0  0
  8 10  1  0  0  0
 14 21  1  0  0  0
 27 32  1  0  0  0
 16 22  1  0  0  0
 29 33  1  0  0  0
 18 23  1  0  0  0
M  END
> <minimizedAffinity>
-10.28537

$$$$
3Q71_AR6_A_800


 45 48  0  0  0  0  0  0  0  0999 V2000
  -21.8496   11.5959  -23.2914 O   0  0  0  0  0  0  0  0  0  0  0  0
  -21.2147   10.1849  -23.7438 P   0  0  0  0  0  0  0  0  0  0  0  0
  -21.5963    9.1994  -22.7268 O   0  0  0  0  0  0  0  0  0  0  0  0
  -19.7777   10.4149  -23.9998 O   0  0  0  0  0  0  0  0  0  0  0  0
  -21.2316    8.3324  -22.9639 H   0  0  0  0  0  0  0  0  0  0  0  0
  -21.9910    9.8014  -25.0849 O   0  0  0  0  0  0  0  0  0  0  0  0
  -23.5593   10.0311  -25.4476 P   0  0  0  0  0  0  0  0  0  0  0  0
  -23.7747   11.4924  -25.2216 O   0  0  0  0  0  0  0  0  0  0  0  0
  -23.9014    9.4246  -26.7506 O   0  0  0  0  0  0  0  0  0  0  0  0
  -23.3314   11.9966  -25.9217 H   0  0  0  0  0  0  0  0  0  0  0  0
  -24.3567    9.4174  -24.2079 O   0  0  0  0  0  0  0  0  0  0  0  0
  -25.5991    8.7564  -24.3736 C   0  0  0  0  0  0  0  0  0  0  0  0
  -26.2898    8.5494  -21.4305 C   0  0  0  0  0  0  0  0  0  0  0  0
  -27.2750    8.5242  -20.4727 O   0  0  0  0  0  0  0  0  0  0  0  0
  -25.5871    9.9064  -21.4992 C   0  0  0  0  0  0  0  0  0  0  0  0
  -25.9419   10.6892  -20.3710 O   0  0  0  0  0  0  0  0  0  0  0  0
  -26.1647   10.5475  -22.7310 C   0  0  0  0  0  0  0  0  0  0  0  0
  -27.3323   11.2718  -22.3482 O   0  0  0  0  0  0  0  0  0  0  0  0
  -26.6615    9.3607  -23.5287 C   0  0  0  0  0  0  0  0  0  0  0  0
  -27.1195    8.4314  -22.5730 O   0  0  0  0  0  0  0  0  0  0  0  0
  -27.9367    9.2051  -20.6715 H   0  0  0  0  0  0  0  0  0  0  0  0
  -26.9066   10.7826  -20.3327 H   0  0  0  0  0  0  0  0  0  0  0  0
  -27.9460   10.6768  -21.8894 H   0  0  0  0  0  0  0  0  0  0  0  0
  -21.1052   12.6177  -22.6071 C   0  0  0  0  0  0  0  0  0  0  0  0
  -23.9396   14.8191  -22.1685 C   0  0  0  0  0  0  0  0  0  0  0  0
  -24.4595   13.4274  -21.9133 C   0  0  0  0  0  0  0  0  0  0  0  0
  -25.5243   13.5176  -20.9862 O   0  0  0  0  0  0  0  0  0  0  0  0
  -23.2488   12.7787  -21.2559 C   0  0  0  0  0  0  0  0  0  0  0  0
  -23.3149   13.0103  -19.8511 O   0  0  0  0  0  0  0  0  0  0  0  0
  -22.0444   13.5547  -21.8212 C   0  0  0  0  0  0  0  0  0  0  0  0
  -22.6184   14.5412  -22.6950 O   0  0  0  0  0  0  0  0  0  0  0  0
  -25.2243   13.9906  -20.1943 H   0  0  0  0  0  0  0  0  0  0  0  0
  -23.3670   13.9642  -19.6828 H   0  0  0  0  0  0  0  0  0  0  0  0
  -26.7756   18.7585  -23.8264 N   0  0  0  0  0  0  0  0  0  0  0  0
  -26.4986   18.3968  -22.5737 C   0  0  0  0  0  0  0  0  0  0  0  0
  -25.7426   17.3345  -22.2803 N   0  0  0  0  0  0  0  0  0  0  0  0
  -25.2443   16.5845  -23.2828 C   0  0  0  0  0  0  0  0  0  0  0  0
  -25.5182   16.9265  -24.5938 C   0  0  0  0  0  0  0  0  0  0  0  0
  -26.2963   18.0412  -24.8584 C   0  0  0  0  0  0  0  0  0  0  0  0
  -26.5527   18.3576  -26.1196 N   0  0  0  0  0  0  0  0  0  0  0  0
  -24.9148   16.0381  -25.3780 N   0  0  0  0  0  0  0  0  0  0  0  0
  -24.2827   15.1592  -24.6036 C   0  0  0  0  0  0  0  0  0  0  0  0
  -24.4932   15.4890  -23.3237 N   0  0  0  0  0  0  0  0  0  0  0  0
  -27.1040   19.1465  -26.3269 H   0  0  0  0  0  0  0  0  0  0  0  0
  -26.1918   17.8039  -26.8492 H   0  0  0  0  0  0  0  0  0  0  0  0
 34 35  2  0  0  0
 34 39  1  0  0  0
 35 36  1  0  0  0
 36 37  2  0  0  0
 37 38  1  0  0  0
 37 43  1  0  0  0
 38 39  2  0  0  0
 38 41  1  0  0  0
 39 40  1  0  0  0
 41 42  2  0  0  0
 42 43  1  0  0  0
 43 25  1  0  0  0
  2  3  1  0  0  0
  2  4  2  0  0  0
  2  6  1  0  0  0
  2  1  1  0  0  0
  7  8  1  0  0  0
  7  9  2  0  0  0
  7  6  1  0  0  0
  7 11  1  0  0  0
 25 26  1  0  0  0
 25 31  1  0  0  0
 13 14  1  0  0  0
 13 15  1  0  0  0
 13 20  1  0  0  0
 26 27  1  0  0  0
 26 28  1  0  0  0
 15 16  1  0  0  0
 15 17  1  0  0  0
 28 29  1  0  0  0
 28 30  1  0  0  0
 17 18  1  0  0  0
 17 19  1  0  0  0
 30 31  1  0  0  0
 30 24  1  0  0  0
 19 20  1  0  0  0
 19 12  1  0  0  0
 24  1  1  0  0  0
 12 11  1  0  0  0
 40 44  1  0  0  0
 40 45  1  0  0  0
  3  5  1  0  0  0
  8 10  1  0  0  0
 14 21  1  0  0  0
 27 32  1  0  0  0
 16 22  1  0  0  0
 29 33  1  0  0  0
 18 23  1  0  0  0
M  END
> <minimizedAffinity>
-9.94439

$$$$
