3DP9_BIG_A_301


 27 29  0  0  0  0  0  0  0  0999 V2000
   -3.7872   -1.1384    7.6902 C   0  0  0  0  0  0  0  0  0  0  0  0
   -1.2315   -4.0857    5.2261 C   0  0  0  0  0  0  0  0  0  0  0  0
   -3.8803   -3.4430    4.6498 C   0  0  0  0  0  0  0  0  0  0  0  0
   -3.1289   -2.8819    5.7742 C   0  0  0  0  0  0  0  0  0  0  0  0
   -5.2303   -2.0286    5.7296 C   0  0  0  0  0  0  0  0  0  0  0  0
   -5.1086   -2.8903    4.6691 N   0  0  0  0  0  0  0  0  0  0  0  0
   -3.1390   -4.4093    3.8148 C   0  0  0  0  0  0  0  0  0  0  0  0
   -3.7133   -5.0108    2.7440 N   0  0  0  0  0  0  0  0  0  0  0  0
   -1.8391   -3.2157    6.0391 N   0  0  0  0  0  0  0  0  0  0  0  0
   -4.0438   -1.9517    6.4548 C   0  0  0  0  0  0  0  0  0  0  0  0
   -1.8514   -4.6625    4.1674 N   0  0  0  0  0  0  0  0  0  0  0  0
   -5.8191   -3.0784    4.0141 H   0  0  0  0  0  0  0  0  0  0  0  0
   -4.6482   -4.8102    2.5094 H   0  0  0  0  0  0  0  0  0  0  0  0
   -3.1955   -5.6483    2.2011 H   0  0  0  0  0  0  0  0  0  0  0  0
   -1.5540    2.4766    8.1760 O   0  0  0  0  0  0  0  0  0  0  0  0
   -1.3019    1.4451    7.2134 C   0  0  0  0  0  0  0  0  0  0  0  0
   -2.1394    1.6321    5.9538 C   0  0  0  0  0  0  0  0  0  0  0  0
   -3.4168    0.8596    6.2357 C   0  0  0  0  0  0  0  0  0  0  0  0
   -3.2273    0.2244    7.5576 N   0  0  0  0  0  0  0  0  0  0  0  0
   -1.7920    0.1539    7.8246 C   0  0  0  0  0  0  0  0  0  0  0  0
   -1.2531    3.3286    7.8233 H   0  0  0  0  0  0  0  0  0  0  0  0
   -1.4844    0.9864    4.7345 C   0  0  0  0  0  0  0  0  0  0  0  0
   -0.5860    2.1468    3.7479 S   0  0  0  0  0  0  0  0  0  0  0  0
   -1.6905    3.5281    3.6786 C   0  0  0  0  0  0  0  0  0  0  0  0
   -1.6722    4.1337    2.2793 C   0  0  0  0  0  0  0  0  0  0  0  0
   -0.2619    4.5454    1.8674 C   0  0  0  0  0  0  0  0  0  0  0  0
   -0.3042    5.8487    1.1034 C   0  0  0  0  0  0  0  0  0  0  0  0
  2  9  2  0  0  0
  2 11  1  0  0  0
  3  4  2  0  0  0
  3  6  1  0  0  0
  3  7  1  0  0  0
  4  9  1  0  0  0
  4 10  1  0  0  0
  5  6  1  0  0  0
  5 10  2  0  0  0
 15 16  1  0  0  0
 16 17  1  0  0  0
 16 20  1  0  0  0
 17 22  1  0  0  0
 17 18  1  0  0  0
 22 23  1  0  0  0
 23 24  1  0  0  0
 24 25  1  0  0  0
 25 26  1  0  0  0
 26 27  1  0  0  0
 18 19  1  0  0  0
 19 20  1  0  0  0
 19  1  1  0  0  0
  1 10  1  0  0  0
  7  8  1  0  0  0
  7 11  2  0  0  0
 15 21  1  0  0  0
  6 12  1  0  0  0
  8 13  1  0  0  0
  8 14  1  0  0  0
M  END
> <minimizedAffinity>
-9.65174

$$$$
3DP9_BIG_A_301


 27 29  0  0  0  0  0  0  0  0999 V2000
   -1.8717    2.1174    3.4035 C   0  0  0  0  0  0  0  0  0  0  0  0
   -3.2009    5.6093    0.6962 C   0  0  0  0  0  0  0  0  0  0  0  0
   -0.6091    5.2682    1.6593 C   0  0  0  0  0  0  0  0  0  0  0  0
   -1.7164    4.3558    1.9511 C   0  0  0  0  0  0  0  0  0  0  0  0
    0.1851    3.6290    2.9520 C   0  0  0  0  0  0  0  0  0  0  0  0
    0.4888    4.7779    2.2665 N   0  0  0  0  0  0  0  0  0  0  0  0
   -0.9519    6.4247    0.8077 C   0  0  0  0  0  0  0  0  0  0  0  0
   -0.0257    7.3527    0.4625 N   0  0  0  0  0  0  0  0  0  0  0  0
   -2.9742    4.5466    1.4749 N   0  0  0  0  0  0  0  0  0  0  0  0
   -1.1560    3.2879    2.7944 C   0  0  0  0  0  0  0  0  0  0  0  0
   -2.2392    6.5115    0.3814 N   0  0  0  0  0  0  0  0  0  0  0  0
    1.3834    5.1866    2.2243 H   0  0  0  0  0  0  0  0  0  0  0  0
    0.9007    7.2671    0.7846 H   0  0  0  0  0  0  0  0  0  0  0  0
   -0.2795    8.1123   -0.1101 H   0  0  0  0  0  0  0  0  0  0  0  0
   -1.0779    2.0512    7.6054 O   0  0  0  0  0  0  0  0  0  0  0  0
   -2.3151    1.7070    6.9691 C   0  0  0  0  0  0  0  0  0  0  0  0
   -2.3322    0.2508    6.5195 C   0  0  0  0  0  0  0  0  0  0  0  0
   -1.7797    0.2894    5.1049 C   0  0  0  0  0  0  0  0  0  0  0  0
   -1.5558    1.7173    4.7921 N   0  0  0  0  0  0  0  0  0  0  0  0
   -2.3850    2.5140    5.6943 C   0  0  0  0  0  0  0  0  0  0  0  0
   -0.9905    1.5532    8.4332 H   0  0  0  0  0  0  0  0  0  0  0  0
   -3.7539   -0.3002    6.4310 C   0  0  0  0  0  0  0  0  0  0  0  0
   -3.8879   -1.9468    7.0616 S   0  0  0  0  0  0  0  0  0  0  0  0
   -3.6755   -2.9333    5.6075 C   0  0  0  0  0  0  0  0  0  0  0  0
   -2.2212   -3.3770    5.4928 C   0  0  0  0  0  0  0  0  0  0  0  0
   -2.0470   -4.4482    4.4203 C   0  0  0  0  0  0  0  0  0  0  0  0
   -3.3634   -4.7030    3.7230 C   0  0  0  0  0  0  0  0  0  0  0  0
  2  9  2  0  0  0
  2 11  1  0  0  0
  3  4  2  0  0  0
  3  6  1  0  0  0
  3  7  1  0  0  0
  4  9  1  0  0  0
  4 10  1  0  0  0
  5  6  1  0  0  0
  5 10  2  0  0  0
 15 16  1  0  0  0
 16 17  1  0  0  0
 16 20  1  0  0  0
 17 22  1  0  0  0
 17 18  1  0  0  0
 22 23  1  0  0  0
 23 24  1  0  0  0
 24 25  1  0  0  0
 25 26  1  0  0  0
 26 27  1  0  0  0
 18 19  1  0  0  0
 19 20  1  0  0  0
 19  1  1  0  0  0
  1 10  1  0  0  0
  7  8  1  0  0  0
  7 11  2  0  0  0
 15 21  1  0  0  0
  6 12  1  0  0  0
  8 13  1  0  0  0
  8 14  1  0  0  0
M  END
> <minimizedAffinity>
-6.80499

$$$$
