2GVV_DI9_A_502


 17 18  0  0  0  0  0  0  0  0999 V2000
   18.1607    2.6010   61.0838 P   0  0  0  0  0  0  0  0  0  0  0  0
   16.6139    2.3000   60.6947 N   0  0  0  0  0  0  0  0  0  0  0  0
   18.3084    3.7886   61.9538 O   0  0  0  0  0  0  0  0  0  0  0  0
   16.0641    2.1902   61.5468 H   0  0  0  0  0  0  0  0  0  0  0  0
   16.5625    1.4428   60.1442 H   0  0  0  0  0  0  0  0  0  0  0  0
   18.7257    1.2535   61.7639 O   0  0  0  0  0  0  0  0  0  0  0  0
   20.5663    0.0164   62.6768 C   0  0  0  0  0  0  0  0  0  0  0  0
   20.1259   -0.8365   63.8703 C   0  0  0  0  0  0  0  0  0  0  0  0
   18.7345   -0.2836   64.1746 C   0  0  0  0  0  0  0  0  0  0  0  0
   19.0754    1.2057   64.1413 C   0  0  0  0  0  0  0  0  0  0  0  0
   19.7441    1.3071   62.7687 C   0  0  0  0  0  0  0  0  0  0  0  0
   18.9461    2.7583   59.6868 O   0  0  0  0  0  0  0  0  0  0  0  0
   20.2719    3.2953   59.6648 C   0  0  0  0  0  0  0  0  0  0  0  0
   21.1316    2.4702   58.7055 C   0  0  0  0  0  0  0  0  0  0  0  0
   20.6235    2.9967   57.3646 C   0  0  0  0  0  0  0  0  0  0  0  0
   20.8202    4.4914   57.6187 C   0  0  0  0  0  0  0  0  0  0  0  0
   20.1999    4.6779   59.0062 C   0  0  0  0  0  0  0  0  0  0  0  0
  7  8  1  0  0  0
  7 11  1  0  0  0
  8  9  1  0  0  0
  9 10  1  0  0  0
 10 11  1  0  0  0
 11  6  1  0  0  0
  6  1  1  0  0  0
  1  2  1  0  0  0
  1  3  2  0  0  0
  1 12  1  0  0  0
 12 13  1  0  0  0
 13 14  1  0  0  0
 13 17  1  0  0  0
 14 15  1  0  0  0
 15 16  1  0  0  0
 16 17  1  0  0  0
  2  4  1  0  0  0
  2  5  1  0  0  0
M  END
> <minimizedAffinity>
-7.38392

$$$$
2GVV_DI9_A_502


 17 18  0  0  0  0  0  0  0  0999 V2000
   18.1596    2.8286   61.0893 P   0  0  0  0  0  0  0  0  0  0  0  0
   17.7470    4.1617   61.9182 N   0  0  0  0  0  0  0  0  0  0  0  0
   16.9867    2.1143   60.5388 O   0  0  0  0  0  0  0  0  0  0  0  0
   17.2006    4.7796   61.3182 H   0  0  0  0  0  0  0  0  0  0  0  0
   18.5906    4.6453   62.2261 H   0  0  0  0  0  0  0  0  0  0  0  0
   19.1921    3.3078   59.9483 O   0  0  0  0  0  0  0  0  0  0  0  0
   19.1563    5.0677   58.3195 C   0  0  0  0  0  0  0  0  0  0  0  0
   20.5025    5.1857   57.5984 C   0  0  0  0  0  0  0  0  0  0  0  0
   21.4161    4.3180   58.4625 C   0  0  0  0  0  0  0  0  0  0  0  0
   21.0160    4.8686   59.8307 C   0  0  0  0  0  0  0  0  0  0  0  0
   19.4972    4.6948   59.7669 C   0  0  0  0  0  0  0  0  0  0  0  0
   19.0127    1.9197   62.1089 O   0  0  0  0  0  0  0  0  0  0  0  0
   19.0033    2.2099   63.5097 C   0  0  0  0  0  0  0  0  0  0  0  0
   17.9600    1.3279   64.1980 C   0  0  0  0  0  0  0  0  0  0  0  0
   18.7049   -0.0056   64.2212 C   0  0  0  0  0  0  0  0  0  0  0  0
   19.9971    0.4682   64.8868 C   0  0  0  0  0  0  0  0  0  0  0  0
   20.3388    1.7304   64.0902 C   0  0  0  0  0  0  0  0  0  0  0  0
  7  8  1  0  0  0
  7 11  1  0  0  0
  8  9  1  0  0  0
  9 10  1  0  0  0
 10 11  1  0  0  0
 11  6  1  0  0  0
  6  1  1  0  0  0
  1  2  1  0  0  0
  1  3  2  0  0  0
  1 12  1  0  0  0
 12 13  1  0  0  0
 13 14  1  0  0  0
 13 17  1  0  0  0
 14 15  1  0  0  0
 15 16  1  0  0  0
 16 17  1  0  0  0
  2  4  1  0  0  0
  2  5  1  0  0  0
M  END
> <minimizedAffinity>
-7.36828

$$$$
2GVV_DI9_A_502


 17 18  0  0  0  0  0  0  0  0999 V2000
   18.1982    2.9428   61.1178 P   0  0  0  0  0  0  0  0  0  0  0  0
   16.7872    2.2348   60.7405 N   0  0  0  0  0  0  0  0  0  0  0  0
   18.0364    4.0636   62.0701 O   0  0  0  0  0  0  0  0  0  0  0  0
   16.3277    1.9163   61.5937 H   0  0  0  0  0  0  0  0  0  0  0  0
   16.9600    1.4368   60.1292 H   0  0  0  0  0  0  0  0  0  0  0  0
   19.1527    1.7741   61.6840 O   0  0  0  0  0  0  0  0  0  0  0  0
   18.9411    1.5831   64.0652 C   0  0  0  0  0  0  0  0  0  0  0  0
   20.1569    0.8804   64.6771 C   0  0  0  0  0  0  0  0  0  0  0  0
   20.8592    0.3069   63.4473 C   0  0  0  0  0  0  0  0  0  0  0  0
   19.6410   -0.3156   62.7663 C   0  0  0  0  0  0  0  0  0  0  0  0
   18.7025    0.8919   62.7177 C   0  0  0  0  0  0  0  0  0  0  0  0
   18.8469    3.4099   59.7198 O   0  0  0  0  0  0  0  0  0  0  0  0
   19.2897    4.7595   59.5490 C   0  0  0  0  0  0  0  0  0  0  0  0
   20.7821    4.8429   59.8744 C   0  0  0  0  0  0  0  0  0  0  0  0
   21.3708    4.2217   58.6092 C   0  0  0  0  0  0  0  0  0  0  0  0
   20.6704    5.1045   57.5761 C   0  0  0  0  0  0  0  0  0  0  0  0
   19.2154    5.0845   58.0525 C   0  0  0  0  0  0  0  0  0  0  0  0
  7  8  1  0  0  0
  7 11  1  0  0  0
  8  9  1  0  0  0
  9 10  1  0  0  0
 10 11  1  0  0  0
 11  6  1  0  0  0
  6  1  1  0  0  0
  1  2  1  0  0  0
  1  3  2  0  0  0
  1 12  1  0  0  0
 12 13  1  0  0  0
 13 14  1  0  0  0
 13 17  1  0  0  0
 14 15  1  0  0  0
 15 16  1  0  0  0
 16 17  1  0  0  0
  2  4  1  0  0  0
  2  5  1  0  0  0
M  END
> <minimizedAffinity>
-7.05789

$$$$
2GVV_DI9_A_502


 17 18  0  0  0  0  0  0  0  0999 V2000
   18.2925    2.7858   61.2499 P   0  0  0  0  0  0  0  0  0  0  0  0
   17.5999    4.0698   61.9613 N   0  0  0  0  0  0  0  0  0  0  0  0
   17.3395    2.0065   60.4291 O   0  0  0  0  0  0  0  0  0  0  0  0
   17.1716    4.6626   61.2502 H   0  0  0  0  0  0  0  0  0  0  0  0
   18.3086    4.6023   62.4660 H   0  0  0  0  0  0  0  0  0  0  0  0
   19.5325    3.3581   60.3940 O   0  0  0  0  0  0  0  0  0  0  0  0
   20.4674    2.8007   58.2570 C   0  0  0  0  0  0  0  0  0  0  0  0
   21.5444    3.8074   57.8413 C   0  0  0  0  0  0  0  0  0  0  0  0
   21.3400    4.9413   58.8447 C   0  0  0  0  0  0  0  0  0  0  0  0
   19.8214    5.0681   58.7300 C   0  0  0  0  0  0  0  0  0  0  0  0
   19.4011    3.6205   58.9928 C   0  0  0  0  0  0  0  0  0  0  0  0
   18.9374    1.9143   62.4406 O   0  0  0  0  0  0  0  0  0  0  0  0
   19.4195    0.5922   62.1831 C   0  0  0  0  0  0  0  0  0  0  0  0
   20.9491    0.6094   62.1706 C   0  0  0  0  0  0  0  0  0  0  0  0
   21.2317    0.6939   63.6694 C   0  0  0  0  0  0  0  0  0  0  0  0
   20.3938   -0.5006   64.1258 C   0  0  0  0  0  0  0  0  0  0  0  0
   19.0659   -0.2737   63.3979 C   0  0  0  0  0  0  0  0  0  0  0  0
  7  8  1  0  0  0
  7 11  1  0  0  0
  8  9  1  0  0  0
  9 10  1  0  0  0
 10 11  1  0  0  0
 11  6  1  0  0  0
  6  1  1  0  0  0
  1  2  1  0  0  0
  1  3  2  0  0  0
  1 12  1  0  0  0
 12 13  1  0  0  0
 13 14  1  0  0  0
 13 17  1  0  0  0
 14 15  1  0  0  0
 15 16  1  0  0  0
 16 17  1  0  0  0
  2  4  1  0  0  0
  2  5  1  0  0  0
M  END
> <minimizedAffinity>
-6.56760

$$$$
2GVV_DI9_A_502


 17 18  0  0  0  0  0  0  0  0999 V2000
   18.8950    2.5924   61.2213 P   0  0  0  0  0  0  0  0  0  0  0  0
   17.8538    3.6783   61.8307 N   0  0  0  0  0  0  0  0  0  0  0  0
   18.2129    1.4507   60.5731 O   0  0  0  0  0  0  0  0  0  0  0  0
   17.2322    4.0055   61.0911 H   0  0  0  0  0  0  0  0  0  0  0  0
   18.3724    4.4688   62.2135 H   0  0  0  0  0  0  0  0  0  0  0  0
   19.8536    3.4035   60.2110 O   0  0  0  0  0  0  0  0  0  0  0  0
   20.3601    2.8439   57.9347 C   0  0  0  0  0  0  0  0  0  0  0  0
   21.3300    3.8551   57.3158 C   0  0  0  0  0  0  0  0  0  0  0  0
   21.3170    4.9913   58.3371 C   0  0  0  0  0  0  0  0  0  0  0  0
   19.8042    5.1093   58.5185 C   0  0  0  0  0  0  0  0  0  0  0  0
   19.4517    3.6603   58.8612 C   0  0  0  0  0  0  0  0  0  0  0  0
   19.8286    2.1356   62.4513 O   0  0  0  0  0  0  0  0  0  0  0  0
   19.3090    2.1309   63.7842 C   0  0  0  0  0  0  0  0  0  0  0  0
   18.5221    0.8389   64.0115 C   0  0  0  0  0  0  0  0  0  0  0  0
   19.6718   -0.1519   64.1850 C   0  0  0  0  0  0  0  0  0  0  0  0
   20.4419    0.5842   65.2815 C   0  0  0  0  0  0  0  0  0  0  0  0
   20.4990    2.0168   64.7441 C   0  0  0  0  0  0  0  0  0  0  0  0
  7  8  1  0  0  0
  7 11  1  0  0  0
  8  9  1  0  0  0
  9 10  1  0  0  0
 10 11  1  0  0  0
 11  6  1  0  0  0
  6  1  1  0  0  0
  1  2  1  0  0  0
  1  3  2  0  0  0
  1 12  1  0  0  0
 12 13  1  0  0  0
 13 14  1  0  0  0
 13 17  1  0  0  0
 14 15  1  0  0  0
 15 16  1  0  0  0
 16 17  1  0  0  0
  2  4  1  0  0  0
  2  5  1  0  0  0
M  END
> <minimizedAffinity>
-6.51737

$$$$
2GVV_DI9_A_502


 17 18  0  0  0  0  0  0  0  0999 V2000
   21.5625    3.6206   62.3072 P   0  0  0  0  0  0  0  0  0  0  0  0
   21.7236    4.7396   63.4718 N   0  0  0  0  0  0  0  0  0  0  0  0
   22.7958    2.8291   62.1031 O   0  0  0  0  0  0  0  0  0  0  0  0
   22.0068    4.2873   64.3411 H   0  0  0  0  0  0  0  0  0  0  0  0
   20.8326    5.2161   63.6111 H   0  0  0  0  0  0  0  0  0  0  0  0
   20.2987    2.7121   62.7256 O   0  0  0  0  0  0  0  0  0  0  0  0
   20.1040    0.9672   64.3592 C   0  0  0  0  0  0  0  0  0  0  0  0
   18.6640    0.4542   64.4564 C   0  0  0  0  0  0  0  0  0  0  0  0
   17.8844    1.5122   63.6772 C   0  0  0  0  0  0  0  0  0  0  0  0
   18.4984    2.7566   64.3173 C   0  0  0  0  0  0  0  0  0  0  0  0
   19.9867    2.4740   64.1024 C   0  0  0  0  0  0  0  0  0  0  0  0
   21.1169    4.4210   60.9828 O   0  0  0  0  0  0  0  0  0  0  0  0
   21.2471    3.8093   59.6961 C   0  0  0  0  0  0  0  0  0  0  0  0
   19.8568    3.4525   59.1671 C   0  0  0  0  0  0  0  0  0  0  0  0
   19.3657    4.8348   58.7412 C   0  0  0  0  0  0  0  0  0  0  0  0
   20.5439    5.2295   57.8506 C   0  0  0  0  0  0  0  0  0  0  0  0
   21.7527    4.8812   58.7235 C   0  0  0  0  0  0  0  0  0  0  0  0
  7  8  1  0  0  0
  7 11  1  0  0  0
  8  9  1  0  0  0
  9 10  1  0  0  0
 10 11  1  0  0  0
 11  6  1  0  0  0
  6  1  1  0  0  0
  1  2  1  0  0  0
  1  3  2  0  0  0
  1 12  1  0  0  0
 12 13  1  0  0  0
 13 14  1  0  0  0
 13 17  1  0  0  0
 14 15  1  0  0  0
 15 16  1  0  0  0
 16 17  1  0  0  0
  2  4  1  0  0  0
  2  5  1  0  0  0
M  END
> <minimizedAffinity>
-5.95769

$$$$
2GVV_DI9_A_502


 17 18  0  0  0  0  0  0  0  0999 V2000
   21.8295    3.1267   62.5731 P   0  0  0  0  0  0  0  0  0  0  0  0
   21.6413    4.5171   63.3890 N   0  0  0  0  0  0  0  0  0  0  0  0
   23.2348    2.6645   62.5516 O   0  0  0  0  0  0  0  0  0  0  0  0
   21.9959    4.4047   64.3388 H   0  0  0  0  0  0  0  0  0  0  0  0
   20.6514    4.7606   63.4222 H   0  0  0  0  0  0  0  0  0  0  0  0
   20.8316    2.0625   63.2583 O   0  0  0  0  0  0  0  0  0  0  0  0
   18.4748    2.5047   63.2237 C   0  0  0  0  0  0  0  0  0  0  0  0
   17.7150    1.5442   64.1437 C   0  0  0  0  0  0  0  0  0  0  0  0
   18.7709    0.4858   64.4588 C   0  0  0  0  0  0  0  0  0  0  0  0
   19.2749    0.2449   63.0364 C   0  0  0  0  0  0  0  0  0  0  0  0
   19.6123    1.6766   62.6150 C   0  0  0  0  0  0  0  0  0  0  0  0
   21.2465    3.3975   61.0965 O   0  0  0  0  0  0  0  0  0  0  0  0
   21.1075    4.7370   60.6139 C   0  0  0  0  0  0  0  0  0  0  0  0
   21.8220    4.8618   59.2670 C   0  0  0  0  0  0  0  0  0  0  0  0
   20.8138    4.1601   58.3590 C   0  0  0  0  0  0  0  0  0  0  0  0
   19.5682    4.9590   58.7433 C   0  0  0  0  0  0  0  0  0  0  0  0
   19.6286    4.9546   60.2733 C   0  0  0  0  0  0  0  0  0  0  0  0
  7  8  1  0  0  0
  7 11  1  0  0  0
  8  9  1  0  0  0
  9 10  1  0  0  0
 10 11  1  0  0  0
 11  6  1  0  0  0
  6  1  1  0  0  0
  1  2  1  0  0  0
  1  3  2  0  0  0
  1 12  1  0  0  0
 12 13  1  0  0  0
 13 14  1  0  0  0
 13 17  1  0  0  0
 14 15  1  0  0  0
 15 16  1  0  0  0
 16 17  1  0  0  0
  2  4  1  0  0  0
  2  5  1  0  0  0
M  END
> <minimizedAffinity>
-5.92240

$$$$
2GVV_DI9_A_502


 17 18  0  0  0  0  0  0  0  0999 V2000
   19.1336    3.5424   60.8166 P   0  0  0  0  0  0  0  0  0  0  0  0
   17.5749    3.2620   60.4613 N   0  0  0  0  0  0  0  0  0  0  0  0
   19.4772    4.9810   60.7759 O   0  0  0  0  0  0  0  0  0  0  0  0
   16.9803    3.7904   61.0997 H   0  0  0  0  0  0  0  0  0  0  0  0
   17.3778    2.2659   60.5588 H   0  0  0  0  0  0  0  0  0  0  0  0
   19.3940    2.8780   62.2616 O   0  0  0  0  0  0  0  0  0  0  0  0
   18.6055    1.7467   64.2238 C   0  0  0  0  0  0  0  0  0  0  0  0
   19.5862    0.6580   64.6700 C   0  0  0  0  0  0  0  0  0  0  0  0
   20.5198    0.5422   63.4662 C   0  0  0  0  0  0  0  0  0  0  0  0
   19.4590    0.4778   62.3681 C   0  0  0  0  0  0  0  0  0  0  0  0
   18.6478    1.7343   62.6913 C   0  0  0  0  0  0  0  0  0  0  0  0
   19.9905    2.6736   59.7657 O   0  0  0  0  0  0  0  0  0  0  0  0
   21.3231    3.0678   59.4259 C   0  0  0  0  0  0  0  0  0  0  0  0
   22.2833    2.5784   60.5115 C   0  0  0  0  0  0  0  0  0  0  0  0
   22.3605    1.0946   60.1567 C   0  0  0  0  0  0  0  0  0  0  0  0
   22.7370    1.2335   58.6816 C   0  0  0  0  0  0  0  0  0  0  0  0
   21.7354    2.2769   58.1789 C   0  0  0  0  0  0  0  0  0  0  0  0
  7  8  1  0  0  0
  7 11  1  0  0  0
  8  9  1  0  0  0
  9 10  1  0  0  0
 10 11  1  0  0  0
 11  6  1  0  0  0
  6  1  1  0  0  0
  1  2  1  0  0  0
  1  3  2  0  0  0
  1 12  1  0  0  0
 12 13  1  0  0  0
 13 14  1  0  0  0
 13 17  1  0  0  0
 14 15  1  0  0  0
 15 16  1  0  0  0
 16 17  1  0  0  0
  2  4  1  0  0  0
  2  5  1  0  0  0
M  END
> <minimizedAffinity>
-5.71060

$$$$
2GVV_DI9_A_502


 17 18  0  0  0  0  0  0  0  0999 V2000
   21.6379    3.1766   62.1639 P   0  0  0  0  0  0  0  0  0  0  0  0
   22.8384    2.0912   62.2871 N   0  0  0  0  0  0  0  0  0  0  0  0
   21.8883    4.3961   62.9634 O   0  0  0  0  0  0  0  0  0  0  0  0
   23.7191    2.5256   62.0113 H   0  0  0  0  0  0  0  0  0  0  0  0
   22.6441    1.2984   61.6754 H   0  0  0  0  0  0  0  0  0  0  0  0
   21.4668    3.4842   60.5911 O   0  0  0  0  0  0  0  0  0  0  0  0
   19.6606    4.9535   60.0168 C   0  0  0  0  0  0  0  0  0  0  0  0
   19.3497    4.8935   58.5181 C   0  0  0  0  0  0  0  0  0  0  0  0
   20.5567    4.1401   57.9614 C   0  0  0  0  0  0  0  0  0  0  0  0
   21.6565    4.9241   58.6762 C   0  0  0  0  0  0  0  0  0  0  0  0
   21.1828    4.8081   60.1265 C   0  0  0  0  0  0  0  0  0  0  0  0
   20.2973    2.4072   62.6159 O   0  0  0  0  0  0  0  0  0  0  0  0
   20.0009    2.2365   64.0050 C   0  0  0  0  0  0  0  0  0  0  0  0
   18.5563    2.6665   64.2664 C   0  0  0  0  0  0  0  0  0  0  0  0
   17.8078    1.4620   63.6984 C   0  0  0  0  0  0  0  0  0  0  0  0
   18.5263    0.3605   64.4780 C   0  0  0  0  0  0  0  0  0  0  0  0
   20.0008    0.7313   64.2963 C   0  0  0  0  0  0  0  0  0  0  0  0
  7  8  1  0  0  0
  7 11  1  0  0  0
  8  9  1  0  0  0
  9 10  1  0  0  0
 10 11  1  0  0  0
 11  6  1  0  0  0
  6  1  1  0  0  0
  1  2  1  0  0  0
  1  3  2  0  0  0
  1 12  1  0  0  0
 12 13  1  0  0  0
 13 14  1  0  0  0
 13 17  1  0  0  0
 14 15  1  0  0  0
 15 16  1  0  0  0
 16 17  1  0  0  0
  2  4  1  0  0  0
  2  5  1  0  0  0
M  END
> <minimizedAffinity>
-5.71017

$$$$
2GVV_DI9_A_502


 17 18  0  0  0  0  0  0  0  0999 V2000
   20.4411    4.3979   61.4102 P   0  0  0  0  0  0  0  0  0  0  0  0
   21.5491    5.0060   62.4286 N   0  0  0  0  0  0  0  0  0  0  0  0
   19.2828    5.2995   61.2243 O   0  0  0  0  0  0  0  0  0  0  0  0
   21.8561    5.9185   62.0916 H   0  0  0  0  0  0  0  0  0  0  0  0
   22.3489    4.3748   62.4771 H   0  0  0  0  0  0  0  0  0  0  0  0
   21.2172    4.0849   60.0328 O   0  0  0  0  0  0  0  0  0  0  0  0
   20.0014    3.1608   58.1838 C   0  0  0  0  0  0  0  0  0  0  0  0
   20.9472    2.7012   57.0700 C   0  0  0  0  0  0  0  0  0  0  0  0
   22.2765    3.3283   57.4873 C   0  0  0  0  0  0  0  0  0  0  0  0
   21.7717    4.7391   57.7876 C   0  0  0  0  0  0  0  0  0  0  0  0
   20.6395    4.4263   58.7682 C   0  0  0  0  0  0  0  0  0  0  0  0
   20.0183    2.9680   62.0184 O   0  0  0  0  0  0  0  0  0  0  0  0
   20.0255    2.7590   63.4336 C   0  0  0  0  0  0  0  0  0  0  0  0
   18.5996    2.9013   63.9691 C   0  0  0  0  0  0  0  0  0  0  0  0
   18.0067    1.5672   63.5197 C   0  0  0  0  0  0  0  0  0  0  0  0
   19.0581    0.6366   64.1244 C   0  0  0  0  0  0  0  0  0  0  0  0
   20.3721    1.2864   63.6818 C   0  0  0  0  0  0  0  0  0  0  0  0
  7  8  1  0  0  0
  7 11  1  0  0  0
  8  9  1  0  0  0
  9 10  1  0  0  0
 10 11  1  0  0  0
 11  6  1  0  0  0
  6  1  1  0  0  0
  1  2  1  0  0  0
  1  3  2  0  0  0
  1 12  1  0  0  0
 12 13  1  0  0  0
 13 14  1  0  0  0
 13 17  1  0  0  0
 14 15  1  0  0  0
 15 16  1  0  0  0
 16 17  1  0  0  0
  2  4  1  0  0  0
  2  5  1  0  0  0
M  END
> <minimizedAffinity>
-5.63149

$$$$
