1GI1_BMZ_A_246


 25 27  0  0  0  0  0  0  0  0999 V2000
   29.3497   14.9453   16.8072 C   0  0  0  0  0  0  0  0  0  0  0  0
   28.3412   15.5030   17.6664 C   0  0  0  0  0  0  0  0  0  0  0  0
   27.9730   14.9213   18.8853 C   0  0  0  0  0  0  0  0  0  0  0  0
   28.6235   13.7622   19.2165 C   0  0  0  0  0  0  0  0  0  0  0  0
   29.5807   13.1906   18.4420 C   0  0  0  0  0  0  0  0  0  0  0  0
   29.9774   13.7467   17.2356 C   0  0  0  0  0  0  0  0  0  0  0  0
   28.4788   12.9925   20.2484 N   0  0  0  0  0  0  0  0  0  0  0  0
   30.0581   12.0669   18.9729 N   0  0  0  0  0  0  0  0  0  0  0  0
   29.3174   12.0237   20.0767 C   0  0  0  0  0  0  0  0  0  0  0  0
   27.8607   13.1188   21.0042 H   0  0  0  0  0  0  0  0  0  0  0  0
   29.3818   10.9914   21.0361 C   0  0  0  0  0  0  0  0  0  0  0  0
   29.4357    9.6338   20.6883 C   0  0  0  0  0  0  0  0  0  0  0  0
   29.4728    8.6319   21.6578 C   0  0  0  0  0  0  0  0  0  0  0  0
   29.4469    8.9618   22.9969 C   0  0  0  0  0  0  0  0  0  0  0  0
   29.3996   10.2807   23.3741 C   0  0  0  0  0  0  0  0  0  0  0  0
   29.3646   11.2851   22.4150 C   0  0  0  0  0  0  0  0  0  0  0  0
   29.3229   12.5730   22.8821 O   0  0  0  0  0  0  0  0  0  0  0  0
   29.2981   13.2896   22.2789 H   0  0  0  0  0  0  0  0  0  0  0  0
   29.6655   15.5704   15.5664 C   0  0  0  0  0  0  0  0  0  0  0  0
   28.9564   16.6049   15.1501 N   0  0  0  0  0  0  0  0  0  0  0  0
   30.6562   15.1050   14.8423 N   0  0  0  0  0  0  0  0  0  0  0  0
   28.2151   16.9469   15.7001 H   0  0  0  0  0  0  0  0  0  0  0  0
   29.1696   17.0336   14.2898 H   0  0  0  0  0  0  0  0  0  0  0  0
   31.1787   14.3339   15.1608 H   0  0  0  0  0  0  0  0  0  0  0  0
   30.8768   15.5271   13.9807 H   0  0  0  0  0  0  0  0  0  0  0  0
  1  2  1  0  0  0
  1  6  2  0  0  0
  1 19  1  0  0  0
  2  3  2  0  0  0
  3  4  1  0  0  0
  4  5  2  0  0  0
  4  7  1  0  0  0
  5  6  1  0  0  0
  5  8  1  0  0  0
 19 20  1  0  0  0
 19 21  2  0  0  0
  7  9  1  0  0  0
  8  9  2  0  0  0
  9 11  1  0  0  0
 11 12  2  0  0  0
 11 16  1  0  0  0
 12 13  1  0  0  0
 13 14  2  0  0  0
 14 15  1  0  0  0
 15 16  2  0  0  0
 16 17  1  0  0  0
 20 22  1  0  0  0
 20 23  1  0  0  0
 21 24  1  0  0  0
 21 25  1  0  0  0
  7 10  1  0  0  0
 17 18  1  0  0  0
M  CHG 1  21   1
M  END
> <minimizedAffinity>
-8.55447

$$$$
1GI1_BMZ_A_246


 25 27  0  0  0  0  0  0  0  0999 V2000
   29.1785   14.7818   17.1381 C   0  0  0  0  0  0  0  0  0  0  0  0
   30.0057   13.7599   16.5571 C   0  0  0  0  0  0  0  0  0  0  0  0
   30.3374   12.5765   17.2273 C   0  0  0  0  0  0  0  0  0  0  0  0
   29.8374   12.4466   18.4961 C   0  0  0  0  0  0  0  0  0  0  0  0
   29.0547   13.3806   19.0941 C   0  0  0  0  0  0  0  0  0  0  0  0
   28.6975   14.5575   18.4544 C   0  0  0  0  0  0  0  0  0  0  0  0
   29.9949   11.4931   19.3588 N   0  0  0  0  0  0  0  0  0  0  0  0
   28.7006   13.0300   20.3288 N   0  0  0  0  0  0  0  0  0  0  0  0
   29.3300   11.8607   20.4047 C   0  0  0  0  0  0  0  0  0  0  0  0
   30.5119   10.6634   19.2425 H   0  0  0  0  0  0  0  0  0  0  0  0
   29.3277   11.0307   21.5454 C   0  0  0  0  0  0  0  0  0  0  0  0
   29.2920    9.6309   21.4659 C   0  0  0  0  0  0  0  0  0  0  0  0
   29.2645    8.8343   22.6104 C   0  0  0  0  0  0  0  0  0  0  0  0
   29.2618    9.4171   23.8606 C   0  0  0  0  0  0  0  0  0  0  0  0
   29.3015   10.7841   23.9765 C   0  0  0  0  0  0  0  0  0  0  0  0
   29.3313   11.5850   22.8418 C   0  0  0  0  0  0  0  0  0  0  0  0
   29.3748   12.9388   23.0520 O   0  0  0  0  0  0  0  0  0  0  0  0
   29.3963   13.5258   22.3219 H   0  0  0  0  0  0  0  0  0  0  0  0
   28.8941   15.9764   16.4154 C   0  0  0  0  0  0  0  0  0  0  0  0
   29.6506   16.3213   15.3883 N   0  0  0  0  0  0  0  0  0  0  0  0
   27.8847   16.7296   16.7840 N   0  0  0  0  0  0  0  0  0  0  0  0
   30.4058   15.7499   15.1192 H   0  0  0  0  0  0  0  0  0  0  0  0
   29.4590   17.1498   14.8921 H   0  0  0  0  0  0  0  0  0  0  0  0
   27.3267   16.4643   17.5505 H   0  0  0  0  0  0  0  0  0  0  0  0
   27.6853   17.5599   16.2939 H   0  0  0  0  0  0  0  0  0  0  0  0
  1  2  1  0  0  0
  1  6  2  0  0  0
  1 19  1  0  0  0
  2  3  2  0  0  0
  3  4  1  0  0  0
  4  5  2  0  0  0
  4  7  1  0  0  0
  5  6  1  0  0  0
  5  8  1  0  0  0
 19 20  1  0  0  0
 19 21  2  0  0  0
  7  9  1  0  0  0
  8  9  2  0  0  0
  9 11  1  0  0  0
 11 12  2  0  0  0
 11 16  1  0  0  0
 12 13  1  0  0  0
 13 14  2  0  0  0
 14 15  1  0  0  0
 15 16  2  0  0  0
 16 17  1  0  0  0
 20 22  1  0  0  0
 20 23  1  0  0  0
 21 24  1  0  0  0
 21 25  1  0  0  0
  7 10  1  0  0  0
 17 18  1  0  0  0
M  CHG 1  21   1
M  END
> <minimizedAffinity>
-8.32755

$$$$
1GI1_BMZ_A_246


 25 27  0  0  0  0  0  0  0  0999 V2000
   29.1733   14.7902   17.1369 C   0  0  0  0  0  0  0  0  0  0  0  0
   30.0699   13.8087   16.5902 C   0  0  0  0  0  0  0  0  0  0  0  0
   30.4103   12.6297   17.2638 C   0  0  0  0  0  0  0  0  0  0  0  0
   29.8477   12.4634   18.5016 C   0  0  0  0  0  0  0  0  0  0  0  0
   28.9979   13.3586   19.0667 C   0  0  0  0  0  0  0  0  0  0  0  0
   28.6306   14.5297   18.4221 C   0  0  0  0  0  0  0  0  0  0  0  0
   29.9950   11.5049   19.3606 N   0  0  0  0  0  0  0  0  0  0  0  0
   28.5912   12.9779   20.2760 N   0  0  0  0  0  0  0  0  0  0  0  0
   29.2605   11.8325   20.3727 C   0  0  0  0  0  0  0  0  0  0  0  0
   30.5494   10.6972   19.2631 H   0  0  0  0  0  0  0  0  0  0  0  0
   29.2285   10.9874   21.5018 C   0  0  0  0  0  0  0  0  0  0  0  0
   29.3159   11.4713   22.8153 C   0  0  0  0  0  0  0  0  0  0  0  0
   29.3077   10.6111   23.9131 C   0  0  0  0  0  0  0  0  0  0  0  0
   29.2221    9.2473   23.7245 C   0  0  0  0  0  0  0  0  0  0  0  0
   29.1298    8.7386   22.4531 C   0  0  0  0  0  0  0  0  0  0  0  0
   29.1351    9.5883   21.3541 C   0  0  0  0  0  0  0  0  0  0  0  0
   29.0343    8.9937   20.1233 O   0  0  0  0  0  0  0  0  0  0  0  0
   29.0329    9.5195   19.3477 H   0  0  0  0  0  0  0  0  0  0  0  0
   28.8824   15.9829   16.4136 C   0  0  0  0  0  0  0  0  0  0  0  0
   29.6460   16.3394   15.3957 N   0  0  0  0  0  0  0  0  0  0  0  0
   27.8598   16.7229   16.7724 N   0  0  0  0  0  0  0  0  0  0  0  0
   30.4111   15.7778   15.1338 H   0  0  0  0  0  0  0  0  0  0  0  0
   29.4499   17.1666   14.8992 H   0  0  0  0  0  0  0  0  0  0  0  0
   27.2966   16.4491   17.5321 H   0  0  0  0  0  0  0  0  0  0  0  0
   27.6558   17.5518   16.2820 H   0  0  0  0  0  0  0  0  0  0  0  0
  1  2  1  0  0  0
  1  6  2  0  0  0
  1 19  1  0  0  0
  2  3  2  0  0  0
  3  4  1  0  0  0
  4  5  2  0  0  0
  4  7  1  0  0  0
  5  6  1  0  0  0
  5  8  1  0  0  0
 19 20  1  0  0  0
 19 21  2  0  0  0
  7  9  1  0  0  0
  8  9  2  0  0  0
  9 11  1  0  0  0
 11 12  2  0  0  0
 11 16  1  0  0  0
 12 13  1  0  0  0
 13 14  2  0  0  0
 14 15  1  0  0  0
 15 16  2  0  0  0
 16 17  1  0  0  0
 20 22  1  0  0  0
 20 23  1  0  0  0
 21 24  1  0  0  0
 21 25  1  0  0  0
  7 10  1  0  0  0
 17 18  1  0  0  0
M  CHG 1  21   1
M  END
> <minimizedAffinity>
-7.61793

$$$$
1GI1_BMZ_A_246


 25 27  0  0  0  0  0  0  0  0999 V2000
   29.1786   14.9070   17.1717 C   0  0  0  0  0  0  0  0  0  0  0  0
   28.6352   14.7662   18.4950 C   0  0  0  0  0  0  0  0  0  0  0  0
   28.8863   13.6537   19.3066 C   0  0  0  0  0  0  0  0  0  0  0  0
   29.6782   12.6793   18.7589 C   0  0  0  0  0  0  0  0  0  0  0  0
   30.2146   12.7590   17.5145 C   0  0  0  0  0  0  0  0  0  0  0  0
   29.9960   13.8517   16.6897 C   0  0  0  0  0  0  0  0  0  0  0  0
   30.0548   11.5405   19.2484 N   0  0  0  0  0  0  0  0  0  0  0  0
   30.9401   11.6862   17.2056 N   0  0  0  0  0  0  0  0  0  0  0  0
   30.7780   10.9915   18.3282 C   0  0  0  0  0  0  0  0  0  0  0  0
   29.8364   11.1711   20.1344 H   0  0  0  0  0  0  0  0  0  0  0  0
   31.3227    9.7100   18.5542 C   0  0  0  0  0  0  0  0  0  0  0  0
   30.6644    8.7271   19.3075 C   0  0  0  0  0  0  0  0  0  0  0  0
   31.2375    7.4765   19.5373 C   0  0  0  0  0  0  0  0  0  0  0  0
   32.4853    7.1819   19.0287 C   0  0  0  0  0  0  0  0  0  0  0  0
   33.1566    8.1179   18.2823 C   0  0  0  0  0  0  0  0  0  0  0  0
   32.5922    9.3653   18.0468 C   0  0  0  0  0  0  0  0  0  0  0  0
   33.3309   10.2352   17.2877 O   0  0  0  0  0  0  0  0  0  0  0  0
   32.9981   11.0903   17.0979 H   0  0  0  0  0  0  0  0  0  0  0  0
   28.8686   16.0527   16.3833 C   0  0  0  0  0  0  0  0  0  0  0  0
   29.6251   16.3630   15.3453 N   0  0  0  0  0  0  0  0  0  0  0  0
   27.8353   16.7961   16.7025 N   0  0  0  0  0  0  0  0  0  0  0  0
   30.3982   15.7992   15.1136 H   0  0  0  0  0  0  0  0  0  0  0  0
   29.4157   17.1580   14.8036 H   0  0  0  0  0  0  0  0  0  0  0  0
   27.2774   16.5569   17.4777 H   0  0  0  0  0  0  0  0  0  0  0  0
   27.6180   17.5930   16.1668 H   0  0  0  0  0  0  0  0  0  0  0  0
  1  2  1  0  0  0
  1  6  2  0  0  0
  1 19  1  0  0  0
  2  3  2  0  0  0
  3  4  1  0  0  0
  4  5  2  0  0  0
  4  7  1  0  0  0
  5  6  1  0  0  0
  5  8  1  0  0  0
 19 20  1  0  0  0
 19 21  2  0  0  0
  7  9  1  0  0  0
  8  9  2  0  0  0
  9 11  1  0  0  0
 11 12  2  0  0  0
 11 16  1  0  0  0
 12 13  1  0  0  0
 13 14  2  0  0  0
 14 15  1  0  0  0
 15 16  2  0  0  0
 16 17  1  0  0  0
 20 22  1  0  0  0
 20 23  1  0  0  0
 21 24  1  0  0  0
 21 25  1  0  0  0
  7 10  1  0  0  0
 17 18  1  0  0  0
M  CHG 1  21   1
M  END
> <minimizedAffinity>
-7.09362

$$$$
1GI1_BMZ_A_246


 25 27  0  0  0  0  0  0  0  0999 V2000
   29.1966   10.3637   23.1973 C   0  0  0  0  0  0  0  0  0  0  0  0
   29.3802    9.3553   22.1896 C   0  0  0  0  0  0  0  0  0  0  0  0
   29.4936    9.6530   20.8265 C   0  0  0  0  0  0  0  0  0  0  0  0
   29.4026   10.9787   20.4934 C   0  0  0  0  0  0  0  0  0  0  0  0
   29.2266   11.9711   21.4027 C   0  0  0  0  0  0  0  0  0  0  0  0
   29.1226   11.7122   22.7607 C   0  0  0  0  0  0  0  0  0  0  0  0
   29.4403   11.5490   19.3309 N   0  0  0  0  0  0  0  0  0  0  0  0
   29.1612   13.1734   20.8346 N   0  0  0  0  0  0  0  0  0  0  0  0
   29.2958   12.8127   19.5615 C   0  0  0  0  0  0  0  0  0  0  0  0
   29.5549   11.1121   18.4561 H   0  0  0  0  0  0  0  0  0  0  0  0
   29.2689   13.7118   18.4747 C   0  0  0  0  0  0  0  0  0  0  0  0
   30.1336   13.6011   17.3761 C   0  0  0  0  0  0  0  0  0  0  0  0
   30.1031   14.5193   16.3266 C   0  0  0  0  0  0  0  0  0  0  0  0
   29.2155   15.5748   16.3546 C   0  0  0  0  0  0  0  0  0  0  0  0
   28.3507   15.7114   17.4117 C   0  0  0  0  0  0  0  0  0  0  0  0
   28.3728   14.8003   18.4601 C   0  0  0  0  0  0  0  0  0  0  0  0
   27.4713   15.0116   19.4707 O   0  0  0  0  0  0  0  0  0  0  0  0
   27.4427   14.4274   20.2027 H   0  0  0  0  0  0  0  0  0  0  0  0
   29.0643    9.9974   24.5679 C   0  0  0  0  0  0  0  0  0  0  0  0
   30.1394    9.8924   25.3289 N   0  0  0  0  0  0  0  0  0  0  0  0
   27.8716    9.7588   25.0605 N   0  0  0  0  0  0  0  0  0  0  0  0
   31.0301   10.0734   24.9504 H   0  0  0  0  0  0  0  0  0  0  0  0
   30.0498    9.6331   26.2744 H   0  0  0  0  0  0  0  0  0  0  0  0
   27.0764    9.8397   24.4857 H   0  0  0  0  0  0  0  0  0  0  0  0
   27.7720    9.4989   26.0049 H   0  0  0  0  0  0  0  0  0  0  0  0
  1  2  1  0  0  0
  1  6  2  0  0  0
  1 19  1  0  0  0
  2  3  2  0  0  0
  3  4  1  0  0  0
  4  5  2  0  0  0
  4  7  1  0  0  0
  5  6  1  0  0  0
  5  8  1  0  0  0
 19 20  1  0  0  0
 19 21  2  0  0  0
  7  9  1  0  0  0
  8  9  2  0  0  0
  9 11  1  0  0  0
 11 12  2  0  0  0
 11 16  1  0  0  0
 12 13  1  0  0  0
 13 14  2  0  0  0
 14 15  1  0  0  0
 15 16  2  0  0  0
 16 17  1  0  0  0
 20 22  1  0  0  0
 20 23  1  0  0  0
 21 24  1  0  0  0
 21 25  1  0  0  0
  7 10  1  0  0  0
 17 18  1  0  0  0
M  CHG 1  21   1
M  END
> <minimizedAffinity>
-7.07719

$$$$
1GI1_BMZ_A_246


 25 27  0  0  0  0  0  0  0  0999 V2000
   29.4270    9.3108   21.9449 C   0  0  0  0  0  0  0  0  0  0  0  0
   29.2522   10.3943   22.8732 C   0  0  0  0  0  0  0  0  0  0  0  0
   29.1059   11.7266   22.4694 C   0  0  0  0  0  0  0  0  0  0  0  0
   29.1551   11.9520   21.1191 C   0  0  0  0  0  0  0  0  0  0  0  0
   29.3209   10.9678   20.1990 C   0  0  0  0  0  0  0  0  0  0  0  0
   29.4567    9.6372   20.5640 C   0  0  0  0  0  0  0  0  0  0  0  0
   29.0807   13.0635   20.4578 N   0  0  0  0  0  0  0  0  0  0  0  0
   29.3435   11.4370   18.9533 N   0  0  0  0  0  0  0  0  0  0  0  0
   29.1954   12.7330   19.2133 C   0  0  0  0  0  0  0  0  0  0  0  0
   28.9619   13.9689   20.8255 H   0  0  0  0  0  0  0  0  0  0  0  0
   29.1782   13.7432   18.2288 C   0  0  0  0  0  0  0  0  0  0  0  0
   29.9929   13.7056   17.0878 C   0  0  0  0  0  0  0  0  0  0  0  0
   29.9746   14.7310   16.1426 C   0  0  0  0  0  0  0  0  0  0  0  0
   29.1498   15.8224   16.3197 C   0  0  0  0  0  0  0  0  0  0  0  0
   28.3349   15.8902   17.4221 C   0  0  0  0  0  0  0  0  0  0  0  0
   28.3452   14.8724   18.3674 C   0  0  0  0  0  0  0  0  0  0  0  0
   27.4962   15.0213   19.4330 O   0  0  0  0  0  0  0  0  0  0  0  0
   27.4624   14.3645   20.1005 H   0  0  0  0  0  0  0  0  0  0  0  0
   29.5942    7.9769   22.4171 C   0  0  0  0  0  0  0  0  0  0  0  0
   28.9092    7.5585   23.4669 N   0  0  0  0  0  0  0  0  0  0  0  0
   30.4368    7.1766   21.8074 N   0  0  0  0  0  0  0  0  0  0  0  0
   28.2794    8.1662   23.9178 H   0  0  0  0  0  0  0  0  0  0  0  0
   29.0287    6.6391   23.7980 H   0  0  0  0  0  0  0  0  0  0  0  0
   30.9427    7.4974   21.0260 H   0  0  0  0  0  0  0  0  0  0  0  0
   30.5630    6.2555   22.1312 H   0  0  0  0  0  0  0  0  0  0  0  0
  1  2  1  0  0  0
  1  6  2  0  0  0
  1 19  1  0  0  0
  2  3  2  0  0  0
  3  4  1  0  0  0
  4  5  2  0  0  0
  4  7  1  0  0  0
  5  6  1  0  0  0
  5  8  1  0  0  0
 19 20  1  0  0  0
 19 21  2  0  0  0
  7  9  1  0  0  0
  8  9  2  0  0  0
  9 11  1  0  0  0
 11 12  2  0  0  0
 11 16  1  0  0  0
 12 13  1  0  0  0
 13 14  2  0  0  0
 14 15  1  0  0  0
 15 16  2  0  0  0
 16 17  1  0  0  0
 20 22  1  0  0  0
 20 23  1  0  0  0
 21 24  1  0  0  0
 21 25  1  0  0  0
  7 10  1  0  0  0
 17 18  1  0  0  0
M  CHG 1  21   1
M  END
> <minimizedAffinity>
-6.86755

$$$$
1GI1_BMZ_A_246


 25 27  0  0  0  0  0  0  0  0999 V2000
   32.6942    8.8348   17.3275 C   0  0  0  0  0  0  0  0  0  0  0  0
   31.6848    8.4880   16.3647 C   0  0  0  0  0  0  0  0  0  0  0  0
   30.6572    9.3619   15.9907 C   0  0  0  0  0  0  0  0  0  0  0  0
   30.6526   10.5822   16.6132 C   0  0  0  0  0  0  0  0  0  0  0  0
   31.5784   10.9605   17.5310 C   0  0  0  0  0  0  0  0  0  0  0  0
   32.6156   10.1244   17.9148 C   0  0  0  0  0  0  0  0  0  0  0  0
   29.8246   11.5718   16.4981 N   0  0  0  0  0  0  0  0  0  0  0  0
   31.3573   12.1875   17.9980 N   0  0  0  0  0  0  0  0  0  0  0  0
   30.2566   12.4796   17.3107 C   0  0  0  0  0  0  0  0  0  0  0  0
   29.0331   11.6220   15.9147 H   0  0  0  0  0  0  0  0  0  0  0  0
   29.5416   13.6894   17.4339 C   0  0  0  0  0  0  0  0  0  0  0  0
   28.5962   13.9132   18.4454 C   0  0  0  0  0  0  0  0  0  0  0  0
   27.8843   15.1097   18.5288 C   0  0  0  0  0  0  0  0  0  0  0  0
   28.0927   16.1064   17.5983 C   0  0  0  0  0  0  0  0  0  0  0  0
   29.0141   15.9242   16.5975 C   0  0  0  0  0  0  0  0  0  0  0  0
   29.7291   14.7364   16.5083 C   0  0  0  0  0  0  0  0  0  0  0  0
   30.6311   14.6434   15.4805 O   0  0  0  0  0  0  0  0  0  0  0  0
   31.1404   13.8643   15.3732 H   0  0  0  0  0  0  0  0  0  0  0  0
   33.7026    7.8939   17.6853 C   0  0  0  0  0  0  0  0  0  0  0  0
   33.9105    7.6022   18.9573 N   0  0  0  0  0  0  0  0  0  0  0  0
   34.4235    7.3305   16.7445 N   0  0  0  0  0  0  0  0  0  0  0  0
   33.3646    8.0299   19.6560 H   0  0  0  0  0  0  0  0  0  0  0  0
   34.6113    6.9570   19.2061 H   0  0  0  0  0  0  0  0  0  0  0  0
   34.2613    7.5542   15.7996 H   0  0  0  0  0  0  0  0  0  0  0  0
   35.1266    6.6842   16.9837 H   0  0  0  0  0  0  0  0  0  0  0  0
  1  2  1  0  0  0
  1  6  2  0  0  0
  1 19  1  0  0  0
  2  3  2  0  0  0
  3  4  1  0  0  0
  4  5  2  0  0  0
  4  7  1  0  0  0
  5  6  1  0  0  0
  5  8  1  0  0  0
 19 20  1  0  0  0
 19 21  2  0  0  0
  7  9  1  0  0  0
  8  9  2  0  0  0
  9 11  1  0  0  0
 11 12  2  0  0  0
 11 16  1  0  0  0
 12 13  1  0  0  0
 13 14  2  0  0  0
 14 15  1  0  0  0
 15 16  2  0  0  0
 16 17  1  0  0  0
 20 22  1  0  0  0
 20 23  1  0  0  0
 21 24  1  0  0  0
 21 25  1  0  0  0
  7 10  1  0  0  0
 17 18  1  0  0  0
M  CHG 1  21   1
M  END
> <minimizedAffinity>
-6.84693

$$$$
1GI1_BMZ_A_246


 25 27  0  0  0  0  0  0  0  0999 V2000
   26.6995    9.3132   21.7845 C   0  0  0  0  0  0  0  0  0  0  0  0
   27.7237    9.8761   22.6214 C   0  0  0  0  0  0  0  0  0  0  0  0
   28.4900   10.9855   22.2449 C   0  0  0  0  0  0  0  0  0  0  0  0
   28.2204   11.5075   21.0074 C   0  0  0  0  0  0  0  0  0  0  0  0
   27.2676   11.0143   20.1757 C   0  0  0  0  0  0  0  0  0  0  0  0
   26.4832    9.9251   20.5223 C   0  0  0  0  0  0  0  0  0  0  0  0
   28.7753   12.4977   20.3832 N   0  0  0  0  0  0  0  0  0  0  0  0
   27.1998   11.6857   19.0280 N   0  0  0  0  0  0  0  0  0  0  0  0
   28.1669   12.5727   19.2450 C   0  0  0  0  0  0  0  0  0  0  0  0
   29.5063   13.0721   20.7072 H   0  0  0  0  0  0  0  0  0  0  0  0
   28.5680   13.5535   18.3138 C   0  0  0  0  0  0  0  0  0  0  0  0
   29.3992   13.2680   17.2208 C   0  0  0  0  0  0  0  0  0  0  0  0
   29.8018   14.2623   16.3294 C   0  0  0  0  0  0  0  0  0  0  0  0
   29.3919   15.5663   16.5143 C   0  0  0  0  0  0  0  0  0  0  0  0
   28.5736   15.8814   17.5702 C   0  0  0  0  0  0  0  0  0  0  0  0
   28.1662   14.8969   18.4617 C   0  0  0  0  0  0  0  0  0  0  0  0
   27.3464   15.3007   19.4832 O   0  0  0  0  0  0  0  0  0  0  0  0
   27.0416   14.6779   20.1134 H   0  0  0  0  0  0  0  0  0  0  0  0
   25.9676    8.1681   22.2125 C   0  0  0  0  0  0  0  0  0  0  0  0
   26.5708    7.2246   22.9141 N   0  0  0  0  0  0  0  0  0  0  0  0
   24.6986    8.0575   21.8970 N   0  0  0  0  0  0  0  0  0  0  0  0
   27.5231    7.3164   23.1460 H   0  0  0  0  0  0  0  0  0  0  0  0
   26.0677    6.4298   23.2049 H   0  0  0  0  0  0  0  0  0  0  0  0
   24.2579    8.7656   21.3740 H   0  0  0  0  0  0  0  0  0  0  0  0
   24.1873    7.2664   22.1833 H   0  0  0  0  0  0  0  0  0  0  0  0
  1  2  1  0  0  0
  1  6  2  0  0  0
  1 19  1  0  0  0
  2  3  2  0  0  0
  3  4  1  0  0  0
  4  5  2  0  0  0
  4  7  1  0  0  0
  5  6  1  0  0  0
  5  8  1  0  0  0
 19 20  1  0  0  0
 19 21  2  0  0  0
  7  9  1  0  0  0
  8  9  2  0  0  0
  9 11  1  0  0  0
 11 12  2  0  0  0
 11 16  1  0  0  0
 12 13  1  0  0  0
 13 14  2  0  0  0
 14 15  1  0  0  0
 15 16  2  0  0  0
 16 17  1  0  0  0
 20 22  1  0  0  0
 20 23  1  0  0  0
 21 24  1  0  0  0
 21 25  1  0  0  0
  7 10  1  0  0  0
 17 18  1  0  0  0
M  CHG 1  21   1
M  END
> <minimizedAffinity>
-6.75416

$$$$
1GI1_BMZ_A_246


 25 27  0  0  0  0  0  0  0  0999 V2000
   29.0534   12.0054   18.0153 C   0  0  0  0  0  0  0  0  0  0  0  0
   27.6417   11.7370   17.9839 C   0  0  0  0  0  0  0  0  0  0  0  0
   26.8974   11.4403   19.1318 C   0  0  0  0  0  0  0  0  0  0  0  0
   27.5996   11.4019   20.3074 C   0  0  0  0  0  0  0  0  0  0  0  0
   28.9325   11.6440   20.3943 C   0  0  0  0  0  0  0  0  0  0  0  0
   29.6966   11.9524   19.2793 C   0  0  0  0  0  0  0  0  0  0  0  0
   27.1972   11.1302   21.5084 N   0  0  0  0  0  0  0  0  0  0  0  0
   29.3864   11.5398   21.6415 N   0  0  0  0  0  0  0  0  0  0  0  0
   28.2505   11.2153   22.2529 C   0  0  0  0  0  0  0  0  0  0  0  0
   26.2820   10.9061   21.7939 H   0  0  0  0  0  0  0  0  0  0  0  0
   28.1411   10.9455   23.6332 C   0  0  0  0  0  0  0  0  0  0  0  0
   27.3656    9.8936   24.1422 C   0  0  0  0  0  0  0  0  0  0  0  0
   27.2542    9.6648   25.5135 C   0  0  0  0  0  0  0  0  0  0  0  0
   27.9064   10.4870   26.4087 C   0  0  0  0  0  0  0  0  0  0  0  0
   28.6785   11.5232   25.9461 C   0  0  0  0  0  0  0  0  0  0  0  0
   28.7967   11.7569   24.5818 C   0  0  0  0  0  0  0  0  0  0  0  0
   29.5916   12.8099   24.2102 O   0  0  0  0  0  0  0  0  0  0  0  0
   29.7067   13.0126   23.3027 H   0  0  0  0  0  0  0  0  0  0  0  0
   29.7621   12.2788   16.8098 C   0  0  0  0  0  0  0  0  0  0  0  0
   29.9664   13.5292   16.4342 N   0  0  0  0  0  0  0  0  0  0  0  0
   30.1993   11.2816   16.0771 N   0  0  0  0  0  0  0  0  0  0  0  0
   29.6347   14.2707   16.9905 H   0  0  0  0  0  0  0  0  0  0  0  0
   30.4504   13.7192   15.5982 H   0  0  0  0  0  0  0  0  0  0  0  0
   30.0423   10.3534   16.3651 H   0  0  0  0  0  0  0  0  0  0  0  0
   30.6843   11.4618   15.2395 H   0  0  0  0  0  0  0  0  0  0  0  0
  1  2  1  0  0  0
  1  6  2  0  0  0
  1 19  1  0  0  0
  2  3  2  0  0  0
  3  4  1  0  0  0
  4  5  2  0  0  0
  4  7  1  0  0  0
  5  6  1  0  0  0
  5  8  1  0  0  0
 19 20  1  0  0  0
 19 21  2  0  0  0
  7  9  1  0  0  0
  8  9  2  0  0  0
  9 11  1  0  0  0
 11 12  2  0  0  0
 11 16  1  0  0  0
 12 13  1  0  0  0
 13 14  2  0  0  0
 14 15  1  0  0  0
 15 16  2  0  0  0
 16 17  1  0  0  0
 20 22  1  0  0  0
 20 23  1  0  0  0
 21 24  1  0  0  0
 21 25  1  0  0  0
  7 10  1  0  0  0
 17 18  1  0  0  0
M  CHG 1  21   1
M  END
> <minimizedAffinity>
-6.66423

$$$$
1GI1_BMZ_A_246


 25 27  0  0  0  0  0  0  0  0999 V2000
   29.1646   13.7674   17.3308 C   0  0  0  0  0  0  0  0  0  0  0  0
   29.7469   12.5567   16.8197 C   0  0  0  0  0  0  0  0  0  0  0  0
   29.4048   11.2864   17.2982 C   0  0  0  0  0  0  0  0  0  0  0  0
   28.4810   11.2560   18.3092 C   0  0  0  0  0  0  0  0  0  0  0  0
   27.9021   12.3675   18.8311 C   0  0  0  0  0  0  0  0  0  0  0  0
   28.2091   13.6392   18.3723 C   0  0  0  0  0  0  0  0  0  0  0  0
   27.9967   10.2485   18.9639 N   0  0  0  0  0  0  0  0  0  0  0  0
   27.0435   12.0809   19.8074 N   0  0  0  0  0  0  0  0  0  0  0  0
   27.1739   10.7573   19.8213 C   0  0  0  0  0  0  0  0  0  0  0  0
   28.2103    9.2961   18.8354 H   0  0  0  0  0  0  0  0  0  0  0  0
   26.4944    9.9021   20.7140 C   0  0  0  0  0  0  0  0  0  0  0  0
   25.1951    9.4318   20.4745 C   0  0  0  0  0  0  0  0  0  0  0  0
   24.5363    8.6076   21.3867 C   0  0  0  0  0  0  0  0  0  0  0  0
   25.1559    8.2420   22.5636 C   0  0  0  0  0  0  0  0  0  0  0  0
   26.4296    8.6793   22.8289 C   0  0  0  0  0  0  0  0  0  0  0  0
   27.0938    9.4988   21.9249 C   0  0  0  0  0  0  0  0  0  0  0  0
   28.3634    9.8835   22.2695 O   0  0  0  0  0  0  0  0  0  0  0  0
   28.8572   10.4363   21.6964 H   0  0  0  0  0  0  0  0  0  0  0  0
   29.5702   15.0340   16.8194 C   0  0  0  0  0  0  0  0  0  0  0  0
   30.4062   15.0955   15.7979 N   0  0  0  0  0  0  0  0  0  0  0  0
   29.1141   16.1314   17.3760 N   0  0  0  0  0  0  0  0  0  0  0  0
   30.7430   14.2667   15.3869 H   0  0  0  0  0  0  0  0  0  0  0  0
   30.6922   15.9701   15.4478 H   0  0  0  0  0  0  0  0  0  0  0  0
   28.4916   16.0756   18.1367 H   0  0  0  0  0  0  0  0  0  0  0  0
   29.3944   17.0106   17.0329 H   0  0  0  0  0  0  0  0  0  0  0  0
  1  2  1  0  0  0
  1  6  2  0  0  0
  1 19  1  0  0  0
  2  3  2  0  0  0
  3  4  1  0  0  0
  4  5  2  0  0  0
  4  7  1  0  0  0
  5  6  1  0  0  0
  5  8  1  0  0  0
 19 20  1  0  0  0
 19 21  2  0  0  0
  7  9  1  0  0  0
  8  9  2  0  0  0
  9 11  1  0  0  0
 11 12  2  0  0  0
 11 16  1  0  0  0
 12 13  1  0  0  0
 13 14  2  0  0  0
 14 15  1  0  0  0
 15 16  2  0  0  0
 16 17  1  0  0  0
 20 22  1  0  0  0
 20 23  1  0  0  0
 21 24  1  0  0  0
 21 25  1  0  0  0
  7 10  1  0  0  0
 17 18  1  0  0  0
M  CHG 1  21   1
M  END
> <minimizedAffinity>
-6.52415

$$$$
