1GI1_BMZ_A_246
  RCSB PDB12061702363D
Coordinates from PDB:1GI1:A:246 Model:1 without hydrogens
 19 21  0  0  0  0            999 V2000
   29.4210   15.0020   17.0370   C 0  0  0  0  0  0  0  0  0  0  0  0
   28.8930   15.8180   18.0960   C 0  0  0  0  0  0  0  0  0  0  0  0
   28.5980   15.3160   19.3690   C 0  0  0  0  0  0  0  0  0  0  0  0
   28.8270   13.9780   19.5530   C 0  0  0  0  0  0  0  0  0  0  0  0
   29.3210   13.1610   18.5880   C 0  0  0  0  0  0  0  0  0  0  0  0
   29.6350   13.6280   17.3210   C 0  0  0  0  0  0  0  0  0  0  0  0
   29.6800   15.5650   15.7540   C 0  0  0  0  0  0  0  0  0  0  0  0
   30.4010   14.8940   14.8730   N 0  0  0  0  0  0  0  0  0  0  0  0
   29.2050   16.7530   15.4620   N 0  3  0  0  0  0  0  0  0  0  0  0
   28.6260   13.2350   20.5950   N 0  0  0  0  0  0  0  0  0  0  0  0
   29.4480   11.9030   19.0050   N 0  0  0  0  0  0  0  0  0  0  0  0
   28.9910   12.0450   20.2460   C 0  0  0  0  0  0  0  0  0  0  0  0
   28.8670   10.9880   21.1720   C 0  0  0  0  0  0  0  0  0  0  0  0
   29.4510    9.7290   20.9700   C 0  0  0  0  0  0  0  0  0  0  0  0
   29.2910    8.6930   21.8900   C 0  0  0  0  0  0  0  0  0  0  0  0
   28.5360    8.8870   23.0280   C 0  0  0  0  0  0  0  0  0  0  0  0
   27.9540   10.1080   23.2610   C 0  0  0  0  0  0  0  0  0  0  0  0
   28.1100   11.1460   22.3510   C 0  0  0  0  0  0  0  0  0  0  0  0
   27.4980   12.3310   22.6670   O 0  0  0  0  0  0  0  0  0  0  0  0
  1  2  1  0  0  0  0
  1  6  2  0  0  0  0
  1  7  1  0  0  0  0
  2  3  2  0  0  0  0
  3  4  1  0  0  0  0
  4  5  2  0  0  0  0
  4 10  1  0  0  0  0
  5  6  1  0  0  0  0
  5 11  1  0  0  0  0
  7  8  1  0  0  0  0
  7  9  2  0  0  0  0
 10 12  1  0  0  0  0
 11 12  2  0  0  0  0
 12 13  1  0  0  0  0
 13 14  2  0  0  0  0
 13 18  1  0  0  0  0
 14 15  1  0  0  0  0
 15 16  2  0  0  0  0
 16 17  1  0  0  0  0
 17 18  2  0  0  0  0
 18 19  1  0  0  0  0
M  CHG  1   9   1
A    1
C1
A    2
C2
A    3
C3
A    4
C4
A    5
C5
A    6
C6
A    7
C7
A    8
N1
A    9
N2
A   10
N3
A   11
N4
A   12
C8
A   13
C1'
A   14
C2'
A   15
C3'
A   16
C4'
A   17
C5'
A   18
C6'
A   19
O6'
M  END
>  <InstanceId>
1GI1_BMZ_A_246

>  <ChemCompId>
BMZ

>  <PdbId>
1GI1

>  <ChainId>
A

>  <ResidueNumber>
246

>  <InsertionCode>


>  <Model>
1

>  <AltIds>


>  <MissingHeavyAtoms>
0

>  <ObservedFormula>
C14 N4 O

>  <Name>
2-(2-HYDROXY-PHENYL)-1H-BENZOIMIDAZOLE-5-CARBOXAMIDINE

>  <SystematicName>
[amino-[2-(2-hydroxyphenyl)-1H-benzimidazol-5-yl]methylidene]azanium

>  <Synonyms>


>  <Type>
NON-POLYMER

>  <Formula>
C14 H13 N4 O

>  <MolecularWeight>
253.279

>  <ModifiedDate>
2011-06-04

>  <Parent>


>  <OneLetterCode>


>  <SubcomponentList>


>  <AmbiguousFlag>
N

>  <InChI>
InChI=1S/C14H12N4O/c15-13(16)8-5-6-10-11(7-8)18-14(17-10)9-3-1-2-4-12(9)19/h1-7,19H,(H3,15,16)(H,17,18)/p+1

>  <InChIKey>
URJKRCBBKTXOHS-UHFFFAOYSA-O

>  <SMILES>
c1ccc(c(c1)c2[nH]c3ccc(cc3n2)C(=[NH2+])N)O

$$$$
