1A4R_GNH_B_400


 37 39  0  0  0  0  0  0  0  0999 V2000
  105.5918   29.6333   -2.1749 C   0  0  0  0  0  0  0  0  0  0  0  0
  105.1462   30.9212   -2.5841 O   0  0  0  0  0  0  0  0  0  0  0  0
  106.3240   29.8998   -0.8625 C   0  0  0  0  0  0  0  0  0  0  0  0
  107.7286   29.8802   -1.0517 O   0  0  0  0  0  0  0  0  0  0  0  0
  105.8189   31.2309   -0.3453 C   0  0  0  0  0  0  0  0  0  0  0  0
  106.6323   31.9101    0.6118 O   0  0  0  0  0  0  0  0  0  0  0  0
  105.5244   31.9735   -1.6558 C   0  0  0  0  0  0  0  0  0  0  0  0
  107.9769   30.5565   -1.7012 H   0  0  0  0  0  0  0  0  0  0  0  0
  107.4991   32.1023    0.2211 H   0  0  0  0  0  0  0  0  0  0  0  0
  104.3265   32.8902   -1.7046 N   0  0  0  0  0  0  0  0  0  0  0  0
  102.9816   32.5708   -1.6132 C   0  0  0  0  0  0  0  0  0  0  0  0
  102.1316   33.5710   -1.6862 N   0  0  0  0  0  0  0  0  0  0  0  0
  102.9580   34.6948   -1.8483 C   0  0  0  0  0  0  0  0  0  0  0  0
  102.6309   36.1359   -1.9964 C   0  0  0  0  0  0  0  0  0  0  0  0
  101.5079   36.6464   -2.0106 O   0  0  0  0  0  0  0  0  0  0  0  0
  103.7853   36.9954   -2.1442 N   0  0  0  0  0  0  0  0  0  0  0  0
  105.1454   36.5516   -2.1461 C   0  0  0  0  0  0  0  0  0  0  0  0
  106.1158   37.4696   -2.2883 N   0  0  0  0  0  0  0  0  0  0  0  0
  105.4798   35.2027   -2.0079 N   0  0  0  0  0  0  0  0  0  0  0  0
  104.3299   34.3112   -1.8596 C   0  0  0  0  0  0  0  0  0  0  0  0
  103.6222   37.9604   -2.2517 H   0  0  0  0  0  0  0  0  0  0  0  0
  105.8829   38.4211   -2.3859 H   0  0  0  0  0  0  0  0  0  0  0  0
  107.0600   37.1907   -2.2948 H   0  0  0  0  0  0  0  0  0  0  0  0
  104.3434   28.6917   -2.1156 C   0  0  0  0  0  0  0  0  0  0  0  0
  103.9971   28.2956   -0.7666 O   0  0  0  0  0  0  0  0  0  0  0  0
  102.6659   27.5282   -0.3902 P   0  0  0  0  0  0  0  0  0  0  0  0
  102.9023   26.4637    0.6068 O   0  0  0  0  0  0  0  0  0  0  0  0
  101.5546   28.4874   -0.1393 O   0  0  0  0  0  0  0  0  0  0  0  0
  100.7496   27.9970    0.0894 H   0  0  0  0  0  0  0  0  0  0  0  0
  102.4765   26.8321   -1.8417 O   0  0  0  0  0  0  0  0  0  0  0  0
  100.2925   25.9049   -1.4321 N   0  0  0  0  0  0  0  0  0  0  0  0
  101.3367   25.9603   -2.4806 P   0  0  0  0  0  0  0  0  0  0  0  0
  100.8339   26.7752   -3.6496 O   0  0  0  0  0  0  0  0  0  0  0  0
  101.8917   24.6946   -3.0373 O   0  0  0  0  0  0  0  0  0  0  0  0
   99.5040   25.3509   -1.7664 H   0  0  0  0  0  0  0  0  0  0  0  0
   99.9765   26.8505   -1.2166 H   0  0  0  0  0  0  0  0  0  0  0  0
  101.1743   24.1707   -3.4267 H   0  0  0  0  0  0  0  0  0  0  0  0
 31 32  1  0  0  0
 32 33  2  0  0  0
 32 34  1  0  0  0
 32 30  1  0  0  0
 30 26  1  0  0  0
 26 27  2  0  0  0
 26 28  1  0  0  0
 26 25  1  0  0  0
 25 24  1  0  0  0
 24  1  1  0  0  0
  1  2  1  0  0  0
  1  3  1  0  0  0
  2  7  1  0  0  0
  3  4  1  0  0  0
  3  5  1  0  0  0
  5  6  1  0  0  0
  5  7  1  0  0  0
  7 10  1  0  0  0
 10 11  1  0  0  0
 10 20  1  0  0  0
 11 12  2  0  0  0
 12 13  1  0  0  0
 13 14  1  0  0  0
 13 20  2  0  0  0
 14 15  2  0  0  0
 14 16  1  0  0  0
 16 17  1  0  0  0
 17 18  1  0  0  0
 17 19  2  0  0  0
 19 20  1  0  0  0
 31 35  1  0  0  0
 31 36  1  0  0  0
 34 37  1  0  0  0
 28 29  1  0  0  0
  4  8  1  0  0  0
  6  9  1  0  0  0
 16 21  1  0  0  0
 18 22  1  0  0  0
 18 23  1  0  0  0
M  END
> <minimizedAffinity>
-9.81661

$$$$
1A4R_GNH_B_400


 37 39  0  0  0  0  0  0  0  0999 V2000
  103.5081   27.9555   -0.2365 C   0  0  0  0  0  0  0  0  0  0  0  0
  104.7902   27.4605    0.1321 O   0  0  0  0  0  0  0  0  0  0  0  0
  103.7533   28.6434   -1.5767 C   0  0  0  0  0  0  0  0  0  0  0  0
  103.8052   30.0516   -1.4226 O   0  0  0  0  0  0  0  0  0  0  0  0
  105.0377   28.0652   -2.1337 C   0  0  0  0  0  0  0  0  0  0  0  0
  105.7132   28.8235   -3.1376 O   0  0  0  0  0  0  0  0  0  0  0  0
  105.8195   27.7675   -0.8469 C   0  0  0  0  0  0  0  0  0  0  0  0
  104.5182   30.2834   -0.8071 H   0  0  0  0  0  0  0  0  0  0  0  0
  105.9604   29.6894   -2.7770 H   0  0  0  0  0  0  0  0  0  0  0  0
  106.6822   26.5300   -0.8044 N   0  0  0  0  0  0  0  0  0  0  0  0
  108.0510   26.4291   -0.6165 C   0  0  0  0  0  0  0  0  0  0  0  0
  108.5595   25.2168   -0.6232 N   0  0  0  0  0  0  0  0  0  0  0  0
  107.4436   24.3925   -0.8407 C   0  0  0  0  0  0  0  0  0  0  0  0
  107.3264   22.9167   -0.9587 C   0  0  0  0  0  0  0  0  0  0  0  0
  108.2391   22.0897   -0.8888 O   0  0  0  0  0  0  0  0  0  0  0  0
  105.9781   22.4438   -1.1869 N   0  0  0  0  0  0  0  0  0  0  0  0
  104.8209   23.2786   -1.2898 C   0  0  0  0  0  0  0  0  0  0  0  0
  103.6294   22.6945   -1.4987 N   0  0  0  0  0  0  0  0  0  0  0  0
  104.9039   24.6686   -1.1818 N   0  0  0  0  0  0  0  0  0  0  0  0
  106.2575   25.1733   -0.9536 C   0  0  0  0  0  0  0  0  0  0  0  0
  105.8470   21.4724   -1.2783 H   0  0  0  0  0  0  0  0  0  0  0  0
  103.5680   21.7149   -1.5752 H   0  0  0  0  0  0  0  0  0  0  0  0
  102.8175   23.2461   -1.5753 H   0  0  0  0  0  0  0  0  0  0  0  0
  102.5092   26.7510   -0.2264 C   0  0  0  0  0  0  0  0  0  0  0  0
  101.4327   26.9007   -1.1832 O   0  0  0  0  0  0  0  0  0  0  0  0
  101.2653   25.9919   -2.4672 P   0  0  0  0  0  0  0  0  0  0  0  0
  100.7162   26.7462   -3.6129 O   0  0  0  0  0  0  0  0  0  0  0  0
  102.4833   25.1651   -2.6932 O   0  0  0  0  0  0  0  0  0  0  0  0
  102.3597   24.6166   -3.4837 H   0  0  0  0  0  0  0  0  0  0  0  0
  100.0816   25.0730   -1.8495 O   0  0  0  0  0  0  0  0  0  0  0  0
  100.4485   22.7947   -2.5367 N   0  0  0  0  0  0  0  0  0  0  0  0
  100.0163   23.5821   -1.3594 P   0  0  0  0  0  0  0  0  0  0  0  0
  101.0644   23.4837   -0.2753 O   0  0  0  0  0  0  0  0  0  0  0  0
   98.7006   23.2949   -0.7218 O   0  0  0  0  0  0  0  0  0  0  0  0
  100.4357   21.8015   -2.3048 H   0  0  0  0  0  0  0  0  0  0  0  0
  101.3943   23.0700   -2.8012 H   0  0  0  0  0  0  0  0  0  0  0  0
   98.6793   22.3714   -0.4261 H   0  0  0  0  0  0  0  0  0  0  0  0
 31 32  1  0  0  0
 32 33  2  0  0  0
 32 34  1  0  0  0
 32 30  1  0  0  0
 30 26  1  0  0  0
 26 27  2  0  0  0
 26 28  1  0  0  0
 26 25  1  0  0  0
 25 24  1  0  0  0
 24  1  1  0  0  0
  1  2  1  0  0  0
  1  3  1  0  0  0
  2  7  1  0  0  0
  3  4  1  0  0  0
  3  5  1  0  0  0
  5  6  1  0  0  0
  5  7  1  0  0  0
  7 10  1  0  0  0
 10 11  1  0  0  0
 10 20  1  0  0  0
 11 12  2  0  0  0
 12 13  1  0  0  0
 13 14  1  0  0  0
 13 20  2  0  0  0
 14 15  2  0  0  0
 14 16  1  0  0  0
 16 17  1  0  0  0
 17 18  1  0  0  0
 17 19  2  0  0  0
 19 20  1  0  0  0
 31 35  1  0  0  0
 31 36  1  0  0  0
 34 37  1  0  0  0
 28 29  1  0  0  0
  4  8  1  0  0  0
  6  9  1  0  0  0
 16 21  1  0  0  0
 18 22  1  0  0  0
 18 23  1  0  0  0
M  END
> <minimizedAffinity>
-8.52441

$$$$
1A4R_GNH_B_400


 37 39  0  0  0  0  0  0  0  0999 V2000
  105.4689   29.5637   -1.2132 C   0  0  0  0  0  0  0  0  0  0  0  0
  104.9127   30.6559   -1.9361 O   0  0  0  0  0  0  0  0  0  0  0  0
  106.4915   30.2198   -0.2893 C   0  0  0  0  0  0  0  0  0  0  0  0
  107.8088   30.0401   -0.7808 O   0  0  0  0  0  0  0  0  0  0  0  0
  106.1007   31.6787   -0.1745 C   0  0  0  0  0  0  0  0  0  0  0  0
  107.1081   32.5915    0.2626 O   0  0  0  0  0  0  0  0  0  0  0  0
  105.4837   31.9371   -1.5558 C   0  0  0  0  0  0  0  0  0  0  0  0
  107.8794   30.4295   -1.6664 H   0  0  0  0  0  0  0  0  0  0  0  0
  107.8508   32.5763   -0.3612 H   0  0  0  0  0  0  0  0  0  0  0  0
  104.2920   32.8588   -1.6456 N   0  0  0  0  0  0  0  0  0  0  0  0
  102.9436   32.5469   -1.5840 C   0  0  0  0  0  0  0  0  0  0  0  0
  102.1007   33.5501   -1.6903 N   0  0  0  0  0  0  0  0  0  0  0  0
  102.9365   34.6679   -1.8454 C   0  0  0  0  0  0  0  0  0  0  0  0
  102.6204   36.1085   -2.0191 C   0  0  0  0  0  0  0  0  0  0  0  0
  101.5007   36.6241   -2.0675 O   0  0  0  0  0  0  0  0  0  0  0  0
  103.7825   36.9608   -2.1485 N   0  0  0  0  0  0  0  0  0  0  0  0
  105.1399   36.5106   -2.1111 C   0  0  0  0  0  0  0  0  0  0  0  0
  106.1182   37.4221   -2.2401 N   0  0  0  0  0  0  0  0  0  0  0  0
  105.4641   35.1619   -1.9482 N   0  0  0  0  0  0  0  0  0  0  0  0
  104.3064   34.2777   -1.8178 C   0  0  0  0  0  0  0  0  0  0  0  0
  103.6270   37.9251   -2.2718 H   0  0  0  0  0  0  0  0  0  0  0  0
  105.8925   38.3735   -2.3551 H   0  0  0  0  0  0  0  0  0  0  0  0
  107.0608   37.1388   -2.2198 H   0  0  0  0  0  0  0  0  0  0  0  0
  104.2905   28.7889   -0.5354 C   0  0  0  0  0  0  0  0  0  0  0  0
  103.7514   27.7358   -1.3703 O   0  0  0  0  0  0  0  0  0  0  0  0
  102.2396   27.2715   -1.3327 P   0  0  0  0  0  0  0  0  0  0  0  0
  101.4184   28.1264   -0.4508 O   0  0  0  0  0  0  0  0  0  0  0  0
  101.7359   26.9964   -2.7071 O   0  0  0  0  0  0  0  0  0  0  0  0
  100.8091   26.7137   -2.6612 H   0  0  0  0  0  0  0  0  0  0  0  0
  102.5287   25.8754   -0.5616 O   0  0  0  0  0  0  0  0  0  0  0  0
  103.1227   23.7637   -1.5542 N   0  0  0  0  0  0  0  0  0  0  0  0
  102.0344   24.4002   -0.7774 P   0  0  0  0  0  0  0  0  0  0  0  0
  101.9872   23.8000    0.6085 O   0  0  0  0  0  0  0  0  0  0  0  0
  100.6420   24.3840   -1.3077 O   0  0  0  0  0  0  0  0  0  0  0  0
  102.8823   22.7903   -1.7416 H   0  0  0  0  0  0  0  0  0  0  0  0
  103.9901   23.8027   -1.0189 H   0  0  0  0  0  0  0  0  0  0  0  0
  100.3549   23.4662   -1.4343 H   0  0  0  0  0  0  0  0  0  0  0  0
 31 32  1  0  0  0
 32 33  2  0  0  0
 32 34  1  0  0  0
 32 30  1  0  0  0
 30 26  1  0  0  0
 26 27  2  0  0  0
 26 28  1  0  0  0
 26 25  1  0  0  0
 25 24  1  0  0  0
 24  1  1  0  0  0
  1  2  1  0  0  0
  1  3  1  0  0  0
  2  7  1  0  0  0
  3  4  1  0  0  0
  3  5  1  0  0  0
  5  6  1  0  0  0
  5  7  1  0  0  0
  7 10  1  0  0  0
 10 11  1  0  0  0
 10 20  1  0  0  0
 11 12  2  0  0  0
 12 13  1  0  0  0
 13 14  1  0  0  0
 13 20  2  0  0  0
 14 15  2  0  0  0
 14 16  1  0  0  0
 16 17  1  0  0  0
 17 18  1  0  0  0
 17 19  2  0  0  0
 19 20  1  0  0  0
 31 35  1  0  0  0
 31 36  1  0  0  0
 34 37  1  0  0  0
 28 29  1  0  0  0
  4  8  1  0  0  0
  6  9  1  0  0  0
 16 21  1  0  0  0
 18 22  1  0  0  0
 18 23  1  0  0  0
M  END
> <minimizedAffinity>
-8.49787

$$$$
1A4R_GNH_B_400


 37 39  0  0  0  0  0  0  0  0999 V2000
  102.6824   25.6431    0.0226 C   0  0  0  0  0  0  0  0  0  0  0  0
  103.5075   26.4249    0.8787 O   0  0  0  0  0  0  0  0  0  0  0  0
  102.5098   26.5173   -1.2167 C   0  0  0  0  0  0  0  0  0  0  0  0
  101.2358   27.1386   -1.2263 O   0  0  0  0  0  0  0  0  0  0  0  0
  103.6501   27.5142   -1.2078 C   0  0  0  0  0  0  0  0  0  0  0  0
  103.4887   28.6971   -1.9913 O   0  0  0  0  0  0  0  0  0  0  0  0
  103.8738   27.7059    0.2984 C   0  0  0  0  0  0  0  0  0  0  0  0
  101.1366   27.6852   -0.4311 H   0  0  0  0  0  0  0  0  0  0  0  0
  102.7169   29.1919   -1.6745 H   0  0  0  0  0  0  0  0  0  0  0  0
  105.2874   27.8902    0.7937 N   0  0  0  0  0  0  0  0  0  0  0  0
  106.0774   27.0124    1.5179 C   0  0  0  0  0  0  0  0  0  0  0  0
  107.2871   27.4245    1.8262 N   0  0  0  0  0  0  0  0  0  0  0  0
  107.3482   28.7126    1.2700 C   0  0  0  0  0  0  0  0  0  0  0  0
  108.4363   29.7233    1.2615 C   0  0  0  0  0  0  0  0  0  0  0  0
  109.5534   29.6184    1.7744 O   0  0  0  0  0  0  0  0  0  0  0  0
  108.1024   30.9505    0.5717 N   0  0  0  0  0  0  0  0  0  0  0  0
  106.8525   31.2179   -0.0711 C   0  0  0  0  0  0  0  0  0  0  0  0
  106.6883   32.4050   -0.6780 N   0  0  0  0  0  0  0  0  0  0  0  0
  105.8137   30.2844   -0.0781 N   0  0  0  0  0  0  0  0  0  0  0  0
  106.1246   29.0350    0.6156 C   0  0  0  0  0  0  0  0  0  0  0  0
  108.7883   31.6561    0.5423 H   0  0  0  0  0  0  0  0  0  0  0  0
  107.4189   33.0649   -0.6746 H   0  0  0  0  0  0  0  0  0  0  0  0
  105.8373   32.6152   -1.1262 H   0  0  0  0  0  0  0  0  0  0  0  0
  103.3779   24.2556   -0.1758 C   0  0  0  0  0  0  0  0  0  0  0  0
  103.0242   23.2939    0.8473 O   0  0  0  0  0  0  0  0  0  0  0  0
  101.6534   22.5047    0.8757 P   0  0  0  0  0  0  0  0  0  0  0  0
  101.8563   21.0419    0.9210 O   0  0  0  0  0  0  0  0  0  0  0  0
  100.7134   23.1114    1.8588 O   0  0  0  0  0  0  0  0  0  0  0  0
   99.8811   22.6133    1.8601 H   0  0  0  0  0  0  0  0  0  0  0  0
  101.2136   22.9104   -0.6307 O   0  0  0  0  0  0  0  0  0  0  0  0
   98.8355   22.7482   -0.2901 N   0  0  0  0  0  0  0  0  0  0  0  0
   99.8227   23.1146   -1.3314 P   0  0  0  0  0  0  0  0  0  0  0  0
   99.7397   24.5985   -1.6042 O   0  0  0  0  0  0  0  0  0  0  0  0
   99.7926   22.4256   -2.6522 O   0  0  0  0  0  0  0  0  0  0  0  0
   97.8923   22.8530   -0.6639 H   0  0  0  0  0  0  0  0  0  0  0  0
   98.9509   23.3598    0.5180 H   0  0  0  0  0  0  0  0  0  0  0  0
   98.9275   22.5628   -3.0688 H   0  0  0  0  0  0  0  0  0  0  0  0
 31 32  1  0  0  0
 32 33  2  0  0  0
 32 34  1  0  0  0
 32 30  1  0  0  0
 30 26  1  0  0  0
 26 27  2  0  0  0
 26 28  1  0  0  0
 26 25  1  0  0  0
 25 24  1  0  0  0
 24  1  1  0  0  0
  1  2  1  0  0  0
  1  3  1  0  0  0
  2  7  1  0  0  0
  3  4  1  0  0  0
  3  5  1  0  0  0
  5  6  1  0  0  0
  5  7  1  0  0  0
  7 10  1  0  0  0
 10 11  1  0  0  0
 10 20  1  0  0  0
 11 12  2  0  0  0
 12 13  1  0  0  0
 13 14  1  0  0  0
 13 20  2  0  0  0
 14 15  2  0  0  0
 14 16  1  0  0  0
 16 17  1  0  0  0
 17 18  1  0  0  0
 17 19  2  0  0  0
 19 20  1  0  0  0
 31 35  1  0  0  0
 31 36  1  0  0  0
 34 37  1  0  0  0
 28 29  1  0  0  0
  4  8  1  0  0  0
  6  9  1  0  0  0
 16 21  1  0  0  0
 18 22  1  0  0  0
 18 23  1  0  0  0
M  END
> <minimizedAffinity>
-8.21799

$$$$
1A4R_GNH_B_400


 37 39  0  0  0  0  0  0  0  0999 V2000
  103.3422   28.3907   -0.8021 C   0  0  0  0  0  0  0  0  0  0  0  0
  104.3018   28.6343    0.2200 O   0  0  0  0  0  0  0  0  0  0  0  0
  104.1765   28.3257   -2.0786 C   0  0  0  0  0  0  0  0  0  0  0  0
  104.0637   29.5281   -2.8206 O   0  0  0  0  0  0  0  0  0  0  0  0
  105.5995   28.0285   -1.6533 C   0  0  0  0  0  0  0  0  0  0  0  0
  106.6371   28.3402   -2.5836 O   0  0  0  0  0  0  0  0  0  0  0  0
  105.6603   28.7268   -0.2879 C   0  0  0  0  0  0  0  0  0  0  0  0
  104.3653   30.2729   -2.2772 H   0  0  0  0  0  0  0  0  0  0  0  0
  106.6235   29.2907   -2.7765 H   0  0  0  0  0  0  0  0  0  0  0  0
  106.4599   28.0750    0.8136 N   0  0  0  0  0  0  0  0  0  0  0  0
  106.2859   26.8300    1.3959 C   0  0  0  0  0  0  0  0  0  0  0  0
  107.1309   26.5007    2.3476 N   0  0  0  0  0  0  0  0  0  0  0  0
  107.9719   27.6213    2.4440 C   0  0  0  0  0  0  0  0  0  0  0  0
  109.1334   27.8991    3.3267 C   0  0  0  0  0  0  0  0  0  0  0  0
  109.6025   27.1582    4.1945 O   0  0  0  0  0  0  0  0  0  0  0  0
  109.7448   29.1932    3.1153 N   0  0  0  0  0  0  0  0  0  0  0  0
  109.3152   30.1570    2.1491 C   0  0  0  0  0  0  0  0  0  0  0  0
  109.9861   31.3177    2.0639 N   0  0  0  0  0  0  0  0  0  0  0  0
  108.2267   29.9202    1.3067 N   0  0  0  0  0  0  0  0  0  0  0  0
  107.5883   28.6189    1.5021 C   0  0  0  0  0  0  0  0  0  0  0  0
  110.5160   29.4289    3.6800 H   0  0  0  0  0  0  0  0  0  0  0  0
  110.7538   31.4872    2.6565 H   0  0  0  0  0  0  0  0  0  0  0  0
  109.7101   31.9988    1.4088 H   0  0  0  0  0  0  0  0  0  0  0  0
  102.5404   27.1058   -0.4091 C   0  0  0  0  0  0  0  0  0  0  0  0
  101.3372   26.9273   -1.1947 O   0  0  0  0  0  0  0  0  0  0  0  0
  101.2333   25.9485   -2.4331 P   0  0  0  0  0  0  0  0  0  0  0  0
  100.7085   26.6287   -3.6353 O   0  0  0  0  0  0  0  0  0  0  0  0
  102.4752   25.1386   -2.5737 O   0  0  0  0  0  0  0  0  0  0  0  0
  102.3905   24.5466   -3.3374 H   0  0  0  0  0  0  0  0  0  0  0  0
  100.0483   25.0369   -1.8070 O   0  0  0  0  0  0  0  0  0  0  0  0
  100.1818   22.7707   -2.6095 N   0  0  0  0  0  0  0  0  0  0  0  0
   99.9644   23.5337   -1.3591 P   0  0  0  0  0  0  0  0  0  0  0  0
  101.1455   23.3370   -0.4373 O   0  0  0  0  0  0  0  0  0  0  0  0
   98.7356   23.2930   -0.5516 O   0  0  0  0  0  0  0  0  0  0  0  0
  100.1432   21.7714   -2.4090 H   0  0  0  0  0  0  0  0  0  0  0  0
  101.0962   23.0049   -2.9961 H   0  0  0  0  0  0  0  0  0  0  0  0
   98.7015   22.3611   -0.2847 H   0  0  0  0  0  0  0  0  0  0  0  0
 31 32  1  0  0  0
 32 33  2  0  0  0
 32 34  1  0  0  0
 32 30  1  0  0  0
 30 26  1  0  0  0
 26 27  2  0  0  0
 26 28  1  0  0  0
 26 25  1  0  0  0
 25 24  1  0  0  0
 24  1  1  0  0  0
  1  2  1  0  0  0
  1  3  1  0  0  0
  2  7  1  0  0  0
  3  4  1  0  0  0
  3  5  1  0  0  0
  5  6  1  0  0  0
  5  7  1  0  0  0
  7 10  1  0  0  0
 10 11  1  0  0  0
 10 20  1  0  0  0
 11 12  2  0  0  0
 12 13  1  0  0  0
 13 14  1  0  0  0
 13 20  2  0  0  0
 14 15  2  0  0  0
 14 16  1  0  0  0
 16 17  1  0  0  0
 17 18  1  0  0  0
 17 19  2  0  0  0
 19 20  1  0  0  0
 31 35  1  0  0  0
 31 36  1  0  0  0
 34 37  1  0  0  0
 28 29  1  0  0  0
  4  8  1  0  0  0
  6  9  1  0  0  0
 16 21  1  0  0  0
 18 22  1  0  0  0
 18 23  1  0  0  0
M  END
> <minimizedAffinity>
-8.17210

$$$$
1A4R_GNH_B_400


 37 39  0  0  0  0  0  0  0  0999 V2000
  103.9095   24.3260   -0.7039 C   0  0  0  0  0  0  0  0  0  0  0  0
  105.1087   24.8723   -0.1671 O   0  0  0  0  0  0  0  0  0  0  0  0
  102.8832   24.5361    0.4062 C   0  0  0  0  0  0  0  0  0  0  0  0
  102.6405   23.3289    1.1084 O   0  0  0  0  0  0  0  0  0  0  0  0
  103.4246   25.6355    1.2964 C   0  0  0  0  0  0  0  0  0  0  0  0
  102.8923   25.7260    2.6184 O   0  0  0  0  0  0  0  0  0  0  0  0
  104.9375   25.4086    1.1727 C   0  0  0  0  0  0  0  0  0  0  0  0
  103.4701   23.0070    1.4944 H   0  0  0  0  0  0  0  0  0  0  0  0
  103.0718   24.9013    3.0964 H   0  0  0  0  0  0  0  0  0  0  0  0
  105.8424   26.6163    1.1530 N   0  0  0  0  0  0  0  0  0  0  0  0
  106.9240   26.9070    1.9683 C   0  0  0  0  0  0  0  0  0  0  0  0
  107.5489   28.0404    1.7375 N   0  0  0  0  0  0  0  0  0  0  0  0
  106.8355   28.5973    0.6637 C   0  0  0  0  0  0  0  0  0  0  0  0
  107.0210   29.8706   -0.0778 C   0  0  0  0  0  0  0  0  0  0  0  0
  107.8823   30.7305    0.1239 O   0  0  0  0  0  0  0  0  0  0  0  0
  106.0603   30.0867   -1.1378 N   0  0  0  0  0  0  0  0  0  0  0  0
  105.0085   29.1832   -1.4903 C   0  0  0  0  0  0  0  0  0  0  0  0
  104.1934   29.5173   -2.5045 N   0  0  0  0  0  0  0  0  0  0  0  0
  104.8130   27.9794   -0.8096 N   0  0  0  0  0  0  0  0  0  0  0  0
  105.7700   27.7378    0.2697 C   0  0  0  0  0  0  0  0  0  0  0  0
  106.1362   30.9199   -1.6567 H   0  0  0  0  0  0  0  0  0  0  0  0
  104.3290   30.3653   -2.9860 H   0  0  0  0  0  0  0  0  0  0  0  0
  103.4605   28.9143   -2.7662 H   0  0  0  0  0  0  0  0  0  0  0  0
  103.6328   25.0320   -2.0726 C   0  0  0  0  0  0  0  0  0  0  0  0
  102.5899   26.0333   -1.9922 O   0  0  0  0  0  0  0  0  0  0  0  0
  101.1032   25.7949   -2.4774 P   0  0  0  0  0  0  0  0  0  0  0  0
  100.1304   25.9354   -1.3742 O   0  0  0  0  0  0  0  0  0  0  0  0
  100.8353   26.5305   -3.7444 O   0  0  0  0  0  0  0  0  0  0  0  0
   99.9202   26.3709   -4.0236 H   0  0  0  0  0  0  0  0  0  0  0  0
  101.2960   24.2155   -2.7868 O   0  0  0  0  0  0  0  0  0  0  0  0
  100.3448   22.2035   -3.7057 N   0  0  0  0  0  0  0  0  0  0  0  0
  100.4629   22.9345   -2.4233 P   0  0  0  0  0  0  0  0  0  0  0  0
  101.3453   22.1532   -1.4776 O   0  0  0  0  0  0  0  0  0  0  0  0
   99.2327   23.3036   -1.6680 O   0  0  0  0  0  0  0  0  0  0  0  0
   99.8111   21.3465   -3.5607 H   0  0  0  0  0  0  0  0  0  0  0  0
  101.2758   21.9699   -4.0509 H   0  0  0  0  0  0  0  0  0  0  0  0
   98.7323   22.5010   -1.4529 H   0  0  0  0  0  0  0  0  0  0  0  0
 31 32  1  0  0  0
 32 33  2  0  0  0
 32 34  1  0  0  0
 32 30  1  0  0  0
 30 26  1  0  0  0
 26 27  2  0  0  0
 26 28  1  0  0  0
 26 25  1  0  0  0
 25 24  1  0  0  0
 24  1  1  0  0  0
  1  2  1  0  0  0
  1  3  1  0  0  0
  2  7  1  0  0  0
  3  4  1  0  0  0
  3  5  1  0  0  0
  5  6  1  0  0  0
  5  7  1  0  0  0
  7 10  1  0  0  0
 10 11  1  0  0  0
 10 20  1  0  0  0
 11 12  2  0  0  0
 12 13  1  0  0  0
 13 14  1  0  0  0
 13 20  2  0  0  0
 14 15  2  0  0  0
 14 16  1  0  0  0
 16 17  1  0  0  0
 17 18  1  0  0  0
 17 19  2  0  0  0
 19 20  1  0  0  0
 31 35  1  0  0  0
 31 36  1  0  0  0
 34 37  1  0  0  0
 28 29  1  0  0  0
  4  8  1  0  0  0
  6  9  1  0  0  0
 16 21  1  0  0  0
 18 22  1  0  0  0
 18 23  1  0  0  0
M  END
> <minimizedAffinity>
-8.12965

$$$$
1A4R_GNH_B_400


 37 39  0  0  0  0  0  0  0  0999 V2000
  105.7673   29.7723   -1.0137 C   0  0  0  0  0  0  0  0  0  0  0  0
  106.4251   30.9156   -1.5474 O   0  0  0  0  0  0  0  0  0  0  0  0
  106.0189   29.8738    0.4883 C   0  0  0  0  0  0  0  0  0  0  0  0
  107.0374   28.9755    0.8944 O   0  0  0  0  0  0  0  0  0  0  0  0
  106.3627   31.3209    0.7748 C   0  0  0  0  0  0  0  0  0  0  0  0
  107.0526   31.5986    1.9938 O   0  0  0  0  0  0  0  0  0  0  0  0
  107.0650   31.7293   -0.5274 C   0  0  0  0  0  0  0  0  0  0  0  0
  107.8569   29.1786    0.4168 H   0  0  0  0  0  0  0  0  0  0  0  0
  107.9021   31.1305    1.9984 H   0  0  0  0  0  0  0  0  0  0  0  0
  106.8464   33.1285   -1.0492 N   0  0  0  0  0  0  0  0  0  0  0  0
  107.7837   34.1096   -1.3286 C   0  0  0  0  0  0  0  0  0  0  0  0
  107.3220   35.2555   -1.7779 N   0  0  0  0  0  0  0  0  0  0  0  0
  105.9317   35.0602   -1.8119 C   0  0  0  0  0  0  0  0  0  0  0  0
  104.8269   35.9650   -2.2196 C   0  0  0  0  0  0  0  0  0  0  0  0
  104.9268   37.1263   -2.6238 O   0  0  0  0  0  0  0  0  0  0  0  0
  103.5079   35.3809   -2.1073 N   0  0  0  0  0  0  0  0  0  0  0  0
  103.2339   34.0508   -1.6573 C   0  0  0  0  0  0  0  0  0  0  0  0
  101.9545   33.6441   -1.6102 N   0  0  0  0  0  0  0  0  0  0  0  0
  104.2544   33.1800   -1.2689 N   0  0  0  0  0  0  0  0  0  0  0  0
  105.5986   33.7474   -1.3703 C   0  0  0  0  0  0  0  0  0  0  0  0
  102.7396   35.9422   -2.3602 H   0  0  0  0  0  0  0  0  0  0  0  0
  101.2331   34.2559   -1.8834 H   0  0  0  0  0  0  0  0  0  0  0  0
  101.7382   32.7343   -1.3026 H   0  0  0  0  0  0  0  0  0  0  0  0
  104.2774   29.8115   -1.4905 C   0  0  0  0  0  0  0  0  0  0  0  0
  103.7741   28.5114   -1.8816 O   0  0  0  0  0  0  0  0  0  0  0  0
  102.9526   27.5612   -0.9200 P   0  0  0  0  0  0  0  0  0  0  0  0
  103.8164   26.9081    0.0852 O   0  0  0  0  0  0  0  0  0  0  0  0
  101.7114   28.2334   -0.4449 O   0  0  0  0  0  0  0  0  0  0  0  0
  101.2238   27.6346    0.1420 H   0  0  0  0  0  0  0  0  0  0  0  0
  102.5865   26.4700   -2.0613 O   0  0  0  0  0  0  0  0  0  0  0  0
  100.3252   25.9860   -1.3909 N   0  0  0  0  0  0  0  0  0  0  0  0
  101.2389   25.8241   -2.5450 P   0  0  0  0  0  0  0  0  0  0  0  0
  100.7737   26.7029   -3.6828 O   0  0  0  0  0  0  0  0  0  0  0  0
  101.4793   24.4671   -3.1116 O   0  0  0  0  0  0  0  0  0  0  0  0
   99.4141   25.5888   -1.6203 H   0  0  0  0  0  0  0  0  0  0  0  0
  100.2197   26.9778   -1.1773 H   0  0  0  0  0  0  0  0  0  0  0  0
  100.6370   24.0851   -3.4043 H   0  0  0  0  0  0  0  0  0  0  0  0
 31 32  1  0  0  0
 32 33  2  0  0  0
 32 34  1  0  0  0
 32 30  1  0  0  0
 30 26  1  0  0  0
 26 27  2  0  0  0
 26 28  1  0  0  0
 26 25  1  0  0  0
 25 24  1  0  0  0
 24  1  1  0  0  0
  1  2  1  0  0  0
  1  3  1  0  0  0
  2  7  1  0  0  0
  3  4  1  0  0  0
  3  5  1  0  0  0
  5  6  1  0  0  0
  5  7  1  0  0  0
  7 10  1  0  0  0
 10 11  1  0  0  0
 10 20  1  0  0  0
 11 12  2  0  0  0
 12 13  1  0  0  0
 13 14  1  0  0  0
 13 20  2  0  0  0
 14 15  2  0  0  0
 14 16  1  0  0  0
 16 17  1  0  0  0
 17 18  1  0  0  0
 17 19  2  0  0  0
 19 20  1  0  0  0
 31 35  1  0  0  0
 31 36  1  0  0  0
 34 37  1  0  0  0
 28 29  1  0  0  0
  4  8  1  0  0  0
  6  9  1  0  0  0
 16 21  1  0  0  0
 18 22  1  0  0  0
 18 23  1  0  0  0
M  END
> <minimizedAffinity>
-8.12931

$$$$
1A4R_GNH_B_400


 37 39  0  0  0  0  0  0  0  0999 V2000
  104.6511   27.4316   -1.3819 C   0  0  0  0  0  0  0  0  0  0  0  0
  104.9363   28.7158   -1.9244 O   0  0  0  0  0  0  0  0  0  0  0  0
  105.3500   27.4447   -0.0250 C   0  0  0  0  0  0  0  0  0  0  0  0
  106.5612   26.7098   -0.0706 O   0  0  0  0  0  0  0  0  0  0  0  0
  105.5583   28.8992    0.3427 C   0  0  0  0  0  0  0  0  0  0  0  0
  106.5531   29.1876    1.3258 O   0  0  0  0  0  0  0  0  0  0  0  0
  105.7450   29.5381   -1.0402 C   0  0  0  0  0  0  0  0  0  0  0  0
  107.1489   27.0962   -0.7385 H   0  0  0  0  0  0  0  0  0  0  0  0
  107.4174   28.8794    1.0112 H   0  0  0  0  0  0  0  0  0  0  0  0
  105.1760   30.9162   -1.2740 N   0  0  0  0  0  0  0  0  0  0  0  0
  103.9185   31.2724   -1.7334 C   0  0  0  0  0  0  0  0  0  0  0  0
  103.6753   32.5592   -1.8486 N   0  0  0  0  0  0  0  0  0  0  0  0
  104.8758   33.1598   -1.4360 C   0  0  0  0  0  0  0  0  0  0  0  0
  105.2690   34.5881   -1.3312 C   0  0  0  0  0  0  0  0  0  0  0  0
  104.5782   35.5722   -1.6070 O   0  0  0  0  0  0  0  0  0  0  0  0
  106.6194   34.7997   -0.8568 N   0  0  0  0  0  0  0  0  0  0  0  0
  107.5362   33.7618   -0.4975 C   0  0  0  0  0  0  0  0  0  0  0  0
  108.7597   34.1121   -0.0672 N   0  0  0  0  0  0  0  0  0  0  0  0
  107.1912   32.4114   -0.5862 N   0  0  0  0  0  0  0  0  0  0  0  0
  105.8310   32.1696   -1.0664 C   0  0  0  0  0  0  0  0  0  0  0  0
  106.9315   35.7298   -0.7749 H   0  0  0  0  0  0  0  0  0  0  0  0
  109.0055   35.0632   -0.0037 H   0  0  0  0  0  0  0  0  0  0  0  0
  109.4104   33.4175    0.1846 H   0  0  0  0  0  0  0  0  0  0  0  0
  103.0973   27.2468   -1.3810 C   0  0  0  0  0  0  0  0  0  0  0  0
  102.6555   26.1658   -2.2372 O   0  0  0  0  0  0  0  0  0  0  0  0
  101.1392   25.8912   -2.5945 P   0  0  0  0  0  0  0  0  0  0  0  0
  100.2728   25.9226   -1.3980 O   0  0  0  0  0  0  0  0  0  0  0  0
  100.7221   26.6884   -3.7814 O   0  0  0  0  0  0  0  0  0  0  0  0
   99.7910   26.5053   -3.9829 H   0  0  0  0  0  0  0  0  0  0  0  0
  101.3616   24.3431   -3.0203 O   0  0  0  0  0  0  0  0  0  0  0  0
   99.5192   23.3783   -1.8070 N   0  0  0  0  0  0  0  0  0  0  0  0
  100.7651   22.9849   -2.5040 P   0  0  0  0  0  0  0  0  0  0  0  0
  100.4195   22.2120   -3.7556 O   0  0  0  0  0  0  0  0  0  0  0  0
  101.8007   22.1979   -1.7770 O   0  0  0  0  0  0  0  0  0  0  0  0
   99.0606   22.5467   -1.4350 H   0  0  0  0  0  0  0  0  0  0  0  0
   98.8949   23.8456   -2.4644 H   0  0  0  0  0  0  0  0  0  0  0  0
  101.4143   21.3642   -1.4664 H   0  0  0  0  0  0  0  0  0  0  0  0
 31 32  1  0  0  0
 32 33  2  0  0  0
 32 34  1  0  0  0
 32 30  1  0  0  0
 30 26  1  0  0  0
 26 27  2  0  0  0
 26 28  1  0  0  0
 26 25  1  0  0  0
 25 24  1  0  0  0
 24  1  1  0  0  0
  1  2  1  0  0  0
  1  3  1  0  0  0
  2  7  1  0  0  0
  3  4  1  0  0  0
  3  5  1  0  0  0
  5  6  1  0  0  0
  5  7  1  0  0  0
  7 10  1  0  0  0
 10 11  1  0  0  0
 10 20  1  0  0  0
 11 12  2  0  0  0
 12 13  1  0  0  0
 13 14  1  0  0  0
 13 20  2  0  0  0
 14 15  2  0  0  0
 14 16  1  0  0  0
 16 17  1  0  0  0
 17 18  1  0  0  0
 17 19  2  0  0  0
 19 20  1  0  0  0
 31 35  1  0  0  0
 31 36  1  0  0  0
 34 37  1  0  0  0
 28 29  1  0  0  0
  4  8  1  0  0  0
  6  9  1  0  0  0
 16 21  1  0  0  0
 18 22  1  0  0  0
 18 23  1  0  0  0
M  END
> <minimizedAffinity>
-7.98879

$$$$
1A4R_GNH_B_400


 37 39  0  0  0  0  0  0  0  0999 V2000
  103.8258   27.2884   -0.8404 C   0  0  0  0  0  0  0  0  0  0  0  0
  104.6147   28.2896   -1.4728 O   0  0  0  0  0  0  0  0  0  0  0  0
  104.5568   27.0225    0.4729 C   0  0  0  0  0  0  0  0  0  0  0  0
  105.3023   25.8189    0.4044 O   0  0  0  0  0  0  0  0  0  0  0  0
  105.4226   28.2359    0.7419 C   0  0  0  0  0  0  0  0  0  0  0  0
  106.5123   28.0714    1.6500 O   0  0  0  0  0  0  0  0  0  0  0  0
  105.7707   28.6825   -0.6846 C   0  0  0  0  0  0  0  0  0  0  0  0
  105.9484   25.8793   -0.3165 H   0  0  0  0  0  0  0  0  0  0  0  0
  107.1199   27.3974    1.3072 H   0  0  0  0  0  0  0  0  0  0  0  0
  105.8646   30.1618   -0.9679 N   0  0  0  0  0  0  0  0  0  0  0  0
  105.7140   31.2267   -0.0946 C   0  0  0  0  0  0  0  0  0  0  0  0
  105.8465   32.4311   -0.6046 N   0  0  0  0  0  0  0  0  0  0  0  0
  106.1097   32.1870   -1.9623 C   0  0  0  0  0  0  0  0  0  0  0  0
  106.3557   33.1175   -3.0933 C   0  0  0  0  0  0  0  0  0  0  0  0
  106.3715   34.3504   -3.0526 O   0  0  0  0  0  0  0  0  0  0  0  0
  106.5903   32.4625   -4.3619 N   0  0  0  0  0  0  0  0  0  0  0  0
  106.6041   31.0465   -4.5654 C   0  0  0  0  0  0  0  0  0  0  0  0
  106.8414   30.5821   -5.8033 N   0  0  0  0  0  0  0  0  0  0  0  0
  106.3764   30.1500   -3.5188 N   0  0  0  0  0  0  0  0  0  0  0  0
  106.1334   30.7870   -2.2249 C   0  0  0  0  0  0  0  0  0  0  0  0
  106.7531   33.0356   -5.1456 H   0  0  0  0  0  0  0  0  0  0  0  0
  107.0022   31.2118   -6.5428 H   0  0  0  0  0  0  0  0  0  0  0  0
  106.8545   29.6121   -5.9711 H   0  0  0  0  0  0  0  0  0  0  0  0
  102.3593   27.8253   -0.7432 C   0  0  0  0  0  0  0  0  0  0  0  0
  101.3650   26.8066   -1.0082 O   0  0  0  0  0  0  0  0  0  0  0  0
  101.3408   25.9220   -2.3195 P   0  0  0  0  0  0  0  0  0  0  0  0
  100.8262   26.6709   -3.4846 O   0  0  0  0  0  0  0  0  0  0  0  0
  102.6193   25.1745   -2.4775 O   0  0  0  0  0  0  0  0  0  0  0  0
  102.5833   24.6396   -3.2859 H   0  0  0  0  0  0  0  0  0  0  0  0
  100.1758   24.9195   -1.8048 O   0  0  0  0  0  0  0  0  0  0  0  0
  101.4869   23.1282   -0.8722 N   0  0  0  0  0  0  0  0  0  0  0  0
  100.1475   23.3903   -1.4470 P   0  0  0  0  0  0  0  0  0  0  0  0
   99.1013   23.2644   -0.3640 O   0  0  0  0  0  0  0  0  0  0  0  0
   99.6725   22.5868   -2.6084 O   0  0  0  0  0  0  0  0  0  0  0  0
  101.5572   22.1454   -0.6084 H   0  0  0  0  0  0  0  0  0  0  0  0
  101.6230   23.7122   -0.0471 H   0  0  0  0  0  0  0  0  0  0  0  0
   99.6619   21.6470   -2.3687 H   0  0  0  0  0  0  0  0  0  0  0  0
 31 32  1  0  0  0
 32 33  2  0  0  0
 32 34  1  0  0  0
 32 30  1  0  0  0
 30 26  1  0  0  0
 26 27  2  0  0  0
 26 28  1  0  0  0
 26 25  1  0  0  0
 25 24  1  0  0  0
 24  1  1  0  0  0
  1  2  1  0  0  0
  1  3  1  0  0  0
  2  7  1  0  0  0
  3  4  1  0  0  0
  3  5  1  0  0  0
  5  6  1  0  0  0
  5  7  1  0  0  0
  7 10  1  0  0  0
 10 11  1  0  0  0
 10 20  1  0  0  0
 11 12  2  0  0  0
 12 13  1  0  0  0
 13 14  1  0  0  0
 13 20  2  0  0  0
 14 15  2  0  0  0
 14 16  1  0  0  0
 16 17  1  0  0  0
 17 18  1  0  0  0
 17 19  2  0  0  0
 19 20  1  0  0  0
 31 35  1  0  0  0
 31 36  1  0  0  0
 34 37  1  0  0  0
 28 29  1  0  0  0
  4  8  1  0  0  0
  6  9  1  0  0  0
 16 21  1  0  0  0
 18 22  1  0  0  0
 18 23  1  0  0  0
M  END
> <minimizedAffinity>
-7.87505

$$$$
1A4R_GNH_B_400


 37 39  0  0  0  0  0  0  0  0999 V2000
  103.0502   26.8211    1.1072 C   0  0  0  0  0  0  0  0  0  0  0  0
  104.3920   27.2860    1.0164 O   0  0  0  0  0  0  0  0  0  0  0  0
  102.4406   27.1987   -0.2402 C   0  0  0  0  0  0  0  0  0  0  0  0
  101.6221   28.3499   -0.1225 O   0  0  0  0  0  0  0  0  0  0  0  0
  103.5956   27.3941   -1.2005 C   0  0  0  0  0  0  0  0  0  0  0  0
  103.3413   28.1574   -2.3802 O   0  0  0  0  0  0  0  0  0  0  0  0
  104.6882   27.9178   -0.2584 C   0  0  0  0  0  0  0  0  0  0  0  0
  102.1526   29.0912    0.2092 H   0  0  0  0  0  0  0  0  0  0  0  0
  103.0636   29.0531   -2.1321 H   0  0  0  0  0  0  0  0  0  0  0  0
  106.1132   27.4872   -0.5066 N   0  0  0  0  0  0  0  0  0  0  0  0
  107.2623   28.2601   -0.5431 C   0  0  0  0  0  0  0  0  0  0  0  0
  108.3903   27.6289   -0.7824 N   0  0  0  0  0  0  0  0  0  0  0  0
  107.9936   26.2901   -0.9321 C   0  0  0  0  0  0  0  0  0  0  0  0
  108.7800   25.0635   -1.2194 C   0  0  0  0  0  0  0  0  0  0  0  0
  109.9985   24.9851   -1.3956 O   0  0  0  0  0  0  0  0  0  0  0  0
  107.9886   23.8549   -1.2991 N   0  0  0  0  0  0  0  0  0  0  0  0
  106.5711   23.7874   -1.1172 C   0  0  0  0  0  0  0  0  0  0  0  0
  105.9715   22.5894   -1.2161 N   0  0  0  0  0  0  0  0  0  0  0  0
  105.8087   24.9256   -0.8455 N   0  0  0  0  0  0  0  0  0  0  0  0
  106.5849   26.1624   -0.7625 C   0  0  0  0  0  0  0  0  0  0  0  0
  108.4621   23.0140   -1.4935 H   0  0  0  0  0  0  0  0  0  0  0  0
  106.5066   21.7855   -1.4075 H   0  0  0  0  0  0  0  0  0  0  0  0
  104.9971   22.5153   -1.0971 H   0  0  0  0  0  0  0  0  0  0  0  0
  103.0946   25.2991    1.4674 C   0  0  0  0  0  0  0  0  0  0  0  0
  102.2170   24.4963    0.6415 O   0  0  0  0  0  0  0  0  0  0  0  0
  102.2039   22.9144    0.6519 P   0  0  0  0  0  0  0  0  0  0  0  0
  103.5635   22.3477    0.5357 O   0  0  0  0  0  0  0  0  0  0  0  0
  101.3215   22.3993    1.7355 O   0  0  0  0  0  0  0  0  0  0  0  0
  101.3280   21.4294    1.7240 H   0  0  0  0  0  0  0  0  0  0  0  0
  101.4644   22.7594   -0.7821 O   0  0  0  0  0  0  0  0  0  0  0  0
   99.8190   22.3848   -2.4995 N   0  0  0  0  0  0  0  0  0  0  0  0
  100.0978   23.2812   -1.3542 P   0  0  0  0  0  0  0  0  0  0  0  0
   99.0930   23.0222   -0.2557 O   0  0  0  0  0  0  0  0  0  0  0  0
  100.1441   24.7555   -1.5648 O   0  0  0  0  0  0  0  0  0  0  0  0
   98.9377   22.6553   -2.9362 H   0  0  0  0  0  0  0  0  0  0  0  0
   99.7535   21.4219   -2.1696 H   0  0  0  0  0  0  0  0  0  0  0  0
   99.2929   25.0586   -1.9177 H   0  0  0  0  0  0  0  0  0  0  0  0
 31 32  1  0  0  0
 32 33  2  0  0  0
 32 34  1  0  0  0
 32 30  1  0  0  0
 30 26  1  0  0  0
 26 27  2  0  0  0
 26 28  1  0  0  0
 26 25  1  0  0  0
 25 24  1  0  0  0
 24  1  1  0  0  0
  1  2  1  0  0  0
  1  3  1  0  0  0
  2  7  1  0  0  0
  3  4  1  0  0  0
  3  5  1  0  0  0
  5  6  1  0  0  0
  5  7  1  0  0  0
  7 10  1  0  0  0
 10 11  1  0  0  0
 10 20  1  0  0  0
 11 12  2  0  0  0
 12 13  1  0  0  0
 13 14  1  0  0  0
 13 20  2  0  0  0
 14 15  2  0  0  0
 14 16  1  0  0  0
 16 17  1  0  0  0
 17 18  1  0  0  0
 17 19  2  0  0  0
 19 20  1  0  0  0
 31 35  1  0  0  0
 31 36  1  0  0  0
 34 37  1  0  0  0
 28 29  1  0  0  0
  4  8  1  0  0  0
  6  9  1  0  0  0
 16 21  1  0  0  0
 18 22  1  0  0  0
 18 23  1  0  0  0
M  END
> <minimizedAffinity>
-7.81178

$$$$
