2BET_DEZ_A_200


 18 17  0  0  0  0  0  0  0  0999 V2000
   25.9087   -9.9739   15.1879 C   0  0  0  0  0  0  0  0  0  0  0  0
   26.1027  -11.0036   16.1500 O   0  0  0  0  0  0  0  0  0  0  0  0
   25.8466  -11.8569   15.7664 H   0  0  0  0  0  0  0  0  0  0  0  0
   26.7929  -10.2462   13.9702 C   0  0  0  0  0  0  0  0  0  0  0  0
   27.0129   -9.0404   13.2485 O   0  0  0  0  0  0  0  0  0  0  0  0
   27.4620   -8.3985   13.8206 H   0  0  0  0  0  0  0  0  0  0  0  0
   29.0606  -10.0368   14.6273 O   0  0  0  0  0  0  0  0  0  0  0  0
   28.1117  -10.8202   14.4102 C   0  0  0  0  0  0  0  0  0  0  0  0
   28.2160  -12.0598   14.5469 O   0  0  0  0  0  0  0  0  0  0  0  0
   27.4803  -12.6137   14.3741 H   0  0  0  0  0  0  0  0  0  0  0  0
   24.4315   -9.8929   14.8017 C   0  0  0  0  0  0  0  0  0  0  0  0
   24.2219   -8.8726   13.8183 O   0  0  0  0  0  0  0  0  0  0  0  0
   24.0456   -7.3189   14.2113 P   0  0  0  0  0  0  0  0  0  0  0  0
   25.4261   -6.7230   14.1576 O   0  0  0  0  0  0  0  0  0  0  0  0
   23.4693   -7.3278   15.6020 O   0  0  0  0  0  0  0  0  0  0  0  0
   23.1013   -6.7982   13.1601 O   0  0  0  0  0  0  0  0  0  0  0  0
   24.1292   -7.6735   16.2232 H   0  0  0  0  0  0  0  0  0  0  0  0
   23.5372   -6.8213   12.2939 H   0  0  0  0  0  0  0  0  0  0  0  0
  7  8  2  0  0  0
  8  9  1  0  0  0
  8  4  1  0  0  0
  4  5  1  0  0  0
  4  1  1  0  0  0
  1  2  1  0  0  0
  1 11  1  0  0  0
 11 12  1  0  0  0
 12 13  1  0  0  0
 13 14  2  0  0  0
 13 15  1  0  0  0
 13 16  1  0  0  0
  9 10  1  0  0  0
  5  6  1  0  0  0
  2  3  1  0  0  0
 15 17  1  0  0  0
 16 18  1  0  0  0
M  END
> <minimizedAffinity>
-7.64945

$$$$
2BET_DEZ_A_200


 18 17  0  0  0  0  0  0  0  0999 V2000
   26.7434   -7.8975   13.8750 C   0  0  0  0  0  0  0  0  0  0  0  0
   26.6128   -8.9022   12.8765 O   0  0  0  0  0  0  0  0  0  0  0  0
   26.1857   -9.6846   13.2590 H   0  0  0  0  0  0  0  0  0  0  0  0
   25.3547   -7.4989   14.3763 C   0  0  0  0  0  0  0  0  0  0  0  0
   25.0732   -6.1529   14.0123 O   0  0  0  0  0  0  0  0  0  0  0  0
   25.0902   -6.0690   13.0461 H   0  0  0  0  0  0  0  0  0  0  0  0
   24.1722   -9.5508   14.2780 O   0  0  0  0  0  0  0  0  0  0  0  0
   24.3139   -8.4106   13.7867 C   0  0  0  0  0  0  0  0  0  0  0  0
   23.6233   -7.9993   12.8276 O   0  0  0  0  0  0  0  0  0  0  0  0
   23.7602   -7.1370   12.4875 H   0  0  0  0  0  0  0  0  0  0  0  0
   27.6264   -8.4069   15.0147 C   0  0  0  0  0  0  0  0  0  0  0  0
   28.1860   -9.6843   14.6875 O   0  0  0  0  0  0  0  0  0  0  0  0
   27.8975  -11.0036   15.5682 P   0  0  0  0  0  0  0  0  0  0  0  0
   28.7855  -10.8917   16.7777 O   0  0  0  0  0  0  0  0  0  0  0  0
   28.2691  -12.1596   14.6785 O   0  0  0  0  0  0  0  0  0  0  0  0
   26.4244  -10.9087   15.8664 O   0  0  0  0  0  0  0  0  0  0  0  0
   29.2276  -12.1582   14.5299 H   0  0  0  0  0  0  0  0  0  0  0  0
   26.2594  -10.1452   16.4414 H   0  0  0  0  0  0  0  0  0  0  0  0
  7  8  2  0  0  0
  8  9  1  0  0  0
  8  4  1  0  0  0
  4  5  1  0  0  0
  4  1  1  0  0  0
  1  2  1  0  0  0
  1 11  1  0  0  0
 11 12  1  0  0  0
 12 13  1  0  0  0
 13 14  2  0  0  0
 13 15  1  0  0  0
 13 16  1  0  0  0
  9 10  1  0  0  0
  5  6  1  0  0  0
  2  3  1  0  0  0
 15 17  1  0  0  0
 16 18  1  0  0  0
M  END
> <minimizedAffinity>
-7.60663

$$$$
2BET_DEZ_A_200


 18 17  0  0  0  0  0  0  0  0999 V2000
   26.4864   -8.3038   13.9321 C   0  0  0  0  0  0  0  0  0  0  0  0
   26.6612   -9.0828   12.7547 O   0  0  0  0  0  0  0  0  0  0  0  0
   26.6524  -10.0248   12.9860 H   0  0  0  0  0  0  0  0  0  0  0  0
   25.1345   -8.6383   14.5639 C   0  0  0  0  0  0  0  0  0  0  0  0
   25.1942   -8.4467   15.9721 O   0  0  0  0  0  0  0  0  0  0  0  0
   25.4052   -7.5194   16.1636 H   0  0  0  0  0  0  0  0  0  0  0  0
   23.6105   -6.8263   14.6750 O   0  0  0  0  0  0  0  0  0  0  0  0
   24.0622   -7.7606   13.9790 C   0  0  0  0  0  0  0  0  0  0  0  0
   23.6593   -7.9914   12.8169 O   0  0  0  0  0  0  0  0  0  0  0  0
   24.0237   -8.7023   12.3272 H   0  0  0  0  0  0  0  0  0  0  0  0
   27.6388   -8.5615   14.9035 C   0  0  0  0  0  0  0  0  0  0  0  0
   28.3098   -9.7845   14.5777 O   0  0  0  0  0  0  0  0  0  0  0  0
   28.2520  -11.0813   15.5339 P   0  0  0  0  0  0  0  0  0  0  0  0
   29.5352  -11.0692   16.3195 O   0  0  0  0  0  0  0  0  0  0  0  0
   28.1537  -12.2562   14.5981 O   0  0  0  0  0  0  0  0  0  0  0  0
   27.0141  -10.8507   16.3600 O   0  0  0  0  0  0  0  0  0  0  0  0
   28.9821  -12.3439   14.1011 H   0  0  0  0  0  0  0  0  0  0  0  0
   27.1485  -10.0822   16.9364 H   0  0  0  0  0  0  0  0  0  0  0  0
  7  8  2  0  0  0
  8  9  1  0  0  0
  8  4  1  0  0  0
  4  5  1  0  0  0
  4  1  1  0  0  0
  1  2  1  0  0  0
  1 11  1  0  0  0
 11 12  1  0  0  0
 12 13  1  0  0  0
 13 14  2  0  0  0
 13 15  1  0  0  0
 13 16  1  0  0  0
  9 10  1  0  0  0
  5  6  1  0  0  0
  2  3  1  0  0  0
 15 17  1  0  0  0
 16 18  1  0  0  0
M  END
> <minimizedAffinity>
-7.49961

$$$$
2BET_DEZ_A_200


 18 17  0  0  0  0  0  0  0  0999 V2000
   25.8829  -10.3388   14.2747 C   0  0  0  0  0  0  0  0  0  0  0  0
   26.3087   -9.5466   13.1726 O   0  0  0  0  0  0  0  0  0  0  0  0
   26.3123   -8.6111   13.4290 H   0  0  0  0  0  0  0  0  0  0  0  0
   26.8600  -10.1555   15.4368 C   0  0  0  0  0  0  0  0  0  0  0  0
   27.3148  -11.4229   15.8952 O   0  0  0  0  0  0  0  0  0  0  0  0
   27.7731  -11.8821   15.1741 H   0  0  0  0  0  0  0  0  0  0  0  0
   29.0373   -9.9103   14.5328 O   0  0  0  0  0  0  0  0  0  0  0  0
   28.0343   -9.3259   14.9954 C   0  0  0  0  0  0  0  0  0  0  0  0
   27.9693   -8.0808   15.1027 O   0  0  0  0  0  0  0  0  0  0  0  0
   27.1988   -7.6805   15.4549 H   0  0  0  0  0  0  0  0  0  0  0  0
   24.4579   -9.9537   14.6738 C   0  0  0  0  0  0  0  0  0  0  0  0
   24.4143   -8.6031   15.1491 O   0  0  0  0  0  0  0  0  0  0  0  0
   24.1576   -7.3507   14.1666 P   0  0  0  0  0  0  0  0  0  0  0  0
   25.4868   -6.6595   14.0273 O   0  0  0  0  0  0  0  0  0  0  0  0
   23.1316   -6.5028   14.8697 O   0  0  0  0  0  0  0  0  0  0  0  0
   23.6561   -7.9966   12.9019 O   0  0  0  0  0  0  0  0  0  0  0  0
   23.5223   -6.1208   15.6712 H   0  0  0  0  0  0  0  0  0  0  0  0
   24.3664   -8.5245   12.5048 H   0  0  0  0  0  0  0  0  0  0  0  0
  7  8  2  0  0  0
  8  9  1  0  0  0
  8  4  1  0  0  0
  4  5  1  0  0  0
  4  1  1  0  0  0
  1  2  1  0  0  0
  1 11  1  0  0  0
 11 12  1  0  0  0
 12 13  1  0  0  0
 13 14  2  0  0  0
 13 15  1  0  0  0
 13 16  1  0  0  0
  9 10  1  0  0  0
  5  6  1  0  0  0
  2  3  1  0  0  0
 15 17  1  0  0  0
 16 18  1  0  0  0
M  END
> <minimizedAffinity>
-7.48987

$$$$
2BET_DEZ_A_200


 18 17  0  0  0  0  0  0  0  0999 V2000
   24.8912   -9.3218   14.3942 C   0  0  0  0  0  0  0  0  0  0  0  0
   24.7877   -9.0940   15.7946 O   0  0  0  0  0  0  0  0  0  0  0  0
   25.4802   -8.4747   16.0735 H   0  0  0  0  0  0  0  0  0  0  0  0
   24.6919   -8.0003   13.6507 C   0  0  0  0  0  0  0  0  0  0  0  0
   23.6119   -8.1162   12.7323 O   0  0  0  0  0  0  0  0  0  0  0  0
   22.7975   -8.3260   13.2157 H   0  0  0  0  0  0  0  0  0  0  0  0
   25.3700   -6.2886   15.1436 O   0  0  0  0  0  0  0  0  0  0  0  0
   24.4058   -6.8965   14.6314 C   0  0  0  0  0  0  0  0  0  0  0  0
   23.2152   -6.6209   14.9010 O   0  0  0  0  0  0  0  0  0  0  0  0
   22.5199   -7.1005   14.4954 H   0  0  0  0  0  0  0  0  0  0  0  0
   26.2459   -9.9508   14.0671 C   0  0  0  0  0  0  0  0  0  0  0  0
   26.6756  -10.8067   15.1324 O   0  0  0  0  0  0  0  0  0  0  0  0
   28.2316  -11.1264   15.4079 P   0  0  0  0  0  0  0  0  0  0  0  0
   28.4417  -12.5503   14.9694 O   0  0  0  0  0  0  0  0  0  0  0  0
   28.4149  -10.9410   16.8905 O   0  0  0  0  0  0  0  0  0  0  0  0
   28.9517  -10.1039   14.5689 O   0  0  0  0  0  0  0  0  0  0  0  0
   27.9260  -11.6311   17.3655 H   0  0  0  0  0  0  0  0  0  0  0  0
   28.7897  -10.2842   13.6297 H   0  0  0  0  0  0  0  0  0  0  0  0
  7  8  2  0  0  0
  8  9  1  0  0  0
  8  4  1  0  0  0
  4  5  1  0  0  0
  4  1  1  0  0  0
  1  2  1  0  0  0
  1 11  1  0  0  0
 11 12  1  0  0  0
 12 13  1  0  0  0
 13 14  2  0  0  0
 13 15  1  0  0  0
 13 16  1  0  0  0
  9 10  1  0  0  0
  5  6  1  0  0  0
  2  3  1  0  0  0
 15 17  1  0  0  0
 16 18  1  0  0  0
M  END
> <minimizedAffinity>
-7.38868

$$$$
2BET_DEZ_A_200


 18 17  0  0  0  0  0  0  0  0999 V2000
   25.5595   -7.1610   15.2980 C   0  0  0  0  0  0  0  0  0  0  0  0
   26.1402   -7.0451   14.0045 O   0  0  0  0  0  0  0  0  0  0  0  0
   26.1573   -7.9163   13.5786 H   0  0  0  0  0  0  0  0  0  0  0  0
   24.1224   -7.6666   15.1639 C   0  0  0  0  0  0  0  0  0  0  0  0
   23.2340   -6.5691   14.9925 O   0  0  0  0  0  0  0  0  0  0  0  0
   23.4693   -6.0856   14.1851 H   0  0  0  0  0  0  0  0  0  0  0  0
   24.2362   -9.8122   14.1631 O   0  0  0  0  0  0  0  0  0  0  0  0
   24.0119   -8.5957   13.9863 C   0  0  0  0  0  0  0  0  0  0  0  0
   23.6976   -8.1233   12.8710 O   0  0  0  0  0  0  0  0  0  0  0  0
   23.5374   -7.2046   12.7796 H   0  0  0  0  0  0  0  0  0  0  0  0
   26.4038   -8.0940   16.1667 C   0  0  0  0  0  0  0  0  0  0  0  0
   27.5755   -8.5186   15.4605 O   0  0  0  0  0  0  0  0  0  0  0  0
   27.6582   -9.9389   14.7019 P   0  0  0  0  0  0  0  0  0  0  0  0
   29.1068  -10.3432   14.7451 O   0  0  0  0  0  0  0  0  0  0  0  0
   27.1714   -9.6670   13.3036 O   0  0  0  0  0  0  0  0  0  0  0  0
   26.7416  -10.8196   15.5094 O   0  0  0  0  0  0  0  0  0  0  0  0
   27.8079   -9.0967   12.8448 H   0  0  0  0  0  0  0  0  0  0  0  0
   27.1165  -10.9513   16.3943 H   0  0  0  0  0  0  0  0  0  0  0  0
  7  8  2  0  0  0
  8  9  1  0  0  0
  8  4  1  0  0  0
  4  5  1  0  0  0
  4  1  1  0  0  0
  1  2  1  0  0  0
  1 11  1  0  0  0
 11 12  1  0  0  0
 12 13  1  0  0  0
 13 14  2  0  0  0
 13 15  1  0  0  0
 13 16  1  0  0  0
  9 10  1  0  0  0
  5  6  1  0  0  0
  2  3  1  0  0  0
 15 17  1  0  0  0
 16 18  1  0  0  0
M  END
> <minimizedAffinity>
-7.34239

$$$$
2BET_DEZ_A_200


 18 17  0  0  0  0  0  0  0  0999 V2000
   25.5767   -9.3395   15.1145 C   0  0  0  0  0  0  0  0  0  0  0  0
   24.3527   -9.1727   15.8198 O   0  0  0  0  0  0  0  0  0  0  0  0
   24.3532   -8.3132   16.2696 H   0  0  0  0  0  0  0  0  0  0  0  0
   25.7080   -8.2382   14.0615 C   0  0  0  0  0  0  0  0  0  0  0  0
   26.2240   -8.7799   12.8518 O   0  0  0  0  0  0  0  0  0  0  0  0
   25.6173   -9.4586   12.5167 H   0  0  0  0  0  0  0  0  0  0  0  0
   24.0387   -6.6054   14.4686 O   0  0  0  0  0  0  0  0  0  0  0  0
   24.3655   -7.6112   13.8030 C   0  0  0  0  0  0  0  0  0  0  0  0
   23.6216   -8.1134   12.9310 O   0  0  0  0  0  0  0  0  0  0  0  0
   23.9035   -8.8685   12.4531 H   0  0  0  0  0  0  0  0  0  0  0  0
   26.7499   -9.3211   16.0948 C   0  0  0  0  0  0  0  0  0  0  0  0
   27.3272  -10.6265   16.2159 O   0  0  0  0  0  0  0  0  0  0  0  0
   28.6293  -11.0750   15.3775 P   0  0  0  0  0  0  0  0  0  0  0  0
   28.2387  -12.3368   14.6571 O   0  0  0  0  0  0  0  0  0  0  0  0
   29.7023  -11.3020   16.4086 O   0  0  0  0  0  0  0  0  0  0  0  0
   28.8860   -9.8969   14.4752 O   0  0  0  0  0  0  0  0  0  0  0  0
   29.4717  -12.0725   16.9509 H   0  0  0  0  0  0  0  0  0  0  0  0
   28.1581   -9.8116   13.8397 H   0  0  0  0  0  0  0  0  0  0  0  0
  7  8  2  0  0  0
  8  9  1  0  0  0
  8  4  1  0  0  0
  4  5  1  0  0  0
  4  1  1  0  0  0
  1  2  1  0  0  0
  1 11  1  0  0  0
 11 12  1  0  0  0
 12 13  1  0  0  0
 13 14  2  0  0  0
 13 15  1  0  0  0
 13 16  1  0  0  0
  9 10  1  0  0  0
  5  6  1  0  0  0
  2  3  1  0  0  0
 15 17  1  0  0  0
 16 18  1  0  0  0
M  END
> <minimizedAffinity>
-7.31051

$$$$
2BET_DEZ_A_200


 18 17  0  0  0  0  0  0  0  0999 V2000
   27.2925   -9.1802   14.8143 C   0  0  0  0  0  0  0  0  0  0  0  0
   28.6415   -8.8324   14.5266 O   0  0  0  0  0  0  0  0  0  0  0  0
   29.0727   -8.5137   15.3350 H   0  0  0  0  0  0  0  0  0  0  0  0
   27.2699  -10.3018   15.8538 C   0  0  0  0  0  0  0  0  0  0  0  0
   26.0225  -10.9838   15.8075 O   0  0  0  0  0  0  0  0  0  0  0  0
   25.8996  -11.3736   14.9278 H   0  0  0  0  0  0  0  0  0  0  0  0
   29.4051  -11.2240   16.3107 O   0  0  0  0  0  0  0  0  0  0  0  0
   28.3874  -11.2725   15.5873 C   0  0  0  0  0  0  0  0  0  0  0  0
   28.2623  -12.0970   14.6541 O   0  0  0  0  0  0  0  0  0  0  0  0
   27.4829  -12.1012   14.1341 H   0  0  0  0  0  0  0  0  0  0  0  0
   26.5291   -7.9483   15.3016 C   0  0  0  0  0  0  0  0  0  0  0  0
   25.6372   -7.4728   14.2865 O   0  0  0  0  0  0  0  0  0  0  0  0
   24.0653   -7.8313   14.2824 P   0  0  0  0  0  0  0  0  0  0  0  0
   23.9213   -9.0544   15.1467 O   0  0  0  0  0  0  0  0  0  0  0  0
   23.7256   -8.0949   12.8398 O   0  0  0  0  0  0  0  0  0  0  0  0
   23.4232   -6.5913   14.8464 O   0  0  0  0  0  0  0  0  0  0  0  0
   24.1714   -8.9045   12.5454 H   0  0  0  0  0  0  0  0  0  0  0  0
   23.6849   -6.4851   15.7744 H   0  0  0  0  0  0  0  0  0  0  0  0
  7  8  2  0  0  0
  8  9  1  0  0  0
  8  4  1  0  0  0
  4  5  1  0  0  0
  4  1  1  0  0  0
  1  2  1  0  0  0
  1 11  1  0  0  0
 11 12  1  0  0  0
 12 13  1  0  0  0
 13 14  2  0  0  0
 13 15  1  0  0  0
 13 16  1  0  0  0
  9 10  1  0  0  0
  5  6  1  0  0  0
  2  3  1  0  0  0
 15 17  1  0  0  0
 16 18  1  0  0  0
M  END
> <minimizedAffinity>
-7.19841

$$$$
2BET_DEZ_A_200


 18 17  0  0  0  0  0  0  0  0999 V2000
   25.8863   -9.5506   14.9197 C   0  0  0  0  0  0  0  0  0  0  0  0
   24.5898   -9.6365   15.4988 O   0  0  0  0  0  0  0  0  0  0  0  0
   24.4047   -8.8261   15.9987 H   0  0  0  0  0  0  0  0  0  0  0  0
   25.9328   -8.3628   13.9575 C   0  0  0  0  0  0  0  0  0  0  0  0
   26.3746   -8.7916   12.6753 O   0  0  0  0  0  0  0  0  0  0  0  0
   25.7562   -9.4512   12.3241 H   0  0  0  0  0  0  0  0  0  0  0  0
   24.2750   -6.7972   14.6045 O   0  0  0  0  0  0  0  0  0  0  0  0
   24.5679   -7.7418   13.8408 C   0  0  0  0  0  0  0  0  0  0  0  0
   23.7723   -8.1875   12.9838 O   0  0  0  0  0  0  0  0  0  0  0  0
   24.0302   -8.8976   12.4296 H   0  0  0  0  0  0  0  0  0  0  0  0
   26.9411   -9.4235   16.0194 C   0  0  0  0  0  0  0  0  0  0  0  0
   28.1545  -10.0797   15.6334 O   0  0  0  0  0  0  0  0  0  0  0  0
   28.6128  -11.4888   16.2687 P   0  0  0  0  0  0  0  0  0  0  0  0
   30.1146  -11.4359   16.3434 O   0  0  0  0  0  0  0  0  0  0  0  0
   28.1145  -12.5345   15.3074 O   0  0  0  0  0  0  0  0  0  0  0  0
   27.9232  -11.5087   17.6074 O   0  0  0  0  0  0  0  0  0  0  0  0
   28.6008  -12.4630   14.4712 H   0  0  0  0  0  0  0  0  0  0  0  0
   28.2930  -10.8121   18.1721 H   0  0  0  0  0  0  0  0  0  0  0  0
  7  8  2  0  0  0
  8  9  1  0  0  0
  8  4  1  0  0  0
  4  5  1  0  0  0
  4  1  1  0  0  0
  1  2  1  0  0  0
  1 11  1  0  0  0
 11 12  1  0  0  0
 12 13  1  0  0  0
 13 14  2  0  0  0
 13 15  1  0  0  0
 13 16  1  0  0  0
  9 10  1  0  0  0
  5  6  1  0  0  0
  2  3  1  0  0  0
 15 17  1  0  0  0
 16 18  1  0  0  0
M  END
> <minimizedAffinity>
-7.17255

$$$$
2BET_DEZ_A_200


 18 17  0  0  0  0  0  0  0  0999 V2000
   26.2533   -9.9806   15.3940 C   0  0  0  0  0  0  0  0  0  0  0  0
   26.4524  -11.3277   15.8055 O   0  0  0  0  0  0  0  0  0  0  0  0
   26.3640  -11.9161   15.0394 H   0  0  0  0  0  0  0  0  0  0  0  0
   27.3190   -9.6036   14.3639 C   0  0  0  0  0  0  0  0  0  0  0  0
   26.7062   -9.3099   13.1143 O   0  0  0  0  0  0  0  0  0  0  0  0
   26.0985   -8.5612   13.2202 H   0  0  0  0  0  0  0  0  0  0  0  0
   27.6531   -7.7587   15.8142 O   0  0  0  0  0  0  0  0  0  0  0  0
   28.0944   -8.4063   14.8409 C   0  0  0  0  0  0  0  0  0  0  0  0
   29.1547   -8.0989   14.2516 O   0  0  0  0  0  0  0  0  0  0  0  0
   29.4523   -8.6105   13.5251 H   0  0  0  0  0  0  0  0  0  0  0  0
   24.8425   -9.8111   14.8293 C   0  0  0  0  0  0  0  0  0  0  0  0
   24.3067   -8.5311   15.1850 O   0  0  0  0  0  0  0  0  0  0  0  0
   24.0833   -7.3582   14.1016 P   0  0  0  0  0  0  0  0  0  0  0  0
   22.9525   -6.5195   14.6322 O   0  0  0  0  0  0  0  0  0  0  0  0
   23.7310   -8.0671   12.8212 O   0  0  0  0  0  0  0  0  0  0  0  0
   25.4156   -6.6569   14.0670 O   0  0  0  0  0  0  0  0  0  0  0  0
   22.8650   -8.4938   12.9156 H   0  0  0  0  0  0  0  0  0  0  0  0
   25.5757   -6.2245   14.9204 H   0  0  0  0  0  0  0  0  0  0  0  0
  7  8  2  0  0  0
  8  9  1  0  0  0
  8  4  1  0  0  0
  4  5  1  0  0  0
  4  1  1  0  0  0
  1  2  1  0  0  0
  1 11  1  0  0  0
 11 12  1  0  0  0
 12 13  1  0  0  0
 13 14  2  0  0  0
 13 15  1  0  0  0
 13 16  1  0  0  0
  9 10  1  0  0  0
  5  6  1  0  0  0
  2  3  1  0  0  0
 15 17  1  0  0  0
 16 18  1  0  0  0
M  END
> <minimizedAffinity>
-6.96715

$$$$
