2H4N_AZM_A_264


 16 16  0  0  0  0  0  0  0  0999 V2000
   -4.6915    1.1766   12.4926 C   0  0  0  0  0  0  0  0  0  0  0  0
   -5.2349    1.0917   14.8161 C   0  0  0  0  0  0  0  0  0  0  0  0
   -4.9130   -0.1615   14.3080 N   0  0  0  0  0  0  0  0  0  0  0  0
   -4.5882   -0.1147   12.9622 N   0  0  0  0  0  0  0  0  0  0  0  0
   -5.2181    2.3720   13.6420 S   0  0  0  0  0  0  0  0  0  0  0  0
   -5.2803    2.8343   10.5270 N   0  0  0  0  0  0  0  0  0  0  0  0
   -2.9193    2.0938   10.7261 O   0  0  0  0  0  0  0  0  0  0  0  0
   -4.7555    0.4561   10.0840 O   0  0  0  0  0  0  0  0  0  0  0  0
   -4.2856    1.6046   10.8232 S   0  0  0  0  0  0  0  0  0  0  0  0
   -4.9657    3.6574   11.0406 H   0  0  0  0  0  0  0  0  0  0  0  0
   -6.2241    2.5876   10.8251 H   0  0  0  0  0  0  0  0  0  0  0  0
   -6.7471    1.2144   16.7111 C   0  0  0  0  0  0  0  0  0  0  0  0
   -6.7787    1.5653   18.1732 C   0  0  0  0  0  0  0  0  0  0  0  0
   -5.5338    1.2438   16.1601 N   0  0  0  0  0  0  0  0  0  0  0  0
   -7.7724    1.0044   16.0587 O   0  0  0  0  0  0  0  0  0  0  0  0
   -4.7740    1.3880   16.7693 H   0  0  0  0  0  0  0  0  0  0  0  0
  1  4  2  0  0  0
  1  9  1  0  0  0
  1  5  1  0  0  0
  2  3  2  0  0  0
  2 14  1  0  0  0
  2  5  1  0  0  0
 12 13  1  0  0  0
 12 14  1  0  0  0
 12 15  2  0  0  0
  6  9  1  0  0  0
  3  4  1  0  0  0
  7  9  2  0  0  0
  8  9  2  0  0  0
  6 10  1  0  0  0
  6 11  1  0  0  0
 14 16  1  0  0  0
M  END
> <minimizedAffinity>
-6.76362

$$$$
2H4N_AZM_A_264


 16 16  0  0  0  0  0  0  0  0999 V2000
   -3.6603    0.8064   12.1400 C   0  0  0  0  0  0  0  0  0  0  0  0
   -4.8054    1.5429   14.1016 C   0  0  0  0  0  0  0  0  0  0  0  0
   -3.9824    2.5312   13.5742 N   0  0  0  0  0  0  0  0  0  0  0  0
   -3.3233    2.1106   12.4306 N   0  0  0  0  0  0  0  0  0  0  0  0
   -4.7508    0.0291   13.2509 S   0  0  0  0  0  0  0  0  0  0  0  0
   -4.3285   -0.0494    9.7360 N   0  0  0  0  0  0  0  0  0  0  0  0
   -2.0016    0.7542   10.0548 O   0  0  0  0  0  0  0  0  0  0  0  0
   -2.8217   -1.3669   11.1925 O   0  0  0  0  0  0  0  0  0  0  0  0
   -3.0434   -0.0258   10.7042 S   0  0  0  0  0  0  0  0  0  0  0  0
   -4.5029    0.8903    9.3795 H   0  0  0  0  0  0  0  0  0  0  0  0
   -5.1428   -0.3709   10.2596 H   0  0  0  0  0  0  0  0  0  0  0  0
   -5.3283    1.4296   16.4694 C   0  0  0  0  0  0  0  0  0  0  0  0
   -6.4320    1.7222   17.4482 C   0  0  0  0  0  0  0  0  0  0  0  0
   -5.5843    1.8054   15.2165 N   0  0  0  0  0  0  0  0  0  0  0  0
   -4.3088    0.8124   16.7868 O   0  0  0  0  0  0  0  0  0  0  0  0
   -6.4097    2.3212   15.0687 H   0  0  0  0  0  0  0  0  0  0  0  0
  1  4  2  0  0  0
  1  9  1  0  0  0
  1  5  1  0  0  0
  2  3  2  0  0  0
  2 14  1  0  0  0
  2  5  1  0  0  0
 12 13  1  0  0  0
 12 14  1  0  0  0
 12 15  2  0  0  0
  6  9  1  0  0  0
  3  4  1  0  0  0
  7  9  2  0  0  0
  8  9  2  0  0  0
  6 10  1  0  0  0
  6 11  1  0  0  0
 14 16  1  0  0  0
M  END
> <minimizedAffinity>
-6.51429

$$$$
2H4N_AZM_A_264


 16 16  0  0  0  0  0  0  0  0999 V2000
   -3.5649    1.5200   12.1550 C   0  0  0  0  0  0  0  0  0  0  0  0
   -5.1622    1.0727   13.8725 C   0  0  0  0  0  0  0  0  0  0  0  0
   -4.7725   -0.0836   13.2065 N   0  0  0  0  0  0  0  0  0  0  0  0
   -3.8388    0.1709   12.2153 N   0  0  0  0  0  0  0  0  0  0  0  0
   -4.4468    2.5330   13.2611 S   0  0  0  0  0  0  0  0  0  0  0  0
   -1.8832    0.8822   10.2254 N   0  0  0  0  0  0  0  0  0  0  0  0
   -2.9815    3.1045   10.0932 O   0  0  0  0  0  0  0  0  0  0  0  0
   -1.2974    2.5832   11.9257 O   0  0  0  0  0  0  0  0  0  0  0  0
   -2.3644    2.1858   11.0369 S   0  0  0  0  0  0  0  0  0  0  0  0
   -2.6239    0.5844    9.5904 H   0  0  0  0  0  0  0  0  0  0  0  0
   -1.6758    0.1300   10.8824 H   0  0  0  0  0  0  0  0  0  0  0  0
   -5.7420    0.8219   16.2164 C   0  0  0  0  0  0  0  0  0  0  0  0
   -6.9256    0.6286   17.1238 C   0  0  0  0  0  0  0  0  0  0  0  0
   -6.0512    1.0012   14.9324 N   0  0  0  0  0  0  0  0  0  0  0  0
   -4.5792    0.7322   16.6175 O   0  0  0  0  0  0  0  0  0  0  0  0
   -7.0072    1.0921   14.7155 H   0  0  0  0  0  0  0  0  0  0  0  0
  1  4  2  0  0  0
  1  9  1  0  0  0
  1  5  1  0  0  0
  2  3  2  0  0  0
  2 14  1  0  0  0
  2  5  1  0  0  0
 12 13  1  0  0  0
 12 14  1  0  0  0
 12 15  2  0  0  0
  6  9  1  0  0  0
  3  4  1  0  0  0
  7  9  2  0  0  0
  8  9  2  0  0  0
  6 10  1  0  0  0
  6 11  1  0  0  0
 14 16  1  0  0  0
M  END
> <minimizedAffinity>
-6.31927

$$$$
2H4N_AZM_A_264


 16 16  0  0  0  0  0  0  0  0999 V2000
   -4.9801    2.2378   15.5403 C   0  0  0  0  0  0  0  0  0  0  0  0
   -4.6301    4.3766   14.5382 C   0  0  0  0  0  0  0  0  0  0  0  0
   -3.4585    3.8497   15.0693 N   0  0  0  0  0  0  0  0  0  0  0  0
   -3.6559    2.6046   15.6435 N   0  0  0  0  0  0  0  0  0  0  0  0
   -6.0400    3.3917   14.7836 S   0  0  0  0  0  0  0  0  0  0  0  0
   -7.1296    0.7205   15.7293 N   0  0  0  0  0  0  0  0  0  0  0  0
   -4.9535   -0.4224   15.3821 O   0  0  0  0  0  0  0  0  0  0  0  0
   -5.4563    0.8052   17.5515 O   0  0  0  0  0  0  0  0  0  0  0  0
   -5.5688    0.6711   16.1178 S   0  0  0  0  0  0  0  0  0  0  0  0
   -7.2316    0.6273   14.7187 H   0  0  0  0  0  0  0  0  0  0  0  0
   -7.5269    1.6104   16.0305 H   0  0  0  0  0  0  0  0  0  0  0  0
   -4.8437    5.7937   12.5788 C   0  0  0  0  0  0  0  0  0  0  0  0
   -4.5984    7.2014   12.1098 C   0  0  0  0  0  0  0  0  0  0  0  0
   -4.6104    5.5929   13.8756 N   0  0  0  0  0  0  0  0  0  0  0  0
   -5.1498    4.8826   11.8060 O   0  0  0  0  0  0  0  0  0  0  0  0
   -4.4033    6.3888   14.4169 H   0  0  0  0  0  0  0  0  0  0  0  0
  1  4  2  0  0  0
  1  9  1  0  0  0
  1  5  1  0  0  0
  2  3  2  0  0  0
  2 14  1  0  0  0
  2  5  1  0  0  0
 12 13  1  0  0  0
 12 14  1  0  0  0
 12 15  2  0  0  0
  6  9  1  0  0  0
  3  4  1  0  0  0
  7  9  2  0  0  0
  8  9  2  0  0  0
  6 10  1  0  0  0
  6 11  1  0  0  0
 14 16  1  0  0  0
M  END
> <minimizedAffinity>
-6.06997

$$$$
2H4N_AZM_A_264


 16 16  0  0  0  0  0  0  0  0999 V2000
   -4.9196    2.0820   15.4778 C   0  0  0  0  0  0  0  0  0  0  0  0
   -4.0424    4.0025   14.3626 C   0  0  0  0  0  0  0  0  0  0  0  0
   -3.1632    3.5049   15.3175 N   0  0  0  0  0  0  0  0  0  0  0  0
   -3.6649    2.3850   15.9602 N   0  0  0  0  0  0  0  0  0  0  0  0
   -5.5547    3.1534   14.2627 S   0  0  0  0  0  0  0  0  0  0  0  0
   -5.6146    0.7292   17.6330 N   0  0  0  0  0  0  0  0  0  0  0  0
   -7.2466    0.8151   15.7645 O   0  0  0  0  0  0  0  0  0  0  0  0
   -5.0425   -0.4294   15.5217 O   0  0  0  0  0  0  0  0  0  0  0  0
   -5.8258    0.6683   16.0389 S   0  0  0  0  0  0  0  0  0  0  0  0
   -6.1605    1.4995   18.0192 H   0  0  0  0  0  0  0  0  0  0  0  0
   -4.6265    0.8757   17.8397 H   0  0  0  0  0  0  0  0  0  0  0  0
   -3.5986    6.3585   13.9815 C   0  0  0  0  0  0  0  0  0  0  0  0
   -3.3367    7.3451   12.8770 C   0  0  0  0  0  0  0  0  0  0  0  0
   -3.6831    5.0895   13.5828 N   0  0  0  0  0  0  0  0  0  0  0  0
   -3.8060    6.7083   15.1458 O   0  0  0  0  0  0  0  0  0  0  0  0
   -3.4688    4.9063   12.6395 H   0  0  0  0  0  0  0  0  0  0  0  0
  1  4  2  0  0  0
  1  9  1  0  0  0
  1  5  1  0  0  0
  2  3  2  0  0  0
  2 14  1  0  0  0
  2  5  1  0  0  0
 12 13  1  0  0  0
 12 14  1  0  0  0
 12 15  2  0  0  0
  6  9  1  0  0  0
  3  4  1  0  0  0
  7  9  2  0  0  0
  8  9  2  0  0  0
  6 10  1  0  0  0
  6 11  1  0  0  0
 14 16  1  0  0  0
M  END
> <minimizedAffinity>
-5.89308

$$$$
2H4N_AZM_A_264


 16 16  0  0  0  0  0  0  0  0999 V2000
   -5.1096    0.9742   13.2931 C   0  0  0  0  0  0  0  0  0  0  0  0
   -5.5290    1.6745   15.5369 C   0  0  0  0  0  0  0  0  0  0  0  0
   -6.1770    2.4801   14.6078 N   0  0  0  0  0  0  0  0  0  0  0  0
   -5.9434    2.0712   13.3050 N   0  0  0  0  0  0  0  0  0  0  0  0
   -4.5480    0.4194   14.8437 S   0  0  0  0  0  0  0  0  0  0  0  0
   -3.0717    0.4281   11.7098 N   0  0  0  0  0  0  0  0  0  0  0  0
   -4.8631   -1.2804   11.8937 O   0  0  0  0  0  0  0  0  0  0  0  0
   -5.3044    0.9655   10.7858 O   0  0  0  0  0  0  0  0  0  0  0  0
   -4.6555    0.1554   11.7904 S   0  0  0  0  0  0  0  0  0  0  0  0
   -2.5935   -0.1356   12.4127 H   0  0  0  0  0  0  0  0  0  0  0  0
   -2.8875    1.4162   11.8835 H   0  0  0  0  0  0  0  0  0  0  0  0
   -6.7307    1.5269   17.6410 C   0  0  0  0  0  0  0  0  0  0  0  0
   -6.7081    2.0505   19.0507 C   0  0  0  0  0  0  0  0  0  0  0  0
   -5.6934    1.9030   16.8932 N   0  0  0  0  0  0  0  0  0  0  0  0
   -7.6776    0.8769   17.1917 O   0  0  0  0  0  0  0  0  0  0  0  0
   -4.9718    2.3921   17.3507 H   0  0  0  0  0  0  0  0  0  0  0  0
  1  4  2  0  0  0
  1  9  1  0  0  0
  1  5  1  0  0  0
  2  3  2  0  0  0
  2 14  1  0  0  0
  2  5  1  0  0  0
 12 13  1  0  0  0
 12 14  1  0  0  0
 12 15  2  0  0  0
  6  9  1  0  0  0
  3  4  1  0  0  0
  7  9  2  0  0  0
  8  9  2  0  0  0
  6 10  1  0  0  0
  6 11  1  0  0  0
 14 16  1  0  0  0
M  END
> <minimizedAffinity>
-5.72895

$$$$
2H4N_AZM_A_264


 16 16  0  0  0  0  0  0  0  0999 V2000
   -4.1301    3.1033   12.6420 C   0  0  0  0  0  0  0  0  0  0  0  0
   -4.7353    2.5471   14.8838 C   0  0  0  0  0  0  0  0  0  0  0  0
   -3.5137    3.2074   14.8203 N   0  0  0  0  0  0  0  0  0  0  0  0
   -3.1636    3.5399   13.5218 N   0  0  0  0  0  0  0  0  0  0  0  0
   -5.4737    2.2461   13.3403 S   0  0  0  0  0  0  0  0  0  0  0  0
   -4.5963    2.0537   10.2674 N   0  0  0  0  0  0  0  0  0  0  0  0
   -4.9183    4.5025   10.5152 O   0  0  0  0  0  0  0  0  0  0  0  0
   -2.6031    3.4634   10.6766 O   0  0  0  0  0  0  0  0  0  0  0  0
   -4.0290    3.4189   10.9028 S   0  0  0  0  0  0  0  0  0  0  0  0
   -5.6040    2.0023   10.4165 H   0  0  0  0  0  0  0  0  0  0  0  0
   -4.1451    1.2565   10.7161 H   0  0  0  0  0  0  0  0  0  0  0  0
   -5.5421    0.9482   16.5226 C   0  0  0  0  0  0  0  0  0  0  0  0
   -6.2634    0.8728   17.8401 C   0  0  0  0  0  0  0  0  0  0  0  0
   -5.2700    2.1859   16.1095 N   0  0  0  0  0  0  0  0  0  0  0  0
   -5.3030   -0.0514   15.8410 O   0  0  0  0  0  0  0  0  0  0  0  0
   -5.4690    2.9166   16.7386 H   0  0  0  0  0  0  0  0  0  0  0  0
  1  4  2  0  0  0
  1  9  1  0  0  0
  1  5  1  0  0  0
  2  3  2  0  0  0
  2 14  1  0  0  0
  2  5  1  0  0  0
 12 13  1  0  0  0
 12 14  1  0  0  0
 12 15  2  0  0  0
  6  9  1  0  0  0
  3  4  1  0  0  0
  7  9  2  0  0  0
  8  9  2  0  0  0
  6 10  1  0  0  0
  6 11  1  0  0  0
 14 16  1  0  0  0
M  END
> <minimizedAffinity>
-5.64897

$$$$
2H4N_AZM_A_264


 16 16  0  0  0  0  0  0  0  0999 V2000
   -5.5840    2.1220   14.8843 C   0  0  0  0  0  0  0  0  0  0  0  0
   -5.7618    4.1483   13.6339 C   0  0  0  0  0  0  0  0  0  0  0  0
   -6.4592    4.2117   14.8347 N   0  0  0  0  0  0  0  0  0  0  0  0
   -6.3507    3.0410   15.5672 N   0  0  0  0  0  0  0  0  0  0  0  0
   -4.9984    2.6190   13.3230 S   0  0  0  0  0  0  0  0  0  0  0  0
   -3.8012    0.8170   16.3254 N   0  0  0  0  0  0  0  0  0  0  0  0
   -6.1762    0.1329   16.5561 O   0  0  0  0  0  0  0  0  0  0  0  0
   -4.9088   -0.2485   14.3849 O   0  0  0  0  0  0  0  0  0  0  0  0
   -5.1910    0.5354   15.5648 S   0  0  0  0  0  0  0  0  0  0  0  0
   -3.9784    1.3706   17.1636 H   0  0  0  0  0  0  0  0  0  0  0  0
   -3.1725    1.3290   15.7065 H   0  0  0  0  0  0  0  0  0  0  0  0
   -4.7908    6.2111   12.8002 C   0  0  0  0  0  0  0  0  0  0  0  0
   -5.0834    7.3643   11.8802 C   0  0  0  0  0  0  0  0  0  0  0  0
   -5.7144    5.2502   12.7958 N   0  0  0  0  0  0  0  0  0  0  0  0
   -3.8197    6.2010   13.5604 O   0  0  0  0  0  0  0  0  0  0  0  0
   -6.4352    5.3317   12.1301 H   0  0  0  0  0  0  0  0  0  0  0  0
  1  4  2  0  0  0
  1  9  1  0  0  0
  1  5  1  0  0  0
  2  3  2  0  0  0
  2 14  1  0  0  0
  2  5  1  0  0  0
 12 13  1  0  0  0
 12 14  1  0  0  0
 12 15  2  0  0  0
  6  9  1  0  0  0
  3  4  1  0  0  0
  7  9  2  0  0  0
  8  9  2  0  0  0
  6 10  1  0  0  0
  6 11  1  0  0  0
 14 16  1  0  0  0
M  END
> <minimizedAffinity>
-5.62664

$$$$
2H4N_AZM_A_264


 16 16  0  0  0  0  0  0  0  0999 V2000
   -4.7613    1.9542   14.9804 C   0  0  0  0  0  0  0  0  0  0  0  0
   -3.8143    3.2513   13.2135 C   0  0  0  0  0  0  0  0  0  0  0  0
   -3.3703    3.6669   14.4635 N   0  0  0  0  0  0  0  0  0  0  0  0
   -3.9106    2.9107   15.4907 N   0  0  0  0  0  0  0  0  0  0  0  0
   -4.9701    1.9549   13.2530 S   0  0  0  0  0  0  0  0  0  0  0  0
   -7.1165    0.9280   15.5791 N   0  0  0  0  0  0  0  0  0  0  0  0
   -5.1500   -0.5820   15.7005 O   0  0  0  0  0  0  0  0  0  0  0  0
   -5.4196    1.3503   17.3312 O   0  0  0  0  0  0  0  0  0  0  0  0
   -5.5758    0.7722   16.0168 S   0  0  0  0  0  0  0  0  0  0  0  0
   -7.2488    0.5252   14.6514 H   0  0  0  0  0  0  0  0  0  0  0  0
   -7.3659    1.9168   15.5591 H   0  0  0  0  0  0  0  0  0  0  0  0
   -2.2268    3.5363   11.3993 C   0  0  0  0  0  0  0  0  0  0  0  0
   -1.8753    4.4736   10.2768 C   0  0  0  0  0  0  0  0  0  0  0  0
   -3.3351    3.8599   12.0652 N   0  0  0  0  0  0  0  0  0  0  0  0
   -1.4988    2.5974   11.7298 O   0  0  0  0  0  0  0  0  0  0  0  0
   -3.8664    4.6063   11.7048 H   0  0  0  0  0  0  0  0  0  0  0  0
  1  4  2  0  0  0
  1  9  1  0  0  0
  1  5  1  0  0  0
  2  3  2  0  0  0
  2 14  1  0  0  0
  2  5  1  0  0  0
 12 13  1  0  0  0
 12 14  1  0  0  0
 12 15  2  0  0  0
  6  9  1  0  0  0
  3  4  1  0  0  0
  7  9  2  0  0  0
  8  9  2  0  0  0
  6 10  1  0  0  0
  6 11  1  0  0  0
 14 16  1  0  0  0
M  END
> <minimizedAffinity>
-5.62322

$$$$
2H4N_AZM_A_264


 16 16  0  0  0  0  0  0  0  0999 V2000
   -4.6923    1.8823   14.6110 C   0  0  0  0  0  0  0  0  0  0  0  0
   -3.9469    3.0286   12.6535 C   0  0  0  0  0  0  0  0  0  0  0  0
   -3.4373    3.5939   13.8167 N   0  0  0  0  0  0  0  0  0  0  0  0
   -3.8603    2.9258   14.9541 N   0  0  0  0  0  0  0  0  0  0  0  0
   -5.0246    1.6911   12.9138 S   0  0  0  0  0  0  0  0  0  0  0  0
   -6.9447    0.8622   15.5297 N   0  0  0  0  0  0  0  0  0  0  0  0
   -4.9307   -0.5879   15.5822 O   0  0  0  0  0  0  0  0  0  0  0  0
   -5.0975    1.4751   17.0593 O   0  0  0  0  0  0  0  0  0  0  0  0
   -5.3645    0.7794   15.8220 S   0  0  0  0  0  0  0  0  0  0  0  0
   -7.1552    0.3759   14.6582 H   0  0  0  0  0  0  0  0  0  0  0  0
   -7.2250    1.8397   15.4498 H   0  0  0  0  0  0  0  0  0  0  0  0
   -4.1589    4.5544   10.7773 C   0  0  0  0  0  0  0  0  0  0  0  0
   -3.6547    4.7798    9.3785 C   0  0  0  0  0  0  0  0  0  0  0  0
   -3.5855    3.5344   11.4157 N   0  0  0  0  0  0  0  0  0  0  0  0
   -5.0890    5.2057   11.2584 O   0  0  0  0  0  0  0  0  0  0  0  0
   -2.8294    3.0967   10.9619 H   0  0  0  0  0  0  0  0  0  0  0  0
  1  4  2  0  0  0
  1  9  1  0  0  0
  1  5  1  0  0  0
  2  3  2  0  0  0
  2 14  1  0  0  0
  2  5  1  0  0  0
 12 13  1  0  0  0
 12 14  1  0  0  0
 12 15  2  0  0  0
  6  9  1  0  0  0
  3  4  1  0  0  0
  7  9  2  0  0  0
  8  9  2  0  0  0
  6 10  1  0  0  0
  6 11  1  0  0  0
 14 16  1  0  0  0
M  END
> <minimizedAffinity>
-5.52062

$$$$
