4IBK_1DE_A_401


 36 40  0  0  0  0  0  0  0  0999 V2000
    2.5075   21.0141    0.4495 C   0  0  0  0  0  0  0  0  0  0  0  0
    3.5468   20.2884    1.0120 C   0  0  0  0  0  0  0  0  0  0  0  0
    3.2616   18.9308    0.8155 C   0  0  0  0  0  0  0  0  0  0  0  0
    4.0000   17.8532    1.2335 O   0  0  0  0  0  0  0  0  0  0  0  0
    2.0784   18.8779    0.0990 C   0  0  0  0  0  0  0  0  0  0  0  0
    1.4212   17.7478   -0.3323 O   0  0  0  0  0  0  0  0  0  0  0  0
    1.6823   20.1326   -0.1314 N   0  0  0  0  0  0  0  0  0  0  0  0
    4.7922   17.9868    1.7158 H   0  0  0  0  0  0  0  0  0  0  0  0
    1.3483   21.5955    2.5168 C   0  0  0  0  0  0  0  0  0  0  0  0
    0.7984   22.4972    3.4456 C   0  0  0  0  0  0  0  0  0  0  0  0
    0.1555   22.3195    4.6599 O   0  0  0  0  0  0  0  0  0  0  0  0
   -0.1873   23.5786    5.1483 C   0  0  0  0  0  0  0  0  0  0  0  0
    0.2957   24.5350    4.2468 O   0  0  0  0  0  0  0  0  0  0  0  0
    0.8863   23.8373    3.2032 C   0  0  0  0  0  0  0  0  0  0  0  0
    1.5042   24.2958    2.0418 C   0  0  0  0  0  0  0  0  0  0  0  0
    1.5422   26.0121    1.8492 Cl  0  0  0  0  0  0  0  0  0  0  0  0
    2.0484   23.4217    1.1068 C   0  0  0  0  0  0  0  0  0  0  0  0
    1.9523   22.0549    1.3579 C   0  0  0  0  0  0  0  0  0  0  0  0
    0.5834   20.4709   -0.9687 C   0  0  0  0  0  0  0  0  0  0  0  0
    0.7674   20.4032   -2.3384 C   0  0  0  0  0  0  0  0  0  0  0  0
   -0.6385   20.8553   -0.4284 C   0  0  0  0  0  0  0  0  0  0  0  0
   -1.6723   21.1755   -1.2873 C   0  0  0  0  0  0  0  0  0  0  0  0
   -1.4856   21.1081   -2.6654 C   0  0  0  0  0  0  0  0  0  0  0  0
   -0.2640   20.7236   -3.1948 C   0  0  0  0  0  0  0  0  0  0  0  0
   -0.0458   20.6444   -4.6701 C   0  0  0  0  0  0  0  0  0  0  0  0
   -0.5150   19.6810   -5.3268 O   0  0  0  0  0  0  0  0  0  0  0  0
    0.6047   21.5412   -5.2664 O   0  0  0  0  0  0  0  0  0  0  0  0
    0.9579   22.2628   -4.7843 H   0  0  0  0  0  0  0  0  0  0  0  0
    4.7994   20.9361    1.4870 C   0  0  0  0  0  0  0  0  0  0  0  0
    5.2858   21.8452    0.8289 O   0  0  0  0  0  0  0  0  0  0  0  0
    5.5189   20.5145    2.7136 C   0  0  0  0  0  0  0  0  0  0  0  0
    5.0313   19.8664    3.8622 C   0  0  0  0  0  0  0  0  0  0  0  0
    6.0408   19.6117    4.8472 C   0  0  0  0  0  0  0  0  0  0  0  0
    7.3074   20.0754    4.4583 C   0  0  0  0  0  0  0  0  0  0  0  0
    8.7865   19.9868    5.3212 Cl  0  0  0  0  0  0  0  0  0  0  0  0
    7.1571   20.7822    2.9442 S   0  0  0  0  0  0  0  0  0  0  0  0
 12 11  1  0  0  0
 12 13  1  0  0  0
 35 34  1  0  0  0
 11 10  1  0  0  0
 33 34  2  0  0  0
 33 32  1  0  0  0
 13 14  1  0  0  0
 34 36  1  0  0  0
 32 31  2  0  0  0
 10 14  2  0  0  0
 10  9  1  0  0  0
 14 15  1  0  0  0
 36 31  1  0  0  0
 31 29  1  0  0  0
  9 18  2  0  0  0
 15 16  1  0  0  0
 15 17  2  0  0  0
 29 30  2  0  0  0
 29  2  1  0  0  0
  4  3  1  0  0  0
 18 17  1  0  0  0
 18  1  1  0  0  0
  2  3  2  0  0  0
  2  1  1  0  0  0
  3  5  1  0  0  0
  1  7  1  0  0  0
  5  6  2  0  0  0
  5  7  1  0  0  0
 26 25  2  0  0  0
  7 19  1  0  0  0
 20 19  2  0  0  0
 20 24  1  0  0  0
 19 21  1  0  0  0
 25 24  1  0  0  0
 25 27  1  0  0  0
 24 23  2  0  0  0
 21 22  2  0  0  0
 23 22  1  0  0  0
  4  8  1  0  0  0
 27 28  1  0  0  0
M  END
> <minimizedAffinity>
-8.32949

$$$$
4IBK_1DE_A_401


 36 40  0  0  0  0  0  0  0  0999 V2000
    2.3044   21.2940    0.3838 C   0  0  0  0  0  0  0  0  0  0  0  0
    3.3180   20.4991    0.8975 C   0  0  0  0  0  0  0  0  0  0  0  0
    2.9903   19.1676    0.6096 C   0  0  0  0  0  0  0  0  0  0  0  0
    3.6925   18.0412    0.9551 O   0  0  0  0  0  0  0  0  0  0  0  0
    1.8086   19.2010   -0.1104 C   0  0  0  0  0  0  0  0  0  0  0  0
    1.1171   18.1242   -0.6177 O   0  0  0  0  0  0  0  0  0  0  0  0
    1.4535   20.4804   -0.2563 N   0  0  0  0  0  0  0  0  0  0  0  0
    4.4868   18.1166    1.4463 H   0  0  0  0  0  0  0  0  0  0  0  0
    1.1456   21.7720    2.4776 C   0  0  0  0  0  0  0  0  0  0  0  0
    0.6204   22.6263    3.4637 C   0  0  0  0  0  0  0  0  0  0  0  0
   -0.0422   22.3881    4.6568 O   0  0  0  0  0  0  0  0  0  0  0  0
   -0.3419   23.6218    5.2309 C   0  0  0  0  0  0  0  0  0  0  0  0
    0.1874   24.6202    4.4040 O   0  0  0  0  0  0  0  0  0  0  0  0
    0.7623   23.9758    3.3183 C   0  0  0  0  0  0  0  0  0  0  0  0
    1.4101   24.4910    2.1977 C   0  0  0  0  0  0  0  0  0  0  0  0
    1.5159   26.2139    2.1283 Cl  0  0  0  0  0  0  0  0  0  0  0  0
    1.9306   23.6649    1.2073 C   0  0  0  0  0  0  0  0  0  0  0  0
    1.7794   22.2885    1.3595 C   0  0  0  0  0  0  0  0  0  0  0  0
    0.3689   20.9094   -1.0704 C   0  0  0  0  0  0  0  0  0  0  0  0
   -0.8907   20.4124   -0.7864 C   0  0  0  0  0  0  0  0  0  0  0  0
    0.5672   21.8023   -2.1175 C   0  0  0  0  0  0  0  0  0  0  0  0
   -0.5209   22.1844   -2.8784 C   0  0  0  0  0  0  0  0  0  0  0  0
   -1.7877   21.6827   -2.5924 C   0  0  0  0  0  0  0  0  0  0  0  0
   -1.9758   20.7933   -1.5464 C   0  0  0  0  0  0  0  0  0  0  0  0
   -3.3274   20.2459   -1.2241 C   0  0  0  0  0  0  0  0  0  0  0  0
   -3.8965   19.4593   -2.0221 O   0  0  0  0  0  0  0  0  0  0  0  0
   -3.9039   20.5641   -0.1520 O   0  0  0  0  0  0  0  0  0  0  0  0
   -3.4866   21.1500    0.4484 H   0  0  0  0  0  0  0  0  0  0  0  0
    4.5890   21.0729    1.4167 C   0  0  0  0  0  0  0  0  0  0  0  0
    5.1118   22.0014    0.8162 O   0  0  0  0  0  0  0  0  0  0  0  0
    5.2840   20.5545    2.6200 C   0  0  0  0  0  0  0  0  0  0  0  0
    4.7594   19.8934    3.7447 C   0  0  0  0  0  0  0  0  0  0  0  0
    5.7539   19.5321    4.7114 C   0  0  0  0  0  0  0  0  0  0  0  0
    7.0469   19.9265    4.3329 C   0  0  0  0  0  0  0  0  0  0  0  0
    8.5205   19.7047    5.1811 Cl  0  0  0  0  0  0  0  0  0  0  0  0
    6.9375   20.7033    2.8499 S   0  0  0  0  0  0  0  0  0  0  0  0
 12 11  1  0  0  0
 12 13  1  0  0  0
 35 34  1  0  0  0
 11 10  1  0  0  0
 33 34  2  0  0  0
 33 32  1  0  0  0
 13 14  1  0  0  0
 34 36  1  0  0  0
 32 31  2  0  0  0
 10 14  2  0  0  0
 10  9  1  0  0  0
 14 15  1  0  0  0
 36 31  1  0  0  0
 31 29  1  0  0  0
  9 18  2  0  0  0
 15 16  1  0  0  0
 15 17  2  0  0  0
 29 30  2  0  0  0
 29  2  1  0  0  0
  4  3  1  0  0  0
 18 17  1  0  0  0
 18  1  1  0  0  0
  2  3  2  0  0  0
  2  1  1  0  0  0
  3  5  1  0  0  0
  1  7  1  0  0  0
  5  6  2  0  0  0
  5  7  1  0  0  0
 26 25  2  0  0  0
  7 19  1  0  0  0
 20 19  2  0  0  0
 20 24  1  0  0  0
 19 21  1  0  0  0
 25 24  1  0  0  0
 25 27  1  0  0  0
 24 23  2  0  0  0
 21 22  2  0  0  0
 23 22  1  0  0  0
  4  8  1  0  0  0
 27 28  1  0  0  0
M  END
> <minimizedAffinity>
-8.11987

$$$$
4IBK_1DE_A_401


 36 40  0  0  0  0  0  0  0  0999 V2000
    2.5345   20.4354    0.3728 C   0  0  0  0  0  0  0  0  0  0  0  0
    3.4119   19.5866    1.0307 C   0  0  0  0  0  0  0  0  0  0  0  0
    2.9369   18.2798    0.8572 C   0  0  0  0  0  0  0  0  0  0  0  0
    3.4735   17.1224    1.3607 O   0  0  0  0  0  0  0  0  0  0  0  0
    1.8092   18.3747    0.0601 C   0  0  0  0  0  0  0  0  0  0  0  0
    1.0174   17.3386   -0.3811 O   0  0  0  0  0  0  0  0  0  0  0  0
    1.6248   19.6637   -0.2375 N   0  0  0  0  0  0  0  0  0  0  0  0
    4.2433   17.1561    1.8938 H   0  0  0  0  0  0  0  0  0  0  0  0
    2.3554   22.8467    0.7026 C   0  0  0  0  0  0  0  0  0  0  0  0
    1.9666   23.9993    1.4086 C   0  0  0  0  0  0  0  0  0  0  0  0
    2.1003   25.3526    1.1441 O   0  0  0  0  0  0  0  0  0  0  0  0
    1.5317   26.0522    2.2065 C   0  0  0  0  0  0  0  0  0  0  0  0
    1.0022   25.1159    3.1028 O   0  0  0  0  0  0  0  0  0  0  0  0
    1.2971   23.8611    2.5897 C   0  0  0  0  0  0  0  0  0  0  0  0
    1.0179   22.5902    3.0873 C   0  0  0  0  0  0  0  0  0  0  0  0
    0.1740   22.5518    4.5941 Cl  0  0  0  0  0  0  0  0  0  0  0  0
    1.3993   21.4373    2.4091 C   0  0  0  0  0  0  0  0  0  0  0  0
    2.0856   21.5848    1.2059 C   0  0  0  0  0  0  0  0  0  0  0  0
    0.6477   20.1273   -1.1614 C   0  0  0  0  0  0  0  0  0  0  0  0
    0.9616   20.0923   -2.5085 C   0  0  0  0  0  0  0  0  0  0  0  0
   -0.5854   20.5985   -0.7254 C   0  0  0  0  0  0  0  0  0  0  0  0
   -1.4973   21.0390   -1.6653 C   0  0  0  0  0  0  0  0  0  0  0  0
   -1.1798   21.0045   -3.0204 C   0  0  0  0  0  0  0  0  0  0  0  0
    0.0518   20.5327   -3.4458 C   0  0  0  0  0  0  0  0  0  0  0  0
    0.4092   20.4871   -4.8950 C   0  0  0  0  0  0  0  0  0  0  0  0
    0.5416   19.3816   -5.4780 O   0  0  0  0  0  0  0  0  0  0  0  0
    0.5766   21.5524   -5.5433 O   0  0  0  0  0  0  0  0  0  0  0  0
    0.4798   22.3808   -5.1162 H   0  0  0  0  0  0  0  0  0  0  0  0
    4.7145   20.0588    1.5732 C   0  0  0  0  0  0  0  0  0  0  0  0
    5.3894   20.8341    0.9102 O   0  0  0  0  0  0  0  0  0  0  0  0
    5.2633   19.6116    2.8765 C   0  0  0  0  0  0  0  0  0  0  0  0
    4.6339   19.5160    4.1303 C   0  0  0  0  0  0  0  0  0  0  0  0
    5.4949   19.0277    5.1668 C   0  0  0  0  0  0  0  0  0  0  0  0
    6.7943   18.7570    4.7099 C   0  0  0  0  0  0  0  0  0  0  0  0
    8.1364   18.1679    5.5999 Cl  0  0  0  0  0  0  0  0  0  0  0  0
    6.8550   19.1256    3.0744 S   0  0  0  0  0  0  0  0  0  0  0  0
 12 11  1  0  0  0
 12 13  1  0  0  0
 35 34  1  0  0  0
 11 10  1  0  0  0
 33 34  2  0  0  0
 33 32  1  0  0  0
 13 14  1  0  0  0
 34 36  1  0  0  0
 32 31  2  0  0  0
 10 14  2  0  0  0
 10  9  1  0  0  0
 14 15  1  0  0  0
 36 31  1  0  0  0
 31 29  1  0  0  0
  9 18  2  0  0  0
 15 16  1  0  0  0
 15 17  2  0  0  0
 29 30  2  0  0  0
 29  2  1  0  0  0
  4  3  1  0  0  0
 18 17  1  0  0  0
 18  1  1  0  0  0
  2  3  2  0  0  0
  2  1  1  0  0  0
  3  5  1  0  0  0
  1  7  1  0  0  0
  5  6  2  0  0  0
  5  7  1  0  0  0
 26 25  2  0  0  0
  7 19  1  0  0  0
 20 19  2  0  0  0
 20 24  1  0  0  0
 19 21  1  0  0  0
 25 24  1  0  0  0
 25 27  1  0  0  0
 24 23  2  0  0  0
 21 22  2  0  0  0
 23 22  1  0  0  0
  4  8  1  0  0  0
 27 28  1  0  0  0
M  END
> <minimizedAffinity>
-7.99783

$$$$
4IBK_1DE_A_401


 36 40  0  0  0  0  0  0  0  0999 V2000
    1.5841   20.8157    1.1953 C   0  0  0  0  0  0  0  0  0  0  0  0
    2.4323   19.7496    0.9360 C   0  0  0  0  0  0  0  0  0  0  0  0
    3.7437   20.2417    0.9724 C   0  0  0  0  0  0  0  0  0  0  0  0
    4.9034   19.5461    0.7437 O   0  0  0  0  0  0  0  0  0  0  0  0
    3.6505   21.5839    1.2977 C   0  0  0  0  0  0  0  0  0  0  0  0
    4.6905   22.4716    1.4571 O   0  0  0  0  0  0  0  0  0  0  0  0
    2.3575   21.8778    1.4588 N   0  0  0  0  0  0  0  0  0  0  0  0
    4.8685   18.6349    0.5281 H   0  0  0  0  0  0  0  0  0  0  0  0
   -0.7632   20.4674    0.6258 C   0  0  0  0  0  0  0  0  0  0  0  0
   -1.8814   20.5446   -0.2237 C   0  0  0  0  0  0  0  0  0  0  0  0
   -3.2046   20.1635   -0.0716 O   0  0  0  0  0  0  0  0  0  0  0  0
   -3.8756   20.4743   -1.2525 C   0  0  0  0  0  0  0  0  0  0  0  0
   -2.9634   21.0963   -2.1137 O   0  0  0  0  0  0  0  0  0  0  0  0
   -1.7418   21.1132   -1.4564 C   0  0  0  0  0  0  0  0  0  0  0  0
   -0.5005   21.5973   -1.8633 C   0  0  0  0  0  0  0  0  0  0  0  0
   -0.4549   22.2847   -3.4475 Cl  0  0  0  0  0  0  0  0  0  0  0  0
    0.6198   21.5248   -1.0422 C   0  0  0  0  0  0  0  0  0  0  0  0
    0.4719   20.9400    0.2134 C   0  0  0  0  0  0  0  0  0  0  0  0
    1.8883   23.1301    1.9434 C   0  0  0  0  0  0  0  0  0  0  0  0
    1.0787   23.1287    3.0654 C   0  0  0  0  0  0  0  0  0  0  0  0
    2.2343   24.3191    1.3114 C   0  0  0  0  0  0  0  0  0  0  0  0
    1.7492   25.5075    1.8225 C   0  0  0  0  0  0  0  0  0  0  0  0
    0.9336   25.5047    2.9509 C   0  0  0  0  0  0  0  0  0  0  0  0
    0.5943   24.3146    3.5744 C   0  0  0  0  0  0  0  0  0  0  0  0
   -0.2782   24.2923    4.7863 C   0  0  0  0  0  0  0  0  0  0  0  0
   -1.4639   24.7033    4.7181 O   0  0  0  0  0  0  0  0  0  0  0  0
    0.1646   23.8594    5.8816 O   0  0  0  0  0  0  0  0  0  0  0  0
    1.0475   23.5511    5.9410 H   0  0  0  0  0  0  0  0  0  0  0  0
    1.9470   18.3438    0.8903 C   0  0  0  0  0  0  0  0  0  0  0  0
    1.5767   17.8080    1.9256 O   0  0  0  0  0  0  0  0  0  0  0  0
    1.9165   17.5335   -0.3517 C   0  0  0  0  0  0  0  0  0  0  0  0
    2.9247   16.7452   -0.9342 C   0  0  0  0  0  0  0  0  0  0  0  0
    2.5153   16.0957   -2.1444 C   0  0  0  0  0  0  0  0  0  0  0  0
    1.1903   16.3944   -2.4990 C   0  0  0  0  0  0  0  0  0  0  0  0
    0.3005   15.8450   -3.8578 Cl  0  0  0  0  0  0  0  0  0  0  0  0
    0.5678   17.4376   -1.3420 S   0  0  0  0  0  0  0  0  0  0  0  0
 12 11  1  0  0  0
 12 13  1  0  0  0
 35 34  1  0  0  0
 11 10  1  0  0  0
 33 34  2  0  0  0
 33 32  1  0  0  0
 13 14  1  0  0  0
 34 36  1  0  0  0
 32 31  2  0  0  0
 10 14  2  0  0  0
 10  9  1  0  0  0
 14 15  1  0  0  0
 36 31  1  0  0  0
 31 29  1  0  0  0
  9 18  2  0  0  0
 15 16  1  0  0  0
 15 17  2  0  0  0
 29 30  2  0  0  0
 29  2  1  0  0  0
  4  3  1  0  0  0
 18 17  1  0  0  0
 18  1  1  0  0  0
  2  3  2  0  0  0
  2  1  1  0  0  0
  3  5  1  0  0  0
  1  7  1  0  0  0
  5  6  2  0  0  0
  5  7  1  0  0  0
 26 25  2  0  0  0
  7 19  1  0  0  0
 20 19  2  0  0  0
 20 24  1  0  0  0
 19 21  1  0  0  0
 25 24  1  0  0  0
 25 27  1  0  0  0
 24 23  2  0  0  0
 21 22  2  0  0  0
 23 22  1  0  0  0
  4  8  1  0  0  0
 27 28  1  0  0  0
M  END
> <minimizedAffinity>
-7.92694

$$$$
4IBK_1DE_A_401


 36 40  0  0  0  0  0  0  0  0999 V2000
    1.6046   20.8371    1.1946 C   0  0  0  0  0  0  0  0  0  0  0  0
    2.4477   19.7638    0.9489 C   0  0  0  0  0  0  0  0  0  0  0  0
    3.7618   20.2485    0.9876 C   0  0  0  0  0  0  0  0  0  0  0  0
    4.9185   19.5441    0.7707 O   0  0  0  0  0  0  0  0  0  0  0  0
    3.6749   21.5940    1.3007 C   0  0  0  0  0  0  0  0  0  0  0  0
    4.7193   22.4770    1.4576 O   0  0  0  0  0  0  0  0  0  0  0  0
    2.3829   21.8969    1.4528 N   0  0  0  0  0  0  0  0  0  0  0  0
    4.8792   18.6313    0.5629 H   0  0  0  0  0  0  0  0  0  0  0  0
   -0.7478   20.5229    0.6261 C   0  0  0  0  0  0  0  0  0  0  0  0
   -1.8617   20.6015   -0.2289 C   0  0  0  0  0  0  0  0  0  0  0  0
   -3.1930   20.2517   -0.0717 O   0  0  0  0  0  0  0  0  0  0  0  0
   -3.8540   20.5463   -1.2623 C   0  0  0  0  0  0  0  0  0  0  0  0
   -2.9267   21.1274   -2.1358 O   0  0  0  0  0  0  0  0  0  0  0  0
   -1.7069   21.1358   -1.4750 C   0  0  0  0  0  0  0  0  0  0  0  0
   -0.4547   21.5838   -1.8898 C   0  0  0  0  0  0  0  0  0  0  0  0
   -0.3903   22.2298   -3.4907 Cl  0  0  0  0  0  0  0  0  0  0  0  0
    0.6615   21.5091   -1.0633 C   0  0  0  0  0  0  0  0  0  0  0  0
    0.4979   20.9594    0.2061 C   0  0  0  0  0  0  0  0  0  0  0  0
    1.9188   23.1561    1.9241 C   0  0  0  0  0  0  0  0  0  0  0  0
    1.1069   23.1696    3.0444 C   0  0  0  0  0  0  0  0  0  0  0  0
    2.2717   24.3372    1.2812 C   0  0  0  0  0  0  0  0  0  0  0  0
    1.7913   25.5329    1.7796 C   0  0  0  0  0  0  0  0  0  0  0  0
    0.9734   25.5450    2.9063 C   0  0  0  0  0  0  0  0  0  0  0  0
    0.6272   24.3627    3.5408 C   0  0  0  0  0  0  0  0  0  0  0  0
   -0.2479   24.3565    4.7510 C   0  0  0  0  0  0  0  0  0  0  0  0
   -1.4308   24.7744    4.6768 O   0  0  0  0  0  0  0  0  0  0  0  0
    0.1899   23.9303    5.8509 O   0  0  0  0  0  0  0  0  0  0  0  0
    1.0707   23.6169    5.9148 H   0  0  0  0  0  0  0  0  0  0  0  0
    1.9543   18.3605    0.9129 C   0  0  0  0  0  0  0  0  0  0  0  0
    2.2502   17.6498   -0.0376 O   0  0  0  0  0  0  0  0  0  0  0  0
    1.0854   17.7763    1.9634 C   0  0  0  0  0  0  0  0  0  0  0  0
    1.2093   17.8298    3.3631 C   0  0  0  0  0  0  0  0  0  0  0  0
    0.1585   17.1453    4.0569 C   0  0  0  0  0  0  0  0  0  0  0  0
   -0.7712   16.5545    3.1867 C   0  0  0  0  0  0  0  0  0  0  0  0
   -2.1698   15.6436    3.5793 Cl  0  0  0  0  0  0  0  0  0  0  0  0
   -0.2833   16.8745    1.6138 S   0  0  0  0  0  0  0  0  0  0  0  0
 12 11  1  0  0  0
 12 13  1  0  0  0
 35 34  1  0  0  0
 11 10  1  0  0  0
 33 34  2  0  0  0
 33 32  1  0  0  0
 13 14  1  0  0  0
 34 36  1  0  0  0
 32 31  2  0  0  0
 10 14  2  0  0  0
 10  9  1  0  0  0
 14 15  1  0  0  0
 36 31  1  0  0  0
 31 29  1  0  0  0
  9 18  2  0  0  0
 15 16  1  0  0  0
 15 17  2  0  0  0
 29 30  2  0  0  0
 29  2  1  0  0  0
  4  3  1  0  0  0
 18 17  1  0  0  0
 18  1  1  0  0  0
  2  3  2  0  0  0
  2  1  1  0  0  0
  3  5  1  0  0  0
  1  7  1  0  0  0
  5  6  2  0  0  0
  5  7  1  0  0  0
 26 25  2  0  0  0
  7 19  1  0  0  0
 20 19  2  0  0  0
 20 24  1  0  0  0
 19 21  1  0  0  0
 25 24  1  0  0  0
 25 27  1  0  0  0
 24 23  2  0  0  0
 21 22  2  0  0  0
 23 22  1  0  0  0
  4  8  1  0  0  0
 27 28  1  0  0  0
M  END
> <minimizedAffinity>
-7.62395

$$$$
4IBK_1DE_A_401


 36 40  0  0  0  0  0  0  0  0999 V2000
    2.4455   19.9959    2.0056 C   0  0  0  0  0  0  0  0  0  0  0  0
    1.8551   19.5699    0.8253 C   0  0  0  0  0  0  0  0  0  0  0  0
    2.8796   19.1029   -0.0087 C   0  0  0  0  0  0  0  0  0  0  0  0
    2.7605   18.6146   -1.2847 O   0  0  0  0  0  0  0  0  0  0  0  0
    4.0559   19.2193    0.7117 C   0  0  0  0  0  0  0  0  0  0  0  0
    5.3202   18.8685    0.2952 O   0  0  0  0  0  0  0  0  0  0  0  0
    3.7529   19.7168    1.9138 N   0  0  0  0  0  0  0  0  0  0  0  0
    1.9186   18.5735   -1.6939 H   0  0  0  0  0  0  0  0  0  0  0  0
    2.3046   22.3903    1.5556 C   0  0  0  0  0  0  0  0  0  0  0  0
    1.9306   23.7121    1.8575 C   0  0  0  0  0  0  0  0  0  0  0  0
    2.0885   24.9107    1.1810 O   0  0  0  0  0  0  0  0  0  0  0  0
    1.5250   25.9177    1.9619 C   0  0  0  0  0  0  0  0  0  0  0  0
    0.9743   25.3196    3.1019 O   0  0  0  0  0  0  0  0  0  0  0  0
    1.2515   23.9631    3.0143 C   0  0  0  0  0  0  0  0  0  0  0  0
    0.9481   22.9182    3.8843 C   0  0  0  0  0  0  0  0  0  0  0  0
    0.0943   23.3692    5.3167 Cl  0  0  0  0  0  0  0  0  0  0  0  0
    1.3145   21.6050    3.6089 C   0  0  0  0  0  0  0  0  0  0  0  0
    2.0106   21.3556    2.4284 C   0  0  0  0  0  0  0  0  0  0  0  0
    4.6902   19.8343    2.9771 C   0  0  0  0  0  0  0  0  0  0  0  0
    4.6238   18.9101    4.0046 C   0  0  0  0  0  0  0  0  0  0  0  0
    5.6454   20.8446    2.9832 C   0  0  0  0  0  0  0  0  0  0  0  0
    6.5305   20.9143    4.0418 C   0  0  0  0  0  0  0  0  0  0  0  0
    6.4619   19.9844    5.0757 C   0  0  0  0  0  0  0  0  0  0  0  0
    5.5066   18.9806    5.0609 C   0  0  0  0  0  0  0  0  0  0  0  0
    5.4189   17.9738    6.1605 C   0  0  0  0  0  0  0  0  0  0  0  0
    6.1930   16.9838    6.1732 O   0  0  0  0  0  0  0  0  0  0  0  0
    4.5739   18.1104    7.0827 O   0  0  0  0  0  0  0  0  0  0  0  0
    3.9930   18.8456    7.0807 H   0  0  0  0  0  0  0  0  0  0  0  0
    0.3797   19.4456    0.6772 C   0  0  0  0  0  0  0  0  0  0  0  0
   -0.2646   18.9084    1.5673 O   0  0  0  0  0  0  0  0  0  0  0  0
   -0.3602   19.9142   -0.5198 C   0  0  0  0  0  0  0  0  0  0  0  0
   -0.5948   21.2240   -0.9744 C   0  0  0  0  0  0  0  0  0  0  0  0
   -1.3523   21.2806   -2.1897 C   0  0  0  0  0  0  0  0  0  0  0  0
   -1.7104   20.0094   -2.6654 C   0  0  0  0  0  0  0  0  0  0  0  0
   -2.6121   19.6110   -4.0684 Cl  0  0  0  0  0  0  0  0  0  0  0  0
   -1.1055   18.8674   -1.5957 S   0  0  0  0  0  0  0  0  0  0  0  0
 12 11  1  0  0  0
 12 13  1  0  0  0
 35 34  1  0  0  0
 11 10  1  0  0  0
 33 34  2  0  0  0
 33 32  1  0  0  0
 13 14  1  0  0  0
 34 36  1  0  0  0
 32 31  2  0  0  0
 10 14  2  0  0  0
 10  9  1  0  0  0
 14 15  1  0  0  0
 36 31  1  0  0  0
 31 29  1  0  0  0
  9 18  2  0  0  0
 15 16  1  0  0  0
 15 17  2  0  0  0
 29 30  2  0  0  0
 29  2  1  0  0  0
  4  3  1  0  0  0
 18 17  1  0  0  0
 18  1  1  0  0  0
  2  3  2  0  0  0
  2  1  1  0  0  0
  3  5  1  0  0  0
  1  7  1  0  0  0
  5  6  2  0  0  0
  5  7  1  0  0  0
 26 25  2  0  0  0
  7 19  1  0  0  0
 20 19  2  0  0  0
 20 24  1  0  0  0
 19 21  1  0  0  0
 25 24  1  0  0  0
 25 27  1  0  0  0
 24 23  2  0  0  0
 21 22  2  0  0  0
 23 22  1  0  0  0
  4  8  1  0  0  0
 27 28  1  0  0  0
M  END
> <minimizedAffinity>
-7.35543

$$$$
4IBK_1DE_A_401


 36 40  0  0  0  0  0  0  0  0999 V2000
    0.9161   20.4867    1.6898 C   0  0  0  0  0  0  0  0  0  0  0  0
    1.4493   19.5740    2.5875 C   0  0  0  0  0  0  0  0  0  0  0  0
    0.6687   18.4127    2.5145 C   0  0  0  0  0  0  0  0  0  0  0  0
    0.8127   17.2622    3.2472 O   0  0  0  0  0  0  0  0  0  0  0  0
   -0.2872   18.6428    1.5402 C   0  0  0  0  0  0  0  0  0  0  0  0
   -1.2661   17.7717    1.1183 O   0  0  0  0  0  0  0  0  0  0  0  0
   -0.0846   19.8681    1.0484 N   0  0  0  0  0  0  0  0  0  0  0  0
    1.4928   17.1972    3.8885 H   0  0  0  0  0  0  0  0  0  0  0  0
   -0.1932   21.8967    3.3440 C   0  0  0  0  0  0  0  0  0  0  0  0
   -0.4702   23.1218    3.9770 C   0  0  0  0  0  0  0  0  0  0  0  0
   -1.2881   23.4654    5.0411 O   0  0  0  0  0  0  0  0  0  0  0  0
   -1.1788   24.8408    5.2351 C   0  0  0  0  0  0  0  0  0  0  0  0
   -0.2471   25.3319    4.3125 O   0  0  0  0  0  0  0  0  0  0  0  0
    0.1614   24.2514    3.5442 C   0  0  0  0  0  0  0  0  0  0  0  0
    1.0581   24.1835    2.4803 C   0  0  0  0  0  0  0  0  0  0  0  0
    1.7831   25.6836    2.0237 Cl  0  0  0  0  0  0  0  0  0  0  0  0
    1.3414   22.9841    1.8355 C   0  0  0  0  0  0  0  0  0  0  0  0
    0.6908   21.8351    2.2794 C   0  0  0  0  0  0  0  0  0  0  0  0
   -0.7830   20.3920   -0.0745 C   0  0  0  0  0  0  0  0  0  0  0  0
   -0.0362   20.8924   -1.1263 C   0  0  0  0  0  0  0  0  0  0  0  0
   -2.1726   20.3989   -0.1157 C   0  0  0  0  0  0  0  0  0  0  0  0
   -2.8006   20.9218   -1.2298 C   0  0  0  0  0  0  0  0  0  0  0  0
   -2.0481   21.4261   -2.2870 C   0  0  0  0  0  0  0  0  0  0  0  0
   -0.6633   21.4147   -2.2372 C   0  0  0  0  0  0  0  0  0  0  0  0
    0.1602   21.9501   -3.3622 C   0  0  0  0  0  0  0  0  0  0  0  0
    0.1093   21.4086   -4.4952 O   0  0  0  0  0  0  0  0  0  0  0  0
    0.9066   22.9476   -3.1861 O   0  0  0  0  0  0  0  0  0  0  0  0
    0.9503   23.3572   -2.3445 H   0  0  0  0  0  0  0  0  0  0  0  0
    2.7543   19.7995    3.2659 C   0  0  0  0  0  0  0  0  0  0  0  0
    2.7874   19.8606    4.4871 O   0  0  0  0  0  0  0  0  0  0  0  0
    4.0301   19.9887    2.5335 C   0  0  0  0  0  0  0  0  0  0  0  0
    4.6587   21.1757    2.1175 C   0  0  0  0  0  0  0  0  0  0  0  0
    5.9002   20.9568    1.4357 C   0  0  0  0  0  0  0  0  0  0  0  0
    6.2218   19.5954    1.3181 C   0  0  0  0  0  0  0  0  0  0  0  0
    7.5963   18.8845    0.5796 Cl  0  0  0  0  0  0  0  0  0  0  0  0
    4.9905   18.7092    2.0344 S   0  0  0  0  0  0  0  0  0  0  0  0
 12 11  1  0  0  0
 12 13  1  0  0  0
 35 34  1  0  0  0
 11 10  1  0  0  0
 33 34  2  0  0  0
 33 32  1  0  0  0
 13 14  1  0  0  0
 34 36  1  0  0  0
 32 31  2  0  0  0
 10 14  2  0  0  0
 10  9  1  0  0  0
 14 15  1  0  0  0
 36 31  1  0  0  0
 31 29  1  0  0  0
  9 18  2  0  0  0
 15 16  1  0  0  0
 15 17  2  0  0  0
 29 30  2  0  0  0
 29  2  1  0  0  0
  4  3  1  0  0  0
 18 17  1  0  0  0
 18  1  1  0  0  0
  2  3  2  0  0  0
  2  1  1  0  0  0
  3  5  1  0  0  0
  1  7  1  0  0  0
  5  6  2  0  0  0
  5  7  1  0  0  0
 26 25  2  0  0  0
  7 19  1  0  0  0
 20 19  2  0  0  0
 20 24  1  0  0  0
 19 21  1  0  0  0
 25 24  1  0  0  0
 25 27  1  0  0  0
 24 23  2  0  0  0
 21 22  2  0  0  0
 23 22  1  0  0  0
  4  8  1  0  0  0
 27 28  1  0  0  0
M  END
> <minimizedAffinity>
-7.18462

$$$$
4IBK_1DE_A_401


 36 40  0  0  0  0  0  0  0  0999 V2000
    1.6217   20.1529    0.9679 C   0  0  0  0  0  0  0  0  0  0  0  0
    2.1764   19.2191    1.8301 C   0  0  0  0  0  0  0  0  0  0  0  0
    1.4495   18.0305    1.6812 C   0  0  0  0  0  0  0  0  0  0  0  0
    1.6294   16.8512    2.3579 O   0  0  0  0  0  0  0  0  0  0  0  0
    0.5040   18.2690    0.6987 C   0  0  0  0  0  0  0  0  0  0  0  0
   -0.4268   17.3794    0.2117 O   0  0  0  0  0  0  0  0  0  0  0  0
    0.6622   19.5255    0.2740 N   0  0  0  0  0  0  0  0  0  0  0  0
    2.2987   16.7826    3.0101 H   0  0  0  0  0  0  0  0  0  0  0  0
    1.9746   22.5642    1.0960 C   0  0  0  0  0  0  0  0  0  0  0  0
    1.7585   23.8452    1.6349 C   0  0  0  0  0  0  0  0  0  0  0  0
    2.2584   25.0964    1.3124 O   0  0  0  0  0  0  0  0  0  0  0  0
    1.6996   26.0184    2.1951 C   0  0  0  0  0  0  0  0  0  0  0  0
    0.8126   25.3294    3.0312 O   0  0  0  0  0  0  0  0  0  0  0  0
    0.8809   23.9917    2.6696 C   0  0  0  0  0  0  0  0  0  0  0  0
    0.2216   22.8786    3.1863 C   0  0  0  0  0  0  0  0  0  0  0  0
   -0.8551   23.1969    4.4993 Cl  0  0  0  0  0  0  0  0  0  0  0  0
    0.4256   21.6020    2.6733 C   0  0  0  0  0  0  0  0  0  0  0  0
    1.3254   21.4583    1.6196 C   0  0  0  0  0  0  0  0  0  0  0  0
   -0.0360   20.0759   -0.8363 C   0  0  0  0  0  0  0  0  0  0  0  0
    0.6181   20.1225   -2.0547 C   0  0  0  0  0  0  0  0  0  0  0  0
   -1.3361   20.5500   -0.7028 C   0  0  0  0  0  0  0  0  0  0  0  0
   -1.9673   21.0768   -1.8131 C   0  0  0  0  0  0  0  0  0  0  0  0
   -1.3078   21.1242   -3.0383 C   0  0  0  0  0  0  0  0  0  0  0  0
   -0.0119   20.6489   -3.1620 C   0  0  0  0  0  0  0  0  0  0  0  0
    0.7107   20.6904   -4.4683 C   0  0  0  0  0  0  0  0  0  0  0  0
    0.6378   19.7181   -5.2612 O   0  0  0  0  0  0  0  0  0  0  0  0
    1.3935   21.6983   -4.7862 O   0  0  0  0  0  0  0  0  0  0  0  0
    1.4531   22.4274   -4.2008 H   0  0  0  0  0  0  0  0  0  0  0  0
    3.4564   19.4653    2.5478 C   0  0  0  0  0  0  0  0  0  0  0  0
    3.4237   19.8999    3.6907 O   0  0  0  0  0  0  0  0  0  0  0  0
    4.7887   19.2406    1.9359 C   0  0  0  0  0  0  0  0  0  0  0  0
    5.2388   18.1803    1.1294 C   0  0  0  0  0  0  0  0  0  0  0  0
    6.6039   18.3168    0.7147 C   0  0  0  0  0  0  0  0  0  0  0  0
    7.2085   19.4815    1.2132 C   0  0  0  0  0  0  0  0  0  0  0  0
    8.8134   20.0358    0.9741 Cl  0  0  0  0  0  0  0  0  0  0  0  0
    6.0737   20.2965    2.1419 S   0  0  0  0  0  0  0  0  0  0  0  0
 12 11  1  0  0  0
 12 13  1  0  0  0
 35 34  1  0  0  0
 11 10  1  0  0  0
 33 34  2  0  0  0
 33 32  1  0  0  0
 13 14  1  0  0  0
 34 36  1  0  0  0
 32 31  2  0  0  0
 10 14  2  0  0  0
 10  9  1  0  0  0
 14 15  1  0  0  0
 36 31  1  0  0  0
 31 29  1  0  0  0
  9 18  2  0  0  0
 15 16  1  0  0  0
 15 17  2  0  0  0
 29 30  2  0  0  0
 29  2  1  0  0  0
  4  3  1  0  0  0
 18 17  1  0  0  0
 18  1  1  0  0  0
  2  3  2  0  0  0
  2  1  1  0  0  0
  3  5  1  0  0  0
  1  7  1  0  0  0
  5  6  2  0  0  0
  5  7  1  0  0  0
 26 25  2  0  0  0
  7 19  1  0  0  0
 20 19  2  0  0  0
 20 24  1  0  0  0
 19 21  1  0  0  0
 25 24  1  0  0  0
 25 27  1  0  0  0
 24 23  2  0  0  0
 21 22  2  0  0  0
 23 22  1  0  0  0
  4  8  1  0  0  0
 27 28  1  0  0  0
M  END
> <minimizedAffinity>
-7.08410

$$$$
4IBK_1DE_A_401


 36 40  0  0  0  0  0  0  0  0999 V2000
    5.4076   18.7574    3.6470 C   0  0  0  0  0  0  0  0  0  0  0  0
    5.3968   19.9870    3.0058 C   0  0  0  0  0  0  0  0  0  0  0  0
    6.5044   20.7090    3.4697 C   0  0  0  0  0  0  0  0  0  0  0  0
    6.8714   21.9858    3.1290 O   0  0  0  0  0  0  0  0  0  0  0  0
    7.1779   19.8749    4.3454 C   0  0  0  0  0  0  0  0  0  0  0  0
    8.3356   20.1584    5.0343 O   0  0  0  0  0  0  0  0  0  0  0  0
    6.5185   18.7143    4.3952 N   0  0  0  0  0  0  0  0  0  0  0  0
    6.3509   22.4773    2.5245 H   0  0  0  0  0  0  0  0  0  0  0  0
    3.6987   19.1465    5.3451 C   0  0  0  0  0  0  0  0  0  0  0  0
    2.4736   18.8888    5.9861 C   0  0  0  0  0  0  0  0  0  0  0  0
    1.8390   19.4742    7.0695 O   0  0  0  0  0  0  0  0  0  0  0  0
    0.6363   18.8009    7.2732 C   0  0  0  0  0  0  0  0  0  0  0  0
    0.5140   17.8284    6.2732 O   0  0  0  0  0  0  0  0  0  0  0  0
    1.6667   17.8993    5.5045 C   0  0  0  0  0  0  0  0  0  0  0  0
    2.0659   17.1516    4.3989 C   0  0  0  0  0  0  0  0  0  0  0  0
    0.9597   15.9244    3.8942 Cl  0  0  0  0  0  0  0  0  0  0  0  0
    3.2761   17.3848    3.7543 C   0  0  0  0  0  0  0  0  0  0  0  0
    4.0971   18.3937    4.2528 C   0  0  0  0  0  0  0  0  0  0  0  0
    6.9997   17.5631    5.0780 C   0  0  0  0  0  0  0  0  0  0  0  0
    6.6169   17.3838    6.3954 C   0  0  0  0  0  0  0  0  0  0  0  0
    7.8269   16.6449    4.4413 C   0  0  0  0  0  0  0  0  0  0  0  0
    8.2677   15.5449    5.1517 C   0  0  0  0  0  0  0  0  0  0  0  0
    7.8827   15.3662    6.4777 C   0  0  0  0  0  0  0  0  0  0  0  0
    7.0575   16.2866    7.1040 C   0  0  0  0  0  0  0  0  0  0  0  0
    6.6333   16.1107    8.5251 C   0  0  0  0  0  0  0  0  0  0  0  0
    7.4155   15.5857    9.3570 O   0  0  0  0  0  0  0  0  0  0  0  0
    5.4937   16.4892    8.9007 O   0  0  0  0  0  0  0  0  0  0  0  0
    4.9045   16.8815    8.2869 H   0  0  0  0  0  0  0  0  0  0  0  0
    4.4784   20.2819    1.8729 C   0  0  0  0  0  0  0  0  0  0  0  0
    4.5104   19.5686    0.8798 O   0  0  0  0  0  0  0  0  0  0  0  0
    3.5356   21.4268    1.8664 C   0  0  0  0  0  0  0  0  0  0  0  0
    3.4044   22.4764    0.9400 C   0  0  0  0  0  0  0  0  0  0  0  0
    2.3615   23.4027    1.2690 C   0  0  0  0  0  0  0  0  0  0  0  0
    1.6953   23.0694    2.4588 C   0  0  0  0  0  0  0  0  0  0  0  0
    0.3996   23.8932    3.2221 Cl  0  0  0  0  0  0  0  0  0  0  0  0
    2.3972   21.6741    3.0712 S   0  0  0  0  0  0  0  0  0  0  0  0
 12 11  1  0  0  0
 12 13  1  0  0  0
 35 34  1  0  0  0
 11 10  1  0  0  0
 33 34  2  0  0  0
 33 32  1  0  0  0
 13 14  1  0  0  0
 34 36  1  0  0  0
 32 31  2  0  0  0
 10 14  2  0  0  0
 10  9  1  0  0  0
 14 15  1  0  0  0
 36 31  1  0  0  0
 31 29  1  0  0  0
  9 18  2  0  0  0
 15 16  1  0  0  0
 15 17  2  0  0  0
 29 30  2  0  0  0
 29  2  1  0  0  0
  4  3  1  0  0  0
 18 17  1  0  0  0
 18  1  1  0  0  0
  2  3  2  0  0  0
  2  1  1  0  0  0
  3  5  1  0  0  0
  1  7  1  0  0  0
  5  6  2  0  0  0
  5  7  1  0  0  0
 26 25  2  0  0  0
  7 19  1  0  0  0
 20 19  2  0  0  0
 20 24  1  0  0  0
 19 21  1  0  0  0
 25 24  1  0  0  0
 25 27  1  0  0  0
 24 23  2  0  0  0
 21 22  2  0  0  0
 23 22  1  0  0  0
  4  8  1  0  0  0
 27 28  1  0  0  0
M  END
> <minimizedAffinity>
-7.08027

$$$$
4IBK_1DE_A_401


 36 40  0  0  0  0  0  0  0  0999 V2000
    2.3153   21.0725    2.6267 C   0  0  0  0  0  0  0  0  0  0  0  0
    2.7352   20.0063    1.8456 C   0  0  0  0  0  0  0  0  0  0  0  0
    2.4601   20.3331    0.5112 C   0  0  0  0  0  0  0  0  0  0  0  0
    2.6811   19.5608   -0.6004 O   0  0  0  0  0  0  0  0  0  0  0  0
    1.9223   21.6085    0.5222 C   0  0  0  0  0  0  0  0  0  0  0  0
    1.5125   22.3440   -0.5669 O   0  0  0  0  0  0  0  0  0  0  0  0
    1.8875   22.0278    1.7900 N   0  0  0  0  0  0  0  0  0  0  0  0
    3.0513   18.7048   -0.5101 H   0  0  0  0  0  0  0  0  0  0  0  0
    1.9723   20.9231    5.0382 C   0  0  0  0  0  0  0  0  0  0  0  0
    1.2421   20.5833    6.1912 C   0  0  0  0  0  0  0  0  0  0  0  0
    1.5022   20.7280    7.5443 O   0  0  0  0  0  0  0  0  0  0  0  0
    0.4191   20.2010    8.2446 C   0  0  0  0  0  0  0  0  0  0  0  0
   -0.5320   19.7766    7.3087 O   0  0  0  0  0  0  0  0  0  0  0  0
    0.0096   20.0139    6.0537 C   0  0  0  0  0  0  0  0  0  0  0  0
   -0.5048   19.7654    4.7831 C   0  0  0  0  0  0  0  0  0  0  0  0
   -2.0693   19.0339    4.7457 Cl  0  0  0  0  0  0  0  0  0  0  0  0
    0.2030   20.0870    3.6298 C   0  0  0  0  0  0  0  0  0  0  0  0
    1.4621   20.6645    3.7766 C   0  0  0  0  0  0  0  0  0  0  0  0
    1.5343   23.3513    2.1729 C   0  0  0  0  0  0  0  0  0  0  0  0
    0.6338   23.5069    3.2118 C   0  0  0  0  0  0  0  0  0  0  0  0
    2.0787   24.4548    1.5258 C   0  0  0  0  0  0  0  0  0  0  0  0
    1.6996   25.7184    1.9363 C   0  0  0  0  0  0  0  0  0  0  0  0
    0.7924   25.8737    2.9810 C   0  0  0  0  0  0  0  0  0  0  0  0
    0.2553   24.7678    3.6205 C   0  0  0  0  0  0  0  0  0  0  0  0
   -0.7180   24.9150    4.7436 C   0  0  0  0  0  0  0  0  0  0  0  0
   -1.7962   25.5362    4.5672 O   0  0  0  0  0  0  0  0  0  0  0  0
   -0.4686   24.4163    5.8715 O   0  0  0  0  0  0  0  0  0  0  0  0
    0.3329   23.9516    6.0114 H   0  0  0  0  0  0  0  0  0  0  0  0
    3.5403   18.8854    2.4017 C   0  0  0  0  0  0  0  0  0  0  0  0
    3.1785   17.7348    2.1985 O   0  0  0  0  0  0  0  0  0  0  0  0
    4.7559   19.0877    3.2270 C   0  0  0  0  0  0  0  0  0  0  0  0
    5.4290   20.2774    3.5571 C   0  0  0  0  0  0  0  0  0  0  0  0
    6.5751   20.0731    4.3929 C   0  0  0  0  0  0  0  0  0  0  0  0
    6.7899   18.7198    4.6978 C   0  0  0  0  0  0  0  0  0  0  0  0
    8.0338   18.0263    5.6528 Cl  0  0  0  0  0  0  0  0  0  0  0  0
    5.5925   17.8223    3.9394 S   0  0  0  0  0  0  0  0  0  0  0  0
 12 11  1  0  0  0
 12 13  1  0  0  0
 35 34  1  0  0  0
 11 10  1  0  0  0
 33 34  2  0  0  0
 33 32  1  0  0  0
 13 14  1  0  0  0
 34 36  1  0  0  0
 32 31  2  0  0  0
 10 14  2  0  0  0
 10  9  1  0  0  0
 14 15  1  0  0  0
 36 31  1  0  0  0
 31 29  1  0  0  0
  9 18  2  0  0  0
 15 16  1  0  0  0
 15 17  2  0  0  0
 29 30  2  0  0  0
 29  2  1  0  0  0
  4  3  1  0  0  0
 18 17  1  0  0  0
 18  1  1  0  0  0
  2  3  2  0  0  0
  2  1  1  0  0  0
  3  5  1  0  0  0
  1  7  1  0  0  0
  5  6  2  0  0  0
  5  7  1  0  0  0
 26 25  2  0  0  0
  7 19  1  0  0  0
 20 19  2  0  0  0
 20 24  1  0  0  0
 19 21  1  0  0  0
 25 24  1  0  0  0
 25 27  1  0  0  0
 24 23  2  0  0  0
 21 22  2  0  0  0
 23 22  1  0  0  0
  4  8  1  0  0  0
 27 28  1  0  0  0
M  END
> <minimizedAffinity>
-7.06419

$$$$
