5NGZ_2BG_A_201
  RCSB PDB12061719103D
Coordinates from PDB:5NGZ:A:201 Model:1 without hydrogens
 11 12  0  0  0  0            999 V2000
   -0.3930   11.5570    1.4130   N 0  0  0  0  0  0  0  0  0  0  0  0
   -0.2080   12.0150    0.1110   C 0  0  0  0  0  0  0  0  0  0  0  0
   -0.6290   11.4140   -1.1040   C 0  0  0  0  0  0  0  0  0  0  0  0
   -0.3550   12.0080   -2.3070   C 0  0  0  0  0  0  0  0  0  0  0  0
    0.3630   13.2100   -2.3540   C 0  0  0  0  0  0  0  0  0  0  0  0
    0.7820   13.8320   -1.1910   C 0  0  0  0  0  0  0  0  0  0  0  0
    0.5040   13.2350    0.0440   C 0  0  0  0  0  0  0  0  0  0  0  0
    0.9350   13.7770    1.6480   S 0  0  0  0  0  0  0  0  0  0  0  0
    0.1420   12.3490    2.2750   C 0  0  0  0  0  0  0  0  0  0  0  0
    0.0690   12.0810    3.7530   C 0  0  0  0  0  0  0  0  0  0  0  0
   -0.1540   10.6610    4.0360   N 0  0  0  0  0  0  0  0  0  0  0  0
  6  5  2  0  0  0  0
  6  7  1  0  0  0  0
  5  4  1  0  0  0  0
  8  7  1  0  0  0  0
  8  9  1  0  0  0  0
  7  2  2  0  0  0  0
  4  3  2  0  0  0  0
  2  3  1  0  0  0  0
  2  1  1  0  0  0  0
  9  1  2  0  0  0  0
  9 10  1  0  0  0  0
 10 11  1  0  0  0  0
A    1
NAG
A    2
CAJ
A    3
CAD
A    4
CAB
A    5
CAC
A    6
CAE
A    7
CAK
A    8
SAH
A    9
CAI
A   10
CAF
A   11
NAA
M  END
>  <InstanceId>
5NGZ_2BG_A_201

>  <ChemCompId>
2BG

>  <PdbId>
5NGZ

>  <ChainId>
A

>  <ResidueNumber>
201

>  <InsertionCode>


>  <Model>
1

>  <AltIds>


>  <MissingHeavyAtoms>
0

>  <ObservedFormula>
C8 N2 S

>  <Name>
1-(1,3-benzothiazol-2-yl)methanamine

>  <SystematicName>
1,3-benzothiazol-2-ylmethanamine

>  <Synonyms>


>  <Type>
NON-POLYMER

>  <Formula>
C8 H8 N2 S

>  <MolecularWeight>
164.228

>  <ModifiedDate>
2014-02-28

>  <Parent>


>  <OneLetterCode>


>  <SubcomponentList>


>  <AmbiguousFlag>
N

>  <InChI>
InChI=1S/C8H8N2S/c9-5-8-10-6-3-1-2-4-7(6)11-8/h1-4H,5,9H2

>  <InChIKey>
VLBUERZRFSORRZ-UHFFFAOYSA-N

>  <SMILES>
c1ccc2c(c1)nc(s2)CN

$$$$
