3RSX_RSV_A_397
  RCSB PDB12061710373D
Coordinates from PDB:3RSX:A:397 Model:1 without hydrogens
 16 18  0  0  0  0            999 V2000
   68.7880   50.1600    8.6480   C 0  0  0  0  0  0  0  0  0  0  0  0
   69.2030   49.0520    9.3910   C 0  0  0  0  0  0  0  0  0  0  0  0
   69.9150   49.2400   10.5760   C 0  0  0  0  0  0  0  0  0  0  0  0
   70.9380   50.7340   12.2170   C 0  0  0  0  0  0  0  0  0  0  0  0
   70.5800   51.7230   13.0850   C 0  0  0  0  0  0  0  0  0  0  0  0
   71.9660   49.9850   12.6560   C 0  0  0  0  0  0  0  0  0  0  0  0
   68.0850   50.0010    7.5150   N 0  0  0  0  0  0  0  0  0  0  0  0
   67.7600   48.7740    7.0550   C 0  0  0  0  0  0  0  0  0  0  0  0
   68.8890   47.7690    8.9420   C 0  0  0  0  0  0  0  0  0  0  0  0
   68.1580   47.6280    7.7560   C 0  0  0  0  0  0  0  0  0  0  0  0
   67.0760   48.6570    5.9170   N 0  0  0  0  0  0  0  0  0  0  0  0
   69.0880   51.4450    9.0980   C 0  0  0  0  0  0  0  0  0  0  0  0
   69.8070   51.6330   10.2810   C 0  0  0  0  0  0  0  0  0  0  0  0
   70.2390   50.5320   11.0220   C 0  0  0  0  0  0  0  0  0  0  0  0
   71.2760   51.8560   14.2250   C 0  0  0  0  0  0  0  0  0  0  0  0
   72.4190   50.6350   14.1680   S 0  0  0  0  0  0  0  0  0  0  0  0
  7  1  2  0  0  0  0
  1 12  1  0  0  0  0
  1  2  1  0  0  0  0
  9  2  2  0  0  0  0
  2  3  1  0  0  0  0
  3 14  2  0  0  0  0
 14  4  1  0  0  0  0
  4  6  2  0  0  0  0
  4  5  1  0  0  0  0
  5 15  2  0  0  0  0
  6 16  1  0  0  0  0
  8  7  1  0  0  0  0
 11  8  1  0  0  0  0
  8 10  2  0  0  0  0
 10  9  1  0  0  0  0
 12 13  2  0  0  0  0
 13 14  1  0  0  0  0
 16 15  1  0  0  0  0
A    1
C4
A    2
C5
A    3
C6
A    4
C7
A    5
C8
A    6
C10
A    7
N12
A    8
C13
A    9
C15
A   10
C14
A   11
N16
A   12
C3
A   13
C2
A   14
C1
A   15
C11
A   16
S9
M  END
>  <InstanceId>
3RSX_RSV_A_397

>  <ChemCompId>
RSV

>  <PdbId>
3RSX

>  <ChainId>
A

>  <ResidueNumber>
397

>  <InsertionCode>


>  <Model>
1

>  <AltIds>


>  <MissingHeavyAtoms>
0

>  <ObservedFormula>
C13 N2 S

>  <Name>
6-(thiophen-3-yl)quinolin-2-amine

>  <SystematicName>
6-thiophen-3-ylquinolin-2-amine

>  <Synonyms>


>  <Type>
NON-POLYMER

>  <Formula>
C13 H10 N2 S

>  <MolecularWeight>
226.297

>  <ModifiedDate>
2011-08-26

>  <Parent>


>  <OneLetterCode>


>  <SubcomponentList>


>  <AmbiguousFlag>
N

>  <InChI>
InChI=1S/C13H10N2S/c14-13-4-2-10-7-9(1-3-12(10)15-13)11-5-6-16-8-11/h1-8H,(H2,14,15)

>  <InChIKey>
SKHMHSCEONTQTF-UHFFFAOYSA-N

>  <SMILES>
c1cc(nc2c1cc(cc2)c3ccsc3)N

$$$$
