1Z6S_AMP_A_1101
  RCSB PDB12061704513D
Coordinates from PDB:1Z6S:A:1101 Model:1 without hydrogens
 23 25  0  0  0  0            999 V2000
   36.5640    3.2770   13.5170   P 0  0  0  0  0  0  0  0  0  0  0  0
   35.0570    3.4010   13.6430   O 0  0  0  0  0  0  0  0  0  0  0  0
   37.2200    4.1520   12.4810   O 0  0  0  0  0  0  0  0  0  0  0  0
   37.1240    1.8710   13.6030   O 0  0  0  0  0  0  0  0  0  0  0  0
   37.0790    3.8790   14.9080   O 0  0  0  0  0  0  0  0  0  0  0  0
   37.0180    5.2730   15.1930   C 0  0  0  0  0  0  0  0  0  0  0  0
   38.1040    5.5720   16.2110   C 0  0  0  0  0  0  0  0  0  0  0  0
   37.5740    5.4310   17.5400   O 0  0  0  0  0  0  0  0  0  0  0  0
   39.2660    4.5790   16.0950   C 0  0  0  0  0  0  0  0  0  0  0  0
   40.5090    5.2760   15.9320   O 0  0  0  0  0  0  0  0  0  0  0  0
   39.2570    3.7880   17.3970   C 0  0  0  0  0  0  0  0  0  0  0  0
   40.5890    3.4810   17.8430   O 0  0  0  0  0  0  0  0  0  0  0  0
   38.5330    4.7340   18.3470   C 0  0  0  0  0  0  0  0  0  0  0  0
   37.8970    4.0440   19.5010   N 0  0  0  0  0  0  0  0  0  0  0  0
   38.1490    2.7820   19.9340   C 0  0  0  0  0  0  0  0  0  0  0  0
   37.4050    2.4750   21.0100   N 0  0  0  0  0  0  0  0  0  0  0  0
   36.6710    3.5590   21.2820   C 0  0  0  0  0  0  0  0  0  0  0  0
   35.6800    3.8930   22.2950   C 0  0  0  0  0  0  0  0  0  0  0  0
   35.3730    2.9460   23.2290   N 0  0  0  0  0  0  0  0  0  0  0  0
   35.1250    5.1490   22.2450   N 0  0  0  0  0  0  0  0  0  0  0  0
   35.4600    6.0580   21.3070   C 0  0  0  0  0  0  0  0  0  0  0  0
   36.3690    5.8070   20.3380   N 0  0  0  0  0  0  0  0  0  0  0  0
   36.9900    4.5930   20.2930   C 0  0  0  0  0  0  0  0  0  0  0  0
  1  2  2  0  0  0  0
  1  3  1  0  0  0  0
  1  4  1  0  0  0  0
  1  5  1  0  0  0  0
  5  6  1  0  0  0  0
  6  7  1  0  0  0  0
  7  8  1  0  0  0  0
  7  9  1  0  0  0  0
  8 13  1  0  0  0  0
  9 10  1  0  0  0  0
  9 11  1  0  0  0  0
 11 12  1  0  0  0  0
 11 13  1  0  0  0  0
 13 14  1  0  0  0  0
 14 15  1  0  0  0  0
 14 23  1  0  0  0  0
 15 16  2  0  0  0  0
 16 17  1  0  0  0  0
 17 18  1  0  0  0  0
 17 23  2  0  0  0  0
 18 19  1  0  0  0  0
 18 20  2  0  0  0  0
 20 21  1  0  0  0  0
 21 22  2  0  0  0  0
 22 23  1  0  0  0  0
A    1
P
A    2
O1P
A    3
O2P
A    4
O3P
A    5
O5'
A    6
C5'
A    7
C4'
A    8
O4'
A    9
C3'
A   10
O3'
A   11
C2'
A   12
O2'
A   13
C1'
A   14
N9
A   15
C8
A   16
N7
A   17
C5
A   18
C6
A   19
N6
A   20
N1
A   21
C2
A   22
N3
A   23
C4
M  END
>  <InstanceId>
1Z6S_AMP_A_1101

>  <ChemCompId>
AMP

>  <PdbId>
1Z6S

>  <ChainId>
A

>  <ResidueNumber>
1101

>  <InsertionCode>


>  <Model>
1

>  <AltIds>


>  <MissingHeavyAtoms>
0

>  <ObservedFormula>
C10 N5 O7 P

>  <Name>
ADENOSINE MONOPHOSPHATE

>  <SystematicName>
[(2R,3S,4R,5R)-5-(6-aminopurin-9-yl)-3,4-bis(oxidanyl)oxolan-2-yl]methyl dihydrogen phosphate

>  <Synonyms>


>  <Type>
NON-POLYMER

>  <Formula>
C10 H14 N5 O7 P

>  <MolecularWeight>
347.221

>  <ModifiedDate>
2011-12-08

>  <Parent>


>  <OneLetterCode>


>  <SubcomponentList>


>  <AmbiguousFlag>
N

>  <InChI>
InChI=1S/C10H14N5O7P/c11-8-5-9(13-2-12-8)15(3-14-5)10-7(17)6(16)4(22-10)1-21-23(18,19)20/h2-4,6-7,10,16-17H,1H2,(H2,11,12,13)(H2,18,19,20)/t4-,6-,7-,10-/m1/s1

>  <InChIKey>
UDMBCSSLTHHNCD-KQYNXXCUSA-N

>  <SMILES>
c1nc(c2c(n1)n(cn2)[C@H]3[C@@H]([C@@H]([C@H](O3)COP(=O)(O)O)O)O)N

$$$$
