5UMX_RBF_B_201
  RCSB PDB06301801323D
Coordinates from PDB:5UMX:B:201 Model:1 without hydrogens
 27 29  0  0  0  0            999 V2000
   10.6790   -4.9510    7.9630   N 0  0  0  0  0  0  0  0  0  0  0  0
   11.4450   -4.7540    9.0740   C 0  0  0  0  0  0  0  0  0  0  0  0
   12.2520   -5.6610    9.4410   O 0  0  0  0  0  0  0  0  0  0  0  0
   11.3640   -3.6240    9.8130   N 0  0  0  0  0  0  0  0  0  0  0  0
   10.5230   -2.6220    9.5090   C 0  0  0  0  0  0  0  0  0  0  0  0
   10.4640   -1.5940   10.2330   O 0  0  0  0  0  0  0  0  0  0  0  0
    9.6630   -2.7580    8.2970   C 0  0  0  0  0  0  0  0  0  0  0  0
    8.7980   -1.7770    7.9400   N 0  0  0  0  0  0  0  0  0  0  0  0
    8.0300   -1.9550    6.8340   C 0  0  0  0  0  0  0  0  0  0  0  0
    7.1670   -0.9250    6.4970   C 0  0  0  0  0  0  0  0  0  0  0  0
    6.3580   -1.0280    5.3790   C 0  0  0  0  0  0  0  0  0  0  0  0
    5.4090    0.0990    5.0330   C 0  0  0  0  0  0  0  0  0  0  0  0
    6.4130   -2.2690    4.5650   C 0  0  0  0  0  0  0  0  0  0  0  0
    5.5210   -2.4180    3.3680   C 0  0  0  0  0  0  0  0  0  0  0  0
    7.2710   -3.3060    4.8960   C 0  0  0  0  0  0  0  0  0  0  0  0
    8.1050   -3.2130    6.0120   C 0  0  0  0  0  0  0  0  0  0  0  0
    8.9940   -4.2620    6.3820   N 0  0  0  0  0  0  0  0  0  0  0  0
    9.7810   -4.0330    7.5330   C 0  0  0  0  0  0  0  0  0  0  0  0
    9.1180   -5.5580    5.6380   C 0  0  0  0  0  0  0  0  0  0  0  0
    9.7570   -5.5210    4.2330   C 0  0  0  0  0  0  0  0  0  0  0  0
    8.7670   -5.2450    3.2450   O 0  0  0  0  0  0  0  0  0  0  0  0
   10.3680   -6.8050    3.6800   C 0  0  0  0  0  0  0  0  0  0  0  0
   10.8510   -7.6380    4.7400   O 0  0  0  0  0  0  0  0  0  0  0  0
   11.4730   -6.4720    2.6440   C 0  0  0  0  0  0  0  0  0  0  0  0
   11.0650   -5.4270    1.7290   O 0  0  0  0  0  0  0  0  0  0  0  0
   11.9250   -7.6900    1.8270   C 0  0  0  0  0  0  0  0  0  0  0  0
   13.1540   -8.2290    2.3350   O 0  0  0  0  0  0  0  0  0  0  0  0
  1  2  1  0  0  0  0
  1 18  2  0  0  0  0
  2  3  2  0  0  0  0
  2  4  1  0  0  0  0
  4  5  1  0  0  0  0
  5  6  2  0  0  0  0
  5  7  1  0  0  0  0
  7  8  2  0  0  0  0
  7 18  1  0  0  0  0
  8  9  1  0  0  0  0
  9 10  2  0  0  0  0
  9 16  1  0  0  0  0
 10 11  1  0  0  0  0
 11 12  1  0  0  0  0
 11 13  2  0  0  0  0
 13 14  1  0  0  0  0
 13 15  1  0  0  0  0
 15 16  2  0  0  0  0
 16 17  1  0  0  0  0
 17 18  1  0  0  0  0
 17 19  1  0  0  0  0
 19 20  1  0  0  0  0
 20 21  1  0  0  0  0
 20 22  1  0  0  0  0
 22 23  1  0  0  0  0
 22 24  1  0  0  0  0
 24 25  1  0  0  0  0
 24 26  1  0  0  0  0
 26 27  1  0  0  0  0
A    1
N1
A    2
C2
A    3
O2
A    4
N3
A    5
C4
A    6
O4
A    7
C4A
A    8
N5
A    9
C5A
A   10
C6
A   11
C7
A   12
C7M
A   13
C8
A   14
C8M
A   15
C9
A   16
C9A
A   17
N10
A   18
C10
A   19
C1'
A   20
C2'
A   21
O2'
A   22
C3'
A   23
O3'
A   24
C4'
A   25
O4'
A   26
C5'
A   27
O5'
M  END
>  <InstanceId>
5UMX_RBF_B_201

>  <ChemCompId>
RBF

>  <PdbId>
5UMX

>  <ChainId>
B

>  <ResidueNumber>
201

>  <InsertionCode>


>  <Model>
1

>  <AltIds>


>  <MissingHeavyAtoms>
0

>  <ObservedFormula>
C17 N4 O6

>  <Name>
RIBOFLAVIN

>  <SystematicName>
7,8-dimethyl-10-[(2S,3S,4R)-2,3,4,5-tetrakis(oxidanyl)pentyl]benzo[g]pteridine-2,4-dione

>  <Synonyms>
RIBOFLAVINE; VITAMIN B2

>  <Type>
NON-POLYMER

>  <Formula>
C17 H20 N4 O6

>  <MolecularWeight>
376.364

>  <ModifiedDate>
2016-02-17

>  <Parent>


>  <OneLetterCode>


>  <SubcomponentList>


>  <AmbiguousFlag>
N

>  <InChI>
InChI=1S/C17H20N4O6/c1-7-3-9-10(4-8(7)2)21(5-11(23)14(25)12(24)6-22)15-13(18-9)16(26)20-17(27)19-15/h3-4,11-12,14,22-25H,5-6H2,1-2H3,(H,20,26,27)/t11-,12+,14-/m0/s1

>  <InChIKey>
AUNGANRZJHBGPY-SCRDCRAPSA-N

>  <SMILES>
Cc1cc2c(cc1C)N(C3=NC(=O)NC(=O)C3=N2)C[C@@H]([C@@H]([C@@H](CO)O)O)O

$$$$
