5EHQ_5O2_A_1504


 54 61  0  0  0  0  0  0  0  0999 V2000
   35.9914   23.3844    6.3746 C   0  0  0  0  0  0  0  0  0  0  0  0
   37.3689   23.9266    6.5065 N   0  0  0  0  0  0  0  0  0  0  0  0
   37.6238   24.9458    7.5054 C   0  0  0  0  0  0  0  0  0  0  0  0
   38.3318   23.7283    5.3788 C   0  0  0  0  0  0  0  0  0  0  0  0
   38.0969   22.7476    4.2959 C   0  0  0  0  0  0  0  0  0  0  0  0
   40.4328   27.3353    8.4758 C   0  0  0  0  0  0  0  0  0  0  0  0
   41.3707   27.1065    7.4621 C   0  0  0  0  0  0  0  0  0  0  0  0
   40.7000   28.2424    9.4376 N   0  0  0  0  0  0  0  0  0  0  0  0
   38.9202   25.7134    7.5056 C   0  0  0  0  0  0  0  0  0  0  0  0
   39.2374   26.6269    8.5213 C   0  0  0  0  0  0  0  0  0  0  0  0
   39.9096   25.4916    6.3966 C   0  0  0  0  0  0  0  0  0  0  0  0
   41.1146   26.2090    6.4186 C   0  0  0  0  0  0  0  0  0  0  0  0
   39.6209   24.4550    5.3494 C   0  0  0  0  0  0  0  0  0  0  0  0
   40.5440   24.1927    4.3182 C   0  0  0  0  0  0  0  0  0  0  0  0
   40.2679   23.2531    3.3056 C   0  0  0  0  0  0  0  0  0  0  0  0
   39.0467   22.5566    3.2767 C   0  0  0  0  0  0  0  0  0  0  0  0
   38.8054   21.6605    2.2826 N   0  0  0  0  0  0  0  0  0  0  0  0
   41.5435   28.7497    9.4151 H   0  0  0  0  0  0  0  0  0  0  0  0
   40.0516   28.3972   10.1620 H   0  0  0  0  0  0  0  0  0  0  0  0
   39.4700   21.5264    1.5688 H   0  0  0  0  0  0  0  0  0  0  0  0
   37.9661   21.1460    2.2768 H   0  0  0  0  0  0  0  0  0  0  0  0
   36.6721   25.2429    8.6268 C   0  0  0  0  0  0  0  0  0  0  0  0
   34.8259   25.7771   10.6850 C   0  0  0  0  0  0  0  0  0  0  0  0
   35.4732   24.5353   10.6259 C   0  0  0  0  0  0  0  0  0  0  0  0
   36.4055   24.2744    9.6094 C   0  0  0  0  0  0  0  0  0  0  0  0
   35.0838   26.7359    9.6947 C   0  0  0  0  0  0  0  0  0  0  0  0
   35.9759   26.4584    8.6453 C   0  0  0  0  0  0  0  0  0  0  0  0
   35.7039   21.9283    6.7529 C   0  0  0  0  0  0  0  0  0  0  0  0
   34.4983   21.7094    7.6834 C   0  0  0  0  0  0  0  0  0  0  0  0
   33.2535   22.5797    7.4842 C   0  0  0  0  0  0  0  0  0  0  0  0
   32.0294   21.7747    7.9011 C   0  0  0  0  0  0  0  0  0  0  0  0
   31.6735   21.9100    9.3702 C   0  0  0  0  0  0  0  0  0  0  0  0
   31.4957   20.8630   10.2145 N   0  0  0  0  0  0  0  0  0  0  0  0
   31.1380   21.3528   11.4738 N   0  0  0  0  0  0  0  0  0  0  0  0
   31.0869   22.7445   11.2995 N   0  0  0  0  0  0  0  0  0  0  0  0
   31.3958   23.0871   10.0550 C   0  0  0  0  0  0  0  0  0  0  0  0
   30.7139   23.5481   12.4698 C   0  0  0  0  0  0  0  0  0  0  0  0
   30.6634   22.6690   13.7124 C   0  0  0  0  0  0  0  0  0  0  0  0
   29.4767   22.8681   14.5128 N   0  0  0  0  0  0  0  0  0  0  0  0
   29.5526   23.3997   15.3380 H   0  0  0  0  0  0  0  0  0  0  0  0
   28.2658   22.3598   14.1840 C   0  0  0  0  0  0  0  0  0  0  0  0
   27.2643   23.2111   13.4635 C   0  0  0  0  0  0  0  0  0  0  0  0
   27.5347   24.5255   13.0749 C   0  0  0  0  0  0  0  0  0  0  0  0
   25.8958   22.6715   13.2694 C   0  0  0  0  0  0  0  0  0  0  0  0
   24.9440   23.4589   12.6222 C   0  0  0  0  0  0  0  0  0  0  0  0
   25.2732   24.7573   12.2172 C   0  0  0  0  0  0  0  0  0  0  0  0
   26.5404   25.2873   12.4578 C   0  0  0  0  0  0  0  0  0  0  0  0
   25.5865   21.4078   13.6332 N   0  0  0  0  0  0  0  0  0  0  0  0
   26.4327   20.5644   14.2570 C   0  0  0  0  0  0  0  0  0  0  0  0
   25.9354   19.1518   14.5536 C   0  0  0  0  0  0  0  0  0  0  0  0
   27.8222   20.9982   14.6103 C   0  0  0  0  0  0  0  0  0  0  0  0
   28.7558   20.0822   15.3873 C   0  0  0  0  0  0  0  0  0  0  0  0
   28.1267   18.7841   15.9180 C   0  0  0  0  0  0  0  0  0  0  0  0
   26.6171   18.5887   15.7865 C   0  0  0  0  0  0  0  0  0  0  0  0
 17 16  1  0  0  0
 16 15  2  0  0  0
 16  5  1  0  0  0
 15 14  1  0  0  0
  5  4  2  0  0  0
 14 13  2  0  0  0
  4 13  1  0  0  0
  4  2  1  0  0  0
 13 11  1  0  0  0
  1  2  1  0  0  0
  1 28  1  0  0  0
  2  3  2  0  0  0
 28 29  1  0  0  0
 11 12  2  0  0  0
 11  9  1  0  0  0
 12  7  1  0  0  0
  3  9  1  0  0  0
  3 22  1  0  0  0
  9 10  2  0  0  0
 29 30  1  0  0  0
  7  6  2  0  0  0
 30 31  1  0  0  0
 31 32  1  0  0  0
 22 25  2  0  0  0
 22 27  1  0  0  0
 10  6  1  0  0  0
  6  8  1  0  0  0
 25 24  1  0  0  0
 32 33  1  0  0  0
 32 36  2  0  0  0
 27 26  2  0  0  0
 24 23  2  0  0  0
 33 34  2  0  0  0
 36 35  1  0  0  0
 26 23  1  0  0  0
 35 34  1  0  0  0
 35 37  1  0  0  0
 54 50  1  0  0  0
 54 53  1  0  0  0
 50 49  1  0  0  0
 37 38  1  0  0  0
 53 52  1  0  0  0
 52 51  1  0  0  0
 49 51  2  0  0  0
 49 48  1  0  0  0
 51 41  1  0  0  0
 48 44  2  0  0  0
 38 39  1  0  0  0
 44 45  1  0  0  0
 44 42  1  0  0  0
 41 39  1  0  0  0
 41 42  2  0  0  0
 45 46  2  0  0  0
 42 43  1  0  0  0
 46 47  1  0  0  0
 43 47  2  0  0  0
  8 18  1  0  0  0
  8 19  1  0  0  0
 17 20  1  0  0  0
 17 21  1  0  0  0
 39 40  1  0  0  0
M  CHG 1   2   1
M  END
> <minimizedAffinity>
-15.04653

$$$$
5EHQ_5O2_A_1504


 54 61  0  0  0  0  0  0  0  0999 V2000
   36.4555   22.5490    5.8298 C   0  0  0  0  0  0  0  0  0  0  0  0
   37.1402   23.7617    6.3488 N   0  0  0  0  0  0  0  0  0  0  0  0
   38.3665   24.1967    5.7096 C   0  0  0  0  0  0  0  0  0  0  0  0
   36.7998   24.2487    7.7218 C   0  0  0  0  0  0  0  0  0  0  0  0
   35.5951   23.7939    8.4508 C   0  0  0  0  0  0  0  0  0  0  0  0
   41.1599   26.7158    6.3364 C   0  0  0  0  0  0  0  0  0  0  0  0
   40.8115   27.2281    7.5917 C   0  0  0  0  0  0  0  0  0  0  0  0
   42.2705   27.1670    5.7181 N   0  0  0  0  0  0  0  0  0  0  0  0
   39.2351   25.2478    6.3503 C   0  0  0  0  0  0  0  0  0  0  0  0
   40.3680   25.7638    5.7043 C   0  0  0  0  0  0  0  0  0  0  0  0
   38.8783   25.7701    7.7133 C   0  0  0  0  0  0  0  0  0  0  0  0
   39.6941   26.7546    8.2897 C   0  0  0  0  0  0  0  0  0  0  0  0
   37.6217   25.2890    8.3798 C   0  0  0  0  0  0  0  0  0  0  0  0
   37.2356   25.7870    9.6397 C   0  0  0  0  0  0  0  0  0  0  0  0
   36.0820   25.3140   10.2951 C   0  0  0  0  0  0  0  0  0  0  0  0
   35.2834   24.3086    9.7218 C   0  0  0  0  0  0  0  0  0  0  0  0
   34.1793   23.8670   10.3814 N   0  0  0  0  0  0  0  0  0  0  0  0
   42.8385   27.8411    6.1565 H   0  0  0  0  0  0  0  0  0  0  0  0
   42.5130   26.8223    4.8284 H   0  0  0  0  0  0  0  0  0  0  0  0
   33.9606   24.2269   11.2712 H   0  0  0  0  0  0  0  0  0  0  0  0
   33.5986   23.1873    9.9690 H   0  0  0  0  0  0  0  0  0  0  0  0
   38.8027   23.7007    4.3623 C   0  0  0  0  0  0  0  0  0  0  0  0
   39.6708   22.8316    1.8284 C   0  0  0  0  0  0  0  0  0  0  0  0
   40.2785   22.3331    2.9889 C   0  0  0  0  0  0  0  0  0  0  0  0
   39.8354   22.7539    4.2526 C   0  0  0  0  0  0  0  0  0  0  0  0
   38.6503   23.7867    1.9413 C   0  0  0  0  0  0  0  0  0  0  0  0
   38.2409   24.2505    3.2028 C   0  0  0  0  0  0  0  0  0  0  0  0
   35.0369   22.6564    5.2623 C   0  0  0  0  0  0  0  0  0  0  0  0
   33.9975   21.7105    5.8887 C   0  0  0  0  0  0  0  0  0  0  0  0
   32.9311   22.3058    6.8135 C   0  0  0  0  0  0  0  0  0  0  0  0
   32.4273   21.2067    7.7401 C   0  0  0  0  0  0  0  0  0  0  0  0
   31.8867   21.7158    9.0636 C   0  0  0  0  0  0  0  0  0  0  0  0
   31.5680   23.0107    9.3132 N   0  0  0  0  0  0  0  0  0  0  0  0
   31.1432   23.1246   10.6400 N   0  0  0  0  0  0  0  0  0  0  0  0
   31.2668   21.8242   11.1533 N   0  0  0  0  0  0  0  0  0  0  0  0
   31.7129   20.9810   10.2305 C   0  0  0  0  0  0  0  0  0  0  0  0
   30.9011   21.6273   12.5612 C   0  0  0  0  0  0  0  0  0  0  0  0
   30.5417   22.9627   13.1991 C   0  0  0  0  0  0  0  0  0  0  0  0
   29.5305   22.8585   14.2263 N   0  0  0  0  0  0  0  0  0  0  0  0
   29.7557   23.1582   15.1367 H   0  0  0  0  0  0  0  0  0  0  0  0
   28.2890   22.3691   13.9987 C   0  0  0  0  0  0  0  0  0  0  0  0
   27.2552   23.2245   13.3304 C   0  0  0  0  0  0  0  0  0  0  0  0
   27.5232   24.5228   12.8896 C   0  0  0  0  0  0  0  0  0  0  0  0
   25.8657   22.7105   13.2492 C   0  0  0  0  0  0  0  0  0  0  0  0
   24.8856   23.5026   12.6521 C   0  0  0  0  0  0  0  0  0  0  0  0
   25.2106   24.7833   12.1912 C   0  0  0  0  0  0  0  0  0  0  0  0
   26.5024   25.2910   12.3263 C   0  0  0  0  0  0  0  0  0  0  0  0
   25.5582   21.4630   13.6667 N   0  0  0  0  0  0  0  0  0  0  0  0
   26.4302   20.6166   14.2496 C   0  0  0  0  0  0  0  0  0  0  0  0
   25.9273   19.2229   14.6175 C   0  0  0  0  0  0  0  0  0  0  0  0
   27.8501   21.0283   14.4907 C   0  0  0  0  0  0  0  0  0  0  0  0
   28.8189   20.1111   15.2219 C   0  0  0  0  0  0  0  0  0  0  0  0
   28.2040   18.8403   15.8297 C   0  0  0  0  0  0  0  0  0  0  0  0
   26.6851   18.6750   15.8123 C   0  0  0  0  0  0  0  0  0  0  0  0
 17 16  1  0  0  0
 16 15  2  0  0  0
 16  5  1  0  0  0
 15 14  1  0  0  0
  5  4  2  0  0  0
 14 13  2  0  0  0
  4 13  1  0  0  0
  4  2  1  0  0  0
 13 11  1  0  0  0
  1  2  1  0  0  0
  1 28  1  0  0  0
  2  3  2  0  0  0
 28 29  1  0  0  0
 11 12  2  0  0  0
 11  9  1  0  0  0
 12  7  1  0  0  0
  3  9  1  0  0  0
  3 22  1  0  0  0
  9 10  2  0  0  0
 29 30  1  0  0  0
  7  6  2  0  0  0
 30 31  1  0  0  0
 31 32  1  0  0  0
 22 25  2  0  0  0
 22 27  1  0  0  0
 10  6  1  0  0  0
  6  8  1  0  0  0
 25 24  1  0  0  0
 32 33  1  0  0  0
 32 36  2  0  0  0
 27 26  2  0  0  0
 24 23  2  0  0  0
 33 34  2  0  0  0
 36 35  1  0  0  0
 26 23  1  0  0  0
 35 34  1  0  0  0
 35 37  1  0  0  0
 54 50  1  0  0  0
 54 53  1  0  0  0
 50 49  1  0  0  0
 37 38  1  0  0  0
 53 52  1  0  0  0
 52 51  1  0  0  0
 49 51  2  0  0  0
 49 48  1  0  0  0
 51 41  1  0  0  0
 48 44  2  0  0  0
 38 39  1  0  0  0
 44 45  1  0  0  0
 44 42  1  0  0  0
 41 39  1  0  0  0
 41 42  2  0  0  0
 45 46  2  0  0  0
 42 43  1  0  0  0
 46 47  1  0  0  0
 43 47  2  0  0  0
  8 18  1  0  0  0
  8 19  1  0  0  0
 17 20  1  0  0  0
 17 21  1  0  0  0
 39 40  1  0  0  0
M  CHG 1   2   1
M  END
> <minimizedAffinity>
-14.33414

$$$$
5EHQ_5O2_A_1504


 54 61  0  0  0  0  0  0  0  0999 V2000
   36.5285   22.6088    5.6606 C   0  0  0  0  0  0  0  0  0  0  0  0
   37.2011   23.7922    6.2573 N   0  0  0  0  0  0  0  0  0  0  0  0
   38.4370   24.2638    5.6643 C   0  0  0  0  0  0  0  0  0  0  0  0
   36.8361   24.2022    7.6490 C   0  0  0  0  0  0  0  0  0  0  0  0
   35.6203   23.7059    8.3311 C   0  0  0  0  0  0  0  0  0  0  0  0
   41.2129   26.7489    6.4769 C   0  0  0  0  0  0  0  0  0  0  0  0
   40.8418   27.1906    7.7523 C   0  0  0  0  0  0  0  0  0  0  0  0
   42.3326   27.2354    5.9036 N   0  0  0  0  0  0  0  0  0  0  0  0
   39.2919   25.2793    6.3767 C   0  0  0  0  0  0  0  0  0  0  0  0
   40.4343   25.8320    5.7798 C   0  0  0  0  0  0  0  0  0  0  0  0
   38.9106   25.7250    7.7602 C   0  0  0  0  0  0  0  0  0  0  0  0
   39.7138   26.6775    8.4039 C   0  0  0  0  0  0  0  0  0  0  0  0
   37.6440   25.2059    8.3774 C   0  0  0  0  0  0  0  0  0  0  0  0
   37.2352   25.6330    9.6561 C   0  0  0  0  0  0  0  0  0  0  0  0
   36.0717   25.1227   10.2645 C   0  0  0  0  0  0  0  0  0  0  0  0
   35.2857   24.1492    9.6230 C   0  0  0  0  0  0  0  0  0  0  0  0
   34.1715   23.6700   10.2381 N   0  0  0  0  0  0  0  0  0  0  0  0
   42.8914   27.8851    6.3882 H   0  0  0  0  0  0  0  0  0  0  0  0
   42.5912   26.9406    5.0005 H   0  0  0  0  0  0  0  0  0  0  0  0
   33.9368   23.9800   11.1426 H   0  0  0  0  0  0  0  0  0  0  0  0
   33.5997   23.0132    9.7790 H   0  0  0  0  0  0  0  0  0  0  0  0
   38.8975   23.8435    4.2994 C   0  0  0  0  0  0  0  0  0  0  0  0
   39.7120   22.9931    1.7415 C   0  0  0  0  0  0  0  0  0  0  0  0
   38.6862   23.9390    1.8743 C   0  0  0  0  0  0  0  0  0  0  0  0
   38.2909   24.3751    3.1487 C   0  0  0  0  0  0  0  0  0  0  0  0
   40.3053   22.4543    2.8921 C   0  0  0  0  0  0  0  0  0  0  0  0
   39.8751   22.8485    4.1703 C   0  0  0  0  0  0  0  0  0  0  0  0
   35.0553   22.6936    5.2499 C   0  0  0  0  0  0  0  0  0  0  0  0
   34.1281   21.6402    5.8808 C   0  0  0  0  0  0  0  0  0  0  0  0
   32.8583   22.1166    6.5930 C   0  0  0  0  0  0  0  0  0  0  0  0
   32.4129   21.0309    7.5642 C   0  0  0  0  0  0  0  0  0  0  0  0
   31.8828   21.5629    8.8829 C   0  0  0  0  0  0  0  0  0  0  0  0
   31.5147   22.8512    9.0963 N   0  0  0  0  0  0  0  0  0  0  0  0
   31.1174   22.9937   10.4288 N   0  0  0  0  0  0  0  0  0  0  0  0
   31.3091   21.7185   10.9828 N   0  0  0  0  0  0  0  0  0  0  0  0
   31.7688   20.8629   10.0782 C   0  0  0  0  0  0  0  0  0  0  0  0
   30.9862   21.5559   12.4054 C   0  0  0  0  0  0  0  0  0  0  0  0
   30.5012   22.8781   12.9853 C   0  0  0  0  0  0  0  0  0  0  0  0
   29.6228   22.7225   14.1223 N   0  0  0  0  0  0  0  0  0  0  0  0
   29.9986   22.8442   15.0240 H   0  0  0  0  0  0  0  0  0  0  0  0
   28.3087   22.4176   14.0087 C   0  0  0  0  0  0  0  0  0  0  0  0
   27.8191   21.0520   14.3862 C   0  0  0  0  0  0  0  0  0  0  0  0
   28.6652   20.0626   14.8929 C   0  0  0  0  0  0  0  0  0  0  0  0
   26.4061   20.7076   14.0920 C   0  0  0  0  0  0  0  0  0  0  0  0
   25.9394   19.4337   14.4145 C   0  0  0  0  0  0  0  0  0  0  0  0
   26.8165   18.4871   14.9556 C   0  0  0  0  0  0  0  0  0  0  0  0
   28.1602   18.7911   15.1720 C   0  0  0  0  0  0  0  0  0  0  0  0
   25.5520   21.6301   13.5975 N   0  0  0  0  0  0  0  0  0  0  0  0
   25.8990   22.8879   13.2596 C   0  0  0  0  0  0  0  0  0  0  0  0
   24.7959   23.8178   12.7601 C   0  0  0  0  0  0  0  0  0  0  0  0
   27.3141   23.3562   13.4069 C   0  0  0  0  0  0  0  0  0  0  0  0
   27.7314   24.7464   12.9510 C   0  0  0  0  0  0  0  0  0  0  0  0
   26.6621   25.5478   12.1915 C   0  0  0  0  0  0  0  0  0  0  0  0
   25.3570   24.8539   11.8044 C   0  0  0  0  0  0  0  0  0  0  0  0
 17 16  1  0  0  0
 16 15  2  0  0  0
 16  5  1  0  0  0
 15 14  1  0  0  0
  5  4  2  0  0  0
 14 13  2  0  0  0
  4 13  1  0  0  0
  4  2  1  0  0  0
 13 11  1  0  0  0
  1  2  1  0  0  0
  1 28  1  0  0  0
  2  3  2  0  0  0
 28 29  1  0  0  0
 11 12  2  0  0  0
 11  9  1  0  0  0
 12  7  1  0  0  0
  3  9  1  0  0  0
  3 22  1  0  0  0
  9 10  2  0  0  0
 29 30  1  0  0  0
  7  6  2  0  0  0
 30 31  1  0  0  0
 31 32  1  0  0  0
 22 25  2  0  0  0
 22 27  1  0  0  0
 10  6  1  0  0  0
  6  8  1  0  0  0
 25 24  1  0  0  0
 32 33  1  0  0  0
 32 36  2  0  0  0
 27 26  2  0  0  0
 24 23  2  0  0  0
 33 34  2  0  0  0
 36 35  1  0  0  0
 26 23  1  0  0  0
 35 34  1  0  0  0
 35 37  1  0  0  0
 54 50  1  0  0  0
 54 53  1  0  0  0
 50 49  1  0  0  0
 37 38  1  0  0  0
 53 52  1  0  0  0
 52 51  1  0  0  0
 49 51  2  0  0  0
 49 48  1  0  0  0
 51 41  1  0  0  0
 48 44  2  0  0  0
 38 39  1  0  0  0
 44 45  1  0  0  0
 44 42  1  0  0  0
 41 39  1  0  0  0
 41 42  2  0  0  0
 45 46  2  0  0  0
 42 43  1  0  0  0
 46 47  1  0  0  0
 43 47  2  0  0  0
  8 18  1  0  0  0
  8 19  1  0  0  0
 17 20  1  0  0  0
 17 21  1  0  0  0
 39 40  1  0  0  0
M  CHG 1   2   1
M  END
> <minimizedAffinity>
-13.79954

$$$$
5EHQ_5O2_A_1504


 54 61  0  0  0  0  0  0  0  0999 V2000
   36.4471   22.9732    6.2749 C   0  0  0  0  0  0  0  0  0  0  0  0
   37.7050   23.7616    6.3454 N   0  0  0  0  0  0  0  0  0  0  0  0
   37.7812   24.8701    7.2766 C   0  0  0  0  0  0  0  0  0  0  0  0
   38.6764   23.6703    5.2114 C   0  0  0  0  0  0  0  0  0  0  0  0
   38.6121   22.5980    4.1937 C   0  0  0  0  0  0  0  0  0  0  0  0
   40.1209   27.7818    8.0442 C   0  0  0  0  0  0  0  0  0  0  0  0
   41.0745   27.6631    7.0263 C   0  0  0  0  0  0  0  0  0  0  0  0
   40.2292   28.7801    8.9447 N   0  0  0  0  0  0  0  0  0  0  0  0
   38.9172   25.8570    7.2039 C   0  0  0  0  0  0  0  0  0  0  0  0
   39.0740   26.8740    8.1568 C   0  0  0  0  0  0  0  0  0  0  0  0
   39.9192   25.7486    6.0894 C   0  0  0  0  0  0  0  0  0  0  0  0
   40.9746   26.6711    6.0434 C   0  0  0  0  0  0  0  0  0  0  0  0
   39.8124   24.6140    5.1117 C   0  0  0  0  0  0  0  0  0  0  0  0
   40.7574   24.4586    4.0786 C   0  0  0  0  0  0  0  0  0  0  0  0
   40.6457   23.4237    3.1296 C   0  0  0  0  0  0  0  0  0  0  0  0
   39.5705   22.5182    3.1677 C   0  0  0  0  0  0  0  0  0  0  0  0
   39.4854   21.5334    2.2338 N   0  0  0  0  0  0  0  0  0  0  0  0
   40.9666   29.4286    8.8744 H   0  0  0  0  0  0  0  0  0  0  0  0
   39.5708   28.8603    9.6722 H   0  0  0  0  0  0  0  0  0  0  0  0
   40.1561   21.4770    1.5153 H   0  0  0  0  0  0  0  0  0  0  0  0
   38.7531   20.8768    2.2762 H   0  0  0  0  0  0  0  0  0  0  0  0
   36.8027   25.0600    8.3982 C   0  0  0  0  0  0  0  0  0  0  0  0
   35.0235   25.4513   10.5455 C   0  0  0  0  0  0  0  0  0  0  0  0
   35.0934   26.3931    9.5098 C   0  0  0  0  0  0  0  0  0  0  0  0
   35.9686   26.1905    8.4312 C   0  0  0  0  0  0  0  0  0  0  0  0
   35.8674   24.3317   10.5164 C   0  0  0  0  0  0  0  0  0  0  0  0
   36.7829   24.1531    9.4656 C   0  0  0  0  0  0  0  0  0  0  0  0
   35.1572   23.6349    5.7805 C   0  0  0  0  0  0  0  0  0  0  0  0
   33.9990   22.6744    5.4587 C   0  0  0  0  0  0  0  0  0  0  0  0
   32.9441   22.4137    6.5386 C   0  0  0  0  0  0  0  0  0  0  0  0
   33.3969   23.0858    7.8284 C   0  0  0  0  0  0  0  0  0  0  0  0
   32.5039   22.7962    9.0209 C   0  0  0  0  0  0  0  0  0  0  0  0
   31.7409   21.6823    9.1533 N   0  0  0  0  0  0  0  0  0  0  0  0
   31.0202   21.7668   10.3480 N   0  0  0  0  0  0  0  0  0  0  0  0
   31.3865   23.0115   10.8830 N   0  0  0  0  0  0  0  0  0  0  0  0
   32.2606   23.6345   10.1024 C   0  0  0  0  0  0  0  0  0  0  0  0
   30.7660   23.3968   12.1562 C   0  0  0  0  0  0  0  0  0  0  0  0
   30.5208   22.1615   13.0127 C   0  0  0  0  0  0  0  0  0  0  0  0
   29.5924   22.3857   14.0973 N   0  0  0  0  0  0  0  0  0  0  0  0
   29.9415   22.7424   14.9458 H   0  0  0  0  0  0  0  0  0  0  0  0
   28.2663   22.1294   14.0041 C   0  0  0  0  0  0  0  0  0  0  0  0
   27.7381   20.7694   14.3484 C   0  0  0  0  0  0  0  0  0  0  0  0
   28.5604   19.7356   14.8032 C   0  0  0  0  0  0  0  0  0  0  0  0
   26.3080   20.4830   14.0758 C   0  0  0  0  0  0  0  0  0  0  0  0
   25.8047   19.2157   14.3675 C   0  0  0  0  0  0  0  0  0  0  0  0
   26.6601   18.2225   14.8574 C   0  0  0  0  0  0  0  0  0  0  0  0
   28.0179   18.4734   15.0525 C   0  0  0  0  0  0  0  0  0  0  0  0
   25.4757   21.4498   13.6313 N   0  0  0  0  0  0  0  0  0  0  0  0
   25.8585   22.7057   13.3263 C   0  0  0  0  0  0  0  0  0  0  0  0
   24.7777   23.6884   12.8827 C   0  0  0  0  0  0  0  0  0  0  0  0
   27.2919   23.1206   13.4561 C   0  0  0  0  0  0  0  0  0  0  0  0
   27.7469   24.5102   13.0360 C   0  0  0  0  0  0  0  0  0  0  0  0
   26.6896   25.3721   12.3276 C   0  0  0  0  0  0  0  0  0  0  0  0
   25.3532   24.7361   11.9484 C   0  0  0  0  0  0  0  0  0  0  0  0
 17 16  1  0  0  0
 16 15  2  0  0  0
 16  5  1  0  0  0
 15 14  1  0  0  0
  5  4  2  0  0  0
 14 13  2  0  0  0
  4 13  1  0  0  0
  4  2  1  0  0  0
 13 11  1  0  0  0
  1  2  1  0  0  0
  1 28  1  0  0  0
  2  3  2  0  0  0
 28 29  1  0  0  0
 11 12  2  0  0  0
 11  9  1  0  0  0
 12  7  1  0  0  0
  3  9  1  0  0  0
  3 22  1  0  0  0
  9 10  2  0  0  0
 29 30  1  0  0  0
  7  6  2  0  0  0
 30 31  1  0  0  0
 31 32  1  0  0  0
 22 25  2  0  0  0
 22 27  1  0  0  0
 10  6  1  0  0  0
  6  8  1  0  0  0
 25 24  1  0  0  0
 32 33  1  0  0  0
 32 36  2  0  0  0
 27 26  2  0  0  0
 24 23  2  0  0  0
 33 34  2  0  0  0
 36 35  1  0  0  0
 26 23  1  0  0  0
 35 34  1  0  0  0
 35 37  1  0  0  0
 54 50  1  0  0  0
 54 53  1  0  0  0
 50 49  1  0  0  0
 37 38  1  0  0  0
 53 52  1  0  0  0
 52 51  1  0  0  0
 49 51  2  0  0  0
 49 48  1  0  0  0
 51 41  1  0  0  0
 48 44  2  0  0  0
 38 39  1  0  0  0
 44 45  1  0  0  0
 44 42  1  0  0  0
 41 39  1  0  0  0
 41 42  2  0  0  0
 45 46  2  0  0  0
 42 43  1  0  0  0
 46 47  1  0  0  0
 43 47  2  0  0  0
  8 18  1  0  0  0
  8 19  1  0  0  0
 17 20  1  0  0  0
 17 21  1  0  0  0
 39 40  1  0  0  0
M  CHG 1   2   1
M  END
> <minimizedAffinity>
-13.26434

$$$$
5EHQ_5O2_A_1504


 54 61  0  0  0  0  0  0  0  0999 V2000
   36.8306   25.4929    7.6620 C   0  0  0  0  0  0  0  0  0  0  0  0
   37.8369   25.3060    6.5843 N   0  0  0  0  0  0  0  0  0  0  0  0
   37.7058   24.1655    5.6989 C   0  0  0  0  0  0  0  0  0  0  0  0
   39.1445   26.0253    6.6875 C   0  0  0  0  0  0  0  0  0  0  0  0
   39.3585   27.1565    7.6171 C   0  0  0  0  0  0  0  0  0  0  0  0
   39.7545   22.4079    3.0053 C   0  0  0  0  0  0  0  0  0  0  0  0
   40.9588   23.1203    3.0466 C   0  0  0  0  0  0  0  0  0  0  0  0
   39.6157   21.3847    2.1376 N   0  0  0  0  0  0  0  0  0  0  0  0
   38.8285   23.7813    4.7706 C   0  0  0  0  0  0  0  0  0  0  0  0
   38.6886   22.7510    3.8294 C   0  0  0  0  0  0  0  0  0  0  0  0
   40.1325   24.5246    4.8418 C   0  0  0  0  0  0  0  0  0  0  0  0
   41.1628   24.1583    3.9636 C   0  0  0  0  0  0  0  0  0  0  0  0
   40.2674   25.6850    5.7852 C   0  0  0  0  0  0  0  0  0  0  0  0
   41.4616   26.4293    5.8494 C   0  0  0  0  0  0  0  0  0  0  0  0
   41.6167   27.4935    6.7591 C   0  0  0  0  0  0  0  0  0  0  0  0
   40.5880   27.8381    7.6537 C   0  0  0  0  0  0  0  0  0  0  0  0
   40.7692   28.8659    8.5255 N   0  0  0  0  0  0  0  0  0  0  0  0
   40.3640   21.1331    1.5494 H   0  0  0  0  0  0  0  0  0  0  0  0
   38.7661   20.8893    2.0926 H   0  0  0  0  0  0  0  0  0  0  0  0
   41.6297   29.3434    8.5515 H   0  0  0  0  0  0  0  0  0  0  0  0
   40.0398   29.1325    9.1306 H   0  0  0  0  0  0  0  0  0  0  0  0
   36.4454   23.3584    5.5919 C   0  0  0  0  0  0  0  0  0  0  0  0
   34.0721   21.8477    5.4698 C   0  0  0  0  0  0  0  0  0  0  0  0
   34.0290   23.2391    5.3062 C   0  0  0  0  0  0  0  0  0  0  0  0
   35.2138   23.9907    5.3510 C   0  0  0  0  0  0  0  0  0  0  0  0
   35.3009   21.2219    5.7241 C   0  0  0  0  0  0  0  0  0  0  0  0
   36.4815   21.9773    5.8232 C   0  0  0  0  0  0  0  0  0  0  0  0
   37.1117   24.9608    9.0705 C   0  0  0  0  0  0  0  0  0  0  0  0
   35.9855   24.1234    9.7012 C   0  0  0  0  0  0  0  0  0  0  0  0
   35.0940   23.2851    8.7796 C   0  0  0  0  0  0  0  0  0  0  0  0
   33.6503   23.7343    8.9646 C   0  0  0  0  0  0  0  0  0  0  0  0
   32.8334   22.8281    9.8672 C   0  0  0  0  0  0  0  0  0  0  0  0
   32.8612   21.4726    9.8185 N   0  0  0  0  0  0  0  0  0  0  0  0
   31.9585   20.9674   10.7586 N   0  0  0  0  0  0  0  0  0  0  0  0
   31.3821   22.1118   11.3312 N   0  0  0  0  0  0  0  0  0  0  0  0
   31.8876   23.2212   10.8066 C   0  0  0  0  0  0  0  0  0  0  0  0
   30.3617   21.8967   12.3642 C   0  0  0  0  0  0  0  0  0  0  0  0
   30.5444   22.8998   13.4956 C   0  0  0  0  0  0  0  0  0  0  0  0
   29.4120   22.9737   14.3904 N   0  0  0  0  0  0  0  0  0  0  0  0
   29.5256   23.4368   15.2517 H   0  0  0  0  0  0  0  0  0  0  0  0
   28.2026   22.4376   14.1028 C   0  0  0  0  0  0  0  0  0  0  0  0
   27.1677   23.2566   13.3920 C   0  0  0  0  0  0  0  0  0  0  0  0
   27.4041   24.5676   12.9712 C   0  0  0  0  0  0  0  0  0  0  0  0
   25.8048   22.6890   13.2436 C   0  0  0  0  0  0  0  0  0  0  0  0
   24.8227   23.4464   12.6061 C   0  0  0  0  0  0  0  0  0  0  0  0
   25.1177   24.7422   12.1678 C   0  0  0  0  0  0  0  0  0  0  0  0
   26.3808   25.2992   12.3653 C   0  0  0  0  0  0  0  0  0  0  0  0
   25.5280   21.4274   13.6397 N   0  0  0  0  0  0  0  0  0  0  0  0
   26.4050   20.6117   14.2577 C   0  0  0  0  0  0  0  0  0  0  0  0
   25.9412   19.1966   14.5943 C   0  0  0  0  0  0  0  0  0  0  0  0
   27.7949   21.0770   14.5666 C   0  0  0  0  0  0  0  0  0  0  0  0
   28.7645   20.1933   15.3369 C   0  0  0  0  0  0  0  0  0  0  0  0
   28.1729   18.8950   15.9086 C   0  0  0  0  0  0  0  0  0  0  0  0
   26.6642   18.6703   15.8199 C   0  0  0  0  0  0  0  0  0  0  0  0
 17 16  1  0  0  0
 16 15  2  0  0  0
 16  5  1  0  0  0
 15 14  1  0  0  0
  5  4  2  0  0  0
 14 13  2  0  0  0
  4 13  1  0  0  0
  4  2  1  0  0  0
 13 11  1  0  0  0
  1  2  1  0  0  0
  1 28  1  0  0  0
  2  3  2  0  0  0
 28 29  1  0  0  0
 11 12  2  0  0  0
 11  9  1  0  0  0
 12  7  1  0  0  0
  3  9  1  0  0  0
  3 22  1  0  0  0
  9 10  2  0  0  0
 29 30  1  0  0  0
  7  6  2  0  0  0
 30 31  1  0  0  0
 31 32  1  0  0  0
 22 25  2  0  0  0
 22 27  1  0  0  0
 10  6  1  0  0  0
  6  8  1  0  0  0
 25 24  1  0  0  0
 32 33  1  0  0  0
 32 36  2  0  0  0
 27 26  2  0  0  0
 24 23  2  0  0  0
 33 34  2  0  0  0
 36 35  1  0  0  0
 26 23  1  0  0  0
 35 34  1  0  0  0
 35 37  1  0  0  0
 54 50  1  0  0  0
 54 53  1  0  0  0
 50 49  1  0  0  0
 37 38  1  0  0  0
 53 52  1  0  0  0
 52 51  1  0  0  0
 49 51  2  0  0  0
 49 48  1  0  0  0
 51 41  1  0  0  0
 48 44  2  0  0  0
 38 39  1  0  0  0
 44 45  1  0  0  0
 44 42  1  0  0  0
 41 39  1  0  0  0
 41 42  2  0  0  0
 45 46  2  0  0  0
 42 43  1  0  0  0
 46 47  1  0  0  0
 43 47  2  0  0  0
  8 18  1  0  0  0
  8 19  1  0  0  0
 17 20  1  0  0  0
 17 21  1  0  0  0
 39 40  1  0  0  0
M  CHG 1   2   1
M  END
> <minimizedAffinity>
-12.95680

$$$$
5EHQ_5O2_A_1504


 54 61  0  0  0  0  0  0  0  0999 V2000
   36.4833   23.5609    6.3596 C   0  0  0  0  0  0  0  0  0  0  0  0
   36.3603   25.0397    6.4425 N   0  0  0  0  0  0  0  0  0  0  0  0
   36.9473   25.8477    5.3916 C   0  0  0  0  0  0  0  0  0  0  0  0
   36.0181   25.6610    7.7596 C   0  0  0  0  0  0  0  0  0  0  0  0
   35.4743   24.8775    8.8910 C   0  0  0  0  0  0  0  0  0  0  0  0
   37.6861   29.5264    4.7112 C   0  0  0  0  0  0  0  0  0  0  0  0
   37.3034   30.1263    5.9167 C   0  0  0  0  0  0  0  0  0  0  0  0
   38.1764   30.2903    3.7136 N   0  0  0  0  0  0  0  0  0  0  0  0
   37.0851   27.3388    5.5560 C   0  0  0  0  0  0  0  0  0  0  0  0
   37.5490   28.1568    4.5154 C   0  0  0  0  0  0  0  0  0  0  0  0
   36.7070   27.9756    6.8635 C   0  0  0  0  0  0  0  0  0  0  0  0
   36.8340   29.3661    6.9946 C   0  0  0  0  0  0  0  0  0  0  0  0
   36.1289   27.1238    7.9566 C   0  0  0  0  0  0  0  0  0  0  0  0
   35.7264   27.6935    9.1805 C   0  0  0  0  0  0  0  0  0  0  0  0
   35.2216   26.9007   10.2297 C   0  0  0  0  0  0  0  0  0  0  0  0
   35.1213   25.5042   10.0994 C   0  0  0  0  0  0  0  0  0  0  0  0
   34.6366   24.7640   11.1321 N   0  0  0  0  0  0  0  0  0  0  0  0
   38.2777   31.2612    3.8414 H   0  0  0  0  0  0  0  0  0  0  0  0
   38.4331   29.8770    2.8577 H   0  0  0  0  0  0  0  0  0  0  0  0
   34.3893   25.2023   11.9783 H   0  0  0  0  0  0  0  0  0  0  0  0
   34.5330   23.7900   11.0336 H   0  0  0  0  0  0  0  0  0  0  0  0
   37.3736   25.2796    4.0698 C   0  0  0  0  0  0  0  0  0  0  0  0
   38.1446   24.1432    1.6114 C   0  0  0  0  0  0  0  0  0  0  0  0
   36.9092   24.7949    1.7280 C   0  0  0  0  0  0  0  0  0  0  0  0
   36.5315   25.3755    2.9490 C   0  0  0  0  0  0  0  0  0  0  0  0
   38.9761   24.0370    2.7355 C   0  0  0  0  0  0  0  0  0  0  0  0
   38.5776   24.5699    3.9730 C   0  0  0  0  0  0  0  0  0  0  0  0
   35.3442   22.7320    5.7583 C   0  0  0  0  0  0  0  0  0  0  0  0
   35.1152   21.3529    6.4011 C   0  0  0  0  0  0  0  0  0  0  0  0
   33.8105   21.1107    7.1664 C   0  0  0  0  0  0  0  0  0  0  0  0
   33.2898   22.4508    7.6698 C   0  0  0  0  0  0  0  0  0  0  0  0
   32.6339   22.3833    9.0367 C   0  0  0  0  0  0  0  0  0  0  0  0
   32.7076   21.3147    9.8694 N   0  0  0  0  0  0  0  0  0  0  0  0
   31.9560   21.5825   11.0171 N   0  0  0  0  0  0  0  0  0  0  0  0
   31.4156   22.8567   10.7844 N   0  0  0  0  0  0  0  0  0  0  0  0
   31.8046   23.3395    9.6109 C   0  0  0  0  0  0  0  0  0  0  0  0
   30.5483   23.4124   11.8301 C   0  0  0  0  0  0  0  0  0  0  0  0
   30.5869   22.5245   13.0670 C   0  0  0  0  0  0  0  0  0  0  0  0
   29.5209   22.7942   14.0049 N   0  0  0  0  0  0  0  0  0  0  0  0
   29.7216   23.3458   14.7953 H   0  0  0  0  0  0  0  0  0  0  0  0
   28.2601   22.3260   13.8503 C   0  0  0  0  0  0  0  0  0  0  0  0
   27.2018   23.2020   13.2507 C   0  0  0  0  0  0  0  0  0  0  0  0
   27.4635   24.4987   12.8016 C   0  0  0  0  0  0  0  0  0  0  0  0
   25.8017   22.7105   13.2511 C   0  0  0  0  0  0  0  0  0  0  0  0
   24.8002   23.5219   12.7189 C   0  0  0  0  0  0  0  0  0  0  0  0
   25.1174   24.8002   12.2462 C   0  0  0  0  0  0  0  0  0  0  0  0
   26.4230   25.2866   12.3054 C   0  0  0  0  0  0  0  0  0  0  0  0
   25.4999   21.4654   13.6797 N   0  0  0  0  0  0  0  0  0  0  0  0
   26.3919   20.6016   14.2039 C   0  0  0  0  0  0  0  0  0  0  0  0
   25.8897   19.2136   14.5940 C   0  0  0  0  0  0  0  0  0  0  0  0
   27.8302   20.9892   14.3606 C   0  0  0  0  0  0  0  0  0  0  0  0
   28.8266   20.0521   15.0267 C   0  0  0  0  0  0  0  0  0  0  0  0
   28.2291   18.7873   15.6637 C   0  0  0  0  0  0  0  0  0  0  0  0
   26.7095   18.6462   15.7375 C   0  0  0  0  0  0  0  0  0  0  0  0
 17 16  1  0  0  0
 16 15  2  0  0  0
 16  5  1  0  0  0
 15 14  1  0  0  0
  5  4  2  0  0  0
 14 13  2  0  0  0
  4 13  1  0  0  0
  4  2  1  0  0  0
 13 11  1  0  0  0
  1  2  1  0  0  0
  1 28  1  0  0  0
  2  3  2  0  0  0
 28 29  1  0  0  0
 11 12  2  0  0  0
 11  9  1  0  0  0
 12  7  1  0  0  0
  3  9  1  0  0  0
  3 22  1  0  0  0
  9 10  2  0  0  0
 29 30  1  0  0  0
  7  6  2  0  0  0
 30 31  1  0  0  0
 31 32  1  0  0  0
 22 25  2  0  0  0
 22 27  1  0  0  0
 10  6  1  0  0  0
  6  8  1  0  0  0
 25 24  1  0  0  0
 32 33  1  0  0  0
 32 36  2  0  0  0
 27 26  2  0  0  0
 24 23  2  0  0  0
 33 34  2  0  0  0
 36 35  1  0  0  0
 26 23  1  0  0  0
 35 34  1  0  0  0
 35 37  1  0  0  0
 54 50  1  0  0  0
 54 53  1  0  0  0
 50 49  1  0  0  0
 37 38  1  0  0  0
 53 52  1  0  0  0
 52 51  1  0  0  0
 49 51  2  0  0  0
 49 48  1  0  0  0
 51 41  1  0  0  0
 48 44  2  0  0  0
 38 39  1  0  0  0
 44 45  1  0  0  0
 44 42  1  0  0  0
 41 39  1  0  0  0
 41 42  2  0  0  0
 45 46  2  0  0  0
 42 43  1  0  0  0
 46 47  1  0  0  0
 43 47  2  0  0  0
  8 18  1  0  0  0
  8 19  1  0  0  0
 17 20  1  0  0  0
 17 21  1  0  0  0
 39 40  1  0  0  0
M  CHG 1   2   1
M  END
> <minimizedAffinity>
-12.63830

$$$$
5EHQ_5O2_A_1504


 54 61  0  0  0  0  0  0  0  0999 V2000
   37.2263   24.3998    6.4628 C   0  0  0  0  0  0  0  0  0  0  0  0
   37.4916   25.3270    5.3320 N   0  0  0  0  0  0  0  0  0  0  0  0
   36.9854   26.6832    5.4095 C   0  0  0  0  0  0  0  0  0  0  0  0
   37.8925   24.7536    4.0097 C   0  0  0  0  0  0  0  0  0  0  0  0
   38.3582   23.3574    3.8568 C   0  0  0  0  0  0  0  0  0  0  0  0
   36.6057   29.7107    3.1221 C   0  0  0  0  0  0  0  0  0  0  0  0
   37.0447   29.2024    1.8939 C   0  0  0  0  0  0  0  0  0  0  0  0
   36.1913   30.9916    3.2026 N   0  0  0  0  0  0  0  0  0  0  0  0
   36.9925   27.5758    4.1959 C   0  0  0  0  0  0  0  0  0  0  0  0
   36.6097   28.9231    4.2678 C   0  0  0  0  0  0  0  0  0  0  0  0
   37.4305   27.0176    2.8714 C   0  0  0  0  0  0  0  0  0  0  0  0
   37.4386   27.8661    1.7548 C   0  0  0  0  0  0  0  0  0  0  0  0
   37.9237   25.6013    2.7967 C   0  0  0  0  0  0  0  0  0  0  0  0
   38.3796   25.0578    1.5797 C   0  0  0  0  0  0  0  0  0  0  0  0
   38.8055   23.7184    1.4864 C   0  0  0  0  0  0  0  0  0  0  0  0
   38.7703   22.8670    2.6049 C   0  0  0  0  0  0  0  0  0  0  0  0
   39.1813   21.5765    2.4827 N   0  0  0  0  0  0  0  0  0  0  0  0
   36.1844   31.5583    2.3976 H   0  0  0  0  0  0  0  0  0  0  0  0
   35.8958   31.3600    4.0665 H   0  0  0  0  0  0  0  0  0  0  0  0
   39.4699   21.2326    1.6065 H   0  0  0  0  0  0  0  0  0  0  0  0
   39.1902   20.9860    3.2705 H   0  0  0  0  0  0  0  0  0  0  0  0
   36.5059   27.3014    6.6900 C   0  0  0  0  0  0  0  0  0  0  0  0
   35.6111   28.3904    9.1278 C   0  0  0  0  0  0  0  0  0  0  0  0
   36.9733   28.4266    8.7995 C   0  0  0  0  0  0  0  0  0  0  0  0
   37.4176   27.8983    7.5772 C   0  0  0  0  0  0  0  0  0  0  0  0
   34.7062   27.7815    8.2465 C   0  0  0  0  0  0  0  0  0  0  0  0
   35.1548   27.2036    7.0469 C   0  0  0  0  0  0  0  0  0  0  0  0
   35.8873   23.6608    6.5470 C   0  0  0  0  0  0  0  0  0  0  0  0
   35.4393   23.2570    7.9625 C   0  0  0  0  0  0  0  0  0  0  0  0
   34.6361   21.9638    8.1340 C   0  0  0  0  0  0  0  0  0  0  0  0
   33.1549   22.2941    8.0022 C   0  0  0  0  0  0  0  0  0  0  0  0
   32.3975   22.2657    9.3170 C   0  0  0  0  0  0  0  0  0  0  0  0
   31.9462   21.1353    9.9163 N   0  0  0  0  0  0  0  0  0  0  0  0
   31.2604   21.4845   11.0831 N   0  0  0  0  0  0  0  0  0  0  0  0
   31.3130   22.8868   11.1061 N   0  0  0  0  0  0  0  0  0  0  0  0
   31.9787   23.3624   10.0609 C   0  0  0  0  0  0  0  0  0  0  0  0
   30.6498   23.5590   12.2298 C   0  0  0  0  0  0  0  0  0  0  0  0
   30.5502   22.6129   13.4192 C   0  0  0  0  0  0  0  0  0  0  0  0
   29.4050   22.8655   14.2637 N   0  0  0  0  0  0  0  0  0  0  0  0
   29.5236   23.4421   15.0528 H   0  0  0  0  0  0  0  0  0  0  0  0
   28.1771   22.3484   14.0234 C   0  0  0  0  0  0  0  0  0  0  0  0
   27.1296   23.1824   13.3494 C   0  0  0  0  0  0  0  0  0  0  0  0
   27.3712   24.4883   12.9160 C   0  0  0  0  0  0  0  0  0  0  0  0
   25.7531   22.6367   13.2542 C   0  0  0  0  0  0  0  0  0  0  0  0
   24.7601   23.4084   12.6516 C   0  0  0  0  0  0  0  0  0  0  0  0
   25.0593   24.6981   12.1986 C   0  0  0  0  0  0  0  0  0  0  0  0
   26.3378   25.2350   12.3468 C   0  0  0  0  0  0  0  0  0  0  0  0
   25.4710   21.3808   13.6642 N   0  0  0  0  0  0  0  0  0  0  0  0
   26.3573   20.5524   14.2514 C   0  0  0  0  0  0  0  0  0  0  0  0
   25.8837   19.1459   14.6094 C   0  0  0  0  0  0  0  0  0  0  0  0
   27.7652   20.9958   14.5063 C   0  0  0  0  0  0  0  0  0  0  0  0
   28.7487   20.0984   15.2424 C   0  0  0  0  0  0  0  0  0  0  0  0
   28.1581   18.8112   15.8399 C   0  0  0  0  0  0  0  0  0  0  0  0
   26.6437   18.6109   15.8086 C   0  0  0  0  0  0  0  0  0  0  0  0
 17 16  1  0  0  0
 16 15  2  0  0  0
 16  5  1  0  0  0
 15 14  1  0  0  0
  5  4  2  0  0  0
 14 13  2  0  0  0
  4 13  1  0  0  0
  4  2  1  0  0  0
 13 11  1  0  0  0
  1  2  1  0  0  0
  1 28  1  0  0  0
  2  3  2  0  0  0
 28 29  1  0  0  0
 11 12  2  0  0  0
 11  9  1  0  0  0
 12  7  1  0  0  0
  3  9  1  0  0  0
  3 22  1  0  0  0
  9 10  2  0  0  0
 29 30  1  0  0  0
  7  6  2  0  0  0
 30 31  1  0  0  0
 31 32  1  0  0  0
 22 25  2  0  0  0
 22 27  1  0  0  0
 10  6  1  0  0  0
  6  8  1  0  0  0
 25 24  1  0  0  0
 32 33  1  0  0  0
 32 36  2  0  0  0
 27 26  2  0  0  0
 24 23  2  0  0  0
 33 34  2  0  0  0
 36 35  1  0  0  0
 26 23  1  0  0  0
 35 34  1  0  0  0
 35 37  1  0  0  0
 54 50  1  0  0  0
 54 53  1  0  0  0
 50 49  1  0  0  0
 37 38  1  0  0  0
 53 52  1  0  0  0
 52 51  1  0  0  0
 49 51  2  0  0  0
 49 48  1  0  0  0
 51 41  1  0  0  0
 48 44  2  0  0  0
 38 39  1  0  0  0
 44 45  1  0  0  0
 44 42  1  0  0  0
 41 39  1  0  0  0
 41 42  2  0  0  0
 45 46  2  0  0  0
 42 43  1  0  0  0
 46 47  1  0  0  0
 43 47  2  0  0  0
  8 18  1  0  0  0
  8 19  1  0  0  0
 17 20  1  0  0  0
 17 21  1  0  0  0
 39 40  1  0  0  0
M  CHG 1   2   1
M  END
> <minimizedAffinity>
-12.53009

$$$$
