2CEN_4AH_B_1200


 55 59  0  0  0  0  0  0  0  0999 V2000
   15.1207   22.7764    6.1145 N   0  0  0  0  0  0  0  0  0  0  0  0
   15.5844   21.7491    5.3282 N   0  0  0  0  0  0  0  0  0  0  0  0
   15.2016   20.4743    5.1183 C   0  0  0  0  0  0  0  0  0  0  0  0
   14.0842   20.0351    5.4359 O   0  0  0  0  0  0  0  0  0  0  0  0
   16.3749   22.0016    4.7986 H   0  0  0  0  0  0  0  0  0  0  0  0
   16.2736   19.5896    4.4534 C   0  0  0  0  0  0  0  0  0  0  0  0
   15.8504   18.6586    3.2648 C   0  0  0  0  0  0  0  0  0  0  0  0
   14.8786   19.3650    2.2802 C   0  0  0  0  0  0  0  0  0  0  0  0
   15.1591   17.3683    3.7331 C   0  0  0  0  0  0  0  0  0  0  0  0
   17.0837   18.2787    2.4388 C   0  0  0  0  0  0  0  0  0  0  0  0
   16.8974   18.7679    5.5047 N   0  0  0  0  0  0  0  0  0  0  0  0
   18.1706   18.8619    5.9211 C   0  0  0  0  0  0  0  0  0  0  0  0
   18.9295   19.7033    5.4033 O   0  0  0  0  0  0  0  0  0  0  0  0
   16.3313   18.0904    5.9404 H   0  0  0  0  0  0  0  0  0  0  0  0
   18.5723   18.0138    6.8965 O   0  0  0  0  0  0  0  0  0  0  0  0
   18.8502   16.6455    6.6195 C   0  0  0  0  0  0  0  0  0  0  0  0
   13.7630   23.2303    6.0653 C   0  0  0  0  0  0  0  0  0  0  0  0
   12.8688   23.9114    4.9825 C   0  0  0  0  0  0  0  0  0  0  0  0
   13.3157   25.1760    4.4834 O   0  0  0  0  0  0  0  0  0  0  0  0
   12.6870   25.5025    3.8208 H   0  0  0  0  0  0  0  0  0  0  0  0
   11.6307   24.0757    5.9485 C   0  0  0  0  0  0  0  0  0  0  0  0
   11.3765   23.1944    6.7959 O   0  0  0  0  0  0  0  0  0  0  0  0
   10.8138   25.1416    5.8419 N   0  0  0  0  0  0  0  0  0  0  0  0
   11.0178   25.8331    5.1716 H   0  0  0  0  0  0  0  0  0  0  0  0
    9.6245   25.3057    6.6967 C   0  0  0  0  0  0  0  0  0  0  0  0
    9.8294   26.0308    7.9966 C   0  0  0  0  0  0  0  0  0  0  0  0
   10.9763   26.0435    8.8561 C   0  0  0  0  0  0  0  0  0  0  0  0
   10.9072   26.8369   10.0548 C   0  0  0  0  0  0  0  0  0  0  0  0
    9.7175   27.5830   10.3643 C   0  0  0  0  0  0  0  0  0  0  0  0
    8.5796   27.5531    9.4909 C   0  0  0  0  0  0  0  0  0  0  0  0
    8.6654   26.7650    8.3094 C   0  0  0  0  0  0  0  0  0  0  0  0
    7.6092   26.5790    7.2442 C   0  0  0  0  0  0  0  0  0  0  0  0
    8.4227   26.0553    6.0338 C   0  0  0  0  0  0  0  0  0  0  0  0
    8.8266   27.2191    5.3249 O   0  0  0  0  0  0  0  0  0  0  0  0
    9.2893   27.8211    5.9287 H   0  0  0  0  0  0  0  0  0  0  0  0
   12.4761   23.0480    3.7326 C   0  0  0  0  0  0  0  0  0  0  0  0
   11.0453   23.2128    3.2292 C   0  0  0  0  0  0  0  0  0  0  0  0
   10.0044   22.3614    3.7427 C   0  0  0  0  0  0  0  0  0  0  0  0
    8.6583   22.5188    3.2973 C   0  0  0  0  0  0  0  0  0  0  0  0
    8.3432   23.5314    2.3349 C   0  0  0  0  0  0  0  0  0  0  0  0
    9.3769   24.3818    1.8187 C   0  0  0  0  0  0  0  0  0  0  0  0
   10.7261   24.2261    2.2629 C   0  0  0  0  0  0  0  0  0  0  0  0
   15.4917   23.0814    7.5140 C   0  0  0  0  0  0  0  0  0  0  0  0
   15.9628   21.8772    8.3105 C   0  0  0  0  0  0  0  0  0  0  0  0
   17.3635   21.6670    8.4963 C   0  0  0  0  0  0  0  0  0  0  0  0
   17.8288   20.5324    9.2291 C   0  0  0  0  0  0  0  0  0  0  0  0
   16.8931   19.5855    9.7829 C   0  0  0  0  0  0  0  0  0  0  0  0
   15.0241   20.9465    8.8646 C   0  0  0  0  0  0  0  0  0  0  0  0
   15.4842   19.8062    9.5925 C   0  0  0  0  0  0  0  0  0  0  0  0
   17.1276   16.0089   11.2108 C   0  0  0  0  0  0  0  0  0  0  0  0
   16.6669   17.1512   10.4948 C   0  0  0  0  0  0  0  0  0  0  0  0
   17.3838   18.3942   10.5412 C   0  0  0  0  0  0  0  0  0  0  0  0
   18.5788   18.4685   11.3249 C   0  0  0  0  0  0  0  0  0  0  0  0
   19.0342   17.3252   12.0398 N   0  0  0  0  0  0  0  0  0  0  0  0
   18.3152   16.0952   11.9861 C   0  0  0  0  0  0  0  0  0  0  0  0
 18 21  1  0  0  0
 18 36  1  0  0  0
 18 19  1  0  0  0
 18 17  1  0  0  0
 21 22  2  0  0  0
 21 23  1  0  0  0
 23 25  1  0  0  0
 25 26  1  0  0  0
 25 33  1  0  0  0
 26 27  2  0  0  0
 26 31  1  0  0  0
 27 28  1  0  0  0
 28 29  2  0  0  0
 29 30  1  0  0  0
 30 31  2  0  0  0
 31 32  1  0  0  0
 32 33  1  0  0  0
 33 34  1  0  0  0
 36 37  1  0  0  0
 37 38  2  0  0  0
 37 42  1  0  0  0
 38 39  1  0  0  0
 39 40  2  0  0  0
 40 41  1  0  0  0
 41 42  2  0  0  0
 17  1  1  0  0  0
  1  2  1  0  0  0
  1 43  1  0  0  0
  2  3  1  0  0  0
 43 44  1  0  0  0
  3  4  2  0  0  0
  3  6  1  0  0  0
  6  7  1  0  0  0
  6 11  1  0  0  0
  7  8  1  0  0  0
  7  9  1  0  0  0
  7 10  1  0  0  0
 11 12  1  0  0  0
 12 13  2  0  0  0
 12 15  1  0  0  0
 15 16  1  0  0  0
 44 45  2  0  0  0
 44 48  1  0  0  0
 45 46  1  0  0  0
 46 47  2  0  0  0
 47 49  1  0  0  0
 47 52  1  0  0  0
 48 49  2  0  0  0
 50 51  1  0  0  0
 50 55  2  0  0  0
 51 52  2  0  0  0
 52 53  1  0  0  0
 53 54  2  0  0  0
 54 55  1  0  0  0
 23 24  1  0  0  0
 34 35  1  0  0  0
 19 20  1  0  0  0
  2  5  1  0  0  0
 11 14  1  0  0  0
M  END
> <minimizedAffinity>
-12.28607

$$$$
2CEN_4AH_B_1200


 55 59  0  0  0  0  0  0  0  0999 V2000
   15.2154   22.9107    6.3726 N   0  0  0  0  0  0  0  0  0  0  0  0
   15.5822   21.9104    5.5046 N   0  0  0  0  0  0  0  0  0  0  0  0
   15.1821   20.6391    5.3062 C   0  0  0  0  0  0  0  0  0  0  0  0
   14.1150   20.1818    5.7472 O   0  0  0  0  0  0  0  0  0  0  0  0
   16.2994   22.1847    4.8885 H   0  0  0  0  0  0  0  0  0  0  0  0
   16.1669   19.7828    4.4871 C   0  0  0  0  0  0  0  0  0  0  0  0
   15.6191   18.9654    3.2665 C   0  0  0  0  0  0  0  0  0  0  0  0
   14.8491   17.6909    3.7087 C   0  0  0  0  0  0  0  0  0  0  0  0
   16.7287   18.5110    2.3050 C   0  0  0  0  0  0  0  0  0  0  0  0
   14.6126   19.8144    2.4830 C   0  0  0  0  0  0  0  0  0  0  0  0
   16.8435   18.8601    5.4148 N   0  0  0  0  0  0  0  0  0  0  0  0
   18.1372   18.9147    5.7703 C   0  0  0  0  0  0  0  0  0  0  0  0
   18.8698   19.8065    5.3012 O   0  0  0  0  0  0  0  0  0  0  0  0
   16.2995   18.1403    5.8087 H   0  0  0  0  0  0  0  0  0  0  0  0
   18.5880   17.9729    6.6315 O   0  0  0  0  0  0  0  0  0  0  0  0
   18.7151   16.6106    6.2386 C   0  0  0  0  0  0  0  0  0  0  0  0
   13.8796   23.4240    6.4345 C   0  0  0  0  0  0  0  0  0  0  0  0
   12.8150   23.8525    5.3766 C   0  0  0  0  0  0  0  0  0  0  0  0
   13.2896   24.6079    4.2577 O   0  0  0  0  0  0  0  0  0  0  0  0
   12.5466   24.8171    3.6703 H   0  0  0  0  0  0  0  0  0  0  0  0
   12.0122   24.7605    6.3887 C   0  0  0  0  0  0  0  0  0  0  0  0
   12.5671   25.1870    7.4229 O   0  0  0  0  0  0  0  0  0  0  0  0
   10.7143   25.0486    6.1713 N   0  0  0  0  0  0  0  0  0  0  0  0
   10.2811   24.7090    5.3550 H   0  0  0  0  0  0  0  0  0  0  0  0
    9.9222   25.8559    7.1162 C   0  0  0  0  0  0  0  0  0  0  0  0
    8.5940   26.3541    6.6209 C   0  0  0  0  0  0  0  0  0  0  0  0
    8.2107   26.7497    5.2977 C   0  0  0  0  0  0  0  0  0  0  0  0
    6.8552   27.1888    5.0953 C   0  0  0  0  0  0  0  0  0  0  0  0
    5.9315   27.2251    6.1968 C   0  0  0  0  0  0  0  0  0  0  0  0
    6.3378   26.8276    7.5141 C   0  0  0  0  0  0  0  0  0  0  0  0
    7.6809   26.3947    7.6963 C   0  0  0  0  0  0  0  0  0  0  0  0
    8.3360   25.9294    8.9766 C   0  0  0  0  0  0  0  0  0  0  0  0
    9.5788   25.1542    8.4709 C   0  0  0  0  0  0  0  0  0  0  0  0
    9.1370   23.8145    8.2975 O   0  0  0  0  0  0  0  0  0  0  0  0
    8.3567   23.8034    7.7213 H   0  0  0  0  0  0  0  0  0  0  0  0
   11.8877   22.7266    4.7984 C   0  0  0  0  0  0  0  0  0  0  0  0
   10.7162   23.1993    3.9430 C   0  0  0  0  0  0  0  0  0  0  0  0
   10.9670   23.8376    2.6773 C   0  0  0  0  0  0  0  0  0  0  0  0
    9.8809   24.2648    1.8571 C   0  0  0  0  0  0  0  0  0  0  0  0
    8.5343   24.0549    2.2969 C   0  0  0  0  0  0  0  0  0  0  0  0
    8.2785   23.4206    3.5579 C   0  0  0  0  0  0  0  0  0  0  0  0
    9.3645   22.9919    4.3817 C   0  0  0  0  0  0  0  0  0  0  0  0
   15.6853   23.1206    7.7599 C   0  0  0  0  0  0  0  0  0  0  0  0
   16.1307   21.8519    8.4657 C   0  0  0  0  0  0  0  0  0  0  0  0
   15.1477   20.9965    9.0513 C   0  0  0  0  0  0  0  0  0  0  0  0
   15.5459   19.8059    9.7332 C   0  0  0  0  0  0  0  0  0  0  0  0
   16.9406   19.4578    9.8433 C   0  0  0  0  0  0  0  0  0  0  0  0
   17.5193   21.5101    8.5619 C   0  0  0  0  0  0  0  0  0  0  0  0
   17.9236   20.3241    9.2488 C   0  0  0  0  0  0  0  0  0  0  0  0
   16.8904   15.8697   11.2608 C   0  0  0  0  0  0  0  0  0  0  0  0
   16.5042   17.0592   10.5785 C   0  0  0  0  0  0  0  0  0  0  0  0
   17.3544   18.2161   10.5657 C   0  0  0  0  0  0  0  0  0  0  0  0
   18.6067   18.1551   11.2554 C   0  0  0  0  0  0  0  0  0  0  0  0
   18.9875   16.9651   11.9372 N   0  0  0  0  0  0  0  0  0  0  0  0
   18.1361   15.8215   11.9427 C   0  0  0  0  0  0  0  0  0  0  0  0
 18 21  1  0  0  0
 18 36  1  0  0  0
 18 19  1  0  0  0
 18 17  1  0  0  0
 21 22  2  0  0  0
 21 23  1  0  0  0
 23 25  1  0  0  0
 25 26  1  0  0  0
 25 33  1  0  0  0
 26 27  2  0  0  0
 26 31  1  0  0  0
 27 28  1  0  0  0
 28 29  2  0  0  0
 29 30  1  0  0  0
 30 31  2  0  0  0
 31 32  1  0  0  0
 32 33  1  0  0  0
 33 34  1  0  0  0
 36 37  1  0  0  0
 37 38  2  0  0  0
 37 42  1  0  0  0
 38 39  1  0  0  0
 39 40  2  0  0  0
 40 41  1  0  0  0
 41 42  2  0  0  0
 17  1  1  0  0  0
  1  2  1  0  0  0
  1 43  1  0  0  0
  2  3  1  0  0  0
 43 44  1  0  0  0
  3  4  2  0  0  0
  3  6  1  0  0  0
  6  7  1  0  0  0
  6 11  1  0  0  0
  7  8  1  0  0  0
  7  9  1  0  0  0
  7 10  1  0  0  0
 11 12  1  0  0  0
 12 13  2  0  0  0
 12 15  1  0  0  0
 15 16  1  0  0  0
 44 45  2  0  0  0
 44 48  1  0  0  0
 45 46  1  0  0  0
 46 47  2  0  0  0
 47 49  1  0  0  0
 47 52  1  0  0  0
 48 49  2  0  0  0
 50 51  1  0  0  0
 50 55  2  0  0  0
 51 52  2  0  0  0
 52 53  1  0  0  0
 53 54  2  0  0  0
 54 55  1  0  0  0
 23 24  1  0  0  0
 34 35  1  0  0  0
 19 20  1  0  0  0
  2  5  1  0  0  0
 11 14  1  0  0  0
M  END
> <minimizedAffinity>
-11.54107

$$$$
2CEN_4AH_B_1200


 55 59  0  0  0  0  0  0  0  0999 V2000
   13.0451   24.0122    6.9107 N   0  0  0  0  0  0  0  0  0  0  0  0
   12.0169   24.7494    7.4473 N   0  0  0  0  0  0  0  0  0  0  0  0
   10.6757   24.6211    7.4711 C   0  0  0  0  0  0  0  0  0  0  0  0
   10.0859   23.5604    7.2079 O   0  0  0  0  0  0  0  0  0  0  0  0
   12.3312   25.5528    7.9215 H   0  0  0  0  0  0  0  0  0  0  0  0
    9.9200   25.9103    7.8462 C   0  0  0  0  0  0  0  0  0  0  0  0
    9.9594   26.4003    9.3351 C   0  0  0  0  0  0  0  0  0  0  0  0
    8.9853   27.5824    9.5924 C   0  0  0  0  0  0  0  0  0  0  0  0
   11.3572   26.8638    9.7750 C   0  0  0  0  0  0  0  0  0  0  0  0
    9.5053   25.2706   10.2653 C   0  0  0  0  0  0  0  0  0  0  0  0
    8.5152   25.7470    7.4343 N   0  0  0  0  0  0  0  0  0  0  0  0
    7.8531   26.5385    6.5750 C   0  0  0  0  0  0  0  0  0  0  0  0
    8.4358   27.5085    6.0539 O   0  0  0  0  0  0  0  0  0  0  0  0
    8.0182   24.9913    7.8231 H   0  0  0  0  0  0  0  0  0  0  0  0
    6.5579   26.2384    6.3216 O   0  0  0  0  0  0  0  0  0  0  0  0
    5.7965   26.9835    5.3773 C   0  0  0  0  0  0  0  0  0  0  0  0
   13.0668   23.6088    5.5364 C   0  0  0  0  0  0  0  0  0  0  0  0
   12.2724   22.5732    4.6806 C   0  0  0  0  0  0  0  0  0  0  0  0
   11.1742   21.9176    5.3225 O   0  0  0  0  0  0  0  0  0  0  0  0
   10.7575   21.3008    4.7006 H   0  0  0  0  0  0  0  0  0  0  0  0
   13.5055   21.6020    4.5090 C   0  0  0  0  0  0  0  0  0  0  0  0
   14.4022   21.8688    3.6818 O   0  0  0  0  0  0  0  0  0  0  0  0
   13.5829   20.4592    5.2181 N   0  0  0  0  0  0  0  0  0  0  0  0
   12.8729   20.2529    5.8682 H   0  0  0  0  0  0  0  0  0  0  0  0
   14.6963   19.5080    5.0519 C   0  0  0  0  0  0  0  0  0  0  0  0
   15.0446   19.1253    3.6413 C   0  0  0  0  0  0  0  0  0  0  0  0
   14.1851   18.9774    2.5040 C   0  0  0  0  0  0  0  0  0  0  0  0
   14.7878   18.6010    1.2525 C   0  0  0  0  0  0  0  0  0  0  0  0
   16.2064   18.3823    1.1663 C   0  0  0  0  0  0  0  0  0  0  0  0
   17.0477   18.5328    2.3187 C   0  0  0  0  0  0  0  0  0  0  0  0
   16.4358   18.9070    3.5476 C   0  0  0  0  0  0  0  0  0  0  0  0
   17.1065   19.1272    4.8842 C   0  0  0  0  0  0  0  0  0  0  0  0
   16.0610   19.9621    5.6659 C   0  0  0  0  0  0  0  0  0  0  0  0
   16.3708   21.3174    5.3709 O   0  0  0  0  0  0  0  0  0  0  0  0
   16.3919   21.4423    4.4092 H   0  0  0  0  0  0  0  0  0  0  0  0
   11.7538   23.0511    3.2790 C   0  0  0  0  0  0  0  0  0  0  0  0
   10.2639   23.3669    3.1896 C   0  0  0  0  0  0  0  0  0  0  0  0
    9.3950   22.5059    2.4308 C   0  0  0  0  0  0  0  0  0  0  0  0
    7.9963   22.7767    2.3567 C   0  0  0  0  0  0  0  0  0  0  0  0
    7.4559   23.9114    3.0431 C   0  0  0  0  0  0  0  0  0  0  0  0
    8.3175   24.7737    3.7996 C   0  0  0  0  0  0  0  0  0  0  0  0
    9.7188   24.5049    3.8754 C   0  0  0  0  0  0  0  0  0  0  0  0
   14.4885   24.1169    7.2186 C   0  0  0  0  0  0  0  0  0  0  0  0
   15.0528   22.9256    7.9727 C   0  0  0  0  0  0  0  0  0  0  0  0
   16.4600   22.8499    8.2070 C   0  0  0  0  0  0  0  0  0  0  0  0
   17.0136   21.7305    8.9008 C   0  0  0  0  0  0  0  0  0  0  0  0
   16.1620   20.6642    9.3661 C   0  0  0  0  0  0  0  0  0  0  0  0
   14.1964   21.8750    8.4389 C   0  0  0  0  0  0  0  0  0  0  0  0
   14.7457   20.7497    9.1274 C   0  0  0  0  0  0  0  0  0  0  0  0
   18.5552   18.4955   11.4768 C   0  0  0  0  0  0  0  0  0  0  0  0
   17.9917   19.6074   10.7870 C   0  0  0  0  0  0  0  0  0  0  0  0
   16.7458   19.4898   10.0835 C   0  0  0  0  0  0  0  0  0  0  0  0
   16.0729   18.2268   10.0859 C   0  0  0  0  0  0  0  0  0  0  0  0
   16.6405   17.1184   10.7750 N   0  0  0  0  0  0  0  0  0  0  0  0
   17.8779   17.2463   11.4714 C   0  0  0  0  0  0  0  0  0  0  0  0
 18 21  1  0  0  0
 18 36  1  0  0  0
 18 19  1  0  0  0
 18 17  1  0  0  0
 21 22  2  0  0  0
 21 23  1  0  0  0
 23 25  1  0  0  0
 25 26  1  0  0  0
 25 33  1  0  0  0
 26 27  2  0  0  0
 26 31  1  0  0  0
 27 28  1  0  0  0
 28 29  2  0  0  0
 29 30  1  0  0  0
 30 31  2  0  0  0
 31 32  1  0  0  0
 32 33  1  0  0  0
 33 34  1  0  0  0
 36 37  1  0  0  0
 37 38  2  0  0  0
 37 42  1  0  0  0
 38 39  1  0  0  0
 39 40  2  0  0  0
 40 41  1  0  0  0
 41 42  2  0  0  0
 17  1  1  0  0  0
  1  2  1  0  0  0
  1 43  1  0  0  0
  2  3  1  0  0  0
 43 44  1  0  0  0
  3  4  2  0  0  0
  3  6  1  0  0  0
  6  7  1  0  0  0
  6 11  1  0  0  0
  7  8  1  0  0  0
  7  9  1  0  0  0
  7 10  1  0  0  0
 11 12  1  0  0  0
 12 13  2  0  0  0
 12 15  1  0  0  0
 15 16  1  0  0  0
 44 45  2  0  0  0
 44 48  1  0  0  0
 45 46  1  0  0  0
 46 47  2  0  0  0
 47 49  1  0  0  0
 47 52  1  0  0  0
 48 49  2  0  0  0
 50 51  1  0  0  0
 50 55  2  0  0  0
 51 52  2  0  0  0
 52 53  1  0  0  0
 53 54  2  0  0  0
 54 55  1  0  0  0
 23 24  1  0  0  0
 34 35  1  0  0  0
 19 20  1  0  0  0
  2  5  1  0  0  0
 11 14  1  0  0  0
M  END
> <minimizedAffinity>
-10.40078

$$$$
2CEN_4AH_B_1200


 55 59  0  0  0  0  0  0  0  0999 V2000
   16.4574   20.2389    7.0178 N   0  0  0  0  0  0  0  0  0  0  0  0
   16.5253   19.7446    5.7374 N   0  0  0  0  0  0  0  0  0  0  0  0
   15.6516   19.1325    4.9142 C   0  0  0  0  0  0  0  0  0  0  0  0
   14.4225   19.1432    5.0922 O   0  0  0  0  0  0  0  0  0  0  0  0
   17.4131   19.8648    5.3292 H   0  0  0  0  0  0  0  0  0  0  0  0
   16.3033   18.4014    3.7248 C   0  0  0  0  0  0  0  0  0  0  0  0
   15.4926   18.2636    2.3898 C   0  0  0  0  0  0  0  0  0  0  0  0
   15.0114   19.6376    1.8481 C   0  0  0  0  0  0  0  0  0  0  0  0
   14.2471   17.3751    2.5358 C   0  0  0  0  0  0  0  0  0  0  0  0
   16.3888   17.6710    1.2974 C   0  0  0  0  0  0  0  0  0  0  0  0
   16.7015   17.0591    4.1824 N   0  0  0  0  0  0  0  0  0  0  0  0
   17.8752   16.7411    4.7519 C   0  0  0  0  0  0  0  0  0  0  0  0
   18.7348   17.6249    4.9306 O   0  0  0  0  0  0  0  0  0  0  0  0
   16.0499   16.3313    4.0599 H   0  0  0  0  0  0  0  0  0  0  0  0
   18.0691   15.4481    5.1017 O   0  0  0  0  0  0  0  0  0  0  0  0
   19.3232   14.8062    4.8979 C   0  0  0  0  0  0  0  0  0  0  0  0
   17.4596   19.9626    8.0033 C   0  0  0  0  0  0  0  0  0  0  0  0
   18.8256   20.6081    8.3948 C   0  0  0  0  0  0  0  0  0  0  0  0
   19.4784   21.3893    7.3890 O   0  0  0  0  0  0  0  0  0  0  0  0
   20.3121   21.7383    7.7412 H   0  0  0  0  0  0  0  0  0  0  0  0
   19.5472   19.2198    8.6077 C   0  0  0  0  0  0  0  0  0  0  0  0
   20.6224   18.9766    8.0210 O   0  0  0  0  0  0  0  0  0  0  0  0
   18.9929   18.2707    9.3866 N   0  0  0  0  0  0  0  0  0  0  0  0
   18.1447   18.4669    9.8462 H   0  0  0  0  0  0  0  0  0  0  0  0
   19.6158   16.9480    9.5729 C   0  0  0  0  0  0  0  0  0  0  0  0
   19.2923   16.2302   10.8527 C   0  0  0  0  0  0  0  0  0  0  0  0
   19.0426   16.7705   12.1565 C   0  0  0  0  0  0  0  0  0  0  0  0
   18.7488   15.8467   13.2201 C   0  0  0  0  0  0  0  0  0  0  0  0
   18.7141   14.4321   12.9645 C   0  0  0  0  0  0  0  0  0  0  0  0
   18.9705   13.9129   11.6518 C   0  0  0  0  0  0  0  0  0  0  0  0
   19.2577   14.8401   10.6115 C   0  0  0  0  0  0  0  0  0  0  0  0
   19.5558   14.5378    9.1608 C   0  0  0  0  0  0  0  0  0  0  0  0
   19.2963   15.8958    8.4609 C   0  0  0  0  0  0  0  0  0  0  0  0
   17.9204   15.8748    8.1055 O   0  0  0  0  0  0  0  0  0  0  0  0
   17.3860   15.6851    8.8925 H   0  0  0  0  0  0  0  0  0  0  0  0
   18.8650   21.4529    9.7164 C   0  0  0  0  0  0  0  0  0  0  0  0
   20.1996   21.4766   10.4551 C   0  0  0  0  0  0  0  0  0  0  0  0
   21.1535   22.5176   10.1746 C   0  0  0  0  0  0  0  0  0  0  0  0
   22.3962   22.5648   10.8735 C   0  0  0  0  0  0  0  0  0  0  0  0
   22.6934   21.5705   11.8604 C   0  0  0  0  0  0  0  0  0  0  0  0
   21.7471   20.5299   12.1430 C   0  0  0  0  0  0  0  0  0  0  0  0
   20.5017   20.4801   11.4443 C   0  0  0  0  0  0  0  0  0  0  0  0
   15.9661   21.5664    7.4490 C   0  0  0  0  0  0  0  0  0  0  0  0
   14.7272   22.0423    6.7109 C   0  0  0  0  0  0  0  0  0  0  0  0
   14.8757   22.8928    5.5728 C   0  0  0  0  0  0  0  0  0  0  0  0
   13.7229   23.3644    4.8730 C   0  0  0  0  0  0  0  0  0  0  0  0
   12.3998   22.9936    5.3096 C   0  0  0  0  0  0  0  0  0  0  0  0
   13.4164   21.6606    7.1477 C   0  0  0  0  0  0  0  0  0  0  0  0
   12.2598   22.1350    6.4556 C   0  0  0  0  0  0  0  0  0  0  0  0
    9.9498   23.8363    2.4507 C   0  0  0  0  0  0  0  0  0  0  0  0
   11.0946   23.3636    3.1547 C   0  0  0  0  0  0  0  0  0  0  0  0
   11.1954   23.4965    4.5807 C   0  0  0  0  0  0  0  0  0  0  0  0
   10.1184   24.1168    5.2900 C   0  0  0  0  0  0  0  0  0  0  0  0
    8.9775   24.5891    4.5821 N   0  0  0  0  0  0  0  0  0  0  0  0
    8.8871   24.4512    3.1659 C   0  0  0  0  0  0  0  0  0  0  0  0
 18 21  1  0  0  0
 18 36  1  0  0  0
 18 19  1  0  0  0
 18 17  1  0  0  0
 21 22  2  0  0  0
 21 23  1  0  0  0
 23 25  1  0  0  0
 25 26  1  0  0  0
 25 33  1  0  0  0
 26 27  2  0  0  0
 26 31  1  0  0  0
 27 28  1  0  0  0
 28 29  2  0  0  0
 29 30  1  0  0  0
 30 31  2  0  0  0
 31 32  1  0  0  0
 32 33  1  0  0  0
 33 34  1  0  0  0
 36 37  1  0  0  0
 37 38  2  0  0  0
 37 42  1  0  0  0
 38 39  1  0  0  0
 39 40  2  0  0  0
 40 41  1  0  0  0
 41 42  2  0  0  0
 17  1  1  0  0  0
  1  2  1  0  0  0
  1 43  1  0  0  0
  2  3  1  0  0  0
 43 44  1  0  0  0
  3  4  2  0  0  0
  3  6  1  0  0  0
  6  7  1  0  0  0
  6 11  1  0  0  0
  7  8  1  0  0  0
  7  9  1  0  0  0
  7 10  1  0  0  0
 11 12  1  0  0  0
 12 13  2  0  0  0
 12 15  1  0  0  0
 15 16  1  0  0  0
 44 45  2  0  0  0
 44 48  1  0  0  0
 45 46  1  0  0  0
 46 47  2  0  0  0
 47 49  1  0  0  0
 47 52  1  0  0  0
 48 49  2  0  0  0
 50 51  1  0  0  0
 50 55  2  0  0  0
 51 52  2  0  0  0
 52 53  1  0  0  0
 53 54  2  0  0  0
 54 55  1  0  0  0
 23 24  1  0  0  0
 34 35  1  0  0  0
 19 20  1  0  0  0
  2  5  1  0  0  0
 11 14  1  0  0  0
M  END
> <minimizedAffinity>
-10.28664

$$$$
2CEN_4AH_B_1200


 55 59  0  0  0  0  0  0  0  0999 V2000
   13.4339   23.3776    7.4349 N   0  0  0  0  0  0  0  0  0  0  0  0
   12.3351   24.1889    7.5863 N   0  0  0  0  0  0  0  0  0  0  0  0
   11.0111   24.0310    7.3917 C   0  0  0  0  0  0  0  0  0  0  0  0
   10.4646   22.9216    7.2784 O   0  0  0  0  0  0  0  0  0  0  0  0
   12.5678   25.0890    7.9103 H   0  0  0  0  0  0  0  0  0  0  0  0
   10.2183   25.3496    7.3108 C   0  0  0  0  0  0  0  0  0  0  0  0
    9.7323   26.0191    8.6426 C   0  0  0  0  0  0  0  0  0  0  0  0
    9.3171   27.5021    8.4394 C   0  0  0  0  0  0  0  0  0  0  0  0
   10.8008   25.9973    9.7472 C   0  0  0  0  0  0  0  0  0  0  0  0
    8.4823   25.2992    9.1593 C   0  0  0  0  0  0  0  0  0  0  0  0
    9.0541   25.1243    6.4370 N   0  0  0  0  0  0  0  0  0  0  0  0
    8.6401   25.9423    5.4559 C   0  0  0  0  0  0  0  0  0  0  0  0
    9.2634   26.9962    5.2260 O   0  0  0  0  0  0  0  0  0  0  0  0
    8.5338   24.3017    6.5854 H   0  0  0  0  0  0  0  0  0  0  0  0
    7.5395   25.5744    4.7594 O   0  0  0  0  0  0  0  0  0  0  0  0
    6.3034   26.2642    4.9098 C   0  0  0  0  0  0  0  0  0  0  0  0
   13.7379   22.7167    6.2010 C   0  0  0  0  0  0  0  0  0  0  0  0
   12.9512   22.4274    4.8844 C   0  0  0  0  0  0  0  0  0  0  0  0
   11.8988   21.4609    4.9645 O   0  0  0  0  0  0  0  0  0  0  0  0
   11.4829   21.3630    4.0937 H   0  0  0  0  0  0  0  0  0  0  0  0
   14.2107   21.8497    4.1273 C   0  0  0  0  0  0  0  0  0  0  0  0
   15.2244   22.5606    3.9656 O   0  0  0  0  0  0  0  0  0  0  0  0
   14.1906   20.6049    3.6126 N   0  0  0  0  0  0  0  0  0  0  0  0
   13.3886   20.0487    3.7418 H   0  0  0  0  0  0  0  0  0  0  0  0
   15.3307   20.0490    2.8621 C   0  0  0  0  0  0  0  0  0  0  0  0
   16.3577   19.2997    3.6631 C   0  0  0  0  0  0  0  0  0  0  0  0
   16.8029   19.5284    5.0061 C   0  0  0  0  0  0  0  0  0  0  0  0
   17.8086   18.6472    5.5383 C   0  0  0  0  0  0  0  0  0  0  0  0
   18.3389   17.5802    4.7333 C   0  0  0  0  0  0  0  0  0  0  0  0
   17.8808   17.3716    3.3897 C   0  0  0  0  0  0  0  0  0  0  0  0
   16.8851   18.2508    2.8798 C   0  0  0  0  0  0  0  0  0  0  0  0
   16.2492   18.2305    1.5087 C   0  0  0  0  0  0  0  0  0  0  0  0
   14.9551   19.0583    1.7120 C   0  0  0  0  0  0  0  0  0  0  0  0
   13.9668   18.1145    2.1027 O   0  0  0  0  0  0  0  0  0  0  0  0
   14.2841   17.6130    2.8700 H   0  0  0  0  0  0  0  0  0  0  0  0
   12.3690   23.6633    4.1127 C   0  0  0  0  0  0  0  0  0  0  0  0
   10.9938   23.4697    3.4810 C   0  0  0  0  0  0  0  0  0  0  0  0
   10.7165   24.0331    2.1857 C   0  0  0  0  0  0  0  0  0  0  0  0
    9.4424   23.8413    1.5734 C   0  0  0  0  0  0  0  0  0  0  0  0
    8.4357   23.0825    2.2527 C   0  0  0  0  0  0  0  0  0  0  0  0
    8.7061   22.5199    3.5445 C   0  0  0  0  0  0  0  0  0  0  0  0
    9.9814   22.7106    4.1602 C   0  0  0  0  0  0  0  0  0  0  0  0
   14.7804   23.5616    8.0200 C   0  0  0  0  0  0  0  0  0  0  0  0
   15.4460   22.2727    8.4695 C   0  0  0  0  0  0  0  0  0  0  0  0
   16.8180   22.0445    8.1436 C   0  0  0  0  0  0  0  0  0  0  0  0
   17.4594   20.8321    8.5434 C   0  0  0  0  0  0  0  0  0  0  0  0
   16.7300   19.8250    9.2730 C   0  0  0  0  0  0  0  0  0  0  0  0
   14.7145   21.2816    9.2023 C   0  0  0  0  0  0  0  0  0  0  0  0
   15.3491   20.0642    9.5986 C   0  0  0  0  0  0  0  0  0  0  0  0
   17.3099   16.3282   10.7967 C   0  0  0  0  0  0  0  0  0  0  0  0
   16.6805   17.5449   10.4056 C   0  0  0  0  0  0  0  0  0  0  0  0
   17.4016   18.5535    9.6816 C   0  0  0  0  0  0  0  0  0  0  0  0
   18.7746   18.3153    9.3564 C   0  0  0  0  0  0  0  0  0  0  0  0
   19.3997   17.0989    9.7508 N   0  0  0  0  0  0  0  0  0  0  0  0
   18.6741   16.1035   10.4686 C   0  0  0  0  0  0  0  0  0  0  0  0
 18 21  1  0  0  0
 18 36  1  0  0  0
 18 19  1  0  0  0
 18 17  1  0  0  0
 21 22  2  0  0  0
 21 23  1  0  0  0
 23 25  1  0  0  0
 25 26  1  0  0  0
 25 33  1  0  0  0
 26 27  2  0  0  0
 26 31  1  0  0  0
 27 28  1  0  0  0
 28 29  2  0  0  0
 29 30  1  0  0  0
 30 31  2  0  0  0
 31 32  1  0  0  0
 32 33  1  0  0  0
 33 34  1  0  0  0
 36 37  1  0  0  0
 37 38  2  0  0  0
 37 42  1  0  0  0
 38 39  1  0  0  0
 39 40  2  0  0  0
 40 41  1  0  0  0
 41 42  2  0  0  0
 17  1  1  0  0  0
  1  2  1  0  0  0
  1 43  1  0  0  0
  2  3  1  0  0  0
 43 44  1  0  0  0
  3  4  2  0  0  0
  3  6  1  0  0  0
  6  7  1  0  0  0
  6 11  1  0  0  0
  7  8  1  0  0  0
  7  9  1  0  0  0
  7 10  1  0  0  0
 11 12  1  0  0  0
 12 13  2  0  0  0
 12 15  1  0  0  0
 15 16  1  0  0  0
 44 45  2  0  0  0
 44 48  1  0  0  0
 45 46  1  0  0  0
 46 47  2  0  0  0
 47 49  1  0  0  0
 47 52  1  0  0  0
 48 49  2  0  0  0
 50 51  1  0  0  0
 50 55  2  0  0  0
 51 52  2  0  0  0
 52 53  1  0  0  0
 53 54  2  0  0  0
 54 55  1  0  0  0
 23 24  1  0  0  0
 34 35  1  0  0  0
 19 20  1  0  0  0
  2  5  1  0  0  0
 11 14  1  0  0  0
M  END
> <minimizedAffinity>
-9.79311

$$$$
2CEN_4AH_B_1200


 55 59  0  0  0  0  0  0  0  0999 V2000
    4.6214   24.4707    4.1483 N   0  0  0  0  0  0  0  0  0  0  0  0
    5.7248   24.6221    3.3433 N   0  0  0  0  0  0  0  0  0  0  0  0
    6.0826   24.1493    2.1333 C   0  0  0  0  0  0  0  0  0  0  0  0
    5.2785   23.6485    1.3302 O   0  0  0  0  0  0  0  0  0  0  0  0
    6.4085   25.2087    3.7405 H   0  0  0  0  0  0  0  0  0  0  0  0
    7.5867   24.2711    1.8221 C   0  0  0  0  0  0  0  0  0  0  0  0
    8.5686   23.2064    2.4225 C   0  0  0  0  0  0  0  0  0  0  0  0
    8.8096   22.0153    1.4550 C   0  0  0  0  0  0  0  0  0  0  0  0
    8.0698   22.6149    3.7505 C   0  0  0  0  0  0  0  0  0  0  0  0
    9.9428   23.8421    2.6576 C   0  0  0  0  0  0  0  0  0  0  0  0
    8.0269   25.6142    2.2369 N   0  0  0  0  0  0  0  0  0  0  0  0
    7.9221   26.7346    1.5043 C   0  0  0  0  0  0  0  0  0  0  0  0
    7.4144   26.6845    0.3677 O   0  0  0  0  0  0  0  0  0  0  0  0
    8.4335   25.6977    3.1296 H   0  0  0  0  0  0  0  0  0  0  0  0
    8.3910   27.8819    2.0481 O   0  0  0  0  0  0  0  0  0  0  0  0
    9.4942   28.5758    1.4753 C   0  0  0  0  0  0  0  0  0  0  0  0
    4.3044   25.3901    5.2000 C   0  0  0  0  0  0  0  0  0  0  0  0
    4.7129   26.8578    5.5391 C   0  0  0  0  0  0  0  0  0  0  0  0
    5.4979   27.5479    4.5617 O   0  0  0  0  0  0  0  0  0  0  0  0
    5.6913   28.4447    4.8768 H   0  0  0  0  0  0  0  0  0  0  0  0
    5.5812   26.4447    6.7916 C   0  0  0  0  0  0  0  0  0  0  0  0
    5.0342   26.2578    7.8985 O   0  0  0  0  0  0  0  0  0  0  0  0
    6.9198   26.3313    6.6913 N   0  0  0  0  0  0  0  0  0  0  0  0
    7.3465   26.4806    5.8167 H   0  0  0  0  0  0  0  0  0  0  0  0
    7.7661   25.9908    7.8489 C   0  0  0  0  0  0  0  0  0  0  0  0
    9.1420   25.4709    7.5422 C   0  0  0  0  0  0  0  0  0  0  0  0
    9.5816   24.6645    6.4418 C   0  0  0  0  0  0  0  0  0  0  0  0
   10.9745   24.3068    6.3869 C   0  0  0  0  0  0  0  0  0  0  0  0
   11.8792   24.7508    7.4126 C   0  0  0  0  0  0  0  0  0  0  0  0
   11.4166   25.5548    8.5073 C   0  0  0  0  0  0  0  0  0  0  0  0
   10.0370   25.9006    8.5452 C   0  0  0  0  0  0  0  0  0  0  0  0
    9.3212   26.7318    9.5852 C   0  0  0  0  0  0  0  0  0  0  0  0
    8.0218   27.1588    8.8568 C   0  0  0  0  0  0  0  0  0  0  0  0
    8.3432   28.3819    8.2082 O   0  0  0  0  0  0  0  0  0  0  0  0
    9.1287   28.2568    7.6530 H   0  0  0  0  0  0  0  0  0  0  0  0
    3.5659   27.8385    5.9688 C   0  0  0  0  0  0  0  0  0  0  0  0
    2.1734   27.2267    6.0889 C   0  0  0  0  0  0  0  0  0  0  0  0
    1.2906   27.2305    4.9519 C   0  0  0  0  0  0  0  0  0  0  0  0
   -0.0059   26.6425    5.0434 C   0  0  0  0  0  0  0  0  0  0  0  0
   -0.4285   26.0444    6.2740 C   0  0  0  0  0  0  0  0  0  0  0  0
    0.4467   26.0390    7.4107 C   0  0  0  0  0  0  0  0  0  0  0  0
    1.7457   26.6275    7.3219 C   0  0  0  0  0  0  0  0  0  0  0  0
    3.2804   23.9800    3.7604 C   0  0  0  0  0  0  0  0  0  0  0  0
    3.1374   22.4684    3.7901 C   0  0  0  0  0  0  0  0  0  0  0  0
    4.0593   21.6945    4.5595 C   0  0  0  0  0  0  0  0  0  0  0  0
    3.9522   20.2702    4.5890 C   0  0  0  0  0  0  0  0  0  0  0  0
    2.9193   19.5987    3.8401 C   0  0  0  0  0  0  0  0  0  0  0  0
    2.1015   21.8110    3.0491 C   0  0  0  0  0  0  0  0  0  0  0  0
    1.9940   20.3862    3.0696 C   0  0  0  0  0  0  0  0  0  0  0  0
    3.7025   15.8967    4.5940 C   0  0  0  0  0  0  0  0  0  0  0  0
    3.7934   17.3181    4.5604 C   0  0  0  0  0  0  0  0  0  0  0  0
    2.8160   18.1075    3.8658 C   0  0  0  0  0  0  0  0  0  0  0  0
    1.7394   17.4383    3.2017 C   0  0  0  0  0  0  0  0  0  0  0  0
    1.6536   16.0181    3.2366 N   0  0  0  0  0  0  0  0  0  0  0  0
    2.6292   15.2436    3.9302 C   0  0  0  0  0  0  0  0  0  0  0  0
 18 21  1  0  0  0
 18 36  1  0  0  0
 18 19  1  0  0  0
 18 17  1  0  0  0
 21 22  2  0  0  0
 21 23  1  0  0  0
 23 25  1  0  0  0
 25 26  1  0  0  0
 25 33  1  0  0  0
 26 27  2  0  0  0
 26 31  1  0  0  0
 27 28  1  0  0  0
 28 29  2  0  0  0
 29 30  1  0  0  0
 30 31  2  0  0  0
 31 32  1  0  0  0
 32 33  1  0  0  0
 33 34  1  0  0  0
 36 37  1  0  0  0
 37 38  2  0  0  0
 37 42  1  0  0  0
 38 39  1  0  0  0
 39 40  2  0  0  0
 40 41  1  0  0  0
 41 42  2  0  0  0
 17  1  1  0  0  0
  1  2  1  0  0  0
  1 43  1  0  0  0
  2  3  1  0  0  0
 43 44  1  0  0  0
  3  4  2  0  0  0
  3  6  1  0  0  0
  6  7  1  0  0  0
  6 11  1  0  0  0
  7  8  1  0  0  0
  7  9  1  0  0  0
  7 10  1  0  0  0
 11 12  1  0  0  0
 12 13  2  0  0  0
 12 15  1  0  0  0
 15 16  1  0  0  0
 44 45  2  0  0  0
 44 48  1  0  0  0
 45 46  1  0  0  0
 46 47  2  0  0  0
 47 49  1  0  0  0
 47 52  1  0  0  0
 48 49  2  0  0  0
 50 51  1  0  0  0
 50 55  2  0  0  0
 51 52  2  0  0  0
 52 53  1  0  0  0
 53 54  2  0  0  0
 54 55  1  0  0  0
 23 24  1  0  0  0
 34 35  1  0  0  0
 19 20  1  0  0  0
  2  5  1  0  0  0
 11 14  1  0  0  0
M  END
> <minimizedAffinity>
-9.70618

$$$$
2CEN_4AH_B_1200


 55 59  0  0  0  0  0  0  0  0999 V2000
   16.5376   19.8908    7.3546 N   0  0  0  0  0  0  0  0  0  0  0  0
   16.8666   19.0474    6.3208 N   0  0  0  0  0  0  0  0  0  0  0  0
   17.7575   19.0946    5.3110 C   0  0  0  0  0  0  0  0  0  0  0  0
   18.7228   19.8756    5.2873 O   0  0  0  0  0  0  0  0  0  0  0  0
   16.3301   18.2219    6.3171 H   0  0  0  0  0  0  0  0  0  0  0  0
   17.4781   18.0988    4.1690 C   0  0  0  0  0  0  0  0  0  0  0  0
   16.1409   18.2347    3.3615 C   0  0  0  0  0  0  0  0  0  0  0  0
   15.5631   19.6755    3.4168 C   0  0  0  0  0  0  0  0  0  0  0  0
   15.0400   17.2876    3.8645 C   0  0  0  0  0  0  0  0  0  0  0  0
   16.3974   17.9407    1.8798 C   0  0  0  0  0  0  0  0  0  0  0  0
   17.5637   16.7375    4.7252 N   0  0  0  0  0  0  0  0  0  0  0  0
   18.6515   15.9504    4.7075 C   0  0  0  0  0  0  0  0  0  0  0  0
   19.7050   16.3639    4.1866 O   0  0  0  0  0  0  0  0  0  0  0  0
   16.7523   16.3728    5.1469 H   0  0  0  0  0  0  0  0  0  0  0  0
   18.5408   14.7204    5.2613 O   0  0  0  0  0  0  0  0  0  0  0  0
   19.4973   13.7002    4.9957 C   0  0  0  0  0  0  0  0  0  0  0  0
   16.9655   19.6597    8.7019 C   0  0  0  0  0  0  0  0  0  0  0  0
   18.2467   20.0038    9.5242 C   0  0  0  0  0  0  0  0  0  0  0  0
   18.9186   21.2214    9.1864 O   0  0  0  0  0  0  0  0  0  0  0  0
   19.6948   21.3315    9.7576 H   0  0  0  0  0  0  0  0  0  0  0  0
   19.0472   18.7413    9.0159 C   0  0  0  0  0  0  0  0  0  0  0  0
   20.0209   18.8851    8.2475 O   0  0  0  0  0  0  0  0  0  0  0  0
   18.6651   17.4987    9.3690 N   0  0  0  0  0  0  0  0  0  0  0  0
   17.8961   17.3905    9.9741 H   0  0  0  0  0  0  0  0  0  0  0  0
   19.3613   16.2959    8.8783 C   0  0  0  0  0  0  0  0  0  0  0  0
   20.4914   15.7842    9.7260 C   0  0  0  0  0  0  0  0  0  0  0  0
   21.4235   16.5166   10.5317 C   0  0  0  0  0  0  0  0  0  0  0  0
   22.4172   15.7682   11.2552 C   0  0  0  0  0  0  0  0  0  0  0  0
   22.4595   14.3342   11.1583 C   0  0  0  0  0  0  0  0  0  0  0  0
   21.5184   13.6215   10.3428 C   0  0  0  0  0  0  0  0  0  0  0  0
   20.5416   14.3767    9.6356 C   0  0  0  0  0  0  0  0  0  0  0  0
   19.4536   13.8566    8.7242 C   0  0  0  0  0  0  0  0  0  0  0  0
   18.4550   15.0399    8.6625 C   0  0  0  0  0  0  0  0  0  0  0  0
   17.5535   14.8230    9.7396 O   0  0  0  0  0  0  0  0  0  0  0  0
   18.0537   14.7223   10.5646 H   0  0  0  0  0  0  0  0  0  0  0  0
   18.1213   19.9783   11.0881 C   0  0  0  0  0  0  0  0  0  0  0  0
   19.3910   19.6210   11.8547 C   0  0  0  0  0  0  0  0  0  0  0  0
   19.3575   18.5784   12.8467 C   0  0  0  0  0  0  0  0  0  0  0  0
   20.5421   18.2188   13.5556 C   0  0  0  0  0  0  0  0  0  0  0  0
   21.7706   18.8994   13.2758 C   0  0  0  0  0  0  0  0  0  0  0  0
   21.8095   19.9402   12.2892 C   0  0  0  0  0  0  0  0  0  0  0  0
   20.6244   20.3026   11.5778 C   0  0  0  0  0  0  0  0  0  0  0  0
   16.4333   21.3664    7.3187 C   0  0  0  0  0  0  0  0  0  0  0  0
   15.1774   21.8860    6.6413 C   0  0  0  0  0  0  0  0  0  0  0  0
   13.9000   21.4481    7.1075 C   0  0  0  0  0  0  0  0  0  0  0  0
   12.7064   21.9125    6.4747 C   0  0  0  0  0  0  0  0  0  0  0  0
   12.7767   22.8213    5.3576 C   0  0  0  0  0  0  0  0  0  0  0  0
   15.2579   22.7963    5.5370 C   0  0  0  0  0  0  0  0  0  0  0  0
   14.0674   23.2586    4.8961 C   0  0  0  0  0  0  0  0  0  0  0  0
   10.2379   23.7807    2.6154 C   0  0  0  0  0  0  0  0  0  0  0  0
   11.4263   23.3316    3.2600 C   0  0  0  0  0  0  0  0  0  0  0  0
   11.5260   23.2979    4.6918 C   0  0  0  0  0  0  0  0  0  0  0  0
   10.4029   23.7265    5.4682 C   0  0  0  0  0  0  0  0  0  0  0  0
    9.2183   24.1761    4.8198 N   0  0  0  0  0  0  0  0  0  0  0  0
    9.1295   24.2045    3.3971 C   0  0  0  0  0  0  0  0  0  0  0  0
 18 21  1  0  0  0
 18 36  1  0  0  0
 18 19  1  0  0  0
 18 17  1  0  0  0
 21 22  2  0  0  0
 21 23  1  0  0  0
 23 25  1  0  0  0
 25 26  1  0  0  0
 25 33  1  0  0  0
 26 27  2  0  0  0
 26 31  1  0  0  0
 27 28  1  0  0  0
 28 29  2  0  0  0
 29 30  1  0  0  0
 30 31  2  0  0  0
 31 32  1  0  0  0
 32 33  1  0  0  0
 33 34  1  0  0  0
 36 37  1  0  0  0
 37 38  2  0  0  0
 37 42  1  0  0  0
 38 39  1  0  0  0
 39 40  2  0  0  0
 40 41  1  0  0  0
 41 42  2  0  0  0
 17  1  1  0  0  0
  1  2  1  0  0  0
  1 43  1  0  0  0
  2  3  1  0  0  0
 43 44  1  0  0  0
  3  4  2  0  0  0
  3  6  1  0  0  0
  6  7  1  0  0  0
  6 11  1  0  0  0
  7  8  1  0  0  0
  7  9  1  0  0  0
  7 10  1  0  0  0
 11 12  1  0  0  0
 12 13  2  0  0  0
 12 15  1  0  0  0
 15 16  1  0  0  0
 44 45  2  0  0  0
 44 48  1  0  0  0
 45 46  1  0  0  0
 46 47  2  0  0  0
 47 49  1  0  0  0
 47 52  1  0  0  0
 48 49  2  0  0  0
 50 51  1  0  0  0
 50 55  2  0  0  0
 51 52  2  0  0  0
 52 53  1  0  0  0
 53 54  2  0  0  0
 54 55  1  0  0  0
 23 24  1  0  0  0
 34 35  1  0  0  0
 19 20  1  0  0  0
  2  5  1  0  0  0
 11 14  1  0  0  0
M  END
> <minimizedAffinity>
-9.64401

$$$$
2CEN_4AH_B_1200


 55 59  0  0  0  0  0  0  0  0999 V2000
   15.6177   21.6818    7.6990 N   0  0  0  0  0  0  0  0  0  0  0  0
   14.4058   22.2715    7.4306 N   0  0  0  0  0  0  0  0  0  0  0  0
   13.2211   21.8261    6.9682 C   0  0  0  0  0  0  0  0  0  0  0  0
   12.9028   20.6258    6.9484 O   0  0  0  0  0  0  0  0  0  0  0  0
   14.4023   23.2378    7.6188 H   0  0  0  0  0  0  0  0  0  0  0  0
   12.2831   22.9336    6.4510 C   0  0  0  0  0  0  0  0  0  0  0  0
   12.4433   23.4259    4.9710 C   0  0  0  0  0  0  0  0  0  0  0  0
   13.0373   22.3285    4.0460 C   0  0  0  0  0  0  0  0  0  0  0  0
   13.3505   24.6603    4.8465 C   0  0  0  0  0  0  0  0  0  0  0  0
   11.0691   23.7699    4.3870 C   0  0  0  0  0  0  0  0  0  0  0  0
   12.4075   24.0900    7.3549 N   0  0  0  0  0  0  0  0  0  0  0  0
   11.3881   24.7525    7.9251 C   0  0  0  0  0  0  0  0  0  0  0  0
   10.2161   24.3948    7.7007 O   0  0  0  0  0  0  0  0  0  0  0  0
   13.3177   24.4047    7.5589 H   0  0  0  0  0  0  0  0  0  0  0  0
   11.6946   25.8011    8.7241 O   0  0  0  0  0  0  0  0  0  0  0  0
   10.6780   26.5811    9.3443 C   0  0  0  0  0  0  0  0  0  0  0  0
   16.4047   21.0452    6.6854 C   0  0  0  0  0  0  0  0  0  0  0  0
   16.1116   20.0178    5.5476 C   0  0  0  0  0  0  0  0  0  0  0  0
   15.0121   19.1257    5.7557 O   0  0  0  0  0  0  0  0  0  0  0  0
   14.9243   18.5367    4.9900 H   0  0  0  0  0  0  0  0  0  0  0  0
   17.4964   19.2764    5.7083 C   0  0  0  0  0  0  0  0  0  0  0  0
   18.5631   19.9233    5.6524 O   0  0  0  0  0  0  0  0  0  0  0  0
   17.5448   17.9392    5.8640 N   0  0  0  0  0  0  0  0  0  0  0  0
   16.7012   17.4335    5.9064 H   0  0  0  0  0  0  0  0  0  0  0  0
   18.8204   17.2089    5.9728 C   0  0  0  0  0  0  0  0  0  0  0  0
   18.8897   16.1357    7.0222 C   0  0  0  0  0  0  0  0  0  0  0  0
   18.2581   16.0832    8.3077 C   0  0  0  0  0  0  0  0  0  0  0  0
   18.4929   14.9207    9.1231 C   0  0  0  0  0  0  0  0  0  0  0  0
   19.3381   13.8590    8.6479 C   0  0  0  0  0  0  0  0  0  0  0  0
   19.9631   13.9341    7.3586 C   0  0  0  0  0  0  0  0  0  0  0  0
   19.7191   15.0894    6.5647 C   0  0  0  0  0  0  0  0  0  0  0  0
   20.2579   15.3934    5.1855 C   0  0  0  0  0  0  0  0  0  0  0  0
   19.2922   16.4888    4.6672 C   0  0  0  0  0  0  0  0  0  0  0  0
   18.2416   15.7834    4.0202 O   0  0  0  0  0  0  0  0  0  0  0  0
   17.8663   15.1304    4.6314 H   0  0  0  0  0  0  0  0  0  0  0  0
   15.9611   20.5853    4.0926 C   0  0  0  0  0  0  0  0  0  0  0  0
   15.7861   19.5497    2.9860 C   0  0  0  0  0  0  0  0  0  0  0  0
   16.9145   18.7665    2.5551 C   0  0  0  0  0  0  0  0  0  0  0  0
   16.7607   17.7794    1.5368 C   0  0  0  0  0  0  0  0  0  0  0  0
   15.4752   17.5673    0.9425 C   0  0  0  0  0  0  0  0  0  0  0  0
   14.3476   18.3460    1.3670 C   0  0  0  0  0  0  0  0  0  0  0  0
   14.4988   19.3356    2.3866 C   0  0  0  0  0  0  0  0  0  0  0  0
   16.6577   22.1438    8.6446 C   0  0  0  0  0  0  0  0  0  0  0  0
   17.4253   21.0228    9.3232 C   0  0  0  0  0  0  0  0  0  0  0  0
   18.8535   21.0400    9.2996 C   0  0  0  0  0  0  0  0  0  0  0  0
   19.5951   19.9874    9.9185 C   0  0  0  0  0  0  0  0  0  0  0  0
   18.9127   18.8954   10.5671 C   0  0  0  0  0  0  0  0  0  0  0  0
   16.7374   19.9462    9.9730 C   0  0  0  0  0  0  0  0  0  0  0  0
   17.4741   18.8872   10.5877 C   0  0  0  0  0  0  0  0  0  0  0  0
   21.6537   16.2563   11.2059 C   0  0  0  0  0  0  0  0  0  0  0  0
   20.9019   17.3061   10.6040 C   0  0  0  0  0  0  0  0  0  0  0  0
   19.6917   17.7907   11.2055 C   0  0  0  0  0  0  0  0  0  0  0  0
   19.2485   17.1972   12.4300 C   0  0  0  0  0  0  0  0  0  0  0  0
   20.0020   16.1475   13.0266 N   0  0  0  0  0  0  0  0  0  0  0  0
   21.2031   15.6744   12.4214 C   0  0  0  0  0  0  0  0  0  0  0  0
 18 21  1  0  0  0
 18 36  1  0  0  0
 18 19  1  0  0  0
 18 17  1  0  0  0
 21 22  2  0  0  0
 21 23  1  0  0  0
 23 25  1  0  0  0
 25 26  1  0  0  0
 25 33  1  0  0  0
 26 27  2  0  0  0
 26 31  1  0  0  0
 27 28  1  0  0  0
 28 29  2  0  0  0
 29 30  1  0  0  0
 30 31  2  0  0  0
 31 32  1  0  0  0
 32 33  1  0  0  0
 33 34  1  0  0  0
 36 37  1  0  0  0
 37 38  2  0  0  0
 37 42  1  0  0  0
 38 39  1  0  0  0
 39 40  2  0  0  0
 40 41  1  0  0  0
 41 42  2  0  0  0
 17  1  1  0  0  0
  1  2  1  0  0  0
  1 43  1  0  0  0
  2  3  1  0  0  0
 43 44  1  0  0  0
  3  4  2  0  0  0
  3  6  1  0  0  0
  6  7  1  0  0  0
  6 11  1  0  0  0
  7  8  1  0  0  0
  7  9  1  0  0  0
  7 10  1  0  0  0
 11 12  1  0  0  0
 12 13  2  0  0  0
 12 15  1  0  0  0
 15 16  1  0  0  0
 44 45  2  0  0  0
 44 48  1  0  0  0
 45 46  1  0  0  0
 46 47  2  0  0  0
 47 49  1  0  0  0
 47 52  1  0  0  0
 48 49  2  0  0  0
 50 51  1  0  0  0
 50 55  2  0  0  0
 51 52  2  0  0  0
 52 53  1  0  0  0
 53 54  2  0  0  0
 54 55  1  0  0  0
 23 24  1  0  0  0
 34 35  1  0  0  0
 19 20  1  0  0  0
  2  5  1  0  0  0
 11 14  1  0  0  0
M  END
> <minimizedAffinity>
-9.51367

$$$$
2CEN_4AH_B_1200


 55 59  0  0  0  0  0  0  0  0999 V2000
    4.3313   26.3415    4.1422 N   0  0  0  0  0  0  0  0  0  0  0  0
    3.1574   26.7472    4.7303 N   0  0  0  0  0  0  0  0  0  0  0  0
    2.6917   27.9229    5.1956 C   0  0  0  0  0  0  0  0  0  0  0  0
    3.1953   29.0204    4.9054 O   0  0  0  0  0  0  0  0  0  0  0  0
    2.5103   26.0127    4.8355 H   0  0  0  0  0  0  0  0  0  0  0  0
    1.4763   27.7990    6.1344 C   0  0  0  0  0  0  0  0  0  0  0  0
    1.7255   27.5044    7.6541 C   0  0  0  0  0  0  0  0  0  0  0  0
    0.6081   28.0918    8.5592 C   0  0  0  0  0  0  0  0  0  0  0  0
    3.0612   28.0708    8.1616 C   0  0  0  0  0  0  0  0  0  0  0  0
    1.7132   25.9918    7.8983 C   0  0  0  0  0  0  0  0  0  0  0  0
    0.5858   26.7614    5.5866 N   0  0  0  0  0  0  0  0  0  0  0  0
   -0.4357   26.9717    4.7407 C   0  0  0  0  0  0  0  0  0  0  0  0
   -0.6915   28.1289    4.3564 O   0  0  0  0  0  0  0  0  0  0  0  0
    0.7543   25.8323    5.8651 H   0  0  0  0  0  0  0  0  0  0  0  0
   -1.1533   25.8933    4.3486 O   0  0  0  0  0  0  0  0  0  0  0  0
   -0.7849   24.5759    4.7426 C   0  0  0  0  0  0  0  0  0  0  0  0
    5.5089   26.0431    4.9012 C   0  0  0  0  0  0  0  0  0  0  0  0
    6.3076   26.7729    6.0261 C   0  0  0  0  0  0  0  0  0  0  0  0
    6.0663   28.1752    6.1785 O   0  0  0  0  0  0  0  0  0  0  0  0
    6.6129   28.5207    6.9016 H   0  0  0  0  0  0  0  0  0  0  0  0
    7.7130   26.4968    5.3613 C   0  0  0  0  0  0  0  0  0  0  0  0
    8.4763   27.4479    5.0930 O   0  0  0  0  0  0  0  0  0  0  0  0
    8.0849   25.2429    5.0385 N   0  0  0  0  0  0  0  0  0  0  0  0
    7.4791   24.4966    5.2511 H   0  0  0  0  0  0  0  0  0  0  0  0
    9.3696   24.9526    4.3773 C   0  0  0  0  0  0  0  0  0  0  0  0
   10.5115   24.5658    5.2740 C   0  0  0  0  0  0  0  0  0  0  0  0
   10.8080   25.0069    6.6050 C   0  0  0  0  0  0  0  0  0  0  0  0
   11.9784   24.4670    7.2452 C   0  0  0  0  0  0  0  0  0  0  0  0
   12.8118   23.5197    6.5553 C   0  0  0  0  0  0  0  0  0  0  0  0
   12.4978   23.0945    5.2215 C   0  0  0  0  0  0  0  0  0  0  0  0
   11.3362   23.6369    4.6040 C   0  0  0  0  0  0  0  0  0  0  0  0
   10.8031   23.3435    3.2204 C   0  0  0  0  0  0  0  0  0  0  0  0
    9.3287   23.8123    3.3079 C   0  0  0  0  0  0  0  0  0  0  0  0
    8.6014   22.6735    3.7487 O   0  0  0  0  0  0  0  0  0  0  0  0
    8.9964   22.3345    4.5672 H   0  0  0  0  0  0  0  0  0  0  0  0
    6.2510   26.1480    7.4643 C   0  0  0  0  0  0  0  0  0  0  0  0
    7.5282   26.2578    8.2915 C   0  0  0  0  0  0  0  0  0  0  0  0
    8.1505   27.5423    8.4785 C   0  0  0  0  0  0  0  0  0  0  0  0
    9.3327   27.6632    9.2678 C   0  0  0  0  0  0  0  0  0  0  0  0
    9.9007   26.4986    9.8776 C   0  0  0  0  0  0  0  0  0  0  0  0
    9.2856   25.2157    9.6935 C   0  0  0  0  0  0  0  0  0  0  0  0
    8.1015   25.0918    8.9032 C   0  0  0  0  0  0  0  0  0  0  0  0
    4.4949   25.4559    2.9682 C   0  0  0  0  0  0  0  0  0  0  0  0
    3.9192   24.0629    3.1534 C   0  0  0  0  0  0  0  0  0  0  0  0
    4.6173   23.1213    3.9700 C   0  0  0  0  0  0  0  0  0  0  0  0
    4.1013   21.8007    4.1452 C   0  0  0  0  0  0  0  0  0  0  0  0
    2.8767   21.4020    3.4971 C   0  0  0  0  0  0  0  0  0  0  0  0
    2.6963   23.6791    2.5117 C   0  0  0  0  0  0  0  0  0  0  0  0
    2.1793   22.3574    2.6781 C   0  0  0  0  0  0  0  0  0  0  0  0
    2.6967   17.6383    4.3267 C   0  0  0  0  0  0  0  0  0  0  0  0
    3.1946   18.9614    4.1503 C   0  0  0  0  0  0  0  0  0  0  0  0
    2.3446   20.0163    3.6750 C   0  0  0  0  0  0  0  0  0  0  0  0
    0.9773   19.7152    3.3786 C   0  0  0  0  0  0  0  0  0  0  0  0
    0.4849   18.3915    3.5548 N   0  0  0  0  0  0  0  0  0  0  0  0
    1.3374   17.3514    4.0283 C   0  0  0  0  0  0  0  0  0  0  0  0
 18 21  1  0  0  0
 18 36  1  0  0  0
 18 19  1  0  0  0
 18 17  1  0  0  0
 21 22  2  0  0  0
 21 23  1  0  0  0
 23 25  1  0  0  0
 25 26  1  0  0  0
 25 33  1  0  0  0
 26 27  2  0  0  0
 26 31  1  0  0  0
 27 28  1  0  0  0
 28 29  2  0  0  0
 29 30  1  0  0  0
 30 31  2  0  0  0
 31 32  1  0  0  0
 32 33  1  0  0  0
 33 34  1  0  0  0
 36 37  1  0  0  0
 37 38  2  0  0  0
 37 42  1  0  0  0
 38 39  1  0  0  0
 39 40  2  0  0  0
 40 41  1  0  0  0
 41 42  2  0  0  0
 17  1  1  0  0  0
  1  2  1  0  0  0
  1 43  1  0  0  0
  2  3  1  0  0  0
 43 44  1  0  0  0
  3  4  2  0  0  0
  3  6  1  0  0  0
  6  7  1  0  0  0
  6 11  1  0  0  0
  7  8  1  0  0  0
  7  9  1  0  0  0
  7 10  1  0  0  0
 11 12  1  0  0  0
 12 13  2  0  0  0
 12 15  1  0  0  0
 15 16  1  0  0  0
 44 45  2  0  0  0
 44 48  1  0  0  0
 45 46  1  0  0  0
 46 47  2  0  0  0
 47 49  1  0  0  0
 47 52  1  0  0  0
 48 49  2  0  0  0
 50 51  1  0  0  0
 50 55  2  0  0  0
 51 52  2  0  0  0
 52 53  1  0  0  0
 53 54  2  0  0  0
 54 55  1  0  0  0
 23 24  1  0  0  0
 34 35  1  0  0  0
 19 20  1  0  0  0
  2  5  1  0  0  0
 11 14  1  0  0  0
M  END
> <minimizedAffinity>
-9.43813

$$$$
