4S1G_43T_A_502


 34 36  0  0  0  0  0  0  0  0999 V2000
   36.1664   61.4285   42.2605 C   0  0  0  0  0  0  0  0  0  0  0  0
   36.3518   61.0651   43.5896 C   0  0  0  0  0  0  0  0  0  0  0  0
   37.5982   61.1740   44.1762 C   0  0  0  0  0  0  0  0  0  0  0  0
   38.6584   61.6527   43.4383 C   0  0  0  0  0  0  0  0  0  0  0  0
   38.4784   61.9908   42.1128 C   0  0  0  0  0  0  0  0  0  0  0  0
   37.2399   61.8837   41.5130 C   0  0  0  0  0  0  0  0  0  0  0  0
   39.5473   62.4396   41.4382 F   0  0  0  0  0  0  0  0  0  0  0  0
   37.8616   60.8504   45.5981 C   0  0  0  0  0  0  0  0  0  0  0  0
   38.8211   61.3530   46.1784 O   0  0  0  0  0  0  0  0  0  0  0  0
   36.9489   60.0185   46.2110 N   0  0  0  0  0  0  0  0  0  0  0  0
   36.1572   59.7023   45.7185 H   0  0  0  0  0  0  0  0  0  0  0  0
   37.1648   59.6104   47.5943 C   0  0  0  0  0  0  0  0  0  0  0  0
   36.0037   60.1079   48.4325 C   0  0  0  0  0  0  0  0  0  0  0  0
   37.2781   58.1170   47.7328 C   0  0  0  0  0  0  0  0  0  0  0  0
   37.7214   57.5741   48.9291 C   0  0  0  0  0  0  0  0  0  0  0  0
   37.8277   56.2041   49.0578 C   0  0  0  0  0  0  0  0  0  0  0  0
   37.5012   55.3533   48.0131 C   0  0  0  0  0  0  0  0  0  0  0  0
   37.0765   55.8856   46.8108 C   0  0  0  0  0  0  0  0  0  0  0  0
   36.9691   57.2616   46.6793 C   0  0  0  0  0  0  0  0  0  0  0  0
   34.8275   61.3356   41.5904 C   0  0  0  0  0  0  0  0  0  0  0  0
   33.1585   57.9634   42.1005 C   0  0  0  0  0  0  0  0  0  0  0  0
   34.0788   59.0279   41.5621 C   0  0  0  0  0  0  0  0  0  0  0  0
   33.9467   60.2976   42.0940 N   0  0  0  0  0  0  0  0  0  0  0  0
   32.9030   60.5947   42.9671 C   0  0  0  0  0  0  0  0  0  0  0  0
   32.2716   59.5564   43.6104 N   0  0  0  0  0  0  0  0  0  0  0  0
   32.7000   58.1798   43.5333 C   0  0  0  0  0  0  0  0  0  0  0  0
   31.4232   57.3756   43.7566 C   0  0  0  0  0  0  0  0  0  0  0  0
   32.5093   61.8120   43.1320 N   0  0  0  0  0  0  0  0  0  0  0  0
   34.9184   58.7272   40.7340 O   0  0  0  0  0  0  0  0  0  0  0  0
   31.7706   62.0109   43.7517 H   0  0  0  0  0  0  0  0  0  0  0  0
   32.9475   62.5423   42.6381 H   0  0  0  0  0  0  0  0  0  0  0  0
   33.8034   57.8552   44.5658 C   0  0  0  0  0  0  0  0  0  0  0  0
   33.5442   58.4753   45.9349 C   0  0  0  0  0  0  0  0  0  0  0  0
   34.0537   56.3543   44.7570 C   0  0  0  0  0  0  0  0  0  0  0  0
 17 16  2  0  0  0
 17 18  1  0  0  0
 16 15  1  0  0  0
 18 19  2  0  0  0
 15 14  2  0  0  0
 33 32  1  0  0  0
 19 14  1  0  0  0
 14 12  1  0  0  0
 34 32  1  0  0  0
 27 26  1  0  0  0
 32 26  1  0  0  0
 13 12  1  0  0  0
 12 10  1  0  0  0
 26 21  1  0  0  0
 26 25  1  0  0  0
 21 22  1  0  0  0
 10  8  1  0  0  0
 25 24  2  0  0  0
  9  8  2  0  0  0
  8  3  1  0  0  0
 22 29  2  0  0  0
 22 23  1  0  0  0
 24 23  1  0  0  0
 24 28  1  0  0  0
 23 20  1  0  0  0
  3  2  2  0  0  0
  3  4  1  0  0  0
  2  1  1  0  0  0
  4  5  2  0  0  0
  1 20  1  0  0  0
  1  6  2  0  0  0
  5  6  1  0  0  0
  5  7  1  0  0  0
 28 30  1  0  0  0
 28 31  1  0  0  0
 10 11  1  0  0  0
M  END
> <minimizedAffinity>
-10.98717

$$$$
4S1G_43T_A_502


 34 36  0  0  0  0  0  0  0  0999 V2000
   36.1434   61.6924   42.2797 C   0  0  0  0  0  0  0  0  0  0  0  0
   36.4820   61.0679   43.4747 C   0  0  0  0  0  0  0  0  0  0  0  0
   37.6513   61.4023   44.1308 C   0  0  0  0  0  0  0  0  0  0  0  0
   38.4793   62.3657   43.5978 C   0  0  0  0  0  0  0  0  0  0  0  0
   38.1538   62.9679   42.3999 C   0  0  0  0  0  0  0  0  0  0  0  0
   36.9910   62.6410   41.7320 C   0  0  0  0  0  0  0  0  0  0  0  0
   39.0019   63.8899   41.9205 F   0  0  0  0  0  0  0  0  0  0  0  0
   38.0548   60.8141   45.4297 C   0  0  0  0  0  0  0  0  0  0  0  0
   37.5246   61.1938   46.4710 O   0  0  0  0  0  0  0  0  0  0  0  0
   38.9941   59.8064   45.3745 N   0  0  0  0  0  0  0  0  0  0  0  0
   39.3326   59.4910   44.5055 H   0  0  0  0  0  0  0  0  0  0  0  0
   39.4825   59.2111   46.6130 C   0  0  0  0  0  0  0  0  0  0  0  0
   39.8021   57.7518   46.3554 C   0  0  0  0  0  0  0  0  0  0  0  0
   40.7107   59.9085   47.1304 C   0  0  0  0  0  0  0  0  0  0  0  0
   41.5844   60.5062   46.2351 C   0  0  0  0  0  0  0  0  0  0  0  0
   42.7128   61.1453   46.7075 C   0  0  0  0  0  0  0  0  0  0  0  0
   42.9955   61.2028   48.0635 C   0  0  0  0  0  0  0  0  0  0  0  0
   42.1406   60.5939   48.9622 C   0  0  0  0  0  0  0  0  0  0  0  0
   41.0066   59.9513   48.4897 C   0  0  0  0  0  0  0  0  0  0  0  0
   34.8783   61.3656   41.5427 C   0  0  0  0  0  0  0  0  0  0  0  0
   33.3549   57.9652   42.2735 C   0  0  0  0  0  0  0  0  0  0  0  0
   34.2079   59.0360   41.6443 C   0  0  0  0  0  0  0  0  0  0  0  0
   34.0620   60.3211   42.1340 N   0  0  0  0  0  0  0  0  0  0  0  0
   33.0580   60.6196   43.0520 C   0  0  0  0  0  0  0  0  0  0  0  0
   32.4982   59.5883   43.7687 N   0  0  0  0  0  0  0  0  0  0  0  0
   32.9682   58.2240   43.7204 C   0  0  0  0  0  0  0  0  0  0  0  0
   31.7335   57.3892   44.0451 C   0  0  0  0  0  0  0  0  0  0  0  0
   32.6328   61.8295   43.1921 N   0  0  0  0  0  0  0  0  0  0  0  0
   35.0107   58.7293   40.7827 O   0  0  0  0  0  0  0  0  0  0  0  0
   31.9227   62.0293   43.8440 H   0  0  0  0  0  0  0  0  0  0  0  0
   33.0185   62.5529   42.6470 H   0  0  0  0  0  0  0  0  0  0  0  0
   34.1367   57.9761   44.7012 C   0  0  0  0  0  0  0  0  0  0  0  0
   33.8534   58.4835   46.1113 C   0  0  0  0  0  0  0  0  0  0  0  0
   34.5678   56.5074   44.7959 C   0  0  0  0  0  0  0  0  0  0  0  0
 17 16  2  0  0  0
 17 18  1  0  0  0
 16 15  1  0  0  0
 18 19  2  0  0  0
 15 14  2  0  0  0
 33 32  1  0  0  0
 19 14  1  0  0  0
 14 12  1  0  0  0
 34 32  1  0  0  0
 27 26  1  0  0  0
 32 26  1  0  0  0
 13 12  1  0  0  0
 12 10  1  0  0  0
 26 21  1  0  0  0
 26 25  1  0  0  0
 21 22  1  0  0  0
 10  8  1  0  0  0
 25 24  2  0  0  0
  9  8  2  0  0  0
  8  3  1  0  0  0
 22 29  2  0  0  0
 22 23  1  0  0  0
 24 23  1  0  0  0
 24 28  1  0  0  0
 23 20  1  0  0  0
  3  2  2  0  0  0
  3  4  1  0  0  0
  2  1  1  0  0  0
  4  5  2  0  0  0
  1 20  1  0  0  0
  1  6  2  0  0  0
  5  6  1  0  0  0
  5  7  1  0  0  0
 28 30  1  0  0  0
 28 31  1  0  0  0
 10 11  1  0  0  0
M  END
> <minimizedAffinity>
-9.46588

$$$$
4S1G_43T_A_502


 34 36  0  0  0  0  0  0  0  0999 V2000
   38.3949   61.3114   44.2036 C   0  0  0  0  0  0  0  0  0  0  0  0
   37.0258   61.1692   44.0087 C   0  0  0  0  0  0  0  0  0  0  0  0
   36.4596   61.4693   42.7844 C   0  0  0  0  0  0  0  0  0  0  0  0
   37.2614   61.9045   41.7520 C   0  0  0  0  0  0  0  0  0  0  0  0
   38.6165   62.0676   41.9537 C   0  0  0  0  0  0  0  0  0  0  0  0
   39.1947   61.7751   43.1724 C   0  0  0  0  0  0  0  0  0  0  0  0
   39.3477   62.5058   40.9182 F   0  0  0  0  0  0  0  0  0  0  0  0
   35.0177   61.2985   42.4884 C   0  0  0  0  0  0  0  0  0  0  0  0
   34.1902   62.0549   42.9913 O   0  0  0  0  0  0  0  0  0  0  0  0
   34.6952   60.2994   41.5948 N   0  0  0  0  0  0  0  0  0  0  0  0
   35.4055   59.7698   41.1654 H   0  0  0  0  0  0  0  0  0  0  0  0
   33.2942   60.0329   41.2902 C   0  0  0  0  0  0  0  0  0  0  0  0
   33.1783   59.6705   39.8228 C   0  0  0  0  0  0  0  0  0  0  0  0
   32.7356   58.9150   42.1273 C   0  0  0  0  0  0  0  0  0  0  0  0
   33.5832   57.9211   42.5921 C   0  0  0  0  0  0  0  0  0  0  0  0
   33.0726   56.8935   43.3590 C   0  0  0  0  0  0  0  0  0  0  0  0
   31.7245   56.8306   43.6762 C   0  0  0  0  0  0  0  0  0  0  0  0
   30.8687   57.8062   43.2019 C   0  0  0  0  0  0  0  0  0  0  0  0
   31.3795   58.8392   42.4312 C   0  0  0  0  0  0  0  0  0  0  0  0
   39.0492   60.9858   45.5137 C   0  0  0  0  0  0  0  0  0  0  0  0
   37.1600   58.5859   47.7695 C   0  0  0  0  0  0  0  0  0  0  0  0
   37.6183   59.8669   47.1223 C   0  0  0  0  0  0  0  0  0  0  0  0
   38.5977   59.7625   46.1514 N   0  0  0  0  0  0  0  0  0  0  0  0
   39.2298   58.5449   45.9110 C   0  0  0  0  0  0  0  0  0  0  0  0
   38.6095   57.3912   46.3288 N   0  0  0  0  0  0  0  0  0  0  0  0
   37.2823   57.3486   46.8954 C   0  0  0  0  0  0  0  0  0  0  0  0
   37.2986   56.1202   47.7996 C   0  0  0  0  0  0  0  0  0  0  0  0
   40.3912   58.5058   45.3507 N   0  0  0  0  0  0  0  0  0  0  0  0
   37.0871   60.9162   47.4348 O   0  0  0  0  0  0  0  0  0  0  0  0
   40.8290   57.6397   45.1854 H   0  0  0  0  0  0  0  0  0  0  0  0
   40.8396   59.3421   45.0884 H   0  0  0  0  0  0  0  0  0  0  0  0
   36.1870   57.2795   45.8070 C   0  0  0  0  0  0  0  0  0  0  0  0
   35.8062   55.8516   45.4298 C   0  0  0  0  0  0  0  0  0  0  0  0
   34.9049   58.0404   46.1662 C   0  0  0  0  0  0  0  0  0  0  0  0
 17 16  2  0  0  0
 17 18  1  0  0  0
 16 15  1  0  0  0
 18 19  2  0  0  0
 15 14  2  0  0  0
 33 32  1  0  0  0
 19 14  1  0  0  0
 14 12  1  0  0  0
 34 32  1  0  0  0
 27 26  1  0  0  0
 32 26  1  0  0  0
 13 12  1  0  0  0
 12 10  1  0  0  0
 26 21  1  0  0  0
 26 25  1  0  0  0
 21 22  1  0  0  0
 10  8  1  0  0  0
 25 24  2  0  0  0
  9  8  2  0  0  0
  8  3  1  0  0  0
 22 29  2  0  0  0
 22 23  1  0  0  0
 24 23  1  0  0  0
 24 28  1  0  0  0
 23 20  1  0  0  0
  3  2  2  0  0  0
  3  4  1  0  0  0
  2  1  1  0  0  0
  4  5  2  0  0  0
  1 20  1  0  0  0
  1  6  2  0  0  0
  5  6  1  0  0  0
  5  7  1  0  0  0
 28 30  1  0  0  0
 28 31  1  0  0  0
 10 11  1  0  0  0
M  END
> <minimizedAffinity>
-9.23639

$$$$
4S1G_43T_A_502


 34 36  0  0  0  0  0  0  0  0999 V2000
   34.5305   58.5674   46.2033 C   0  0  0  0  0  0  0  0  0  0  0  0
   34.6846   58.5764   44.8217 C   0  0  0  0  0  0  0  0  0  0  0  0
   33.5875   58.7389   43.9974 C   0  0  0  0  0  0  0  0  0  0  0  0
   32.3370   58.8998   44.5525 C   0  0  0  0  0  0  0  0  0  0  0  0
   32.1821   58.8671   45.9231 C   0  0  0  0  0  0  0  0  0  0  0  0
   33.2686   58.7020   46.7582 C   0  0  0  0  0  0  0  0  0  0  0  0
   30.9409   59.0164   46.4091 F   0  0  0  0  0  0  0  0  0  0  0  0
   33.6798   58.8053   42.5200 C   0  0  0  0  0  0  0  0  0  0  0  0
   33.9533   57.7975   41.8723 O   0  0  0  0  0  0  0  0  0  0  0  0
   33.3900   60.0256   41.9475 N   0  0  0  0  0  0  0  0  0  0  0  0
   33.1052   60.7820   42.5096 H   0  0  0  0  0  0  0  0  0  0  0  0
   33.5084   60.1875   40.5030 C   0  0  0  0  0  0  0  0  0  0  0  0
   32.1161   60.2835   39.9110 C   0  0  0  0  0  0  0  0  0  0  0  0
   34.2948   61.4153   40.1336 C   0  0  0  0  0  0  0  0  0  0  0  0
   33.8060   62.2713   39.1586 C   0  0  0  0  0  0  0  0  0  0  0  0
   34.5267   63.3976   38.8169 C   0  0  0  0  0  0  0  0  0  0  0  0
   35.7352   63.6943   39.4280 C   0  0  0  0  0  0  0  0  0  0  0  0
   36.2398   62.8374   40.3875 C   0  0  0  0  0  0  0  0  0  0  0  0
   35.5174   61.7054   40.7320 C   0  0  0  0  0  0  0  0  0  0  0  0
   35.6972   58.4047   47.1323 C   0  0  0  0  0  0  0  0  0  0  0  0
   39.1982   59.0887   45.8312 C   0  0  0  0  0  0  0  0  0  0  0  0
   37.9503   58.3466   46.2341 C   0  0  0  0  0  0  0  0  0  0  0  0
   36.9091   59.1018   46.7423 N   0  0  0  0  0  0  0  0  0  0  0  0
   37.0822   60.4576   47.0098 C   0  0  0  0  0  0  0  0  0  0  0  0
   38.1198   61.1190   46.3962 N   0  0  0  0  0  0  0  0  0  0  0  0
   38.9735   60.5268   45.3937 C   0  0  0  0  0  0  0  0  0  0  0  0
   40.2918   61.2823   45.5285 C   0  0  0  0  0  0  0  0  0  0  0  0
   36.3144   61.0660   47.8491 N   0  0  0  0  0  0  0  0  0  0  0  0
   37.8876   57.1445   46.0554 O   0  0  0  0  0  0  0  0  0  0  0  0
   36.4456   62.0247   48.0308 H   0  0  0  0  0  0  0  0  0  0  0  0
   35.5972   60.5716   48.3080 H   0  0  0  0  0  0  0  0  0  0  0  0
   38.3642   60.6286   43.9769 C   0  0  0  0  0  0  0  0  0  0  0  0
   37.0604   61.4189   43.9406 C   0  0  0  0  0  0  0  0  0  0  0  0
   39.3164   61.2230   42.9320 C   0  0  0  0  0  0  0  0  0  0  0  0
 17 16  2  0  0  0
 17 18  1  0  0  0
 16 15  1  0  0  0
 18 19  2  0  0  0
 15 14  2  0  0  0
 33 32  1  0  0  0
 19 14  1  0  0  0
 14 12  1  0  0  0
 34 32  1  0  0  0
 27 26  1  0  0  0
 32 26  1  0  0  0
 13 12  1  0  0  0
 12 10  1  0  0  0
 26 21  1  0  0  0
 26 25  1  0  0  0
 21 22  1  0  0  0
 10  8  1  0  0  0
 25 24  2  0  0  0
  9  8  2  0  0  0
  8  3  1  0  0  0
 22 29  2  0  0  0
 22 23  1  0  0  0
 24 23  1  0  0  0
 24 28  1  0  0  0
 23 20  1  0  0  0
  3  2  2  0  0  0
  3  4  1  0  0  0
  2  1  1  0  0  0
  4  5  2  0  0  0
  1 20  1  0  0  0
  1  6  2  0  0  0
  5  6  1  0  0  0
  5  7  1  0  0  0
 28 30  1  0  0  0
 28 31  1  0  0  0
 10 11  1  0  0  0
M  END
> <minimizedAffinity>
-9.06573

$$$$
4S1G_43T_A_502


 34 36  0  0  0  0  0  0  0  0999 V2000
   33.8616   58.2777   44.8427 C   0  0  0  0  0  0  0  0  0  0  0  0
   34.4741   58.8345   43.7258 C   0  0  0  0  0  0  0  0  0  0  0  0
   33.8092   58.8821   42.5154 C   0  0  0  0  0  0  0  0  0  0  0  0
   32.5297   58.3803   42.4214 C   0  0  0  0  0  0  0  0  0  0  0  0
   31.9318   57.8067   43.5247 C   0  0  0  0  0  0  0  0  0  0  0  0
   32.5856   57.7492   44.7389 C   0  0  0  0  0  0  0  0  0  0  0  0
   30.6900   57.3228   43.3737 F   0  0  0  0  0  0  0  0  0  0  0  0
   34.3789   59.5010   41.2954 C   0  0  0  0  0  0  0  0  0  0  0  0
   35.0030   58.8156   40.4889 O   0  0  0  0  0  0  0  0  0  0  0  0
   34.1151   60.8421   41.1148 N   0  0  0  0  0  0  0  0  0  0  0  0
   33.5473   61.3267   41.7566 H   0  0  0  0  0  0  0  0  0  0  0  0
   34.6834   61.5375   39.9658 C   0  0  0  0  0  0  0  0  0  0  0  0
   33.5901   62.3532   39.3044 C   0  0  0  0  0  0  0  0  0  0  0  0
   35.8173   62.4450   40.3574 C   0  0  0  0  0  0  0  0  0  0  0  0
   36.0589   63.5932   39.6189 C   0  0  0  0  0  0  0  0  0  0  0  0
   37.0998   64.4264   39.9754 C   0  0  0  0  0  0  0  0  0  0  0  0
   37.9147   64.1402   41.0599 C   0  0  0  0  0  0  0  0  0  0  0  0
   37.6935   62.9886   41.7907 C   0  0  0  0  0  0  0  0  0  0  0  0
   36.6485   62.1501   41.4341 C   0  0  0  0  0  0  0  0  0  0  0  0
   34.5451   58.2170   46.1767 C   0  0  0  0  0  0  0  0  0  0  0  0
   38.2956   58.8005   46.2811 C   0  0  0  0  0  0  0  0  0  0  0  0
   36.8132   59.0663   46.3231 C   0  0  0  0  0  0  0  0  0  0  0  0
   35.9768   57.9810   46.1358 N   0  0  0  0  0  0  0  0  0  0  0  0
   36.4958   56.7416   45.7693 C   0  0  0  0  0  0  0  0  0  0  0  0
   37.8296   56.4970   45.9968 N   0  0  0  0  0  0  0  0  0  0  0  0
   38.7061   57.3997   46.7047 C   0  0  0  0  0  0  0  0  0  0  0  0
   40.0889   57.1091   46.1302 C   0  0  0  0  0  0  0  0  0  0  0  0
   35.7518   55.8623   45.1884 N   0  0  0  0  0  0  0  0  0  0  0  0
   36.4157   60.1910   46.5639 O   0  0  0  0  0  0  0  0  0  0  0  0
   36.1290   54.9893   44.9336 H   0  0  0  0  0  0  0  0  0  0  0  0
   34.8069   56.0642   44.9999 H   0  0  0  0  0  0  0  0  0  0  0  0
   38.6362   57.1975   48.2355 C   0  0  0  0  0  0  0  0  0  0  0  0
   38.9967   55.7807   48.6699 C   0  0  0  0  0  0  0  0  0  0  0  0
   39.5028   58.1802   49.0325 C   0  0  0  0  0  0  0  0  0  0  0  0
 17 16  2  0  0  0
 17 18  1  0  0  0
 16 15  1  0  0  0
 18 19  2  0  0  0
 15 14  2  0  0  0
 33 32  1  0  0  0
 19 14  1  0  0  0
 14 12  1  0  0  0
 34 32  1  0  0  0
 27 26  1  0  0  0
 32 26  1  0  0  0
 13 12  1  0  0  0
 12 10  1  0  0  0
 26 21  1  0  0  0
 26 25  1  0  0  0
 21 22  1  0  0  0
 10  8  1  0  0  0
 25 24  2  0  0  0
  9  8  2  0  0  0
  8  3  1  0  0  0
 22 29  2  0  0  0
 22 23  1  0  0  0
 24 23  1  0  0  0
 24 28  1  0  0  0
 23 20  1  0  0  0
  3  2  2  0  0  0
  3  4  1  0  0  0
  2  1  1  0  0  0
  4  5  2  0  0  0
  1 20  1  0  0  0
  1  6  2  0  0  0
  5  6  1  0  0  0
  5  7  1  0  0  0
 28 30  1  0  0  0
 28 31  1  0  0  0
 10 11  1  0  0  0
M  END
> <minimizedAffinity>
-9.01176

$$$$
4S1G_43T_A_502


 34 36  0  0  0  0  0  0  0  0999 V2000
   37.4599   58.6151   46.2599 C   0  0  0  0  0  0  0  0  0  0  0  0
   37.3228   59.8311   45.6001 C   0  0  0  0  0  0  0  0  0  0  0  0
   38.3980   60.3908   44.9365 C   0  0  0  0  0  0  0  0  0  0  0  0
   39.6084   59.7330   44.9253 C   0  0  0  0  0  0  0  0  0  0  0  0
   39.7494   58.5380   45.6002 C   0  0  0  0  0  0  0  0  0  0  0  0
   38.6850   57.9693   46.2701 C   0  0  0  0  0  0  0  0  0  0  0  0
   40.9530   57.9469   45.5667 F   0  0  0  0  0  0  0  0  0  0  0  0
   38.3156   61.6584   44.1734 C   0  0  0  0  0  0  0  0  0  0  0  0
   38.7158   62.7072   44.6731 O   0  0  0  0  0  0  0  0  0  0  0  0
   37.8268   61.5629   42.8879 N   0  0  0  0  0  0  0  0  0  0  0  0
   37.5883   60.6848   42.5119 H   0  0  0  0  0  0  0  0  0  0  0  0
   37.6656   62.7723   42.0891 C   0  0  0  0  0  0  0  0  0  0  0  0
   38.9382   63.0033   41.2984 C   0  0  0  0  0  0  0  0  0  0  0  0
   36.4998   62.6750   41.1436 C   0  0  0  0  0  0  0  0  0  0  0  0
   35.5493   61.6833   41.3316 C   0  0  0  0  0  0  0  0  0  0  0  0
   34.4797   61.5911   40.4643 C   0  0  0  0  0  0  0  0  0  0  0  0
   34.3331   62.4708   39.4029 C   0  0  0  0  0  0  0  0  0  0  0  0
   35.2851   63.4508   39.1961 C   0  0  0  0  0  0  0  0  0  0  0  0
   36.3604   63.5450   40.0661 C   0  0  0  0  0  0  0  0  0  0  0  0
   36.3146   57.9692   46.9822 C   0  0  0  0  0  0  0  0  0  0  0  0
   32.7594   58.1822   45.6660 C   0  0  0  0  0  0  0  0  0  0  0  0
   33.9818   58.4389   46.5084 C   0  0  0  0  0  0  0  0  0  0  0  0
   35.1255   57.7323   46.1841 N   0  0  0  0  0  0  0  0  0  0  0  0
   35.0862   56.7219   45.2263 C   0  0  0  0  0  0  0  0  0  0  0  0
   34.0439   56.7096   44.3297 N   0  0  0  0  0  0  0  0  0  0  0  0
   33.0467   57.7496   44.2376 C   0  0  0  0  0  0  0  0  0  0  0  0
   31.8118   57.0394   43.6923 C   0  0  0  0  0  0  0  0  0  0  0  0
   35.9824   55.7941   45.2113 N   0  0  0  0  0  0  0  0  0  0  0  0
   33.9329   59.2754   47.3910 O   0  0  0  0  0  0  0  0  0  0  0  0
   35.9451   55.0846   44.5298 H   0  0  0  0  0  0  0  0  0  0  0  0
   36.7036   55.7955   45.8814 H   0  0  0  0  0  0  0  0  0  0  0  0
   33.5099   58.9223   43.3435 C   0  0  0  0  0  0  0  0  0  0  0  0
   33.5560   58.5641   41.8617 C   0  0  0  0  0  0  0  0  0  0  0  0
   32.6711   60.1959   43.5047 C   0  0  0  0  0  0  0  0  0  0  0  0
 17 16  2  0  0  0
 17 18  1  0  0  0
 16 15  1  0  0  0
 18 19  2  0  0  0
 15 14  2  0  0  0
 33 32  1  0  0  0
 19 14  1  0  0  0
 14 12  1  0  0  0
 34 32  1  0  0  0
 27 26  1  0  0  0
 32 26  1  0  0  0
 13 12  1  0  0  0
 12 10  1  0  0  0
 26 21  1  0  0  0
 26 25  1  0  0  0
 21 22  1  0  0  0
 10  8  1  0  0  0
 25 24  2  0  0  0
  9  8  2  0  0  0
  8  3  1  0  0  0
 22 29  2  0  0  0
 22 23  1  0  0  0
 24 23  1  0  0  0
 24 28  1  0  0  0
 23 20  1  0  0  0
  3  2  2  0  0  0
  3  4  1  0  0  0
  2  1  1  0  0  0
  4  5  2  0  0  0
  1 20  1  0  0  0
  1  6  2  0  0  0
  5  6  1  0  0  0
  5  7  1  0  0  0
 28 30  1  0  0  0
 28 31  1  0  0  0
 10 11  1  0  0  0
M  END
> <minimizedAffinity>
-8.93763

$$$$
4S1G_43T_A_502


 34 36  0  0  0  0  0  0  0  0999 V2000
   37.4820   57.9369   47.6859 C   0  0  0  0  0  0  0  0  0  0  0  0
   36.8651   57.3220   46.6024 C   0  0  0  0  0  0  0  0  0  0  0  0
   35.5844   57.6836   46.2302 C   0  0  0  0  0  0  0  0  0  0  0  0
   34.9220   58.6644   46.9352 C   0  0  0  0  0  0  0  0  0  0  0  0
   35.5263   59.2573   48.0246 C   0  0  0  0  0  0  0  0  0  0  0  0
   36.8036   58.9033   48.4097 C   0  0  0  0  0  0  0  0  0  0  0  0
   34.8311   60.1973   48.6821 F   0  0  0  0  0  0  0  0  0  0  0  0
   34.8812   57.1066   45.0603 C   0  0  0  0  0  0  0  0  0  0  0  0
   35.1938   55.9958   44.6381 O   0  0  0  0  0  0  0  0  0  0  0  0
   33.8509   57.8596   44.5388 N   0  0  0  0  0  0  0  0  0  0  0  0
   33.5950   58.7108   44.9622 H   0  0  0  0  0  0  0  0  0  0  0  0
   33.1428   57.3859   43.3551 C   0  0  0  0  0  0  0  0  0  0  0  0
   31.7300   57.0087   43.7550 C   0  0  0  0  0  0  0  0  0  0  0  0
   33.0947   58.4264   42.2700 C   0  0  0  0  0  0  0  0  0  0  0  0
   34.2606   58.7734   41.6048 C   0  0  0  0  0  0  0  0  0  0  0  0
   34.2191   59.7291   40.6100 C   0  0  0  0  0  0  0  0  0  0  0  0
   33.0327   60.3547   40.2590 C   0  0  0  0  0  0  0  0  0  0  0  0
   31.8689   60.0293   40.9290 C   0  0  0  0  0  0  0  0  0  0  0  0
   31.9085   59.0696   41.9288 C   0  0  0  0  0  0  0  0  0  0  0  0
   38.8748   57.5807   48.1149 C   0  0  0  0  0  0  0  0  0  0  0  0
   41.6581   58.9892   45.9501 C   0  0  0  0  0  0  0  0  0  0  0  0
   40.5744   58.0721   46.4546 C   0  0  0  0  0  0  0  0  0  0  0  0
   39.9246   58.4499   47.6155 N   0  0  0  0  0  0  0  0  0  0  0  0
   40.3713   59.5432   48.3537 C   0  0  0  0  0  0  0  0  0  0  0  0
   41.1707   60.4719   47.7300 N   0  0  0  0  0  0  0  0  0  0  0  0
   41.4807   60.4526   46.3201 C   0  0  0  0  0  0  0  0  0  0  0  0
   42.8384   61.1413   46.2240 C   0  0  0  0  0  0  0  0  0  0  0  0
   40.0788   59.6562   49.6050 N   0  0  0  0  0  0  0  0  0  0  0  0
   40.2837   57.0815   45.8104 O   0  0  0  0  0  0  0  0  0  0  0  0
   40.3997   60.4332   50.1174 H   0  0  0  0  0  0  0  0  0  0  0  0
   39.5345   58.9654   50.0476 H   0  0  0  0  0  0  0  0  0  0  0  0
   40.3910   61.1512   45.4752 C   0  0  0  0  0  0  0  0  0  0  0  0
   40.5939   62.6586   45.3636 C   0  0  0  0  0  0  0  0  0  0  0  0
   40.2403   60.5799   44.0601 C   0  0  0  0  0  0  0  0  0  0  0  0
 17 16  2  0  0  0
 17 18  1  0  0  0
 16 15  1  0  0  0
 18 19  2  0  0  0
 15 14  2  0  0  0
 33 32  1  0  0  0
 19 14  1  0  0  0
 14 12  1  0  0  0
 34 32  1  0  0  0
 27 26  1  0  0  0
 32 26  1  0  0  0
 13 12  1  0  0  0
 12 10  1  0  0  0
 26 21  1  0  0  0
 26 25  1  0  0  0
 21 22  1  0  0  0
 10  8  1  0  0  0
 25 24  2  0  0  0
  9  8  2  0  0  0
  8  3  1  0  0  0
 22 29  2  0  0  0
 22 23  1  0  0  0
 24 23  1  0  0  0
 24 28  1  0  0  0
 23 20  1  0  0  0
  3  2  2  0  0  0
  3  4  1  0  0  0
  2  1  1  0  0  0
  4  5  2  0  0  0
  1 20  1  0  0  0
  1  6  2  0  0  0
  5  6  1  0  0  0
  5  7  1  0  0  0
 28 30  1  0  0  0
 28 31  1  0  0  0
 10 11  1  0  0  0
M  END
> <minimizedAffinity>
-8.92720

$$$$
4S1G_43T_A_502


 34 36  0  0  0  0  0  0  0  0999 V2000
   36.6115   57.8566   46.9382 C   0  0  0  0  0  0  0  0  0  0  0  0
   35.7068   57.8504   45.8826 C   0  0  0  0  0  0  0  0  0  0  0  0
   35.2296   56.6554   45.3787 C   0  0  0  0  0  0  0  0  0  0  0  0
   35.6498   55.4665   45.9334 C   0  0  0  0  0  0  0  0  0  0  0  0
   36.5656   55.4733   46.9654 C   0  0  0  0  0  0  0  0  0  0  0  0
   37.0533   56.6592   47.4760 C   0  0  0  0  0  0  0  0  0  0  0  0
   36.9495   54.2869   47.4595 F   0  0  0  0  0  0  0  0  0  0  0  0
   34.2301   56.5711   44.2880 C   0  0  0  0  0  0  0  0  0  0  0  0
   33.9492   55.4833   43.7903 O   0  0  0  0  0  0  0  0  0  0  0  0
   33.6219   57.7551   43.9285 N   0  0  0  0  0  0  0  0  0  0  0  0
   33.8323   58.5871   44.4109 H   0  0  0  0  0  0  0  0  0  0  0  0
   32.6647   57.7657   42.8283 C   0  0  0  0  0  0  0  0  0  0  0  0
   31.2723   57.9463   43.4000 C   0  0  0  0  0  0  0  0  0  0  0  0
   32.9474   58.8661   41.8426 C   0  0  0  0  0  0  0  0  0  0  0  0
   34.2466   59.0737   41.4053 C   0  0  0  0  0  0  0  0  0  0  0  0
   34.5085   60.0838   40.5021 C   0  0  0  0  0  0  0  0  0  0  0  0
   33.4978   60.9013   40.0202 C   0  0  0  0  0  0  0  0  0  0  0  0
   32.2028   60.7144   40.4644 C   0  0  0  0  0  0  0  0  0  0  0  0
   31.9376   59.7003   41.3718 C   0  0  0  0  0  0  0  0  0  0  0  0
   37.1445   59.1322   47.5206 C   0  0  0  0  0  0  0  0  0  0  0  0
   40.8347   59.8454   46.9810 C   0  0  0  0  0  0  0  0  0  0  0  0
   39.5607   59.3373   47.6044 C   0  0  0  0  0  0  0  0  0  0  0  0
   38.3821   59.6171   46.9372 N   0  0  0  0  0  0  0  0  0  0  0  0
   38.3780   60.4636   45.8312 C   0  0  0  0  0  0  0  0  0  0  0  0
   39.5624   60.6794   45.1673 N   0  0  0  0  0  0  0  0  0  0  0  0
   40.7937   59.9882   45.4684 C   0  0  0  0  0  0  0  0  0  0  0  0
   41.8865   60.9656   45.0475 C   0  0  0  0  0  0  0  0  0  0  0  0
   37.2968   61.0662   45.4678 N   0  0  0  0  0  0  0  0  0  0  0  0
   39.6186   58.6724   48.6220 O   0  0  0  0  0  0  0  0  0  0  0  0
   37.3051   61.6624   44.6844 H   0  0  0  0  0  0  0  0  0  0  0  0
   36.4633   60.9298   45.9737 H   0  0  0  0  0  0  0  0  0  0  0  0
   40.8904   58.6281   44.7404 C   0  0  0  0  0  0  0  0  0  0  0  0
   41.2691   58.7616   43.2691 C   0  0  0  0  0  0  0  0  0  0  0  0
   41.8592   57.6382   45.3987 C   0  0  0  0  0  0  0  0  0  0  0  0
 17 16  2  0  0  0
 17 18  1  0  0  0
 16 15  1  0  0  0
 18 19  2  0  0  0
 15 14  2  0  0  0
 33 32  1  0  0  0
 19 14  1  0  0  0
 14 12  1  0  0  0
 34 32  1  0  0  0
 27 26  1  0  0  0
 32 26  1  0  0  0
 13 12  1  0  0  0
 12 10  1  0  0  0
 26 21  1  0  0  0
 26 25  1  0  0  0
 21 22  1  0  0  0
 10  8  1  0  0  0
 25 24  2  0  0  0
  9  8  2  0  0  0
  8  3  1  0  0  0
 22 29  2  0  0  0
 22 23  1  0  0  0
 24 23  1  0  0  0
 24 28  1  0  0  0
 23 20  1  0  0  0
  3  2  2  0  0  0
  3  4  1  0  0  0
  2  1  1  0  0  0
  4  5  2  0  0  0
  1 20  1  0  0  0
  1  6  2  0  0  0
  5  6  1  0  0  0
  5  7  1  0  0  0
 28 30  1  0  0  0
 28 31  1  0  0  0
 10 11  1  0  0  0
M  END
> <minimizedAffinity>
-8.57560

$$$$
4S1G_43T_A_502


 34 36  0  0  0  0  0  0  0  0999 V2000
   35.5359   57.2203   46.2017 C   0  0  0  0  0  0  0  0  0  0  0  0
   36.1159   58.4560   45.9384 C   0  0  0  0  0  0  0  0  0  0  0  0
   37.4487   58.6781   46.2283 C   0  0  0  0  0  0  0  0  0  0  0  0
   38.2046   57.6641   46.7745 C   0  0  0  0  0  0  0  0  0  0  0  0
   37.6219   56.4459   47.0571 C   0  0  0  0  0  0  0  0  0  0  0  0
   36.2911   56.2114   46.7761 C   0  0  0  0  0  0  0  0  0  0  0  0
   38.4011   55.4985   47.5997 F   0  0  0  0  0  0  0  0  0  0  0  0
   38.1465   59.9516   45.9332 C   0  0  0  0  0  0  0  0  0  0  0  0
   37.8074   60.9875   46.5004 O   0  0  0  0  0  0  0  0  0  0  0  0
   39.2022   59.8752   45.0498 N   0  0  0  0  0  0  0  0  0  0  0  0
   39.4776   59.0053   44.6801 H   0  0  0  0  0  0  0  0  0  0  0  0
   39.9080   61.0927   44.6671 C   0  0  0  0  0  0  0  0  0  0  0  0
   41.3723   60.7587   44.4611 C   0  0  0  0  0  0  0  0  0  0  0  0
   39.3510   61.6978   43.4078 C   0  0  0  0  0  0  0  0  0  0  0  0
   38.9256   63.0174   43.4147 C   0  0  0  0  0  0  0  0  0  0  0  0
   38.4126   63.5742   42.2608 C   0  0  0  0  0  0  0  0  0  0  0  0
   38.3108   62.8408   41.0887 C   0  0  0  0  0  0  0  0  0  0  0  0
   38.7146   61.5194   41.0769 C   0  0  0  0  0  0  0  0  0  0  0  0
   39.2301   60.9581   42.2350 C   0  0  0  0  0  0  0  0  0  0  0  0
   34.0959   56.9360   45.8916 C   0  0  0  0  0  0  0  0  0  0  0  0
   32.3667   59.5185   43.7104 C   0  0  0  0  0  0  0  0  0  0  0  0
   32.9123   58.8234   44.9307 C   0  0  0  0  0  0  0  0  0  0  0  0
   33.5601   57.6185   44.7280 N   0  0  0  0  0  0  0  0  0  0  0  0
   33.5584   57.0159   43.4724 C   0  0  0  0  0  0  0  0  0  0  0  0
   33.2842   57.7943   42.3727 N   0  0  0  0  0  0  0  0  0  0  0  0
   33.1159   59.2274   42.4204 C   0  0  0  0  0  0  0  0  0  0  0  0
   32.1918   59.5369   41.2470 C   0  0  0  0  0  0  0  0  0  0  0  0
   33.7642   55.7482   43.3506 N   0  0  0  0  0  0  0  0  0  0  0  0
   32.8089   59.3594   46.0184 O   0  0  0  0  0  0  0  0  0  0  0  0
   33.7608   55.3324   42.4582 H   0  0  0  0  0  0  0  0  0  0  0  0
   33.9245   55.1965   44.1501 H   0  0  0  0  0  0  0  0  0  0  0  0
   34.4661   59.9749   42.3359 C   0  0  0  0  0  0  0  0  0  0  0  0
   35.1211   59.8756   40.9622 C   0  0  0  0  0  0  0  0  0  0  0  0
   34.3817   61.4565   42.7227 C   0  0  0  0  0  0  0  0  0  0  0  0
 17 16  2  0  0  0
 17 18  1  0  0  0
 16 15  1  0  0  0
 18 19  2  0  0  0
 15 14  2  0  0  0
 33 32  1  0  0  0
 19 14  1  0  0  0
 14 12  1  0  0  0
 34 32  1  0  0  0
 27 26  1  0  0  0
 32 26  1  0  0  0
 13 12  1  0  0  0
 12 10  1  0  0  0
 26 21  1  0  0  0
 26 25  1  0  0  0
 21 22  1  0  0  0
 10  8  1  0  0  0
 25 24  2  0  0  0
  9  8  2  0  0  0
  8  3  1  0  0  0
 22 29  2  0  0  0
 22 23  1  0  0  0
 24 23  1  0  0  0
 24 28  1  0  0  0
 23 20  1  0  0  0
  3  2  2  0  0  0
  3  4  1  0  0  0
  2  1  1  0  0  0
  4  5  2  0  0  0
  1 20  1  0  0  0
  1  6  2  0  0  0
  5  6  1  0  0  0
  5  7  1  0  0  0
 28 30  1  0  0  0
 28 31  1  0  0  0
 10 11  1  0  0  0
M  END
> <minimizedAffinity>
-8.53329

$$$$
4S1G_43T_A_502


 34 36  0  0  0  0  0  0  0  0999 V2000
   39.5282   56.9956   46.5444 C   0  0  0  0  0  0  0  0  0  0  0  0
   38.3579   56.9733   45.7944 C   0  0  0  0  0  0  0  0  0  0  0  0
   37.2206   56.3664   46.2923 C   0  0  0  0  0  0  0  0  0  0  0  0
   37.2494   55.7880   47.5423 C   0  0  0  0  0  0  0  0  0  0  0  0
   38.4180   55.7902   48.2757 C   0  0  0  0  0  0  0  0  0  0  0  0
   39.5623   56.3895   47.7892 C   0  0  0  0  0  0  0  0  0  0  0  0
   38.3930   55.2021   49.4809 F   0  0  0  0  0  0  0  0  0  0  0  0
   35.9260   56.3437   45.5717 C   0  0  0  0  0  0  0  0  0  0  0  0
   35.7198   55.5041   44.6985 O   0  0  0  0  0  0  0  0  0  0  0  0
   34.9865   57.2659   45.9813 N   0  0  0  0  0  0  0  0  0  0  0  0
   35.1788   57.8679   46.7362 H   0  0  0  0  0  0  0  0  0  0  0  0
   33.7058   57.3429   45.2881 C   0  0  0  0  0  0  0  0  0  0  0  0
   32.6820   57.9474   46.2286 C   0  0  0  0  0  0  0  0  0  0  0  0
   33.7883   58.1742   44.0373 C   0  0  0  0  0  0  0  0  0  0  0  0
   34.7237   59.1943   43.9561 C   0  0  0  0  0  0  0  0  0  0  0  0
   34.8001   59.9594   42.8099 C   0  0  0  0  0  0  0  0  0  0  0  0
   33.9580   59.7315   41.7324 C   0  0  0  0  0  0  0  0  0  0  0  0
   33.0099   58.7294   41.8111 C   0  0  0  0  0  0  0  0  0  0  0  0
   32.9315   57.9599   42.9616 C   0  0  0  0  0  0  0  0  0  0  0  0
   40.7803   57.6536   46.0443 C   0  0  0  0  0  0  0  0  0  0  0  0
   40.8113   60.7969   43.9145 C   0  0  0  0  0  0  0  0  0  0  0  0
   40.9705   59.3565   44.3265 C   0  0  0  0  0  0  0  0  0  0  0  0
   40.6371   59.0374   45.6302 N   0  0  0  0  0  0  0  0  0  0  0  0
   40.3242   60.0385   46.5466 C   0  0  0  0  0  0  0  0  0  0  0  0
   39.9476   61.2709   46.0671 N   0  0  0  0  0  0  0  0  0  0  0  0
   39.7367   61.5625   44.6689 C   0  0  0  0  0  0  0  0  0  0  0  0
   40.0329   63.0538   44.5469 C   0  0  0  0  0  0  0  0  0  0  0  0
   40.4303   59.8264   47.8146 N   0  0  0  0  0  0  0  0  0  0  0  0
   41.3309   58.5369   43.5023 O   0  0  0  0  0  0  0  0  0  0  0  0
   40.2066   60.5411   48.4537 H   0  0  0  0  0  0  0  0  0  0  0  0
   40.7350   58.9498   48.1433 H   0  0  0  0  0  0  0  0  0  0  0  0
   38.3088   61.1933   44.2066 C   0  0  0  0  0  0  0  0  0  0  0  0
   37.3211   61.0590   45.3609 C   0  0  0  0  0  0  0  0  0  0  0  0
   37.7176   62.1652   43.1781 C   0  0  0  0  0  0  0  0  0  0  0  0
 17 16  2  0  0  0
 17 18  1  0  0  0
 16 15  1  0  0  0
 18 19  2  0  0  0
 15 14  2  0  0  0
 33 32  1  0  0  0
 19 14  1  0  0  0
 14 12  1  0  0  0
 34 32  1  0  0  0
 27 26  1  0  0  0
 32 26  1  0  0  0
 13 12  1  0  0  0
 12 10  1  0  0  0
 26 21  1  0  0  0
 26 25  1  0  0  0
 21 22  1  0  0  0
 10  8  1  0  0  0
 25 24  2  0  0  0
  9  8  2  0  0  0
  8  3  1  0  0  0
 22 29  2  0  0  0
 22 23  1  0  0  0
 24 23  1  0  0  0
 24 28  1  0  0  0
 23 20  1  0  0  0
  3  2  2  0  0  0
  3  4  1  0  0  0
  2  1  1  0  0  0
  4  5  2  0  0  0
  1 20  1  0  0  0
  1  6  2  0  0  0
  5  6  1  0  0  0
  5  7  1  0  0  0
 28 30  1  0  0  0
 28 31  1  0  0  0
 10 11  1  0  0  0
M  END
> <minimizedAffinity>
-8.45699

$$$$
