5L8Y_CVA_B_1004
  RCSB PDB03171809513D
Coordinates from PDB:5L8Y:B:1004 Model:1 without hydrogens
 42 46  0  0  0  0            999 V2000
   36.7560   33.1750   26.3610   O 0  0  0  0  0  0  0  0  0  0  0  0
   36.4180   32.1500   26.9300   C 0  0  0  0  0  0  0  0  0  0  0  0
   37.3170   31.2560   27.4560   N 0  0  0  0  0  0  0  0  0  0  0  0
   38.7900   31.3820   27.3790   C 0  0  0  0  0  0  0  0  0  0  0  0
   39.4210   31.4500   28.8220   C 0  0  0  0  0  0  0  0  0  0  0  0
   40.9060   31.3190   29.1130   C 0  0  0  0  0  0  0  0  0  0  0  0
   41.7840   31.0390   27.9400   C 0  0  0  0  0  0  0  0  0  0  0  0
   41.6280   29.6410   27.3820   C 0  0  0  0  0  0  0  0  0  0  0  0
   40.2190   29.2180   27.0330   C 0  0  0  0  0  0  0  0  0  0  0  0
   39.3480   30.3020   26.4130   C 0  0  0  0  0  0  0  0  0  0  0  0
   36.9840   30.1190   28.1790   N 0  0  0  0  0  0  0  0  0  0  0  0
   34.9560   31.7850   27.1300   C 0  0  0  0  0  0  0  0  0  0  0  0
   34.7500   31.1150   28.5170   C 0  0  0  0  0  0  0  0  0  0  0  0
   34.7980   32.1210   29.6840   C 0  0  0  0  0  0  0  0  0  0  0  0
   34.4090   33.5260   29.2970   C 0  0  0  0  0  0  0  0  0  0  0  0
   34.0920   33.9330   28.0750   C 0  0  0  0  0  0  0  0  0  0  0  0
   34.0060   32.9790   26.9370   C 0  0  0  0  0  0  0  0  0  0  0  0
   35.8010   30.0290   28.6860   C 0  0  0  0  0  0  0  0  0  0  0  0
   35.5290   28.7770   29.4350   C 0  0  0  0  0  0  0  0  0  0  0  0
   34.5570   28.7310   30.4350   C 0  0  0  0  0  0  0  0  0  0  0  0
   34.3350   27.5700   31.1540   C 0  0  0  0  0  0  0  0  0  0  0  0
   36.2590   27.6250   29.1490   C 0  0  0  0  0  0  0  0  0  0  0  0
   36.0210   26.4270   29.8240   C 0  0  0  0  0  0  0  0  0  0  0  0
   35.0660   26.4170   30.8490   C 0  0  0  0  0  0  0  0  0  0  0  0
   34.8980   25.2220   31.4900   O 0  0  0  0  0  0  0  0  0  0  0  0
   33.6230   24.9530   32.0860   C 0  0  0  0  0  0  0  0  0  0  0  0
   36.6700   25.2000   29.2810   C 0  0  0  0  0  0  0  0  0  0  0  0
   36.4350   24.8020   27.9650   C 0  0  0  0  0  0  0  0  0  0  0  0
   37.1800   23.7980   27.3730   C 0  0  0  0  0  0  0  0  0  0  0  0
   38.1930   23.1510   28.0820   C 0  0  0  0  0  0  0  0  0  0  0  0
   38.3900   23.5070   29.4180   C 0  0  0  0  0  0  0  0  0  0  0  0
   37.6400   24.5110   30.0020   C 0  0  0  0  0  0  0  0  0  0  0  0
   39.1690   22.2050   27.4400   C 0  0  0  0  0  0  0  0  0  0  0  0
   40.3060   22.0920   27.8890   O 0  0  0  0  0  0  0  0  0  0  0  0
   38.7660   21.5230   26.3600   N 0  0  0  0  0  0  0  0  0  0  0  0
   39.2240   20.1710   26.1060   C 0  0  0  0  0  0  0  0  0  0  0  0
   38.4770   19.1100   26.8980   C 0  0  0  0  0  0  0  0  0  0  0  0
   38.5030   19.1010   28.1290   O 0  0  0  0  0  0  0  0  0  0  0  0
   37.8030   18.2140   26.1740   N 0  0  0  0  0  0  0  0  0  0  0  0
   37.7750   16.7880   26.4760   C 0  0  0  0  0  0  0  0  0  0  0  0
   36.5210   16.1190   25.9760   C 0  0  0  0  0  0  0  0  0  0  0  0
   35.5120   16.0280   26.9640   O 0  0  0  0  0  0  0  0  0  0  0  0
 41 40  1  0  0  0  0
 41 42  1  0  0  0  0
 36 35  1  0  0  0  0
 36 37  1  0  0  0  0
 39 40  1  0  0  0  0
 39 37  1  0  0  0  0
 35 33  1  0  0  0  0
  1  2  2  0  0  0  0
 10  9  1  0  0  0  0
 10  4  1  0  0  0  0
 37 38  2  0  0  0  0
  2 12  1  0  0  0  0
  2  3  1  0  0  0  0
 17 12  1  0  0  0  0
 17 16  1  0  0  0  0
  9  8  1  0  0  0  0
 12 13  1  0  0  0  0
 29 28  2  0  0  0  0
 29 30  1  0  0  0  0
  4  3  1  0  0  0  0
  4  5  1  0  0  0  0
  8  7  1  0  0  0  0
 33 34  2  0  0  0  0
 33 30  1  0  0  0  0
  3 11  1  0  0  0  0
  7  6  1  0  0  0  0
 28 27  1  0  0  0  0
 16 15  2  0  0  0  0
 30 31  2  0  0  0  0
 11 18  2  0  0  0  0
 13 18  1  0  0  0  0
 13 14  1  0  0  0  0
 18 19  1  0  0  0  0
  5  6  1  0  0  0  0
 22 19  2  0  0  0  0
 22 23  1  0  0  0  0
 27 23  1  0  0  0  0
 27 32  2  0  0  0  0
 15 14  1  0  0  0  0
 31 32  1  0  0  0  0
 19 20  1  0  0  0  0
 23 24  2  0  0  0  0
 20 21  2  0  0  0  0
 24 21  1  0  0  0  0
 24 25  1  0  0  0  0
 25 26  1  0  0  0  0
A    1
O4
A    2
C26
A    3
N3
A    4
C19
A    5
C25
A    6
C24
A    7
C23
A    8
C22
A    9
C21
A   10
C20
A   11
N2
A   12
C27
A   13
C32
A   14
C31
A   15
C30
A   16
C29
A   17
C28
A   18
C18
A   19
C4
A   20
C3
A   21
C2
A   22
C5
A   23
C6
A   24
C1
A   25
O
A   26
C
A   27
C7
A   28
C12
A   29
C11
A   30
C10
A   31
C9
A   32
C8
A   33
C13
A   34
O1
A   35
N
A   36
C14
A   37
C15
A   38
O2
A   39
N1
A   40
C16
A   41
C17
A   42
O3
M  END
>  <InstanceId>
5L8Y_CVA_B_1004

>  <ChemCompId>
CVA

>  <PdbId>
5L8Y

>  <ChainId>
B

>  <ResidueNumber>
1004

>  <InsertionCode>


>  <Model>
1

>  <AltIds>


>  <MissingHeavyAtoms>
0

>  <ObservedFormula>
C33 N4 O5

>  <Name>
2-[(4-{5-[(4aR,8aS)-3-cycloheptyl-4-oxo-3,4,4a,5,8,8a-hexahydrophthalazin-1-yl]-2-methoxyphenyl}phenyl)formamido]-N-(2-hydroxyethyl)acetamide

>  <SystematicName>
4-[5-[(4~{a}~{R},8~{a}~{S})-3-cycloheptyl-4-oxidanylidene-4~{a},5,8,8~{a}-tetrahydrophthalazin-1-yl]-2-methoxy-phenyl]-~{N}-[2-(2-hydroxyethylamino)-2-oxidanylidene-ethyl]benzamide

>  <Synonyms>


>  <Type>
NON-POLYMER

>  <Formula>
C33 H40 N4 O5

>  <MolecularWeight>
572.694

>  <ModifiedDate>
2018-03-09

>  <Parent>


>  <OneLetterCode>


>  <SubcomponentList>


>  <AmbiguousFlag>
N

>  <InChI>
InChI=1S/C33H40N4O5/c1-42-29-17-16-24(20-28(29)22-12-14-23(15-13-22)32(40)35-21-30(39)34-18-19-38)31-26-10-6-7-11-27(26)33(41)37(36-31)25-8-4-2-3-5-9-25/h6-7,12-17,20,25-27,38H,2-5,8-11,18-19,21H2,1H3,(H,34,39)(H,35,40)/t26-,27+/m0/s1

>  <InChIKey>
JLYZYBSDRODYRP-RRPNLBNLSA-N

>  <SMILES>
COc1ccc(cc1c2ccc(cc2)C(=O)NCC(=O)NCCO)C3=NN(C(=O)[C@H]4[C@@H]3CC=CC4)C5CCCCCC5

$$$$
