5L8Y_CVA_B_1004


 45 49  0  0  0  0  0  0  0  0999 V2000
   35.4536   29.1630   29.2979 C   0  0  0  0  0  0  0  0  0  0  0  0
   34.6069   29.1863   30.4067 C   0  0  0  0  0  0  0  0  0  0  0  0
   34.5101   28.0914   31.2470 C   0  0  0  0  0  0  0  0  0  0  0  0
   36.1843   28.0071   29.0301 C   0  0  0  0  0  0  0  0  0  0  0  0
   36.0678   26.8710   29.8321 C   0  0  0  0  0  0  0  0  0  0  0  0
   35.2397   26.9328   30.9604 C   0  0  0  0  0  0  0  0  0  0  0  0
   36.1262   33.2806   25.7076 O   0  0  0  0  0  0  0  0  0  0  0  0
   35.8901   32.3113   26.4100 C   0  0  0  0  0  0  0  0  0  0  0  0
   36.8614   31.4346   26.8247 N   0  0  0  0  0  0  0  0  0  0  0  0
   36.6583   30.3651   27.6857 N   0  0  0  0  0  0  0  0  0  0  0  0
   34.4889   32.0036   26.9126 C   0  0  0  0  0  0  0  0  0  0  0  0
   34.5438   31.4461   28.3622 C   0  0  0  0  0  0  0  0  0  0  0  0
   34.8279   32.5354   29.4152 C   0  0  0  0  0  0  0  0  0  0  0  0
   34.3904   33.9176   28.9989 C   0  0  0  0  0  0  0  0  0  0  0  0
   33.8504   34.2401   27.8311 C   0  0  0  0  0  0  0  0  0  0  0  0
   33.5353   33.2058   26.8096 C   0  0  0  0  0  0  0  0  0  0  0  0
   35.5934   30.3468   28.4139 C   0  0  0  0  0  0  0  0  0  0  0  0
   38.2939   31.5130   26.4593 C   0  0  0  0  0  0  0  0  0  0  0  0
   39.2058   31.1582   27.6953 C   0  0  0  0  0  0  0  0  0  0  0  0
   40.6981   30.8889   27.6076 C   0  0  0  0  0  0  0  0  0  0  0  0
   41.2894   30.9012   26.2381 C   0  0  0  0  0  0  0  0  0  0  0  0
   40.8842   29.7160   25.3888 C   0  0  0  0  0  0  0  0  0  0  0  0
   39.3985   29.4653   25.2630 C   0  0  0  0  0  0  0  0  0  0  0  0
   38.5344   30.7138   25.1500 C   0  0  0  0  0  0  0  0  0  0  0  0
   36.6907   25.6149   29.3264 C   0  0  0  0  0  0  0  0  0  0  0  0
   37.6732   24.9651   30.0735 C   0  0  0  0  0  0  0  0  0  0  0  0
   38.1140   23.6983   29.7353 C   0  0  0  0  0  0  0  0  0  0  0  0
   37.5847   23.0322   28.6291 C   0  0  0  0  0  0  0  0  0  0  0  0
   36.6443   23.7047   27.8456 C   0  0  0  0  0  0  0  0  0  0  0  0
   36.2101   24.9713   28.1905 C   0  0  0  0  0  0  0  0  0  0  0  0
   37.8656   21.5861   28.3298 C   0  0  0  0  0  0  0  0  0  0  0  0
   37.6965   20.7322   29.1955 O   0  0  0  0  0  0  0  0  0  0  0  0
   38.3270   21.2742   27.1117 N   0  0  0  0  0  0  0  0  0  0  0  0
   38.9274   21.9021   26.6486 H   0  0  0  0  0  0  0  0  0  0  0  0
   37.9609   20.0315   26.4607 C   0  0  0  0  0  0  0  0  0  0  0  0
   39.1508   19.1812   26.0457 C   0  0  0  0  0  0  0  0  0  0  0  0
   39.3584   18.0837   26.5639 O   0  0  0  0  0  0  0  0  0  0  0  0
   39.9312   19.7010   25.0959 N   0  0  0  0  0  0  0  0  0  0  0  0
   39.4994   20.1506   24.3339 H   0  0  0  0  0  0  0  0  0  0  0  0
   41.3875   19.6400   25.1241 C   0  0  0  0  0  0  0  0  0  0  0  0
   41.9357   18.5688   24.2174 C   0  0  0  0  0  0  0  0  0  0  0  0
   41.0720   17.4547   24.0937 O   0  0  0  0  0  0  0  0  0  0  0  0
   40.9514   17.0410   24.9628 H   0  0  0  0  0  0  0  0  0  0  0  0
   35.1886   25.7982   31.7202 O   0  0  0  0  0  0  0  0  0  0  0  0
   34.3147   25.7891   32.8557 C   0  0  0  0  0  0  0  0  0  0  0  0
 41 40  1  0  0  0
 41 42  1  0  0  0
 35 33  1  0  0  0
 35 36  1  0  0  0
 38 40  1  0  0  0
 38 36  1  0  0  0
 33 31  1  0  0  0
  7  8  2  0  0  0
 24 23  1  0  0  0
 24 18  1  0  0  0
 36 37  2  0  0  0
  8 11  1  0  0  0
  8  9  1  0  0  0
 16 11  1  0  0  0
 16 15  1  0  0  0
 23 22  1  0  0  0
 11 12  1  0  0  0
 27 26  2  0  0  0
 27 28  1  0  0  0
 18  9  1  0  0  0
 18 19  1  0  0  0
 22 21  1  0  0  0
 31 32  2  0  0  0
 31 28  1  0  0  0
  9 10  1  0  0  0
 21 20  1  0  0  0
 26 25  1  0  0  0
 15 14  2  0  0  0
 28 29  2  0  0  0
 10 17  2  0  0  0
 12 17  1  0  0  0
 12 13  1  0  0  0
 17  1  1  0  0  0
 19 20  1  0  0  0
  4  1  2  0  0  0
  4  5  1  0  0  0
 25  5  1  0  0  0
 25 30  2  0  0  0
 14 13  1  0  0  0
 29 30  1  0  0  0
  1  2  1  0  0  0
  5  6  2  0  0  0
  2  3  2  0  0  0
  6  3  1  0  0  0
  6 44  1  0  0  0
 44 45  1  0  0  0
 33 34  1  0  0  0
 38 39  1  0  0  0
 42 43  1  0  0  0
M  END
> <minimizedAffinity>
-11.69281

$$$$
5L8Y_CVA_B_1004


 45 49  0  0  0  0  0  0  0  0999 V2000
   36.8755   29.3383   28.5978 C   0  0  0  0  0  0  0  0  0  0  0  0
   35.8035   29.7836   29.3719 C   0  0  0  0  0  0  0  0  0  0  0  0
   35.1179   28.9127   30.2000 C   0  0  0  0  0  0  0  0  0  0  0  0
   37.2322   27.9922   28.6485 C   0  0  0  0  0  0  0  0  0  0  0  0
   36.5263   27.0820   29.4365 C   0  0  0  0  0  0  0  0  0  0  0  0
   35.4780   27.5614   30.2327 C   0  0  0  0  0  0  0  0  0  0  0  0
   39.4276   33.1218   25.5205 O   0  0  0  0  0  0  0  0  0  0  0  0
   38.8880   32.3660   26.3119 C   0  0  0  0  0  0  0  0  0  0  0  0
   37.5650   32.0111   26.2230 N   0  0  0  0  0  0  0  0  0  0  0  0
   36.9253   31.0969   27.0485 N   0  0  0  0  0  0  0  0  0  0  0  0
   39.6499   31.7257   27.4609 C   0  0  0  0  0  0  0  0  0  0  0  0
   39.1614   30.2682   27.6889 C   0  0  0  0  0  0  0  0  0  0  0  0
   39.6800   29.2859   26.6201 C   0  0  0  0  0  0  0  0  0  0  0  0
   40.9771   29.7097   25.9775 C   0  0  0  0  0  0  0  0  0  0  0  0
   41.6349   30.8337   26.2291 C   0  0  0  0  0  0  0  0  0  0  0  0
   41.1758   31.7839   27.2774 C   0  0  0  0  0  0  0  0  0  0  0  0
   37.6414   30.2736   27.7369 C   0  0  0  0  0  0  0  0  0  0  0  0
   36.6147   32.5094   25.2032 C   0  0  0  0  0  0  0  0  0  0  0  0
   35.7517   31.3268   24.6186 C   0  0  0  0  0  0  0  0  0  0  0  0
   34.5165   31.5151   23.7550 C   0  0  0  0  0  0  0  0  0  0  0  0
   34.0831   32.9239   23.5251 C   0  0  0  0  0  0  0  0  0  0  0  0
   33.4977   33.5892   24.7517 C   0  0  0  0  0  0  0  0  0  0  0  0
   34.3510   33.5518   25.9993 C   0  0  0  0  0  0  0  0  0  0  0  0
   35.8456   33.7324   25.7721 C   0  0  0  0  0  0  0  0  0  0  0  0
   36.8212   25.6351   29.2337 C   0  0  0  0  0  0  0  0  0  0  0  0
   36.2447   24.9407   28.1703 C   0  0  0  0  0  0  0  0  0  0  0  0
   36.6600   23.6646   27.8347 C   0  0  0  0  0  0  0  0  0  0  0  0
   37.6733   23.0329   28.5570 C   0  0  0  0  0  0  0  0  0  0  0  0
   38.2102   23.7029   29.6585 C   0  0  0  0  0  0  0  0  0  0  0  0
   37.7884   24.9778   29.9873 C   0  0  0  0  0  0  0  0  0  0  0  0
   38.3100   21.7428   28.1214 C   0  0  0  0  0  0  0  0  0  0  0  0
   39.5228   21.6828   27.9408 O   0  0  0  0  0  0  0  0  0  0  0  0
   37.5128   20.6867   27.9138 N   0  0  0  0  0  0  0  0  0  0  0  0
   36.6093   20.8294   27.5497 H   0  0  0  0  0  0  0  0  0  0  0  0
   37.9520   19.3380   28.2140 C   0  0  0  0  0  0  0  0  0  0  0  0
   38.4606   18.5733   27.0025 C   0  0  0  0  0  0  0  0  0  0  0  0
   37.8980   17.5482   26.6168 O   0  0  0  0  0  0  0  0  0  0  0  0
   39.5345   19.0889   26.4008 N   0  0  0  0  0  0  0  0  0  0  0  0
   39.5762   20.0652   26.2807 H   0  0  0  0  0  0  0  0  0  0  0  0
   40.6492   18.2868   25.9114 C   0  0  0  0  0  0  0  0  0  0  0  0
   41.4354   18.9906   24.8360 C   0  0  0  0  0  0  0  0  0  0  0  0
   40.6708   19.2521   23.6743 O   0  0  0  0  0  0  0  0  0  0  0  0
   40.3714   18.4138   23.2889 H   0  0  0  0  0  0  0  0  0  0  0  0
   34.8436   26.6269   31.0017 O   0  0  0  0  0  0  0  0  0  0  0  0
   33.9250   27.0895   31.9994 C   0  0  0  0  0  0  0  0  0  0  0  0
 41 40  1  0  0  0
 41 42  1  0  0  0
 35 33  1  0  0  0
 35 36  1  0  0  0
 38 40  1  0  0  0
 38 36  1  0  0  0
 33 31  1  0  0  0
  7  8  2  0  0  0
 24 23  1  0  0  0
 24 18  1  0  0  0
 36 37  2  0  0  0
  8 11  1  0  0  0
  8  9  1  0  0  0
 16 11  1  0  0  0
 16 15  1  0  0  0
 23 22  1  0  0  0
 11 12  1  0  0  0
 27 26  2  0  0  0
 27 28  1  0  0  0
 18  9  1  0  0  0
 18 19  1  0  0  0
 22 21  1  0  0  0
 31 32  2  0  0  0
 31 28  1  0  0  0
  9 10  1  0  0  0
 21 20  1  0  0  0
 26 25  1  0  0  0
 15 14  2  0  0  0
 28 29  2  0  0  0
 10 17  2  0  0  0
 12 17  1  0  0  0
 12 13  1  0  0  0
 17  1  1  0  0  0
 19 20  1  0  0  0
  4  1  2  0  0  0
  4  5  1  0  0  0
 25  5  1  0  0  0
 25 30  2  0  0  0
 14 13  1  0  0  0
 29 30  1  0  0  0
  1  2  1  0  0  0
  5  6  2  0  0  0
  2  3  2  0  0  0
  6  3  1  0  0  0
  6 44  1  0  0  0
 44 45  1  0  0  0
 33 34  1  0  0  0
 38 39  1  0  0  0
 42 43  1  0  0  0
M  END
> <minimizedAffinity>
-11.67736

$$$$
5L8Y_CVA_B_1004


 45 49  0  0  0  0  0  0  0  0999 V2000
   34.4736   30.9890   27.9224 C   0  0  0  0  0  0  0  0  0  0  0  0
   33.2390   31.2094   28.5339 C   0  0  0  0  0  0  0  0  0  0  0  0
   32.8399   30.4487   29.6184 C   0  0  0  0  0  0  0  0  0  0  0  0
   35.2930   29.9693   28.4028 C   0  0  0  0  0  0  0  0  0  0  0  0
   34.8937   29.1542   29.4629 C   0  0  0  0  0  0  0  0  0  0  0  0
   33.6662   29.4203   30.0836 C   0  0  0  0  0  0  0  0  0  0  0  0
   36.3242   33.7273   23.5208 O   0  0  0  0  0  0  0  0  0  0  0  0
   35.8387   33.0438   24.4072 C   0  0  0  0  0  0  0  0  0  0  0  0
   36.5942   32.2731   25.2553 N   0  0  0  0  0  0  0  0  0  0  0  0
   36.0988   31.5416   26.3258 N   0  0  0  0  0  0  0  0  0  0  0  0
   34.3414   33.0076   24.6671 C   0  0  0  0  0  0  0  0  0  0  0  0
   34.0586   32.9262   26.1930 C   0  0  0  0  0  0  0  0  0  0  0  0
   34.2886   34.2660   26.9197 C   0  0  0  0  0  0  0  0  0  0  0  0
   34.1205   35.4776   26.0371 C   0  0  0  0  0  0  0  0  0  0  0  0
   33.8485   35.4582   24.7390 C   0  0  0  0  0  0  0  0  0  0  0  0
   33.5898   34.1826   24.0190 C   0  0  0  0  0  0  0  0  0  0  0  0
   34.9266   31.8262   26.7838 C   0  0  0  0  0  0  0  0  0  0  0  0
   38.0667   32.1324   25.1966 C   0  0  0  0  0  0  0  0  0  0  0  0
   38.6871   32.1435   26.6458 C   0  0  0  0  0  0  0  0  0  0  0  0
   40.1224   31.7623   26.9644 C   0  0  0  0  0  0  0  0  0  0  0  0
   40.9468   31.2853   25.8163 C   0  0  0  0  0  0  0  0  0  0  0  0
   40.5492   29.9166   25.3079 C   0  0  0  0  0  0  0  0  0  0  0  0
   39.0905   29.7372   24.9528 C   0  0  0  0  0  0  0  0  0  0  0  0
   38.4319   30.9336   24.2799 C   0  0  0  0  0  0  0  0  0  0  0  0
   35.7192   27.9442   29.7386 C   0  0  0  0  0  0  0  0  0  0  0  0
   35.2269   26.9263   30.5552 C   0  0  0  0  0  0  0  0  0  0  0  0
   35.8756   25.7088   30.6577 C   0  0  0  0  0  0  0  0  0  0  0  0
   37.0489   25.4651   29.9426 C   0  0  0  0  0  0  0  0  0  0  0  0
   37.5753   26.5034   29.1709 C   0  0  0  0  0  0  0  0  0  0  0  0
   36.9208   27.7174   29.0751 C   0  0  0  0  0  0  0  0  0  0  0  0
   37.6849   24.1064   29.8472 C   0  0  0  0  0  0  0  0  0  0  0  0
   38.3539   23.6709   30.7799 O   0  0  0  0  0  0  0  0  0  0  0  0
   37.5201   23.4132   28.7131 N   0  0  0  0  0  0  0  0  0  0  0  0
   37.4767   23.8952   27.8558 H   0  0  0  0  0  0  0  0  0  0  0  0
   37.4041   21.9680   28.7212 C   0  0  0  0  0  0  0  0  0  0  0  0
   37.9739   21.2986   27.4809 C   0  0  0  0  0  0  0  0  0  0  0  0
   37.3951   21.3732   26.3967 O   0  0  0  0  0  0  0  0  0  0  0  0
   39.1244   20.6443   27.6525 N   0  0  0  0  0  0  0  0  0  0  0  0
   39.8176   21.0619   28.2131 H   0  0  0  0  0  0  0  0  0  0  0  0
   39.4116   19.3455   27.0558 C   0  0  0  0  0  0  0  0  0  0  0  0
   40.3623   19.4455   25.8911 C   0  0  0  0  0  0  0  0  0  0  0  0
   39.7342   19.8852   24.7017 O   0  0  0  0  0  0  0  0  0  0  0  0
   39.0509   19.2475   24.4421 H   0  0  0  0  0  0  0  0  0  0  0  0
   33.3440   28.6053   31.1319 O   0  0  0  0  0  0  0  0  0  0  0  0
   33.1898   29.2034   32.4249 C   0  0  0  0  0  0  0  0  0  0  0  0
 41 40  1  0  0  0
 41 42  1  0  0  0
 35 33  1  0  0  0
 35 36  1  0  0  0
 38 40  1  0  0  0
 38 36  1  0  0  0
 33 31  1  0  0  0
  7  8  2  0  0  0
 24 23  1  0  0  0
 24 18  1  0  0  0
 36 37  2  0  0  0
  8 11  1  0  0  0
  8  9  1  0  0  0
 16 11  1  0  0  0
 16 15  1  0  0  0
 23 22  1  0  0  0
 11 12  1  0  0  0
 27 26  2  0  0  0
 27 28  1  0  0  0
 18  9  1  0  0  0
 18 19  1  0  0  0
 22 21  1  0  0  0
 31 32  2  0  0  0
 31 28  1  0  0  0
  9 10  1  0  0  0
 21 20  1  0  0  0
 26 25  1  0  0  0
 15 14  2  0  0  0
 28 29  2  0  0  0
 10 17  2  0  0  0
 12 17  1  0  0  0
 12 13  1  0  0  0
 17  1  1  0  0  0
 19 20  1  0  0  0
  4  1  2  0  0  0
  4  5  1  0  0  0
 25  5  1  0  0  0
 25 30  2  0  0  0
 14 13  1  0  0  0
 29 30  1  0  0  0
  1  2  1  0  0  0
  5  6  2  0  0  0
  2  3  2  0  0  0
  6  3  1  0  0  0
  6 44  1  0  0  0
 44 45  1  0  0  0
 33 34  1  0  0  0
 38 39  1  0  0  0
 42 43  1  0  0  0
M  END
> <minimizedAffinity>
-10.95794

$$$$
5L8Y_CVA_B_1004


 45 49  0  0  0  0  0  0  0  0999 V2000
   36.8092   29.1651   28.5529 C   0  0  0  0  0  0  0  0  0  0  0  0
   35.8462   29.6257   29.4514 C   0  0  0  0  0  0  0  0  0  0  0  0
   35.2635   28.7674   30.3667 C   0  0  0  0  0  0  0  0  0  0  0  0
   37.1593   27.8164   28.5705 C   0  0  0  0  0  0  0  0  0  0  0  0
   36.5510   26.9187   29.4488 C   0  0  0  0  0  0  0  0  0  0  0  0
   35.6146   27.4133   30.3660 C   0  0  0  0  0  0  0  0  0  0  0  0
   39.5803   32.2887   24.9665 O   0  0  0  0  0  0  0  0  0  0  0  0
   38.9633   31.4984   25.6619 C   0  0  0  0  0  0  0  0  0  0  0  0
   39.4425   31.0219   26.8566 N   0  0  0  0  0  0  0  0  0  0  0  0
   38.7484   30.1857   27.7200 N   0  0  0  0  0  0  0  0  0  0  0  0
   37.5850   30.9892   25.2726 C   0  0  0  0  0  0  0  0  0  0  0  0
   36.6861   30.8432   26.5318 C   0  0  0  0  0  0  0  0  0  0  0  0
   36.1818   32.1964   27.0710 C   0  0  0  0  0  0  0  0  0  0  0  0
   36.0937   33.2780   26.0233 C   0  0  0  0  0  0  0  0  0  0  0  0
   36.4476   33.1543   24.7510 C   0  0  0  0  0  0  0  0  0  0  0  0
   36.9065   31.8528   24.1959 C   0  0  0  0  0  0  0  0  0  0  0  0
   37.4681   30.0869   27.5944 C   0  0  0  0  0  0  0  0  0  0  0  0
   40.7594   31.3585   27.4429 C   0  0  0  0  0  0  0  0  0  0  0  0
   40.5856   32.0255   28.8607 C   0  0  0  0  0  0  0  0  0  0  0  0
   41.7212   32.2539   29.8432 C   0  0  0  0  0  0  0  0  0  0  0  0
   43.0594   31.7374   29.4337 C   0  0  0  0  0  0  0  0  0  0  0  0
   43.1615   30.2277   29.4520 C   0  0  0  0  0  0  0  0  0  0  0  0
   42.1041   29.4804   28.6714 C   0  0  0  0  0  0  0  0  0  0  0  0
   41.6931   30.1212   27.3528 C   0  0  0  0  0  0  0  0  0  0  0  0
   36.8071   25.4677   29.2236 C   0  0  0  0  0  0  0  0  0  0  0  0
   36.2051   24.8033   28.1552 C   0  0  0  0  0  0  0  0  0  0  0  0
   36.5850   23.5219   27.7986 C   0  0  0  0  0  0  0  0  0  0  0  0
   37.5871   22.8544   28.5040 C   0  0  0  0  0  0  0  0  0  0  0  0
   38.1493   23.4948   29.6105 C   0  0  0  0  0  0  0  0  0  0  0  0
   37.7628   24.7753   29.9604 C   0  0  0  0  0  0  0  0  0  0  0  0
   38.1873   21.5547   28.0455 C   0  0  0  0  0  0  0  0  0  0  0  0
   38.0541   20.5398   28.7233 O   0  0  0  0  0  0  0  0  0  0  0  0
   38.8856   21.5531   26.9026 N   0  0  0  0  0  0  0  0  0  0  0  0
   39.4175   22.3459   26.6619 H   0  0  0  0  0  0  0  0  0  0  0  0
   38.8749   20.4088   26.0124 C   0  0  0  0  0  0  0  0  0  0  0  0
   40.2552   19.9922   25.5302 C   0  0  0  0  0  0  0  0  0  0  0  0
   40.3987   19.3685   24.4783 O   0  0  0  0  0  0  0  0  0  0  0  0
   41.2749   20.3505   26.3132 N   0  0  0  0  0  0  0  0  0  0  0  0
   41.2645   21.2530   26.7063 H   0  0  0  0  0  0  0  0  0  0  0  0
   42.4034   19.4795   26.6187 C   0  0  0  0  0  0  0  0  0  0  0  0
   42.3735   18.9766   28.0387 C   0  0  0  0  0  0  0  0  0  0  0  0
   41.2033   18.2397   28.3391 O   0  0  0  0  0  0  0  0  0  0  0  0
   40.4261   18.8108   28.2356 H   0  0  0  0  0  0  0  0  0  0  0  0
   35.0747   26.4904   31.2168 O   0  0  0  0  0  0  0  0  0  0  0  0
   33.7706   26.7508   31.7504 C   0  0  0  0  0  0  0  0  0  0  0  0
 41 40  1  0  0  0
 41 42  1  0  0  0
 35 33  1  0  0  0
 35 36  1  0  0  0
 38 40  1  0  0  0
 38 36  1  0  0  0
 33 31  1  0  0  0
  7  8  2  0  0  0
 24 23  1  0  0  0
 24 18  1  0  0  0
 36 37  2  0  0  0
  8 11  1  0  0  0
  8  9  1  0  0  0
 16 11  1  0  0  0
 16 15  1  0  0  0
 23 22  1  0  0  0
 11 12  1  0  0  0
 27 26  2  0  0  0
 27 28  1  0  0  0
 18  9  1  0  0  0
 18 19  1  0  0  0
 22 21  1  0  0  0
 31 32  2  0  0  0
 31 28  1  0  0  0
  9 10  1  0  0  0
 21 20  1  0  0  0
 26 25  1  0  0  0
 15 14  2  0  0  0
 28 29  2  0  0  0
 10 17  2  0  0  0
 12 17  1  0  0  0
 12 13  1  0  0  0
 17  1  1  0  0  0
 19 20  1  0  0  0
  4  1  2  0  0  0
  4  5  1  0  0  0
 25  5  1  0  0  0
 25 30  2  0  0  0
 14 13  1  0  0  0
 29 30  1  0  0  0
  1  2  1  0  0  0
  5  6  2  0  0  0
  2  3  2  0  0  0
  6  3  1  0  0  0
  6 44  1  0  0  0
 44 45  1  0  0  0
 33 34  1  0  0  0
 38 39  1  0  0  0
 42 43  1  0  0  0
M  END
> <minimizedAffinity>
-10.76321

$$$$
5L8Y_CVA_B_1004


 45 49  0  0  0  0  0  0  0  0999 V2000
   38.3408   28.7827   28.4164 C   0  0  0  0  0  0  0  0  0  0  0  0
   39.6754   28.4541   28.6569 C   0  0  0  0  0  0  0  0  0  0  0  0
   40.6996   29.1931   28.0922 C   0  0  0  0  0  0  0  0  0  0  0  0
   38.0502   29.8539   27.5737 C   0  0  0  0  0  0  0  0  0  0  0  0
   39.0629   30.5847   26.9510 C   0  0  0  0  0  0  0  0  0  0  0  0
   40.3947   30.2584   27.2385 C   0  0  0  0  0  0  0  0  0  0  0  0
   34.5527   25.7148   30.9728 O   0  0  0  0  0  0  0  0  0  0  0  0
   35.4366   26.4320   30.5334 C   0  0  0  0  0  0  0  0  0  0  0  0
   36.4528   25.9638   29.7383 N   0  0  0  0  0  0  0  0  0  0  0  0
   37.4346   26.7492   29.1504 N   0  0  0  0  0  0  0  0  0  0  0  0
   35.4730   27.9262   30.8104 C   0  0  0  0  0  0  0  0  0  0  0  0
   35.9729   28.6972   29.5571 C   0  0  0  0  0  0  0  0  0  0  0  0
   34.9090   28.7928   28.4458 C   0  0  0  0  0  0  0  0  0  0  0  0
   33.4893   28.7196   28.9500 C   0  0  0  0  0  0  0  0  0  0  0  0
   33.1241   28.5415   30.2126 C   0  0  0  0  0  0  0  0  0  0  0  0
   34.1271   28.4786   31.3092 C   0  0  0  0  0  0  0  0  0  0  0  0
   37.2364   28.0201   29.0496 C   0  0  0  0  0  0  0  0  0  0  0  0
   36.6418   24.5508   29.3391 C   0  0  0  0  0  0  0  0  0  0  0  0
   36.6552   24.4110   27.7689 C   0  0  0  0  0  0  0  0  0  0  0  0
   37.0844   23.1579   27.0256 C   0  0  0  0  0  0  0  0  0  0  0  0
   37.5852   22.0327   27.8674 C   0  0  0  0  0  0  0  0  0  0  0  0
   38.9386   22.2943   28.4917 C   0  0  0  0  0  0  0  0  0  0  0  0
   39.0688   23.5754   29.2841 C   0  0  0  0  0  0  0  0  0  0  0  0
   37.8494   23.9557   30.1127 C   0  0  0  0  0  0  0  0  0  0  0  0
   38.6535   31.5404   25.8830 C   0  0  0  0  0  0  0  0  0  0  0  0
   37.5962   31.2307   25.0277 C   0  0  0  0  0  0  0  0  0  0  0  0
   37.0611   32.1776   24.1729 C   0  0  0  0  0  0  0  0  0  0  0  0
   37.5693   33.4769   24.1424 C   0  0  0  0  0  0  0  0  0  0  0  0
   38.6662   33.7724   24.9548 C   0  0  0  0  0  0  0  0  0  0  0  0
   39.1953   32.8194   25.8054 C   0  0  0  0  0  0  0  0  0  0  0  0
   36.9061   34.6004   23.3955 C   0  0  0  0  0  0  0  0  0  0  0  0
   37.2710   34.8864   22.2587 O   0  0  0  0  0  0  0  0  0  0  0  0
   35.9377   35.2843   24.0186 N   0  0  0  0  0  0  0  0  0  0  0  0
   36.0009   35.4326   24.9898 H   0  0  0  0  0  0  0  0  0  0  0  0
   34.7981   35.8109   23.2932 C   0  0  0  0  0  0  0  0  0  0  0  0
   33.4597   35.5088   23.9479 C   0  0  0  0  0  0  0  0  0  0  0  0
   32.4998   36.2674   23.8096 O   0  0  0  0  0  0  0  0  0  0  0  0
   33.4053   34.3828   24.6623 N   0  0  0  0  0  0  0  0  0  0  0  0
   33.8415   33.5792   24.2975 H   0  0  0  0  0  0  0  0  0  0  0  0
   32.7357   34.2769   25.9531 C   0  0  0  0  0  0  0  0  0  0  0  0
   33.3872   35.1300   27.0104 C   0  0  0  0  0  0  0  0  0  0  0  0
   32.8125   36.4192   27.1114 O   0  0  0  0  0  0  0  0  0  0  0  0
   32.9269   36.8909   26.2715 H   0  0  0  0  0  0  0  0  0  0  0  0
   41.3395   31.0273   26.6194 O   0  0  0  0  0  0  0  0  0  0  0  0
   42.1656   30.4065   25.6268 C   0  0  0  0  0  0  0  0  0  0  0  0
 41 40  1  0  0  0
 41 42  1  0  0  0
 35 33  1  0  0  0
 35 36  1  0  0  0
 38 40  1  0  0  0
 38 36  1  0  0  0
 33 31  1  0  0  0
  7  8  2  0  0  0
 24 23  1  0  0  0
 24 18  1  0  0  0
 36 37  2  0  0  0
  8 11  1  0  0  0
  8  9  1  0  0  0
 16 11  1  0  0  0
 16 15  1  0  0  0
 23 22  1  0  0  0
 11 12  1  0  0  0
 27 26  2  0  0  0
 27 28  1  0  0  0
 18  9  1  0  0  0
 18 19  1  0  0  0
 22 21  1  0  0  0
 31 32  2  0  0  0
 31 28  1  0  0  0
  9 10  1  0  0  0
 21 20  1  0  0  0
 26 25  1  0  0  0
 15 14  2  0  0  0
 28 29  2  0  0  0
 10 17  2  0  0  0
 12 17  1  0  0  0
 12 13  1  0  0  0
 17  1  1  0  0  0
 19 20  1  0  0  0
  4  1  2  0  0  0
  4  5  1  0  0  0
 25  5  1  0  0  0
 25 30  2  0  0  0
 14 13  1  0  0  0
 29 30  1  0  0  0
  1  2  1  0  0  0
  5  6  2  0  0  0
  2  3  2  0  0  0
  6  3  1  0  0  0
  6 44  1  0  0  0
 44 45  1  0  0  0
 33 34  1  0  0  0
 38 39  1  0  0  0
 42 43  1  0  0  0
M  END
> <minimizedAffinity>
-10.26309

$$$$
5L8Y_CVA_B_1004


 45 49  0  0  0  0  0  0  0  0999 V2000
   35.1638   29.5375   29.2906 C   0  0  0  0  0  0  0  0  0  0  0  0
   34.2692   30.4846   29.7901 C   0  0  0  0  0  0  0  0  0  0  0  0
   34.1300   31.7184   29.1797 C   0  0  0  0  0  0  0  0  0  0  0  0
   35.9396   29.8612   28.1792 C   0  0  0  0  0  0  0  0  0  0  0  0
   35.8559   31.1161   27.5746 C   0  0  0  0  0  0  0  0  0  0  0  0
   34.9233   32.0356   28.0721 C   0  0  0  0  0  0  0  0  0  0  0  0
   36.0730   24.6277   31.6068 O   0  0  0  0  0  0  0  0  0  0  0  0
   35.9351   25.7713   31.2048 C   0  0  0  0  0  0  0  0  0  0  0  0
   36.4655   26.2158   30.0193 N   0  0  0  0  0  0  0  0  0  0  0  0
   36.2718   27.4803   29.4810 N   0  0  0  0  0  0  0  0  0  0  0  0
   35.1331   26.8053   31.9783 C   0  0  0  0  0  0  0  0  0  0  0  0
   34.3406   27.7177   31.0013 C   0  0  0  0  0  0  0  0  0  0  0  0
   33.1081   27.0199   30.3927 C   0  0  0  0  0  0  0  0  0  0  0  0
   32.5426   25.9172   31.2525 C   0  0  0  0  0  0  0  0  0  0  0  0
   33.0410   25.5054   32.4107 C   0  0  0  0  0  0  0  0  0  0  0  0
   34.2089   26.1808   33.0372 C   0  0  0  0  0  0  0  0  0  0  0  0
   35.2909   28.1972   29.9152 C   0  0  0  0  0  0  0  0  0  0  0  0
   37.2926   25.4048   29.0975 C   0  0  0  0  0  0  0  0  0  0  0  0
   38.0375   24.2563   29.8791 C   0  0  0  0  0  0  0  0  0  0  0  0
   38.7533   23.0938   29.2134 C   0  0  0  0  0  0  0  0  0  0  0  0
   38.6641   23.0313   27.7257 C   0  0  0  0  0  0  0  0  0  0  0  0
   37.2896   22.6602   27.2127 C   0  0  0  0  0  0  0  0  0  0  0  0
   36.1405   23.4999   27.7231 C   0  0  0  0  0  0  0  0  0  0  0  0
   36.4356   24.9861   27.8722 C   0  0  0  0  0  0  0  0  0  0  0  0
   36.8941   31.4524   26.5593 C   0  0  0  0  0  0  0  0  0  0  0  0
   36.5994   31.3762   25.1981 C   0  0  0  0  0  0  0  0  0  0  0  0
   37.4661   31.8800   24.2450 C   0  0  0  0  0  0  0  0  0  0  0  0
   38.6676   32.4813   24.6224 C   0  0  0  0  0  0  0  0  0  0  0  0
   38.9917   32.5053   25.9807 C   0  0  0  0  0  0  0  0  0  0  0  0
   38.1199   31.9984   26.9265 C   0  0  0  0  0  0  0  0  0  0  0  0
   39.5495   33.2279   23.6609 C   0  0  0  0  0  0  0  0  0  0  0  0
   39.7967   32.7553   22.5552 O   0  0  0  0  0  0  0  0  0  0  0  0
   40.0694   34.3955   24.0614 N   0  0  0  0  0  0  0  0  0  0  0  0
   40.3192   34.5128   25.0064 H   0  0  0  0  0  0  0  0  0  0  0  0
   40.2720   35.4904   23.1327 C   0  0  0  0  0  0  0  0  0  0  0  0
   38.9842   36.1616   22.6834 C   0  0  0  0  0  0  0  0  0  0  0  0
   38.8883   37.3885   22.6433 O   0  0  0  0  0  0  0  0  0  0  0  0
   37.9915   35.3386   22.3392 N   0  0  0  0  0  0  0  0  0  0  0  0
   38.2124   34.5414   21.8055 H   0  0  0  0  0  0  0  0  0  0  0  0
   36.5981   35.5547   22.7096 C   0  0  0  0  0  0  0  0  0  0  0  0
   36.4179   35.7237   24.1959 C   0  0  0  0  0  0  0  0  0  0  0  0
   36.3632   37.0803   24.5948 O   0  0  0  0  0  0  0  0  0  0  0  0
   37.1994   37.5175   24.3699 H   0  0  0  0  0  0  0  0  0  0  0  0
   34.8700   33.2358   27.4212 O   0  0  0  0  0  0  0  0  0  0  0  0
   33.9310   33.3767   26.3480 C   0  0  0  0  0  0  0  0  0  0  0  0
 41 40  1  0  0  0
 41 42  1  0  0  0
 35 33  1  0  0  0
 35 36  1  0  0  0
 38 40  1  0  0  0
 38 36  1  0  0  0
 33 31  1  0  0  0
  7  8  2  0  0  0
 24 23  1  0  0  0
 24 18  1  0  0  0
 36 37  2  0  0  0
  8 11  1  0  0  0
  8  9  1  0  0  0
 16 11  1  0  0  0
 16 15  1  0  0  0
 23 22  1  0  0  0
 11 12  1  0  0  0
 27 26  2  0  0  0
 27 28  1  0  0  0
 18  9  1  0  0  0
 18 19  1  0  0  0
 22 21  1  0  0  0
 31 32  2  0  0  0
 31 28  1  0  0  0
  9 10  1  0  0  0
 21 20  1  0  0  0
 26 25  1  0  0  0
 15 14  2  0  0  0
 28 29  2  0  0  0
 10 17  2  0  0  0
 12 17  1  0  0  0
 12 13  1  0  0  0
 17  1  1  0  0  0
 19 20  1  0  0  0
  4  1  2  0  0  0
  4  5  1  0  0  0
 25  5  1  0  0  0
 25 30  2  0  0  0
 14 13  1  0  0  0
 29 30  1  0  0  0
  1  2  1  0  0  0
  5  6  2  0  0  0
  2  3  2  0  0  0
  6  3  1  0  0  0
  6 44  1  0  0  0
 44 45  1  0  0  0
 33 34  1  0  0  0
 38 39  1  0  0  0
 42 43  1  0  0  0
M  END
> <minimizedAffinity>
-9.82970

$$$$
5L8Y_CVA_B_1004


 45 49  0  0  0  0  0  0  0  0999 V2000
   37.2940   33.2843   24.7866 C   0  0  0  0  0  0  0  0  0  0  0  0
   36.5532   34.0212   23.8619 C   0  0  0  0  0  0  0  0  0  0  0  0
   35.1885   34.1864   24.0182 C   0  0  0  0  0  0  0  0  0  0  0  0
   36.6345   32.6904   25.8610 C   0  0  0  0  0  0  0  0  0  0  0  0
   35.2518   32.7987   26.0153 C   0  0  0  0  0  0  0  0  0  0  0  0
   34.5364   33.5750   25.0942 C   0  0  0  0  0  0  0  0  0  0  0  0
   42.6885   32.2955   24.3187 O   0  0  0  0  0  0  0  0  0  0  0  0
   41.4763   32.4337   24.3098 C   0  0  0  0  0  0  0  0  0  0  0  0
   40.6729   32.0521   25.3553 N   0  0  0  0  0  0  0  0  0  0  0  0
   39.3023   32.2587   25.4272 N   0  0  0  0  0  0  0  0  0  0  0  0
   40.7475   33.0715   23.1382 C   0  0  0  0  0  0  0  0  0  0  0  0
   39.5687   33.9477   23.6458 C   0  0  0  0  0  0  0  0  0  0  0  0
   40.0328   35.2839   24.2584 C   0  0  0  0  0  0  0  0  0  0  0  0
   41.3541   35.7763   23.7229 C   0  0  0  0  0  0  0  0  0  0  0  0
   42.1177   35.1424   22.8427 C   0  0  0  0  0  0  0  0  0  0  0  0
   41.6805   33.8686   22.2111 C   0  0  0  0  0  0  0  0  0  0  0  0
   38.7641   33.1353   24.6484 C   0  0  0  0  0  0  0  0  0  0  0  0
   41.1428   31.3996   26.5983 C   0  0  0  0  0  0  0  0  0  0  0  0
   40.5671   32.1359   27.8677 C   0  0  0  0  0  0  0  0  0  0  0  0
   40.6333   31.5824   29.2807 C   0  0  0  0  0  0  0  0  0  0  0  0
   41.2257   30.2212   29.4269 C   0  0  0  0  0  0  0  0  0  0  0  0
   40.3486   29.1135   28.8849 C   0  0  0  0  0  0  0  0  0  0  0  0
   39.8781   29.2765   27.4573 C   0  0  0  0  0  0  0  0  0  0  0  0
   40.9010   29.8691   26.4978 C   0  0  0  0  0  0  0  0  0  0  0  0
   34.6122   31.9297   27.0435 C   0  0  0  0  0  0  0  0  0  0  0  0
   34.2249   30.6283   26.7242 C   0  0  0  0  0  0  0  0  0  0  0  0
   33.8268   29.7355   27.7030 C   0  0  0  0  0  0  0  0  0  0  0  0
   33.8006   30.1160   29.0454 C   0  0  0  0  0  0  0  0  0  0  0  0
   34.1309   31.4359   29.3604 C   0  0  0  0  0  0  0  0  0  0  0  0
   34.5267   32.3219   28.3755 C   0  0  0  0  0  0  0  0  0  0  0  0
   33.5801   29.1434   30.1701 C   0  0  0  0  0  0  0  0  0  0  0  0
   32.5727   29.2235   30.8672 O   0  0  0  0  0  0  0  0  0  0  0  0
   34.5231   28.2196   30.3966 N   0  0  0  0  0  0  0  0  0  0  0  0
   35.4686   28.4495   30.2466 H   0  0  0  0  0  0  0  0  0  0  0  0
   34.1811   26.8883   30.8579 C   0  0  0  0  0  0  0  0  0  0  0  0
   35.3696   25.9448   30.9477 C   0  0  0  0  0  0  0  0  0  0  0  0
   35.6449   25.3689   32.0007 O   0  0  0  0  0  0  0  0  0  0  0  0
   36.0715   25.7884   29.8234 N   0  0  0  0  0  0  0  0  0  0  0  0
   35.5784   25.7010   28.9758 H   0  0  0  0  0  0  0  0  0  0  0  0
   37.5280   25.7398   29.7807 C   0  0  0  0  0  0  0  0  0  0  0  0
   38.0536   24.3311   29.6827 C   0  0  0  0  0  0  0  0  0  0  0  0
   38.0174   23.6410   30.9176 O   0  0  0  0  0  0  0  0  0  0  0  0
   38.5817   24.0985   31.5603 H   0  0  0  0  0  0  0  0  0  0  0  0
   33.1908   33.6646   25.3143 O   0  0  0  0  0  0  0  0  0  0  0  0
   32.4840   34.7588   24.7174 C   0  0  0  0  0  0  0  0  0  0  0  0
 41 40  1  0  0  0
 41 42  1  0  0  0
 35 33  1  0  0  0
 35 36  1  0  0  0
 38 40  1  0  0  0
 38 36  1  0  0  0
 33 31  1  0  0  0
  7  8  2  0  0  0
 24 23  1  0  0  0
 24 18  1  0  0  0
 36 37  2  0  0  0
  8 11  1  0  0  0
  8  9  1  0  0  0
 16 11  1  0  0  0
 16 15  1  0  0  0
 23 22  1  0  0  0
 11 12  1  0  0  0
 27 26  2  0  0  0
 27 28  1  0  0  0
 18  9  1  0  0  0
 18 19  1  0  0  0
 22 21  1  0  0  0
 31 32  2  0  0  0
 31 28  1  0  0  0
  9 10  1  0  0  0
 21 20  1  0  0  0
 26 25  1  0  0  0
 15 14  2  0  0  0
 28 29  2  0  0  0
 10 17  2  0  0  0
 12 17  1  0  0  0
 12 13  1  0  0  0
 17  1  1  0  0  0
 19 20  1  0  0  0
  4  1  2  0  0  0
  4  5  1  0  0  0
 25  5  1  0  0  0
 25 30  2  0  0  0
 14 13  1  0  0  0
 29 30  1  0  0  0
  1  2  1  0  0  0
  5  6  2  0  0  0
  2  3  2  0  0  0
  6  3  1  0  0  0
  6 44  1  0  0  0
 44 45  1  0  0  0
 33 34  1  0  0  0
 38 39  1  0  0  0
 42 43  1  0  0  0
M  END
> <minimizedAffinity>
-9.75918

$$$$
5L8Y_CVA_B_1004


 45 49  0  0  0  0  0  0  0  0999 V2000
   39.7070   30.7880   28.4203 C   0  0  0  0  0  0  0  0  0  0  0  0
   40.2255   32.0148   28.8364 C   0  0  0  0  0  0  0  0  0  0  0  0
   41.5226   32.1123   29.3077 C   0  0  0  0  0  0  0  0  0  0  0  0
   40.5072   29.6508   28.5111 C   0  0  0  0  0  0  0  0  0  0  0  0
   41.8014   29.7118   29.0295 C   0  0  0  0  0  0  0  0  0  0  0  0
   42.3115   30.9613   29.4053 C   0  0  0  0  0  0  0  0  0  0  0  0
   34.4546   30.4001   26.8207 O   0  0  0  0  0  0  0  0  0  0  0  0
   35.5833   30.6071   27.2352 C   0  0  0  0  0  0  0  0  0  0  0  0
   36.2287   29.7596   28.1009 N   0  0  0  0  0  0  0  0  0  0  0  0
   37.5373   29.9085   28.5388 N   0  0  0  0  0  0  0  0  0  0  0  0
   36.3895   31.8211   26.8029 C   0  0  0  0  0  0  0  0  0  0  0  0
   37.8883   31.4451   26.6381 C   0  0  0  0  0  0  0  0  0  0  0  0
   38.1678   30.6351   25.3567 C   0  0  0  0  0  0  0  0  0  0  0  0
   37.1751   30.8819   24.2482 C   0  0  0  0  0  0  0  0  0  0  0  0
   36.1123   31.6721   24.3221 C   0  0  0  0  0  0  0  0  0  0  0  0
   35.8359   32.4899   25.5334 C   0  0  0  0  0  0  0  0  0  0  0  0
   38.3303   30.6813   27.8766 C   0  0  0  0  0  0  0  0  0  0  0  0
   35.6511   28.5224   28.6730 C   0  0  0  0  0  0  0  0  0  0  0  0
   36.7792   27.6178   29.3008 C   0  0  0  0  0  0  0  0  0  0  0  0
   36.5149   26.4170   30.1926 C   0  0  0  0  0  0  0  0  0  0  0  0
   35.0866   26.1500   30.5302 C   0  0  0  0  0  0  0  0  0  0  0  0
   34.4852   27.1632   31.4798 C   0  0  0  0  0  0  0  0  0  0  0  0
   34.6146   28.6137   31.0734 C   0  0  0  0  0  0  0  0  0  0  0  0
   34.4499   28.8905   29.5853 C   0  0  0  0  0  0  0  0  0  0  0  0
   42.4806   28.4165   29.3168 C   0  0  0  0  0  0  0  0  0  0  0  0
   42.0135   27.5867   30.3360 C   0  0  0  0  0  0  0  0  0  0  0  0
   42.4864   26.2955   30.4862 C   0  0  0  0  0  0  0  0  0  0  0  0
   43.4513   25.7852   29.6166 C   0  0  0  0  0  0  0  0  0  0  0  0
   43.9631   26.6339   28.6327 C   0  0  0  0  0  0  0  0  0  0  0  0
   43.4853   27.9235   28.4904 C   0  0  0  0  0  0  0  0  0  0  0  0
   43.8532   24.3369   29.5951 C   0  0  0  0  0  0  0  0  0  0  0  0
   44.5898   23.8873   30.4683 O   0  0  0  0  0  0  0  0  0  0  0  0
   43.4074   23.5756   28.5873 N   0  0  0  0  0  0  0  0  0  0  0  0
   43.3003   23.9739   27.6934 H   0  0  0  0  0  0  0  0  0  0  0  0
   43.0791   22.1772   28.7849 C   0  0  0  0  0  0  0  0  0  0  0  0
   41.9900   21.6644   27.8566 C   0  0  0  0  0  0  0  0  0  0  0  0
   40.8301   22.0652   27.9564 O   0  0  0  0  0  0  0  0  0  0  0  0
   42.3796   20.7719   26.9439 N   0  0  0  0  0  0  0  0  0  0  0  0
   43.2352   20.9234   26.4811 H   0  0  0  0  0  0  0  0  0  0  0  0
   41.6084   19.5850   26.5943 C   0  0  0  0  0  0  0  0  0  0  0  0
   41.2412   19.5478   25.1335 C   0  0  0  0  0  0  0  0  0  0  0  0
   39.8793   19.8520   24.8985 O   0  0  0  0  0  0  0  0  0  0  0  0
   39.3202   19.1919   25.3372 H   0  0  0  0  0  0  0  0  0  0  0  0
   43.5930   30.9593   29.8796 O   0  0  0  0  0  0  0  0  0  0  0  0
   44.2308   32.2240   30.0964 C   0  0  0  0  0  0  0  0  0  0  0  0
 41 40  1  0  0  0
 41 42  1  0  0  0
 35 33  1  0  0  0
 35 36  1  0  0  0
 38 40  1  0  0  0
 38 36  1  0  0  0
 33 31  1  0  0  0
  7  8  2  0  0  0
 24 23  1  0  0  0
 24 18  1  0  0  0
 36 37  2  0  0  0
  8 11  1  0  0  0
  8  9  1  0  0  0
 16 11  1  0  0  0
 16 15  1  0  0  0
 23 22  1  0  0  0
 11 12  1  0  0  0
 27 26  2  0  0  0
 27 28  1  0  0  0
 18  9  1  0  0  0
 18 19  1  0  0  0
 22 21  1  0  0  0
 31 32  2  0  0  0
 31 28  1  0  0  0
  9 10  1  0  0  0
 21 20  1  0  0  0
 26 25  1  0  0  0
 15 14  2  0  0  0
 28 29  2  0  0  0
 10 17  2  0  0  0
 12 17  1  0  0  0
 12 13  1  0  0  0
 17  1  1  0  0  0
 19 20  1  0  0  0
  4  1  2  0  0  0
  4  5  1  0  0  0
 25  5  1  0  0  0
 25 30  2  0  0  0
 14 13  1  0  0  0
 29 30  1  0  0  0
  1  2  1  0  0  0
  5  6  2  0  0  0
  2  3  2  0  0  0
  6  3  1  0  0  0
  6 44  1  0  0  0
 44 45  1  0  0  0
 33 34  1  0  0  0
 38 39  1  0  0  0
 42 43  1  0  0  0
M  END
> <minimizedAffinity>
-9.39753

$$$$
5L8Y_CVA_B_1004


 45 49  0  0  0  0  0  0  0  0999 V2000
   39.5657   30.8379   28.4593 C   0  0  0  0  0  0  0  0  0  0  0  0
   40.0488   32.1279   28.6817 C   0  0  0  0  0  0  0  0  0  0  0  0
   41.3660   32.3373   29.0495 C   0  0  0  0  0  0  0  0  0  0  0  0
   40.4238   29.7549   28.6395 C   0  0  0  0  0  0  0  0  0  0  0  0
   41.7428   29.9340   29.0586 C   0  0  0  0  0  0  0  0  0  0  0  0
   42.2139   31.2410   29.2389 C   0  0  0  0  0  0  0  0  0  0  0  0
   34.2707   29.9082   27.2777 O   0  0  0  0  0  0  0  0  0  0  0  0
   35.3997   30.2190   27.6204 C   0  0  0  0  0  0  0  0  0  0  0  0
   36.2413   29.3624   28.2852 N   0  0  0  0  0  0  0  0  0  0  0  0
   37.5578   29.6396   28.6265 N   0  0  0  0  0  0  0  0  0  0  0  0
   35.9859   31.5876   27.3137 C   0  0  0  0  0  0  0  0  0  0  0  0
   37.4950   31.4642   26.9640 C   0  0  0  0  0  0  0  0  0  0  0  0
   37.7409   30.8938   25.5532 C   0  0  0  0  0  0  0  0  0  0  0  0
   36.6110   31.1453   24.5861 C   0  0  0  0  0  0  0  0  0  0  0  0
   35.4665   31.7514   24.8731 C   0  0  0  0  0  0  0  0  0  0  0  0
   35.2152   32.3399   26.2158 C   0  0  0  0  0  0  0  0  0  0  0  0
   38.1651   30.6068   28.0263 C   0  0  0  0  0  0  0  0  0  0  0  0
   35.8986   27.9851   28.7061 C   0  0  0  0  0  0  0  0  0  0  0  0
   37.1928   27.1934   29.1340 C   0  0  0  0  0  0  0  0  0  0  0  0
   37.1782   25.8584   29.8584 C   0  0  0  0  0  0  0  0  0  0  0  0
   35.8353   25.3284   30.2339 C   0  0  0  0  0  0  0  0  0  0  0  0
   35.1663   26.0998   31.3508 C   0  0  0  0  0  0  0  0  0  0  0  0
   35.0485   27.5936   31.1492 C   0  0  0  0  0  0  0  0  0  0  0  0
   34.7302   28.0360   29.7275 C   0  0  0  0  0  0  0  0  0  0  0  0
   42.4998   28.7148   29.4613 C   0  0  0  0  0  0  0  0  0  0  0  0
   42.1849   28.0489   30.6457 C   0  0  0  0  0  0  0  0  0  0  0  0
   42.7214   26.8078   30.9379 C   0  0  0  0  0  0  0  0  0  0  0  0
   43.5993   26.1849   30.0498 C   0  0  0  0  0  0  0  0  0  0  0  0
   43.9619   26.8761   28.8916 C   0  0  0  0  0  0  0  0  0  0  0  0
   43.4216   28.1167   28.6081 C   0  0  0  0  0  0  0  0  0  0  0  0
   44.0517   24.7600   30.2065 C   0  0  0  0  0  0  0  0  0  0  0  0
   44.9643   24.4832   30.9795 O   0  0  0  0  0  0  0  0  0  0  0  0
   43.4499   23.8237   29.4613 N   0  0  0  0  0  0  0  0  0  0  0  0
   43.1520   24.0505   28.5508 H   0  0  0  0  0  0  0  0  0  0  0  0
   43.2280   22.4831   29.9671 C   0  0  0  0  0  0  0  0  0  0  0  0
   44.1574   21.4390   29.3696 C   0  0  0  0  0  0  0  0  0  0  0  0
   45.0039   21.7484   28.5306 O   0  0  0  0  0  0  0  0  0  0  0  0
   43.9926   20.1926   29.8173 N   0  0  0  0  0  0  0  0  0  0  0  0
   43.8406   20.0610   30.7810 H   0  0  0  0  0  0  0  0  0  0  0  0
   44.0252   19.0150   28.9584 C   0  0  0  0  0  0  0  0  0  0  0  0
   42.8185   18.9246   28.0606 C   0  0  0  0  0  0  0  0  0  0  0  0
   41.7515   18.1986   28.6410 O   0  0  0  0  0  0  0  0  0  0  0  0
   42.0350   17.2864   28.8095 H   0  0  0  0  0  0  0  0  0  0  0  0
   43.5205   31.3515   29.6232 O   0  0  0  0  0  0  0  0  0  0  0  0
   44.4713   31.8002   28.6496 C   0  0  0  0  0  0  0  0  0  0  0  0
 41 40  1  0  0  0
 41 42  1  0  0  0
 35 33  1  0  0  0
 35 36  1  0  0  0
 38 40  1  0  0  0
 38 36  1  0  0  0
 33 31  1  0  0  0
  7  8  2  0  0  0
 24 23  1  0  0  0
 24 18  1  0  0  0
 36 37  2  0  0  0
  8 11  1  0  0  0
  8  9  1  0  0  0
 16 11  1  0  0  0
 16 15  1  0  0  0
 23 22  1  0  0  0
 11 12  1  0  0  0
 27 26  2  0  0  0
 27 28  1  0  0  0
 18  9  1  0  0  0
 18 19  1  0  0  0
 22 21  1  0  0  0
 31 32  2  0  0  0
 31 28  1  0  0  0
  9 10  1  0  0  0
 21 20  1  0  0  0
 26 25  1  0  0  0
 15 14  2  0  0  0
 28 29  2  0  0  0
 10 17  2  0  0  0
 12 17  1  0  0  0
 12 13  1  0  0  0
 17  1  1  0  0  0
 19 20  1  0  0  0
  4  1  2  0  0  0
  4  5  1  0  0  0
 25  5  1  0  0  0
 25 30  2  0  0  0
 14 13  1  0  0  0
 29 30  1  0  0  0
  1  2  1  0  0  0
  5  6  2  0  0  0
  2  3  2  0  0  0
  6  3  1  0  0  0
  6 44  1  0  0  0
 44 45  1  0  0  0
 33 34  1  0  0  0
 38 39  1  0  0  0
 42 43  1  0  0  0
M  END
> <minimizedAffinity>
-9.33847

$$$$
5L8Y_CVA_B_1004


 45 49  0  0  0  0  0  0  0  0999 V2000
   39.3210   32.4507   26.0510 C   0  0  0  0  0  0  0  0  0  0  0  0
   40.5154   31.7963   26.3546 C   0  0  0  0  0  0  0  0  0  0  0  0
   40.5304   30.7123   27.2142 C   0  0  0  0  0  0  0  0  0  0  0  0
   38.1405   32.0137   26.6488 C   0  0  0  0  0  0  0  0  0  0  0  0
   38.1344   30.9551   27.5580 C   0  0  0  0  0  0  0  0  0  0  0  0
   39.3405   30.2911   27.8171 C   0  0  0  0  0  0  0  0  0  0  0  0
   38.9456   36.8842   22.8107 O   0  0  0  0  0  0  0  0  0  0  0  0
   39.0843   35.9863   23.6250 C   0  0  0  0  0  0  0  0  0  0  0  0
   38.0328   35.2524   24.1146 N   0  0  0  0  0  0  0  0  0  0  0  0
   38.1455   34.1726   24.9793 N   0  0  0  0  0  0  0  0  0  0  0  0
   40.4515   35.5823   24.1525 C   0  0  0  0  0  0  0  0  0  0  0  0
   40.5264   34.0412   24.3384 C   0  0  0  0  0  0  0  0  0  0  0  0
   40.6669   33.2806   23.0050 C   0  0  0  0  0  0  0  0  0  0  0  0
   41.3134   34.0866   21.9061 C   0  0  0  0  0  0  0  0  0  0  0  0
   41.7026   35.3512   21.9996 C   0  0  0  0  0  0  0  0  0  0  0  0
   41.6091   36.0993   23.2818 C   0  0  0  0  0  0  0  0  0  0  0  0
   39.2899   33.5892   25.0995 C   0  0  0  0  0  0  0  0  0  0  0  0
   36.6098   35.4619   23.7643 C   0  0  0  0  0  0  0  0  0  0  0  0
   35.9027   34.0876   23.4540 C   0  0  0  0  0  0  0  0  0  0  0  0
   34.4003   33.9105   23.3178 C   0  0  0  0  0  0  0  0  0  0  0  0
   33.5694   35.1235   23.5698 C   0  0  0  0  0  0  0  0  0  0  0  0
   33.5285   35.5429   25.0232 C   0  0  0  0  0  0  0  0  0  0  0  0
   34.8681   35.7358   25.6973 C   0  0  0  0  0  0  0  0  0  0  0  0
   35.9469   36.3733   24.8325 C   0  0  0  0  0  0  0  0  0  0  0  0
   36.8781   30.7261   28.3267 C   0  0  0  0  0  0  0  0  0  0  0  0
   35.9135   29.8375   27.8520 C   0  0  0  0  0  0  0  0  0  0  0  0
   34.8448   29.4478   28.6390 C   0  0  0  0  0  0  0  0  0  0  0  0
   34.7013   29.9378   29.9378 C   0  0  0  0  0  0  0  0  0  0  0  0
   35.6331   30.8730   30.3935 C   0  0  0  0  0  0  0  0  0  0  0  0
   36.6977   31.2576   29.5997 C   0  0  0  0  0  0  0  0  0  0  0  0
   33.6886   29.4010   30.9104 C   0  0  0  0  0  0  0  0  0  0  0  0
   32.5452   29.1538   30.5380 O   0  0  0  0  0  0  0  0  0  0  0  0
   34.0676   29.2329   32.1840 N   0  0  0  0  0  0  0  0  0  0  0  0
   34.7096   29.8637   32.5829 H   0  0  0  0  0  0  0  0  0  0  0  0
   33.5525   28.1416   32.9877 C   0  0  0  0  0  0  0  0  0  0  0  0
   34.0962   26.7778   32.5932 C   0  0  0  0  0  0  0  0  0  0  0  0
   34.0677   25.8312   33.3801 O   0  0  0  0  0  0  0  0  0  0  0  0
   34.5898   26.6865   31.3565 N   0  0  0  0  0  0  0  0  0  0  0  0
   34.0984   27.1272   30.6261 H   0  0  0  0  0  0  0  0  0  0  0  0
   35.8164   25.9706   31.0274 C   0  0  0  0  0  0  0  0  0  0  0  0
   36.2506   26.1988   29.6028 C   0  0  0  0  0  0  0  0  0  0  0  0
   37.5809   26.6701   29.4996 O   0  0  0  0  0  0  0  0  0  0  0  0
   37.6561   27.5268   29.9483 H   0  0  0  0  0  0  0  0  0  0  0  0
   39.2646   29.2466   28.6948 O   0  0  0  0  0  0  0  0  0  0  0  0
   40.4789   28.7932   29.3059 C   0  0  0  0  0  0  0  0  0  0  0  0
 41 40  1  0  0  0
 41 42  1  0  0  0
 35 33  1  0  0  0
 35 36  1  0  0  0
 38 40  1  0  0  0
 38 36  1  0  0  0
 33 31  1  0  0  0
  7  8  2  0  0  0
 24 23  1  0  0  0
 24 18  1  0  0  0
 36 37  2  0  0  0
  8 11  1  0  0  0
  8  9  1  0  0  0
 16 11  1  0  0  0
 16 15  1  0  0  0
 23 22  1  0  0  0
 11 12  1  0  0  0
 27 26  2  0  0  0
 27 28  1  0  0  0
 18  9  1  0  0  0
 18 19  1  0  0  0
 22 21  1  0  0  0
 31 32  2  0  0  0
 31 28  1  0  0  0
  9 10  1  0  0  0
 21 20  1  0  0  0
 26 25  1  0  0  0
 15 14  2  0  0  0
 28 29  2  0  0  0
 10 17  2  0  0  0
 12 17  1  0  0  0
 12 13  1  0  0  0
 17  1  1  0  0  0
 19 20  1  0  0  0
  4  1  2  0  0  0
  4  5  1  0  0  0
 25  5  1  0  0  0
 25 30  2  0  0  0
 14 13  1  0  0  0
 29 30  1  0  0  0
  1  2  1  0  0  0
  5  6  2  0  0  0
  2  3  2  0  0  0
  6  3  1  0  0  0
  6 44  1  0  0  0
 44 45  1  0  0  0
 33 34  1  0  0  0
 38 39  1  0  0  0
 42 43  1  0  0  0
M  END
> <minimizedAffinity>
-9.31472

$$$$
