1QK3_5GP_A_300
  RCSB PDB12061703473D
Coordinates from PDB:1QK3:A:300 Model:1 without hydrogens
 24 26  0  0  0  0            999 V2000
   60.5190  108.3350  114.3770   P 0  0  0  0  0  0  0  0  0  0  0  0
   59.0930  108.5740  114.6540   O 0  0  0  0  0  0  0  0  0  0  0  0
   60.8490  108.3850  112.8960   O 0  0  0  0  0  0  0  0  0  0  0  0
   61.4530  109.2730  115.2070   O 0  0  0  0  0  0  0  0  0  0  0  0
   60.9550  106.8580  114.8660   O 0  0  0  0  0  0  0  0  0  0  0  0
   61.5070  106.6510  116.1800   C 0  0  0  0  0  0  0  0  0  0  0  0
   61.8940  105.2010  116.4460   C 0  0  0  0  0  0  0  0  0  0  0  0
   60.6160  104.4950  116.6290   O 0  0  0  0  0  0  0  0  0  0  0  0
   62.5890  104.3960  115.3670   C 0  0  0  0  0  0  0  0  0  0  0  0
   63.9940  104.5490  115.3850   O 0  0  0  0  0  0  0  0  0  0  0  0
   62.2710  102.9660  115.7810   C 0  0  0  0  0  0  0  0  0  0  0  0
   63.1130  102.5420  116.8670   O 0  0  0  0  0  0  0  0  0  0  0  0
   60.8240  103.1110  116.2570   C 0  0  0  0  0  0  0  0  0  0  0  0
   59.7550  102.7170  115.3190   N 0  0  0  0  0  0  0  0  0  0  0  0
   58.9860  103.4930  114.4960   C 0  0  0  0  0  0  0  0  0  0  0  0
   58.0820  102.8470  113.8100   N 0  0  0  0  0  0  0  0  0  0  0  0
   58.2410  101.5220  114.2800   C 0  0  0  0  0  0  0  0  0  0  0  0
   57.4920  100.3820  113.9100   C 0  0  0  0  0  0  0  0  0  0  0  0
   56.5620  100.3110  113.1170   O 0  0  0  0  0  0  0  0  0  0  0  0
   57.9230   99.2500  114.6210   N 0  0  0  0  0  0  0  0  0  0  0  0
   58.9540   99.2570  115.5350   C 0  0  0  0  0  0  0  0  0  0  0  0
   59.1760   98.0480  116.0990   N 0  0  0  0  0  0  0  0  0  0  0  0
   59.6720  100.3310  115.8870   N 0  0  0  0  0  0  0  0  0  0  0  0
   59.2490  101.4350  115.2060   C 0  0  0  0  0  0  0  0  0  0  0  0
  1  2  2  0  0  0  0
  1  3  1  0  0  0  0
  1  4  1  0  0  0  0
  1  5  1  0  0  0  0
  5  6  1  0  0  0  0
  6  7  1  0  0  0  0
  7  8  1  0  0  0  0
  7  9  1  0  0  0  0
  8 13  1  0  0  0  0
  9 10  1  0  0  0  0
  9 11  1  0  0  0  0
 11 12  1  0  0  0  0
 11 13  1  0  0  0  0
 13 14  1  0  0  0  0
 14 15  1  0  0  0  0
 14 24  1  0  0  0  0
 15 16  2  0  0  0  0
 16 17  1  0  0  0  0
 17 18  1  0  0  0  0
 17 24  2  0  0  0  0
 18 19  2  0  0  0  0
 18 20  1  0  0  0  0
 20 21  1  0  0  0  0
 21 22  1  0  0  0  0
 21 23  2  0  0  0  0
 23 24  1  0  0  0  0
A    1
P
A    2
O1P
A    3
O2P
A    4
O3P
A    5
O5'
A    6
C5'
A    7
C4'
A    8
O4'
A    9
C3'
A   10
O3'
A   11
C2'
A   12
O2'
A   13
C1'
A   14
N9
A   15
C8
A   16
N7
A   17
C5
A   18
C6
A   19
O6
A   20
N1
A   21
C2
A   22
N2
A   23
N3
A   24
C4
M  END
>  <InstanceId>
1QK3_5GP_A_300

>  <ChemCompId>
5GP

>  <PdbId>
1QK3

>  <ChainId>
A

>  <ResidueNumber>
300

>  <InsertionCode>


>  <Model>
1

>  <AltIds>


>  <MissingHeavyAtoms>
0

>  <ObservedFormula>
C10 N5 O8 P

>  <Name>
GUANOSINE-5'-MONOPHOSPHATE

>  <SystematicName>
[(2R,3S,4R,5R)-5-(2-amino-6-oxo-1H-purin-9-yl)-3,4-dihydroxy-oxolan-2-yl]methyl dihydrogen phosphate

>  <Synonyms>


>  <Type>
NON-POLYMER

>  <Formula>
C10 H14 N5 O8 P

>  <MolecularWeight>
363.221

>  <ModifiedDate>
2011-06-04

>  <Parent>


>  <OneLetterCode>


>  <SubcomponentList>


>  <AmbiguousFlag>
N

>  <InChI>
InChI=1S/C10H14N5O8P/c11-10-13-7-4(8(18)14-10)12-2-15(7)9-6(17)5(16)3(23-9)1-22-24(19,20)21/h2-3,5-6,9,16-17H,1H2,(H2,19,20,21)(H3,11,13,14,18)/t3-,5-,6-,9-/m1/s1

>  <InChIKey>
RQFCJASXJCIDSX-UUOKFMHZSA-N

>  <SMILES>
c1nc2c(n1[C@H]3[C@@H]([C@@H]([C@H](O3)COP(=O)(O)O)O)O)N=C(NC2=O)N

$$$$
