1QK3_5GP_A_300


 31 33  0  0  0  0  0  0  0  0999 V2000
   61.7130  105.3244  116.4069 C   0  0  0  0  0  0  0  0  0  0  0  0
   60.5478  104.4495  116.6118 O   0  0  0  0  0  0  0  0  0  0  0  0
   62.4299  104.6866  115.2345 C   0  0  0  0  0  0  0  0  0  0  0  0
   63.8030  105.0177  115.1827 O   0  0  0  0  0  0  0  0  0  0  0  0
   62.3204  103.2039  115.5620 C   0  0  0  0  0  0  0  0  0  0  0  0
   63.2787  102.8230  116.5643 O   0  0  0  0  0  0  0  0  0  0  0  0
   60.9014  103.1306  116.1296 C   0  0  0  0  0  0  0  0  0  0  0  0
   64.2310  104.7529  116.0119 H   0  0  0  0  0  0  0  0  0  0  0  0
   63.1609  103.3774  117.3515 H   0  0  0  0  0  0  0  0  0  0  0  0
   59.8300  102.6633  115.2287 N   0  0  0  0  0  0  0  0  0  0  0  0
   58.9936  103.3828  114.4201 C   0  0  0  0  0  0  0  0  0  0  0  0
   58.1089  102.6768  113.7691 N   0  0  0  0  0  0  0  0  0  0  0  0
   58.3580  101.3695  114.2494 C   0  0  0  0  0  0  0  0  0  0  0  0
   57.6657  100.1835  113.9153 C   0  0  0  0  0  0  0  0  0  0  0  0
   56.7186  100.0486  113.1514 O   0  0  0  0  0  0  0  0  0  0  0  0
   58.1821   99.0877  114.6261 N   0  0  0  0  0  0  0  0  0  0  0  0
   59.2372   99.1662  115.5087 C   0  0  0  0  0  0  0  0  0  0  0  0
   59.5452   97.9795  116.0798 N   0  0  0  0  0  0  0  0  0  0  0  0
   59.9019  100.2843  115.8265 N   0  0  0  0  0  0  0  0  0  0  0  0
   59.3959  101.3530  115.1458 C   0  0  0  0  0  0  0  0  0  0  0  0
   57.7636   98.2079  114.4848 H   0  0  0  0  0  0  0  0  0  0  0  0
   59.0441   97.1692  115.8320 H   0  0  0  0  0  0  0  0  0  0  0  0
   60.2706   97.9261  116.7433 H   0  0  0  0  0  0  0  0  0  0  0  0
   61.1318  106.7266  116.2689 C   0  0  0  0  0  0  0  0  0  0  0  0
   61.6783  107.4592  115.1558 O   0  0  0  0  0  0  0  0  0  0  0  0
   60.7553  108.4747  114.3028 P   0  0  0  0  0  0  0  0  0  0  0  0
   60.9241  108.2418  112.8590 O   0  0  0  0  0  0  0  0  0  0  0  0
   61.1835  109.8671  114.7300 O   0  0  0  0  0  0  0  0  0  0  0  0
   59.3111  108.1398  114.7959 O   0  0  0  0  0  0  0  0  0  0  0  0
   60.6613  110.5279  114.2489 H   0  0  0  0  0  0  0  0  0  0  0  0
   58.6726  108.7062  114.3351 H   0  0  0  0  0  0  0  0  0  0  0  0
 26 27  2  0  0  0
 26 28  1  0  0  0
 26 29  1  0  0  0
 26 25  1  0  0  0
 25 24  1  0  0  0
 24  1  1  0  0  0
  1  2  1  0  0  0
  1  3  1  0  0  0
  2  7  1  0  0  0
  3  4  1  0  0  0
  3  5  1  0  0  0
  5  6  1  0  0  0
  5  7  1  0  0  0
  7 10  1  0  0  0
 10 11  1  0  0  0
 10 20  1  0  0  0
 11 12  2  0  0  0
 12 13  1  0  0  0
 13 14  1  0  0  0
 13 20  2  0  0  0
 14 15  2  0  0  0
 14 16  1  0  0  0
 16 17  1  0  0  0
 17 18  1  0  0  0
 17 19  2  0  0  0
 19 20  1  0  0  0
 28 30  1  0  0  0
 29 31  1  0  0  0
  4  8  1  0  0  0
  6  9  1  0  0  0
 16 21  1  0  0  0
 18 22  1  0  0  0
 18 23  1  0  0  0
M  END
> <minimizedAffinity>
-10.13283

$$$$
1QK3_5GP_A_300


 31 33  0  0  0  0  0  0  0  0999 V2000
   62.5061  105.3236  116.2145 C   0  0  0  0  0  0  0  0  0  0  0  0
   62.1336  104.2599  117.1605 O   0  0  0  0  0  0  0  0  0  0  0  0
   63.0228  104.5599  115.0124 C   0  0  0  0  0  0  0  0  0  0  0  0
   63.8983  105.3251  114.2089 O   0  0  0  0  0  0  0  0  0  0  0  0
   63.8381  103.4519  115.6646 C   0  0  0  0  0  0  0  0  0  0  0  0
   65.1159  103.9413  116.1070 O   0  0  0  0  0  0  0  0  0  0  0  0
   62.9573  103.1056  116.8670 C   0  0  0  0  0  0  0  0  0  0  0  0
   64.6443  105.6335  114.7467 H   0  0  0  0  0  0  0  0  0  0  0  0
   64.9847  104.6941  116.7045 H   0  0  0  0  0  0  0  0  0  0  0  0
   62.0785  101.9258  116.7510 N   0  0  0  0  0  0  0  0  0  0  0  0
   60.7152  101.8423  116.8235 C   0  0  0  0  0  0  0  0  0  0  0  0
   60.2276  100.6348  116.7261 N   0  0  0  0  0  0  0  0  0  0  0  0
   61.3990   99.8459  116.6405 C   0  0  0  0  0  0  0  0  0  0  0  0
   61.4837   98.4377  116.5545 C   0  0  0  0  0  0  0  0  0  0  0  0
   60.5699   97.6232  116.5385 O   0  0  0  0  0  0  0  0  0  0  0  0
   62.8243   98.0199  116.5233 N   0  0  0  0  0  0  0  0  0  0  0  0
   63.9024   98.8775  116.5488 C   0  0  0  0  0  0  0  0  0  0  0  0
   65.0940   98.2383  116.5217 N   0  0  0  0  0  0  0  0  0  0  0  0
   63.8309  100.2124  116.6245 N   0  0  0  0  0  0  0  0  0  0  0  0
   62.5299  100.6214  116.6657 C   0  0  0  0  0  0  0  0  0  0  0  0
   63.0051   97.0531  116.4806 H   0  0  0  0  0  0  0  0  0  0  0  0
   65.1245   97.2559  116.4658 H   0  0  0  0  0  0  0  0  0  0  0  0
   65.9309   98.7555  116.5579 H   0  0  0  0  0  0  0  0  0  0  0  0
   61.2578  106.1883  116.0845 C   0  0  0  0  0  0  0  0  0  0  0  0
   61.5460  107.5439  115.6927 O   0  0  0  0  0  0  0  0  0  0  0  0
   60.9415  108.1539  114.3241 P   0  0  0  0  0  0  0  0  0  0  0  0
   61.4282  109.5263  114.1076 O   0  0  0  0  0  0  0  0  0  0  0  0
   59.4331  108.0803  114.4795 O   0  0  0  0  0  0  0  0  0  0  0  0
   61.4573  107.1596  113.2348 O   0  0  0  0  0  0  0  0  0  0  0  0
   59.0083  108.4351  113.6830 H   0  0  0  0  0  0  0  0  0  0  0  0
   61.1424  107.4438  112.3625 H   0  0  0  0  0  0  0  0  0  0  0  0
 26 27  2  0  0  0
 26 28  1  0  0  0
 26 29  1  0  0  0
 26 25  1  0  0  0
 25 24  1  0  0  0
 24  1  1  0  0  0
  1  2  1  0  0  0
  1  3  1  0  0  0
  2  7  1  0  0  0
  3  4  1  0  0  0
  3  5  1  0  0  0
  5  6  1  0  0  0
  5  7  1  0  0  0
  7 10  1  0  0  0
 10 11  1  0  0  0
 10 20  1  0  0  0
 11 12  2  0  0  0
 12 13  1  0  0  0
 13 14  1  0  0  0
 13 20  2  0  0  0
 14 15  2  0  0  0
 14 16  1  0  0  0
 16 17  1  0  0  0
 17 18  1  0  0  0
 17 19  2  0  0  0
 19 20  1  0  0  0
 28 30  1  0  0  0
 29 31  1  0  0  0
  4  8  1  0  0  0
  6  9  1  0  0  0
 16 21  1  0  0  0
 18 22  1  0  0  0
 18 23  1  0  0  0
M  END
> <minimizedAffinity>
-9.28740

$$$$
1QK3_5GP_A_300


 31 33  0  0  0  0  0  0  0  0999 V2000
   64.0078  104.4519  116.2427 C   0  0  0  0  0  0  0  0  0  0  0  0
   64.3213  103.0982  116.7267 O   0  0  0  0  0  0  0  0  0  0  0  0
   62.9129  104.2158  115.2226 C   0  0  0  0  0  0  0  0  0  0  0  0
   62.8133  105.2563  114.2711 O   0  0  0  0  0  0  0  0  0  0  0  0
   63.4117  102.9715  114.5013 C   0  0  0  0  0  0  0  0  0  0  0  0
   64.4451  103.2999  113.5566 O   0  0  0  0  0  0  0  0  0  0  0  0
   63.9938  102.1680  115.6662 C   0  0  0  0  0  0  0  0  0  0  0  0
   63.6648  105.3636  113.8191 H   0  0  0  0  0  0  0  0  0  0  0  0
   65.1630  103.7668  114.0120 H   0  0  0  0  0  0  0  0  0  0  0  0
   63.1609  101.0906  116.2348 N   0  0  0  0  0  0  0  0  0  0  0  0
   61.8622  101.1248  116.6629 C   0  0  0  0  0  0  0  0  0  0  0  0
   61.4139  100.0053  117.1637 N   0  0  0  0  0  0  0  0  0  0  0  0
   62.5579   99.1746  117.1093 C   0  0  0  0  0  0  0  0  0  0  0  0
   62.6743   97.8398  117.5592 C   0  0  0  0  0  0  0  0  0  0  0  0
   61.8178   97.1394  118.0833 O   0  0  0  0  0  0  0  0  0  0  0  0
   63.9809   97.3614  117.3680 N   0  0  0  0  0  0  0  0  0  0  0  0
   64.9971   98.0950  116.7956 C   0  0  0  0  0  0  0  0  0  0  0  0
   66.1693   97.4236  116.7302 N   0  0  0  0  0  0  0  0  0  0  0  0
   64.8938   99.3576  116.3619 N   0  0  0  0  0  0  0  0  0  0  0  0
   63.6284   99.8294  116.5558 C   0  0  0  0  0  0  0  0  0  0  0  0
   64.1836   96.4438  117.6615 H   0  0  0  0  0  0  0  0  0  0  0  0
   66.2237   96.4956  117.0546 H   0  0  0  0  0  0  0  0  0  0  0  0
   66.9680   97.8627  116.3582 H   0  0  0  0  0  0  0  0  0  0  0  0
   63.7112  105.2598  117.5006 C   0  0  0  0  0  0  0  0  0  0  0  0
   62.3090  105.3073  117.8257 O   0  0  0  0  0  0  0  0  0  0  0  0
   61.5043  106.7084  117.8076 P   0  0  0  0  0  0  0  0  0  0  0  0
   60.1551  106.5398  118.3722 O   0  0  0  0  0  0  0  0  0  0  0  0
   61.4854  107.1456  116.3539 O   0  0  0  0  0  0  0  0  0  0  0  0
   62.4025  107.6440  118.6787 O   0  0  0  0  0  0  0  0  0  0  0  0
   61.0119  107.9887  116.2760 H   0  0  0  0  0  0  0  0  0  0  0  0
   61.9984  108.5244  118.7298 H   0  0  0  0  0  0  0  0  0  0  0  0
 26 27  2  0  0  0
 26 28  1  0  0  0
 26 29  1  0  0  0
 26 25  1  0  0  0
 25 24  1  0  0  0
 24  1  1  0  0  0
  1  2  1  0  0  0
  1  3  1  0  0  0
  2  7  1  0  0  0
  3  4  1  0  0  0
  3  5  1  0  0  0
  5  6  1  0  0  0
  5  7  1  0  0  0
  7 10  1  0  0  0
 10 11  1  0  0  0
 10 20  1  0  0  0
 11 12  2  0  0  0
 12 13  1  0  0  0
 13 14  1  0  0  0
 13 20  2  0  0  0
 14 15  2  0  0  0
 14 16  1  0  0  0
 16 17  1  0  0  0
 17 18  1  0  0  0
 17 19  2  0  0  0
 19 20  1  0  0  0
 28 30  1  0  0  0
 29 31  1  0  0  0
  4  8  1  0  0  0
  6  9  1  0  0  0
 16 21  1  0  0  0
 18 22  1  0  0  0
 18 23  1  0  0  0
M  END
> <minimizedAffinity>
-8.09826

$$$$
1QK3_5GP_A_300


 31 33  0  0  0  0  0  0  0  0999 V2000
   61.3906  101.0637  116.4858 C   0  0  0  0  0  0  0  0  0  0  0  0
   61.2867  102.0107  115.3644 O   0  0  0  0  0  0  0  0  0  0  0  0
   61.7316  101.9513  117.6652 C   0  0  0  0  0  0  0  0  0  0  0  0
   62.3782  101.2535  118.7105 O   0  0  0  0  0  0  0  0  0  0  0  0
   62.7392  102.9169  117.0570 C   0  0  0  0  0  0  0  0  0  0  0  0
   64.0347  102.3046  116.9353 O   0  0  0  0  0  0  0  0  0  0  0  0
   62.1292  103.1475  115.6728 C   0  0  0  0  0  0  0  0  0  0  0  0
   63.1850  100.8364  118.3701 H   0  0  0  0  0  0  0  0  0  0  0  0
   63.9588  101.4873  116.4184 H   0  0  0  0  0  0  0  0  0  0  0  0
   61.3398  104.3781  115.4719 N   0  0  0  0  0  0  0  0  0  0  0  0
   60.0190  104.6201  115.7320 C   0  0  0  0  0  0  0  0  0  0  0  0
   59.5975  105.8105  115.3997 N   0  0  0  0  0  0  0  0  0  0  0  0
   60.7494  106.3808  114.8085 C   0  0  0  0  0  0  0  0  0  0  0  0
   60.8725  107.6622  114.2251 C   0  0  0  0  0  0  0  0  0  0  0  0
   60.0155  108.5292  114.1128 O   0  0  0  0  0  0  0  0  0  0  0  0
   62.1651  107.8534  113.7100 N   0  0  0  0  0  0  0  0  0  0  0  0
   63.1756  106.9201  113.7903 C   0  0  0  0  0  0  0  0  0  0  0  0
   64.3274  107.3288  113.2113 N   0  0  0  0  0  0  0  0  0  0  0  0
   63.0689  105.7065  114.3459 N   0  0  0  0  0  0  0  0  0  0  0  0
   61.8112  105.5131  114.8381 C   0  0  0  0  0  0  0  0  0  0  0  0
   62.3617  108.7084  113.2632 H   0  0  0  0  0  0  0  0  0  0  0  0
   64.3848  108.2253  112.8083 H   0  0  0  0  0  0  0  0  0  0  0  0
   65.1085  106.7299  113.1927 H   0  0  0  0  0  0  0  0  0  0  0  0
   60.0758  100.2927  116.4718 C   0  0  0  0  0  0  0  0  0  0  0  0
   59.8655   99.5538  115.2536 O   0  0  0  0  0  0  0  0  0  0  0  0
   58.7052   99.9863  114.2156 P   0  0  0  0  0  0  0  0  0  0  0  0
   59.1418   99.7654  112.8271 O   0  0  0  0  0  0  0  0  0  0  0  0
   58.4148  101.4454  114.5179 O   0  0  0  0  0  0  0  0  0  0  0  0
   57.5087   99.0657  114.6180 O   0  0  0  0  0  0  0  0  0  0  0  0
   57.7200  101.7669  113.9223 H   0  0  0  0  0  0  0  0  0  0  0  0
   56.7499   99.2519  114.0432 H   0  0  0  0  0  0  0  0  0  0  0  0
 26 27  2  0  0  0
 26 28  1  0  0  0
 26 29  1  0  0  0
 26 25  1  0  0  0
 25 24  1  0  0  0
 24  1  1  0  0  0
  1  2  1  0  0  0
  1  3  1  0  0  0
  2  7  1  0  0  0
  3  4  1  0  0  0
  3  5  1  0  0  0
  5  6  1  0  0  0
  5  7  1  0  0  0
  7 10  1  0  0  0
 10 11  1  0  0  0
 10 20  1  0  0  0
 11 12  2  0  0  0
 12 13  1  0  0  0
 13 14  1  0  0  0
 13 20  2  0  0  0
 14 15  2  0  0  0
 14 16  1  0  0  0
 16 17  1  0  0  0
 17 18  1  0  0  0
 17 19  2  0  0  0
 19 20  1  0  0  0
 28 30  1  0  0  0
 29 31  1  0  0  0
  4  8  1  0  0  0
  6  9  1  0  0  0
 16 21  1  0  0  0
 18 22  1  0  0  0
 18 23  1  0  0  0
M  END
> <minimizedAffinity>
-7.87966

$$$$
1QK3_5GP_A_300


 31 33  0  0  0  0  0  0  0  0999 V2000
   62.1754  104.5986  115.7306 C   0  0  0  0  0  0  0  0  0  0  0  0
   61.8490  103.6862  116.8379 O   0  0  0  0  0  0  0  0  0  0  0  0
   63.0806  103.7671  114.8449 C   0  0  0  0  0  0  0  0  0  0  0  0
   63.9210  104.5532  114.0242 O   0  0  0  0  0  0  0  0  0  0  0  0
   63.9589  103.0557  115.8647 C   0  0  0  0  0  0  0  0  0  0  0  0
   64.9833  103.9316  116.3664 O   0  0  0  0  0  0  0  0  0  0  0  0
   62.9417  102.7443  116.9646 C   0  0  0  0  0  0  0  0  0  0  0  0
   64.4562  105.1419  114.5792 H   0  0  0  0  0  0  0  0  0  0  0  0
   64.5740  104.7300  116.7351 H   0  0  0  0  0  0  0  0  0  0  0  0
   62.3771  101.3814  117.0052 N   0  0  0  0  0  0  0  0  0  0  0  0
   62.8786  100.2455  117.5787 C   0  0  0  0  0  0  0  0  0  0  0  0
   62.1577   99.1709  117.4033 N   0  0  0  0  0  0  0  0  0  0  0  0
   61.1092   99.6460  116.5806 C   0  0  0  0  0  0  0  0  0  0  0  0
   60.0377   98.9019  116.0367 C   0  0  0  0  0  0  0  0  0  0  0  0
   59.8030   97.7072  116.1645 O   0  0  0  0  0  0  0  0  0  0  0  0
   59.2183   99.7179  115.2395 N   0  0  0  0  0  0  0  0  0  0  0  0
   59.4267  101.0654  115.0418 C   0  0  0  0  0  0  0  0  0  0  0  0
   58.5109  101.6333  114.2246 N   0  0  0  0  0  0  0  0  0  0  0  0
   60.4356  101.7787  115.5577 N   0  0  0  0  0  0  0  0  0  0  0  0
   61.2400  100.9870  116.3242 C   0  0  0  0  0  0  0  0  0  0  0  0
   58.4460   99.3005  114.7938 H   0  0  0  0  0  0  0  0  0  0  0  0
   57.7766  101.0909  113.8559 H   0  0  0  0  0  0  0  0  0  0  0  0
   58.5785  102.5890  113.9983 H   0  0  0  0  0  0  0  0  0  0  0  0
   60.8268  105.0742  115.2032 C   0  0  0  0  0  0  0  0  0  0  0  0
   60.9286  105.8099  113.9693 O   0  0  0  0  0  0  0  0  0  0  0  0
   61.4803  107.3286  113.9568 P   0  0  0  0  0  0  0  0  0  0  0  0
   60.6035  108.1931  113.1499 O   0  0  0  0  0  0  0  0  0  0  0  0
   62.8924  107.2418  113.4062 O   0  0  0  0  0  0  0  0  0  0  0  0
   61.4751  107.7198  115.4694 O   0  0  0  0  0  0  0  0  0  0  0  0
   63.2817  108.1296  113.3734 H   0  0  0  0  0  0  0  0  0  0  0  0
   61.7953  108.6300  115.5691 H   0  0  0  0  0  0  0  0  0  0  0  0
 26 27  2  0  0  0
 26 28  1  0  0  0
 26 29  1  0  0  0
 26 25  1  0  0  0
 25 24  1  0  0  0
 24  1  1  0  0  0
  1  2  1  0  0  0
  1  3  1  0  0  0
  2  7  1  0  0  0
  3  4  1  0  0  0
  3  5  1  0  0  0
  5  6  1  0  0  0
  5  7  1  0  0  0
  7 10  1  0  0  0
 10 11  1  0  0  0
 10 20  1  0  0  0
 11 12  2  0  0  0
 12 13  1  0  0  0
 13 14  1  0  0  0
 13 20  2  0  0  0
 14 15  2  0  0  0
 14 16  1  0  0  0
 16 17  1  0  0  0
 17 18  1  0  0  0
 17 19  2  0  0  0
 19 20  1  0  0  0
 28 30  1  0  0  0
 29 31  1  0  0  0
  4  8  1  0  0  0
  6  9  1  0  0  0
 16 21  1  0  0  0
 18 22  1  0  0  0
 18 23  1  0  0  0
M  END
> <minimizedAffinity>
-7.85436

$$$$
1QK3_5GP_A_300


 31 33  0  0  0  0  0  0  0  0999 V2000
   61.7553  104.7775  114.9295 C   0  0  0  0  0  0  0  0  0  0  0  0
   60.4250  105.2292  115.3671 O   0  0  0  0  0  0  0  0  0  0  0  0
   62.5914  106.0396  114.9865 C   0  0  0  0  0  0  0  0  0  0  0  0
   63.7250  105.9874  114.1438 O   0  0  0  0  0  0  0  0  0  0  0  0
   61.6368  107.0807  114.4188 C   0  0  0  0  0  0  0  0  0  0  0  0
   61.5704  106.9950  112.9848 O   0  0  0  0  0  0  0  0  0  0  0  0
   60.3108  106.6349  115.0388 C   0  0  0  0  0  0  0  0  0  0  0  0
   63.4418  105.8228  113.2307 H   0  0  0  0  0  0  0  0  0  0  0  0
   61.3198  106.0944  112.7259 H   0  0  0  0  0  0  0  0  0  0  0  0
   59.8431  107.3552  116.2389 N   0  0  0  0  0  0  0  0  0  0  0  0
   60.5647  107.9782  117.2197 C   0  0  0  0  0  0  0  0  0  0  0  0
   59.8555  108.4942  118.1871 N   0  0  0  0  0  0  0  0  0  0  0  0
   58.5404  108.1160  117.8276 C   0  0  0  0  0  0  0  0  0  0  0  0
   57.3464  108.3722  118.5391 C   0  0  0  0  0  0  0  0  0  0  0  0
   57.2097  108.9659  119.6010 O   0  0  0  0  0  0  0  0  0  0  0  0
   56.2426  107.8049  117.8814 N   0  0  0  0  0  0  0  0  0  0  0  0
   56.3220  107.1153  116.6912 C   0  0  0  0  0  0  0  0  0  0  0  0
   55.1261  106.6532  116.2608 N   0  0  0  0  0  0  0  0  0  0  0  0
   57.4479  106.8731  116.0082 N   0  0  0  0  0  0  0  0  0  0  0  0
   58.5239  107.4136  116.6497 C   0  0  0  0  0  0  0  0  0  0  0  0
   55.3560  107.9065  118.2971 H   0  0  0  0  0  0  0  0  0  0  0  0
   54.3101  106.8426  116.7781 H   0  0  0  0  0  0  0  0  0  0  0  0
   55.0715  106.1275  115.4303 H   0  0  0  0  0  0  0  0  0  0  0  0
   62.0910  103.6034  115.8415 C   0  0  0  0  0  0  0  0  0  0  0  0
   62.7557  102.5254  115.1557 O   0  0  0  0  0  0  0  0  0  0  0  0
   64.3585  102.5407  114.9515 P   0  0  0  0  0  0  0  0  0  0  0  0
   64.9174  101.1902  115.1277 O   0  0  0  0  0  0  0  0  0  0  0  0
   64.8869  103.5355  115.9693 O   0  0  0  0  0  0  0  0  0  0  0  0
   64.5244  103.0687  113.4904 O   0  0  0  0  0  0  0  0  0  0  0  0
   65.8526  103.5905  115.8965 H   0  0  0  0  0  0  0  0  0  0  0  0
   65.4675  103.1149  113.2685 H   0  0  0  0  0  0  0  0  0  0  0  0
 26 27  2  0  0  0
 26 28  1  0  0  0
 26 29  1  0  0  0
 26 25  1  0  0  0
 25 24  1  0  0  0
 24  1  1  0  0  0
  1  2  1  0  0  0
  1  3  1  0  0  0
  2  7  1  0  0  0
  3  4  1  0  0  0
  3  5  1  0  0  0
  5  6  1  0  0  0
  5  7  1  0  0  0
  7 10  1  0  0  0
 10 11  1  0  0  0
 10 20  1  0  0  0
 11 12  2  0  0  0
 12 13  1  0  0  0
 13 14  1  0  0  0
 13 20  2  0  0  0
 14 15  2  0  0  0
 14 16  1  0  0  0
 16 17  1  0  0  0
 17 18  1  0  0  0
 17 19  2  0  0  0
 19 20  1  0  0  0
 28 30  1  0  0  0
 29 31  1  0  0  0
  4  8  1  0  0  0
  6  9  1  0  0  0
 16 21  1  0  0  0
 18 22  1  0  0  0
 18 23  1  0  0  0
M  END
> <minimizedAffinity>
-7.82105

$$$$
1QK3_5GP_A_300


 31 33  0  0  0  0  0  0  0  0999 V2000
   62.0290  101.4204  115.9484 C   0  0  0  0  0  0  0  0  0  0  0  0
   62.0109  102.5182  114.9688 O   0  0  0  0  0  0  0  0  0  0  0  0
   62.0210  102.1391  117.2821 C   0  0  0  0  0  0  0  0  0  0  0  0
   62.5480  101.3547  118.3332 O   0  0  0  0  0  0  0  0  0  0  0  0
   62.9859  103.2893  117.0306 C   0  0  0  0  0  0  0  0  0  0  0  0
   64.3515  102.8431  117.0953 O   0  0  0  0  0  0  0  0  0  0  0  0
   62.6206  103.6729  115.5950 C   0  0  0  0  0  0  0  0  0  0  0  0
   63.4528  101.0839  118.1123 H   0  0  0  0  0  0  0  0  0  0  0  0
   64.4840  102.1154  116.4678 H   0  0  0  0  0  0  0  0  0  0  0  0
   61.7251  104.8304  115.4055 N   0  0  0  0  0  0  0  0  0  0  0  0
   60.4285  105.0056  115.8044 C   0  0  0  0  0  0  0  0  0  0  0  0
   59.8853  106.1369  115.4434 N   0  0  0  0  0  0  0  0  0  0  0  0
   60.9168  106.7333  114.6805 C   0  0  0  0  0  0  0  0  0  0  0  0
   60.8777  107.9711  113.9994 C   0  0  0  0  0  0  0  0  0  0  0  0
   59.9520  108.7692  113.9307 O   0  0  0  0  0  0  0  0  0  0  0  0
   62.0852  108.2053  113.3212 N   0  0  0  0  0  0  0  0  0  0  0  0
   63.1640  107.3486  113.3444 C   0  0  0  0  0  0  0  0  0  0  0  0
   64.2087  107.7852  112.6048 N   0  0  0  0  0  0  0  0  0  0  0  0
   63.2113  106.1773  113.9914 N   0  0  0  0  0  0  0  0  0  0  0  0
   62.0359  105.9413  114.6428 C   0  0  0  0  0  0  0  0  0  0  0  0
   62.1658  109.0342  112.7961 H   0  0  0  0  0  0  0  0  0  0  0  0
   64.1534  108.6497  112.1369 H   0  0  0  0  0  0  0  0  0  0  0  0
   65.0245  107.2386  112.5343 H   0  0  0  0  0  0  0  0  0  0  0  0
   60.8556  100.5284  115.5603 C   0  0  0  0  0  0  0  0  0  0  0  0
   61.1115   99.1283  115.7802 O   0  0  0  0  0  0  0  0  0  0  0  0
   60.4501   98.3554  117.0357 P   0  0  0  0  0  0  0  0  0  0  0  0
   59.9538   99.3165  118.0344 O   0  0  0  0  0  0  0  0  0  0  0  0
   61.5441   97.4531  117.5776 O   0  0  0  0  0  0  0  0  0  0  0  0
   59.2976   97.5313  116.3771 O   0  0  0  0  0  0  0  0  0  0  0  0
   61.2064   96.9575  118.3399 H   0  0  0  0  0  0  0  0  0  0  0  0
   58.8318   97.0240  117.0601 H   0  0  0  0  0  0  0  0  0  0  0  0
 26 27  2  0  0  0
 26 28  1  0  0  0
 26 29  1  0  0  0
 26 25  1  0  0  0
 25 24  1  0  0  0
 24  1  1  0  0  0
  1  2  1  0  0  0
  1  3  1  0  0  0
  2  7  1  0  0  0
  3  4  1  0  0  0
  3  5  1  0  0  0
  5  6  1  0  0  0
  5  7  1  0  0  0
  7 10  1  0  0  0
 10 11  1  0  0  0
 10 20  1  0  0  0
 11 12  2  0  0  0
 12 13  1  0  0  0
 13 14  1  0  0  0
 13 20  2  0  0  0
 14 15  2  0  0  0
 14 16  1  0  0  0
 16 17  1  0  0  0
 17 18  1  0  0  0
 17 19  2  0  0  0
 19 20  1  0  0  0
 28 30  1  0  0  0
 29 31  1  0  0  0
  4  8  1  0  0  0
  6  9  1  0  0  0
 16 21  1  0  0  0
 18 22  1  0  0  0
 18 23  1  0  0  0
M  END
> <minimizedAffinity>
-7.78724

$$$$
1QK3_5GP_A_300


 31 33  0  0  0  0  0  0  0  0999 V2000
   62.5232   99.9637  117.7450 C   0  0  0  0  0  0  0  0  0  0  0  0
   62.5388  101.4341  117.6913 O   0  0  0  0  0  0  0  0  0  0  0  0
   62.2910   99.5616  116.3029 C   0  0  0  0  0  0  0  0  0  0  0  0
   61.7302   98.2705  116.1748 O   0  0  0  0  0  0  0  0  0  0  0  0
   61.2431  100.5709  115.8550 C   0  0  0  0  0  0  0  0  0  0  0  0
   59.9370  100.2093  116.3361 O   0  0  0  0  0  0  0  0  0  0  0  0
   61.7348  101.8386  116.5568 C   0  0  0  0  0  0  0  0  0  0  0  0
   60.8940   98.2312  116.6647 H   0  0  0  0  0  0  0  0  0  0  0  0
   59.9621  100.1174  117.3014 H   0  0  0  0  0  0  0  0  0  0  0  0
   62.5141  102.8026  115.7561 N   0  0  0  0  0  0  0  0  0  0  0  0
   63.6481  102.6080  115.0165 C   0  0  0  0  0  0  0  0  0  0  0  0
   64.1320  103.6807  114.4506 N   0  0  0  0  0  0  0  0  0  0  0  0
   63.2548  104.6870  114.9193 C   0  0  0  0  0  0  0  0  0  0  0  0
   63.3182  106.0743  114.6568 C   0  0  0  0  0  0  0  0  0  0  0  0
   64.1377  106.6806  113.9788 O   0  0  0  0  0  0  0  0  0  0  0  0
   62.2915  106.7564  115.3301 N   0  0  0  0  0  0  0  0  0  0  0  0
   61.3419  106.1426  116.1175 C   0  0  0  0  0  0  0  0  0  0  0  0
   60.4643  107.0104  116.6704 N   0  0  0  0  0  0  0  0  0  0  0  0
   61.2715  104.8289  116.3667 N   0  0  0  0  0  0  0  0  0  0  0  0
   62.2739  104.1641  115.7227 C   0  0  0  0  0  0  0  0  0  0  0  0
   62.2476  107.7352  115.2334 H   0  0  0  0  0  0  0  0  0  0  0  0
   60.5336  107.9727  116.4740 H   0  0  0  0  0  0  0  0  0  0  0  0
   59.7562  106.6800  117.2692 H   0  0  0  0  0  0  0  0  0  0  0  0
   63.8257   99.5822  118.4385 C   0  0  0  0  0  0  0  0  0  0  0  0
   64.8227   99.0746  117.5316 O   0  0  0  0  0  0  0  0  0  0  0  0
   65.3375   97.5470  117.6415 P   0  0  0  0  0  0  0  0  0  0  0  0
   65.9408   97.2958  118.9606 O   0  0  0  0  0  0  0  0  0  0  0  0
   66.3210   97.3680  116.4989 O   0  0  0  0  0  0  0  0  0  0  0  0
   64.0337   96.7166  117.4143 O   0  0  0  0  0  0  0  0  0  0  0  0
   66.6688   96.4626  116.5106 H   0  0  0  0  0  0  0  0  0  0  0  0
   64.2406   95.7702  117.4621 H   0  0  0  0  0  0  0  0  0  0  0  0
 26 27  2  0  0  0
 26 28  1  0  0  0
 26 29  1  0  0  0
 26 25  1  0  0  0
 25 24  1  0  0  0
 24  1  1  0  0  0
  1  2  1  0  0  0
  1  3  1  0  0  0
  2  7  1  0  0  0
  3  4  1  0  0  0
  3  5  1  0  0  0
  5  6  1  0  0  0
  5  7  1  0  0  0
  7 10  1  0  0  0
 10 11  1  0  0  0
 10 20  1  0  0  0
 11 12  2  0  0  0
 12 13  1  0  0  0
 13 14  1  0  0  0
 13 20  2  0  0  0
 14 15  2  0  0  0
 14 16  1  0  0  0
 16 17  1  0  0  0
 17 18  1  0  0  0
 17 19  2  0  0  0
 19 20  1  0  0  0
 28 30  1  0  0  0
 29 31  1  0  0  0
  4  8  1  0  0  0
  6  9  1  0  0  0
 16 21  1  0  0  0
 18 22  1  0  0  0
 18 23  1  0  0  0
M  END
> <minimizedAffinity>
-7.75455

$$$$
1QK3_5GP_A_300


 31 33  0  0  0  0  0  0  0  0999 V2000
   61.4716  105.1987  115.8912 C   0  0  0  0  0  0  0  0  0  0  0  0
   61.6128  103.8908  115.2320 O   0  0  0  0  0  0  0  0  0  0  0  0
   61.9230  104.9270  117.3117 C   0  0  0  0  0  0  0  0  0  0  0  0
   61.4018  105.8549  118.2418 O   0  0  0  0  0  0  0  0  0  0  0  0
   61.2851  103.5744  117.5959 C   0  0  0  0  0  0  0  0  0  0  0  0
   59.8854  103.7146  117.8948 O   0  0  0  0  0  0  0  0  0  0  0  0
   61.4723  102.8707  116.2501 C   0  0  0  0  0  0  0  0  0  0  0  0
   60.4328  105.8465  118.1985 H   0  0  0  0  0  0  0  0  0  0  0  0
   59.4438  104.1772  117.1655 H   0  0  0  0  0  0  0  0  0  0  0  0
   62.6026  101.9303  116.1239 N   0  0  0  0  0  0  0  0  0  0  0  0
   63.7698  102.0576  115.4223 C   0  0  0  0  0  0  0  0  0  0  0  0
   64.5625  101.0211  115.4720 N   0  0  0  0  0  0  0  0  0  0  0  0
   63.8053  100.1027  116.2369 C   0  0  0  0  0  0  0  0  0  0  0  0
   64.1548   98.7779  116.5839 C   0  0  0  0  0  0  0  0  0  0  0  0
   65.1725   98.1621  116.2944 O   0  0  0  0  0  0  0  0  0  0  0  0
   63.1269   98.1682  117.3217 N   0  0  0  0  0  0  0  0  0  0  0  0
   61.9517   98.7948  117.6746 C   0  0  0  0  0  0  0  0  0  0  0  0
   61.1111   97.9990  118.3741 N   0  0  0  0  0  0  0  0  0  0  0  0
   61.6153  100.0508  117.3549 N   0  0  0  0  0  0  0  0  0  0  0  0
   62.6072  100.6429  116.6288 C   0  0  0  0  0  0  0  0  0  0  0  0
   63.2542   97.2338  117.6046 H   0  0  0  0  0  0  0  0  0  0  0  0
   61.3779   97.0784  118.5989 H   0  0  0  0  0  0  0  0  0  0  0  0
   60.2325   98.3403  118.6583 H   0  0  0  0  0  0  0  0  0  0  0  0
   62.2603  106.1664  115.0167 C   0  0  0  0  0  0  0  0  0  0  0  0
   61.4205  107.0163  114.2126 O   0  0  0  0  0  0  0  0  0  0  0  0
   60.6922  108.3062  114.8581 P   0  0  0  0  0  0  0  0  0  0  0  0
   59.2358  108.2364  114.6545 O   0  0  0  0  0  0  0  0  0  0  0  0
   61.3256  109.5091  114.1824 O   0  0  0  0  0  0  0  0  0  0  0  0
   61.0883  108.2185  116.3669 O   0  0  0  0  0  0  0  0  0  0  0  0
   60.9273  110.3223  114.5302 H   0  0  0  0  0  0  0  0  0  0  0  0
   60.6930  108.9619  116.8487 H   0  0  0  0  0  0  0  0  0  0  0  0
 26 27  2  0  0  0
 26 28  1  0  0  0
 26 29  1  0  0  0
 26 25  1  0  0  0
 25 24  1  0  0  0
 24  1  1  0  0  0
  1  2  1  0  0  0
  1  3  1  0  0  0
  2  7  1  0  0  0
  3  4  1  0  0  0
  3  5  1  0  0  0
  5  6  1  0  0  0
  5  7  1  0  0  0
  7 10  1  0  0  0
 10 11  1  0  0  0
 10 20  1  0  0  0
 11 12  2  0  0  0
 12 13  1  0  0  0
 13 14  1  0  0  0
 13 20  2  0  0  0
 14 15  2  0  0  0
 14 16  1  0  0  0
 16 17  1  0  0  0
 17 18  1  0  0  0
 17 19  2  0  0  0
 19 20  1  0  0  0
 28 30  1  0  0  0
 29 31  1  0  0  0
  4  8  1  0  0  0
  6  9  1  0  0  0
 16 21  1  0  0  0
 18 22  1  0  0  0
 18 23  1  0  0  0
M  END
> <minimizedAffinity>
-7.61276

$$$$
1QK3_5GP_A_300


 31 33  0  0  0  0  0  0  0  0999 V2000
   59.3354  107.6340  118.1202 C   0  0  0  0  0  0  0  0  0  0  0  0
   59.8144  106.4217  117.4375 O   0  0  0  0  0  0  0  0  0  0  0  0
   60.3373  107.8259  119.2403 C   0  0  0  0  0  0  0  0  0  0  0  0
   59.8217  108.5839  120.3161 O   0  0  0  0  0  0  0  0  0  0  0  0
   60.5433  106.4000  119.7319 C   0  0  0  0  0  0  0  0  0  0  0  0
   59.4496  105.9760  120.5639 O   0  0  0  0  0  0  0  0  0  0  0  0
   60.5352  105.6279  118.4109 C   0  0  0  0  0  0  0  0  0  0  0  0
   59.0231  108.1544  120.6607 H   0  0  0  0  0  0  0  0  0  0  0  0
   58.6162  106.0746  120.0774 H   0  0  0  0  0  0  0  0  0  0  0  0
   61.8401  105.2553  117.8309 N   0  0  0  0  0  0  0  0  0  0  0  0
   63.0184  105.9497  117.8145 C   0  0  0  0  0  0  0  0  0  0  0  0
   63.9970  105.3663  117.1766 N   0  0  0  0  0  0  0  0  0  0  0  0
   63.3734  104.1989  116.6765 C   0  0  0  0  0  0  0  0  0  0  0  0
   63.9506  103.1944  115.8669 C   0  0  0  0  0  0  0  0  0  0  0  0
   65.0952  103.1324  115.4371 O   0  0  0  0  0  0  0  0  0  0  0  0
   63.0029  102.2099  115.5424 N   0  0  0  0  0  0  0  0  0  0  0  0
   61.6965  102.2197  115.9803 C   0  0  0  0  0  0  0  0  0  0  0  0
   60.9729  101.1715  115.5257 N   0  0  0  0  0  0  0  0  0  0  0  0
   61.1435  103.1642  116.7518 N   0  0  0  0  0  0  0  0  0  0  0  0
   62.0586  104.1280  117.0603 C   0  0  0  0  0  0  0  0  0  0  0  0
   63.2902  101.4657  114.9655 H   0  0  0  0  0  0  0  0  0  0  0  0
   61.3989  100.4879  114.9596 H   0  0  0  0  0  0  0  0  0  0  0  0
   60.0202  101.0920  115.7609 H   0  0  0  0  0  0  0  0  0  0  0  0
   59.2167  108.6829  117.0207 C   0  0  0  0  0  0  0  0  0  0  0  0
   59.3659  108.1353  115.6971 O   0  0  0  0  0  0  0  0  0  0  0  0
   60.6412  108.5212  114.7830 P   0  0  0  0  0  0  0  0  0  0  0  0
   60.2765  108.5227  113.3567 O   0  0  0  0  0  0  0  0  0  0  0  0
   61.7060  107.4925  115.1187 O   0  0  0  0  0  0  0  0  0  0  0  0
   61.0306  109.9430  115.3004 O   0  0  0  0  0  0  0  0  0  0  0  0
   62.5042  107.6715  114.5974 H   0  0  0  0  0  0  0  0  0  0  0  0
   61.7992  110.2678  114.8058 H   0  0  0  0  0  0  0  0  0  0  0  0
 26 27  2  0  0  0
 26 28  1  0  0  0
 26 29  1  0  0  0
 26 25  1  0  0  0
 25 24  1  0  0  0
 24  1  1  0  0  0
  1  2  1  0  0  0
  1  3  1  0  0  0
  2  7  1  0  0  0
  3  4  1  0  0  0
  3  5  1  0  0  0
  5  6  1  0  0  0
  5  7  1  0  0  0
  7 10  1  0  0  0
 10 11  1  0  0  0
 10 20  1  0  0  0
 11 12  2  0  0  0
 12 13  1  0  0  0
 13 14  1  0  0  0
 13 20  2  0  0  0
 14 15  2  0  0  0
 14 16  1  0  0  0
 16 17  1  0  0  0
 17 18  1  0  0  0
 17 19  2  0  0  0
 19 20  1  0  0  0
 28 30  1  0  0  0
 29 31  1  0  0  0
  4  8  1  0  0  0
  6  9  1  0  0  0
 16 21  1  0  0  0
 18 22  1  0  0  0
 18 23  1  0  0  0
M  END
> <minimizedAffinity>
-7.60291

$$$$
