5J0D_6F9_A_1201


 36 39  0  0  0  0  0  0  0  0999 V2000
   10.6677   18.1999   25.9462 C   0  0  0  0  0  0  0  0  0  0  0  0
   10.9949   16.1108   24.8332 C   0  0  0  0  0  0  0  0  0  0  0  0
   11.4055   20.8345   23.4252 O   0  0  0  0  0  0  0  0  0  0  0  0
   10.8544   16.4273   23.4882 C   0  0  0  0  0  0  0  0  0  0  0  0
    9.9396   17.5459   23.0535 C   0  0  0  0  0  0  0  0  0  0  0  0
   11.5686   15.6923   22.5522 C   0  0  0  0  0  0  0  0  0  0  0  0
   12.4164   14.6498   22.9335 C   0  0  0  0  0  0  0  0  0  0  0  0
   12.5448   14.3523   24.2969 C   0  0  0  0  0  0  0  0  0  0  0  0
   11.8333   15.0804   25.2631 C   0  0  0  0  0  0  0  0  0  0  0  0
   11.0809   19.7630   22.9178 C   0  0  0  0  0  0  0  0  0  0  0  0
   10.3542   18.8505   23.5921 N   0  0  0  0  0  0  0  0  0  0  0  0
   10.2810   16.8207   25.7757 O   0  0  0  0  0  0  0  0  0  0  0  0
    9.9304   19.0962   24.9775 C   0  0  0  0  0  0  0  0  0  0  0  0
   13.1102   13.8410   21.8984 C   0  0  0  0  0  0  0  0  0  0  0  0
   12.4527   13.4150   20.7382 C   0  0  0  0  0  0  0  0  0  0  0  0
   13.1169   12.6204   19.8110 C   0  0  0  0  0  0  0  0  0  0  0  0
   14.4385   12.2471   20.0122 C   0  0  0  0  0  0  0  0  0  0  0  0
   15.0819   12.6777   21.1548 C   0  0  0  0  0  0  0  0  0  0  0  0
   14.4380   13.4689   22.0899 C   0  0  0  0  0  0  0  0  0  0  0  0
   16.3786   12.2455   21.2162 O   0  0  0  0  0  0  0  0  0  0  0  0
   16.8505   11.3205   20.2391 C   0  0  0  0  0  0  0  0  0  0  0  0
   12.3880   12.2708   18.7072 O   0  0  0  0  0  0  0  0  0  0  0  0
   10.9813   12.5034   18.6872 C   0  0  0  0  0  0  0  0  0  0  0  0
   12.4440   15.6525   27.5413 N   0  0  0  0  0  0  0  0  0  0  0  0
   11.9597   14.7197   26.7123 C   0  0  0  0  0  0  0  0  0  0  0  0
   11.7227   13.5795   27.0918 O   0  0  0  0  0  0  0  0  0  0  0  0
   12.4985   16.5841   27.2277 H   0  0  0  0  0  0  0  0  0  0  0  0
   12.7411   16.0462   31.2494 N   0  0  0  0  0  0  0  0  0  0  0  0
   12.8961   15.3366   28.8992 C   0  0  0  0  0  0  0  0  0  0  0  0
   14.4162   15.3595   28.9973 C   0  0  0  0  0  0  0  0  0  0  0  0
   14.8820   15.1266   30.4333 C   0  0  0  0  0  0  0  0  0  0  0  0
   12.3607   16.3715   29.8741 C   0  0  0  0  0  0  0  0  0  0  0  0
   12.0982   16.9738   32.1956 C   0  0  0  0  0  0  0  0  0  0  0  0
   14.1959   16.0854   31.3881 C   0  0  0  0  0  0  0  0  0  0  0  0
   11.5383   19.4133   21.5143 C   0  0  0  0  0  0  0  0  0  0  0  0
   11.4944   20.5509   20.5429 C   0  0  0  0  0  0  0  0  0  0  0  0
 21 20  1  0  0  0
 20 18  1  0  0  0
 18 17  2  0  0  0
 18 19  1  0  0  0
 17 16  1  0  0  0
 23 22  1  0  0  0
 36 35  1  0  0  0
 19 14  2  0  0  0
 16 22  1  0  0  0
 16 15  2  0  0  0
 35 10  1  0  0  0
 14 15  1  0  0  0
 14  7  1  0  0  0
  6  7  2  0  0  0
  6  4  1  0  0  0
  7  8  1  0  0  0
 10  3  2  0  0  0
 10 11  1  0  0  0
  5  4  1  0  0  0
  5 11  1  0  0  0
  4  2  2  0  0  0
 11 13  1  0  0  0
  8  9  2  0  0  0
  2  9  1  0  0  0
  2 12  1  0  0  0
 13  1  1  0  0  0
  9 25  1  0  0  0
 12  1  1  0  0  0
 25 24  1  0  0  0
 25 26  2  0  0  0
 24 29  1  0  0  0
 29 32  1  0  0  0
 29 30  1  0  0  0
 32 28  1  0  0  0
 30 31  1  0  0  0
 28 33  1  0  0  0
 28 34  1  0  0  0
 31 34  1  0  0  0
 24 27  1  0  0  0
M  END
> <minimizedAffinity>
-8.43666

$$$$
5J0D_6F9_A_1201


 36 39  0  0  0  0  0  0  0  0999 V2000
   10.7116   18.2077   25.9721 C   0  0  0  0  0  0  0  0  0  0  0  0
   11.0050   16.1095   24.8669 C   0  0  0  0  0  0  0  0  0  0  0  0
   11.4335   20.8212   23.4246 O   0  0  0  0  0  0  0  0  0  0  0  0
   10.8472   16.4192   23.5222 C   0  0  0  0  0  0  0  0  0  0  0  0
    9.9352   17.5428   23.0945 C   0  0  0  0  0  0  0  0  0  0  0  0
   11.5413   15.6728   22.5802 C   0  0  0  0  0  0  0  0  0  0  0  0
   12.3861   14.6255   22.9552 C   0  0  0  0  0  0  0  0  0  0  0  0
   12.5323   14.3350   24.3183 C   0  0  0  0  0  0  0  0  0  0  0  0
   11.8413   15.0747   25.2906 C   0  0  0  0  0  0  0  0  0  0  0  0
   11.0926   19.7495   22.9286 C   0  0  0  0  0  0  0  0  0  0  0  0
   10.3685   18.8470   23.6190 N   0  0  0  0  0  0  0  0  0  0  0  0
   10.3111   16.8308   25.8156 O   0  0  0  0  0  0  0  0  0  0  0  0
    9.9674   19.1044   25.0091 C   0  0  0  0  0  0  0  0  0  0  0  0
   13.0578   13.8049   21.9148 C   0  0  0  0  0  0  0  0  0  0  0  0
   14.3976   13.4181   22.0379 C   0  0  0  0  0  0  0  0  0  0  0  0
   15.0099   12.6895   21.0247 C   0  0  0  0  0  0  0  0  0  0  0  0
   14.3053   12.3253   19.8858 C   0  0  0  0  0  0  0  0  0  0  0  0
   12.9826   12.7038   19.7757 C   0  0  0  0  0  0  0  0  0  0  0  0
   12.3552   13.4297   20.7730 C   0  0  0  0  0  0  0  0  0  0  0  0
   12.4118   12.2686   18.6108 O   0  0  0  0  0  0  0  0  0  0  0  0
   10.9920   12.1662   18.5279 C   0  0  0  0  0  0  0  0  0  0  0  0
   16.3162   12.3515   21.2509 O   0  0  0  0  0  0  0  0  0  0  0  0
   16.9643   11.4199   20.3875 C   0  0  0  0  0  0  0  0  0  0  0  0
   12.6173   15.5989   27.5296 N   0  0  0  0  0  0  0  0  0  0  0  0
   11.9862   14.7215   26.7399 C   0  0  0  0  0  0  0  0  0  0  0  0
   11.6281   13.6246   27.1510 O   0  0  0  0  0  0  0  0  0  0  0  0
   12.7717   16.5122   27.1960 H   0  0  0  0  0  0  0  0  0  0  0  0
   13.2864   16.0853   31.1777 N   0  0  0  0  0  0  0  0  0  0  0  0
   13.0866   15.2486   28.8732 C   0  0  0  0  0  0  0  0  0  0  0  0
   14.5722   14.9116   28.8716 C   0  0  0  0  0  0  0  0  0  0  0  0
   15.0805   14.6423   30.2867 C   0  0  0  0  0  0  0  0  0  0  0  0
   12.8874   16.4267   29.8116 C   0  0  0  0  0  0  0  0  0  0  0  0
   12.9555   17.1837   32.1015 C   0  0  0  0  0  0  0  0  0  0  0  0
   14.7157   15.7817   31.2198 C   0  0  0  0  0  0  0  0  0  0  0  0
   11.5263   19.3877   21.5206 C   0  0  0  0  0  0  0  0  0  0  0  0
   11.5569   20.5376   20.5632 C   0  0  0  0  0  0  0  0  0  0  0  0
 21 20  1  0  0  0
 20 18  1  0  0  0
 18 17  2  0  0  0
 18 19  1  0  0  0
 17 16  1  0  0  0
 23 22  1  0  0  0
 36 35  1  0  0  0
 19 14  2  0  0  0
 16 22  1  0  0  0
 16 15  2  0  0  0
 35 10  1  0  0  0
 14 15  1  0  0  0
 14  7  1  0  0  0
  6  7  2  0  0  0
  6  4  1  0  0  0
  7  8  1  0  0  0
 10  3  2  0  0  0
 10 11  1  0  0  0
  5  4  1  0  0  0
  5 11  1  0  0  0
  4  2  2  0  0  0
 11 13  1  0  0  0
  8  9  2  0  0  0
  2  9  1  0  0  0
  2 12  1  0  0  0
 13  1  1  0  0  0
  9 25  1  0  0  0
 12  1  1  0  0  0
 25 24  1  0  0  0
 25 26  2  0  0  0
 24 29  1  0  0  0
 29 32  1  0  0  0
 29 30  1  0  0  0
 32 28  1  0  0  0
 30 31  1  0  0  0
 28 33  1  0  0  0
 28 34  1  0  0  0
 31 34  1  0  0  0
 24 27  1  0  0  0
M  END
> <minimizedAffinity>
-8.37932

$$$$
5J0D_6F9_A_1201


 36 39  0  0  0  0  0  0  0  0999 V2000
   10.5403   17.9072   25.9009 C   0  0  0  0  0  0  0  0  0  0  0  0
   10.8965   15.8452   24.7469 C   0  0  0  0  0  0  0  0  0  0  0  0
   11.3867   20.6006   23.4780 O   0  0  0  0  0  0  0  0  0  0  0  0
   10.8079   16.1971   23.4063 C   0  0  0  0  0  0  0  0  0  0  0  0
    9.9164   17.3327   22.9672 C   0  0  0  0  0  0  0  0  0  0  0  0
   11.5521   15.4815   22.4787 C   0  0  0  0  0  0  0  0  0  0  0  0
   12.3790   14.4238   22.8640 C   0  0  0  0  0  0  0  0  0  0  0  0
   12.4549   14.0905   24.2230 C   0  0  0  0  0  0  0  0  0  0  0  0
   11.7123   14.7984   25.1808 C   0  0  0  0  0  0  0  0  0  0  0  0
   11.0749   19.5447   22.9314 C   0  0  0  0  0  0  0  0  0  0  0  0
   10.3183   18.6201   23.5544 N   0  0  0  0  0  0  0  0  0  0  0  0
   10.1522   16.5355   25.6805 O   0  0  0  0  0  0  0  0  0  0  0  0
    9.8448   18.8331   24.9292 C   0  0  0  0  0  0  0  0  0  0  0  0
   13.1061   13.6372   21.8346 C   0  0  0  0  0  0  0  0  0  0  0  0
   14.4654   13.3312   21.9705 C   0  0  0  0  0  0  0  0  0  0  0  0
   15.1275   12.6330   20.9672 C   0  0  0  0  0  0  0  0  0  0  0  0
   14.4546   12.2198   19.8259 C   0  0  0  0  0  0  0  0  0  0  0  0
   13.1128   12.5187   19.7033 C   0  0  0  0  0  0  0  0  0  0  0  0
   12.4358   13.2131   20.6905 C   0  0  0  0  0  0  0  0  0  0  0  0
   12.5777   12.0424   18.5375 O   0  0  0  0  0  0  0  0  0  0  0  0
   11.1711   12.1418   18.3261 C   0  0  0  0  0  0  0  0  0  0  0  0
   16.4498   12.3744   21.2055 O   0  0  0  0  0  0  0  0  0  0  0  0
   17.1447   11.4365   20.3866 C   0  0  0  0  0  0  0  0  0  0  0  0
   10.8556   13.5459   27.0749 N   0  0  0  0  0  0  0  0  0  0  0  0
   11.7826   14.3998   26.6238 C   0  0  0  0  0  0  0  0  0  0  0  0
   12.5984   14.9218   27.3737 O   0  0  0  0  0  0  0  0  0  0  0  0
   10.3056   13.0544   26.4228 H   0  0  0  0  0  0  0  0  0  0  0  0
   10.3902   11.5615   30.2115 N   0  0  0  0  0  0  0  0  0  0  0  0
   10.6299   13.3166   28.5048 C   0  0  0  0  0  0  0  0  0  0  0  0
    9.3178   13.9381   28.9661 C   0  0  0  0  0  0  0  0  0  0  0  0
    9.0372   13.6147   30.4324 C   0  0  0  0  0  0  0  0  0  0  0  0
   10.5496   11.8248   28.7807 C   0  0  0  0  0  0  0  0  0  0  0  0
   10.4575   10.1150   30.4806 C   0  0  0  0  0  0  0  0  0  0  0  0
    9.1254   12.1213   30.6848 C   0  0  0  0  0  0  0  0  0  0  0  0
   11.5822   19.2280   21.5372 C   0  0  0  0  0  0  0  0  0  0  0  0
   11.7048   20.4151   20.6341 C   0  0  0  0  0  0  0  0  0  0  0  0
 21 20  1  0  0  0
 20 18  1  0  0  0
 18 17  2  0  0  0
 18 19  1  0  0  0
 17 16  1  0  0  0
 23 22  1  0  0  0
 36 35  1  0  0  0
 19 14  2  0  0  0
 16 22  1  0  0  0
 16 15  2  0  0  0
 35 10  1  0  0  0
 14 15  1  0  0  0
 14  7  1  0  0  0
  6  7  2  0  0  0
  6  4  1  0  0  0
  7  8  1  0  0  0
 10  3  2  0  0  0
 10 11  1  0  0  0
  5  4  1  0  0  0
  5 11  1  0  0  0
  4  2  2  0  0  0
 11 13  1  0  0  0
  8  9  2  0  0  0
  2  9  1  0  0  0
  2 12  1  0  0  0
 13  1  1  0  0  0
  9 25  1  0  0  0
 12  1  1  0  0  0
 25 24  1  0  0  0
 25 26  2  0  0  0
 24 29  1  0  0  0
 29 32  1  0  0  0
 29 30  1  0  0  0
 32 28  1  0  0  0
 30 31  1  0  0  0
 28 33  1  0  0  0
 28 34  1  0  0  0
 31 34  1  0  0  0
 24 27  1  0  0  0
M  END
> <minimizedAffinity>
-8.33034

$$$$
5J0D_6F9_A_1201


 36 39  0  0  0  0  0  0  0  0999 V2000
   10.3283   11.7045   19.1820 C   0  0  0  0  0  0  0  0  0  0  0  0
   11.2855   13.6361   20.2129 C   0  0  0  0  0  0  0  0  0  0  0  0
    6.6452   12.2266   19.2406 O   0  0  0  0  0  0  0  0  0  0  0  0
   10.3020   14.6068   20.0735 C   0  0  0  0  0  0  0  0  0  0  0  0
    9.3661   14.5879   18.8900 C   0  0  0  0  0  0  0  0  0  0  0  0
   10.1997   15.5961   21.0416 C   0  0  0  0  0  0  0  0  0  0  0  0
   11.0596   15.6342   22.1417 C   0  0  0  0  0  0  0  0  0  0  0  0
   12.0410   14.6413   22.2625 C   0  0  0  0  0  0  0  0  0  0  0  0
   12.1654   13.6302   21.2971 C   0  0  0  0  0  0  0  0  0  0  0  0
    7.2795   13.2781   19.2978 C   0  0  0  0  0  0  0  0  0  0  0  0
    8.5449   13.3684   18.8440 N   0  0  0  0  0  0  0  0  0  0  0  0
   11.4115   12.6546   19.2524 O   0  0  0  0  0  0  0  0  0  0  0  0
    9.2275   12.1996   18.2718 C   0  0  0  0  0  0  0  0  0  0  0  0
   10.9641   16.7481   23.1201 C   0  0  0  0  0  0  0  0  0  0  0  0
   10.7195   16.5122   24.4781 C   0  0  0  0  0  0  0  0  0  0  0  0
   10.5898   17.5791   25.3598 C   0  0  0  0  0  0  0  0  0  0  0  0
   10.7109   18.8880   24.9143 C   0  0  0  0  0  0  0  0  0  0  0  0
   10.9598   19.1117   23.5754 C   0  0  0  0  0  0  0  0  0  0  0  0
   11.0918   18.0633   22.6817 C   0  0  0  0  0  0  0  0  0  0  0  0
   11.0658   20.4437   23.2810 O   0  0  0  0  0  0  0  0  0  0  0  0
   11.4146   20.8375   21.9557 C   0  0  0  0  0  0  0  0  0  0  0  0
   10.3653   17.2383   26.6657 O   0  0  0  0  0  0  0  0  0  0  0  0
   10.3501   15.8636   27.0443 C   0  0  0  0  0  0  0  0  0  0  0  0
   13.9381   12.2854   20.3278 N   0  0  0  0  0  0  0  0  0  0  0  0
   13.2461   12.6003   21.4296 C   0  0  0  0  0  0  0  0  0  0  0  0
   13.4099   12.0039   22.4869 O   0  0  0  0  0  0  0  0  0  0  0  0
   13.8676   12.8710   19.5395 H   0  0  0  0  0  0  0  0  0  0  0  0
   17.1385   10.3489   20.3114 N   0  0  0  0  0  0  0  0  0  0  0  0
   14.7969   11.1001   20.2530 C   0  0  0  0  0  0  0  0  0  0  0  0
   14.5935   10.3494   18.9432 C   0  0  0  0  0  0  0  0  0  0  0  0
   15.5583    9.1710   18.8246 C   0  0  0  0  0  0  0  0  0  0  0  0
   16.2565   11.5168   20.3177 C   0  0  0  0  0  0  0  0  0  0  0  0
   18.5381   10.7584   20.5184 C   0  0  0  0  0  0  0  0  0  0  0  0
   16.9900    9.6173   19.0545 C   0  0  0  0  0  0  0  0  0  0  0  0
    6.6618   14.5083   19.9353 C   0  0  0  0  0  0  0  0  0  0  0  0
    6.1345   14.2947   21.3195 C   0  0  0  0  0  0  0  0  0  0  0  0
 21 20  1  0  0  0
 20 18  1  0  0  0
 18 17  2  0  0  0
 18 19  1  0  0  0
 17 16  1  0  0  0
 23 22  1  0  0  0
 36 35  1  0  0  0
 19 14  2  0  0  0
 16 22  1  0  0  0
 16 15  2  0  0  0
 35 10  1  0  0  0
 14 15  1  0  0  0
 14  7  1  0  0  0
  6  7  2  0  0  0
  6  4  1  0  0  0
  7  8  1  0  0  0
 10  3  2  0  0  0
 10 11  1  0  0  0
  5  4  1  0  0  0
  5 11  1  0  0  0
  4  2  2  0  0  0
 11 13  1  0  0  0
  8  9  2  0  0  0
  2  9  1  0  0  0
  2 12  1  0  0  0
 13  1  1  0  0  0
  9 25  1  0  0  0
 12  1  1  0  0  0
 25 24  1  0  0  0
 25 26  2  0  0  0
 24 29  1  0  0  0
 29 32  1  0  0  0
 29 30  1  0  0  0
 32 28  1  0  0  0
 30 31  1  0  0  0
 28 33  1  0  0  0
 28 34  1  0  0  0
 31 34  1  0  0  0
 24 27  1  0  0  0
M  END
> <minimizedAffinity>
-8.29737

$$$$
5J0D_6F9_A_1201


 36 39  0  0  0  0  0  0  0  0999 V2000
   10.1765   11.4769   19.2159 C   0  0  0  0  0  0  0  0  0  0  0  0
   11.1748   13.4832   20.0455 C   0  0  0  0  0  0  0  0  0  0  0  0
    6.5009   12.0460   19.3015 O   0  0  0  0  0  0  0  0  0  0  0  0
   10.1983   14.4487   19.8377 C   0  0  0  0  0  0  0  0  0  0  0  0
    9.2371   14.3328   18.6803 C   0  0  0  0  0  0  0  0  0  0  0  0
   10.1266   15.5236   20.7129 C   0  0  0  0  0  0  0  0  0  0  0  0
   11.0102   15.6520   21.7871 C   0  0  0  0  0  0  0  0  0  0  0  0
   11.9840   14.6627   21.9784 C   0  0  0  0  0  0  0  0  0  0  0  0
   12.0776   13.5660   21.1074 C   0  0  0  0  0  0  0  0  0  0  0  0
    7.1467   13.0906   19.2491 C   0  0  0  0  0  0  0  0  0  0  0  0
    8.4030   13.1240   18.7632 N   0  0  0  0  0  0  0  0  0  0  0  0
   11.2704   12.4165   19.1767 O   0  0  0  0  0  0  0  0  0  0  0  0
    9.0615   11.8997   18.2868 C   0  0  0  0  0  0  0  0  0  0  0  0
   10.9467   16.8518   22.6609 C   0  0  0  0  0  0  0  0  0  0  0  0
   11.1349   18.1416   22.1501 C   0  0  0  0  0  0  0  0  0  0  0  0
   11.1152   19.2397   23.0022 C   0  0  0  0  0  0  0  0  0  0  0  0
   10.8990   19.0790   24.3637 C   0  0  0  0  0  0  0  0  0  0  0  0
   10.7067   17.8049   24.8581 C   0  0  0  0  0  0  0  0  0  0  0  0
   10.7230   16.6989   24.0264 C   0  0  0  0  0  0  0  0  0  0  0  0
   10.4947   17.7975   26.2098 O   0  0  0  0  0  0  0  0  0  0  0  0
   10.5335   16.5577   26.9131 C   0  0  0  0  0  0  0  0  0  0  0  0
   11.2959   20.4546   22.3994 O   0  0  0  0  0  0  0  0  0  0  0  0
   11.5022   20.5200   20.9900 C   0  0  0  0  0  0  0  0  0  0  0  0
   13.9137   12.2254   20.2579 N   0  0  0  0  0  0  0  0  0  0  0  0
   13.1506   12.5399   21.3118 C   0  0  0  0  0  0  0  0  0  0  0  0
   13.2471   11.9457   22.3786 O   0  0  0  0  0  0  0  0  0  0  0  0
   13.8928   12.8094   19.4657 H   0  0  0  0  0  0  0  0  0  0  0  0
   17.1265   10.3101   20.3057 N   0  0  0  0  0  0  0  0  0  0  0  0
   14.7792   11.0427   20.2413 C   0  0  0  0  0  0  0  0  0  0  0  0
   14.5591   10.2119   18.9835 C   0  0  0  0  0  0  0  0  0  0  0  0
   15.5298    9.0341   18.9210 C   0  0  0  0  0  0  0  0  0  0  0  0
   16.2367   11.4710   20.2555 C   0  0  0  0  0  0  0  0  0  0  0  0
   18.5265   10.7395   20.4634 C   0  0  0  0  0  0  0  0  0  0  0  0
   16.9621    9.5018   19.0987 C   0  0  0  0  0  0  0  0  0  0  0  0
    6.5552   14.3813   19.7835 C   0  0  0  0  0  0  0  0  0  0  0  0
    6.1832   14.3432   21.2326 C   0  0  0  0  0  0  0  0  0  0  0  0
 21 20  1  0  0  0
 20 18  1  0  0  0
 18 17  2  0  0  0
 18 19  1  0  0  0
 17 16  1  0  0  0
 23 22  1  0  0  0
 36 35  1  0  0  0
 19 14  2  0  0  0
 16 22  1  0  0  0
 16 15  2  0  0  0
 35 10  1  0  0  0
 14 15  1  0  0  0
 14  7  1  0  0  0
  6  7  2  0  0  0
  6  4  1  0  0  0
  7  8  1  0  0  0
 10  3  2  0  0  0
 10 11  1  0  0  0
  5  4  1  0  0  0
  5 11  1  0  0  0
  4  2  2  0  0  0
 11 13  1  0  0  0
  8  9  2  0  0  0
  2  9  1  0  0  0
  2 12  1  0  0  0
 13  1  1  0  0  0
  9 25  1  0  0  0
 12  1  1  0  0  0
 25 24  1  0  0  0
 25 26  2  0  0  0
 24 29  1  0  0  0
 29 32  1  0  0  0
 29 30  1  0  0  0
 32 28  1  0  0  0
 30 31  1  0  0  0
 28 33  1  0  0  0
 28 34  1  0  0  0
 31 34  1  0  0  0
 24 27  1  0  0  0
M  END
> <minimizedAffinity>
-8.26807

$$$$
5J0D_6F9_A_1201


 36 39  0  0  0  0  0  0  0  0999 V2000
   10.7222   17.8538   25.9599 C   0  0  0  0  0  0  0  0  0  0  0  0
   11.0574   15.7974   24.7899 C   0  0  0  0  0  0  0  0  0  0  0  0
   11.4022   20.5595   23.4986 O   0  0  0  0  0  0  0  0  0  0  0  0
   10.8973   16.1466   23.4552 C   0  0  0  0  0  0  0  0  0  0  0  0
    9.9658   17.2661   23.0602 C   0  0  0  0  0  0  0  0  0  0  0  0
   11.6076   15.4432   22.4922 C   0  0  0  0  0  0  0  0  0  0  0  0
   12.4706   14.4003   22.8367 C   0  0  0  0  0  0  0  0  0  0  0  0
   12.6186   14.0696   24.1903 C   0  0  0  0  0  0  0  0  0  0  0  0
   11.9115   14.7652   25.1833 C   0  0  0  0  0  0  0  0  0  0  0  0
   11.0825   19.4978   22.9678 C   0  0  0  0  0  0  0  0  0  0  0  0
   10.3734   18.5608   23.6271 N   0  0  0  0  0  0  0  0  0  0  0  0
   10.3477   16.4753   25.7587 O   0  0  0  0  0  0  0  0  0  0  0  0
    9.9640   18.7666   25.0233 C   0  0  0  0  0  0  0  0  0  0  0  0
   13.1601   13.6256   21.7730 C   0  0  0  0  0  0  0  0  0  0  0  0
   12.4990   13.2414   20.6003 C   0  0  0  0  0  0  0  0  0  0  0  0
   13.1592   12.4772   19.6450 C   0  0  0  0  0  0  0  0  0  0  0  0
   14.4802   12.0937   19.8305 C   0  0  0  0  0  0  0  0  0  0  0  0
   15.1271   12.4833   20.9857 C   0  0  0  0  0  0  0  0  0  0  0  0
   14.4873   13.2437   21.9488 C   0  0  0  0  0  0  0  0  0  0  0  0
   16.4228   12.0458   21.0296 O   0  0  0  0  0  0  0  0  0  0  0  0
   16.9658   11.3655   19.9002 C   0  0  0  0  0  0  0  0  0  0  0  0
   12.4271   12.1675   18.5315 O   0  0  0  0  0  0  0  0  0  0  0  0
   11.0027   12.1781   18.5974 C   0  0  0  0  0  0  0  0  0  0  0  0
   11.1173   13.5736   27.1428 N   0  0  0  0  0  0  0  0  0  0  0  0
   12.0591   14.3691   26.6211 C   0  0  0  0  0  0  0  0  0  0  0  0
   12.9549   14.8448   27.3080 O   0  0  0  0  0  0  0  0  0  0  0  0
   10.4950   13.1130   26.5347 H   0  0  0  0  0  0  0  0  0  0  0  0
   10.3387   11.7108   30.2918 N   0  0  0  0  0  0  0  0  0  0  0  0
   10.9794   13.3640   28.5868 C   0  0  0  0  0  0  0  0  0  0  0  0
   10.0131   14.3676   29.2033 C   0  0  0  0  0  0  0  0  0  0  0  0
    9.7956   14.0862   30.6889 C   0  0  0  0  0  0  0  0  0  0  0  0
   10.4262   11.9747   28.8549 C   0  0  0  0  0  0  0  0  0  0  0  0
    9.9382   10.3147   30.5365 C   0  0  0  0  0  0  0  0  0  0  0  0
    9.3969   12.6398   30.9141 C   0  0  0  0  0  0  0  0  0  0  0  0
   11.5265   19.1889   21.5505 C   0  0  0  0  0  0  0  0  0  0  0  0
   11.8239   20.3938   20.7141 C   0  0  0  0  0  0  0  0  0  0  0  0
 21 20  1  0  0  0
 20 18  1  0  0  0
 18 17  2  0  0  0
 18 19  1  0  0  0
 17 16  1  0  0  0
 23 22  1  0  0  0
 36 35  1  0  0  0
 19 14  2  0  0  0
 16 22  1  0  0  0
 16 15  2  0  0  0
 35 10  1  0  0  0
 14 15  1  0  0  0
 14  7  1  0  0  0
  6  7  2  0  0  0
  6  4  1  0  0  0
  7  8  1  0  0  0
 10  3  2  0  0  0
 10 11  1  0  0  0
  5  4  1  0  0  0
  5 11  1  0  0  0
  4  2  2  0  0  0
 11 13  1  0  0  0
  8  9  2  0  0  0
  2  9  1  0  0  0
  2 12  1  0  0  0
 13  1  1  0  0  0
  9 25  1  0  0  0
 12  1  1  0  0  0
 25 24  1  0  0  0
 25 26  2  0  0  0
 24 29  1  0  0  0
 29 32  1  0  0  0
 29 30  1  0  0  0
 32 28  1  0  0  0
 30 31  1  0  0  0
 28 33  1  0  0  0
 28 34  1  0  0  0
 31 34  1  0  0  0
 24 27  1  0  0  0
M  END
> <minimizedAffinity>
-8.17568

$$$$
5J0D_6F9_A_1201


 36 39  0  0  0  0  0  0  0  0999 V2000
   11.6853   14.5410   30.9830 C   0  0  0  0  0  0  0  0  0  0  0  0
   10.5884   15.3051   29.0023 C   0  0  0  0  0  0  0  0  0  0  0  0
   14.3598   17.0257   31.7005 O   0  0  0  0  0  0  0  0  0  0  0  0
   10.8768   16.6632   28.9676 C   0  0  0  0  0  0  0  0  0  0  0  0
   11.0710   17.4403   30.2465 C   0  0  0  0  0  0  0  0  0  0  0  0
   10.9789   17.2919   27.7344 C   0  0  0  0  0  0  0  0  0  0  0  0
   10.7973   16.5916   26.5395 C   0  0  0  0  0  0  0  0  0  0  0  0
   10.5115   15.2211   26.6003 C   0  0  0  0  0  0  0  0  0  0  0  0
   10.4028   14.5620   27.8347 C   0  0  0  0  0  0  0  0  0  0  0  0
   13.4432   17.4894   31.0253 C   0  0  0  0  0  0  0  0  0  0  0  0
   12.2102   16.9463   31.0351 N   0  0  0  0  0  0  0  0  0  0  0  0
   10.4681   14.6675   30.2192 O   0  0  0  0  0  0  0  0  0  0  0  0
   11.9142   15.7589   31.8488 C   0  0  0  0  0  0  0  0  0  0  0  0
   10.8456   17.3132   25.2418 C   0  0  0  0  0  0  0  0  0  0  0  0
   10.9115   16.6269   24.0234 C   0  0  0  0  0  0  0  0  0  0  0  0
   11.0022   17.3322   22.8289 C   0  0  0  0  0  0  0  0  0  0  0  0
   11.0176   18.7200   22.8224 C   0  0  0  0  0  0  0  0  0  0  0  0
   10.9444   19.3890   24.0273 C   0  0  0  0  0  0  0  0  0  0  0  0
   10.8540   18.7052   25.2271 C   0  0  0  0  0  0  0  0  0  0  0  0
   10.9583   20.7481   23.8699 O   0  0  0  0  0  0  0  0  0  0  0  0
   11.0058   21.2954   22.5540 C   0  0  0  0  0  0  0  0  0  0  0  0
   11.0477   16.5662   21.6961 O   0  0  0  0  0  0  0  0  0  0  0  0
    9.9601   15.6973   21.3871 C   0  0  0  0  0  0  0  0  0  0  0  0
    9.0848   12.7201   28.7068 N   0  0  0  0  0  0  0  0  0  0  0  0
   10.0607   13.1034   27.8746 C   0  0  0  0  0  0  0  0  0  0  0  0
   10.7252   12.2918   27.2421 O   0  0  0  0  0  0  0  0  0  0  0  0
    8.4949   13.4063   29.0946 H   0  0  0  0  0  0  0  0  0  0  0  0
    7.5611    9.3115   28.4784 N   0  0  0  0  0  0  0  0  0  0  0  0
    8.8630   11.3154   29.0614 C   0  0  0  0  0  0  0  0  0  0  0  0
    8.4246   11.1723   30.5133 C   0  0  0  0  0  0  0  0  0  0  0  0
    8.0999    9.7188   30.8530 C   0  0  0  0  0  0  0  0  0  0  0  0
    7.7609   10.7329   28.1929 C   0  0  0  0  0  0  0  0  0  0  0  0
    6.5937    8.7267   27.5341 C   0  0  0  0  0  0  0  0  0  0  0  0
    7.1124    9.1372   29.8587 C   0  0  0  0  0  0  0  0  0  0  0  0
   13.6923   18.6743   30.1113 C   0  0  0  0  0  0  0  0  0  0  0  0
   14.7297   18.4416   29.0580 C   0  0  0  0  0  0  0  0  0  0  0  0
 21 20  1  0  0  0
 20 18  1  0  0  0
 18 17  2  0  0  0
 18 19  1  0  0  0
 17 16  1  0  0  0
 23 22  1  0  0  0
 36 35  1  0  0  0
 19 14  2  0  0  0
 16 22  1  0  0  0
 16 15  2  0  0  0
 35 10  1  0  0  0
 14 15  1  0  0  0
 14  7  1  0  0  0
  6  7  2  0  0  0
  6  4  1  0  0  0
  7  8  1  0  0  0
 10  3  2  0  0  0
 10 11  1  0  0  0
  5  4  1  0  0  0
  5 11  1  0  0  0
  4  2  2  0  0  0
 11 13  1  0  0  0
  8  9  2  0  0  0
  2  9  1  0  0  0
  2 12  1  0  0  0
 13  1  1  0  0  0
  9 25  1  0  0  0
 12  1  1  0  0  0
 25 24  1  0  0  0
 25 26  2  0  0  0
 24 29  1  0  0  0
 29 32  1  0  0  0
 29 30  1  0  0  0
 32 28  1  0  0  0
 30 31  1  0  0  0
 28 33  1  0  0  0
 28 34  1  0  0  0
 31 34  1  0  0  0
 24 27  1  0  0  0
M  END
> <minimizedAffinity>
-7.41457

$$$$
5J0D_6F9_A_1201


 36 39  0  0  0  0  0  0  0  0999 V2000
   11.6130   14.5686   30.9875 C   0  0  0  0  0  0  0  0  0  0  0  0
   10.5543   15.3029   28.9750 C   0  0  0  0  0  0  0  0  0  0  0  0
   14.2892   17.0510   31.7060 O   0  0  0  0  0  0  0  0  0  0  0  0
   10.8511   16.6586   28.9210 C   0  0  0  0  0  0  0  0  0  0  0  0
   11.0281   17.4575   30.1889 C   0  0  0  0  0  0  0  0  0  0  0  0
   10.9777   17.2644   27.6787 C   0  0  0  0  0  0  0  0  0  0  0  0
   10.8125   16.5438   26.4936 C   0  0  0  0  0  0  0  0  0  0  0  0
   10.5177   15.1762   26.5739 C   0  0  0  0  0  0  0  0  0  0  0  0
   10.3843   14.5400   27.8179 C   0  0  0  0  0  0  0  0  0  0  0  0
   13.3870   17.5075   31.0071 C   0  0  0  0  0  0  0  0  0  0  0  0
   12.1508   16.9714   31.0056 N   0  0  0  0  0  0  0  0  0  0  0  0
   10.4097   14.6879   30.2008 O   0  0  0  0  0  0  0  0  0  0  0  0
   11.8342   15.8005   31.8352 C   0  0  0  0  0  0  0  0  0  0  0  0
   10.8869   17.2417   25.1842 C   0  0  0  0  0  0  0  0  0  0  0  0
   10.9142   18.6387   25.0984 C   0  0  0  0  0  0  0  0  0  0  0  0
   10.9374   19.2616   23.8559 C   0  0  0  0  0  0  0  0  0  0  0  0
   10.9451   18.5144   22.6863 C   0  0  0  0  0  0  0  0  0  0  0  0
   10.9260   17.1375   22.7797 C   0  0  0  0  0  0  0  0  0  0  0  0
   10.9024   16.4986   24.0070 C   0  0  0  0  0  0  0  0  0  0  0  0
   10.9477   16.5322   21.5528 O   0  0  0  0  0  0  0  0  0  0  0  0
   10.0447   15.4604   21.2900 C   0  0  0  0  0  0  0  0  0  0  0  0
   10.9764   20.6290   23.8846 O   0  0  0  0  0  0  0  0  0  0  0  0
   11.0668   21.3586   22.6628 C   0  0  0  0  0  0  0  0  0  0  0  0
    9.0381   12.7219   28.6968 N   0  0  0  0  0  0  0  0  0  0  0  0
   10.0331   13.0843   27.8780 C   0  0  0  0  0  0  0  0  0  0  0  0
   10.7059   12.2573   27.2747 O   0  0  0  0  0  0  0  0  0  0  0  0
    8.4443   13.4184   29.0594 H   0  0  0  0  0  0  0  0  0  0  0  0
    7.5047    9.3158   28.4967 N   0  0  0  0  0  0  0  0  0  0  0  0
    8.8011   11.3253   29.0730 C   0  0  0  0  0  0  0  0  0  0  0  0
    8.3261   11.2124   30.5160 C   0  0  0  0  0  0  0  0  0  0  0  0
    7.9862    9.7671   30.8756 C   0  0  0  0  0  0  0  0  0  0  0  0
    7.7182   10.7305   28.1887 C   0  0  0  0  0  0  0  0  0  0  0  0
    6.5585    8.7167   27.5401 C   0  0  0  0  0  0  0  0  0  0  0  0
    7.0211    9.1704   29.8685 C   0  0  0  0  0  0  0  0  0  0  0  0
   13.6584   18.6745   30.0765 C   0  0  0  0  0  0  0  0  0  0  0  0
   14.7385   18.4305   29.0697 C   0  0  0  0  0  0  0  0  0  0  0  0
 21 20  1  0  0  0
 20 18  1  0  0  0
 18 17  2  0  0  0
 18 19  1  0  0  0
 17 16  1  0  0  0
 23 22  1  0  0  0
 36 35  1  0  0  0
 19 14  2  0  0  0
 16 22  1  0  0  0
 16 15  2  0  0  0
 35 10  1  0  0  0
 14 15  1  0  0  0
 14  7  1  0  0  0
  6  7  2  0  0  0
  6  4  1  0  0  0
  7  8  1  0  0  0
 10  3  2  0  0  0
 10 11  1  0  0  0
  5  4  1  0  0  0
  5 11  1  0  0  0
  4  2  2  0  0  0
 11 13  1  0  0  0
  8  9  2  0  0  0
  2  9  1  0  0  0
  2 12  1  0  0  0
 13  1  1  0  0  0
  9 25  1  0  0  0
 12  1  1  0  0  0
 25 24  1  0  0  0
 25 26  2  0  0  0
 24 29  1  0  0  0
 29 32  1  0  0  0
 29 30  1  0  0  0
 32 28  1  0  0  0
 30 31  1  0  0  0
 28 33  1  0  0  0
 28 34  1  0  0  0
 31 34  1  0  0  0
 24 27  1  0  0  0
M  END
> <minimizedAffinity>
-7.38902

$$$$
5J0D_6F9_A_1201


 36 39  0  0  0  0  0  0  0  0999 V2000
   12.4457   17.1536   27.2370 C   0  0  0  0  0  0  0  0  0  0  0  0
   13.0113   15.2282   25.9397 C   0  0  0  0  0  0  0  0  0  0  0  0
   10.0088   19.0881   25.1973 O   0  0  0  0  0  0  0  0  0  0  0  0
   11.9376   15.0887   25.0698 C   0  0  0  0  0  0  0  0  0  0  0  0
   10.5523   15.5209   25.4835 C   0  0  0  0  0  0  0  0  0  0  0  0
   12.1633   14.5408   23.8147 C   0  0  0  0  0  0  0  0  0  0  0  0
   13.4368   14.1297   23.4146 C   0  0  0  0  0  0  0  0  0  0  0  0
   14.5049   14.2847   24.3084 C   0  0  0  0  0  0  0  0  0  0  0  0
   14.3031   14.8358   25.5833 C   0  0  0  0  0  0  0  0  0  0  0  0
   10.0404   17.8951   24.9026 C   0  0  0  0  0  0  0  0  0  0  0  0
   10.4769   16.9616   25.7707 N   0  0  0  0  0  0  0  0  0  0  0  0
   12.8026   15.7565   27.1963 O   0  0  0  0  0  0  0  0  0  0  0  0
   10.9507   17.3380   27.1098 C   0  0  0  0  0  0  0  0  0  0  0  0
   13.6263   13.4839   22.0901 C   0  0  0  0  0  0  0  0  0  0  0  0
   14.8571   12.9350   21.7114 C   0  0  0  0  0  0  0  0  0  0  0  0
   15.0143   12.3791   20.4470 C   0  0  0  0  0  0  0  0  0  0  0  0
   13.9575   12.3485   19.5478 C   0  0  0  0  0  0  0  0  0  0  0  0
   12.7452   12.8847   19.9318 C   0  0  0  0  0  0  0  0  0  0  0  0
   12.5687   13.4430   21.1857 C   0  0  0  0  0  0  0  0  0  0  0  0
   11.7946   12.7761   18.9536 O   0  0  0  0  0  0  0  0  0  0  0  0
   10.5142   13.3690   19.1591 C   0  0  0  0  0  0  0  0  0  0  0  0
   16.2520   11.8590   20.1833 O   0  0  0  0  0  0  0  0  0  0  0  0
   16.6861   11.7192   18.8323 C   0  0  0  0  0  0  0  0  0  0  0  0
   15.2448   14.6023   27.8079 N   0  0  0  0  0  0  0  0  0  0  0  0
   15.4547   14.9580   26.5346 C   0  0  0  0  0  0  0  0  0  0  0  0
   16.5103   15.4620   26.1711 O   0  0  0  0  0  0  0  0  0  0  0  0
   14.4360   14.0865   28.0295 H   0  0  0  0  0  0  0  0  0  0  0  0
   17.3907   14.0455   30.8209 N   0  0  0  0  0  0  0  0  0  0  0  0
   16.1760   14.9530   28.8840 C   0  0  0  0  0  0  0  0  0  0  0  0
   15.6159   16.0648   29.7620 C   0  0  0  0  0  0  0  0  0  0  0  0
   16.5431   16.3612   30.9392 C   0  0  0  0  0  0  0  0  0  0  0  0
   16.4130   13.7449   29.7741 C   0  0  0  0  0  0  0  0  0  0  0  0
   17.7178   12.8299   31.5857 C   0  0  0  0  0  0  0  0  0  0  0  0
   16.8743   15.0919   31.7015 C   0  0  0  0  0  0  0  0  0  0  0  0
    9.6282   17.4404   23.5153 C   0  0  0  0  0  0  0  0  0  0  0  0
   10.6505   17.6850   22.4500 C   0  0  0  0  0  0  0  0  0  0  0  0
 21 20  1  0  0  0
 20 18  1  0  0  0
 18 17  2  0  0  0
 18 19  1  0  0  0
 17 16  1  0  0  0
 23 22  1  0  0  0
 36 35  1  0  0  0
 19 14  2  0  0  0
 16 22  1  0  0  0
 16 15  2  0  0  0
 35 10  1  0  0  0
 14 15  1  0  0  0
 14  7  1  0  0  0
  6  7  2  0  0  0
  6  4  1  0  0  0
  7  8  1  0  0  0
 10  3  2  0  0  0
 10 11  1  0  0  0
  5  4  1  0  0  0
  5 11  1  0  0  0
  4  2  2  0  0  0
 11 13  1  0  0  0
  8  9  2  0  0  0
  2  9  1  0  0  0
  2 12  1  0  0  0
 13  1  1  0  0  0
  9 25  1  0  0  0
 12  1  1  0  0  0
 25 24  1  0  0  0
 25 26  2  0  0  0
 24 29  1  0  0  0
 29 32  1  0  0  0
 29 30  1  0  0  0
 32 28  1  0  0  0
 30 31  1  0  0  0
 28 33  1  0  0  0
 28 34  1  0  0  0
 31 34  1  0  0  0
 24 27  1  0  0  0
M  END
> <minimizedAffinity>
-7.19158

$$$$
5J0D_6F9_A_1201


 36 39  0  0  0  0  0  0  0  0999 V2000
   12.4499   17.1769   27.3334 C   0  0  0  0  0  0  0  0  0  0  0  0
   12.9901   15.2714   25.9964 C   0  0  0  0  0  0  0  0  0  0  0  0
   10.1472   19.2548   25.2788 O   0  0  0  0  0  0  0  0  0  0  0  0
   11.9406   15.1953   25.0900 C   0  0  0  0  0  0  0  0  0  0  0  0
   10.5585   15.6638   25.4736 C   0  0  0  0  0  0  0  0  0  0  0  0
   12.1873   14.6765   23.8265 C   0  0  0  0  0  0  0  0  0  0  0  0
   13.4581   14.2326   23.4536 C   0  0  0  0  0  0  0  0  0  0  0  0
   14.5018   14.3237   24.3843 C   0  0  0  0  0  0  0  0  0  0  0  0
   14.2784   14.8442   25.6685 C   0  0  0  0  0  0  0  0  0  0  0  0
   10.1472   18.0705   24.9493 C   0  0  0  0  0  0  0  0  0  0  0  0
   10.5234   17.0973   25.8018 N   0  0  0  0  0  0  0  0  0  0  0  0
   12.7597   15.7698   27.2614 O   0  0  0  0  0  0  0  0  0  0  0  0
   10.9669   17.4176   27.1657 C   0  0  0  0  0  0  0  0  0  0  0  0
   13.6674   13.6195   22.1167 C   0  0  0  0  0  0  0  0  0  0  0  0
   12.6212   13.4960   21.1948 C   0  0  0  0  0  0  0  0  0  0  0  0
   12.8394   12.8755   19.9702 C   0  0  0  0  0  0  0  0  0  0  0  0
   14.0927   12.3809   19.6373 C   0  0  0  0  0  0  0  0  0  0  0  0
   15.1207   12.5137   20.5486 C   0  0  0  0  0  0  0  0  0  0  0  0
   14.9237   13.1277   21.7731 C   0  0  0  0  0  0  0  0  0  0  0  0
   16.2980   11.9931   20.0848 O   0  0  0  0  0  0  0  0  0  0  0  0
   16.2633   10.9786   19.0835 C   0  0  0  0  0  0  0  0  0  0  0  0
   11.7545   12.8191   19.1383 O   0  0  0  0  0  0  0  0  0  0  0  0
   10.5215   13.4087   19.5449 C   0  0  0  0  0  0  0  0  0  0  0  0
   15.1111   14.6408   27.9391 N   0  0  0  0  0  0  0  0  0  0  0  0
   15.4026   14.8979   26.6582 C   0  0  0  0  0  0  0  0  0  0  0  0
   16.5187   15.2649   26.3115 O   0  0  0  0  0  0  0  0  0  0  0  0
   14.2438   14.2277   28.1548 H   0  0  0  0  0  0  0  0  0  0  0  0
   17.0703   14.0370   31.0679 N   0  0  0  0  0  0  0  0  0  0  0  0
   16.0367   14.9520   29.0320 C   0  0  0  0  0  0  0  0  0  0  0  0
   15.5749   16.1713   29.8198 C   0  0  0  0  0  0  0  0  0  0  0  0
   16.4869   16.4353   31.0165 C   0  0  0  0  0  0  0  0  0  0  0  0
   16.1032   13.7825   29.9994 C   0  0  0  0  0  0  0  0  0  0  0  0
   17.2299   12.8424   31.9146 C   0  0  0  0  0  0  0  0  0  0  0  0
   16.6445   15.1868   31.8640 C   0  0  0  0  0  0  0  0  0  0  0  0
    9.7642   17.6712   23.5367 C   0  0  0  0  0  0  0  0  0  0  0  0
   10.8116   17.9499   22.5048 C   0  0  0  0  0  0  0  0  0  0  0  0
 21 20  1  0  0  0
 20 18  1  0  0  0
 18 17  2  0  0  0
 18 19  1  0  0  0
 17 16  1  0  0  0
 23 22  1  0  0  0
 36 35  1  0  0  0
 19 14  2  0  0  0
 16 22  1  0  0  0
 16 15  2  0  0  0
 35 10  1  0  0  0
 14 15  1  0  0  0
 14  7  1  0  0  0
  6  7  2  0  0  0
  6  4  1  0  0  0
  7  8  1  0  0  0
 10  3  2  0  0  0
 10 11  1  0  0  0
  5  4  1  0  0  0
  5 11  1  0  0  0
  4  2  2  0  0  0
 11 13  1  0  0  0
  8  9  2  0  0  0
  2  9  1  0  0  0
  2 12  1  0  0  0
 13  1  1  0  0  0
  9 25  1  0  0  0
 12  1  1  0  0  0
 25 24  1  0  0  0
 25 26  2  0  0  0
 24 29  1  0  0  0
 29 32  1  0  0  0
 29 30  1  0  0  0
 32 28  1  0  0  0
 30 31  1  0  0  0
 28 33  1  0  0  0
 28 34  1  0  0  0
 31 34  1  0  0  0
 24 27  1  0  0  0
M  END
> <minimizedAffinity>
-7.11893

$$$$
