1KC7_PPR_A_1000


 13 12  0  0  0  0  0  0  0  0999 V2000
   11.6806    4.9555    3.8717 C   0  0  0  0  0  0  0  0  0  0  0  0
   11.3970    3.7623    5.3981 P   0  0  0  0  0  0  0  0  0  0  0  0
   10.4034    2.6615    4.9242 O   0  0  0  0  0  0  0  0  0  0  0  0
   10.8558    4.6267    6.4330 O   0  0  0  0  0  0  0  0  0  0  0  0
   12.6857    3.1200    5.7176 O   0  0  0  0  0  0  0  0  0  0  0  0
   10.0125    5.0009    6.1334 H   0  0  0  0  0  0  0  0  0  0  0  0
   12.9647    2.5663    4.9716 H   0  0  0  0  0  0  0  0  0  0  0  0
   12.3672    5.9963    4.4080 C   0  0  0  0  0  0  0  0  0  0  0  0
   13.3811    5.6801    5.1837 O   0  0  0  0  0  0  0  0  0  0  0  0
   12.1375    7.5023    4.2818 C   0  0  0  0  0  0  0  0  0  0  0  0
   13.2085    8.2226    4.2129 O   0  0  0  0  0  0  0  0  0  0  0  0
   11.0201    7.9999    4.2400 O   0  0  0  0  0  0  0  0  0  0  0  0
   10.2613    7.4527    4.2921 H   0  0  0  0  0  0  0  0  0  0  0  0
 10 11  2  0  0  0
 10 12  1  0  0  0
 10  8  1  0  0  0
  8  1  1  0  0  0
  8  9  2  0  0  0
  1  2  1  0  0  0
  2  3  2  0  0  0
  2  4  1  0  0  0
  2  5  1  0  0  0
 12 13  1  0  0  0
  4  6  1  0  0  0
  5  7  1  0  0  0
M  END
> <minimizedAffinity>
-5.32713

$$$$
1KC7_PPR_A_1000


 13 12  0  0  0  0  0  0  0  0999 V2000
   11.2311    2.7495    4.7850 C   0  0  0  0  0  0  0  0  0  0  0  0
    9.3128    2.6795    4.3979 P   0  0  0  0  0  0  0  0  0  0  0  0
    8.9365    1.1733    4.2826 O   0  0  0  0  0  0  0  0  0  0  0  0
    9.1721    3.4106    3.1502 O   0  0  0  0  0  0  0  0  0  0  0  0
    8.5956    3.2514    5.5529 O   0  0  0  0  0  0  0  0  0  0  0  0
    9.6756    2.9611    2.4535 H   0  0  0  0  0  0  0  0  0  0  0  0
    8.7485    2.6980    6.3348 H   0  0  0  0  0  0  0  0  0  0  0  0
   11.4463    4.0572    5.0783 C   0  0  0  0  0  0  0  0  0  0  0  0
   11.1221    4.4364    6.2952 O   0  0  0  0  0  0  0  0  0  0  0  0
   11.9858    5.1904    4.2057 C   0  0  0  0  0  0  0  0  0  0  0  0
   13.1244    4.9596    3.6389 O   0  0  0  0  0  0  0  0  0  0  0  0
   11.3844    6.2438    4.0428 O   0  0  0  0  0  0  0  0  0  0  0  0
   10.5605    6.3832    4.4667 H   0  0  0  0  0  0  0  0  0  0  0  0
 10 11  2  0  0  0
 10 12  1  0  0  0
 10  8  1  0  0  0
  8  1  1  0  0  0
  8  9  2  0  0  0
  1  2  1  0  0  0
  2  3  2  0  0  0
  2  4  1  0  0  0
  2  5  1  0  0  0
 12 13  1  0  0  0
  4  6  1  0  0  0
  5  7  1  0  0  0
M  END
> <minimizedAffinity>
-4.92155

$$$$
1KC7_PPR_A_1000


 13 12  0  0  0  0  0  0  0  0999 V2000
   12.1399    5.1630    4.1360 C   0  0  0  0  0  0  0  0  0  0  0  0
   11.5214    3.7962    5.3945 P   0  0  0  0  0  0  0  0  0  0  0  0
   10.6530    2.7970    4.5753 O   0  0  0  0  0  0  0  0  0  0  0  0
   10.7680    4.5400    6.3897 O   0  0  0  0  0  0  0  0  0  0  0  0
   12.7051    3.0771    5.9015 O   0  0  0  0  0  0  0  0  0  0  0  0
   10.0133    4.9763    5.9643 H   0  0  0  0  0  0  0  0  0  0  0  0
   13.1401    2.6134    5.1689 H   0  0  0  0  0  0  0  0  0  0  0  0
   13.0061    5.9027    4.8741 C   0  0  0  0  0  0  0  0  0  0  0  0
   12.4705    6.8432    5.6212 O   0  0  0  0  0  0  0  0  0  0  0  0
   14.5311    5.8431    4.9623 C   0  0  0  0  0  0  0  0  0  0  0  0
   15.1559    6.8518    4.4497 O   0  0  0  0  0  0  0  0  0  0  0  0
   15.1276    4.9122    5.4873 O   0  0  0  0  0  0  0  0  0  0  0  0
   14.6480    4.1939    5.8507 H   0  0  0  0  0  0  0  0  0  0  0  0
 10 11  2  0  0  0
 10 12  1  0  0  0
 10  8  1  0  0  0
  8  1  1  0  0  0
  8  9  2  0  0  0
  1  2  1  0  0  0
  2  3  2  0  0  0
  2  4  1  0  0  0
  2  5  1  0  0  0
 12 13  1  0  0  0
  4  6  1  0  0  0
  5  7  1  0  0  0
M  END
> <minimizedAffinity>
-4.90119

$$$$
1KC7_PPR_A_1000


 13 12  0  0  0  0  0  0  0  0999 V2000
   14.2702    6.1181    4.9279 C   0  0  0  0  0  0  0  0  0  0  0  0
   14.2262    4.2461    4.3550 P   0  0  0  0  0  0  0  0  0  0  0  0
   15.6996    3.8337    4.0676 O   0  0  0  0  0  0  0  0  0  0  0  0
   13.3836    4.2533    3.1714 O   0  0  0  0  0  0  0  0  0  0  0  0
   13.7282    3.4377    5.4837 O   0  0  0  0  0  0  0  0  0  0  0  0
   13.7909    4.8080    2.4878 H   0  0  0  0  0  0  0  0  0  0  0  0
   14.3538    3.4944    6.2228 H   0  0  0  0  0  0  0  0  0  0  0  0
   12.9641    6.4864    4.9032 C   0  0  0  0  0  0  0  0  0  0  0  0
   12.1181    5.6499    5.4638 O   0  0  0  0  0  0  0  0  0  0  0  0
   12.2960    7.7203    4.2965 C   0  0  0  0  0  0  0  0  0  0  0  0
   13.1024    8.5965    3.7939 O   0  0  0  0  0  0  0  0  0  0  0  0
   11.0819    7.8727    4.2764 O   0  0  0  0  0  0  0  0  0  0  0  0
   10.5216    7.2203    4.6486 H   0  0  0  0  0  0  0  0  0  0  0  0
 10 11  2  0  0  0
 10 12  1  0  0  0
 10  8  1  0  0  0
  8  1  1  0  0  0
  8  9  2  0  0  0
  1  2  1  0  0  0
  2  3  2  0  0  0
  2  4  1  0  0  0
  2  5  1  0  0  0
 12 13  1  0  0  0
  4  6  1  0  0  0
  5  7  1  0  0  0
M  END
> <minimizedAffinity>
-4.86031

$$$$
1KC7_PPR_A_1000


 13 12  0  0  0  0  0  0  0  0999 V2000
   13.0175    5.4640    4.3380 C   0  0  0  0  0  0  0  0  0  0  0  0
   12.4708    7.2910    4.7824 P   0  0  0  0  0  0  0  0  0  0  0  0
   13.5798    8.2342    4.2309 O   0  0  0  0  0  0  0  0  0  0  0  0
   12.3742    7.2935    6.2322 O   0  0  0  0  0  0  0  0  0  0  0  0
   11.2159    7.5771    4.0622 O   0  0  0  0  0  0  0  0  0  0  0  0
   13.2437    7.0969    6.6145 H   0  0  0  0  0  0  0  0  0  0  0  0
   11.3790    7.5535    3.1063 H   0  0  0  0  0  0  0  0  0  0  0  0
   11.8476    4.7758    4.3378 C   0  0  0  0  0  0  0  0  0  0  0  0
   11.1795    4.7741    3.2050 O   0  0  0  0  0  0  0  0  0  0  0  0
   11.1498    4.0118    5.4630 C   0  0  0  0  0  0  0  0  0  0  0  0
   10.6840    2.8505    5.1388 O   0  0  0  0  0  0  0  0  0  0  0  0
   11.0418    4.4578    6.5976 O   0  0  0  0  0  0  0  0  0  0  0  0
   11.3893    5.3032    6.8037 H   0  0  0  0  0  0  0  0  0  0  0  0
 10 11  2  0  0  0
 10 12  1  0  0  0
 10  8  1  0  0  0
  8  1  1  0  0  0
  8  9  2  0  0  0
  1  2  1  0  0  0
  2  3  2  0  0  0
  2  4  1  0  0  0
  2  5  1  0  0  0
 12 13  1  0  0  0
  4  6  1  0  0  0
  5  7  1  0  0  0
M  END
> <minimizedAffinity>
-4.78830

$$$$
1KC7_PPR_A_1000


 13 12  0  0  0  0  0  0  0  0999 V2000
   11.0731    2.8863    3.9195 C   0  0  0  0  0  0  0  0  0  0  0  0
   11.3571    3.8285    5.6124 P   0  0  0  0  0  0  0  0  0  0  0  0
   12.1635    5.1168    5.2751 O   0  0  0  0  0  0  0  0  0  0  0  0
   12.0932    2.8802    6.4311 O   0  0  0  0  0  0  0  0  0  0  0  0
   10.0377    4.2288    6.1359 O   0  0  0  0  0  0  0  0  0  0  0  0
   12.9425    2.6787    6.0080 H   0  0  0  0  0  0  0  0  0  0  0  0
    9.6252    4.8594    5.5251 H   0  0  0  0  0  0  0  0  0  0  0  0
    9.8924    2.2442    4.1099 C   0  0  0  0  0  0  0  0  0  0  0  0
    9.8920    1.2954    5.0206 O   0  0  0  0  0  0  0  0  0  0  0  0
    8.5454    2.4235    3.4098 C   0  0  0  0  0  0  0  0  0  0  0  0
    7.5618    1.7592    3.9218 O   0  0  0  0  0  0  0  0  0  0  0  0
    8.3973    3.1499    2.4360 O   0  0  0  0  0  0  0  0  0  0  0  0
    9.1288    3.6195    2.0863 H   0  0  0  0  0  0  0  0  0  0  0  0
 10 11  2  0  0  0
 10 12  1  0  0  0
 10  8  1  0  0  0
  8  1  1  0  0  0
  8  9  2  0  0  0
  1  2  1  0  0  0
  2  3  2  0  0  0
  2  4  1  0  0  0
  2  5  1  0  0  0
 12 13  1  0  0  0
  4  6  1  0  0  0
  5  7  1  0  0  0
M  END
> <minimizedAffinity>
-4.76613

$$$$
1KC7_PPR_A_1000


 13 12  0  0  0  0  0  0  0  0999 V2000
   11.0883    2.7037    4.0643 C   0  0  0  0  0  0  0  0  0  0  0  0
   11.6168    4.3337    5.0121 P   0  0  0  0  0  0  0  0  0  0  0  0
   13.1531    4.2357    5.2438 O   0  0  0  0  0  0  0  0  0  0  0  0
   10.8410    4.3016    6.2402 O   0  0  0  0  0  0  0  0  0  0  0  0
   11.3521    5.4811    4.1240 O   0  0  0  0  0  0  0  0  0  0  0  0
   11.0829    3.5160    6.7551 H   0  0  0  0  0  0  0  0  0  0  0  0
   11.9133    5.4158    3.3355 H   0  0  0  0  0  0  0  0  0  0  0  0
    9.8122    2.9616    3.6803 C   0  0  0  0  0  0  0  0  0  0  0  0
    9.6716    3.6181    2.5494 O   0  0  0  0  0  0  0  0  0  0  0  0
    8.4873    2.6357    4.3696 C   0  0  0  0  0  0  0  0  0  0  0  0
    7.8867    1.5738    3.9424 O   0  0  0  0  0  0  0  0  0  0  0  0
    8.0234    3.3226    5.2701 O   0  0  0  0  0  0  0  0  0  0  0  0
    8.4811    4.0873    5.5593 H   0  0  0  0  0  0  0  0  0  0  0  0
 10 11  2  0  0  0
 10 12  1  0  0  0
 10  8  1  0  0  0
  8  1  1  0  0  0
  8  9  2  0  0  0
  1  2  1  0  0  0
  2  3  2  0  0  0
  2  4  1  0  0  0
  2  5  1  0  0  0
 12 13  1  0  0  0
  4  6  1  0  0  0
  5  7  1  0  0  0
M  END
> <minimizedAffinity>
-4.66338

$$$$
1KC7_PPR_A_1000


 13 12  0  0  0  0  0  0  0  0999 V2000
   10.6524    2.3880    4.5369 C   0  0  0  0  0  0  0  0  0  0  0  0
   11.4133    4.0855    5.1485 P   0  0  0  0  0  0  0  0  0  0  0  0
   12.9445    3.8550    5.3088 O   0  0  0  0  0  0  0  0  0  0  0  0
   10.7315    4.3522    6.4036 O   0  0  0  0  0  0  0  0  0  0  0  0
   11.2018    5.0866    4.0863 O   0  0  0  0  0  0  0  0  0  0  0  0
   10.9296    3.6439    7.0360 H   0  0  0  0  0  0  0  0  0  0  0  0
   11.6933    4.8242    3.2922 H   0  0  0  0  0  0  0  0  0  0  0  0
    9.4263    2.7406    4.0734 C   0  0  0  0  0  0  0  0  0  0  0  0
    8.4827    2.8719    4.9800 O   0  0  0  0  0  0  0  0  0  0  0  0
    8.9430    2.9874    2.6443 C   0  0  0  0  0  0  0  0  0  0  0  0
    8.1690    2.0749    2.1555 O   0  0  0  0  0  0  0  0  0  0  0  0
    9.2557    3.9815    2.0025 O   0  0  0  0  0  0  0  0  0  0  0  0
    9.8187    4.6267    2.3829 H   0  0  0  0  0  0  0  0  0  0  0  0
 10 11  2  0  0  0
 10 12  1  0  0  0
 10  8  1  0  0  0
  8  1  1  0  0  0
  8  9  2  0  0  0
  1  2  1  0  0  0
  2  3  2  0  0  0
  2  4  1  0  0  0
  2  5  1  0  0  0
 12 13  1  0  0  0
  4  6  1  0  0  0
  5  7  1  0  0  0
M  END
> <minimizedAffinity>
-4.66257

$$$$
1KC7_PPR_A_1000


 13 12  0  0  0  0  0  0  0  0999 V2000
   11.2712    2.8334    3.9795 C   0  0  0  0  0  0  0  0  0  0  0  0
   11.8292    4.4631    4.9106 P   0  0  0  0  0  0  0  0  0  0  0  0
   11.1683    4.4195    6.3195 O   0  0  0  0  0  0  0  0  0  0  0  0
   11.3367    5.5420    4.0712 O   0  0  0  0  0  0  0  0  0  0  0  0
   13.2932    4.4096    5.0814 O   0  0  0  0  0  0  0  0  0  0  0  0
   10.3693    5.4952    4.0189 H   0  0  0  0  0  0  0  0  0  0  0  0
   13.5249    3.6615    5.6537 H   0  0  0  0  0  0  0  0  0  0  0  0
    9.9572    3.0528    3.7195 C   0  0  0  0  0  0  0  0  0  0  0  0
    9.6874    3.6631    2.5862 O   0  0  0  0  0  0  0  0  0  0  0  0
    8.7170    2.7286    4.5523 C   0  0  0  0  0  0  0  0  0  0  0  0
    7.9562    1.7991    4.0750 O   0  0  0  0  0  0  0  0  0  0  0  0
    8.4585    3.2991    5.6037 O   0  0  0  0  0  0  0  0  0  0  0  0
    9.0286    3.9695    5.9255 H   0  0  0  0  0  0  0  0  0  0  0  0
 10 11  2  0  0  0
 10 12  1  0  0  0
 10  8  1  0  0  0
  8  1  1  0  0  0
  8  9  2  0  0  0
  1  2  1  0  0  0
  2  3  2  0  0  0
  2  4  1  0  0  0
  2  5  1  0  0  0
 12 13  1  0  0  0
  4  6  1  0  0  0
  5  7  1  0  0  0
M  END
> <minimizedAffinity>
-4.63265

$$$$
1KC7_PPR_A_1000


 13 12  0  0  0  0  0  0  0  0999 V2000
   10.2879    2.6449    3.4182 C   0  0  0  0  0  0  0  0  0  0  0  0
    8.4006    2.2244    3.7273 P   0  0  0  0  0  0  0  0  0  0  0  0
    7.6544    2.5189    2.3931 O   0  0  0  0  0  0  0  0  0  0  0  0
    8.0114    3.1036    4.8167 O   0  0  0  0  0  0  0  0  0  0  0  0
    8.2976    0.7804    4.0095 O   0  0  0  0  0  0  0  0  0  0  0  0
    8.1122    4.0274    4.5385 H   0  0  0  0  0  0  0  0  0  0  0  0
    8.5769    0.2777    3.2283 H   0  0  0  0  0  0  0  0  0  0  0  0
   10.8181    2.6535    4.6676 C   0  0  0  0  0  0  0  0  0  0  0  0
   10.9935    1.4766    5.2279 O   0  0  0  0  0  0  0  0  0  0  0  0
   11.2265    3.8252    5.5604 C   0  0  0  0  0  0  0  0  0  0  0  0
   12.4729    4.1618    5.4976 O   0  0  0  0  0  0  0  0  0  0  0  0
   10.4332    4.4150    6.2821 O   0  0  0  0  0  0  0  0  0  0  0  0
    9.5352    4.1487    6.3071 H   0  0  0  0  0  0  0  0  0  0  0  0
 10 11  2  0  0  0
 10 12  1  0  0  0
 10  8  1  0  0  0
  8  1  1  0  0  0
  8  9  2  0  0  0
  1  2  1  0  0  0
  2  3  2  0  0  0
  2  4  1  0  0  0
  2  5  1  0  0  0
 12 13  1  0  0  0
  4  6  1  0  0  0
  5  7  1  0  0  0
M  END
> <minimizedAffinity>
-4.60092

$$$$
