4M2R_BZ1_A_302


 26 27  0  0  0  0  0  0  0  0999 V2000
   16.1836    2.9387   13.9387 C   0  0  0  0  0  0  0  0  0  0  0  0
   15.7910    4.1505   14.4365 C   0  0  0  0  0  0  0  0  0  0  0  0
   16.8496    2.5410   12.6623 C   0  0  0  0  0  0  0  0  0  0  0  0
   17.5863    3.7131   12.1095 C   0  0  0  0  0  0  0  0  0  0  0  0
   15.1284    3.9274   15.9218 S   0  0  0  0  0  0  0  0  0  0  0  0
   15.3219    2.2449   15.9215 C   0  0  0  0  0  0  0  0  0  0  0  0
   15.9523    1.8089   14.7311 C   0  0  0  0  0  0  0  0  0  0  0  0
   16.1364    5.5666   13.4961 S   0  0  0  0  0  0  0  0  0  0  0  0
   16.7897    6.3557   14.5296 O   0  0  0  0  0  0  0  0  0  0  0  0
   14.9102    6.1891   12.9982 O   0  0  0  0  0  0  0  0  0  0  0  0
   17.1764    5.0767   12.2992 N   0  0  0  0  0  0  0  0  0  0  0  0
   14.8160    1.2673   17.2747 S   0  0  0  0  0  0  0  0  0  0  0  0
   15.7099   -0.0943   17.2776 N   0  0  0  0  0  0  0  0  0  0  0  0
   13.3830    1.0677   17.0681 O   0  0  0  0  0  0  0  0  0  0  0  0
   15.0042    2.0272   18.5162 O   0  0  0  0  0  0  0  0  0  0  0  0
   15.4305   -0.6827   18.0625 H   0  0  0  0  0  0  0  0  0  0  0  0
   16.6968    0.1471   17.3680 H   0  0  0  0  0  0  0  0  0  0  0  0
   15.9887    1.8838   11.7095 N   0  0  0  0  0  0  0  0  0  0  0  0
   15.7285    2.5515   10.9836 H   0  0  0  0  0  0  0  0  0  0  0  0
   17.0792   -0.4252   11.9258 C   0  0  0  0  0  0  0  0  0  0  0  0
   16.6402    0.7523   11.0928 C   0  0  0  0  0  0  0  0  0  0  0  0
   17.9654    5.9610   11.5133 C   0  0  0  0  0  0  0  0  0  0  0  0
   17.3109    6.8565   10.5173 C   0  0  0  0  0  0  0  0  0  0  0  0
   16.4565    6.1719    9.5029 C   0  0  0  0  0  0  0  0  0  0  0  0
   15.1018    5.9980    9.7061 O   0  0  0  0  0  0  0  0  0  0  0  0
   14.2371    7.0673    9.5408 C   0  0  0  0  0  0  0  0  0  0  0  0
 23 24  1  0  0  0
 23 22  1  0  0  0
  1  2  2  0  0  0
  1  3  1  0  0  0
  1  7  1  0  0  0
  2  5  1  0  0  0
  2  8  1  0  0  0
  3  4  1  0  0  0
  3 18  1  0  0  0
  4 11  1  0  0  0
 12 13  1  0  0  0
 12 14  2  0  0  0
 12 15  2  0  0  0
 12  6  1  0  0  0
 24 25  1  0  0  0
 20 21  1  0  0  0
 21 18  1  0  0  0
  5  6  1  0  0  0
  6  7  2  0  0  0
  8  9  2  0  0  0
  8 10  2  0  0  0
  8 11  1  0  0  0
 11 22  1  0  0  0
 25 26  1  0  0  0
 13 16  1  0  0  0
 13 17  1  0  0  0
 18 19  1  0  0  0
M  END
> <minimizedAffinity>
-6.89611

$$$$
4M2R_BZ1_A_302


 26 27  0  0  0  0  0  0  0  0999 V2000
   15.9658    3.8599   14.7703 C   0  0  0  0  0  0  0  0  0  0  0  0
   16.6344    2.8548   14.1276 C   0  0  0  0  0  0  0  0  0  0  0  0
   15.7673    5.3051   14.4491 C   0  0  0  0  0  0  0  0  0  0  0  0
   15.9443    5.5087   12.9830 C   0  0  0  0  0  0  0  0  0  0  0  0
   16.4608    1.4657   14.9851 S   0  0  0  0  0  0  0  0  0  0  0  0
   15.5341    2.1651   16.2181 C   0  0  0  0  0  0  0  0  0  0  0  0
   15.3117    3.5402   15.9652 C   0  0  0  0  0  0  0  0  0  0  0  0
   17.3890    3.2210   12.6093 S   0  0  0  0  0  0  0  0  0  0  0  0
   16.8196    2.1386   11.8207 O   0  0  0  0  0  0  0  0  0  0  0  0
   18.8464    3.1459   12.7055 O   0  0  0  0  0  0  0  0  0  0  0  0
   16.8199    4.7155   12.1659 N   0  0  0  0  0  0  0  0  0  0  0  0
   14.9427    1.2232   17.5620 S   0  0  0  0  0  0  0  0  0  0  0  0
   14.9932    2.1570   18.8956 N   0  0  0  0  0  0  0  0  0  0  0  0
   15.8092    0.0469   17.5957 O   0  0  0  0  0  0  0  0  0  0  0  0
   13.5724    0.7818   17.2760 O   0  0  0  0  0  0  0  0  0  0  0  0
   14.6510    1.6254   19.6960 H   0  0  0  0  0  0  0  0  0  0  0  0
   14.4058    2.9793   18.7573 H   0  0  0  0  0  0  0  0  0  0  0  0
   16.5295    6.2172   15.2665 N   0  0  0  0  0  0  0  0  0  0  0  0
   16.6624    5.8024   16.1888 H   0  0  0  0  0  0  0  0  0  0  0  0
   18.5364    7.7890   15.0028 C   0  0  0  0  0  0  0  0  0  0  0  0
   17.8228    6.4984   14.6891 C   0  0  0  0  0  0  0  0  0  0  0  0
   16.9166    5.2512   10.8522 C   0  0  0  0  0  0  0  0  0  0  0  0
   16.5132    6.6627   10.5925 C   0  0  0  0  0  0  0  0  0  0  0  0
   15.6334    6.8706    9.4049 C   0  0  0  0  0  0  0  0  0  0  0  0
   14.3842    6.2874    9.3270 O   0  0  0  0  0  0  0  0  0  0  0  0
   13.4597    6.7581    8.4093 C   0  0  0  0  0  0  0  0  0  0  0  0
 23 24  1  0  0  0
 23 22  1  0  0  0
  1  2  2  0  0  0
  1  3  1  0  0  0
  1  7  1  0  0  0
  2  5  1  0  0  0
  2  8  1  0  0  0
  3  4  1  0  0  0
  3 18  1  0  0  0
  4 11  1  0  0  0
 12 13  1  0  0  0
 12 14  2  0  0  0
 12 15  2  0  0  0
 12  6  1  0  0  0
 24 25  1  0  0  0
 20 21  1  0  0  0
 21 18  1  0  0  0
  5  6  1  0  0  0
  6  7  2  0  0  0
  8  9  2  0  0  0
  8 10  2  0  0  0
  8 11  1  0  0  0
 11 22  1  0  0  0
 25 26  1  0  0  0
 13 16  1  0  0  0
 13 17  1  0  0  0
 18 19  1  0  0  0
M  END
> <minimizedAffinity>
-6.62110

$$$$
4M2R_BZ1_A_302


 26 27  0  0  0  0  0  0  0  0999 V2000
   16.2210    2.8953   13.8318 C   0  0  0  0  0  0  0  0  0  0  0  0
   15.8769    4.1399   14.2824 C   0  0  0  0  0  0  0  0  0  0  0  0
   16.8354    2.4189   12.5564 C   0  0  0  0  0  0  0  0  0  0  0  0
   17.5855    3.5424   11.9259 C   0  0  0  0  0  0  0  0  0  0  0  0
   15.2559    4.0060   15.7961 S   0  0  0  0  0  0  0  0  0  0  0  0
   15.4041    2.3206   15.8708 C   0  0  0  0  0  0  0  0  0  0  0  0
   15.9846    1.8112   14.6843 C   0  0  0  0  0  0  0  0  0  0  0  0
   16.2303    5.4996   13.2649 S   0  0  0  0  0  0  0  0  0  0  0  0
   16.9369    6.3178   14.2390 O   0  0  0  0  0  0  0  0  0  0  0  0
   15.0061    6.1323   12.7750 O   0  0  0  0  0  0  0  0  0  0  0  0
   17.2185    4.9244   12.0621 N   0  0  0  0  0  0  0  0  0  0  0  0
   14.9151    1.4227   17.2842 S   0  0  0  0  0  0  0  0  0  0  0  0
   15.9301    0.1608   17.4583 N   0  0  0  0  0  0  0  0  0  0  0  0
   13.5210    1.0663   17.0287 O   0  0  0  0  0  0  0  0  0  0  0  0
   14.9609    2.3051   18.4562 O   0  0  0  0  0  0  0  0  0  0  0  0
   15.6625   -0.3798   18.2808 H   0  0  0  0  0  0  0  0  0  0  0  0
   16.8835    0.5047   17.5729 H   0  0  0  0  0  0  0  0  0  0  0  0
   15.9276    1.7421   11.6628 N   0  0  0  0  0  0  0  0  0  0  0  0
   15.6435    2.3895   10.9275 H   0  0  0  0  0  0  0  0  0  0  0  0
   17.1037   -0.5210   11.9129 C   0  0  0  0  0  0  0  0  0  0  0  0
   16.5401    0.5839   11.0558 C   0  0  0  0  0  0  0  0  0  0  0  0
   18.0057    5.7479   11.2110 C   0  0  0  0  0  0  0  0  0  0  0  0
   19.0713    5.1394   10.3644 C   0  0  0  0  0  0  0  0  0  0  0  0
   18.7308    4.9806    8.9200 C   0  0  0  0  0  0  0  0  0  0  0  0
   17.4202    4.8654    8.5005 O   0  0  0  0  0  0  0  0  0  0  0  0
   16.9079    5.7684    7.5838 C   0  0  0  0  0  0  0  0  0  0  0  0
 23 24  1  0  0  0
 23 22  1  0  0  0
  1  2  2  0  0  0
  1  3  1  0  0  0
  1  7  1  0  0  0
  2  5  1  0  0  0
  2  8  1  0  0  0
  3  4  1  0  0  0
  3 18  1  0  0  0
  4 11  1  0  0  0
 12 13  1  0  0  0
 12 14  2  0  0  0
 12 15  2  0  0  0
 12  6  1  0  0  0
 24 25  1  0  0  0
 20 21  1  0  0  0
 21 18  1  0  0  0
  5  6  1  0  0  0
  6  7  2  0  0  0
  8  9  2  0  0  0
  8 10  2  0  0  0
  8 11  1  0  0  0
 11 22  1  0  0  0
 25 26  1  0  0  0
 13 16  1  0  0  0
 13 17  1  0  0  0
 18 19  1  0  0  0
M  END
> <minimizedAffinity>
-6.55384

$$$$
4M2R_BZ1_A_302


 26 27  0  0  0  0  0  0  0  0999 V2000
   16.0764    3.9280   14.7150 C   0  0  0  0  0  0  0  0  0  0  0  0
   16.7441    2.9278   14.0638 C   0  0  0  0  0  0  0  0  0  0  0  0
   15.9077    5.3834   14.4240 C   0  0  0  0  0  0  0  0  0  0  0  0
   16.1218    5.6186   12.9676 C   0  0  0  0  0  0  0  0  0  0  0  0
   16.5293    1.5218   14.8836 S   0  0  0  0  0  0  0  0  0  0  0  0
   15.5851    2.2066   16.1115 C   0  0  0  0  0  0  0  0  0  0  0  0
   15.3898    3.5906   15.8866 C   0  0  0  0  0  0  0  0  0  0  0  0
   17.5394    3.3177   12.5723 S   0  0  0  0  0  0  0  0  0  0  0  0
   16.9719    2.2634   11.7453 O   0  0  0  0  0  0  0  0  0  0  0  0
   18.9929    3.2171   12.7001 O   0  0  0  0  0  0  0  0  0  0  0  0
   17.0038    4.8311   12.1520 N   0  0  0  0  0  0  0  0  0  0  0  0
   14.9481    1.2428   17.4185 S   0  0  0  0  0  0  0  0  0  0  0  0
   15.0004    2.1371   18.7788 N   0  0  0  0  0  0  0  0  0  0  0  0
   15.7841    0.0441   17.4322 O   0  0  0  0  0  0  0  0  0  0  0  0
   13.5720    0.8449   17.0986 O   0  0  0  0  0  0  0  0  0  0  0  0
   14.6318    1.5922   19.5583 H   0  0  0  0  0  0  0  0  0  0  0  0
   14.4363    2.9778   18.6549 H   0  0  0  0  0  0  0  0  0  0  0  0
   16.6646    6.2636   15.2802 N   0  0  0  0  0  0  0  0  0  0  0  0
   16.9938    5.7359   16.0887 H   0  0  0  0  0  0  0  0  0  0  0  0
   18.6201    7.9195   15.2363 C   0  0  0  0  0  0  0  0  0  0  0  0
   17.8033    6.8271   14.5939 C   0  0  0  0  0  0  0  0  0  0  0  0
   17.1393    5.3960   10.8540 C   0  0  0  0  0  0  0  0  0  0  0  0
   18.4924    5.7316   10.3260 C   0  0  0  0  0  0  0  0  0  0  0  0
   18.9389    4.9301    9.1488 C   0  0  0  0  0  0  0  0  0  0  0  0
   19.2571    3.5920    9.2713 O   0  0  0  0  0  0  0  0  0  0  0  0
   20.5562    3.2171    9.5713 C   0  0  0  0  0  0  0  0  0  0  0  0
 23 24  1  0  0  0
 23 22  1  0  0  0
  1  2  2  0  0  0
  1  3  1  0  0  0
  1  7  1  0  0  0
  2  5  1  0  0  0
  2  8  1  0  0  0
  3  4  1  0  0  0
  3 18  1  0  0  0
  4 11  1  0  0  0
 12 13  1  0  0  0
 12 14  2  0  0  0
 12 15  2  0  0  0
 12  6  1  0  0  0
 24 25  1  0  0  0
 20 21  1  0  0  0
 21 18  1  0  0  0
  5  6  1  0  0  0
  6  7  2  0  0  0
  8  9  2  0  0  0
  8 10  2  0  0  0
  8 11  1  0  0  0
 11 22  1  0  0  0
 25 26  1  0  0  0
 13 16  1  0  0  0
 13 17  1  0  0  0
 18 19  1  0  0  0
M  END
> <minimizedAffinity>
-6.38767

$$$$
4M2R_BZ1_A_302


 26 27  0  0  0  0  0  0  0  0999 V2000
   19.5228    3.1955   11.3192 C   0  0  0  0  0  0  0  0  0  0  0  0
   19.9143    4.2115   12.1469 C   0  0  0  0  0  0  0  0  0  0  0  0
   18.4044    2.2082   11.3942 C   0  0  0  0  0  0  0  0  0  0  0  0
   17.3263    2.7562   12.2657 C   0  0  0  0  0  0  0  0  0  0  0  0
   21.2219    4.9581   11.4928 S   0  0  0  0  0  0  0  0  0  0  0  0
   21.3086    3.9481   10.1362 C   0  0  0  0  0  0  0  0  0  0  0  0
   20.2674    2.9889   10.1528 C   0  0  0  0  0  0  0  0  0  0  0  0
   18.9574    4.5242   13.5596 S   0  0  0  0  0  0  0  0  0  0  0  0
   18.7549    5.9525   13.3689 O   0  0  0  0  0  0  0  0  0  0  0  0
   19.6957    4.2150   14.7836 O   0  0  0  0  0  0  0  0  0  0  0  0
   17.5651    3.6408   13.3720 N   0  0  0  0  0  0  0  0  0  0  0  0
   22.5324    4.1659    8.9123 S   0  0  0  0  0  0  0  0  0  0  0  0
   23.8692    3.3643    9.3851 N   0  0  0  0  0  0  0  0  0  0  0  0
   22.6857    5.6150    8.8001 O   0  0  0  0  0  0  0  0  0  0  0  0
   22.0315    3.6520    7.6320 O   0  0  0  0  0  0  0  0  0  0  0  0
   24.6000    3.4780    8.6827 H   0  0  0  0  0  0  0  0  0  0  0  0
   23.6515    2.3735    9.4919 H   0  0  0  0  0  0  0  0  0  0  0  0
   18.8054    0.8635   11.7285 N   0  0  0  0  0  0  0  0  0  0  0  0
   19.3244    0.8819   12.6064 H   0  0  0  0  0  0  0  0  0  0  0  0
   17.7411   -1.4474   11.4204 C   0  0  0  0  0  0  0  0  0  0  0  0
   17.6667   -0.0121   11.8762 C   0  0  0  0  0  0  0  0  0  0  0  0
   16.3757    3.8530   14.1220 C   0  0  0  0  0  0  0  0  0  0  0  0
   15.9322    2.8358   15.1174 C   0  0  0  0  0  0  0  0  0  0  0  0
   16.9548    2.4404   16.1301 C   0  0  0  0  0  0  0  0  0  0  0  0
   17.4850    1.1657   16.1541 O   0  0  0  0  0  0  0  0  0  0  0  0
   16.8043    0.1244   15.5451 C   0  0  0  0  0  0  0  0  0  0  0  0
 23 24  1  0  0  0
 23 22  1  0  0  0
  1  2  2  0  0  0
  1  3  1  0  0  0
  1  7  1  0  0  0
  2  5  1  0  0  0
  2  8  1  0  0  0
  3  4  1  0  0  0
  3 18  1  0  0  0
  4 11  1  0  0  0
 12 13  1  0  0  0
 12 14  2  0  0  0
 12 15  2  0  0  0
 12  6  1  0  0  0
 24 25  1  0  0  0
 20 21  1  0  0  0
 21 18  1  0  0  0
  5  6  1  0  0  0
  6  7  2  0  0  0
  8  9  2  0  0  0
  8 10  2  0  0  0
  8 11  1  0  0  0
 11 22  1  0  0  0
 25 26  1  0  0  0
 13 16  1  0  0  0
 13 17  1  0  0  0
 18 19  1  0  0  0
M  END
> <minimizedAffinity>
-6.33040

$$$$
4M2R_BZ1_A_302


 26 27  0  0  0  0  0  0  0  0999 V2000
   19.6072    4.4252   12.5189 C   0  0  0  0  0  0  0  0  0  0  0  0
   19.2739    3.3448   11.7495 C   0  0  0  0  0  0  0  0  0  0  0  0
   18.8697    5.1722   13.5816 C   0  0  0  0  0  0  0  0  0  0  0  0
   17.8256    4.2843   14.1680 C   0  0  0  0  0  0  0  0  0  0  0  0
   20.5379    2.9791   10.7679 S   0  0  0  0  0  0  0  0  0  0  0  0
   21.5243    4.2419   11.3163 C   0  0  0  0  0  0  0  0  0  0  0  0
   20.8749    4.9867   12.3302 C   0  0  0  0  0  0  0  0  0  0  0  0
   17.7337    2.5953   12.0234 S   0  0  0  0  0  0  0  0  0  0  0  0
   18.1886    1.2217   12.1774 O   0  0  0  0  0  0  0  0  0  0  0  0
   16.8426    2.7720   10.8773 O   0  0  0  0  0  0  0  0  0  0  0  0
   17.1533    3.2484   13.4343 N   0  0  0  0  0  0  0  0  0  0  0  0
   23.1309    4.4870   10.6824 S   0  0  0  0  0  0  0  0  0  0  0  0
   24.1924    4.2807   11.9005 N   0  0  0  0  0  0  0  0  0  0  0  0
   23.0985    5.8309   10.1093 O   0  0  0  0  0  0  0  0  0  0  0  0
   23.3741    3.5266    9.5995 O   0  0  0  0  0  0  0  0  0  0  0  0
   25.1409    4.4195   11.5520 H   0  0  0  0  0  0  0  0  0  0  0  0
   24.1022    3.3357   12.2737 H   0  0  0  0  0  0  0  0  0  0  0  0
   18.3826    6.4699   13.1823 N   0  0  0  0  0  0  0  0  0  0  0  0
   17.4457    6.3659   12.7926 H   0  0  0  0  0  0  0  0  0  0  0  0
   19.5947    7.8752   14.9497 C   0  0  0  0  0  0  0  0  0  0  0  0
   18.3267    7.3856   14.2975 C   0  0  0  0  0  0  0  0  0  0  0  0
   16.0907    2.6901   14.1969 C   0  0  0  0  0  0  0  0  0  0  0  0
   16.3549    2.1612   15.5654 C   0  0  0  0  0  0  0  0  0  0  0  0
   16.6222    0.6951   15.6463 C   0  0  0  0  0  0  0  0  0  0  0  0
   15.8532   -0.1313   16.4415 O   0  0  0  0  0  0  0  0  0  0  0  0
   15.1083    0.4071   17.4776 C   0  0  0  0  0  0  0  0  0  0  0  0
 23 24  1  0  0  0
 23 22  1  0  0  0
  1  2  2  0  0  0
  1  3  1  0  0  0
  1  7  1  0  0  0
  2  5  1  0  0  0
  2  8  1  0  0  0
  3  4  1  0  0  0
  3 18  1  0  0  0
  4 11  1  0  0  0
 12 13  1  0  0  0
 12 14  2  0  0  0
 12 15  2  0  0  0
 12  6  1  0  0  0
 24 25  1  0  0  0
 20 21  1  0  0  0
 21 18  1  0  0  0
  5  6  1  0  0  0
  6  7  2  0  0  0
  8  9  2  0  0  0
  8 10  2  0  0  0
  8 11  1  0  0  0
 11 22  1  0  0  0
 25 26  1  0  0  0
 13 16  1  0  0  0
 13 17  1  0  0  0
 18 19  1  0  0  0
M  END
> <minimizedAffinity>
-6.32472

$$$$
4M2R_BZ1_A_302


 26 27  0  0  0  0  0  0  0  0999 V2000
   16.9761    2.0324   13.2409 C   0  0  0  0  0  0  0  0  0  0  0  0
   16.7127    3.3681   13.1109 C   0  0  0  0  0  0  0  0  0  0  0  0
   17.7081    1.0601   12.3749 C   0  0  0  0  0  0  0  0  0  0  0  0
   18.6605    1.8039   11.5020 C   0  0  0  0  0  0  0  0  0  0  0  0
   15.8724    3.8763   14.4264 S   0  0  0  0  0  0  0  0  0  0  0  0
   15.8196    2.3547   15.1680 C   0  0  0  0  0  0  0  0  0  0  0  0
   16.5019    1.3890   14.3894 C   0  0  0  0  0  0  0  0  0  0  0  0
   17.3562    4.1930   11.7272 S   0  0  0  0  0  0  0  0  0  0  0  0
   18.0044    5.2972   12.4187 O   0  0  0  0  0  0  0  0  0  0  0  0
   16.2920    4.6351   10.8266 O   0  0  0  0  0  0  0  0  0  0  0  0
   18.4344    3.1416   11.0301 N   0  0  0  0  0  0  0  0  0  0  0  0
   15.0382    2.1167   16.7093 S   0  0  0  0  0  0  0  0  0  0  0  0
   14.3005    3.5087   17.1230 N   0  0  0  0  0  0  0  0  0  0  0  0
   16.1133    1.6950   17.6049 O   0  0  0  0  0  0  0  0  0  0  0  0
   14.0714    1.0182   16.5958 O   0  0  0  0  0  0  0  0  0  0  0  0
   13.8356    3.3927   18.0234 H   0  0  0  0  0  0  0  0  0  0  0  0
   13.6099    3.7517   16.4127 H   0  0  0  0  0  0  0  0  0  0  0  0
   16.8662    0.1270   11.6669 N   0  0  0  0  0  0  0  0  0  0  0  0
   17.0174    0.2401   10.6645 H   0  0  0  0  0  0  0  0  0  0  0  0
   18.2339   -2.0112   11.3126 C   0  0  0  0  0  0  0  0  0  0  0  0
   17.1577   -1.2391   12.0329 C   0  0  0  0  0  0  0  0  0  0  0  0
   19.4212    3.5211   10.0791 C   0  0  0  0  0  0  0  0  0  0  0  0
   20.8053    2.9776   10.1856 C   0  0  0  0  0  0  0  0  0  0  0  0
   21.9014    3.9609    9.9420 C   0  0  0  0  0  0  0  0  0  0  0  0
   23.1732    3.5467    9.5990 O   0  0  0  0  0  0  0  0  0  0  0  0
   24.0586    4.4434    9.0244 C   0  0  0  0  0  0  0  0  0  0  0  0
 23 24  1  0  0  0
 23 22  1  0  0  0
  1  2  2  0  0  0
  1  3  1  0  0  0
  1  7  1  0  0  0
  2  5  1  0  0  0
  2  8  1  0  0  0
  3  4  1  0  0  0
  3 18  1  0  0  0
  4 11  1  0  0  0
 12 13  1  0  0  0
 12 14  2  0  0  0
 12 15  2  0  0  0
 12  6  1  0  0  0
 24 25  1  0  0  0
 20 21  1  0  0  0
 21 18  1  0  0  0
  5  6  1  0  0  0
  6  7  2  0  0  0
  8  9  2  0  0  0
  8 10  2  0  0  0
  8 11  1  0  0  0
 11 22  1  0  0  0
 25 26  1  0  0  0
 13 16  1  0  0  0
 13 17  1  0  0  0
 18 19  1  0  0  0
M  END
> <minimizedAffinity>
-6.11924

$$$$
4M2R_BZ1_A_302


 26 27  0  0  0  0  0  0  0  0999 V2000
   17.7079    3.3138   11.7408 C   0  0  0  0  0  0  0  0  0  0  0  0
   18.1726    4.4089   12.4154 C   0  0  0  0  0  0  0  0  0  0  0  0
   17.2315    1.9744   12.1993 C   0  0  0  0  0  0  0  0  0  0  0  0
   16.7788    2.0754   13.6161 C   0  0  0  0  0  0  0  0  0  0  0  0
   18.5204    5.5935   11.3335 S   0  0  0  0  0  0  0  0  0  0  0  0
   18.0941    4.6825    9.9709 C   0  0  0  0  0  0  0  0  0  0  0  0
   17.6315    3.3982   10.3462 C   0  0  0  0  0  0  0  0  0  0  0  0
   18.2047    4.3433   14.1485 S   0  0  0  0  0  0  0  0  0  0  0  0
   17.4954    5.5839   14.4228 O   0  0  0  0  0  0  0  0  0  0  0  0
   19.5758    4.3500   14.6577 O   0  0  0  0  0  0  0  0  0  0  0  0
   17.3369    2.9930   14.5699 N   0  0  0  0  0  0  0  0  0  0  0  0
   18.2064    5.3420    8.3599 S   0  0  0  0  0  0  0  0  0  0  0  0
   18.4623    6.9456    8.4862 N   0  0  0  0  0  0  0  0  0  0  0  0
   16.9483    4.9636    7.7196 O   0  0  0  0  0  0  0  0  0  0  0  0
   19.3068    4.6846    7.6449 O   0  0  0  0  0  0  0  0  0  0  0  0
   18.5315    7.3534    7.5539 H   0  0  0  0  0  0  0  0  0  0  0  0
   19.3303    7.1123    8.9955 H   0  0  0  0  0  0  0  0  0  0  0  0
   18.1472    0.8881   11.9497 N   0  0  0  0  0  0  0  0  0  0  0  0
   18.5480    0.5832   12.8366 H   0  0  0  0  0  0  0  0  0  0  0  0
   18.0933   -1.6125   11.3910 C   0  0  0  0  0  0  0  0  0  0  0  0
   17.4871   -0.2336   11.3241 C   0  0  0  0  0  0  0  0  0  0  0  0
   16.8343    2.7401   15.8759 C   0  0  0  0  0  0  0  0  0  0  0  0
   15.5817    1.9511   16.0514 C   0  0  0  0  0  0  0  0  0  0  0  0
   15.7082    0.7249   16.8929 C   0  0  0  0  0  0  0  0  0  0  0  0
   15.5115    0.7691   18.2589 O   0  0  0  0  0  0  0  0  0  0  0  0
   15.0525    1.9335   18.8519 C   0  0  0  0  0  0  0  0  0  0  0  0
 23 24  1  0  0  0
 23 22  1  0  0  0
  1  2  2  0  0  0
  1  3  1  0  0  0
  1  7  1  0  0  0
  2  5  1  0  0  0
  2  8  1  0  0  0
  3  4  1  0  0  0
  3 18  1  0  0  0
  4 11  1  0  0  0
 12 13  1  0  0  0
 12 14  2  0  0  0
 12 15  2  0  0  0
 12  6  1  0  0  0
 24 25  1  0  0  0
 20 21  1  0  0  0
 21 18  1  0  0  0
  5  6  1  0  0  0
  6  7  2  0  0  0
  8  9  2  0  0  0
  8 10  2  0  0  0
  8 11  1  0  0  0
 11 22  1  0  0  0
 25 26  1  0  0  0
 13 16  1  0  0  0
 13 17  1  0  0  0
 18 19  1  0  0  0
M  END
> <minimizedAffinity>
-6.11797

$$$$
4M2R_BZ1_A_302


 26 27  0  0  0  0  0  0  0  0999 V2000
   19.0320    4.5617   12.4256 C   0  0  0  0  0  0  0  0  0  0  0  0
   18.7292    3.3655   11.8358 C   0  0  0  0  0  0  0  0  0  0  0  0
   18.2956    5.4195   13.4019 C   0  0  0  0  0  0  0  0  0  0  0  0
   17.3244    4.5774   14.1568 C   0  0  0  0  0  0  0  0  0  0  0  0
   19.9732    2.9219   10.8609 S   0  0  0  0  0  0  0  0  0  0  0  0
   20.9093    4.2975   11.1763 C   0  0  0  0  0  0  0  0  0  0  0  0
   20.2591    5.1503   12.1007 C   0  0  0  0  0  0  0  0  0  0  0  0
   17.2436    2.5905   12.2845 S   0  0  0  0  0  0  0  0  0  0  0  0
   17.7782    1.2778   12.6140 O   0  0  0  0  0  0  0  0  0  0  0  0
   16.3015    2.5542   11.1664 O   0  0  0  0  0  0  0  0  0  0  0  0
   16.6822    3.4140   13.6113 N   0  0  0  0  0  0  0  0  0  0  0  0
   22.4750    4.5247   10.4415 S   0  0  0  0  0  0  0  0  0  0  0  0
   22.4610    3.7959    8.9849 N   0  0  0  0  0  0  0  0  0  0  0  0
   23.4185    3.9636   11.4064 O   0  0  0  0  0  0  0  0  0  0  0  0
   22.7435    5.9619   10.3122 O   0  0  0  0  0  0  0  0  0  0  0  0
   23.3689    3.9162    8.5358 H   0  0  0  0  0  0  0  0  0  0  0  0
   21.7355    4.2140    8.4025 H   0  0  0  0  0  0  0  0  0  0  0  0
   17.7238    6.6198   12.8422 N   0  0  0  0  0  0  0  0  0  0  0  0
   18.3320    6.9594   12.0972 H   0  0  0  0  0  0  0  0  0  0  0  0
   16.1961    6.3097   10.8080 C   0  0  0  0  0  0  0  0  0  0  0  0
   16.4072    6.3811   12.2992 C   0  0  0  0  0  0  0  0  0  0  0  0
   15.6813    2.9225   14.4938 C   0  0  0  0  0  0  0  0  0  0  0  0
   16.0100    2.6718   15.9261 C   0  0  0  0  0  0  0  0  0  0  0  0
   16.8349    1.4568   16.1921 C   0  0  0  0  0  0  0  0  0  0  0  0
   16.3803    0.4480   17.0182 O   0  0  0  0  0  0  0  0  0  0  0  0
   15.0600    0.4421   17.4366 C   0  0  0  0  0  0  0  0  0  0  0  0
 23 24  1  0  0  0
 23 22  1  0  0  0
  1  2  2  0  0  0
  1  3  1  0  0  0
  1  7  1  0  0  0
  2  5  1  0  0  0
  2  8  1  0  0  0
  3  4  1  0  0  0
  3 18  1  0  0  0
  4 11  1  0  0  0
 12 13  1  0  0  0
 12 14  2  0  0  0
 12 15  2  0  0  0
 12  6  1  0  0  0
 24 25  1  0  0  0
 20 21  1  0  0  0
 21 18  1  0  0  0
  5  6  1  0  0  0
  6  7  2  0  0  0
  8  9  2  0  0  0
  8 10  2  0  0  0
  8 11  1  0  0  0
 11 22  1  0  0  0
 25 26  1  0  0  0
 13 16  1  0  0  0
 13 17  1  0  0  0
 18 19  1  0  0  0
M  END
> <minimizedAffinity>
-5.88561

$$$$
4M2R_BZ1_A_302


 26 27  0  0  0  0  0  0  0  0999 V2000
   17.0412    2.6735   13.5512 C   0  0  0  0  0  0  0  0  0  0  0  0
   18.1011    3.2856   12.9411 C   0  0  0  0  0  0  0  0  0  0  0  0
   16.1708    3.0713   14.6982 C   0  0  0  0  0  0  0  0  0  0  0  0
   16.2099    4.5538   14.8501 C   0  0  0  0  0  0  0  0  0  0  0  0
   18.6249    2.3388   11.7065 S   0  0  0  0  0  0  0  0  0  0  0  0
   17.4924    1.1076   11.9703 C   0  0  0  0  0  0  0  0  0  0  0  0
   16.6354    1.4319   13.0496 C   0  0  0  0  0  0  0  0  0  0  0  0
   18.5687    4.8572   13.5070 S   0  0  0  0  0  0  0  0  0  0  0  0
   18.5771    5.5514   12.2281 O   0  0  0  0  0  0  0  0  0  0  0  0
   19.8853    4.8257   14.1432 O   0  0  0  0  0  0  0  0  0  0  0  0
   17.3479    5.3622   14.5112 N   0  0  0  0  0  0  0  0  0  0  0  0
   17.4414   -0.3170   10.9648 S   0  0  0  0  0  0  0  0  0  0  0  0
   16.8309    0.1080    9.5158 N   0  0  0  0  0  0  0  0  0  0  0  0
   16.6344   -1.2719   11.7216 O   0  0  0  0  0  0  0  0  0  0  0  0
   18.7979   -0.8608   10.8293 O   0  0  0  0  0  0  0  0  0  0  0  0
   16.7917   -0.7116    8.9098 H   0  0  0  0  0  0  0  0  0  0  0  0
   17.4277    0.8173    9.0902 H   0  0  0  0  0  0  0  0  0  0  0  0
   16.4136    2.3472   15.9219 N   0  0  0  0  0  0  0  0  0  0  0  0
   17.1493    2.8211   16.4460 H   0  0  0  0  0  0  0  0  0  0  0  0
   14.5895    0.9414   17.0463 C   0  0  0  0  0  0  0  0  0  0  0  0
   15.2278    2.2731   16.7427 C   0  0  0  0  0  0  0  0  0  0  0  0
   17.1594    6.7089   14.9273 C   0  0  0  0  0  0  0  0  0  0  0  0
   18.3316    7.5294   15.3455 C   0  0  0  0  0  0  0  0  0  0  0  0
   18.8466    8.4829   14.3191 C   0  0  0  0  0  0  0  0  0  0  0  0
   19.4636    9.6635   14.6825 O   0  0  0  0  0  0  0  0  0  0  0  0
   20.4902    9.6470   15.6122 C   0  0  0  0  0  0  0  0  0  0  0  0
 23 24  1  0  0  0
 23 22  1  0  0  0
  1  2  2  0  0  0
  1  3  1  0  0  0
  1  7  1  0  0  0
  2  5  1  0  0  0
  2  8  1  0  0  0
  3  4  1  0  0  0
  3 18  1  0  0  0
  4 11  1  0  0  0
 12 13  1  0  0  0
 12 14  2  0  0  0
 12 15  2  0  0  0
 12  6  1  0  0  0
 24 25  1  0  0  0
 20 21  1  0  0  0
 21 18  1  0  0  0
  5  6  1  0  0  0
  6  7  2  0  0  0
  8  9  2  0  0  0
  8 10  2  0  0  0
  8 11  1  0  0  0
 11 22  1  0  0  0
 25 26  1  0  0  0
 13 16  1  0  0  0
 13 17  1  0  0  0
 18 19  1  0  0  0
M  END
> <minimizedAffinity>
-5.80553

$$$$
