4YMQ_ZBD_A_603


 42 44  0  0  0  0  0  0  0  0999 V2000
   -6.7898   28.8243   16.0584 N   0  0  0  0  0  0  0  0  0  0  0  0
   -5.9269   28.9595   17.1650 C   0  0  0  0  0  0  0  0  0  0  0  0
   -3.6572   28.7735   17.9372 C   0  0  0  0  0  0  0  0  0  0  0  0
   -5.3746   29.3978   19.4780 C   0  0  0  0  0  0  0  0  0  0  0  0
   -5.7582   29.4476   13.8556 O   0  0  0  0  0  0  0  0  0  0  0  0
   -5.8018   28.3755   14.7901 S   0  0  0  0  0  0  0  0  0  0  0  0
   -6.1327   27.0349   14.4345 O   0  0  0  0  0  0  0  0  0  0  0  0
   -4.5929   28.7012   16.8967 C   0  0  0  0  0  0  0  0  0  0  0  0
   -4.3219   28.3474   15.5605 N   0  0  0  0  0  0  0  0  0  0  0  0
   -4.0489   29.1094   19.2184 C   0  0  0  0  0  0  0  0  0  0  0  0
   -6.3077   29.3076   18.4651 C   0  0  0  0  0  0  0  0  0  0  0  0
   -8.2427   29.0280   16.0494 C   0  0  0  0  0  0  0  0  0  0  0  0
   -8.9589   27.7223   15.8241 C   0  0  0  0  0  0  0  0  0  0  0  0
   -9.6217   25.5523   16.5792 C   0  0  0  0  0  0  0  0  0  0  0  0
   -9.6274   27.5085   14.6345 C   0  0  0  0  0  0  0  0  0  0  0  0
  -10.2908   26.3121   14.4186 C   0  0  0  0  0  0  0  0  0  0  0  0
  -10.2993   25.3280   15.3927 C   0  0  0  0  0  0  0  0  0  0  0  0
   -8.9547   26.7450   16.8016 C   0  0  0  0  0  0  0  0  0  0  0  0
  -11.0254   24.0236   15.1265 C   0  0  0  0  0  0  0  0  0  0  0  0
  -11.7776   24.1912   13.9238 O   0  0  0  0  0  0  0  0  0  0  0  0
  -12.4106   24.9175   14.0369 H   0  0  0  0  0  0  0  0  0  0  0  0
  -10.0358   22.8649   14.9052 C   0  0  0  0  0  0  0  0  0  0  0  0
   -9.1225   22.7615   15.9596 F   0  0  0  0  0  0  0  0  0  0  0  0
  -10.7658   21.6770   14.8333 F   0  0  0  0  0  0  0  0  0  0  0  0
   -9.3278   23.0224   13.7121 F   0  0  0  0  0  0  0  0  0  0  0  0
  -11.9888   23.6800   16.2810 C   0  0  0  0  0  0  0  0  0  0  0  0
  -13.0500   22.8949   15.8314 F   0  0  0  0  0  0  0  0  0  0  0  0
  -12.5046   24.8614   16.8252 F   0  0  0  0  0  0  0  0  0  0  0  0
  -11.3209   22.9894   17.2955 F   0  0  0  0  0  0  0  0  0  0  0  0
   -3.0218   28.0182   14.9732 C   0  0  0  0  0  0  0  0  0  0  0  0
   -2.9437   26.4963   14.8342 C   0  0  0  0  0  0  0  0  0  0  0  0
   -1.9193   26.1452   13.7605 C   0  0  0  0  0  0  0  0  0  0  0  0
   -1.3306   24.7783   14.0288 C   0  0  0  0  0  0  0  0  0  0  0  0
   -0.2616   24.6769   14.8392 N   0  0  0  0  0  0  0  0  0  0  0  0
    0.2846   25.8980   15.4326 C   0  0  0  0  0  0  0  0  0  0  0  0
   -1.8042   23.7789   13.5207 O   0  0  0  0  0  0  0  0  0  0  0  0
    0.3326   23.3550   15.0960 C   0  0  0  0  0  0  0  0  0  0  0  0
   -0.1634   22.8327   16.4442 C   0  0  0  0  0  0  0  0  0  0  0  0
    1.8729   23.3900   14.9698 C   0  0  0  0  0  0  0  0  0  0  0  0
    2.6220   22.4744   15.9496 C   0  0  0  0  0  0  0  0  0  0  0  0
    3.0721   21.2791   15.3016 O   0  0  0  0  0  0  0  0  0  0  0  0
    2.3079   20.7890   14.9602 H   0  0  0  0  0  0  0  0  0  0  0  0
  5  6  2  0  0  0
 36 33  2  0  0  0
 20 19  1  0  0  0
 28 26  1  0  0  0
 32 33  1  0  0  0
 32 31  1  0  0  0
 16 15  2  0  0  0
 16 17  1  0  0  0
  7  6  2  0  0  0
 33 34  1  0  0  0
 15 13  1  0  0  0
  6  9  1  0  0  0
  6  1  1  0  0  0
 29 26  1  0  0  0
 31 30  1  0  0  0
 26 19  1  0  0  0
 26 27  1  0  0  0
 30  9  1  0  0  0
 34 37  1  0  0  0
 34 35  1  0  0  0
 19 17  1  0  0  0
 19 22  1  0  0  0
 39 37  1  0  0  0
 39 40  1  0  0  0
 17 14  2  0  0  0
 37 38  1  0  0  0
  9  8  1  0  0  0
 13 12  1  0  0  0
 13 18  2  0  0  0
 12  1  1  0  0  0
 24 22  1  0  0  0
  1  2  1  0  0  0
 22 25  1  0  0  0
 22 23  1  0  0  0
 14 18  1  0  0  0
 40 41  1  0  0  0
  8  2  2  0  0  0
  8  3  1  0  0  0
  2 11  1  0  0  0
  3 10  2  0  0  0
 11  4  2  0  0  0
 10  4  1  0  0  0
 41 42  1  0  0  0
 20 21  1  0  0  0
M  END
> <minimizedAffinity>
-10.98887

$$$$
4YMQ_ZBD_A_603


 42 44  0  0  0  0  0  0  0  0999 V2000
   -6.7339   28.8467   15.9672 N   0  0  0  0  0  0  0  0  0  0  0  0
   -5.9123   28.9678   17.1064 C   0  0  0  0  0  0  0  0  0  0  0  0
   -3.6791   28.7368   17.9676 C   0  0  0  0  0  0  0  0  0  0  0  0
   -5.4419   29.4033   19.4380 C   0  0  0  0  0  0  0  0  0  0  0  0
   -5.6038   29.4396   13.8047 O   0  0  0  0  0  0  0  0  0  0  0  0
   -5.7067   28.3722   14.7400 S   0  0  0  0  0  0  0  0  0  0  0  0
   -6.0519   27.0376   14.3757 O   0  0  0  0  0  0  0  0  0  0  0  0
   -4.5746   28.6804   16.8914 C   0  0  0  0  0  0  0  0  0  0  0  0
   -4.2591   28.3159   15.5680 N   0  0  0  0  0  0  0  0  0  0  0  0
   -4.1134   29.0858   19.2314 C   0  0  0  0  0  0  0  0  0  0  0  0
   -6.3362   29.3289   18.3895 C   0  0  0  0  0  0  0  0  0  0  0  0
   -8.1806   29.0810   15.9006 C   0  0  0  0  0  0  0  0  0  0  0  0
   -8.9260   27.7739   15.8331 C   0  0  0  0  0  0  0  0  0  0  0  0
   -9.6938   25.7578   16.8647 C   0  0  0  0  0  0  0  0  0  0  0  0
   -9.5416   27.4009   14.6543 C   0  0  0  0  0  0  0  0  0  0  0  0
  -10.2313   26.2020   14.5828 C   0  0  0  0  0  0  0  0  0  0  0  0
  -10.3190   25.3750   15.6900 C   0  0  0  0  0  0  0  0  0  0  0  0
   -9.0010   26.9539   16.9434 C   0  0  0  0  0  0  0  0  0  0  0  0
  -11.0722   24.0634   15.5815 C   0  0  0  0  0  0  0  0  0  0  0  0
  -11.2491   23.5615   16.9071 O   0  0  0  0  0  0  0  0  0  0  0  0
  -10.3819   23.4242   17.3193 H   0  0  0  0  0  0  0  0  0  0  0  0
  -12.4684   24.2668   14.9649 C   0  0  0  0  0  0  0  0  0  0  0  0
  -13.1801   23.0644   14.8980 F   0  0  0  0  0  0  0  0  0  0  0  0
  -13.1765   25.1563   15.7752 F   0  0  0  0  0  0  0  0  0  0  0  0
  -12.3827   24.8096   13.6812 F   0  0  0  0  0  0  0  0  0  0  0  0
  -10.2759   23.0339   14.7537 C   0  0  0  0  0  0  0  0  0  0  0  0
  -10.6075   21.7304   15.1219 F   0  0  0  0  0  0  0  0  0  0  0  0
   -8.9060   23.2246   14.9655 F   0  0  0  0  0  0  0  0  0  0  0  0
  -10.5307   23.1910   13.3890 F   0  0  0  0  0  0  0  0  0  0  0  0
   -2.9443   27.9570   15.0331 C   0  0  0  0  0  0  0  0  0  0  0  0
   -2.9503   26.4536   14.7478 C   0  0  0  0  0  0  0  0  0  0  0  0
   -1.8734   26.1373   13.7155 C   0  0  0  0  0  0  0  0  0  0  0  0
   -1.2799   24.7723   13.9828 C   0  0  0  0  0  0  0  0  0  0  0  0
   -0.2162   24.6730   14.8004 N   0  0  0  0  0  0  0  0  0  0  0  0
    0.3198   25.8945   15.4022 C   0  0  0  0  0  0  0  0  0  0  0  0
   -1.7450   23.7725   13.4676 O   0  0  0  0  0  0  0  0  0  0  0  0
    0.3827   23.3529   15.0564 C   0  0  0  0  0  0  0  0  0  0  0  0
   -0.1365   22.8139   16.3892 C   0  0  0  0  0  0  0  0  0  0  0  0
    1.9249   23.4005   14.9618 C   0  0  0  0  0  0  0  0  0  0  0  0
    2.6606   22.4683   15.9361 C   0  0  0  0  0  0  0  0  0  0  0  0
    3.0235   21.2368   15.3014 O   0  0  0  0  0  0  0  0  0  0  0  0
    2.2227   20.7805   14.9992 H   0  0  0  0  0  0  0  0  0  0  0  0
  5  6  2  0  0  0
 36 33  2  0  0  0
 20 19  1  0  0  0
 28 26  1  0  0  0
 32 33  1  0  0  0
 32 31  1  0  0  0
 16 15  2  0  0  0
 16 17  1  0  0  0
  7  6  2  0  0  0
 33 34  1  0  0  0
 15 13  1  0  0  0
  6  9  1  0  0  0
  6  1  1  0  0  0
 29 26  1  0  0  0
 31 30  1  0  0  0
 26 19  1  0  0  0
 26 27  1  0  0  0
 30  9  1  0  0  0
 34 37  1  0  0  0
 34 35  1  0  0  0
 19 17  1  0  0  0
 19 22  1  0  0  0
 39 37  1  0  0  0
 39 40  1  0  0  0
 17 14  2  0  0  0
 37 38  1  0  0  0
  9  8  1  0  0  0
 13 12  1  0  0  0
 13 18  2  0  0  0
 12  1  1  0  0  0
 24 22  1  0  0  0
  1  2  1  0  0  0
 22 25  1  0  0  0
 22 23  1  0  0  0
 14 18  1  0  0  0
 40 41  1  0  0  0
  8  2  2  0  0  0
  8  3  1  0  0  0
  2 11  1  0  0  0
  3 10  2  0  0  0
 11  4  2  0  0  0
 10  4  1  0  0  0
 41 42  1  0  0  0
 20 21  1  0  0  0
M  END
> <minimizedAffinity>
-10.83054

$$$$
4YMQ_ZBD_A_603


 42 44  0  0  0  0  0  0  0  0999 V2000
   -6.5553   28.9145   15.9556 N   0  0  0  0  0  0  0  0  0  0  0  0
   -5.8305   29.0458   17.1576 C   0  0  0  0  0  0  0  0  0  0  0  0
   -3.6563   28.9317   18.1784 C   0  0  0  0  0  0  0  0  0  0  0  0
   -5.5650   29.4202   19.5317 C   0  0  0  0  0  0  0  0  0  0  0  0
   -5.3129   29.6661   13.9070 O   0  0  0  0  0  0  0  0  0  0  0  0
   -5.4098   28.5585   14.7949 S   0  0  0  0  0  0  0  0  0  0  0  0
   -5.6330   27.2190   14.3602 O   0  0  0  0  0  0  0  0  0  0  0  0
   -4.4638   28.8575   17.0357 C   0  0  0  0  0  0  0  0  0  0  0  0
   -4.0268   28.5671   15.7285 N   0  0  0  0  0  0  0  0  0  0  0  0
   -4.2060   29.2010   19.4165 C   0  0  0  0  0  0  0  0  0  0  0  0
   -6.3722   29.3271   18.4162 C   0  0  0  0  0  0  0  0  0  0  0  0
   -8.0060   29.0535   15.7868 C   0  0  0  0  0  0  0  0  0  0  0  0
   -8.6588   27.7003   15.6805 C   0  0  0  0  0  0  0  0  0  0  0  0
   -9.7045   25.9881   14.3792 C   0  0  0  0  0  0  0  0  0  0  0  0
   -8.7981   26.9205   16.8120 C   0  0  0  0  0  0  0  0  0  0  0  0
   -9.3949   25.6738   16.7242 C   0  0  0  0  0  0  0  0  0  0  0  0
   -9.8456   25.1951   15.5055 C   0  0  0  0  0  0  0  0  0  0  0  0
   -9.1105   27.2362   14.4594 C   0  0  0  0  0  0  0  0  0  0  0  0
  -10.5040   23.8307   15.4394 C   0  0  0  0  0  0  0  0  0  0  0  0
  -10.7595   23.5460   14.0631 O   0  0  0  0  0  0  0  0  0  0  0  0
  -11.3454   24.2261   13.6955 H   0  0  0  0  0  0  0  0  0  0  0  0
   -9.5733   22.7310   15.9827 C   0  0  0  0  0  0  0  0  0  0  0  0
   -9.1535   23.0120   17.2871 F   0  0  0  0  0  0  0  0  0  0  0  0
  -10.2820   21.5281   15.9949 F   0  0  0  0  0  0  0  0  0  0  0  0
   -8.4469   22.5729   15.1729 F   0  0  0  0  0  0  0  0  0  0  0  0
  -11.8383   23.8211   16.2132 C   0  0  0  0  0  0  0  0  0  0  0  0
  -12.4393   25.0792   16.1917 F   0  0  0  0  0  0  0  0  0  0  0  0
  -11.6027   23.4597   17.5443 F   0  0  0  0  0  0  0  0  0  0  0  0
  -12.7250   22.8931   15.6613 F   0  0  0  0  0  0  0  0  0  0  0  0
   -2.6543   28.3185   15.2837 C   0  0  0  0  0  0  0  0  0  0  0  0
   -2.1928   26.9991   15.9065 C   0  0  0  0  0  0  0  0  0  0  0  0
   -1.1037   26.3881   15.0313 C   0  0  0  0  0  0  0  0  0  0  0  0
   -1.5499   25.0412   14.5081 C   0  0  0  0  0  0  0  0  0  0  0  0
   -2.1387   24.9738   13.3004 N   0  0  0  0  0  0  0  0  0  0  0  0
   -2.3184   26.2110   12.5398 C   0  0  0  0  0  0  0  0  0  0  0  0
   -1.3894   24.0278   15.1626 O   0  0  0  0  0  0  0  0  0  0  0  0
   -2.5936   23.6719   12.7856 C   0  0  0  0  0  0  0  0  0  0  0  0
   -2.0273   23.4593   11.3819 C   0  0  0  0  0  0  0  0  0  0  0  0
   -4.1314   23.5356   12.8643 C   0  0  0  0  0  0  0  0  0  0  0  0
   -4.6813   23.2257   14.2647 C   0  0  0  0  0  0  0  0  0  0  0  0
   -5.5103   24.2908   14.7438 O   0  0  0  0  0  0  0  0  0  0  0  0
   -4.9879   25.1060   14.8022 H   0  0  0  0  0  0  0  0  0  0  0  0
  5  6  2  0  0  0
 36 33  2  0  0  0
 20 19  1  0  0  0
 28 26  1  0  0  0
 32 33  1  0  0  0
 32 31  1  0  0  0
 16 15  2  0  0  0
 16 17  1  0  0  0
  7  6  2  0  0  0
 33 34  1  0  0  0
 15 13  1  0  0  0
  6  9  1  0  0  0
  6  1  1  0  0  0
 29 26  1  0  0  0
 31 30  1  0  0  0
 26 19  1  0  0  0
 26 27  1  0  0  0
 30  9  1  0  0  0
 34 37  1  0  0  0
 34 35  1  0  0  0
 19 17  1  0  0  0
 19 22  1  0  0  0
 39 37  1  0  0  0
 39 40  1  0  0  0
 17 14  2  0  0  0
 37 38  1  0  0  0
  9  8  1  0  0  0
 13 12  1  0  0  0
 13 18  2  0  0  0
 12  1  1  0  0  0
 24 22  1  0  0  0
  1  2  1  0  0  0
 22 25  1  0  0  0
 22 23  1  0  0  0
 14 18  1  0  0  0
 40 41  1  0  0  0
  8  2  2  0  0  0
  8  3  1  0  0  0
  2 11  1  0  0  0
  3 10  2  0  0  0
 11  4  2  0  0  0
 10  4  1  0  0  0
 41 42  1  0  0  0
 20 21  1  0  0  0
M  END
> <minimizedAffinity>
-10.09214

$$$$
4YMQ_ZBD_A_603


 42 44  0  0  0  0  0  0  0  0999 V2000
   -6.2227   26.6358   13.6154 N   0  0  0  0  0  0  0  0  0  0  0  0
   -6.1763   27.5700   14.6702 C   0  0  0  0  0  0  0  0  0  0  0  0
   -4.8423   28.4708   16.4567 C   0  0  0  0  0  0  0  0  0  0  0  0
   -7.0615   29.2920   16.1186 C   0  0  0  0  0  0  0  0  0  0  0  0
   -4.0271   26.2737   12.4521 O   0  0  0  0  0  0  0  0  0  0  0  0
   -4.7290   25.8911   13.6293 S   0  0  0  0  0  0  0  0  0  0  0  0
   -4.9230   24.5347   14.0236 O   0  0  0  0  0  0  0  0  0  0  0  0
   -4.9795   27.6011   15.3666 C   0  0  0  0  0  0  0  0  0  0  0  0
   -4.0077   26.6933   14.9023 N   0  0  0  0  0  0  0  0  0  0  0  0
   -5.8797   29.3011   16.8338 C   0  0  0  0  0  0  0  0  0  0  0  0
   -7.2149   28.4231   15.0574 C   0  0  0  0  0  0  0  0  0  0  0  0
   -7.3557   26.3816   12.7185 C   0  0  0  0  0  0  0  0  0  0  0  0
   -8.4157   25.5740   13.4204 C   0  0  0  0  0  0  0  0  0  0  0  0
  -10.4928   25.4377   14.5974 C   0  0  0  0  0  0  0  0  0  0  0  0
   -8.2749   24.2034   13.5175 C   0  0  0  0  0  0  0  0  0  0  0  0
   -9.2451   23.4517   14.1591 C   0  0  0  0  0  0  0  0  0  0  0  0
  -10.3654   24.0626   14.6971 C   0  0  0  0  0  0  0  0  0  0  0  0
   -9.5262   26.1962   13.9592 C   0  0  0  0  0  0  0  0  0  0  0  0
  -11.4077   23.2169   15.4026 C   0  0  0  0  0  0  0  0  0  0  0  0
  -11.0657   21.8473   15.1843 O   0  0  0  0  0  0  0  0  0  0  0  0
  -11.0634   21.6624   14.2321 H   0  0  0  0  0  0  0  0  0  0  0  0
  -11.4000   23.4677   16.9218 C   0  0  0  0  0  0  0  0  0  0  0  0
  -12.2971   22.6245   17.5858 F   0  0  0  0  0  0  0  0  0  0  0  0
  -10.1135   23.2095   17.3989 F   0  0  0  0  0  0  0  0  0  0  0  0
  -11.7250   24.7925   17.2197 F   0  0  0  0  0  0  0  0  0  0  0  0
  -12.8159   23.4829   14.8322 C   0  0  0  0  0  0  0  0  0  0  0  0
  -12.7659   23.7036   13.4562 F   0  0  0  0  0  0  0  0  0  0  0  0
  -13.3623   24.6144   15.4480 F   0  0  0  0  0  0  0  0  0  0  0  0
  -13.6641   22.4008   15.0804 F   0  0  0  0  0  0  0  0  0  0  0  0
   -2.6563   26.4905   15.4276 C   0  0  0  0  0  0  0  0  0  0  0  0
   -1.6898   27.2927   14.5535 C   0  0  0  0  0  0  0  0  0  0  0  0
   -0.7858   26.3278   13.7938 C   0  0  0  0  0  0  0  0  0  0  0  0
    0.1134   25.5872   14.7582 C   0  0  0  0  0  0  0  0  0  0  0  0
    0.4232   24.3028   14.5047 N   0  0  0  0  0  0  0  0  0  0  0  0
   -0.1214   23.6767   13.2993 C   0  0  0  0  0  0  0  0  0  0  0  0
    0.5514   26.1321   15.7544 O   0  0  0  0  0  0  0  0  0  0  0  0
    1.2835   23.5642   15.4433 C   0  0  0  0  0  0  0  0  0  0  0  0
    2.7488   23.8133   15.0866 C   0  0  0  0  0  0  0  0  0  0  0  0
    0.9031   22.0672   15.5051 C   0  0  0  0  0  0  0  0  0  0  0  0
   -0.2909   21.7414   16.4148 C   0  0  0  0  0  0  0  0  0  0  0  0
   -0.6273   22.8564   17.2484 O   0  0  0  0  0  0  0  0  0  0  0  0
    0.1285   23.0759   17.8153 H   0  0  0  0  0  0  0  0  0  0  0  0
  5  6  2  0  0  0
 36 33  2  0  0  0
 20 19  1  0  0  0
 28 26  1  0  0  0
 32 33  1  0  0  0
 32 31  1  0  0  0
 16 15  2  0  0  0
 16 17  1  0  0  0
  7  6  2  0  0  0
 33 34  1  0  0  0
 15 13  1  0  0  0
  6  9  1  0  0  0
  6  1  1  0  0  0
 29 26  1  0  0  0
 31 30  1  0  0  0
 26 19  1  0  0  0
 26 27  1  0  0  0
 30  9  1  0  0  0
 34 37  1  0  0  0
 34 35  1  0  0  0
 19 17  1  0  0  0
 19 22  1  0  0  0
 39 37  1  0  0  0
 39 40  1  0  0  0
 17 14  2  0  0  0
 37 38  1  0  0  0
  9  8  1  0  0  0
 13 12  1  0  0  0
 13 18  2  0  0  0
 12  1  1  0  0  0
 24 22  1  0  0  0
  1  2  1  0  0  0
 22 25  1  0  0  0
 22 23  1  0  0  0
 14 18  1  0  0  0
 40 41  1  0  0  0
  8  2  2  0  0  0
  8  3  1  0  0  0
  2 11  1  0  0  0
  3 10  2  0  0  0
 11  4  2  0  0  0
 10  4  1  0  0  0
 41 42  1  0  0  0
 20 21  1  0  0  0
M  END
> <minimizedAffinity>
-9.89877

$$$$
4YMQ_ZBD_A_603


 42 44  0  0  0  0  0  0  0  0999 V2000
   -6.2924   26.8510   13.4325 N   0  0  0  0  0  0  0  0  0  0  0  0
   -5.9211   27.6013   14.5669 C   0  0  0  0  0  0  0  0  0  0  0  0
   -4.1628   28.0706   16.1387 C   0  0  0  0  0  0  0  0  0  0  0  0
   -6.2752   29.1630   16.3787 C   0  0  0  0  0  0  0  0  0  0  0  0
   -4.4273   26.4435   11.8015 O   0  0  0  0  0  0  0  0  0  0  0  0
   -4.9368   25.9601   13.0389 S   0  0  0  0  0  0  0  0  0  0  0  0
   -5.2322   24.5871   13.2854 O   0  0  0  0  0  0  0  0  0  0  0  0
   -4.6203   27.3986   14.9974 C   0  0  0  0  0  0  0  0  0  0  0  0
   -3.8854   26.4761   14.2275 N   0  0  0  0  0  0  0  0  0  0  0  0
   -4.9884   28.9373   16.8276 C   0  0  0  0  0  0  0  0  0  0  0  0
   -6.7430   28.4890   15.2689 C   0  0  0  0  0  0  0  0  0  0  0  0
   -7.5990   26.8587   12.7655 C   0  0  0  0  0  0  0  0  0  0  0  0
   -8.6027   26.0628   13.5578 C   0  0  0  0  0  0  0  0  0  0  0  0
   -9.4863   23.9656   14.2921 C   0  0  0  0  0  0  0  0  0  0  0  0
   -9.5664   26.7229   14.2949 C   0  0  0  0  0  0  0  0  0  0  0  0
  -10.4924   26.0000   15.0285 C   0  0  0  0  0  0  0  0  0  0  0  0
  -10.4543   24.6158   15.0387 C   0  0  0  0  0  0  0  0  0  0  0  0
   -8.5584   24.6812   13.5548 C   0  0  0  0  0  0  0  0  0  0  0  0
  -11.4861   23.8489   15.8428 C   0  0  0  0  0  0  0  0  0  0  0  0
  -12.2651   24.8063   16.5619 O   0  0  0  0  0  0  0  0  0  0  0  0
  -11.6869   25.3187   17.1484 H   0  0  0  0  0  0  0  0  0  0  0  0
  -12.4389   23.0594   14.9265 C   0  0  0  0  0  0  0  0  0  0  0  0
  -12.7833   23.7954   13.7880 F   0  0  0  0  0  0  0  0  0  0  0  0
  -11.7858   21.8943   14.5201 F   0  0  0  0  0  0  0  0  0  0  0  0
  -13.6085   22.6996   15.5990 F   0  0  0  0  0  0  0  0  0  0  0  0
  -10.8084   22.8933   16.8462 C   0  0  0  0  0  0  0  0  0  0  0  0
  -11.6475   22.6236   17.9268 F   0  0  0  0  0  0  0  0  0  0  0  0
   -9.6326   23.4799   17.3274 F   0  0  0  0  0  0  0  0  0  0  0  0
  -10.4710   21.6854   16.2304 F   0  0  0  0  0  0  0  0  0  0  0  0
   -2.4983   26.0537   14.4296 C   0  0  0  0  0  0  0  0  0  0  0  0
   -2.2611   24.8049   13.5775 C   0  0  0  0  0  0  0  0  0  0  0  0
   -1.7019   23.6959   14.4623 C   0  0  0  0  0  0  0  0  0  0  0  0
   -0.1922   23.6728   14.3775 C   0  0  0  0  0  0  0  0  0  0  0  0
    0.5153   23.2927   15.4568 N   0  0  0  0  0  0  0  0  0  0  0  0
   -0.2096   22.9118   16.6696 C   0  0  0  0  0  0  0  0  0  0  0  0
    0.3853   23.9962   13.3562 O   0  0  0  0  0  0  0  0  0  0  0  0
    1.9858   23.2817   15.3945 C   0  0  0  0  0  0  0  0  0  0  0  0
    2.4872   21.8492   15.5767 C   0  0  0  0  0  0  0  0  0  0  0  0
    2.6044   24.2897   16.3899 C   0  0  0  0  0  0  0  0  0  0  0  0
    2.3965   25.7673   16.0255 C   0  0  0  0  0  0  0  0  0  0  0  0
    1.4131   26.3764   16.8699 O   0  0  0  0  0  0  0  0  0  0  0  0
    0.5645   25.9197   16.7595 H   0  0  0  0  0  0  0  0  0  0  0  0
  5  6  2  0  0  0
 36 33  2  0  0  0
 20 19  1  0  0  0
 28 26  1  0  0  0
 32 33  1  0  0  0
 32 31  1  0  0  0
 16 15  2  0  0  0
 16 17  1  0  0  0
  7  6  2  0  0  0
 33 34  1  0  0  0
 15 13  1  0  0  0
  6  9  1  0  0  0
  6  1  1  0  0  0
 29 26  1  0  0  0
 31 30  1  0  0  0
 26 19  1  0  0  0
 26 27  1  0  0  0
 30  9  1  0  0  0
 34 37  1  0  0  0
 34 35  1  0  0  0
 19 17  1  0  0  0
 19 22  1  0  0  0
 39 37  1  0  0  0
 39 40  1  0  0  0
 17 14  2  0  0  0
 37 38  1  0  0  0
  9  8  1  0  0  0
 13 12  1  0  0  0
 13 18  2  0  0  0
 12  1  1  0  0  0
 24 22  1  0  0  0
  1  2  1  0  0  0
 22 25  1  0  0  0
 22 23  1  0  0  0
 14 18  1  0  0  0
 40 41  1  0  0  0
  8  2  2  0  0  0
  8  3  1  0  0  0
  2 11  1  0  0  0
  3 10  2  0  0  0
 11  4  2  0  0  0
 10  4  1  0  0  0
 41 42  1  0  0  0
 20 21  1  0  0  0
M  END
> <minimizedAffinity>
-9.87325

$$$$
4YMQ_ZBD_A_603


 42 44  0  0  0  0  0  0  0  0999 V2000
   -4.7363   25.3297   12.9866 N   0  0  0  0  0  0  0  0  0  0  0  0
   -5.1272   26.5553   13.5633 C   0  0  0  0  0  0  0  0  0  0  0  0
   -6.7226   27.6489   14.9919 C   0  0  0  0  0  0  0  0  0  0  0  0
   -4.9920   28.9364   13.9619 C   0  0  0  0  0  0  0  0  0  0  0  0
   -5.1374   23.3231   14.4418 O   0  0  0  0  0  0  0  0  0  0  0  0
   -5.8279   24.2089   13.5682 S   0  0  0  0  0  0  0  0  0  0  0  0
   -6.6254   23.7688   12.4711 O   0  0  0  0  0  0  0  0  0  0  0  0
   -6.2313   26.4798   14.3960 C   0  0  0  0  0  0  0  0  0  0  0  0
   -6.7783   25.1885   14.5280 N   0  0  0  0  0  0  0  0  0  0  0  0
   -6.1123   28.8674   14.7672 C   0  0  0  0  0  0  0  0  0  0  0  0
   -4.5137   27.7944   13.3522 C   0  0  0  0  0  0  0  0  0  0  0  0
   -3.6147   25.1119   12.0663 C   0  0  0  0  0  0  0  0  0  0  0  0
   -2.3604   24.7772   12.8301 C   0  0  0  0  0  0  0  0  0  0  0  0
   -0.1170   23.9515   12.8927 C   0  0  0  0  0  0  0  0  0  0  0  0
   -2.3099   25.0071   14.1911 C   0  0  0  0  0  0  0  0  0  0  0  0
   -1.1605   24.7047   14.9020 C   0  0  0  0  0  0  0  0  0  0  0  0
   -0.0526   24.1818   14.2565 C   0  0  0  0  0  0  0  0  0  0  0  0
   -1.2632   24.2495   12.1756 C   0  0  0  0  0  0  0  0  0  0  0  0
    1.1898   23.8507   15.0606 C   0  0  0  0  0  0  0  0  0  0  0  0
    2.2397   23.5776   14.1313 O   0  0  0  0  0  0  0  0  0  0  0  0
    1.9872   22.8287   13.5691 H   0  0  0  0  0  0  0  0  0  0  0  0
    1.6296   25.0423   15.9310 C   0  0  0  0  0  0  0  0  0  0  0  0
    2.7597   24.7309   16.6942 F   0  0  0  0  0  0  0  0  0  0  0  0
    1.9462   26.1062   15.0842 F   0  0  0  0  0  0  0  0  0  0  0  0
    0.6063   25.4492   16.7895 F   0  0  0  0  0  0  0  0  0  0  0  0
    0.9625   22.6079   15.9453 C   0  0  0  0  0  0  0  0  0  0  0  0
    2.1751   22.0702   16.3754 F   0  0  0  0  0  0  0  0  0  0  0  0
    0.2749   21.6337   15.2131 F   0  0  0  0  0  0  0  0  0  0  0  0
    0.1945   22.9312   17.0668 F   0  0  0  0  0  0  0  0  0  0  0  0
   -7.9371   24.7905   15.3294 C   0  0  0  0  0  0  0  0  0  0  0  0
   -7.6255   23.4309   15.9587 C   0  0  0  0  0  0  0  0  0  0  0  0
   -8.9346   22.7223   16.2895 C   0  0  0  0  0  0  0  0  0  0  0  0
   -9.9392   22.9384   15.1799 C   0  0  0  0  0  0  0  0  0  0  0  0
  -11.1928   23.3080   15.4988 N   0  0  0  0  0  0  0  0  0  0  0  0
  -11.5304   23.4905   16.9110 C   0  0  0  0  0  0  0  0  0  0  0  0
   -9.6318   22.7780   14.0133 O   0  0  0  0  0  0  0  0  0  0  0  0
  -12.1860   23.5053   14.4305 C   0  0  0  0  0  0  0  0  0  0  0  0
  -13.2122   24.5443   14.8821 C   0  0  0  0  0  0  0  0  0  0  0  0
  -12.8122   22.1651   13.9820 C   0  0  0  0  0  0  0  0  0  0  0  0
  -12.4885   21.7522   12.5383 C   0  0  0  0  0  0  0  0  0  0  0  0
  -11.1837   21.1690   12.4458 O   0  0  0  0  0  0  0  0  0  0  0  0
  -10.5191   21.8173   12.7268 H   0  0  0  0  0  0  0  0  0  0  0  0
  5  6  2  0  0  0
 36 33  2  0  0  0
 20 19  1  0  0  0
 28 26  1  0  0  0
 32 33  1  0  0  0
 32 31  1  0  0  0
 16 15  2  0  0  0
 16 17  1  0  0  0
  7  6  2  0  0  0
 33 34  1  0  0  0
 15 13  1  0  0  0
  6  9  1  0  0  0
  6  1  1  0  0  0
 29 26  1  0  0  0
 31 30  1  0  0  0
 26 19  1  0  0  0
 26 27  1  0  0  0
 30  9  1  0  0  0
 34 37  1  0  0  0
 34 35  1  0  0  0
 19 17  1  0  0  0
 19 22  1  0  0  0
 39 37  1  0  0  0
 39 40  1  0  0  0
 17 14  2  0  0  0
 37 38  1  0  0  0
  9  8  1  0  0  0
 13 12  1  0  0  0
 13 18  2  0  0  0
 12  1  1  0  0  0
 24 22  1  0  0  0
  1  2  1  0  0  0
 22 25  1  0  0  0
 22 23  1  0  0  0
 14 18  1  0  0  0
 40 41  1  0  0  0
  8  2  2  0  0  0
  8  3  1  0  0  0
  2 11  1  0  0  0
  3 10  2  0  0  0
 11  4  2  0  0  0
 10  4  1  0  0  0
 41 42  1  0  0  0
 20 21  1  0  0  0
M  END
> <minimizedAffinity>
-9.84025

$$$$
4YMQ_ZBD_A_603


 42 44  0  0  0  0  0  0  0  0999 V2000
   -4.9133   26.9776   13.4254 N   0  0  0  0  0  0  0  0  0  0  0  0
   -5.7680   27.6375   14.3318 C   0  0  0  0  0  0  0  0  0  0  0  0
   -7.9043   27.5811   15.4342 C   0  0  0  0  0  0  0  0  0  0  0  0
   -6.4269   29.4182   15.8291 C   0  0  0  0  0  0  0  0  0  0  0  0
   -5.0517   24.4717   13.5048 O   0  0  0  0  0  0  0  0  0  0  0  0
   -5.7397   25.5990   12.9751 S   0  0  0  0  0  0  0  0  0  0  0  0
   -6.0898   25.7318   11.5992 O   0  0  0  0  0  0  0  0  0  0  0  0
   -6.9684   26.9907   14.5747 C   0  0  0  0  0  0  0  0  0  0  0  0
   -7.1333   25.7795   13.8748 N   0  0  0  0  0  0  0  0  0  0  0  0
   -7.6376   28.7897   16.0472 C   0  0  0  0  0  0  0  0  0  0  0  0
   -5.5075   28.8562   14.9668 C   0  0  0  0  0  0  0  0  0  0  0  0
   -3.5910   27.4300   12.9792 C   0  0  0  0  0  0  0  0  0  0  0  0
   -2.5106   26.5443   13.5423 C   0  0  0  0  0  0  0  0  0  0  0  0
   -1.2801   25.6863   15.4046 C   0  0  0  0  0  0  0  0  0  0  0  0
   -1.7591   25.7601   12.6890 C   0  0  0  0  0  0  0  0  0  0  0  0
   -0.7649   24.9408   13.1972 C   0  0  0  0  0  0  0  0  0  0  0  0
   -0.5232   24.8920   14.5599 C   0  0  0  0  0  0  0  0  0  0  0  0
   -2.2745   26.5093   14.9038 C   0  0  0  0  0  0  0  0  0  0  0  0
    0.5779   23.9935   15.0887 C   0  0  0  0  0  0  0  0  0  0  0  0
    1.3026   23.4977   13.9620 O   0  0  0  0  0  0  0  0  0  0  0  0
    0.7026   22.9994   13.3854 H   0  0  0  0  0  0  0  0  0  0  0  0
    1.5639   24.7758   15.9756 C   0  0  0  0  0  0  0  0  0  0  0  0
    2.3068   23.9200   16.7957 F   0  0  0  0  0  0  0  0  0  0  0  0
    2.4455   25.4662   15.1418 F   0  0  0  0  0  0  0  0  0  0  0  0
    0.8981   25.7025   16.7803 F   0  0  0  0  0  0  0  0  0  0  0  0
   -0.0081   22.8034   15.8758 C   0  0  0  0  0  0  0  0  0  0  0  0
    0.8721   21.7218   15.8780 F   0  0  0  0  0  0  0  0  0  0  0  0
   -1.2111   22.4008   15.2852 F   0  0  0  0  0  0  0  0  0  0  0  0
   -0.2733   23.1661   17.1987 F   0  0  0  0  0  0  0  0  0  0  0  0
   -8.2836   24.8749   13.9203 C   0  0  0  0  0  0  0  0  0  0  0  0
   -8.2162   24.0990   15.2376 C   0  0  0  0  0  0  0  0  0  0  0  0
   -9.3569   24.5522   16.1425 C   0  0  0  0  0  0  0  0  0  0  0  0
  -10.6695   24.4984   15.3933 C   0  0  0  0  0  0  0  0  0  0  0  0
  -11.4158   23.3815   15.4657 N   0  0  0  0  0  0  0  0  0  0  0  0
  -10.9257   22.2640   16.2735 C   0  0  0  0  0  0  0  0  0  0  0  0
  -11.0525   25.4424   14.7274 O   0  0  0  0  0  0  0  0  0  0  0  0
  -12.6874   23.3084   14.7280 C   0  0  0  0  0  0  0  0  0  0  0  0
  -13.8437   23.5867   15.6881 C   0  0  0  0  0  0  0  0  0  0  0  0
  -12.8229   21.9737   13.9598 C   0  0  0  0  0  0  0  0  0  0  0  0
  -11.9822   21.8785   12.6777 C   0  0  0  0  0  0  0  0  0  0  0  0
  -12.8151   21.8341   11.5135 O   0  0  0  0  0  0  0  0  0  0  0  0
  -13.3865   21.0514   11.5543 H   0  0  0  0  0  0  0  0  0  0  0  0
  5  6  2  0  0  0
 36 33  2  0  0  0
 20 19  1  0  0  0
 28 26  1  0  0  0
 32 33  1  0  0  0
 32 31  1  0  0  0
 16 15  2  0  0  0
 16 17  1  0  0  0
  7  6  2  0  0  0
 33 34  1  0  0  0
 15 13  1  0  0  0
  6  9  1  0  0  0
  6  1  1  0  0  0
 29 26  1  0  0  0
 31 30  1  0  0  0
 26 19  1  0  0  0
 26 27  1  0  0  0
 30  9  1  0  0  0
 34 37  1  0  0  0
 34 35  1  0  0  0
 19 17  1  0  0  0
 19 22  1  0  0  0
 39 37  1  0  0  0
 39 40  1  0  0  0
 17 14  2  0  0  0
 37 38  1  0  0  0
  9  8  1  0  0  0
 13 12  1  0  0  0
 13 18  2  0  0  0
 12  1  1  0  0  0
 24 22  1  0  0  0
  1  2  1  0  0  0
 22 25  1  0  0  0
 22 23  1  0  0  0
 14 18  1  0  0  0
 40 41  1  0  0  0
  8  2  2  0  0  0
  8  3  1  0  0  0
  2 11  1  0  0  0
  3 10  2  0  0  0
 11  4  2  0  0  0
 10  4  1  0  0  0
 41 42  1  0  0  0
 20 21  1  0  0  0
M  END
> <minimizedAffinity>
-9.74562

$$$$
4YMQ_ZBD_A_603


 42 44  0  0  0  0  0  0  0  0999 V2000
   -6.8752   27.4126   14.7261 N   0  0  0  0  0  0  0  0  0  0  0  0
   -6.4729   26.1286   14.3054 C   0  0  0  0  0  0  0  0  0  0  0  0
   -4.5994   24.6740   13.9097 C   0  0  0  0  0  0  0  0  0  0  0  0
   -6.8115   23.8895   13.4576 C   0  0  0  0  0  0  0  0  0  0  0  0
   -5.4385   28.4127   16.5263 O   0  0  0  0  0  0  0  0  0  0  0  0
   -5.4590   28.2040   15.1189 S   0  0  0  0  0  0  0  0  0  0  0  0
   -5.2649   29.2469   14.1661 O   0  0  0  0  0  0  0  0  0  0  0  0
   -5.1062   25.9071   14.3412 C   0  0  0  0  0  0  0  0  0  0  0  0
   -4.3466   27.0036   14.7937 N   0  0  0  0  0  0  0  0  0  0  0  0
   -5.4463   23.6788   13.4627 C   0  0  0  0  0  0  0  0  0  0  0  0
   -7.3193   25.1084   13.8592 C   0  0  0  0  0  0  0  0  0  0  0  0
   -8.2485   27.9253   14.7861 C   0  0  0  0  0  0  0  0  0  0  0  0
   -9.2256   26.7984   14.9956 C   0  0  0  0  0  0  0  0  0  0  0  0
  -10.0725   24.9937   16.3163 C   0  0  0  0  0  0  0  0  0  0  0  0
  -10.1909   26.5474   14.0401 C   0  0  0  0  0  0  0  0  0  0  0  0
  -11.0953   25.5148   14.2245 C   0  0  0  0  0  0  0  0  0  0  0  0
  -11.0476   24.7352   15.3679 C   0  0  0  0  0  0  0  0  0  0  0  0
   -9.1637   26.0230   16.1382 C   0  0  0  0  0  0  0  0  0  0  0  0
  -12.0438   23.6050   15.5401 C   0  0  0  0  0  0  0  0  0  0  0  0
  -11.9580   23.1627   16.8956 O   0  0  0  0  0  0  0  0  0  0  0  0
  -11.0567   22.8544   17.0787 H   0  0  0  0  0  0  0  0  0  0  0  0
  -13.4858   24.0845   15.2917 C   0  0  0  0  0  0  0  0  0  0  0  0
  -14.4197   23.2393   15.9000 F   0  0  0  0  0  0  0  0  0  0  0  0
  -13.6203   25.3612   15.8405 F   0  0  0  0  0  0  0  0  0  0  0  0
  -13.7688   24.1575   13.9264 F   0  0  0  0  0  0  0  0  0  0  0  0
  -11.7121   22.4261   14.6023 C   0  0  0  0  0  0  0  0  0  0  0  0
  -12.8531   21.6776   14.3151 F   0  0  0  0  0  0  0  0  0  0  0  0
  -10.7718   21.5918   15.2168 F   0  0  0  0  0  0  0  0  0  0  0  0
  -11.1658   22.8862   13.4015 F   0  0  0  0  0  0  0  0  0  0  0  0
   -2.8919   27.0783   14.9408 C   0  0  0  0  0  0  0  0  0  0  0  0
   -2.2770   27.0238   13.5406 C   0  0  0  0  0  0  0  0  0  0  0  0
   -0.7665   26.8554   13.6651 C   0  0  0  0  0  0  0  0  0  0  0  0
   -0.4147   25.3908   13.8003 C   0  0  0  0  0  0  0  0  0  0  0  0
    0.2277   24.9745   14.9066 N   0  0  0  0  0  0  0  0  0  0  0  0
    0.5553   25.9598   15.9377 C   0  0  0  0  0  0  0  0  0  0  0  0
   -0.6980   24.5928   12.9262 O   0  0  0  0  0  0  0  0  0  0  0  0
    0.5917   23.5549   15.0443 C   0  0  0  0  0  0  0  0  0  0  0  0
   -0.0777   22.9819   16.2934 C   0  0  0  0  0  0  0  0  0  0  0  0
    2.1243   23.3554   15.0117 C   0  0  0  0  0  0  0  0  0  0  0  0
    2.6526   22.2581   15.9477 C   0  0  0  0  0  0  0  0  0  0  0  0
    3.0206   21.0840   15.2148 O   0  0  0  0  0  0  0  0  0  0  0  0
    2.2424   20.7336   14.7537 H   0  0  0  0  0  0  0  0  0  0  0  0
  5  6  2  0  0  0
 36 33  2  0  0  0
 20 19  1  0  0  0
 28 26  1  0  0  0
 32 33  1  0  0  0
 32 31  1  0  0  0
 16 15  2  0  0  0
 16 17  1  0  0  0
  7  6  2  0  0  0
 33 34  1  0  0  0
 15 13  1  0  0  0
  6  9  1  0  0  0
  6  1  1  0  0  0
 29 26  1  0  0  0
 31 30  1  0  0  0
 26 19  1  0  0  0
 26 27  1  0  0  0
 30  9  1  0  0  0
 34 37  1  0  0  0
 34 35  1  0  0  0
 19 17  1  0  0  0
 19 22  1  0  0  0
 39 37  1  0  0  0
 39 40  1  0  0  0
 17 14  2  0  0  0
 37 38  1  0  0  0
  9  8  1  0  0  0
 13 12  1  0  0  0
 13 18  2  0  0  0
 12  1  1  0  0  0
 24 22  1  0  0  0
  1  2  1  0  0  0
 22 25  1  0  0  0
 22 23  1  0  0  0
 14 18  1  0  0  0
 40 41  1  0  0  0
  8  2  2  0  0  0
  8  3  1  0  0  0
  2 11  1  0  0  0
  3 10  2  0  0  0
 11  4  2  0  0  0
 10  4  1  0  0  0
 41 42  1  0  0  0
 20 21  1  0  0  0
M  END
> <minimizedAffinity>
-9.54253

$$$$
4YMQ_ZBD_A_603


 42 44  0  0  0  0  0  0  0  0999 V2000
   -4.4432   27.0365   13.6888 N   0  0  0  0  0  0  0  0  0  0  0  0
   -5.1586   25.8244   13.7700 C   0  0  0  0  0  0  0  0  0  0  0  0
   -7.0797   24.7209   14.7050 C   0  0  0  0  0  0  0  0  0  0  0  0
   -5.5665   23.4819   13.3307 C   0  0  0  0  0  0  0  0  0  0  0  0
   -5.8807   29.0949   13.7258 O   0  0  0  0  0  0  0  0  0  0  0  0
   -5.3233   28.1218   14.6017 S   0  0  0  0  0  0  0  0  0  0  0  0
   -4.5484   28.4512   15.7524 O   0  0  0  0  0  0  0  0  0  0  0  0
   -6.3139   25.8815   14.5318 C   0  0  0  0  0  0  0  0  0  0  0  0
   -6.5808   27.1435   15.0976 N   0  0  0  0  0  0  0  0  0  0  0  0
   -6.7016   23.5299   14.1165 C   0  0  0  0  0  0  0  0  0  0  0  0
   -4.7930   24.6138   13.1723 C   0  0  0  0  0  0  0  0  0  0  0  0
   -3.1900   27.2678   12.9619 C   0  0  0  0  0  0  0  0  0  0  0  0
   -2.0895   26.4005   13.5146 C   0  0  0  0  0  0  0  0  0  0  0  0
   -0.3894   24.7464   13.2113 C   0  0  0  0  0  0  0  0  0  0  0  0
   -1.7668   26.4813   14.8551 C   0  0  0  0  0  0  0  0  0  0  0  0
   -0.7551   25.6895   15.3724 C   0  0  0  0  0  0  0  0  0  0  0  0
   -0.0535   24.8217   14.5525 C   0  0  0  0  0  0  0  0  0  0  0  0
   -1.4008   25.5334   12.6873 C   0  0  0  0  0  0  0  0  0  0  0  0
    1.0431   23.9593   15.1468 C   0  0  0  0  0  0  0  0  0  0  0  0
    1.8341   23.4678   14.0637 O   0  0  0  0  0  0  0  0  0  0  0  0
    1.2757   22.9464   13.4660 H   0  0  0  0  0  0  0  0  0  0  0  0
    1.9646   24.7787   16.0688 C   0  0  0  0  0  0  0  0  0  0  0  0
    2.6994   23.9527   16.9257 F   0  0  0  0  0  0  0  0  0  0  0  0
    2.8579   25.4928   15.2680 F   0  0  0  0  0  0  0  0  0  0  0  0
    1.2355   25.6879   16.8379 F   0  0  0  0  0  0  0  0  0  0  0  0
    0.4501   22.7648   15.9218 C   0  0  0  0  0  0  0  0  0  0  0  0
    0.0217   23.1534   17.1907 F   0  0  0  0  0  0  0  0  0  0  0  0
    1.4245   21.7705   16.0628 F   0  0  0  0  0  0  0  0  0  0  0  0
   -0.6345   22.2159   15.2329 F   0  0  0  0  0  0  0  0  0  0  0  0
   -7.7145   27.5169   15.9455 C   0  0  0  0  0  0  0  0  0  0  0  0
   -8.9926   27.3342   15.1241 C   0  0  0  0  0  0  0  0  0  0  0  0
   -9.9201   26.3677   15.8526 C   0  0  0  0  0  0  0  0  0  0  0  0
  -10.6496   25.4944   14.8565 C   0  0  0  0  0  0  0  0  0  0  0  0
  -11.6862   24.7489   15.2799 N   0  0  0  0  0  0  0  0  0  0  0  0
  -12.0679   24.8190   16.6909 C   0  0  0  0  0  0  0  0  0  0  0  0
  -10.3098   25.4540   13.6885 O   0  0  0  0  0  0  0  0  0  0  0  0
  -12.3949   23.8811   14.3252 C   0  0  0  0  0  0  0  0  0  0  0  0
  -13.8889   24.2018   14.3658 C   0  0  0  0  0  0  0  0  0  0  0  0
  -12.0712   22.3887   14.5652 C   0  0  0  0  0  0  0  0  0  0  0  0
  -11.2106   21.7314   13.4758 C   0  0  0  0  0  0  0  0  0  0  0  0
   -9.9631   22.4166   13.3166 O   0  0  0  0  0  0  0  0  0  0  0  0
  -10.1300   23.3347   13.0514 H   0  0  0  0  0  0  0  0  0  0  0  0
  5  6  2  0  0  0
 36 33  2  0  0  0
 20 19  1  0  0  0
 28 26  1  0  0  0
 32 33  1  0  0  0
 32 31  1  0  0  0
 16 15  2  0  0  0
 16 17  1  0  0  0
  7  6  2  0  0  0
 33 34  1  0  0  0
 15 13  1  0  0  0
  6  9  1  0  0  0
  6  1  1  0  0  0
 29 26  1  0  0  0
 31 30  1  0  0  0
 26 19  1  0  0  0
 26 27  1  0  0  0
 30  9  1  0  0  0
 34 37  1  0  0  0
 34 35  1  0  0  0
 19 17  1  0  0  0
 19 22  1  0  0  0
 39 37  1  0  0  0
 39 40  1  0  0  0
 17 14  2  0  0  0
 37 38  1  0  0  0
  9  8  1  0  0  0
 13 12  1  0  0  0
 13 18  2  0  0  0
 12  1  1  0  0  0
 24 22  1  0  0  0
  1  2  1  0  0  0
 22 25  1  0  0  0
 22 23  1  0  0  0
 14 18  1  0  0  0
 40 41  1  0  0  0
  8  2  2  0  0  0
  8  3  1  0  0  0
  2 11  1  0  0  0
  3 10  2  0  0  0
 11  4  2  0  0  0
 10  4  1  0  0  0
 41 42  1  0  0  0
 20 21  1  0  0  0
M  END
> <minimizedAffinity>
-9.53430

$$$$
4YMQ_ZBD_A_603


 42 44  0  0  0  0  0  0  0  0999 V2000
   -5.8547   26.0825   13.4659 N   0  0  0  0  0  0  0  0  0  0  0  0
   -5.0856   24.9419   13.7743 C   0  0  0  0  0  0  0  0  0  0  0  0
   -3.1301   24.1230   14.9091 C   0  0  0  0  0  0  0  0  0  0  0  0
   -4.5079   22.5953   13.6920 C   0  0  0  0  0  0  0  0  0  0  0  0
   -5.9140   27.8163   15.2812 O   0  0  0  0  0  0  0  0  0  0  0  0
   -5.0786   27.3482   14.2286 S   0  0  0  0  0  0  0  0  0  0  0  0
   -4.5349   28.1963   13.2196 O   0  0  0  0  0  0  0  0  0  0  0  0
   -3.9808   25.1847   14.5735 C   0  0  0  0  0  0  0  0  0  0  0  0
   -3.8117   26.5326   14.9455 N   0  0  0  0  0  0  0  0  0  0  0  0
   -3.3882   22.8418   14.4626 C   0  0  0  0  0  0  0  0  0  0  0  0
   -5.3397   23.6378   13.3371 C   0  0  0  0  0  0  0  0  0  0  0  0
   -7.0666   26.1258   12.6401 C   0  0  0  0  0  0  0  0  0  0  0  0
   -8.2190   25.4721   13.3565 C   0  0  0  0  0  0  0  0  0  0  0  0
  -10.1632   25.6168   14.7412 C   0  0  0  0  0  0  0  0  0  0  0  0
   -8.3878   24.1040   13.2686 C   0  0  0  0  0  0  0  0  0  0  0  0
   -9.4456   23.4938   13.9218 C   0  0  0  0  0  0  0  0  0  0  0  0
  -10.3458   24.2468   14.6568 C   0  0  0  0  0  0  0  0  0  0  0  0
   -9.1071   26.2338   14.0924 C   0  0  0  0  0  0  0  0  0  0  0  0
  -11.4894   23.5521   15.3701 C   0  0  0  0  0  0  0  0  0  0  0  0
  -11.3823   22.1555   15.0897 O   0  0  0  0  0  0  0  0  0  0  0  0
  -11.4400   22.0127   14.1320 H   0  0  0  0  0  0  0  0  0  0  0  0
  -11.3934   23.7345   16.8960 C   0  0  0  0  0  0  0  0  0  0  0  0
  -12.0790   22.7238   17.5780 F   0  0  0  0  0  0  0  0  0  0  0  0
  -10.0459   23.6773   17.2571 F   0  0  0  0  0  0  0  0  0  0  0  0
  -11.9059   24.9712   17.2930 F   0  0  0  0  0  0  0  0  0  0  0  0
  -12.8526   24.0658   14.8632 C   0  0  0  0  0  0  0  0  0  0  0  0
  -13.8998   23.3067   15.3844 F   0  0  0  0  0  0  0  0  0  0  0  0
  -12.8917   23.9841   13.4668 F   0  0  0  0  0  0  0  0  0  0  0  0
  -13.0454   25.4012   15.2259 F   0  0  0  0  0  0  0  0  0  0  0  0
   -2.7484   27.0997   15.7770 C   0  0  0  0  0  0  0  0  0  0  0  0
   -1.7209   27.7460   14.8453 C   0  0  0  0  0  0  0  0  0  0  0  0
   -0.9760   26.6518   14.0882 C   0  0  0  0  0  0  0  0  0  0  0  0
   -0.1204   25.8481   15.0417 C   0  0  0  0  0  0  0  0  0  0  0  0
    0.3440   24.6486   14.6473 N   0  0  0  0  0  0  0  0  0  0  0  0
    0.0041   24.1736   13.3056 C   0  0  0  0  0  0  0  0  0  0  0  0
    0.1458   26.2667   16.1530 O   0  0  0  0  0  0  0  0  0  0  0  0
    1.1637   23.8476   15.5709 C   0  0  0  0  0  0  0  0  0  0  0  0
    2.6375   24.2020   15.3734 C   0  0  0  0  0  0  0  0  0  0  0  0
    0.8623   22.3376   15.4345 C   0  0  0  0  0  0  0  0  0  0  0  0
   -0.1034   21.7742   16.4878 C   0  0  0  0  0  0  0  0  0  0  0  0
   -0.7488   22.8258   17.2150 O   0  0  0  0  0  0  0  0  0  0  0  0
   -0.0811   23.3570   17.6763 H   0  0  0  0  0  0  0  0  0  0  0  0
  5  6  2  0  0  0
 36 33  2  0  0  0
 20 19  1  0  0  0
 28 26  1  0  0  0
 32 33  1  0  0  0
 32 31  1  0  0  0
 16 15  2  0  0  0
 16 17  1  0  0  0
  7  6  2  0  0  0
 33 34  1  0  0  0
 15 13  1  0  0  0
  6  9  1  0  0  0
  6  1  1  0  0  0
 29 26  1  0  0  0
 31 30  1  0  0  0
 26 19  1  0  0  0
 26 27  1  0  0  0
 30  9  1  0  0  0
 34 37  1  0  0  0
 34 35  1  0  0  0
 19 17  1  0  0  0
 19 22  1  0  0  0
 39 37  1  0  0  0
 39 40  1  0  0  0
 17 14  2  0  0  0
 37 38  1  0  0  0
  9  8  1  0  0  0
 13 12  1  0  0  0
 13 18  2  0  0  0
 12  1  1  0  0  0
 24 22  1  0  0  0
  1  2  1  0  0  0
 22 25  1  0  0  0
 22 23  1  0  0  0
 14 18  1  0  0  0
 40 41  1  0  0  0
  8  2  2  0  0  0
  8  3  1  0  0  0
  2 11  1  0  0  0
  3 10  2  0  0  0
 11  4  2  0  0  0
 10  4  1  0  0  0
 41 42  1  0  0  0
 20 21  1  0  0  0
M  END
> <minimizedAffinity>
-9.35256

$$$$
