4TMK_T5A_A_214
  RCSB PDB12061714453D
Coordinates from PDB:4TMK:A:214 Model:1 without hydrogens
 55 59  0  0  0  0            999 V2000
   24.9590  100.3390   17.5190   N 0  0  0  0  0  0  0  0  0  0  0  0
   24.8200  100.5920   16.2120   C 0  0  0  0  0  0  0  0  0  0  0  0
   25.8720   99.4790   18.0180   C 0  0  0  0  0  0  0  0  0  0  0  0
   25.8980   99.0240   19.1840   O 0  0  0  0  0  0  0  0  0  0  0  0
   26.7660   99.0180   17.0820   N 0  0  0  0  0  0  0  0  0  0  0  0
   26.7120   99.2170   15.7220   C 0  0  0  0  0  0  0  0  0  0  0  0
   27.5640   98.7680   14.9420   O 0  0  0  0  0  0  0  0  0  0  0  0
   25.6450  100.0640   15.2890   C 0  0  0  0  0  0  0  0  0  0  0  0
   25.5680  100.3480   13.7860   C 0  0  0  0  0  0  0  0  0  0  0  0
   20.5680  101.8140   17.6160   C 0  0  0  0  0  0  0  0  0  0  0  0
   21.7500  101.4560   18.5270   C 0  0  0  0  0  0  0  0  0  0  0  0
   22.6480  100.5280   17.8530   O 0  0  0  0  0  0  0  0  0  0  0  0
   23.9750  100.8540   18.4130   C 0  0  0  0  0  0  0  0  0  0  0  0
   23.8640  102.3980   18.3600   C 0  0  0  0  0  0  0  0  0  0  0  0
   22.5330  102.6930   18.9940   C 0  0  0  0  0  0  0  0  0  0  0  0
   22.5950  102.7490   20.4140   O 0  0  0  0  0  0  0  0  0  0  0  0
   20.0850  103.5050   15.6980   P 0  0  0  0  0  0  0  0  0  0  0  0
   19.3550  102.8400   14.6470   O 0  0  0  0  0  0  0  0  0  0  0  0
   20.9000  104.6950   15.2870   O 0  0  0  0  0  0  0  0  0  0  0  0
   21.0740  102.5150   16.5630   O 0  0  0  0  0  0  0  0  0  0  0  0
   19.1540  104.2080   16.5070   O 0  0  0  0  0  0  0  0  0  0  0  0
   18.3640  105.6400   16.3660   P 0  0  0  0  0  0  0  0  0  0  0  0
   17.1210  105.6320   17.2100   O 0  0  0  0  0  0  0  0  0  0  0  0
   18.2280  105.9100   14.9010   O 0  0  0  0  0  0  0  0  0  0  0  0
   19.4750  106.6760   16.8330   O 0  0  0  0  0  0  0  0  0  0  0  0
   20.5100  107.5760   16.1640   P 0  0  0  0  0  0  0  0  0  0  0  0
   21.8170  107.0370   16.5720   O 0  0  0  0  0  0  0  0  0  0  0  0
   20.2100  107.6840   14.7490   O 0  0  0  0  0  0  0  0  0  0  0  0
   20.2170  109.0820   16.8040   O 0  0  0  0  0  0  0  0  0  0  0  0
   20.4980  110.7190   16.4250   P 0  0  0  0  0  0  0  0  0  0  0  0
   21.4790  110.8560   15.3070   O 0  0  0  0  0  0  0  0  0  0  0  0
   20.6120  111.3780   17.7140   O 0  0  0  0  0  0  0  0  0  0  0  0
   19.1450  111.1330   15.6500   O 0  0  0  0  0  0  0  0  0  0  0  0
   18.3080  112.5120   15.3460   P 0  0  0  0  0  0  0  0  0  0  0  0
   19.2070  113.4960   14.6760   O 0  0  0  0  0  0  0  0  0  0  0  0
   17.1230  112.0340   14.6310   O 0  0  0  0  0  0  0  0  0  0  0  0
   17.9710  112.9110   16.8110   O 0  0  0  0  0  0  0  0  0  0  0  0
   17.4610  111.9960   17.8090   C 0  0  0  0  0  0  0  0  0  0  0  0
   16.5070  112.6760   18.7370   C 0  0  0  0  0  0  0  0  0  0  0  0
   17.2260  113.6180   19.4960   O 0  0  0  0  0  0  0  0  0  0  0  0
   16.7340  114.9770   19.3180   C 0  0  0  0  0  0  0  0  0  0  0  0
   15.9120  114.9230   18.0330   C 0  0  0  0  0  0  0  0  0  0  0  0
   14.9480  115.9620   18.1540   O 0  0  0  0  0  0  0  0  0  0  0  0
   15.3160  113.4800   18.0500   C 0  0  0  0  0  0  0  0  0  0  0  0
   14.2150  113.3420   19.0000   O 0  0  0  0  0  0  0  0  0  0  0  0
   17.8350  115.9460   19.1470   N 0  0  0  0  0  0  0  0  0  0  0  0
   17.9810  117.1490   19.8270   C 0  0  0  0  0  0  0  0  0  0  0  0
   17.1840  117.6150   20.8400   N 0  0  0  0  0  0  0  0  0  0  0  0
   17.5710  118.8280   21.2650   C 0  0  0  0  0  0  0  0  0  0  0  0
   18.6340  119.5490   20.8190   N 0  0  0  0  0  0  0  0  0  0  0  0
   19.4770  119.0270   19.9030   C 0  0  0  0  0  0  0  0  0  0  0  0
   20.4960  119.8010   19.5510   N 0  0  0  0  0  0  0  0  0  0  0  0
   19.1520  117.7310   19.3750   C 0  0  0  0  0  0  0  0  0  0  0  0
   19.6700  116.9560   18.3620   N 0  0  0  0  0  0  0  0  0  0  0  0
   18.8520  115.9360   18.2390   C 0  0  0  0  0  0  0  0  0  0  0  0
  1  2  1  0  0  0  0
  1  3  1  0  0  0  0
  1 13  1  0  0  0  0
  2  8  2  0  0  0  0
  3  4  2  0  0  0  0
  3  5  1  0  0  0  0
  5  6  1  0  0  0  0
  6  7  2  0  0  0  0
  6  8  1  0  0  0  0
  8  9  1  0  0  0  0
 10 11  1  0  0  0  0
 10 20  1  0  0  0  0
 11 12  1  0  0  0  0
 11 15  1  0  0  0  0
 12 13  1  0  0  0  0
 13 14  1  0  0  0  0
 14 15  1  0  0  0  0
 15 16  1  0  0  0  0
 17 18  1  0  0  0  0
 17 19  2  0  0  0  0
 17 20  1  0  0  0  0
 17 21  1  0  0  0  0
 21 22  1  0  0  0  0
 22 23  2  0  0  0  0
 22 24  1  0  0  0  0
 22 25  1  0  0  0  0
 25 26  1  0  0  0  0
 26 27  2  0  0  0  0
 26 28  1  0  0  0  0
 26 29  1  0  0  0  0
 29 30  1  0  0  0  0
 30 31  1  0  0  0  0
 30 32  2  0  0  0  0
 30 33  1  0  0  0  0
 33 34  1  0  0  0  0
 34 35  1  0  0  0  0
 34 36  2  0  0  0  0
 34 37  1  0  0  0  0
 37 38  1  0  0  0  0
 38 39  1  0  0  0  0
 39 40  1  0  0  0  0
 39 44  1  0  0  0  0
 40 41  1  0  0  0  0
 41 42  1  0  0  0  0
 41 46  1  0  0  0  0
 42 43  1  0  0  0  0
 42 44  1  0  0  0  0
 44 45  1  0  0  0  0
 46 47  1  0  0  0  0
 46 55  1  0  0  0  0
 47 48  1  0  0  0  0
 47 53  2  0  0  0  0
 48 49  2  0  0  0  0
 49 50  1  0  0  0  0
 50 51  2  0  0  0  0
 51 52  1  0  0  0  0
 51 53  1  0  0  0  0
 53 54  1  0  0  0  0
 54 55  2  0  0  0  0
A    1
N1B
A    2
C6B
A    3
C2B
A    4
O2B
A    5
N3B
A    6
C4B
A    7
O4B
A    8
C5B
A    9
C7B
A   10
C5E
A   11
C4E
A   12
O4E
A   13
C1E
A   14
C2E
A   15
C3E
A   16
O3E
A   17
PA
A   18
O1A
A   19
O2A
A   20
O5E
A   21
O3A
A   22
PB
A   23
O1B
A   24
O2X
A   25
O3B
A   26
PC
A   27
O1C
A   28
O2C
A   29
O3C
A   30
PD
A   31
O1D
A   32
O2D
A   33
O3D
A   34
PE
A   35
O1E
A   36
O2E
A   37
O5F
A   38
C5F
A   39
C4F
A   40
O4F
A   41
C1F
A   42
C2F
A   43
O2F
A   44
C3F
A   45
O3F
A   46
N9A
A   47
C4A
A   48
N3A
A   49
C2A
A   50
N1A
A   51
C6A
A   52
N6A
A   53
C5A
A   54
N7A
A   55
C8A
M  END
>  <InstanceId>
4TMK_T5A_A_214

>  <ChemCompId>
T5A

>  <PdbId>
4TMK

>  <ChainId>
A

>  <ResidueNumber>
214

>  <InsertionCode>


>  <Model>
1

>  <AltIds>


>  <MissingHeavyAtoms>
0

>  <ObservedFormula>
C20 N7 O23 P5

>  <Name>
P1-(5'-ADENOSYL)P5-(5'-THYMIDYL)PENTAPHOSPHATE

>  <SystematicName>
[[[[[(2R,3S,4R,5R)-5-(6-aminopurin-9-yl)-3,4-dihydroxy-oxolan-2-yl]methoxy-hydroxy-phosphoryl]oxy-hydroxy-phosphoryl]oxy-hydroxy-phosphoryl]oxy-hydroxy-phosphoryl] [(2R,3S,5R)-3-hydroxy-5-(5-methyl-2,4-dioxo-pyrimidin-1-yl)oxolan-2-yl]methyl hydrogen phosphate

>  <Synonyms>


>  <Type>
NON-POLYMER

>  <Formula>
C20 H30 N7 O23 P5

>  <MolecularWeight>
891.354

>  <ModifiedDate>
2011-06-04

>  <Parent>


>  <OneLetterCode>


>  <SubcomponentList>


>  <AmbiguousFlag>
N

>  <InChI>
InChI=1S/C20H30N7O23P5/c1-8-3-26(20(32)25-18(8)31)12-2-9(28)10(45-12)4-43-51(33,34)47-53(37,38)49-55(41,42)50-54(39,40)48-52(35,36)44-5-11-14(29)15(30)19(46-11)27-7-24-13-16(21)22-6-23-17(13)27/h3,6-7,9-12,14-15,19,28-30H,2,4-5H2,1H3,(H,33,34)(H,35,36)(H,37,38)(H,39,40)(H,41,42)(H2,21,22,23)(H,25,31,32)/t9-,10+,11+,12+,14+,15+,19+/m0/s1

>  <InChIKey>
JCFDSPQTEMXXLO-SLFMBYJQSA-N

>  <SMILES>
CC1=CN(C(=O)NC1=O)[C@H]2C[C@@H]([C@H](O2)CO[P@@](=O)(O)O[P@](=O)(O)O[P@@](=O)(O)O[P@@](=O)(O)O[P@](=O)(O)OC[C@@H]3[C@H]([C@H]([C@@H](O3)n4cnc5c4ncnc5N)O)O)O

$$$$
