4TMK_T5A_A_214


 66 70  0  0  0  0  0  0  0  0999 V2000
   18.6517  107.7017   14.3874 P   0  0  0  0  0  0  0  0  0  0  0  0
   18.1905  108.6613   15.4031 O   0  0  0  0  0  0  0  0  0  0  0  0
   18.9503  108.1864   13.0533 O   0  0  0  0  0  0  0  0  0  0  0  0
   19.5693  108.9311   13.1109 H   0  0  0  0  0  0  0  0  0  0  0  0
   19.8993  107.0535   14.9808 O   0  0  0  0  0  0  0  0  0  0  0  0
   20.4600  106.7313   16.4325 P   0  0  0  0  0  0  0  0  0  0  0  0
   21.5477  107.6549   16.9028 O   0  0  0  0  0  0  0  0  0  0  0  0
   19.2235  106.6056   17.2649 O   0  0  0  0  0  0  0  0  0  0  0  0
   19.4698  106.4062   18.1817 H   0  0  0  0  0  0  0  0  0  0  0  0
   21.0508  105.2120   16.2391 O   0  0  0  0  0  0  0  0  0  0  0  0
   20.5490  104.0197   15.6544 P   0  0  0  0  0  0  0  0  0  0  0  0
   19.1105  104.0410   15.7541 O   0  0  0  0  0  0  0  0  0  0  0  0
   21.1207  104.2370   14.2850 O   0  0  0  0  0  0  0  0  0  0  0  0
   18.7471  103.2329   15.3593 H   0  0  0  0  0  0  0  0  0  0  0  0
   21.2472  102.6592   16.2612 O   0  0  0  0  0  0  0  0  0  0  0  0
   20.6673  102.0201   17.3154 C   0  0  0  0  0  0  0  0  0  0  0  0
   21.7993  101.5908   18.2586 C   0  0  0  0  0  0  0  0  0  0  0  0
   22.7046  100.6727   17.5808 O   0  0  0  0  0  0  0  0  0  0  0  0
   24.0127  100.9391   18.2122 C   0  0  0  0  0  0  0  0  0  0  0  0
   23.9397  102.4862   18.2275 C   0  0  0  0  0  0  0  0  0  0  0  0
   22.5892  102.7849   18.8168 C   0  0  0  0  0  0  0  0  0  0  0  0
   22.5896  102.7737   20.2392 O   0  0  0  0  0  0  0  0  0  0  0  0
   22.9232  101.9196   20.5557 H   0  0  0  0  0  0  0  0  0  0  0  0
   25.0231  100.4414   17.3381 N   0  0  0  0  0  0  0  0  0  0  0  0
   24.8805  100.6495   16.0236 C   0  0  0  0  0  0  0  0  0  0  0  0
   25.9698   99.6371   17.8663 C   0  0  0  0  0  0  0  0  0  0  0  0
   26.0090   99.2182   19.0454 O   0  0  0  0  0  0  0  0  0  0  0  0
   26.8882   99.1882   16.9483 N   0  0  0  0  0  0  0  0  0  0  0  0
   26.8332   99.3445   15.5827 C   0  0  0  0  0  0  0  0  0  0  0  0
   27.7083   98.9103   14.8201 O   0  0  0  0  0  0  0  0  0  0  0  0
   25.7329  100.1311   15.1202 C   0  0  0  0  0  0  0  0  0  0  0  0
   25.6520  100.3671   13.6092 C   0  0  0  0  0  0  0  0  0  0  0  0
   27.6674   98.7038   17.3052 H   0  0  0  0  0  0  0  0  0  0  0  0
   17.5923  106.4372   14.1818 O   0  0  0  0  0  0  0  0  0  0  0  0
   16.2455  105.7458   14.9631 P   0  0  0  0  0  0  0  0  0  0  0  0
   16.4712  105.6339   16.4353 O   0  0  0  0  0  0  0  0  0  0  0  0
   15.8455  104.6490   14.0995 O   0  0  0  0  0  0  0  0  0  0  0  0
   17.1116  104.9270   16.6115 H   0  0  0  0  0  0  0  0  0  0  0  0
   15.1758  106.9533   14.9443 O   0  0  0  0  0  0  0  0  0  0  0  0
   13.5707  107.1416   15.2320 P   0  0  0  0  0  0  0  0  0  0  0  0
   13.2513  108.5969   15.3064 O   0  0  0  0  0  0  0  0  0  0  0  0
   12.9453  106.3319   14.1846 O   0  0  0  0  0  0  0  0  0  0  0  0
   13.3111  108.9868   14.4203 H   0  0  0  0  0  0  0  0  0  0  0  0
   13.4960  106.4415   16.6188 O   0  0  0  0  0  0  0  0  0  0  0  0
   12.6398  105.3144   16.9186 C   0  0  0  0  0  0  0  0  0  0  0  0
   12.5310  105.0875   18.3918 C   0  0  0  0  0  0  0  0  0  0  0  0
   12.1331  103.7545   18.6045 O   0  0  0  0  0  0  0  0  0  0  0  0
   13.0966  102.9991   19.3930 C   0  0  0  0  0  0  0  0  0  0  0  0
   14.3840  103.8151   19.3117 C   0  0  0  0  0  0  0  0  0  0  0  0
   15.1063  103.5056   20.4974 O   0  0  0  0  0  0  0  0  0  0  0  0
   13.8699  105.2872   19.2310 C   0  0  0  0  0  0  0  0  0  0  0  0
   13.3966  105.7846   20.5203 O   0  0  0  0  0  0  0  0  0  0  0  0
   14.5421  103.6641   21.2704 H   0  0  0  0  0  0  0  0  0  0  0  0
   12.7093  105.1921   20.8629 H   0  0  0  0  0  0  0  0  0  0  0  0
   13.3397  101.6556   18.8307 N   0  0  0  0  0  0  0  0  0  0  0  0
   13.9170  101.3752   17.5982 C   0  0  0  0  0  0  0  0  0  0  0  0
   14.4463  102.2845   16.7199 N   0  0  0  0  0  0  0  0  0  0  0  0
   14.8976  101.6967   15.6007 C   0  0  0  0  0  0  0  0  0  0  0  0
   14.8971  100.3665   15.3196 N   0  0  0  0  0  0  0  0  0  0  0  0
   14.4793   99.4738   16.2420 C   0  0  0  0  0  0  0  0  0  0  0  0
   14.5401   98.1989   15.8786 N   0  0  0  0  0  0  0  0  0  0  0  0
   13.9689   99.9978   17.4785 C   0  0  0  0  0  0  0  0  0  0  0  0
   13.3441   99.4342   18.5681 N   0  0  0  0  0  0  0  0  0  0  0  0
   12.9629  100.4405   19.3209 C   0  0  0  0  0  0  0  0  0  0  0  0
   14.9126   97.9545   15.0007 H   0  0  0  0  0  0  0  0  0  0  0  0
   14.2126   97.4975   16.4868 H   0  0  0  0  0  0  0  0  0  0  0  0
 24 25  1  0  0  0
 24 26  1  0  0  0
 24 19  1  0  0  0
 25 31  2  0  0  0
 26 27  2  0  0  0
 26 28  1  0  0  0
 28 29  1  0  0  0
 29 30  2  0  0  0
 29 31  1  0  0  0
 31 32  1  0  0  0
 16 17  1  0  0  0
 16 15  1  0  0  0
 17 18  1  0  0  0
 17 21  1  0  0  0
 18 19  1  0  0  0
 19 20  1  0  0  0
 20 21  1  0  0  0
 21 22  1  0  0  0
 11 12  1  0  0  0
 11 13  2  0  0  0
 11 15  1  0  0  0
 11 10  1  0  0  0
 10  6  1  0  0  0
  6  7  2  0  0  0
  6  8  1  0  0  0
  6  5  1  0  0  0
  5  1  1  0  0  0
  1  2  2  0  0  0
  1  3  1  0  0  0
  1 34  1  0  0  0
 34 35  1  0  0  0
 35 36  1  0  0  0
 35 37  2  0  0  0
 35 39  1  0  0  0
 39 40  1  0  0  0
 40 41  1  0  0  0
 40 42  2  0  0  0
 40 44  1  0  0  0
 44 45  1  0  0  0
 45 46  1  0  0  0
 46 47  1  0  0  0
 46 51  1  0  0  0
 47 48  1  0  0  0
 48 49  1  0  0  0
 48 55  1  0  0  0
 49 50  1  0  0  0
 49 51  1  0  0  0
 51 52  1  0  0  0
 55 56  1  0  0  0
 55 64  1  0  0  0
 56 57  1  0  0  0
 56 62  2  0  0  0
 57 58  2  0  0  0
 58 59  1  0  0  0
 59 60  2  0  0  0
 60 61  1  0  0  0
 60 62  1  0  0  0
 62 63  1  0  0  0
 63 64  2  0  0  0
 28 33  1  0  0  0
 22 23  1  0  0  0
 12 14  1  0  0  0
  8  9  1  0  0  0
  3  4  1  0  0  0
 36 38  1  0  0  0
 41 43  1  0  0  0
 50 53  1  0  0  0
 52 54  1  0  0  0
 61 65  1  0  0  0
 61 66  1  0  0  0
M  END
> <minimizedAffinity>
-12.23799

$$$$
4TMK_T5A_A_214


 66 70  0  0  0  0  0  0  0  0999 V2000
   19.5399  108.6918   17.1275 P   0  0  0  0  0  0  0  0  0  0  0  0
   19.1835  109.3355   18.4018 O   0  0  0  0  0  0  0  0  0  0  0  0
   20.9423  108.5068   16.8067 O   0  0  0  0  0  0  0  0  0  0  0  0
   21.3852  108.0544   17.5416 H   0  0  0  0  0  0  0  0  0  0  0  0
   18.8435  107.3341   17.1519 O   0  0  0  0  0  0  0  0  0  0  0  0
   18.4069  106.2354   16.0899 P   0  0  0  0  0  0  0  0  0  0  0  0
   16.9928  105.7495   16.2369 O   0  0  0  0  0  0  0  0  0  0  0  0
   18.8234  106.8289   14.7815 O   0  0  0  0  0  0  0  0  0  0  0  0
   18.5938  106.2197   14.0624 H   0  0  0  0  0  0  0  0  0  0  0  0
   19.4606  105.0175   16.4083 O   0  0  0  0  0  0  0  0  0  0  0  0
   20.6696  104.5711   15.8131 P   0  0  0  0  0  0  0  0  0  0  0  0
   20.3587  104.0368   14.5102 O   0  0  0  0  0  0  0  0  0  0  0  0
   21.3787  105.8925   15.8344 O   0  0  0  0  0  0  0  0  0  0  0  0
   21.1734  103.7254   14.0855 H   0  0  0  0  0  0  0  0  0  0  0  0
   21.5237  103.5466   16.7760 O   0  0  0  0  0  0  0  0  0  0  0  0
   20.8954  102.4805   17.3461 C   0  0  0  0  0  0  0  0  0  0  0  0
   21.9124  101.8034   18.2747 C   0  0  0  0  0  0  0  0  0  0  0  0
   22.7552  100.8848   17.5214 O   0  0  0  0  0  0  0  0  0  0  0  0
   24.0415  100.9134   18.2464 C   0  0  0  0  0  0  0  0  0  0  0  0
   24.1342  102.4430   18.4717 C   0  0  0  0  0  0  0  0  0  0  0  0
   22.7887  102.8147   19.0302 C   0  0  0  0  0  0  0  0  0  0  0  0
   22.6973  102.6161   20.4358 O   0  0  0  0  0  0  0  0  0  0  0  0
   22.9165  101.6951   20.6471 H   0  0  0  0  0  0  0  0  0  0  0  0
   25.0463  100.4225   17.3621 N   0  0  0  0  0  0  0  0  0  0  0  0
   24.8878  100.6275   16.0489 C   0  0  0  0  0  0  0  0  0  0  0  0
   26.0050   99.6265   17.8811 C   0  0  0  0  0  0  0  0  0  0  0  0
   26.0604   99.2096   19.0602 O   0  0  0  0  0  0  0  0  0  0  0  0
   26.9169   99.1835   16.9537 N   0  0  0  0  0  0  0  0  0  0  0  0
   26.8459   99.3374   15.5886 C   0  0  0  0  0  0  0  0  0  0  0  0
   27.7160   98.9091   14.8171 O   0  0  0  0  0  0  0  0  0  0  0  0
   25.7344  100.1145   15.1370 C   0  0  0  0  0  0  0  0  0  0  0  0
   25.6352  100.3477   13.6266 C   0  0  0  0  0  0  0  0  0  0  0  0
   27.7038   98.7058   17.3028 H   0  0  0  0  0  0  0  0  0  0  0  0
   18.8755  109.4687   15.8166 O   0  0  0  0  0  0  0  0  0  0  0  0
   19.3717  110.4397   14.5077 P   0  0  0  0  0  0  0  0  0  0  0  0
   19.3844  109.6640   13.2313 O   0  0  0  0  0  0  0  0  0  0  0  0
   20.4927  111.2045   15.0247 O   0  0  0  0  0  0  0  0  0  0  0  0
   20.1316  109.0455   13.2363 H   0  0  0  0  0  0  0  0  0  0  0  0
   18.0748  111.3638   14.2498 O   0  0  0  0  0  0  0  0  0  0  0  0
   16.4543  111.1468   14.1028 P   0  0  0  0  0  0  0  0  0  0  0  0
   15.8230  112.4280   13.6723 O   0  0  0  0  0  0  0  0  0  0  0  0
   16.3510  109.9772   13.2279 O   0  0  0  0  0  0  0  0  0  0  0  0
   16.0542  112.6077   12.7476 H   0  0  0  0  0  0  0  0  0  0  0  0
   16.1296  110.7871   15.5807 O   0  0  0  0  0  0  0  0  0  0  0  0
   15.6558  111.7350   16.5657 C   0  0  0  0  0  0  0  0  0  0  0  0
   16.6232  111.8780   17.6959 C   0  0  0  0  0  0  0  0  0  0  0  0
   17.6661  112.7258   17.2790 O   0  0  0  0  0  0  0  0  0  0  0  0
   17.7897  113.9156   18.1095 C   0  0  0  0  0  0  0  0  0  0  0  0
   16.4558  114.0109   18.8455 C   0  0  0  0  0  0  0  0  0  0  0  0
   16.7373  114.7047   20.0550 O   0  0  0  0  0  0  0  0  0  0  0  0
   16.0446  112.5167   19.0354 C   0  0  0  0  0  0  0  0  0  0  0  0
   16.8103  111.8567   20.0898 O   0  0  0  0  0  0  0  0  0  0  0  0
   17.4588  114.2571   20.5241 H   0  0  0  0  0  0  0  0  0  0  0  0
   17.7581  111.9374   19.8999 H   0  0  0  0  0  0  0  0  0  0  0  0
   17.9842  115.1364   17.3018 N   0  0  0  0  0  0  0  0  0  0  0  0
   18.4277  116.3671   17.7704 C   0  0  0  0  0  0  0  0  0  0  0  0
   18.8496  116.6511   19.0431 N   0  0  0  0  0  0  0  0  0  0  0  0
   19.1832  117.9437   19.1841 C   0  0  0  0  0  0  0  0  0  0  0  0
   19.1658  118.9016   18.2194 N   0  0  0  0  0  0  0  0  0  0  0  0
   18.8593  118.5812   16.9444 C   0  0  0  0  0  0  0  0  0  0  0  0
   18.8934  119.5830   16.0746 N   0  0  0  0  0  0  0  0  0  0  0  0
   18.4803  117.2204   16.6825 C   0  0  0  0  0  0  0  0  0  0  0  0
   17.9828  116.5638   15.5796 N   0  0  0  0  0  0  0  0  0  0  0  0
   17.6750  115.3556   15.9921 C   0  0  0  0  0  0  0  0  0  0  0  0
   19.1713  120.4806   16.3683 H   0  0  0  0  0  0  0  0  0  0  0  0
   18.6407  119.4285   15.1357 H   0  0  0  0  0  0  0  0  0  0  0  0
 24 25  1  0  0  0
 24 26  1  0  0  0
 24 19  1  0  0  0
 25 31  2  0  0  0
 26 27  2  0  0  0
 26 28  1  0  0  0
 28 29  1  0  0  0
 29 30  2  0  0  0
 29 31  1  0  0  0
 31 32  1  0  0  0
 16 17  1  0  0  0
 16 15  1  0  0  0
 17 18  1  0  0  0
 17 21  1  0  0  0
 18 19  1  0  0  0
 19 20  1  0  0  0
 20 21  1  0  0  0
 21 22  1  0  0  0
 11 12  1  0  0  0
 11 13  2  0  0  0
 11 15  1  0  0  0
 11 10  1  0  0  0
 10  6  1  0  0  0
  6  7  2  0  0  0
  6  8  1  0  0  0
  6  5  1  0  0  0
  5  1  1  0  0  0
  1  2  2  0  0  0
  1  3  1  0  0  0
  1 34  1  0  0  0
 34 35  1  0  0  0
 35 36  1  0  0  0
 35 37  2  0  0  0
 35 39  1  0  0  0
 39 40  1  0  0  0
 40 41  1  0  0  0
 40 42  2  0  0  0
 40 44  1  0  0  0
 44 45  1  0  0  0
 45 46  1  0  0  0
 46 47  1  0  0  0
 46 51  1  0  0  0
 47 48  1  0  0  0
 48 49  1  0  0  0
 48 55  1  0  0  0
 49 50  1  0  0  0
 49 51  1  0  0  0
 51 52  1  0  0  0
 55 56  1  0  0  0
 55 64  1  0  0  0
 56 57  1  0  0  0
 56 62  2  0  0  0
 57 58  2  0  0  0
 58 59  1  0  0  0
 59 60  2  0  0  0
 60 61  1  0  0  0
 60 62  1  0  0  0
 62 63  1  0  0  0
 63 64  2  0  0  0
 28 33  1  0  0  0
 22 23  1  0  0  0
 12 14  1  0  0  0
  8  9  1  0  0  0
  3  4  1  0  0  0
 36 38  1  0  0  0
 41 43  1  0  0  0
 50 53  1  0  0  0
 52 54  1  0  0  0
 61 65  1  0  0  0
 61 66  1  0  0  0
M  END
> <minimizedAffinity>
-12.19669

$$$$
4TMK_T5A_A_214


 66 70  0  0  0  0  0  0  0  0999 V2000
   19.6198  107.1881   14.0158 P   0  0  0  0  0  0  0  0  0  0  0  0
   20.8047  106.3776   14.3389 O   0  0  0  0  0  0  0  0  0  0  0  0
   19.2386  107.3442   12.6250 O   0  0  0  0  0  0  0  0  0  0  0  0
   19.1657  106.4707   12.2097 H   0  0  0  0  0  0  0  0  0  0  0  0
   18.4692  106.5471   14.7865 O   0  0  0  0  0  0  0  0  0  0  0  0
   18.1707  106.1304   16.2908 P   0  0  0  0  0  0  0  0  0  0  0  0
   18.7545  107.0525   17.3235 O   0  0  0  0  0  0  0  0  0  0  0  0
   16.6938  105.8936   16.3015 O   0  0  0  0  0  0  0  0  0  0  0  0
   16.4149  105.6306   17.1925 H   0  0  0  0  0  0  0  0  0  0  0  0
   18.8825  104.6541   16.3821 O   0  0  0  0  0  0  0  0  0  0  0  0
   18.4697  103.3816   16.8574 P   0  0  0  0  0  0  0  0  0  0  0  0
   17.5540  103.5863   17.9525 O   0  0  0  0  0  0  0  0  0  0  0  0
   17.8669  102.8971   15.5724 O   0  0  0  0  0  0  0  0  0  0  0  0
   17.2592  102.7270   18.2925 H   0  0  0  0  0  0  0  0  0  0  0  0
   19.7294  102.3836   17.2090 O   0  0  0  0  0  0  0  0  0  0  0  0
   21.0057  102.8218   17.0211 C   0  0  0  0  0  0  0  0  0  0  0  0
   21.8992  102.0295   17.9850 C   0  0  0  0  0  0  0  0  0  0  0  0
   22.7355  101.0918   17.2479 O   0  0  0  0  0  0  0  0  0  0  0  0
   23.9598  100.9937   18.0677 C   0  0  0  0  0  0  0  0  0  0  0  0
   24.1364  102.4999   18.3825 C   0  0  0  0  0  0  0  0  0  0  0  0
   22.7790  102.9378   18.8581 C   0  0  0  0  0  0  0  0  0  0  0  0
   22.5645  102.6770   20.2399 O   0  0  0  0  0  0  0  0  0  0  0  0
   22.7045  101.7335   20.4165 H   0  0  0  0  0  0  0  0  0  0  0  0
   24.9960  100.4772   17.2356 N   0  0  0  0  0  0  0  0  0  0  0  0
   24.8899  100.6504   15.9126 C   0  0  0  0  0  0  0  0  0  0  0  0
   25.9299   99.6905   17.8110 C   0  0  0  0  0  0  0  0  0  0  0  0
   25.9372   99.3027   19.0013 O   0  0  0  0  0  0  0  0  0  0  0  0
   26.8752   99.2213   16.9312 N   0  0  0  0  0  0  0  0  0  0  0  0
   26.8582   99.3417   15.5610 C   0  0  0  0  0  0  0  0  0  0  0  0
   27.7557   98.8911   14.8348 O   0  0  0  0  0  0  0  0  0  0  0  0
   25.7688  100.1118   15.0474 C   0  0  0  0  0  0  0  0  0  0  0  0
   25.7298  100.3080   13.5289 C   0  0  0  0  0  0  0  0  0  0  0  0
   27.6455   98.7493   17.3224 H   0  0  0  0  0  0  0  0  0  0  0  0
   19.7173  108.7286   14.6330 O   0  0  0  0  0  0  0  0  0  0  0  0
   19.5930  110.3408   14.0967 P   0  0  0  0  0  0  0  0  0  0  0  0
   18.1847  110.8320   14.1772 O   0  0  0  0  0  0  0  0  0  0  0  0
   20.4237  110.3949   12.9067 O   0  0  0  0  0  0  0  0  0  0  0  0
   17.6558  110.4129   13.4804 H   0  0  0  0  0  0  0  0  0  0  0  0
   20.2378  111.1655   15.3241 O   0  0  0  0  0  0  0  0  0  0  0  0
   20.6767  110.8628   16.8767 P   0  0  0  0  0  0  0  0  0  0  0  0
   20.2185  109.4959   17.2602 O   0  0  0  0  0  0  0  0  0  0  0  0
   22.1111  111.1567   16.8828 O   0  0  0  0  0  0  0  0  0  0  0  0
   20.7570  108.8334   16.7999 H   0  0  0  0  0  0  0  0  0  0  0  0
   19.8588  111.9857   17.5760 O   0  0  0  0  0  0  0  0  0  0  0  0
   18.5109  111.8226   18.0759 C   0  0  0  0  0  0  0  0  0  0  0  0
   17.5087  112.4441   17.1578 C   0  0  0  0  0  0  0  0  0  0  0  0
   16.4620  112.9695   17.9381 O   0  0  0  0  0  0  0  0  0  0  0  0
   16.2917  114.4044   17.7576 C   0  0  0  0  0  0  0  0  0  0  0  0
   17.6017  114.8709   17.1282 C   0  0  0  0  0  0  0  0  0  0  0  0
   17.2721  116.0377   16.3844 O   0  0  0  0  0  0  0  0  0  0  0  0
   18.0360  113.6487   16.2591 C   0  0  0  0  0  0  0  0  0  0  0  0
   17.2531  113.5304   15.0316 O   0  0  0  0  0  0  0  0  0  0  0  0
   16.5462  115.8372   15.7731 H   0  0  0  0  0  0  0  0  0  0  0  0
   16.3098  113.4848   15.2529 H   0  0  0  0  0  0  0  0  0  0  0  0
   16.0970  115.1044   19.0431 N   0  0  0  0  0  0  0  0  0  0  0  0
   14.9532  115.0675   19.8314 C   0  0  0  0  0  0  0  0  0  0  0  0
   13.8337  114.3087   19.6089 N   0  0  0  0  0  0  0  0  0  0  0  0
   12.8887  114.5249   20.5373 C   0  0  0  0  0  0  0  0  0  0  0  0
   12.9751  115.3509   21.6139 N   0  0  0  0  0  0  0  0  0  0  0  0
   14.1260  116.0028   21.8836 C   0  0  0  0  0  0  0  0  0  0  0  0
   14.1148  116.7657   22.9695 N   0  0  0  0  0  0  0  0  0  0  0  0
   15.2044  115.8456   20.9475 C   0  0  0  0  0  0  0  0  0  0  0  0
   16.4399  116.4363   20.8072 N   0  0  0  0  0  0  0  0  0  0  0  0
   16.9163  116.0001   19.6638 C   0  0  0  0  0  0  0  0  0  0  0  0
   13.3143  116.7957   23.5418 H   0  0  0  0  0  0  0  0  0  0  0  0
   14.9070  117.3017   23.2027 H   0  0  0  0  0  0  0  0  0  0  0  0
 24 25  1  0  0  0
 24 26  1  0  0  0
 24 19  1  0  0  0
 25 31  2  0  0  0
 26 27  2  0  0  0
 26 28  1  0  0  0
 28 29  1  0  0  0
 29 30  2  0  0  0
 29 31  1  0  0  0
 31 32  1  0  0  0
 16 17  1  0  0  0
 16 15  1  0  0  0
 17 18  1  0  0  0
 17 21  1  0  0  0
 18 19  1  0  0  0
 19 20  1  0  0  0
 20 21  1  0  0  0
 21 22  1  0  0  0
 11 12  1  0  0  0
 11 13  2  0  0  0
 11 15  1  0  0  0
 11 10  1  0  0  0
 10  6  1  0  0  0
  6  7  2  0  0  0
  6  8  1  0  0  0
  6  5  1  0  0  0
  5  1  1  0  0  0
  1  2  2  0  0  0
  1  3  1  0  0  0
  1 34  1  0  0  0
 34 35  1  0  0  0
 35 36  1  0  0  0
 35 37  2  0  0  0
 35 39  1  0  0  0
 39 40  1  0  0  0
 40 41  1  0  0  0
 40 42  2  0  0  0
 40 44  1  0  0  0
 44 45  1  0  0  0
 45 46  1  0  0  0
 46 47  1  0  0  0
 46 51  1  0  0  0
 47 48  1  0  0  0
 48 49  1  0  0  0
 48 55  1  0  0  0
 49 50  1  0  0  0
 49 51  1  0  0  0
 51 52  1  0  0  0
 55 56  1  0  0  0
 55 64  1  0  0  0
 56 57  1  0  0  0
 56 62  2  0  0  0
 57 58  2  0  0  0
 58 59  1  0  0  0
 59 60  2  0  0  0
 60 61  1  0  0  0
 60 62  1  0  0  0
 62 63  1  0  0  0
 63 64  2  0  0  0
 28 33  1  0  0  0
 22 23  1  0  0  0
 12 14  1  0  0  0
  8  9  1  0  0  0
  3  4  1  0  0  0
 36 38  1  0  0  0
 41 43  1  0  0  0
 50 53  1  0  0  0
 52 54  1  0  0  0
 61 65  1  0  0  0
 61 66  1  0  0  0
M  END
> <minimizedAffinity>
-11.90270

$$$$
4TMK_T5A_A_214


 66 70  0  0  0  0  0  0  0  0999 V2000
   19.2201  107.6619   13.8219 P   0  0  0  0  0  0  0  0  0  0  0  0
   18.8869  108.9316   13.1571 O   0  0  0  0  0  0  0  0  0  0  0  0
   20.2935  106.8505   13.2802 O   0  0  0  0  0  0  0  0  0  0  0  0
   21.0916  107.3931   13.1834 H   0  0  0  0  0  0  0  0  0  0  0  0
   19.5471  108.0350   15.2650 O   0  0  0  0  0  0  0  0  0  0  0  0
   20.2214  107.3315   16.5205 P   0  0  0  0  0  0  0  0  0  0  0  0
   21.3579  108.0998   17.1333 O   0  0  0  0  0  0  0  0  0  0  0  0
   19.0563  106.9717   17.3870 O   0  0  0  0  0  0  0  0  0  0  0  0
   19.3747  106.5304   18.1900 H   0  0  0  0  0  0  0  0  0  0  0  0
   20.7716  105.9288   15.8692 O   0  0  0  0  0  0  0  0  0  0  0  0
   20.3346  104.5786   15.9082 P   0  0  0  0  0  0  0  0  0  0  0  0
   18.9069  104.5739   16.1116 O   0  0  0  0  0  0  0  0  0  0  0  0
   20.8090  104.1968   14.5377 O   0  0  0  0  0  0  0  0  0  0  0  0
   18.5876  103.6584   16.1414 H   0  0  0  0  0  0  0  0  0  0  0  0
   21.1724  103.6594   16.9851 O   0  0  0  0  0  0  0  0  0  0  0  0
   20.8260  102.3542   17.1661 C   0  0  0  0  0  0  0  0  0  0  0  0
   21.8533  101.7464   18.1307 C   0  0  0  0  0  0  0  0  0  0  0  0
   22.7272  100.8196   17.4241 O   0  0  0  0  0  0  0  0  0  0  0  0
   24.0061  100.9152   18.1563 C   0  0  0  0  0  0  0  0  0  0  0  0
   24.0551  102.4551   18.3155 C   0  0  0  0  0  0  0  0  0  0  0  0
   22.6954  102.8132   18.8477 C   0  0  0  0  0  0  0  0  0  0  0  0
   22.5977  102.6732   20.2599 O   0  0  0  0  0  0  0  0  0  0  0  0
   22.8402  101.7687   20.5126 H   0  0  0  0  0  0  0  0  0  0  0  0
   25.0313  100.4144   17.3014 N   0  0  0  0  0  0  0  0  0  0  0  0
   24.9156  100.6254   15.9847 C   0  0  0  0  0  0  0  0  0  0  0  0
   25.9638   99.6049   17.8467 C   0  0  0  0  0  0  0  0  0  0  0  0
   25.9780   99.1838   19.0255 O   0  0  0  0  0  0  0  0  0  0  0  0
   26.8981   99.1534   16.9460 N   0  0  0  0  0  0  0  0  0  0  0  0
   26.8707   99.3123   15.5800 C   0  0  0  0  0  0  0  0  0  0  0  0
   27.7586   98.8754   14.8339 O   0  0  0  0  0  0  0  0  0  0  0  0
   25.7832  100.1046   15.0973 C   0  0  0  0  0  0  0  0  0  0  0  0
   25.7331  100.3435   13.5854 C   0  0  0  0  0  0  0  0  0  0  0  0
   27.6679   98.6649   17.3174 H   0  0  0  0  0  0  0  0  0  0  0  0
   17.9081  106.6489   13.9488 O   0  0  0  0  0  0  0  0  0  0  0  0
   16.3745  106.6149   14.6899 P   0  0  0  0  0  0  0  0  0  0  0  0
   16.4614  106.1093   16.0927 O   0  0  0  0  0  0  0  0  0  0  0  0
   15.4877  106.0836   13.6701 O   0  0  0  0  0  0  0  0  0  0  0  0
   16.6315  105.1543   16.0823 H   0  0  0  0  0  0  0  0  0  0  0  0
   16.0956  108.1768   14.9821 O   0  0  0  0  0  0  0  0  0  0  0  0
   15.1109  109.3520   14.3959 P   0  0  0  0  0  0  0  0  0  0  0  0
   14.4584  108.8687   13.1445 O   0  0  0  0  0  0  0  0  0  0  0  0
   14.2717  109.6910   15.5469 O   0  0  0  0  0  0  0  0  0  0  0  0
   13.8004  108.1907   13.3640 H   0  0  0  0  0  0  0  0  0  0  0  0
   16.1834  110.4458   14.1269 O   0  0  0  0  0  0  0  0  0  0  0  0
   16.3445  111.6435   14.9225 C   0  0  0  0  0  0  0  0  0  0  0  0
   17.7350  112.1824   14.8231 C   0  0  0  0  0  0  0  0  0  0  0  0
   17.7901  113.3945   15.5359 O   0  0  0  0  0  0  0  0  0  0  0  0
   18.7621  113.3658   16.6199 C   0  0  0  0  0  0  0  0  0  0  0  0
   19.0338  111.8820   16.8533 C   0  0  0  0  0  0  0  0  0  0  0  0
   20.3481  111.8162   17.3933 O   0  0  0  0  0  0  0  0  0  0  0  0
   18.8865  111.2628   15.4276 C   0  0  0  0  0  0  0  0  0  0  0  0
   20.0372  111.5470   14.5740 O   0  0  0  0  0  0  0  0  0  0  0  0
   20.9632  112.2809   16.8045 H   0  0  0  0  0  0  0  0  0  0  0  0
   20.1756  112.5059   14.5265 H   0  0  0  0  0  0  0  0  0  0  0  0
   18.2249  113.9597   17.8605 N   0  0  0  0  0  0  0  0  0  0  0  0
   16.9684  113.7236   18.4050 C   0  0  0  0  0  0  0  0  0  0  0  0
   16.0340  112.8333   17.9437 N   0  0  0  0  0  0  0  0  0  0  0  0
   14.9070  112.8667   18.6720 C   0  0  0  0  0  0  0  0  0  0  0  0
   14.6647  113.6352   19.7672 N   0  0  0  0  0  0  0  0  0  0  0  0
   15.6359  114.4213   20.2780 C   0  0  0  0  0  0  0  0  0  0  0  0
   15.3062  115.1136   21.3612 N   0  0  0  0  0  0  0  0  0  0  0  0
   16.8854  114.4649   19.5703 C   0  0  0  0  0  0  0  0  0  0  0  0
   18.0264  115.2250   19.6944 N   0  0  0  0  0  0  0  0  0  0  0  0
   18.7717  114.9223   18.6564 C   0  0  0  0  0  0  0  0  0  0  0  0
   14.4148  115.0024   21.7641 H   0  0  0  0  0  0  0  0  0  0  0  0
   15.9530  115.7384   21.7619 H   0  0  0  0  0  0  0  0  0  0  0  0
 24 25  1  0  0  0
 24 26  1  0  0  0
 24 19  1  0  0  0
 25 31  2  0  0  0
 26 27  2  0  0  0
 26 28  1  0  0  0
 28 29  1  0  0  0
 29 30  2  0  0  0
 29 31  1  0  0  0
 31 32  1  0  0  0
 16 17  1  0  0  0
 16 15  1  0  0  0
 17 18  1  0  0  0
 17 21  1  0  0  0
 18 19  1  0  0  0
 19 20  1  0  0  0
 20 21  1  0  0  0
 21 22  1  0  0  0
 11 12  1  0  0  0
 11 13  2  0  0  0
 11 15  1  0  0  0
 11 10  1  0  0  0
 10  6  1  0  0  0
  6  7  2  0  0  0
  6  8  1  0  0  0
  6  5  1  0  0  0
  5  1  1  0  0  0
  1  2  2  0  0  0
  1  3  1  0  0  0
  1 34  1  0  0  0
 34 35  1  0  0  0
 35 36  1  0  0  0
 35 37  2  0  0  0
 35 39  1  0  0  0
 39 40  1  0  0  0
 40 41  1  0  0  0
 40 42  2  0  0  0
 40 44  1  0  0  0
 44 45  1  0  0  0
 45 46  1  0  0  0
 46 47  1  0  0  0
 46 51  1  0  0  0
 47 48  1  0  0  0
 48 49  1  0  0  0
 48 55  1  0  0  0
 49 50  1  0  0  0
 49 51  1  0  0  0
 51 52  1  0  0  0
 55 56  1  0  0  0
 55 64  1  0  0  0
 56 57  1  0  0  0
 56 62  2  0  0  0
 57 58  2  0  0  0
 58 59  1  0  0  0
 59 60  2  0  0  0
 60 61  1  0  0  0
 60 62  1  0  0  0
 62 63  1  0  0  0
 63 64  2  0  0  0
 28 33  1  0  0  0
 22 23  1  0  0  0
 12 14  1  0  0  0
  8  9  1  0  0  0
  3  4  1  0  0  0
 36 38  1  0  0  0
 41 43  1  0  0  0
 50 53  1  0  0  0
 52 54  1  0  0  0
 61 65  1  0  0  0
 61 66  1  0  0  0
M  END
> <minimizedAffinity>
-11.85684

$$$$
4TMK_T5A_A_214


 66 70  0  0  0  0  0  0  0  0999 V2000
   15.3866  105.5679   15.1502 P   0  0  0  0  0  0  0  0  0  0  0  0
   14.8479  104.5757   16.0938 O   0  0  0  0  0  0  0  0  0  0  0  0
   14.9709  106.9516   15.2788 O   0  0  0  0  0  0  0  0  0  0  0  0
   15.1152  107.2492   16.1906 H   0  0  0  0  0  0  0  0  0  0  0  0
   16.9034  105.4803   15.2938 O   0  0  0  0  0  0  0  0  0  0  0  0
   17.9387  105.0471   16.4191 P   0  0  0  0  0  0  0  0  0  0  0  0
   18.0602  106.0130   17.5635 O   0  0  0  0  0  0  0  0  0  0  0  0
   17.5570  103.6322   16.7192 O   0  0  0  0  0  0  0  0  0  0  0  0
   18.1434  103.2779   17.4059 H   0  0  0  0  0  0  0  0  0  0  0  0
   19.3473  104.9840   15.5786 O   0  0  0  0  0  0  0  0  0  0  0  0
   20.6205  104.4038   15.8189 P   0  0  0  0  0  0  0  0  0  0  0  0
   21.0155  103.6806   14.6354 O   0  0  0  0  0  0  0  0  0  0  0  0
   21.3535  105.6844   16.0873 O   0  0  0  0  0  0  0  0  0  0  0  0
   21.8850  103.2755   14.7792 H   0  0  0  0  0  0  0  0  0  0  0  0
   20.6745  103.5148   17.2021 O   0  0  0  0  0  0  0  0  0  0  0  0
   20.7143  102.1551   17.1251 C   0  0  0  0  0  0  0  0  0  0  0  0
   21.8008  101.6815   18.1001 C   0  0  0  0  0  0  0  0  0  0  0  0
   22.7031  100.7474   17.4404 O   0  0  0  0  0  0  0  0  0  0  0  0
   23.9955  100.9683   18.1198 C   0  0  0  0  0  0  0  0  0  0  0  0
   23.9650  102.5165   18.1549 C   0  0  0  0  0  0  0  0  0  0  0  0
   22.6037  102.8452   18.7020 C   0  0  0  0  0  0  0  0  0  0  0  0
   22.5548  102.8148   20.1233 O   0  0  0  0  0  0  0  0  0  0  0  0
   22.8535  101.9475   20.4387 H   0  0  0  0  0  0  0  0  0  0  0  0
   25.0213  100.4542   17.2736 N   0  0  0  0  0  0  0  0  0  0  0  0
   24.9134  100.6562   15.9548 C   0  0  0  0  0  0  0  0  0  0  0  0
   25.9455   99.6423   17.8294 C   0  0  0  0  0  0  0  0  0  0  0  0
   25.9511   99.2298   19.0114 O   0  0  0  0  0  0  0  0  0  0  0  0
   26.8810   99.1777   16.9367 N   0  0  0  0  0  0  0  0  0  0  0  0
   26.8613   99.3267   15.5693 C   0  0  0  0  0  0  0  0  0  0  0  0
   27.7497   98.8782   14.8308 O   0  0  0  0  0  0  0  0  0  0  0  0
   25.7817  100.1229   15.0756 C   0  0  0  0  0  0  0  0  0  0  0  0
   25.7406  100.3510   13.5617 C   0  0  0  0  0  0  0  0  0  0  0  0
   27.6456   98.6866   17.3154 H   0  0  0  0  0  0  0  0  0  0  0  0
   15.1016  105.1561   13.5651 O   0  0  0  0  0  0  0  0  0  0  0  0
   14.9485  105.9119   12.0459 P   0  0  0  0  0  0  0  0  0  0  0  0
   13.5216  106.2304   11.7402 O   0  0  0  0  0  0  0  0  0  0  0  0
   15.8364  105.1630   11.1743 O   0  0  0  0  0  0  0  0  0  0  0  0
   13.0439  105.4112   11.5363 H   0  0  0  0  0  0  0  0  0  0  0  0
   15.5005  107.3988   12.3408 O   0  0  0  0  0  0  0  0  0  0  0  0
   16.9586  108.1511   12.3934 P   0  0  0  0  0  0  0  0  0  0  0  0
   18.0428  107.1287   12.3258 O   0  0  0  0  0  0  0  0  0  0  0  0
   16.8591  109.1496   11.3271 O   0  0  0  0  0  0  0  0  0  0  0  0
   18.0782  106.7536   11.4320 H   0  0  0  0  0  0  0  0  0  0  0  0
   16.8374  108.8019   13.8008 O   0  0  0  0  0  0  0  0  0  0  0  0
   17.8726  108.7602   14.8108 C   0  0  0  0  0  0  0  0  0  0  0  0
   18.8294  109.8983   14.6597 C   0  0  0  0  0  0  0  0  0  0  0  0
   18.1332  111.0957   14.9083 O   0  0  0  0  0  0  0  0  0  0  0  0
   18.6934  111.8515   16.0199 C   0  0  0  0  0  0  0  0  0  0  0  0
   19.5497  110.8413   16.7788 C   0  0  0  0  0  0  0  0  0  0  0  0
   20.5573  111.6078   17.4275 O   0  0  0  0  0  0  0  0  0  0  0  0
   20.0766  109.8997   15.6503 C   0  0  0  0  0  0  0  0  0  0  0  0
   21.1413  110.5150   14.8619 O   0  0  0  0  0  0  0  0  0  0  0  0
   21.0158  112.1583   16.7736 H   0  0  0  0  0  0  0  0  0  0  0  0
   20.8279  111.3573   14.4970 H   0  0  0  0  0  0  0  0  0  0  0  0
   17.6445  112.3696   16.9210 N   0  0  0  0  0  0  0  0  0  0  0  0
   17.7876  113.4074   17.8338 C   0  0  0  0  0  0  0  0  0  0  0  0
   18.8949  114.1972   18.0036 N   0  0  0  0  0  0  0  0  0  0  0  0
   18.7272  115.0902   18.9917 C   0  0  0  0  0  0  0  0  0  0  0  0
   17.6119  115.2718   19.7479 N   0  0  0  0  0  0  0  0  0  0  0  0
   16.4906  114.5654   19.4914 C   0  0  0  0  0  0  0  0  0  0  0  0
   15.4502  114.8333   20.2706 N   0  0  0  0  0  0  0  0  0  0  0  0
   16.5620  113.5745   18.4536 C   0  0  0  0  0  0  0  0  0  0  0  0
   15.7032  112.5946   18.0092 N   0  0  0  0  0  0  0  0  0  0  0  0
   16.3859  111.8912   17.1352 C   0  0  0  0  0  0  0  0  0  0  0  0
   15.5156  115.5395   20.9535 H   0  0  0  0  0  0  0  0  0  0  0  0
   14.6132  114.3258   20.1659 H   0  0  0  0  0  0  0  0  0  0  0  0
 24 25  1  0  0  0
 24 26  1  0  0  0
 24 19  1  0  0  0
 25 31  2  0  0  0
 26 27  2  0  0  0
 26 28  1  0  0  0
 28 29  1  0  0  0
 29 30  2  0  0  0
 29 31  1  0  0  0
 31 32  1  0  0  0
 16 17  1  0  0  0
 16 15  1  0  0  0
 17 18  1  0  0  0
 17 21  1  0  0  0
 18 19  1  0  0  0
 19 20  1  0  0  0
 20 21  1  0  0  0
 21 22  1  0  0  0
 11 12  1  0  0  0
 11 13  2  0  0  0
 11 15  1  0  0  0
 11 10  1  0  0  0
 10  6  1  0  0  0
  6  7  2  0  0  0
  6  8  1  0  0  0
  6  5  1  0  0  0
  5  1  1  0  0  0
  1  2  2  0  0  0
  1  3  1  0  0  0
  1 34  1  0  0  0
 34 35  1  0  0  0
 35 36  1  0  0  0
 35 37  2  0  0  0
 35 39  1  0  0  0
 39 40  1  0  0  0
 40 41  1  0  0  0
 40 42  2  0  0  0
 40 44  1  0  0  0
 44 45  1  0  0  0
 45 46  1  0  0  0
 46 47  1  0  0  0
 46 51  1  0  0  0
 47 48  1  0  0  0
 48 49  1  0  0  0
 48 55  1  0  0  0
 49 50  1  0  0  0
 49 51  1  0  0  0
 51 52  1  0  0  0
 55 56  1  0  0  0
 55 64  1  0  0  0
 56 57  1  0  0  0
 56 62  2  0  0  0
 57 58  2  0  0  0
 58 59  1  0  0  0
 59 60  2  0  0  0
 60 61  1  0  0  0
 60 62  1  0  0  0
 62 63  1  0  0  0
 63 64  2  0  0  0
 28 33  1  0  0  0
 22 23  1  0  0  0
 12 14  1  0  0  0
  8  9  1  0  0  0
  3  4  1  0  0  0
 36 38  1  0  0  0
 41 43  1  0  0  0
 50 53  1  0  0  0
 52 54  1  0  0  0
 61 65  1  0  0  0
 61 66  1  0  0  0
M  END
> <minimizedAffinity>
-11.81623

$$$$
4TMK_T5A_A_214


 66 70  0  0  0  0  0  0  0  0999 V2000
   19.5679  108.4194   16.7880 P   0  0  0  0  0  0  0  0  0  0  0  0
   19.1561  108.5789   18.1917 O   0  0  0  0  0  0  0  0  0  0  0  0
   20.9201  108.7844   16.4112 O   0  0  0  0  0  0  0  0  0  0  0  0
   21.5510  108.3345   16.9947 H   0  0  0  0  0  0  0  0  0  0  0  0
   19.3322  106.9472   16.4625 O   0  0  0  0  0  0  0  0  0  0  0  0
   18.1383  106.0598   15.9034 P   0  0  0  0  0  0  0  0  0  0  0  0
   16.9406  105.9804   16.8071 O   0  0  0  0  0  0  0  0  0  0  0  0
   17.9463  106.5698   14.5103 O   0  0  0  0  0  0  0  0  0  0  0  0
   17.2264  106.0798   14.0829 H   0  0  0  0  0  0  0  0  0  0  0  0
   18.8455  104.5846   15.7688 O   0  0  0  0  0  0  0  0  0  0  0  0
   18.6420  103.3263   16.3940 P   0  0  0  0  0  0  0  0  0  0  0  0
   17.8797  103.5413   17.5992 O   0  0  0  0  0  0  0  0  0  0  0  0
   17.9121  102.6766   15.2563 O   0  0  0  0  0  0  0  0  0  0  0  0
   17.7295  102.6918   18.0426 H   0  0  0  0  0  0  0  0  0  0  0  0
   20.0371  102.4841   16.6196 O   0  0  0  0  0  0  0  0  0  0  0  0
   21.1671  103.1454   16.9964 C   0  0  0  0  0  0  0  0  0  0  0  0
   21.9459  102.2085   17.9296 C   0  0  0  0  0  0  0  0  0  0  0  0
   22.7524  101.2750   17.1549 O   0  0  0  0  0  0  0  0  0  0  0  0
   23.9187  101.0146   18.0224 C   0  0  0  0  0  0  0  0  0  0  0  0
   24.1854  102.4709   18.4773 C   0  0  0  0  0  0  0  0  0  0  0  0
   22.8386  102.9698   18.9220 C   0  0  0  0  0  0  0  0  0  0  0  0
   22.5289  102.6105   20.2631 O   0  0  0  0  0  0  0  0  0  0  0  0
   22.5905  101.6476   20.3623 H   0  0  0  0  0  0  0  0  0  0  0  0
   24.9599  100.4922   17.2003 N   0  0  0  0  0  0  0  0  0  0  0  0
   24.8575  100.6485   15.8749 C   0  0  0  0  0  0  0  0  0  0  0  0
   25.8953   99.7169   17.7886 C   0  0  0  0  0  0  0  0  0  0  0  0
   25.9002   99.3439   18.9836 O   0  0  0  0  0  0  0  0  0  0  0  0
   26.8455   99.2408   16.9178 N   0  0  0  0  0  0  0  0  0  0  0  0
   26.8326   99.3441   15.5462 C   0  0  0  0  0  0  0  0  0  0  0  0
   27.7344   98.8884   14.8287 O   0  0  0  0  0  0  0  0  0  0  0  0
   25.7417  100.1030   15.0194 C   0  0  0  0  0  0  0  0  0  0  0  0
   25.7069  100.2800   13.4985 C   0  0  0  0  0  0  0  0  0  0  0  0
   27.6165   98.7771   17.3175 H   0  0  0  0  0  0  0  0  0  0  0  0
   18.5705  109.2352   15.7376 O   0  0  0  0  0  0  0  0  0  0  0  0
   18.5261  110.7115   14.8887 P   0  0  0  0  0  0  0  0  0  0  0  0
   17.2348  110.8774   14.1566 O   0  0  0  0  0  0  0  0  0  0  0  0
   19.8422  110.8258   14.2855 O   0  0  0  0  0  0  0  0  0  0  0  0
   17.2162  110.2782   13.3939 H   0  0  0  0  0  0  0  0  0  0  0  0
   18.3062  111.7858   16.0720 O   0  0  0  0  0  0  0  0  0  0  0  0
   18.9794  112.1215   17.5310 P   0  0  0  0  0  0  0  0  0  0  0  0
   18.2186  111.4109   18.5994 O   0  0  0  0  0  0  0  0  0  0  0  0
   20.3926  111.7947   17.3311 O   0  0  0  0  0  0  0  0  0  0  0  0
   18.3977  110.4591   18.5454 H   0  0  0  0  0  0  0  0  0  0  0  0
   18.7442  113.6588   17.5511 O   0  0  0  0  0  0  0  0  0  0  0  0
   18.7714  114.4727   18.7469 C   0  0  0  0  0  0  0  0  0  0  0  0
   17.9072  115.6836   18.6035 C   0  0  0  0  0  0  0  0  0  0  0  0
   18.5515  116.7626   19.2367 O   0  0  0  0  0  0  0  0  0  0  0  0
   18.8268  117.8657   18.3266 C   0  0  0  0  0  0  0  0  0  0  0  0
   18.7133  117.2522   16.9336 C   0  0  0  0  0  0  0  0  0  0  0  0
   18.3475  118.3249   16.0740 O   0  0  0  0  0  0  0  0  0  0  0  0
   17.6122  116.1598   17.1125 C   0  0  0  0  0  0  0  0  0  0  0  0
   16.2693  116.7288   17.1925 O   0  0  0  0  0  0  0  0  0  0  0  0
   17.5530  118.7603   16.4206 H   0  0  0  0  0  0  0  0  0  0  0  0
   16.2363  117.3799   17.9108 H   0  0  0  0  0  0  0  0  0  0  0  0
   20.1894  118.4052   18.5075 N   0  0  0  0  0  0  0  0  0  0  0  0
   20.5354  119.5228   19.2573 C   0  0  0  0  0  0  0  0  0  0  0  0
   19.6946  120.2748   20.0358 N   0  0  0  0  0  0  0  0  0  0  0  0
   20.3311  121.3096   20.6066 C   0  0  0  0  0  0  0  0  0  0  0  0
   21.6518  121.6149   20.5012 N   0  0  0  0  0  0  0  0  0  0  0  0
   22.4892  120.7996   19.8258 C   0  0  0  0  0  0  0  0  0  0  0  0
   23.7623  121.1739   19.8013 N   0  0  0  0  0  0  0  0  0  0  0  0
   21.9093  119.6610   19.1690 C   0  0  0  0  0  0  0  0  0  0  0  0
   22.3956  118.7105   18.3001 N   0  0  0  0  0  0  0  0  0  0  0  0
   21.3517  118.0149   17.9113 C   0  0  0  0  0  0  0  0  0  0  0  0
   24.0485  121.9778   20.2923 H   0  0  0  0  0  0  0  0  0  0  0  0
   24.4203  120.6478   19.2920 H   0  0  0  0  0  0  0  0  0  0  0  0
 24 25  1  0  0  0
 24 26  1  0  0  0
 24 19  1  0  0  0
 25 31  2  0  0  0
 26 27  2  0  0  0
 26 28  1  0  0  0
 28 29  1  0  0  0
 29 30  2  0  0  0
 29 31  1  0  0  0
 31 32  1  0  0  0
 16 17  1  0  0  0
 16 15  1  0  0  0
 17 18  1  0  0  0
 17 21  1  0  0  0
 18 19  1  0  0  0
 19 20  1  0  0  0
 20 21  1  0  0  0
 21 22  1  0  0  0
 11 12  1  0  0  0
 11 13  2  0  0  0
 11 15  1  0  0  0
 11 10  1  0  0  0
 10  6  1  0  0  0
  6  7  2  0  0  0
  6  8  1  0  0  0
  6  5  1  0  0  0
  5  1  1  0  0  0
  1  2  2  0  0  0
  1  3  1  0  0  0
  1 34  1  0  0  0
 34 35  1  0  0  0
 35 36  1  0  0  0
 35 37  2  0  0  0
 35 39  1  0  0  0
 39 40  1  0  0  0
 40 41  1  0  0  0
 40 42  2  0  0  0
 40 44  1  0  0  0
 44 45  1  0  0  0
 45 46  1  0  0  0
 46 47  1  0  0  0
 46 51  1  0  0  0
 47 48  1  0  0  0
 48 49  1  0  0  0
 48 55  1  0  0  0
 49 50  1  0  0  0
 49 51  1  0  0  0
 51 52  1  0  0  0
 55 56  1  0  0  0
 55 64  1  0  0  0
 56 57  1  0  0  0
 56 62  2  0  0  0
 57 58  2  0  0  0
 58 59  1  0  0  0
 59 60  2  0  0  0
 60 61  1  0  0  0
 60 62  1  0  0  0
 62 63  1  0  0  0
 63 64  2  0  0  0
 28 33  1  0  0  0
 22 23  1  0  0  0
 12 14  1  0  0  0
  8  9  1  0  0  0
  3  4  1  0  0  0
 36 38  1  0  0  0
 41 43  1  0  0  0
 50 53  1  0  0  0
 52 54  1  0  0  0
 61 65  1  0  0  0
 61 66  1  0  0  0
M  END
> <minimizedAffinity>
-11.80594

$$$$
4TMK_T5A_A_214


 66 70  0  0  0  0  0  0  0  0999 V2000
   18.0577  107.1532   14.2765 P   0  0  0  0  0  0  0  0  0  0  0  0
   18.3640  107.3142   12.8463 O   0  0  0  0  0  0  0  0  0  0  0  0
   17.3118  105.9849   14.7038 O   0  0  0  0  0  0  0  0  0  0  0  0
   17.7427  105.1845   14.3652 H   0  0  0  0  0  0  0  0  0  0  0  0
   19.4094  107.1768   14.9845 O   0  0  0  0  0  0  0  0  0  0  0  0
   20.0989  106.4099   16.1937 P   0  0  0  0  0  0  0  0  0  0  0  0
   21.4942  106.8677   16.5113 O   0  0  0  0  0  0  0  0  0  0  0  0
   19.0678  106.4651   17.2760 O   0  0  0  0  0  0  0  0  0  0  0  0
   19.4045  106.0150   18.0666 H   0  0  0  0  0  0  0  0  0  0  0  0
   20.1209  104.8625   15.6462 O   0  0  0  0  0  0  0  0  0  0  0  0
   19.6419  103.6250   16.1508 P   0  0  0  0  0  0  0  0  0  0  0  0
   18.2441  103.7805   16.4698 O   0  0  0  0  0  0  0  0  0  0  0  0
   19.9561  102.8025   14.9367 O   0  0  0  0  0  0  0  0  0  0  0  0
   17.8967  102.9441   16.8171 H   0  0  0  0  0  0  0  0  0  0  0  0
   20.5541  103.0346   17.3861 O   0  0  0  0  0  0  0  0  0  0  0  0
   20.6428  101.6877   17.5709 C   0  0  0  0  0  0  0  0  0  0  0  0
   21.8676  101.4359   18.4606 C   0  0  0  0  0  0  0  0  0  0  0  0
   22.7929  100.5221   17.8045 O   0  0  0  0  0  0  0  0  0  0  0  0
   24.1167  100.9424   18.3061 C   0  0  0  0  0  0  0  0  0  0  0  0
   23.9239  102.4742   18.1820 C   0  0  0  0  0  0  0  0  0  0  0  0
   22.5982  102.7328   18.8424 C   0  0  0  0  0  0  0  0  0  0  0  0
   22.6981  102.8627   20.2554 O   0  0  0  0  0  0  0  0  0  0  0  0
   23.1188  102.0702   20.6240 H   0  0  0  0  0  0  0  0  0  0  0  0
   25.1000  100.4339   17.4077 N   0  0  0  0  0  0  0  0  0  0  0  0
   24.9272  100.6429   16.0970 C   0  0  0  0  0  0  0  0  0  0  0  0
   26.0511   99.6200   17.9129 C   0  0  0  0  0  0  0  0  0  0  0  0
   26.1151   99.2012   19.0909 O   0  0  0  0  0  0  0  0  0  0  0  0
   26.9418   99.1612   16.9727 N   0  0  0  0  0  0  0  0  0  0  0  0
   26.8548   99.3175   15.6089 C   0  0  0  0  0  0  0  0  0  0  0  0
   27.7061   98.8739   14.8251 O   0  0  0  0  0  0  0  0  0  0  0  0
   25.7515  100.1153   15.1732 C   0  0  0  0  0  0  0  0  0  0  0  0
   25.6358  100.3515   13.6644 C   0  0  0  0  0  0  0  0  0  0  0  0
   27.7245   98.6688   17.3107 H   0  0  0  0  0  0  0  0  0  0  0  0
   17.2453  108.4615   14.9026 O   0  0  0  0  0  0  0  0  0  0  0  0
   16.7794  110.0320   14.4349 P   0  0  0  0  0  0  0  0  0  0  0  0
   15.6275  110.5212   15.2503 O   0  0  0  0  0  0  0  0  0  0  0  0
   16.8169  110.0071   12.9834 O   0  0  0  0  0  0  0  0  0  0  0  0
   14.8210  110.0523   14.9846 H   0  0  0  0  0  0  0  0  0  0  0  0
   17.9569  110.9429   15.0563 O   0  0  0  0  0  0  0  0  0  0  0  0
   19.5983  110.9375   15.0741 P   0  0  0  0  0  0  0  0  0  0  0  0
   20.0781  109.7755   15.8773 O   0  0  0  0  0  0  0  0  0  0  0  0
   19.9491  111.0103   13.6544 O   0  0  0  0  0  0  0  0  0  0  0  0
   19.9116  108.9541   15.3890 H   0  0  0  0  0  0  0  0  0  0  0  0
   19.8308  112.2974   15.7922 O   0  0  0  0  0  0  0  0  0  0  0  0
   18.8041  113.0337   16.4971 C   0  0  0  0  0  0  0  0  0  0  0  0
   18.7239  112.6220   17.9316 C   0  0  0  0  0  0  0  0  0  0  0  0
   18.7813  113.7815   18.7270 O   0  0  0  0  0  0  0  0  0  0  0  0
   17.6019  113.9476   19.5650 C   0  0  0  0  0  0  0  0  0  0  0  0
   16.5513  113.0372   18.9347 C   0  0  0  0  0  0  0  0  0  0  0  0
   15.6728  112.6791   19.9947 O   0  0  0  0  0  0  0  0  0  0  0  0
   17.3974  111.8547   18.3660 C   0  0  0  0  0  0  0  0  0  0  0  0
   17.8546  110.9422   19.4110 O   0  0  0  0  0  0  0  0  0  0  0  0
   16.1862  112.3042   20.7273 H   0  0  0  0  0  0  0  0  0  0  0  0
   18.3522  111.4391   20.0791 H   0  0  0  0  0  0  0  0  0  0  0  0
   17.1061  115.3384   19.5529 N   0  0  0  0  0  0  0  0  0  0  0  0
   16.1155  115.8625   20.3745 C   0  0  0  0  0  0  0  0  0  0  0  0
   15.4815  115.2146   21.4025 N   0  0  0  0  0  0  0  0  0  0  0  0
   14.5484  115.9862   21.9819 C   0  0  0  0  0  0  0  0  0  0  0  0
   14.2411  117.2726   21.6664 N   0  0  0  0  0  0  0  0  0  0  0  0
   14.9532  117.9346   20.7299 C   0  0  0  0  0  0  0  0  0  0  0  0
   14.5894  119.1921   20.5121 N   0  0  0  0  0  0  0  0  0  0  0  0
   15.9765  117.1981   20.0411 C   0  0  0  0  0  0  0  0  0  0  0  0
   16.7906  117.4737   18.9657 N   0  0  0  0  0  0  0  0  0  0  0  0
   17.4122  116.3498   18.6914 C   0  0  0  0  0  0  0  0  0  0  0  0
   13.8700  119.5965   21.0491 H   0  0  0  0  0  0  0  0  0  0  0  0
   15.0388  119.7207   19.8136 H   0  0  0  0  0  0  0  0  0  0  0  0
 24 25  1  0  0  0
 24 26  1  0  0  0
 24 19  1  0  0  0
 25 31  2  0  0  0
 26 27  2  0  0  0
 26 28  1  0  0  0
 28 29  1  0  0  0
 29 30  2  0  0  0
 29 31  1  0  0  0
 31 32  1  0  0  0
 16 17  1  0  0  0
 16 15  1  0  0  0
 17 18  1  0  0  0
 17 21  1  0  0  0
 18 19  1  0  0  0
 19 20  1  0  0  0
 20 21  1  0  0  0
 21 22  1  0  0  0
 11 12  1  0  0  0
 11 13  2  0  0  0
 11 15  1  0  0  0
 11 10  1  0  0  0
 10  6  1  0  0  0
  6  7  2  0  0  0
  6  8  1  0  0  0
  6  5  1  0  0  0
  5  1  1  0  0  0
  1  2  2  0  0  0
  1  3  1  0  0  0
  1 34  1  0  0  0
 34 35  1  0  0  0
 35 36  1  0  0  0
 35 37  2  0  0  0
 35 39  1  0  0  0
 39 40  1  0  0  0
 40 41  1  0  0  0
 40 42  2  0  0  0
 40 44  1  0  0  0
 44 45  1  0  0  0
 45 46  1  0  0  0
 46 47  1  0  0  0
 46 51  1  0  0  0
 47 48  1  0  0  0
 48 49  1  0  0  0
 48 55  1  0  0  0
 49 50  1  0  0  0
 49 51  1  0  0  0
 51 52  1  0  0  0
 55 56  1  0  0  0
 55 64  1  0  0  0
 56 57  1  0  0  0
 56 62  2  0  0  0
 57 58  2  0  0  0
 58 59  1  0  0  0
 59 60  2  0  0  0
 60 61  1  0  0  0
 60 62  1  0  0  0
 62 63  1  0  0  0
 63 64  2  0  0  0
 28 33  1  0  0  0
 22 23  1  0  0  0
 12 14  1  0  0  0
  8  9  1  0  0  0
  3  4  1  0  0  0
 36 38  1  0  0  0
 41 43  1  0  0  0
 50 53  1  0  0  0
 52 54  1  0  0  0
 61 65  1  0  0  0
 61 66  1  0  0  0
M  END
> <minimizedAffinity>
-11.65235

$$$$
4TMK_T5A_A_214


 66 70  0  0  0  0  0  0  0  0999 V2000
   17.8292  107.4073   14.5467 P   0  0  0  0  0  0  0  0  0  0  0  0
   18.0166  107.2012   13.1019 O   0  0  0  0  0  0  0  0  0  0  0  0
   17.1262  106.3947   15.3112 O   0  0  0  0  0  0  0  0  0  0  0  0
   17.5317  105.5284   15.1500 H   0  0  0  0  0  0  0  0  0  0  0  0
   19.2342  107.5854   15.1152 O   0  0  0  0  0  0  0  0  0  0  0  0
   20.0800  106.9936   16.3235 P   0  0  0  0  0  0  0  0  0  0  0  0
   21.2350  107.8506   16.7583 O   0  0  0  0  0  0  0  0  0  0  0  0
   19.0391  106.6347   17.3361 O   0  0  0  0  0  0  0  0  0  0  0  0
   19.4676  106.2596   18.1213 H   0  0  0  0  0  0  0  0  0  0  0  0
   20.6284  105.5801   15.6943 O   0  0  0  0  0  0  0  0  0  0  0  0
   20.2588  104.2177   15.8452 P   0  0  0  0  0  0  0  0  0  0  0  0
   18.8187  104.1417   15.8602 O   0  0  0  0  0  0  0  0  0  0  0  0
   20.9354  103.7101   14.6067 O   0  0  0  0  0  0  0  0  0  0  0  0
   18.5448  103.2168   15.9627 H   0  0  0  0  0  0  0  0  0  0  0  0
   20.9861  103.4894   17.1286 O   0  0  0  0  0  0  0  0  0  0  0  0
   20.7472  102.1712   17.3764 C   0  0  0  0  0  0  0  0  0  0  0  0
   21.8617  101.6805   18.3104 C   0  0  0  0  0  0  0  0  0  0  0  0
   22.7391  100.7520   17.6105 O   0  0  0  0  0  0  0  0  0  0  0  0
   24.0530  100.9590   18.2520 C   0  0  0  0  0  0  0  0  0  0  0  0
   24.0300  102.5066   18.3086 C   0  0  0  0  0  0  0  0  0  0  0  0
   22.6878  102.8330   18.9024 C   0  0  0  0  0  0  0  0  0  0  0  0
   22.6832  102.7838   20.3240 O   0  0  0  0  0  0  0  0  0  0  0  0
   22.9881  101.9112   20.6183 H   0  0  0  0  0  0  0  0  0  0  0  0
   25.0497  100.4524   17.3673 N   0  0  0  0  0  0  0  0  0  0  0  0
   24.8990  100.6684   16.0550 C   0  0  0  0  0  0  0  0  0  0  0  0
   25.9903   99.6336   17.8840 C   0  0  0  0  0  0  0  0  0  0  0  0
   26.0339   99.2087   19.0608 O   0  0  0  0  0  0  0  0  0  0  0  0
   26.8953   99.1771   16.9563 N   0  0  0  0  0  0  0  0  0  0  0  0
   26.8310   99.3405   15.5920 C   0  0  0  0  0  0  0  0  0  0  0  0
   27.6941   98.8986   14.8202 O   0  0  0  0  0  0  0  0  0  0  0  0
   25.7371  100.1432   15.1422 C   0  0  0  0  0  0  0  0  0  0  0  0
   25.6468  100.3872   13.6330 C   0  0  0  0  0  0  0  0  0  0  0  0
   27.6711   98.6811   17.3046 H   0  0  0  0  0  0  0  0  0  0  0  0
   17.0647  108.8433   14.8889 O   0  0  0  0  0  0  0  0  0  0  0  0
   16.0419  109.9714   14.1249 P   0  0  0  0  0  0  0  0  0  0  0  0
   14.6906  109.3899   13.8663 O   0  0  0  0  0  0  0  0  0  0  0  0
   16.8796  110.6021   13.1203 O   0  0  0  0  0  0  0  0  0  0  0  0
   14.7490  108.7446   13.1445 H   0  0  0  0  0  0  0  0  0  0  0  0
   15.6764  110.9800   15.3297 O   0  0  0  0  0  0  0  0  0  0  0  0
   14.6963  112.2774   15.5556 P   0  0  0  0  0  0  0  0  0  0  0  0
   15.4088  113.5141   15.1219 O   0  0  0  0  0  0  0  0  0  0  0  0
   13.4642  111.8907   14.8654 O   0  0  0  0  0  0  0  0  0  0  0  0
   15.4811  113.5232   14.1546 H   0  0  0  0  0  0  0  0  0  0  0  0
   14.5396  112.1883   17.1005 O   0  0  0  0  0  0  0  0  0  0  0  0
   14.0602  113.2682   17.9355 C   0  0  0  0  0  0  0  0  0  0  0  0
   14.8722  113.3955   19.1837 C   0  0  0  0  0  0  0  0  0  0  0  0
   15.7399  112.2902   19.2599 O   0  0  0  0  0  0  0  0  0  0  0  0
   17.1432  112.6781   19.2915 C   0  0  0  0  0  0  0  0  0  0  0  0
   17.1561  114.1161   18.7799 C   0  0  0  0  0  0  0  0  0  0  0  0
   18.3056  114.7173   19.3635 O   0  0  0  0  0  0  0  0  0  0  0  0
   15.7956  114.6890   19.2885 C   0  0  0  0  0  0  0  0  0  0  0  0
   15.8139  114.9834   20.7192 O   0  0  0  0  0  0  0  0  0  0  0  0
   18.2777  114.6013   20.3261 H   0  0  0  0  0  0  0  0  0  0  0  0
   16.0631  114.1850   21.2104 H   0  0  0  0  0  0  0  0  0  0  0  0
   17.9690  111.8402   18.3991 N   0  0  0  0  0  0  0  0  0  0  0  0
   18.3905  112.1757   17.1181 C   0  0  0  0  0  0  0  0  0  0  0  0
   18.1951  113.3745   16.4832 N   0  0  0  0  0  0  0  0  0  0  0  0
   18.6957  113.3698   15.2378 C   0  0  0  0  0  0  0  0  0  0  0  0
   19.3598  112.3519   14.6282 N   0  0  0  0  0  0  0  0  0  0  0  0
   19.6460  111.2205   15.3065 C   0  0  0  0  0  0  0  0  0  0  0  0
   20.3174  110.2973   14.6295 N   0  0  0  0  0  0  0  0  0  0  0  0
   19.1502  111.1179   16.6510 C   0  0  0  0  0  0  0  0  0  0  0  0
   19.1170  110.1035   17.5810 N   0  0  0  0  0  0  0  0  0  0  0  0
   18.3892  110.5554   18.5764 C   0  0  0  0  0  0  0  0  0  0  0  0
   20.6095  110.4787   13.7070 H   0  0  0  0  0  0  0  0  0  0  0  0
   20.5234  109.4312   15.0498 H   0  0  0  0  0  0  0  0  0  0  0  0
 24 25  1  0  0  0
 24 26  1  0  0  0
 24 19  1  0  0  0
 25 31  2  0  0  0
 26 27  2  0  0  0
 26 28  1  0  0  0
 28 29  1  0  0  0
 29 30  2  0  0  0
 29 31  1  0  0  0
 31 32  1  0  0  0
 16 17  1  0  0  0
 16 15  1  0  0  0
 17 18  1  0  0  0
 17 21  1  0  0  0
 18 19  1  0  0  0
 19 20  1  0  0  0
 20 21  1  0  0  0
 21 22  1  0  0  0
 11 12  1  0  0  0
 11 13  2  0  0  0
 11 15  1  0  0  0
 11 10  1  0  0  0
 10  6  1  0  0  0
  6  7  2  0  0  0
  6  8  1  0  0  0
  6  5  1  0  0  0
  5  1  1  0  0  0
  1  2  2  0  0  0
  1  3  1  0  0  0
  1 34  1  0  0  0
 34 35  1  0  0  0
 35 36  1  0  0  0
 35 37  2  0  0  0
 35 39  1  0  0  0
 39 40  1  0  0  0
 40 41  1  0  0  0
 40 42  2  0  0  0
 40 44  1  0  0  0
 44 45  1  0  0  0
 45 46  1  0  0  0
 46 47  1  0  0  0
 46 51  1  0  0  0
 47 48  1  0  0  0
 48 49  1  0  0  0
 48 55  1  0  0  0
 49 50  1  0  0  0
 49 51  1  0  0  0
 51 52  1  0  0  0
 55 56  1  0  0  0
 55 64  1  0  0  0
 56 57  1  0  0  0
 56 62  2  0  0  0
 57 58  2  0  0  0
 58 59  1  0  0  0
 59 60  2  0  0  0
 60 61  1  0  0  0
 60 62  1  0  0  0
 62 63  1  0  0  0
 63 64  2  0  0  0
 28 33  1  0  0  0
 22 23  1  0  0  0
 12 14  1  0  0  0
  8  9  1  0  0  0
  3  4  1  0  0  0
 36 38  1  0  0  0
 41 43  1  0  0  0
 50 53  1  0  0  0
 52 54  1  0  0  0
 61 65  1  0  0  0
 61 66  1  0  0  0
M  END
> <minimizedAffinity>
-11.64524

$$$$
4TMK_T5A_A_214


 66 70  0  0  0  0  0  0  0  0999 V2000
   18.8631  108.9536   14.3727 P   0  0  0  0  0  0  0  0  0  0  0  0
   17.8313  109.2168   15.3882 O   0  0  0  0  0  0  0  0  0  0  0  0
   19.3781  110.0650   13.5959 O   0  0  0  0  0  0  0  0  0  0  0  0
   19.6744  110.7682   14.1948 H   0  0  0  0  0  0  0  0  0  0  0  0
   20.0114  108.2883   15.1262 O   0  0  0  0  0  0  0  0  0  0  0  0
   20.3678  107.9566   16.6390 P   0  0  0  0  0  0  0  0  0  0  0  0
   21.3753  108.8809   17.2621 O   0  0  0  0  0  0  0  0  0  0  0  0
   19.0289  107.8190   17.2915 O   0  0  0  0  0  0  0  0  0  0  0  0
   19.1472  107.6132   18.2320 H   0  0  0  0  0  0  0  0  0  0  0  0
   20.9877  106.4415   16.5177 O   0  0  0  0  0  0  0  0  0  0  0  0
   20.4217  105.1435   16.4163 P   0  0  0  0  0  0  0  0  0  0  0  0
   19.1455  105.1559   17.0877 O   0  0  0  0  0  0  0  0  0  0  0  0
   20.3808  105.0821   14.9183 O   0  0  0  0  0  0  0  0  0  0  0  0
   18.7411  104.2761   17.0298 H   0  0  0  0  0  0  0  0  0  0  0  0
   21.4388  103.9539   16.9229 O   0  0  0  0  0  0  0  0  0  0  0  0
   20.9574  102.6930   17.1089 C   0  0  0  0  0  0  0  0  0  0  0  0
   21.9166  101.9837   18.0743 C   0  0  0  0  0  0  0  0  0  0  0  0
   22.7467  101.0274   17.3544 O   0  0  0  0  0  0  0  0  0  0  0  0
   24.0090  101.0113   18.1207 C   0  0  0  0  0  0  0  0  0  0  0  0
   24.1542  102.5377   18.3396 C   0  0  0  0  0  0  0  0  0  0  0  0
   22.8069  102.9656   18.8518 C   0  0  0  0  0  0  0  0  0  0  0  0
   22.6625  102.7809   20.2548 O   0  0  0  0  0  0  0  0  0  0  0  0
   22.8385  101.8537   20.4787 H   0  0  0  0  0  0  0  0  0  0  0  0
   25.0219  100.4752   17.2725 N   0  0  0  0  0  0  0  0  0  0  0  0
   24.8998  100.6532   15.9515 C   0  0  0  0  0  0  0  0  0  0  0  0
   25.9477   99.6682   17.8327 C   0  0  0  0  0  0  0  0  0  0  0  0
   25.9645   99.2779   19.0221 O   0  0  0  0  0  0  0  0  0  0  0  0
   26.8700   99.1813   16.9381 N   0  0  0  0  0  0  0  0  0  0  0  0
   26.8352   99.3049   15.5686 C   0  0  0  0  0  0  0  0  0  0  0  0
   27.7124   98.8373   14.8285 O   0  0  0  0  0  0  0  0  0  0  0  0
   25.7546  100.0983   15.0725 C   0  0  0  0  0  0  0  0  0  0  0  0
   25.6973  100.2983   13.5551 C   0  0  0  0  0  0  0  0  0  0  0  0
   27.6360   98.6927   17.3172 H   0  0  0  0  0  0  0  0  0  0  0  0
   18.3851  107.8108   13.2640 O   0  0  0  0  0  0  0  0  0  0  0  0
   17.7260  107.7358   11.6948 P   0  0  0  0  0  0  0  0  0  0  0  0
   18.3403  106.6296   10.9011 O   0  0  0  0  0  0  0  0  0  0  0  0
   17.6477  109.1207   11.2650 O   0  0  0  0  0  0  0  0  0  0  0  0
   19.2480  106.8708   10.6589 H   0  0  0  0  0  0  0  0  0  0  0  0
   16.2674  107.1002   11.9611 O   0  0  0  0  0  0  0  0  0  0  0  0
   15.2648  106.0372   11.2131 P   0  0  0  0  0  0  0  0  0  0  0  0
   14.0757  106.7686   10.6871 O   0  0  0  0  0  0  0  0  0  0  0  0
   16.1486  105.3504   10.2691 O   0  0  0  0  0  0  0  0  0  0  0  0
   14.3404  107.3133    9.9294 H   0  0  0  0  0  0  0  0  0  0  0  0
   14.9212  105.1377   12.4346 O   0  0  0  0  0  0  0  0  0  0  0  0
   13.9569  105.4830   13.4565 C   0  0  0  0  0  0  0  0  0  0  0  0
   14.6229  105.7559   14.7663 C   0  0  0  0  0  0  0  0  0  0  0  0
   13.9180  105.0676   15.7712 O   0  0  0  0  0  0  0  0  0  0  0  0
   14.7497  104.1093   16.4857 C   0  0  0  0  0  0  0  0  0  0  0  0
   15.9571  103.8953   15.5767 C   0  0  0  0  0  0  0  0  0  0  0  0
   17.0220  103.5181   16.4410 O   0  0  0  0  0  0  0  0  0  0  0  0
   16.1397  105.2861   14.8911 C   0  0  0  0  0  0  0  0  0  0  0  0
   16.7337  106.2759   15.7861 O   0  0  0  0  0  0  0  0  0  0  0  0
   17.1206  104.1819   17.1414 H   0  0  0  0  0  0  0  0  0  0  0  0
   16.1952  106.3497   16.5896 H   0  0  0  0  0  0  0  0  0  0  0  0
   14.0602  102.8189   16.6852 N   0  0  0  0  0  0  0  0  0  0  0  0
   13.6450  102.2910   17.9016 C   0  0  0  0  0  0  0  0  0  0  0  0
   13.7174  102.9056   19.1245 N   0  0  0  0  0  0  0  0  0  0  0  0
   13.2631  102.1160   20.1104 C   0  0  0  0  0  0  0  0  0  0  0  0
   12.7459  100.8651   19.9823 N   0  0  0  0  0  0  0  0  0  0  0  0
   12.5740  100.3193   18.7596 C   0  0  0  0  0  0  0  0  0  0  0  0
   12.0405   99.1042   18.7412 N   0  0  0  0  0  0  0  0  0  0  0  0
   13.0329  101.0801   17.6307 C   0  0  0  0  0  0  0  0  0  0  0  0
   13.1555  100.8125   16.2859 N   0  0  0  0  0  0  0  0  0  0  0  0
   13.7903  101.8417   15.7736 C   0  0  0  0  0  0  0  0  0  0  0  0
   11.7601   98.6769   19.5826 H   0  0  0  0  0  0  0  0  0  0  0  0
   11.9252   98.6302   17.8861 H   0  0  0  0  0  0  0  0  0  0  0  0
 24 25  1  0  0  0
 24 26  1  0  0  0
 24 19  1  0  0  0
 25 31  2  0  0  0
 26 27  2  0  0  0
 26 28  1  0  0  0
 28 29  1  0  0  0
 29 30  2  0  0  0
 29 31  1  0  0  0
 31 32  1  0  0  0
 16 17  1  0  0  0
 16 15  1  0  0  0
 17 18  1  0  0  0
 17 21  1  0  0  0
 18 19  1  0  0  0
 19 20  1  0  0  0
 20 21  1  0  0  0
 21 22  1  0  0  0
 11 12  1  0  0  0
 11 13  2  0  0  0
 11 15  1  0  0  0
 11 10  1  0  0  0
 10  6  1  0  0  0
  6  7  2  0  0  0
  6  8  1  0  0  0
  6  5  1  0  0  0
  5  1  1  0  0  0
  1  2  2  0  0  0
  1  3  1  0  0  0
  1 34  1  0  0  0
 34 35  1  0  0  0
 35 36  1  0  0  0
 35 37  2  0  0  0
 35 39  1  0  0  0
 39 40  1  0  0  0
 40 41  1  0  0  0
 40 42  2  0  0  0
 40 44  1  0  0  0
 44 45  1  0  0  0
 45 46  1  0  0  0
 46 47  1  0  0  0
 46 51  1  0  0  0
 47 48  1  0  0  0
 48 49  1  0  0  0
 48 55  1  0  0  0
 49 50  1  0  0  0
 49 51  1  0  0  0
 51 52  1  0  0  0
 55 56  1  0  0  0
 55 64  1  0  0  0
 56 57  1  0  0  0
 56 62  2  0  0  0
 57 58  2  0  0  0
 58 59  1  0  0  0
 59 60  2  0  0  0
 60 61  1  0  0  0
 60 62  1  0  0  0
 62 63  1  0  0  0
 63 64  2  0  0  0
 28 33  1  0  0  0
 22 23  1  0  0  0
 12 14  1  0  0  0
  8  9  1  0  0  0
  3  4  1  0  0  0
 36 38  1  0  0  0
 41 43  1  0  0  0
 50 53  1  0  0  0
 52 54  1  0  0  0
 61 65  1  0  0  0
 61 66  1  0  0  0
M  END
> <minimizedAffinity>
-11.47692

$$$$
4TMK_T5A_A_214


 66 70  0  0  0  0  0  0  0  0999 V2000
   18.8455  107.5749   14.0596 P   0  0  0  0  0  0  0  0  0  0  0  0
   17.7942  107.9468   15.0197 O   0  0  0  0  0  0  0  0  0  0  0  0
   19.9425  108.4966   13.8334 O   0  0  0  0  0  0  0  0  0  0  0  0
   20.3412  108.7395   14.6837 H   0  0  0  0  0  0  0  0  0  0  0  0
   19.3986  106.2441   14.5613 O   0  0  0  0  0  0  0  0  0  0  0  0
   20.8316  105.6000   14.8009 P   0  0  0  0  0  0  0  0  0  0  0  0
   21.8256  105.8586   13.7043 O   0  0  0  0  0  0  0  0  0  0  0  0
   21.1788  106.0275   16.1917 O   0  0  0  0  0  0  0  0  0  0  0  0
   22.0509  105.6760   16.4299 H   0  0  0  0  0  0  0  0  0  0  0  0
   20.4762  103.9993   14.8779 O   0  0  0  0  0  0  0  0  0  0  0  0
   19.8924  103.1591   15.8622 P   0  0  0  0  0  0  0  0  0  0  0  0
   19.0428  103.9702   16.6989 O   0  0  0  0  0  0  0  0  0  0  0  0
   19.1949  102.2298   14.9140 O   0  0  0  0  0  0  0  0  0  0  0  0
   18.6333  103.4137   17.3798 H   0  0  0  0  0  0  0  0  0  0  0  0
   21.0000  102.2670   16.6891 O   0  0  0  0  0  0  0  0  0  0  0  0
   20.6328  101.6427   17.8431 C   0  0  0  0  0  0  0  0  0  0  0  0
   21.9084  101.4468   18.6735 C   0  0  0  0  0  0  0  0  0  0  0  0
   22.8209  100.5358   17.9958 O   0  0  0  0  0  0  0  0  0  0  0  0
   24.1581  101.0022   18.4143 C   0  0  0  0  0  0  0  0  0  0  0  0
   23.9205  102.5246   18.2567 C   0  0  0  0  0  0  0  0  0  0  0  0
   22.6250  102.7714   18.9787 C   0  0  0  0  0  0  0  0  0  0  0  0
   22.7953  102.9459   20.3801 O   0  0  0  0  0  0  0  0  0  0  0  0
   23.2546  102.1750   20.7485 H   0  0  0  0  0  0  0  0  0  0  0  0
   25.1056  100.4904   17.4800 N   0  0  0  0  0  0  0  0  0  0  0  0
   24.9114  100.7429   16.1800 C   0  0  0  0  0  0  0  0  0  0  0  0
   26.0414   99.6334   17.9404 C   0  0  0  0  0  0  0  0  0  0  0  0
   26.1175   99.1785   19.1042 O   0  0  0  0  0  0  0  0  0  0  0  0
   26.8971   99.1753   16.9678 N   0  0  0  0  0  0  0  0  0  0  0  0
   26.7858   99.3741   15.6113 C   0  0  0  0  0  0  0  0  0  0  0  0
   27.6059   98.9278   14.7964 O   0  0  0  0  0  0  0  0  0  0  0  0
   25.6989  100.2176   15.2233 C   0  0  0  0  0  0  0  0  0  0  0  0
   25.5583  100.5013   13.7248 C   0  0  0  0  0  0  0  0  0  0  0  0
   27.6711   98.6496   17.2740 H   0  0  0  0  0  0  0  0  0  0  0  0
   18.2343  107.2224   12.5544 O   0  0  0  0  0  0  0  0  0  0  0  0
   16.9728  107.7269   11.5265 P   0  0  0  0  0  0  0  0  0  0  0  0
   16.6424  106.6761   10.5177 O   0  0  0  0  0  0  0  0  0  0  0  0
   17.2887  109.1089   11.2117 O   0  0  0  0  0  0  0  0  0  0  0  0
   17.3501  106.6292    9.8560 H   0  0  0  0  0  0  0  0  0  0  0  0
   15.6775  107.6031   12.4802 O   0  0  0  0  0  0  0  0  0  0  0  0
   14.7098  106.4026   13.0432 P   0  0  0  0  0  0  0  0  0  0  0  0
   13.3622  106.5209   12.4146 O   0  0  0  0  0  0  0  0  0  0  0  0
   15.5004  105.1940   12.8019 O   0  0  0  0  0  0  0  0  0  0  0  0
   13.4182  106.2684   11.4797 H   0  0  0  0  0  0  0  0  0  0  0  0
   14.7034  106.7918   14.5491 O   0  0  0  0  0  0  0  0  0  0  0  0
   14.7732  105.8413   15.6376 C   0  0  0  0  0  0  0  0  0  0  0  0
   13.4143  105.5193   16.1698 C   0  0  0  0  0  0  0  0  0  0  0  0
   13.1284  104.1755   15.8649 O   0  0  0  0  0  0  0  0  0  0  0  0
   12.8805  103.3699   17.0524 C   0  0  0  0  0  0  0  0  0  0  0  0
   13.4637  104.1886   18.2010 C   0  0  0  0  0  0  0  0  0  0  0  0
   12.7282  103.8022   19.3556 O   0  0  0  0  0  0  0  0  0  0  0  0
   13.2278  105.6632   17.7451 C   0  0  0  0  0  0  0  0  0  0  0  0
   11.8341  106.0760   17.8900 O   0  0  0  0  0  0  0  0  0  0  0  0
   11.7793  103.9106   19.1857 H   0  0  0  0  0  0  0  0  0  0  0  0
   11.2628  105.4630   17.4015 H   0  0  0  0  0  0  0  0  0  0  0  0
   13.5699  102.0656   16.9899 N   0  0  0  0  0  0  0  0  0  0  0  0
   13.4795  101.1394   15.9579 C   0  0  0  0  0  0  0  0  0  0  0  0
   12.8093  101.3013   14.7734 N   0  0  0  0  0  0  0  0  0  0  0  0
   12.8861  100.2068   14.0001 C   0  0  0  0  0  0  0  0  0  0  0  0
   13.5585   99.0576   14.2755 N   0  0  0  0  0  0  0  0  0  0  0  0
   14.3090   98.9569   15.3931 C   0  0  0  0  0  0  0  0  0  0  0  0
   14.9440   97.8033   15.5582 N   0  0  0  0  0  0  0  0  0  0  0  0
   14.2936  100.0733   16.2971 C   0  0  0  0  0  0  0  0  0  0  0  0
   14.7994  100.2859   17.5596 N   0  0  0  0  0  0  0  0  0  0  0  0
   14.3267  101.4499   17.9422 C   0  0  0  0  0  0  0  0  0  0  0  0
   14.8832   97.1045   14.8674 H   0  0  0  0  0  0  0  0  0  0  0  0
   15.4760   97.6463   16.3717 H   0  0  0  0  0  0  0  0  0  0  0  0
 24 25  1  0  0  0
 24 26  1  0  0  0
 24 19  1  0  0  0
 25 31  2  0  0  0
 26 27  2  0  0  0
 26 28  1  0  0  0
 28 29  1  0  0  0
 29 30  2  0  0  0
 29 31  1  0  0  0
 31 32  1  0  0  0
 16 17  1  0  0  0
 16 15  1  0  0  0
 17 18  1  0  0  0
 17 21  1  0  0  0
 18 19  1  0  0  0
 19 20  1  0  0  0
 20 21  1  0  0  0
 21 22  1  0  0  0
 11 12  1  0  0  0
 11 13  2  0  0  0
 11 15  1  0  0  0
 11 10  1  0  0  0
 10  6  1  0  0  0
  6  7  2  0  0  0
  6  8  1  0  0  0
  6  5  1  0  0  0
  5  1  1  0  0  0
  1  2  2  0  0  0
  1  3  1  0  0  0
  1 34  1  0  0  0
 34 35  1  0  0  0
 35 36  1  0  0  0
 35 37  2  0  0  0
 35 39  1  0  0  0
 39 40  1  0  0  0
 40 41  1  0  0  0
 40 42  2  0  0  0
 40 44  1  0  0  0
 44 45  1  0  0  0
 45 46  1  0  0  0
 46 47  1  0  0  0
 46 51  1  0  0  0
 47 48  1  0  0  0
 48 49  1  0  0  0
 48 55  1  0  0  0
 49 50  1  0  0  0
 49 51  1  0  0  0
 51 52  1  0  0  0
 55 56  1  0  0  0
 55 64  1  0  0  0
 56 57  1  0  0  0
 56 62  2  0  0  0
 57 58  2  0  0  0
 58 59  1  0  0  0
 59 60  2  0  0  0
 60 61  1  0  0  0
 60 62  1  0  0  0
 62 63  1  0  0  0
 63 64  2  0  0  0
 28 33  1  0  0  0
 22 23  1  0  0  0
 12 14  1  0  0  0
  8  9  1  0  0  0
  3  4  1  0  0  0
 36 38  1  0  0  0
 41 43  1  0  0  0
 50 53  1  0  0  0
 52 54  1  0  0  0
 61 65  1  0  0  0
 61 66  1  0  0  0
M  END
> <minimizedAffinity>
-11.47006

$$$$
