3KDD_JZQ_A_100
  RCSB PDB12061709253D
Coordinates from PDB:3KDD:A:100 Model:1 without hydrogens
 45 49  0  0  0  0            999 V2000
   20.9360   27.7840   13.9310   F 0  0  0  0  0  0  0  0  0  0  0  0
   21.8310   26.5760   18.4360   F 0  0  0  0  0  0  0  0  0  0  0  0
   20.1430   26.5120   16.2750   O 0  0  0  0  0  0  0  0  0  0  0  0
   18.5390   23.4190   15.6150   O 0  0  0  0  0  0  0  0  0  0  0  0
   18.8880   24.4270   16.2010   C 0  0  0  0  0  0  0  0  0  0  0  0
   20.0300   25.2410   15.6370   C 0  0  0  0  0  0  0  0  0  0  0  0
   23.8070   28.4700   16.0460   C 0  0  0  0  0  0  0  0  0  0  0  0
   22.9650   28.4430   14.9370   C 0  0  0  0  0  0  0  0  0  0  0  0
   21.7370   27.7920   15.0110   C 0  0  0  0  0  0  0  0  0  0  0  0
   21.3510   27.1650   16.1920   C 0  0  0  0  0  0  0  0  0  0  0  0
   22.1970   27.1830   17.2930   C 0  0  0  0  0  0  0  0  0  0  0  0
   23.4240   27.8360   17.2230   C 0  0  0  0  0  0  0  0  0  0  0  0
   14.8800   23.4820   17.6680   C 0  0  0  0  0  0  0  0  0  0  0  0
   18.3120   24.8540   17.3280   N 0  0  0  0  0  0  0  0  0  0  0  0
   14.3210   23.1510   18.7030   O 0  0  0  0  0  0  0  0  0  0  0  0
   15.9400   24.5570   17.7100   C 0  0  0  0  0  0  0  0  0  0  0  0
   19.0230   23.4480   19.7890   C 0  0  0  0  0  0  0  0  0  0  0  0
   17.6560   24.0460   19.5430   C 0  0  0  0  0  0  0  0  0  0  0  0
   21.5480   22.3650   20.2370   C 0  0  0  0  0  0  0  0  0  0  0  0
   17.3440   24.0400   18.0450   C 0  0  0  0  0  0  0  0  0  0  0  0
   15.5370   25.5580   18.6490   O 0  0  0  0  0  0  0  0  0  0  0  0
   19.1960   22.0620   19.7970   C 0  0  0  0  0  0  0  0  0  0  0  0
   20.1130   24.2890   20.0070   C 0  0  0  0  0  0  0  0  0  0  0  0
   20.4580   21.5220   20.0270   C 0  0  0  0  0  0  0  0  0  0  0  0
   21.3800   23.7500   20.2270   C 0  0  0  0  0  0  0  0  0  0  0  0
   13.7810   20.6630   17.0470   C 0  0  0  0  0  0  0  0  0  0  0  0
   14.5650   22.9520   16.4800   N 0  0  0  0  0  0  0  0  0  0  0  0
   14.8870   20.1430   16.9220   O 0  0  0  0  0  0  0  0  0  0  0  0
   13.4670   21.9680   16.3660   C 0  0  0  0  0  0  0  0  0  0  0  0
   13.0320   21.7570   14.9090   C 0  0  0  0  0  0  0  0  0  0  0  0
   15.2200   23.2390   15.1980   C 0  0  0  0  0  0  0  0  0  0  0  0
   11.9340   22.7570   14.5910   C 0  0  0  0  0  0  0  0  0  0  0  0
   12.5540   20.3490   14.5550   C 0  0  0  0  0  0  0  0  0  0  0  0
   14.4870   22.1630   14.0230   S 0  0  0  0  0  0  0  0  0  0  0  0
   12.7750   20.1510   17.7610   N 0  0  0  0  0  0  0  0  0  0  0  0
   10.3050   19.0900   18.0860   O 0  0  0  0  0  0  0  0  0  0  0  0
   12.7160   18.7520   18.1230   C 0  0  0  0  0  0  0  0  0  0  0  0
   12.9200   18.5560   19.5700   C 0  0  0  0  0  0  0  0  0  0  0  0
   13.8460   19.2030   20.3720   C 0  0  0  0  0  0  0  0  0  0  0  0
   13.8510   18.8560   21.7200   C 0  0  0  0  0  0  0  0  0  0  0  0
   11.3370   18.1130   17.9220   C 0  0  0  0  0  0  0  0  0  0  0  0
   12.0610   17.6130   20.0750   C 0  0  0  0  0  0  0  0  0  0  0  0
   12.0500   17.2580   21.4170   C 0  0  0  0  0  0  0  0  0  0  0  0
   12.9700   17.9010   22.2350   C 0  0  0  0  0  0  0  0  0  0  0  0
   11.1530   17.0670   19.0160   C 0  0  0  0  0  0  0  0  0  0  0  0
  1  9  1  0  0  0  0
 34 30  1  0  0  0  0
 34 31  1  0  0  0  0
  2 11  1  0  0  0  0
 14  5  1  0  0  0  0
 14 20  1  0  0  0  0
  3  6  1  0  0  0  0
  3 10  1  0  0  0  0
 27 13  1  0  0  0  0
 27 29  1  0  0  0  0
 27 31  1  0  0  0  0
 15 13  2  0  0  0  0
 35 26  1  0  0  0  0
 35 37  1  0  0  0  0
 28 26  2  0  0  0  0
 21 16  1  0  0  0  0
 36 41  1  0  0  0  0
  4  5  2  0  0  0  0
  5  6  1  0  0  0  0
 20 16  1  0  0  0  0
 20 18  1  0  0  0  0
 16 13  1  0  0  0  0
 18 17  1  0  0  0  0
 29 30  1  0  0  0  0
 29 26  1  0  0  0  0
 30 32  1  0  0  0  0
 30 33  1  0  0  0  0
 17 22  2  0  0  0  0
 17 23  1  0  0  0  0
 22 24  1  0  0  0  0
 24 19  2  0  0  0  0
 19 25  1  0  0  0  0
 25 23  2  0  0  0  0
 37 38  1  0  0  0  0
 37 41  1  0  0  0  0
 38 39  2  0  0  0  0
 38 42  1  0  0  0  0
 39 40  1  0  0  0  0
 40 44  2  0  0  0  0
 41 45  1  0  0  0  0
 42 43  2  0  0  0  0
 42 45  1  0  0  0  0
 43 44  1  0  0  0  0
  7  8  2  0  0  0  0
  7 12  1  0  0  0  0
  8  9  1  0  0  0  0
  9 10  2  0  0  0  0
 10 11  1  0  0  0  0
 11 12  2  0  0  0  0
A    1
F1
A    2
F2
A    3
O2
A    4
O8
A    5
C12
A    6
C21
A    7
C40
A    8
C41
A    9
C42
A   10
C45
A   11
C46
A   12
C47
A   13
C16
A   14
N2
A   15
O3
A   16
C14
A   17
C22
A   18
C15
A   19
C25
A   20
C13
A   21
O5
A   22
C23
A   23
C27
A   24
C24
A   25
C26
A   26
C20
A   27
N3
A   28
O4
A   29
C17
A   30
C18
A   31
C19
A   32
C29
A   33
C30
A   34
S1
A   35
N4
A   36
O7
A   37
C31
A   38
C32
A   39
C33
A   40
C34
A   41
C35
A   42
C36
A   43
C37
A   44
C38
A   45
C39
M  END
>  <InstanceId>
3KDD_JZQ_A_100

>  <ChemCompId>
JZQ

>  <PdbId>
3KDD

>  <ChainId>
A

>  <ResidueNumber>
100

>  <InsertionCode>


>  <Model>
1

>  <AltIds>


>  <MissingHeavyAtoms>
0

>  <ObservedFormula>
C33 N3 O6 S F2

>  <Name>
(4R)-3-[(2S,3S)-3-{[(2,6-difluorophenoxy)acetyl]amino}-2-hydroxy-4-phenylbutanoyl]-N-[(1S,2R)-2-hydroxy-2,3-dihydro-1H-inden-1-yl]-5,5-dimethyl-1,3-thiazolidine-4-carboxamide

>  <SystematicName>
(4R)-3-[(2S,3S)-3-[2-(2,6-difluorophenoxy)ethanoylamino]-2-hydroxy-4-phenyl-butanoyl]-N-[(1S,2R)-2-hydroxy-2,3-dihydro-1H-inden-1-yl]-5,5-dimethyl-1,3-thiazolidine-4-carboxamide

>  <Synonyms>
KNI-10265

>  <Type>
peptide-like

>  <Formula>
C33 H35 F2 N3 O6 S

>  <MolecularWeight>
639.709

>  <ModifiedDate>
2011-06-04

>  <Parent>


>  <OneLetterCode>


>  <SubcomponentList>
KNP 005 00B 00X

>  <AmbiguousFlag>
N

>  <InChI>
InChI=1S/C33H35F2N3O6S/c1-33(2)30(31(42)37-27-21-12-7-6-11-20(21)16-25(27)39)38(18-45-33)32(43)28(41)24(15-19-9-4-3-5-10-19)36-26(40)17-44-29-22(34)13-8-14-23(29)35/h3-14,24-25,27-28,30,39,41H,15-18H2,1-2H3,(H,36,40)(H,37,42)/t24-,25+,27-,28-,30+/m0/s1

>  <InChIKey>
KCNWMHBIZSWXTB-UPZHSWQNSA-N

>  <SMILES>
CC1([C@H](N(CS1)C(=O)[C@H]([C@H](Cc2ccccc2)NC(=O)COc3c(cccc3F)F)O)C(=O)N[C@H]4c5ccccc5C[C@H]4O)C

$$$$
