1O3F_696_A_246
  RCSB PDB12061703303D
Coordinates from PDB:1O3F:A:246 Model:1 without hydrogens
 25 28  0  0  0  0            999 V2000
   44.2570   -3.0900   26.6230   C 0  0  0  0  0  0  0  0  0  0  0  0
   44.6160   -1.6990   26.6140   C 0  0  0  0  0  0  0  0  0  0  0  0
   44.5970   -0.9100   27.7630   C 0  0  0  0  0  0  0  0  0  0  0  0
   44.2190   -1.5220   28.9120   C 0  0  0  0  0  0  0  0  0  0  0  0
   43.8760   -2.8110   28.9950   C 0  0  0  0  0  0  0  0  0  0  0  0
   43.8740   -3.6490   27.8750   C 0  0  0  0  0  0  0  0  0  0  0  0
   44.3090   -3.8330   25.4280   C 0  0  0  0  0  0  0  0  0  0  0  0
   44.0290   -5.1160   25.4280   N 0  0  0  0  0  0  0  0  0  0  0  0
   44.6390   -3.2350   24.3000   N 0  3  0  0  0  0  0  0  0  0  0  0
   44.1380   -1.0270   30.0930   N 0  0  0  0  0  0  0  0  0  0  0  0
   43.5630   -3.1650   30.2360   C 0  0  0  0  0  0  0  0  0  0  0  0
   43.7520   -2.0100   30.8460   C 0  0  0  0  0  0  0  0  0  0  0  0
   43.4930   -1.8600   32.2100   C 0  0  0  0  0  0  0  0  0  0  0  0
   43.2460   -2.9610   33.0230   C 0  0  0  0  0  0  0  0  0  0  0  0
   42.9840   -2.8260   34.3670   C 0  0  0  0  0  0  0  0  0  0  0  0
   42.9590   -1.5750   34.9360   C 0  0  0  0  0  0  0  0  0  0  0  0
   43.1980   -0.4060   34.1790   C 0  0  0  0  0  0  0  0  0  0  0  0
   43.4640   -0.5890   32.8210   C 0  0  0  0  0  0  0  0  0  0  0  0
   43.7270    0.5210   32.0460   O 0  5  0  0  0  0  0  0  0  0  0  0
   43.1380    0.8680   34.7920   C 0  0  0  0  0  0  0  0  0  0  0  0
   44.1270    1.8280   34.6310   C 0  0  0  0  0  0  0  0  0  0  0  0
   44.0730    3.0550   35.2570   C 0  0  0  0  0  0  0  0  0  0  0  0
   43.0170    3.3770   36.0720   C 0  0  0  0  0  0  0  0  0  0  0  0
   41.9940    2.4580   36.2690   C 0  0  0  0  0  0  0  0  0  0  0  0
   42.0620    1.2220   35.6310   C 0  0  0  0  0  0  0  0  0  0  0  0
  1  2  2  0  0  0  0
  1  6  1  0  0  0  0
  1  7  1  0  0  0  0
  2  3  1  0  0  0  0
  3  4  2  0  0  0  0
  4  5  1  0  0  0  0
  4 10  1  0  0  0  0
  5  6  2  0  0  0  0
  5 11  1  0  0  0  0
  7  8  1  0  0  0  0
  7  9  2  0  0  0  0
 10 12  1  0  0  0  0
 11 12  2  0  0  0  0
 12 13  1  0  0  0  0
 13 14  2  0  0  0  0
 13 18  1  0  0  0  0
 14 15  1  0  0  0  0
 15 16  2  0  0  0  0
 16 17  1  0  0  0  0
 17 18  2  0  0  0  0
 17 20  1  0  0  0  0
 18 19  1  0  0  0  0
 20 21  2  0  0  0  0
 20 25  1  0  0  0  0
 21 22  1  0  0  0  0
 22 23  2  0  0  0  0
 23 24  1  0  0  0  0
 24 25  2  0  0  0  0
M  CHG  2   9   1  19  -1
A    1
C1
A    2
C2
A    3
C3
A    4
C4
A    5
C5
A    6
C6
A    7
C7
A    8
N1
A    9
N2
A   10
N3
A   11
CN4
A   12
C8
A   13
C1'
A   14
C2'
A   15
C3'
A   16
C4'
A   17
C5'
A   18
C6'
A   19
O6'
A   20
C1B
A   21
C2B
A   22
C3B
A   23
C4B
A   24
C5B
A   25
C6B
M  END
>  <InstanceId>
1O3F_696_A_246

>  <ChemCompId>
696

>  <PdbId>
1O3F

>  <ChainId>
A

>  <ResidueNumber>
246

>  <InsertionCode>


>  <Model>
1

>  <AltIds>


>  <MissingHeavyAtoms>
0

>  <ObservedFormula>
C21 N3 O

>  <Name>
3-{5-[AMINO(IMINIO)METHYL]-1H-INDOL-2-YL}-1,1'-BIPHENYL-2-OLATE

>  <SystematicName>
2-[5-(amino-azaniumylidene-methyl)-1H-indol-2-yl]-6-phenyl-phenolate

>  <Synonyms>
CRA_8696

>  <Type>
NON-POLYMER

>  <Formula>
C21 H17 N3 O

>  <MolecularWeight>
327.379

>  <ModifiedDate>
2011-06-04

>  <Parent>


>  <OneLetterCode>


>  <SubcomponentList>


>  <AmbiguousFlag>
N

>  <InChI>
InChI=1S/C21H17N3O/c22-21(23)14-9-10-18-15(11-14)12-19(24-18)17-8-4-7-16(20(17)25)13-5-2-1-3-6-13/h1-12,24-25H,(H3,22,23)

>  <InChIKey>
GAVRMVQHHVMXFD-UHFFFAOYSA-N

>  <SMILES>
c1ccc(cc1)c2cccc(c2[O-])c3cc4cc(ccc4[nH]3)C(=[NH2+])N

$$$$
