3F8C_HT1_A_127
  RCSB PDB12061708333D
Coordinates from PDB:3F8C:A:127 Model:1 without hydrogens
 34 39  0  0  0  0            999 V2000
    0.4840   -5.5480    6.5570   C 0  0  0  0  0  0  0  0  0  0  0  0
    0.7220   -6.3420    7.6430   O 0  0  0  0  0  0  0  0  0  0  0  0
   -0.4650   -5.9340    5.6170   C 0  0  0  0  0  0  0  0  0  0  0  0
   -0.7220   -5.1370    4.5030   C 0  0  0  0  0  0  0  0  0  0  0  0
   -0.0260   -3.9470    4.3270   C 0  0  0  0  0  0  0  0  0  0  0  0
    0.9300   -3.5470    5.2760   C 0  0  0  0  0  0  0  0  0  0  0  0
    1.1830   -4.3500    6.3930   C 0  0  0  0  0  0  0  0  0  0  0  0
   -0.3020   -3.1560    3.2080   C 0  0  0  0  0  0  0  0  0  0  0  0
   -1.2750   -3.3980    2.3060   N 0  0  0  0  0  0  0  0  0  0  0  0
   -1.2430   -2.4460    1.3790   C 0  0  0  0  0  0  0  0  0  0  0  0
   -0.2010   -1.5710    1.7390   C 0  0  0  0  0  0  0  0  0  0  0  0
    0.3470   -2.0340    2.8620   N 0  0  0  0  0  0  0  0  0  0  0  0
    0.0830   -0.4560    0.9600   C 0  0  0  0  0  0  0  0  0  0  0  0
   -0.6730   -0.2160   -0.1790   C 0  0  0  0  0  0  0  0  0  0  0  0
   -1.7200   -1.0750   -0.5440   C 0  0  0  0  0  0  0  0  0  0  0  0
   -2.0160   -2.2180    0.2240   C 0  0  0  0  0  0  0  0  0  0  0  0
   -2.4340   -0.7910   -1.7120   C 0  0  0  0  0  0  0  0  0  0  0  0
   -3.3220   -1.5990   -2.3110   N 0  0  0  0  0  0  0  0  0  0  0  0
   -3.7740   -0.9840   -3.4100   C 0  0  0  0  0  0  0  0  0  0  0  0
   -3.1170    0.2450   -3.4950   C 0  0  0  0  0  0  0  0  0  0  0  0
   -2.3010    0.3310   -2.4470   N 0  0  0  0  0  0  0  0  0  0  0  0
   -3.3780    1.1110   -4.5570   C 0  0  0  0  0  0  0  0  0  0  0  0
   -4.3080    0.7500   -5.5410   C 0  0  0  0  0  0  0  0  0  0  0  0
   -4.9830   -0.4710   -5.4610   C 0  0  0  0  0  0  0  0  0  0  0  0
   -4.7050   -1.3500   -4.3940   C 0  0  0  0  0  0  0  0  0  0  0  0
   -5.8540   -0.8280   -6.4380   N 0  0  0  0  0  0  0  0  0  0  0  0
   -6.9910    0.0960   -6.6140   C 0  0  0  0  0  0  0  0  0  0  0  0
   -7.8240   -0.3520   -7.8430   C 0  0  0  0  0  0  0  0  0  0  0  0
   -8.2720   -1.7610   -7.6920   N 0  0  0  0  0  0  0  0  0  0  0  0
   -7.1160   -2.6500   -7.4690   C 0  0  0  0  0  0  0  0  0  0  0  0
   -6.3590   -2.1870   -6.2140   C 0  0  0  0  0  0  0  0  0  0  0  0
   -8.9830   -2.2170   -8.8960   C 0  0  0  0  0  0  0  0  0  0  0  0
    0.0120   -7.5840    7.5280   C 0  0  0  0  0  0  0  0  0  0  0  0
   -0.1730   -8.1910    8.9250   C 0  0  0  0  0  0  0  0  0  0  0  0
  1  2  1  0  0  0  0
  1  3  2  0  0  0  0
  1  7  1  0  0  0  0
  2 33  1  0  0  0  0
  3  4  1  0  0  0  0
  4  5  2  0  0  0  0
  5  6  1  0  0  0  0
  5  8  1  0  0  0  0
  6  7  2  0  0  0  0
  8  9  1  0  0  0  0
  8 12  2  0  0  0  0
  9 10  1  0  0  0  0
 10 11  2  0  0  0  0
 10 16  1  0  0  0  0
 11 12  1  0  0  0  0
 11 13  1  0  0  0  0
 13 14  2  0  0  0  0
 14 15  1  0  0  0  0
 15 16  2  0  0  0  0
 15 17  1  0  0  0  0
 17 18  1  0  0  0  0
 17 21  2  0  0  0  0
 18 19  1  0  0  0  0
 19 20  2  0  0  0  0
 19 25  1  0  0  0  0
 20 21  1  0  0  0  0
 20 22  1  0  0  0  0
 22 23  2  0  0  0  0
 23 24  1  0  0  0  0
 24 25  2  0  0  0  0
 24 26  1  0  0  0  0
 26 27  1  0  0  0  0
 26 31  1  0  0  0  0
 27 28  1  0  0  0  0
 28 29  1  0  0  0  0
 29 30  1  0  0  0  0
 29 32  1  0  0  0  0
 30 31  1  0  0  0  0
 33 34  1  0  0  0  0
A    1
C1
A    2
O1
A    3
C2
A    4
C3
A    5
C4
A    6
C5
A    7
C6
A    8
C7
A    9
N1
A   10
C8
A   11
C9
A   12
N2
A   13
C10
A   14
C11
A   15
C12
A   16
C13
A   17
C14
A   18
N3
A   19
C15
A   20
C16
A   21
N4
A   22
C17
A   23
C18
A   24
C19
A   25
C20
A   26
N5
A   27
C21
A   28
C22
A   29
N6
A   30
C23
A   31
C24
A   32
C25
A   33
C26
A   34
C27
M  END
>  <InstanceId>
3F8C_HT1_A_127

>  <ChemCompId>
HT1

>  <PdbId>
3F8C

>  <ChainId>
A

>  <ResidueNumber>
127

>  <InsertionCode>


>  <Model>
1

>  <AltIds>


>  <MissingHeavyAtoms>
0

>  <ObservedFormula>
C27 N6 O

>  <Name>
2'-(4-ETHOXYPHENYL)-5-(4-METHYL-1-PIPERAZINYL)-2,5'-BI-BENZIMIDAZOLE

>  <SystematicName>
2-(4-ethoxyphenyl)-6-[6-(4-methylpiperazin-1-yl)-1H-benzimidazol-2-yl]-1H-benzimidazole

>  <Synonyms>
HOECHST 33342

>  <Type>
NON-POLYMER

>  <Formula>
C27 H28 N6 O

>  <MolecularWeight>
452.551

>  <ModifiedDate>
2011-06-04

>  <Parent>


>  <OneLetterCode>


>  <SubcomponentList>


>  <AmbiguousFlag>
N

>  <InChI>
InChI=1S/C27H28N6O/c1-3-34-21-8-4-18(5-9-21)26-28-22-10-6-19(16-24(22)30-26)27-29-23-11-7-20(17-25(23)31-27)33-14-12-32(2)13-15-33/h4-11,16-17H,3,12-15H2,1-2H3,(H,28,30)(H,29,31)

>  <InChIKey>
PRDFBSVERLRRMY-UHFFFAOYSA-N

>  <SMILES>
CCOc1ccc(cc1)c2[nH]c3cc(ccc3n2)c4[nH]c5cc(ccc5n4)N6CCN(CC6)C

$$$$
