5F08_5TG_A_301


 22 24  0  0  0  0  0  0  0  0999 V2000
   27.2790   10.5109   -3.2128 C   0  0  0  0  0  0  0  0  0  0  0  0
   26.4849    9.4170   -2.5547 C   0  0  0  0  0  0  0  0  0  0  0  0
   25.9431    8.4898   -3.6465 C   0  0  0  0  0  0  0  0  0  0  0  0
   27.0074    7.9928   -4.5047 N   0  0  0  0  0  0  0  0  0  0  0  0
   27.8620    8.9570   -5.1604 C   0  0  0  0  0  0  0  0  0  0  0  0
   28.4244    9.8741   -4.0389 C   0  0  0  0  0  0  0  0  0  0  0  0
   27.0173    6.5328   -4.6135 C   0  0  0  0  0  0  0  0  0  0  0  0
   26.0620    5.8019   -5.2401 C   0  0  0  0  0  0  0  0  0  0  0  0
   26.1625    4.3918   -5.2761 C   0  0  0  0  0  0  0  0  0  0  0  0
   27.2442    3.7224   -4.6573 C   0  0  0  0  0  0  0  0  0  0  0  0
   28.2123    4.4559   -3.9951 C   0  0  0  0  0  0  0  0  0  0  0  0
   28.0649    5.8487   -4.0080 C   0  0  0  0  0  0  0  0  0  0  0  0
   27.3579    2.2038   -4.6883 C   0  0  0  0  0  0  0  0  0  0  0  0
   27.7016   11.3869   -2.0515 C   0  0  0  0  0  0  0  0  0  0  0  0
   28.1003   12.7815   -2.4599 C   0  0  0  0  0  0  0  0  0  0  0  0
   28.9461   14.7136   -1.4082 N   0  0  0  0  0  0  0  0  0  0  0  0
   29.3215   15.5798   -0.2860 C   0  0  0  0  0  0  0  0  0  0  0  0
   27.8013   13.2564   -0.0709 O   0  0  0  0  0  0  0  0  0  0  0  0
   28.2507   13.6267   -1.2188 C   0  0  0  0  0  0  0  0  0  0  0  0
   29.3567   15.1307   -2.7589 C   0  0  0  0  0  0  0  0  0  0  0  0
   30.1020   16.4403   -2.4661 C   0  0  0  0  0  0  0  0  0  0  0  0
   30.2595   16.5580   -0.9534 C   0  0  0  0  0  0  0  0  0  0  0  0
  5  4  1  0  0  0
  5  6  1  0  0  0
  8  9  2  0  0  0
  8  7  1  0  0  0
  9 10  1  0  0  0
  4  7  1  0  0  0
  4  3  1  0  0  0
  7 12  2  0  0  0
 10 13  1  0  0  0
 10 11  2  0  0  0
  6  1  1  0  0  0
 12 11  1  0  0  0
  3  2  1  0  0  0
  1  2  1  0  0  0
  1 14  1  0  0  0
 20 21  1  0  0  0
 20 16  1  0  0  0
 21 22  1  0  0  0
 15 14  1  0  0  0
 15 19  1  0  0  0
 16 19  1  0  0  0
 16 17  1  0  0  0
 22 17  1  0  0  0
 19 18  2  0  0  0
M  END
> <minimizedAffinity>
-11.03677

$$$$
5F08_5TG_A_301


 22 24  0  0  0  0  0  0  0  0999 V2000
   27.5467    9.5243   -3.3573 C   0  0  0  0  0  0  0  0  0  0  0  0
   28.5807   10.3768   -4.0386 C   0  0  0  0  0  0  0  0  0  0  0  0
   28.0929   11.8285   -4.0281 C   0  0  0  0  0  0  0  0  0  0  0  0
   27.7727   12.2768   -2.6816 N   0  0  0  0  0  0  0  0  0  0  0  0
   26.8173   11.5085   -1.9156 C   0  0  0  0  0  0  0  0  0  0  0  0
   27.3379   10.0442   -1.9130 C   0  0  0  0  0  0  0  0  0  0  0  0
   28.4606   13.5159   -2.3145 C   0  0  0  0  0  0  0  0  0  0  0  0
   29.2361   14.2433   -3.1564 C   0  0  0  0  0  0  0  0  0  0  0  0
   29.8665   15.4219   -2.6943 C   0  0  0  0  0  0  0  0  0  0  0  0
   29.7107   15.8550   -1.3568 C   0  0  0  0  0  0  0  0  0  0  0  0
   28.9410   15.1087   -0.4826 C   0  0  0  0  0  0  0  0  0  0  0  0
   28.3308   13.9609   -1.0041 C   0  0  0  0  0  0  0  0  0  0  0  0
   30.3892   17.1212   -0.8502 C   0  0  0  0  0  0  0  0  0  0  0  0
   28.1049    8.1221   -3.4871 C   0  0  0  0  0  0  0  0  0  0  0  0
   27.2488    7.2054   -4.3221 C   0  0  0  0  0  0  0  0  0  0  0  0
   26.0415    5.2220   -3.9182 N   0  0  0  0  0  0  0  0  0  0  0  0
   25.0912    4.3414   -3.2311 C   0  0  0  0  0  0  0  0  0  0  0  0
   25.9941    6.7882   -2.2548 O   0  0  0  0  0  0  0  0  0  0  0  0
   26.3956    6.3664   -3.4027 C   0  0  0  0  0  0  0  0  0  0  0  0
   26.6041    4.7542   -5.1956 C   0  0  0  0  0  0  0  0  0  0  0  0
   25.9191    3.3899   -5.3552 C   0  0  0  0  0  0  0  0  0  0  0  0
   24.8464    3.2786   -4.2764 C   0  0  0  0  0  0  0  0  0  0  0  0
  5  4  1  0  0  0
  5  6  1  0  0  0
  8  9  2  0  0  0
  8  7  1  0  0  0
  9 10  1  0  0  0
  4  7  1  0  0  0
  4  3  1  0  0  0
  7 12  2  0  0  0
 10 13  1  0  0  0
 10 11  2  0  0  0
  6  1  1  0  0  0
 12 11  1  0  0  0
  3  2  1  0  0  0
  1  2  1  0  0  0
  1 14  1  0  0  0
 20 21  1  0  0  0
 20 16  1  0  0  0
 21 22  1  0  0  0
 15 14  1  0  0  0
 15 19  1  0  0  0
 16 19  1  0  0  0
 16 17  1  0  0  0
 22 17  1  0  0  0
 19 18  2  0  0  0
M  END
> <minimizedAffinity>
-10.71078

$$$$
5F08_5TG_A_301


 22 24  0  0  0  0  0  0  0  0999 V2000
   27.4434    9.3441   -3.8204 C   0  0  0  0  0  0  0  0  0  0  0  0
   28.2643   10.3950   -4.5144 C   0  0  0  0  0  0  0  0  0  0  0  0
   27.6910   11.7695   -4.1574 C   0  0  0  0  0  0  0  0  0  0  0  0
   27.6105   11.9592   -2.7173 N   0  0  0  0  0  0  0  0  0  0  0  0
   26.8773   10.9851   -1.9404 C   0  0  0  0  0  0  0  0  0  0  0  0
   27.4862    9.5994   -2.2931 C   0  0  0  0  0  0  0  0  0  0  0  0
   28.2715   13.1850   -2.2658 C   0  0  0  0  0  0  0  0  0  0  0  0
   28.1886   13.6847   -1.0076 C   0  0  0  0  0  0  0  0  0  0  0  0
   28.8585   14.8863   -0.6800 C   0  0  0  0  0  0  0  0  0  0  0  0
   29.6115   15.5885   -1.6500 C   0  0  0  0  0  0  0  0  0  0  0  0
   29.6840   15.1009   -2.9425 C   0  0  0  0  0  0  0  0  0  0  0  0
   29.0121   13.8993   -3.2003 C   0  0  0  0  0  0  0  0  0  0  0  0
   30.3328   16.8853   -1.3061 C   0  0  0  0  0  0  0  0  0  0  0  0
   28.0590    8.0446   -4.2968 C   0  0  0  0  0  0  0  0  0  0  0  0
   27.5214    6.8264   -3.5913 C   0  0  0  0  0  0  0  0  0  0  0  0
   27.0409    4.6860   -4.4530 N   0  0  0  0  0  0  0  0  0  0  0  0
   26.5497    3.7073   -5.4283 C   0  0  0  0  0  0  0  0  0  0  0  0
   26.0934    6.4517   -5.5516 O   0  0  0  0  0  0  0  0  0  0  0  0
   26.8032    5.9602   -4.5969 C   0  0  0  0  0  0  0  0  0  0  0  0
   27.7858    4.1757   -3.2904 C   0  0  0  0  0  0  0  0  0  0  0  0
   27.7777    2.6639   -3.5559 C   0  0  0  0  0  0  0  0  0  0  0  0
   27.2291    2.4412   -4.9617 C   0  0  0  0  0  0  0  0  0  0  0  0
  5  4  1  0  0  0
  5  6  1  0  0  0
  8  9  2  0  0  0
  8  7  1  0  0  0
  9 10  1  0  0  0
  4  7  1  0  0  0
  4  3  1  0  0  0
  7 12  2  0  0  0
 10 13  1  0  0  0
 10 11  2  0  0  0
  6  1  1  0  0  0
 12 11  1  0  0  0
  3  2  1  0  0  0
  1  2  1  0  0  0
  1 14  1  0  0  0
 20 21  1  0  0  0
 20 16  1  0  0  0
 21 22  1  0  0  0
 15 14  1  0  0  0
 15 19  1  0  0  0
 16 19  1  0  0  0
 16 17  1  0  0  0
 22 17  1  0  0  0
 19 18  2  0  0  0
M  END
> <minimizedAffinity>
-10.37214

$$$$
5F08_5TG_A_301


 22 24  0  0  0  0  0  0  0  0999 V2000
   27.4489   10.6309   -2.9847 C   0  0  0  0  0  0  0  0  0  0  0  0
   26.7178    9.5187   -2.2858 C   0  0  0  0  0  0  0  0  0  0  0  0
   26.0861    8.6138   -3.3476 C   0  0  0  0  0  0  0  0  0  0  0  0
   27.0735    8.1414   -4.3058 N   0  0  0  0  0  0  0  0  0  0  0  0
   27.8654    9.1243   -5.0106 C   0  0  0  0  0  0  0  0  0  0  0  0
   28.5202   10.0185   -3.9212 C   0  0  0  0  0  0  0  0  0  0  0  0
   27.0780    6.6844   -4.4485 C   0  0  0  0  0  0  0  0  0  0  0  0
   28.0958    5.8768   -4.0593 C   0  0  0  0  0  0  0  0  0  0  0  0
   28.0023    4.4794   -4.2553 C   0  0  0  0  0  0  0  0  0  0  0  0
   26.8624    3.9036   -4.8638 C   0  0  0  0  0  0  0  0  0  0  0  0
   25.8283    4.7196   -5.2860 C   0  0  0  0  0  0  0  0  0  0  0  0
   25.9735    6.0925   -5.0500 C   0  0  0  0  0  0  0  0  0  0  0  0
   26.7555    2.3999   -5.0818 C   0  0  0  0  0  0  0  0  0  0  0  0
   27.9680   11.4825   -1.8446 C   0  0  0  0  0  0  0  0  0  0  0  0
   27.5848   12.9358   -1.9522 C   0  0  0  0  0  0  0  0  0  0  0  0
   29.1091   14.7326   -1.9004 N   0  0  0  0  0  0  0  0  0  0  0  0
   30.1015   15.6712   -2.4342 C   0  0  0  0  0  0  0  0  0  0  0  0
   29.2071   13.3795   -3.7394 O   0  0  0  0  0  0  0  0  0  0  0  0
   28.7251   13.6929   -2.5877 C   0  0  0  0  0  0  0  0  0  0  0  0
   28.5846   14.9897   -0.5492 C   0  0  0  0  0  0  0  0  0  0  0  0
   29.3374   16.2704   -0.1627 C   0  0  0  0  0  0  0  0  0  0  0  0
   30.0634   16.7765   -1.4051 C   0  0  0  0  0  0  0  0  0  0  0  0
  5  4  1  0  0  0
  5  6  1  0  0  0
  8  9  2  0  0  0
  8  7  1  0  0  0
  9 10  1  0  0  0
  4  7  1  0  0  0
  4  3  1  0  0  0
  7 12  2  0  0  0
 10 13  1  0  0  0
 10 11  2  0  0  0
  6  1  1  0  0  0
 12 11  1  0  0  0
  3  2  1  0  0  0
  1  2  1  0  0  0
  1 14  1  0  0  0
 20 21  1  0  0  0
 20 16  1  0  0  0
 21 22  1  0  0  0
 15 14  1  0  0  0
 15 19  1  0  0  0
 16 19  1  0  0  0
 16 17  1  0  0  0
 22 17  1  0  0  0
 19 18  2  0  0  0
M  END
> <minimizedAffinity>
-10.32920

$$$$
5F08_5TG_A_301


 22 24  0  0  0  0  0  0  0  0999 V2000
   26.3921    5.8907   -4.9945 C   0  0  0  0  0  0  0  0  0  0  0  0
   26.7141    6.1868   -3.5562 C   0  0  0  0  0  0  0  0  0  0  0  0
   27.8111    7.2547   -3.5168 C   0  0  0  0  0  0  0  0  0  0  0  0
   27.4366    8.4363   -4.2785 N   0  0  0  0  0  0  0  0  0  0  0  0
   27.0681    8.2656   -5.6659 C   0  0  0  0  0  0  0  0  0  0  0  0
   25.9378    7.1992   -5.6882 C   0  0  0  0  0  0  0  0  0  0  0  0
   27.5424    9.6726   -3.5016 C   0  0  0  0  0  0  0  0  0  0  0  0
   27.0224    9.8484   -2.2613 C   0  0  0  0  0  0  0  0  0  0  0  0
   27.1719   11.0910   -1.6030 C   0  0  0  0  0  0  0  0  0  0  0  0
   27.8503   12.1667   -2.2223 C   0  0  0  0  0  0  0  0  0  0  0  0
   28.3646   12.0067   -3.4965 C   0  0  0  0  0  0  0  0  0  0  0  0
   28.1977   10.7486   -4.0890 C   0  0  0  0  0  0  0  0  0  0  0  0
   28.0125   13.5094   -1.5215 C   0  0  0  0  0  0  0  0  0  0  0  0
   25.3561    4.7893   -4.9042 C   0  0  0  0  0  0  0  0  0  0  0  0
   25.2441    4.1754   -3.5327 C   0  0  0  0  0  0  0  0  0  0  0  0
   25.9919    1.9407   -3.4952 N   0  0  0  0  0  0  0  0  0  0  0  0
   25.9310    0.4970   -3.7452 C   0  0  0  0  0  0  0  0  0  0  0  0
   23.7963    2.2606   -4.0423 O   0  0  0  0  0  0  0  0  0  0  0  0
   24.9503    2.7028   -3.6822 C   0  0  0  0  0  0  0  0  0  0  0  0
   27.2619    2.4937   -2.9971 C   0  0  0  0  0  0  0  0  0  0  0  0
   28.1393    1.2364   -2.9211 C   0  0  0  0  0  0  0  0  0  0  0  0
   27.3802    0.0979   -3.5951 C   0  0  0  0  0  0  0  0  0  0  0  0
  5  4  1  0  0  0
  5  6  1  0  0  0
  8  9  2  0  0  0
  8  7  1  0  0  0
  9 10  1  0  0  0
  4  7  1  0  0  0
  4  3  1  0  0  0
  7 12  2  0  0  0
 10 13  1  0  0  0
 10 11  2  0  0  0
  6  1  1  0  0  0
 12 11  1  0  0  0
  3  2  1  0  0  0
  1  2  1  0  0  0
  1 14  1  0  0  0
 20 21  1  0  0  0
 20 16  1  0  0  0
 21 22  1  0  0  0
 15 14  1  0  0  0
 15 19  1  0  0  0
 16 19  1  0  0  0
 16 17  1  0  0  0
 22 17  1  0  0  0
 19 18  2  0  0  0
M  END
> <minimizedAffinity>
-10.29008

$$$$
5F08_5TG_A_301


 22 24  0  0  0  0  0  0  0  0999 V2000
   27.1269    7.0833   -4.1911 C   0  0  0  0  0  0  0  0  0  0  0  0
   28.1657    7.9983   -4.7776 C   0  0  0  0  0  0  0  0  0  0  0  0
   27.5727    9.4073   -4.8679 C   0  0  0  0  0  0  0  0  0  0  0  0
   27.0669    9.8597   -3.5810 N   0  0  0  0  0  0  0  0  0  0  0  0
   26.0899    9.0368   -2.9041 C   0  0  0  0  0  0  0  0  0  0  0  0
   26.7150    7.6180   -2.7967 C   0  0  0  0  0  0  0  0  0  0  0  0
   27.6133   11.1566   -3.1776 C   0  0  0  0  0  0  0  0  0  0  0  0
   28.4819   11.8891   -3.9183 C   0  0  0  0  0  0  0  0  0  0  0  0
   28.9586   13.1268   -3.4275 C   0  0  0  0  0  0  0  0  0  0  0  0
   28.5515   13.6151   -2.1639 C   0  0  0  0  0  0  0  0  0  0  0  0
   27.6841   12.8657   -1.3894 C   0  0  0  0  0  0  0  0  0  0  0  0
   27.2358   11.6570   -1.9370 C   0  0  0  0  0  0  0  0  0  0  0  0
   29.0631   14.9453   -1.6265 C   0  0  0  0  0  0  0  0  0  0  0  0
   27.7998    5.7263   -4.2129 C   0  0  0  0  0  0  0  0  0  0  0  0
   26.9998    4.6438   -3.5357 C   0  0  0  0  0  0  0  0  0  0  0  0
   25.5796    2.9920   -4.4352 N   0  0  0  0  0  0  0  0  0  0  0  0
   25.2261    1.7967   -5.2078 C   0  0  0  0  0  0  0  0  0  0  0  0
   27.6906    3.0899   -5.3051 O   0  0  0  0  0  0  0  0  0  0  0  0
   26.7674    3.5238   -4.5200 C   0  0  0  0  0  0  0  0  0  0  0  0
   24.5365    3.5872   -3.5840 C   0  0  0  0  0  0  0  0  0  0  0  0
   23.3524    2.6442   -3.8390 C   0  0  0  0  0  0  0  0  0  0  0  0
   23.8705    1.4520   -4.6372 C   0  0  0  0  0  0  0  0  0  0  0  0
  5  4  1  0  0  0
  5  6  1  0  0  0
  8  9  2  0  0  0
  8  7  1  0  0  0
  9 10  1  0  0  0
  4  7  1  0  0  0
  4  3  1  0  0  0
  7 12  2  0  0  0
 10 13  1  0  0  0
 10 11  2  0  0  0
  6  1  1  0  0  0
 12 11  1  0  0  0
  3  2  1  0  0  0
  1  2  1  0  0  0
  1 14  1  0  0  0
 20 21  1  0  0  0
 20 16  1  0  0  0
 21 22  1  0  0  0
 15 14  1  0  0  0
 15 19  1  0  0  0
 16 19  1  0  0  0
 16 17  1  0  0  0
 22 17  1  0  0  0
 19 18  2  0  0  0
M  END
> <minimizedAffinity>
-10.13799

$$$$
5F08_5TG_A_301


 22 24  0  0  0  0  0  0  0  0999 V2000
   27.8942   11.4048   -3.0223 C   0  0  0  0  0  0  0  0  0  0  0  0
   27.2159   11.0041   -4.3027 C   0  0  0  0  0  0  0  0  0  0  0  0
   27.8810    9.7262   -4.8223 C   0  0  0  0  0  0  0  0  0  0  0  0
   27.8810    8.6749   -3.8168 N   0  0  0  0  0  0  0  0  0  0  0  0
   28.4733    8.9615   -2.5296 C   0  0  0  0  0  0  0  0  0  0  0  0
   27.7716   10.2444   -2.0033 C   0  0  0  0  0  0  0  0  0  0  0  0
   27.3001    7.4218   -4.3021 C   0  0  0  0  0  0  0  0  0  0  0  0
   26.3633    7.3360   -5.2791 C   0  0  0  0  0  0  0  0  0  0  0  0
   25.8589    6.0723   -5.6643 C   0  0  0  0  0  0  0  0  0  0  0  0
   26.3089    4.8865   -5.0380 C   0  0  0  0  0  0  0  0  0  0  0  0
   27.2469    4.9634   -4.0242 C   0  0  0  0  0  0  0  0  0  0  0  0
   27.7188    6.2414   -3.6991 C   0  0  0  0  0  0  0  0  0  0  0  0
   25.7680    3.5218   -5.4445 C   0  0  0  0  0  0  0  0  0  0  0  0
   27.2016   12.6985   -2.6464 C   0  0  0  0  0  0  0  0  0  0  0  0
   27.9550   13.5138   -1.6275 C   0  0  0  0  0  0  0  0  0  0  0  0
   29.4594   15.3281   -1.6270 N   0  0  0  0  0  0  0  0  0  0  0  0
   30.3673   16.3234   -2.2062 C   0  0  0  0  0  0  0  0  0  0  0  0
   29.3296   14.1259   -3.5662 O   0  0  0  0  0  0  0  0  0  0  0  0
   28.9979   14.3390   -2.3409 C   0  0  0  0  0  0  0  0  0  0  0  0
   29.1117   15.4685   -0.2036 C   0  0  0  0  0  0  0  0  0  0  0  0
   29.8983   16.7281    0.1851 C   0  0  0  0  0  0  0  0  0  0  0  0
   30.4539   17.3434   -1.0953 C   0  0  0  0  0  0  0  0  0  0  0  0
  5  4  1  0  0  0
  5  6  1  0  0  0
  8  9  2  0  0  0
  8  7  1  0  0  0
  9 10  1  0  0  0
  4  7  1  0  0  0
  4  3  1  0  0  0
  7 12  2  0  0  0
 10 13  1  0  0  0
 10 11  2  0  0  0
  6  1  1  0  0  0
 12 11  1  0  0  0
  3  2  1  0  0  0
  1  2  1  0  0  0
  1 14  1  0  0  0
 20 21  1  0  0  0
 20 16  1  0  0  0
 21 22  1  0  0  0
 15 14  1  0  0  0
 15 19  1  0  0  0
 16 19  1  0  0  0
 16 17  1  0  0  0
 22 17  1  0  0  0
 19 18  2  0  0  0
M  END
> <minimizedAffinity>
-10.08744

$$$$
5F08_5TG_A_301


 22 24  0  0  0  0  0  0  0  0999 V2000
   26.0075    5.6361   -4.5673 C   0  0  0  0  0  0  0  0  0  0  0  0
   26.3570    6.7808   -5.4771 C   0  0  0  0  0  0  0  0  0  0  0  0
   25.7914    8.0688   -4.8718 C   0  0  0  0  0  0  0  0  0  0  0  0
   26.2443    8.2619   -3.5029 N   0  0  0  0  0  0  0  0  0  0  0  0
   25.9969    7.2062   -2.5468 C   0  0  0  0  0  0  0  0  0  0  0  0
   26.5981    5.9118   -3.1620 C   0  0  0  0  0  0  0  0  0  0  0  0
   26.8632    9.5708   -3.2863 C   0  0  0  0  0  0  0  0  0  0  0  0
   27.6520   10.2071   -4.1877 C   0  0  0  0  0  0  0  0  0  0  0  0
   28.2110   11.4669   -3.8711 C   0  0  0  0  0  0  0  0  0  0  0  0
   27.9697   12.0770   -2.6179 C   0  0  0  0  0  0  0  0  0  0  0  0
   27.1859   11.4268   -1.6816 C   0  0  0  0  0  0  0  0  0  0  0  0
   26.6488   10.1899   -2.0604 C   0  0  0  0  0  0  0  0  0  0  0  0
   28.5710   13.4319   -2.2677 C   0  0  0  0  0  0  0  0  0  0  0  0
   26.5564    4.4267   -5.2959 C   0  0  0  0  0  0  0  0  0  0  0  0
   27.7771    3.8306   -4.6440 C   0  0  0  0  0  0  0  0  0  0  0  0
   27.8471    1.6647   -3.7174 N   0  0  0  0  0  0  0  0  0  0  0  0
   27.9850    0.2048   -3.7179 C   0  0  0  0  0  0  0  0  0  0  0  0
   27.7079    1.7833   -5.9953 O   0  0  0  0  0  0  0  0  0  0  0  0
   27.7463    2.3337   -4.8324 C   0  0  0  0  0  0  0  0  0  0  0  0
   27.7963    2.3447   -2.4128 C   0  0  0  0  0  0  0  0  0  0  0  0
   27.9242    1.1628   -1.4417 C   0  0  0  0  0  0  0  0  0  0  0  0
   28.2667   -0.0776   -2.2608 C   0  0  0  0  0  0  0  0  0  0  0  0
  5  4  1  0  0  0
  5  6  1  0  0  0
  8  9  2  0  0  0
  8  7  1  0  0  0
  9 10  1  0  0  0
  4  7  1  0  0  0
  4  3  1  0  0  0
  7 12  2  0  0  0
 10 13  1  0  0  0
 10 11  2  0  0  0
  6  1  1  0  0  0
 12 11  1  0  0  0
  3  2  1  0  0  0
  1  2  1  0  0  0
  1 14  1  0  0  0
 20 21  1  0  0  0
 20 16  1  0  0  0
 21 22  1  0  0  0
 15 14  1  0  0  0
 15 19  1  0  0  0
 16 19  1  0  0  0
 16 17  1  0  0  0
 22 17  1  0  0  0
 19 18  2  0  0  0
M  END
> <minimizedAffinity>
-9.98854

$$$$
5F08_5TG_A_301


 22 24  0  0  0  0  0  0  0  0999 V2000
   27.4442    9.4719   -3.9412 C   0  0  0  0  0  0  0  0  0  0  0  0
   27.3190    8.5270   -2.7786 C   0  0  0  0  0  0  0  0  0  0  0  0
   26.1624    7.5639   -3.0615 C   0  0  0  0  0  0  0  0  0  0  0  0
   26.3284    6.8873   -4.3386 N   0  0  0  0  0  0  0  0  0  0  0  0
   26.4975    7.6979   -5.5236 C   0  0  0  0  0  0  0  0  0  0  0  0
   27.6894    8.6517   -5.2322 C   0  0  0  0  0  0  0  0  0  0  0  0
   26.2462    5.4298   -4.2267 C   0  0  0  0  0  0  0  0  0  0  0  0
   25.3754    4.6533   -4.9182 C   0  0  0  0  0  0  0  0  0  0  0  0
   25.3719    3.2524   -4.7249 C   0  0  0  0  0  0  0  0  0  0  0  0
   26.2597    2.6411   -3.8089 C   0  0  0  0  0  0  0  0  0  0  0  0
   27.1364    3.4253   -3.0808 C   0  0  0  0  0  0  0  0  0  0  0  0
   27.1021    4.8034   -3.3283 C   0  0  0  0  0  0  0  0  0  0  0  0
   26.2598    1.1334   -3.5922 C   0  0  0  0  0  0  0  0  0  0  0  0
   28.5626   10.4027   -3.5199 C   0  0  0  0  0  0  0  0  0  0  0  0
   28.2417   11.8617   -3.7169 C   0  0  0  0  0  0  0  0  0  0  0  0
   28.4843   13.6172   -2.1632 N   0  0  0  0  0  0  0  0  0  0  0  0
   28.3918   14.2830   -0.8599 C   0  0  0  0  0  0  0  0  0  0  0  0
   27.1754   11.8628   -1.5066 O   0  0  0  0  0  0  0  0  0  0  0  0
   27.9031   12.4696   -2.3778 C   0  0  0  0  0  0  0  0  0  0  0  0
   29.2313   14.3049   -3.2291 C   0  0  0  0  0  0  0  0  0  0  0  0
   29.6858   15.5846   -2.5134 C   0  0  0  0  0  0  0  0  0  0  0  0
   29.3607   15.4293   -1.0312 C   0  0  0  0  0  0  0  0  0  0  0  0
  5  4  1  0  0  0
  5  6  1  0  0  0
  8  9  2  0  0  0
  8  7  1  0  0  0
  9 10  1  0  0  0
  4  7  1  0  0  0
  4  3  1  0  0  0
  7 12  2  0  0  0
 10 13  1  0  0  0
 10 11  2  0  0  0
  6  1  1  0  0  0
 12 11  1  0  0  0
  3  2  1  0  0  0
  1  2  1  0  0  0
  1 14  1  0  0  0
 20 21  1  0  0  0
 20 16  1  0  0  0
 21 22  1  0  0  0
 15 14  1  0  0  0
 15 19  1  0  0  0
 16 19  1  0  0  0
 16 17  1  0  0  0
 22 17  1  0  0  0
 19 18  2  0  0  0
M  END
> <minimizedAffinity>
-9.89689

$$$$
5F08_5TG_A_301


 22 24  0  0  0  0  0  0  0  0999 V2000
   27.2258    8.5144   -4.4232 C   0  0  0  0  0  0  0  0  0  0  0  0
   25.9948    8.0513   -5.1514 C   0  0  0  0  0  0  0  0  0  0  0  0
   26.2535    6.6409   -5.6889 C   0  0  0  0  0  0  0  0  0  0  0  0
   26.6737    5.7332   -4.6324 N   0  0  0  0  0  0  0  0  0  0  0  0
   27.8259    6.0966   -3.8385 C   0  0  0  0  0  0  0  0  0  0  0  0
   27.5386    7.5178   -3.2792 C   0  0  0  0  0  0  0  0  0  0  0  0
   25.8590    4.5186   -4.5667 C   0  0  0  0  0  0  0  0  0  0  0  0
   24.9391    4.2609   -3.6040 C   0  0  0  0  0  0  0  0  0  0  0  0
   24.2136    3.0472   -3.6280 C   0  0  0  0  0  0  0  0  0  0  0  0
   24.4377    2.0842   -4.6395 C   0  0  0  0  0  0  0  0  0  0  0  0
   25.3900    2.3258   -5.6134 C   0  0  0  0  0  0  0  0  0  0  0  0
   26.0638    3.5518   -5.5442 C   0  0  0  0  0  0  0  0  0  0  0  0
   23.6632    0.7730   -4.6704 C   0  0  0  0  0  0  0  0  0  0  0  0
   26.8751    9.9262   -4.0005 C   0  0  0  0  0  0  0  0  0  0  0  0
   28.0688   10.7483   -3.5887 C   0  0  0  0  0  0  0  0  0  0  0  0
   28.2321   12.7755   -2.3977 N   0  0  0  0  0  0  0  0  0  0  0  0
   28.0985   13.6745   -1.2469 C   0  0  0  0  0  0  0  0  0  0  0  0
   26.9689   11.1357   -1.4294 O   0  0  0  0  0  0  0  0  0  0  0  0
   27.6906   11.5890   -2.3939 C   0  0  0  0  0  0  0  0  0  0  0  0
   28.9735   13.2717   -3.5686 C   0  0  0  0  0  0  0  0  0  0  0  0
   29.3764   14.6792   -3.1071 C   0  0  0  0  0  0  0  0  0  0  0  0
   29.0334   14.7991   -1.6256 C   0  0  0  0  0  0  0  0  0  0  0  0
  5  4  1  0  0  0
  5  6  1  0  0  0
  8  9  2  0  0  0
  8  7  1  0  0  0
  9 10  1  0  0  0
  4  7  1  0  0  0
  4  3  1  0  0  0
  7 12  2  0  0  0
 10 13  1  0  0  0
 10 11  2  0  0  0
  6  1  1  0  0  0
 12 11  1  0  0  0
  3  2  1  0  0  0
  1  2  1  0  0  0
  1 14  1  0  0  0
 20 21  1  0  0  0
 20 16  1  0  0  0
 21 22  1  0  0  0
 15 14  1  0  0  0
 15 19  1  0  0  0
 16 19  1  0  0  0
 16 17  1  0  0  0
 22 17  1  0  0  0
 19 18  2  0  0  0
M  END
> <minimizedAffinity>
-9.65325

$$$$
