5EDC_5M7_A_201


 27 30  0  0  0  0  0  0  0  0999 V2000
    6.3444    7.6327   18.9583 N   0  0  0  0  0  0  0  0  0  0  0  0
    5.8676    7.2206   17.7780 C   0  0  0  0  0  0  0  0  0  0  0  0
    4.5676    6.5409   17.6788 C   0  0  0  0  0  0  0  0  0  0  0  0
    3.8348    6.3116   18.8259 C   0  0  0  0  0  0  0  0  0  0  0  0
    5.6175    7.4074   20.1002 C   0  0  0  0  0  0  0  0  0  0  0  0
    4.3614    6.7441   20.0913 C   0  0  0  0  0  0  0  0  0  0  0  0
    3.6511    6.5237   21.2844 C   0  0  0  0  0  0  0  0  0  0  0  0
    4.1809    6.9556   22.4712 C   0  0  0  0  0  0  0  0  0  0  0  0
    5.4344    7.6171   22.5112 C   0  0  0  0  0  0  0  0  0  0  0  0
    6.1389    7.8420   21.3604 C   0  0  0  0  0  0  0  0  0  0  0  0
    3.3202    6.7122   23.9171 Cl  0  0  0  0  0  0  0  0  0  0  0  0
    2.5455    5.6123   18.7718 C   0  0  0  0  0  0  0  0  0  0  0  0
    1.3935    6.4070   18.6092 C   0  0  0  0  0  0  0  0  0  0  0  0
    2.4290    4.2074   18.8889 C   0  0  0  0  0  0  0  0  0  0  0  0
    1.1517    3.6240   18.8464 C   0  0  0  0  0  0  0  0  0  0  0  0
    0.1391    5.8119   18.5551 C   0  0  0  0  0  0  0  0  0  0  0  0
    0.0250    4.4234   18.6732 C   0  0  0  0  0  0  0  0  0  0  0  0
    6.6196    7.4685   16.5628 N   0  0  0  0  0  0  0  0  0  0  0  0
    7.9619    8.0163   16.7714 C   0  0  0  0  0  0  0  0  0  0  0  0
    5.8464    8.2921   15.6257 C   0  0  0  0  0  0  0  0  0  0  0  0
    5.5524    9.6827   16.2083 C   0  0  0  0  0  0  0  0  0  0  0  0
    7.9365    9.5439   16.8854 C   0  0  0  0  0  0  0  0  0  0  0  0
    6.5582   10.0301   17.2852 C   0  0  0  0  0  0  0  0  0  0  0  0
    4.0431    6.1189   16.3692 C   0  0  0  0  0  0  0  0  0  0  0  0
    3.2351    6.6923   15.6422 O   0  0  0  0  0  0  0  0  0  0  0  0
    4.6061    4.9373   15.9500 O   0  0  0  0  0  0  0  0  0  0  0  0
    2.8456    7.4983   15.9188 H   0  0  0  0  0  0  0  0  0  0  0  0
 26 24  2  0  0  0
 25 24  1  0  0  0
 19 22  1  0  0  0
 19 18  1  0  0  0
 22 23  1  0  0  0
 24  3  1  0  0  0
 18 20  1  0  0  0
 18  2  1  0  0  0
 20 21  1  0  0  0
 23 21  1  0  0  0
  3  2  2  0  0  0
  3  4  1  0  0  0
 15 17  2  0  0  0
 15 14  1  0  0  0
 17 16  1  0  0  0
  2  1  1  0  0  0
 14 12  2  0  0  0
 16 13  2  0  0  0
 12 13  1  0  0  0
 12  4  1  0  0  0
  4  6  2  0  0  0
  1  5  2  0  0  0
  6  5  1  0  0  0
  6  7  1  0  0  0
  5 10  1  0  0  0
  7  8  2  0  0  0
 10  9  2  0  0  0
  8  9  1  0  0  0
  8 11  1  0  0  0
 25 27  1  0  0  0
M  END
> <minimizedAffinity>
-9.84760

$$$$
5EDC_5M7_A_201


 27 30  0  0  0  0  0  0  0  0999 V2000
    6.2101    7.5985   20.4842 N   0  0  0  0  0  0  0  0  0  0  0  0
    5.9509    7.4388   19.1812 C   0  0  0  0  0  0  0  0  0  0  0  0
    4.6714    6.8770   18.7240 C   0  0  0  0  0  0  0  0  0  0  0  0
    3.7286    6.4945   19.6569 C   0  0  0  0  0  0  0  0  0  0  0  0
    5.2742    7.2204   21.4139 C   0  0  0  0  0  0  0  0  0  0  0  0
    4.0214    6.6556   21.0548 C   0  0  0  0  0  0  0  0  0  0  0  0
    3.0923    6.2720   22.0379 C   0  0  0  0  0  0  0  0  0  0  0  0
    3.4029    6.4464   23.3602 C   0  0  0  0  0  0  0  0  0  0  0  0
    4.6474    7.0040   23.7485 C   0  0  0  0  0  0  0  0  0  0  0  0
    5.5629    7.3848   22.8061 C   0  0  0  0  0  0  0  0  0  0  0  0
    2.2779    6.0047   24.5561 Cl  0  0  0  0  0  0  0  0  0  0  0  0
    2.4504    5.9046   19.2416 C   0  0  0  0  0  0  0  0  0  0  0  0
    2.3973    4.5004   19.1406 C   0  0  0  0  0  0  0  0  0  0  0  0
    1.3095    6.6829   18.9356 C   0  0  0  0  0  0  0  0  0  0  0  0
    0.1324    6.0343   18.5262 C   0  0  0  0  0  0  0  0  0  0  0  0
    1.2205    3.8746   18.7477 C   0  0  0  0  0  0  0  0  0  0  0  0
    0.0942    4.6450   18.4434 C   0  0  0  0  0  0  0  0  0  0  0  0
    6.9259    7.8505   18.1895 N   0  0  0  0  0  0  0  0  0  0  0  0
    8.3230    7.7194   18.6095 C   0  0  0  0  0  0  0  0  0  0  0  0
    6.6397    9.2052   17.7026 C   0  0  0  0  0  0  0  0  0  0  0  0
    6.7482   10.2434   18.8296 C   0  0  0  0  0  0  0  0  0  0  0  0
    8.8018    8.9590   19.3720 C   0  0  0  0  0  0  0  0  0  0  0  0
    7.6267    9.7231   19.9473 C   0  0  0  0  0  0  0  0  0  0  0  0
    4.3893    6.7341   17.2859 C   0  0  0  0  0  0  0  0  0  0  0  0
    3.8142    7.5163   16.5325 O   0  0  0  0  0  0  0  0  0  0  0  0
    4.9009    5.5636   16.7788 O   0  0  0  0  0  0  0  0  0  0  0  0
    3.4620    8.3169   16.8684 H   0  0  0  0  0  0  0  0  0  0  0  0
 26 24  2  0  0  0
 25 24  1  0  0  0
 19 22  1  0  0  0
 19 18  1  0  0  0
 22 23  1  0  0  0
 24  3  1  0  0  0
 18 20  1  0  0  0
 18  2  1  0  0  0
 20 21  1  0  0  0
 23 21  1  0  0  0
  3  2  2  0  0  0
  3  4  1  0  0  0
 15 17  2  0  0  0
 15 14  1  0  0  0
 17 16  1  0  0  0
  2  1  1  0  0  0
 14 12  2  0  0  0
 16 13  2  0  0  0
 12 13  1  0  0  0
 12  4  1  0  0  0
  4  6  2  0  0  0
  1  5  2  0  0  0
  6  5  1  0  0  0
  6  7  1  0  0  0
  5 10  1  0  0  0
  7  8  2  0  0  0
 10  9  2  0  0  0
  8  9  1  0  0  0
  8 11  1  0  0  0
 25 27  1  0  0  0
M  END
> <minimizedAffinity>
-9.45368

$$$$
5EDC_5M7_A_201


 27 30  0  0  0  0  0  0  0  0999 V2000
    2.3309    5.7140   19.8610 N   0  0  0  0  0  0  0  0  0  0  0  0
    2.5235    5.7934   18.5393 C   0  0  0  0  0  0  0  0  0  0  0  0
    3.7480    6.3885   17.9840 C   0  0  0  0  0  0  0  0  0  0  0  0
    4.7074    6.8868   18.8424 C   0  0  0  0  0  0  0  0  0  0  0  0
    3.2835    6.2072   20.7168 C   0  0  0  0  0  0  0  0  0  0  0  0
    4.4855    6.8111   20.2604 C   0  0  0  0  0  0  0  0  0  0  0  0
    5.4332    7.3133   21.1693 C   0  0  0  0  0  0  0  0  0  0  0  0
    5.1910    7.2179   22.5138 C   0  0  0  0  0  0  0  0  0  0  0  0
    3.9982    6.6238   22.9985 C   0  0  0  0  0  0  0  0  0  0  0  0
    3.0656    6.1280   22.1293 C   0  0  0  0  0  0  0  0  0  0  0  0
    6.3402    7.8038   23.6215 Cl  0  0  0  0  0  0  0  0  0  0  0  0
    5.9307    7.5129   18.3270 C   0  0  0  0  0  0  0  0  0  0  0  0
    5.9262    8.9161   18.2002 C   0  0  0  0  0  0  0  0  0  0  0  0
    7.0741    6.7692   17.9521 C   0  0  0  0  0  0  0  0  0  0  0  0
    8.1950    7.4505   17.4489 C   0  0  0  0  0  0  0  0  0  0  0  0
    7.0487    9.5749   17.7139 C   0  0  0  0  0  0  0  0  0  0  0  0
    8.1774    8.8386   17.3416 C   0  0  0  0  0  0  0  0  0  0  0  0
    1.5311    5.2600   17.6259 N   0  0  0  0  0  0  0  0  0  0  0  0
    1.0144    6.2218   16.6495 C   0  0  0  0  0  0  0  0  0  0  0  0
    0.4410    4.6054   18.3590 C   0  0  0  0  0  0  0  0  0  0  0  0
   -0.3211    5.6030   19.2443 C   0  0  0  0  0  0  0  0  0  0  0  0
   -0.1611    7.0247   17.2159 C   0  0  0  0  0  0  0  0  0  0  0  0
   -0.1379    7.0153   18.7308 C   0  0  0  0  0  0  0  0  0  0  0  0
    3.9585    6.4428   16.5278 C   0  0  0  0  0  0  0  0  0  0  0  0
    3.8381    7.4008   15.7674 O   0  0  0  0  0  0  0  0  0  0  0  0
    4.3825    5.2350   16.0275 O   0  0  0  0  0  0  0  0  0  0  0  0
    3.5498    8.2285   16.0986 H   0  0  0  0  0  0  0  0  0  0  0  0
 26 24  2  0  0  0
 25 24  1  0  0  0
 19 22  1  0  0  0
 19 18  1  0  0  0
 22 23  1  0  0  0
 24  3  1  0  0  0
 18 20  1  0  0  0
 18  2  1  0  0  0
 20 21  1  0  0  0
 23 21  1  0  0  0
  3  2  2  0  0  0
  3  4  1  0  0  0
 15 17  2  0  0  0
 15 14  1  0  0  0
 17 16  1  0  0  0
  2  1  1  0  0  0
 14 12  2  0  0  0
 16 13  2  0  0  0
 12 13  1  0  0  0
 12  4  1  0  0  0
  4  6  2  0  0  0
  1  5  2  0  0  0
  6  5  1  0  0  0
  6  7  1  0  0  0
  5 10  1  0  0  0
  7  8  2  0  0  0
 10  9  2  0  0  0
  8  9  1  0  0  0
  8 11  1  0  0  0
 25 27  1  0  0  0
M  END
> <minimizedAffinity>
-8.78892

$$$$
5EDC_5M7_A_201


 27 30  0  0  0  0  0  0  0  0999 V2000
    2.6703    6.4416   20.4965 N   0  0  0  0  0  0  0  0  0  0  0  0
    2.5567    6.8306   19.2213 C   0  0  0  0  0  0  0  0  0  0  0  0
    3.6360    7.5735   18.5542 C   0  0  0  0  0  0  0  0  0  0  0  0
    4.7790    7.8872   19.2618 C   0  0  0  0  0  0  0  0  0  0  0  0
    3.8060    6.7508   21.2020 C   0  0  0  0  0  0  0  0  0  0  0  0
    4.8863    7.4787   20.6356 C   0  0  0  0  0  0  0  0  0  0  0  0
    6.0297    7.7842   21.3945 C   0  0  0  0  0  0  0  0  0  0  0  0
    6.0998    7.3730   22.6989 C   0  0  0  0  0  0  0  0  0  0  0  0
    5.0353    6.6483   23.2922 C   0  0  0  0  0  0  0  0  0  0  0  0
    3.9158    6.3403   22.5688 C   0  0  0  0  0  0  0  0  0  0  0  0
    7.4870    7.7196   23.6189 Cl  0  0  0  0  0  0  0  0  0  0  0  0
    5.8671    8.6510   18.6398 C   0  0  0  0  0  0  0  0  0  0  0  0
    5.7863   10.0556   18.7147 C   0  0  0  0  0  0  0  0  0  0  0  0
    6.9540    8.0361   17.9752 C   0  0  0  0  0  0  0  0  0  0  0  0
    7.9413    8.8466   17.3904 C   0  0  0  0  0  0  0  0  0  0  0  0
    6.7791   10.8416   18.1428 C   0  0  0  0  0  0  0  0  0  0  0  0
    7.8517   10.2328   17.4844 C   0  0  0  0  0  0  0  0  0  0  0  0
    1.3681    6.4945   18.4612 N   0  0  0  0  0  0  0  0  0  0  0  0
    0.2791    5.9119   19.2486 C   0  0  0  0  0  0  0  0  0  0  0  0
    1.7035    5.6511   17.3078 C   0  0  0  0  0  0  0  0  0  0  0  0
    2.2943    4.3033   17.7484 C   0  0  0  0  0  0  0  0  0  0  0  0
    0.4330    4.3940   19.3881 C   0  0  0  0  0  0  0  0  0  0  0  0
    1.8726    3.9771   19.1653 C   0  0  0  0  0  0  0  0  0  0  0  0
    3.5083    7.9697   17.1418 C   0  0  0  0  0  0  0  0  0  0  0  0
    3.9342    7.3988   16.1403 O   0  0  0  0  0  0  0  0  0  0  0  0
    2.7687    9.1191   16.9985 O   0  0  0  0  0  0  0  0  0  0  0  0
    4.4395    6.6145   16.2274 H   0  0  0  0  0  0  0  0  0  0  0  0
 26 24  2  0  0  0
 25 24  1  0  0  0
 19 22  1  0  0  0
 19 18  1  0  0  0
 22 23  1  0  0  0
 24  3  1  0  0  0
 18 20  1  0  0  0
 18  2  1  0  0  0
 20 21  1  0  0  0
 23 21  1  0  0  0
  3  2  2  0  0  0
  3  4  1  0  0  0
 15 17  2  0  0  0
 15 14  1  0  0  0
 17 16  1  0  0  0
  2  1  1  0  0  0
 14 12  2  0  0  0
 16 13  2  0  0  0
 12 13  1  0  0  0
 12  4  1  0  0  0
  4  6  2  0  0  0
  1  5  2  0  0  0
  6  5  1  0  0  0
  6  7  1  0  0  0
  5 10  1  0  0  0
  7  8  2  0  0  0
 10  9  2  0  0  0
  8  9  1  0  0  0
  8 11  1  0  0  0
 25 27  1  0  0  0
M  END
> <minimizedAffinity>
-8.59335

$$$$
5EDC_5M7_A_201


 27 30  0  0  0  0  0  0  0  0999 V2000
    5.0400    8.1137   17.9070 N   0  0  0  0  0  0  0  0  0  0  0  0
    5.4335    8.8702   18.9381 C   0  0  0  0  0  0  0  0  0  0  0  0
    5.0651    8.5242   20.3189 C   0  0  0  0  0  0  0  0  0  0  0  0
    4.2874    7.4078   20.5520 C   0  0  0  0  0  0  0  0  0  0  0  0
    4.2680    7.0025   18.1358 C   0  0  0  0  0  0  0  0  0  0  0  0
    3.8565    6.6094   19.4373 C   0  0  0  0  0  0  0  0  0  0  0  0
    3.0573    5.4689   19.6297 C   0  0  0  0  0  0  0  0  0  0  0  0
    2.6711    4.7283   18.5444 C   0  0  0  0  0  0  0  0  0  0  0  0
    3.0633    5.0987   17.2332 C   0  0  0  0  0  0  0  0  0  0  0  0
    3.8423    6.2040   17.0267 C   0  0  0  0  0  0  0  0  0  0  0  0
    1.7216    3.3357   18.7685 Cl  0  0  0  0  0  0  0  0  0  0  0  0
    3.8760    7.0443   21.9132 C   0  0  0  0  0  0  0  0  0  0  0  0
    4.8881    6.6133   22.7934 C   0  0  0  0  0  0  0  0  0  0  0  0
    2.5313    7.0992   22.3488 C   0  0  0  0  0  0  0  0  0  0  0  0
    2.2252    6.7130   23.6645 C   0  0  0  0  0  0  0  0  0  0  0  0
    4.5695    6.2485   24.0956 C   0  0  0  0  0  0  0  0  0  0  0  0
    3.2398    6.3010   24.5244 C   0  0  0  0  0  0  0  0  0  0  0  0
    6.2637   10.0372   18.7094 N   0  0  0  0  0  0  0  0  0  0  0  0
    6.4526   10.3908   17.3006 C   0  0  0  0  0  0  0  0  0  0  0  0
    7.5499    9.9111   19.4052 C   0  0  0  0  0  0  0  0  0  0  0  0
    8.3660    8.7249   18.8700 C   0  0  0  0  0  0  0  0  0  0  0  0
    7.6245    9.6246   16.6786 C   0  0  0  0  0  0  0  0  0  0  0  0
    7.9228    8.3659   17.4676 C   0  0  0  0  0  0  0  0  0  0  0  0
    5.5298    9.3504   21.4456 C   0  0  0  0  0  0  0  0  0  0  0  0
    4.9839   10.3212   21.9652 O   0  0  0  0  0  0  0  0  0  0  0  0
    6.7195    8.8921   21.9587 O   0  0  0  0  0  0  0  0  0  0  0  0
    4.1726   10.6413   21.6229 H   0  0  0  0  0  0  0  0  0  0  0  0
 26 24  2  0  0  0
 25 24  1  0  0  0
 19 22  1  0  0  0
 19 18  1  0  0  0
 22 23  1  0  0  0
 24  3  1  0  0  0
 18 20  1  0  0  0
 18  2  1  0  0  0
 20 21  1  0  0  0
 23 21  1  0  0  0
  3  2  2  0  0  0
  3  4  1  0  0  0
 15 17  2  0  0  0
 15 14  1  0  0  0
 17 16  1  0  0  0
  2  1  1  0  0  0
 14 12  2  0  0  0
 16 13  2  0  0  0
 12 13  1  0  0  0
 12  4  1  0  0  0
  4  6  2  0  0  0
  1  5  2  0  0  0
  6  5  1  0  0  0
  6  7  1  0  0  0
  5 10  1  0  0  0
  7  8  2  0  0  0
 10  9  2  0  0  0
  8  9  1  0  0  0
  8 11  1  0  0  0
 25 27  1  0  0  0
M  END
> <minimizedAffinity>
-7.84209

$$$$
5EDC_5M7_A_201


 27 30  0  0  0  0  0  0  0  0999 V2000
    3.3075    9.3305   17.7252 N   0  0  0  0  0  0  0  0  0  0  0  0
    4.2661   10.0375   18.3349 C   0  0  0  0  0  0  0  0  0  0  0  0
    4.9420    9.5243   19.5355 C   0  0  0  0  0  0  0  0  0  0  0  0
    4.5696    8.2986   20.0497 C   0  0  0  0  0  0  0  0  0  0  0  0
    2.9362    8.1110   18.2333 C   0  0  0  0  0  0  0  0  0  0  0  0
    3.5286    7.5527   19.3974 C   0  0  0  0  0  0  0  0  0  0  0  0
    3.1137    6.3039   19.8924 C   0  0  0  0  0  0  0  0  0  0  0  0
    2.1233    5.6183   19.2408 C   0  0  0  0  0  0  0  0  0  0  0  0
    1.5110    6.1526   18.0789 C   0  0  0  0  0  0  0  0  0  0  0  0
    1.9028    7.3652   17.5816 C   0  0  0  0  0  0  0  0  0  0  0  0
    1.6287    4.0981   19.8197 Cl  0  0  0  0  0  0  0  0  0  0  0  0
    5.2014    7.7642   21.2620 C   0  0  0  0  0  0  0  0  0  0  0  0
    4.4084    7.7097   22.4252 C   0  0  0  0  0  0  0  0  0  0  0  0
    6.5468    7.3286   21.2980 C   0  0  0  0  0  0  0  0  0  0  0  0
    7.0754    6.8497   22.5083 C   0  0  0  0  0  0  0  0  0  0  0  0
    4.9434    7.2200   23.6103 C   0  0  0  0  0  0  0  0  0  0  0  0
    6.2739    6.7919   23.6453 C   0  0  0  0  0  0  0  0  0  0  0  0
    4.6782   11.3198   17.7968 N   0  0  0  0  0  0  0  0  0  0  0  0
    3.7499   11.9070   16.8280 C   0  0  0  0  0  0  0  0  0  0  0  0
    6.0406   11.2485   17.2554 C   0  0  0  0  0  0  0  0  0  0  0  0
    6.1270   10.2696   16.0747 C   0  0  0  0  0  0  0  0  0  0  0  0
    4.0186   11.3973   15.4084 C   0  0  0  0  0  0  0  0  0  0  0  0
    4.7646   10.0790   15.4430 C   0  0  0  0  0  0  0  0  0  0  0  0
    6.0150   10.3011   20.1786 C   0  0  0  0  0  0  0  0  0  0  0  0
    5.9319   11.1203   21.0909 O   0  0  0  0  0  0  0  0  0  0  0  0
    7.2508    9.9873   19.6656 O   0  0  0  0  0  0  0  0  0  0  0  0
    5.0940   11.3411   21.4475 H   0  0  0  0  0  0  0  0  0  0  0  0
 26 24  2  0  0  0
 25 24  1  0  0  0
 19 22  1  0  0  0
 19 18  1  0  0  0
 22 23  1  0  0  0
 24  3  1  0  0  0
 18 20  1  0  0  0
 18  2  1  0  0  0
 20 21  1  0  0  0
 23 21  1  0  0  0
  3  2  2  0  0  0
  3  4  1  0  0  0
 15 17  2  0  0  0
 15 14  1  0  0  0
 17 16  1  0  0  0
  2  1  1  0  0  0
 14 12  2  0  0  0
 16 13  2  0  0  0
 12 13  1  0  0  0
 12  4  1  0  0  0
  4  6  2  0  0  0
  1  5  2  0  0  0
  6  5  1  0  0  0
  6  7  1  0  0  0
  5 10  1  0  0  0
  7  8  2  0  0  0
 10  9  2  0  0  0
  8  9  1  0  0  0
  8 11  1  0  0  0
 25 27  1  0  0  0
M  END
> <minimizedAffinity>
-7.80148

$$$$
5EDC_5M7_A_201


 27 30  0  0  0  0  0  0  0  0999 V2000
    4.0050    5.3475   17.9958 N   0  0  0  0  0  0  0  0  0  0  0  0
    3.8139    5.6831   19.2769 C   0  0  0  0  0  0  0  0  0  0  0  0
    4.5929    6.7604   19.9048 C   0  0  0  0  0  0  0  0  0  0  0  0
    5.5478    7.4257   19.1626 C   0  0  0  0  0  0  0  0  0  0  0  0
    4.9526    6.0081   17.2551 C   0  0  0  0  0  0  0  0  0  0  0  0
    5.7571    7.0486   17.7916 C   0  0  0  0  0  0  0  0  0  0  0  0
    6.7245    7.6952   17.0025 C   0  0  0  0  0  0  0  0  0  0  0  0
    6.8917    7.3138   15.6979 C   0  0  0  0  0  0  0  0  0  0  0  0
    6.1058    6.2757   15.1364 C   0  0  0  0  0  0  0  0  0  0  0  0
    5.1585    5.6365   15.8882 C   0  0  0  0  0  0  0  0  0  0  0  0
    8.0447    8.1034   14.7295 Cl  0  0  0  0  0  0  0  0  0  0  0  0
    6.3648    8.4883   19.7608 C   0  0  0  0  0  0  0  0  0  0  0  0
    5.8832    9.8072   19.6445 C   0  0  0  0  0  0  0  0  0  0  0  0
    7.5915    8.2350   20.4182 C   0  0  0  0  0  0  0  0  0  0  0  0
    8.3183    9.3162   20.9441 C   0  0  0  0  0  0  0  0  0  0  0  0
    6.6081   10.8632   20.1829 C   0  0  0  0  0  0  0  0  0  0  0  0
    7.8215   10.6119   20.8305 C   0  0  0  0  0  0  0  0  0  0  0  0
    2.8033    5.0030   20.0643 N   0  0  0  0  0  0  0  0  0  0  0  0
    2.3465    3.7272   19.5085 C   0  0  0  0  0  0  0  0  0  0  0  0
    1.6738    5.8950   20.3521 C   0  0  0  0  0  0  0  0  0  0  0  0
    0.9568    6.3294   19.0649 C   0  0  0  0  0  0  0  0  0  0  0  0
    1.2094    3.9253   18.5010 C   0  0  0  0  0  0  0  0  0  0  0  0
    1.2182    5.3374   17.9516 C   0  0  0  0  0  0  0  0  0  0  0  0
    4.3511    7.1375   21.3075 C   0  0  0  0  0  0  0  0  0  0  0  0
    3.6979    8.0798   21.7499 O   0  0  0  0  0  0  0  0  0  0  0  0
    4.9306    6.2501   22.1824 O   0  0  0  0  0  0  0  0  0  0  0  0
    3.2988    8.6904   21.1618 H   0  0  0  0  0  0  0  0  0  0  0  0
 26 24  2  0  0  0
 25 24  1  0  0  0
 19 22  1  0  0  0
 19 18  1  0  0  0
 22 23  1  0  0  0
 24  3  1  0  0  0
 18 20  1  0  0  0
 18  2  1  0  0  0
 20 21  1  0  0  0
 23 21  1  0  0  0
  3  2  2  0  0  0
  3  4  1  0  0  0
 15 17  2  0  0  0
 15 14  1  0  0  0
 17 16  1  0  0  0
  2  1  1  0  0  0
 14 12  2  0  0  0
 16 13  2  0  0  0
 12 13  1  0  0  0
 12  4  1  0  0  0
  4  6  2  0  0  0
  1  5  2  0  0  0
  6  5  1  0  0  0
  6  7  1  0  0  0
  5 10  1  0  0  0
  7  8  2  0  0  0
 10  9  2  0  0  0
  8  9  1  0  0  0
  8 11  1  0  0  0
 25 27  1  0  0  0
M  END
> <minimizedAffinity>
-7.42330

$$$$
5EDC_5M7_A_201


 27 30  0  0  0  0  0  0  0  0999 V2000
    4.5081    7.4872   16.5747 N   0  0  0  0  0  0  0  0  0  0  0  0
    5.4904    8.2369   17.0880 C   0  0  0  0  0  0  0  0  0  0  0  0
    5.7793    8.2280   18.5297 C   0  0  0  0  0  0  0  0  0  0  0  0
    5.0133    7.4435   19.3683 C   0  0  0  0  0  0  0  0  0  0  0  0
    3.7458    6.7053   17.4058 C   0  0  0  0  0  0  0  0  0  0  0  0
    3.9504    6.6530   18.8105 C   0  0  0  0  0  0  0  0  0  0  0  0
    3.1416    5.8461   19.6299 C   0  0  0  0  0  0  0  0  0  0  0  0
    2.1424    5.1011   19.0625 C   0  0  0  0  0  0  0  0  0  0  0  0
    1.9122    5.1363   17.6639 C   0  0  0  0  0  0  0  0  0  0  0  0
    2.6902    5.9139   16.8507 C   0  0  0  0  0  0  0  0  0  0  0  0
    1.1720    4.1064   20.0422 Cl  0  0  0  0  0  0  0  0  0  0  0  0
    5.2525    7.4281   20.8163 C   0  0  0  0  0  0  0  0  0  0  0  0
    6.5284    7.0160   21.2490 C   0  0  0  0  0  0  0  0  0  0  0  0
    4.2643    7.7905   21.7613 C   0  0  0  0  0  0  0  0  0  0  0  0
    4.5748    7.7267   23.1300 C   0  0  0  0  0  0  0  0  0  0  0  0
    6.8228    6.9722   22.6062 C   0  0  0  0  0  0  0  0  0  0  0  0
    5.8446    7.3286   23.5394 C   0  0  0  0  0  0  0  0  0  0  0  0
    6.3131    9.0540   16.2169 N   0  0  0  0  0  0  0  0  0  0  0  0
    5.8761    9.0956   14.8195 C   0  0  0  0  0  0  0  0  0  0  0  0
    7.7272    8.6753   16.3230 C   0  0  0  0  0  0  0  0  0  0  0  0
    7.9596    7.2299   15.8575 C   0  0  0  0  0  0  0  0  0  0  0  0
    6.4517    7.9269   14.0132 C   0  0  0  0  0  0  0  0  0  0  0  0
    6.8494    6.7869   14.9285 C   0  0  0  0  0  0  0  0  0  0  0  0
    6.8821    9.0365   19.0757 C   0  0  0  0  0  0  0  0  0  0  0  0
    8.0582    8.7217   19.2433 O   0  0  0  0  0  0  0  0  0  0  0  0
    6.4770   10.3141   19.3801 O   0  0  0  0  0  0  0  0  0  0  0  0
    8.3443    7.8532   19.0388 H   0  0  0  0  0  0  0  0  0  0  0  0
 26 24  2  0  0  0
 25 24  1  0  0  0
 19 22  1  0  0  0
 19 18  1  0  0  0
 22 23  1  0  0  0
 24  3  1  0  0  0
 18 20  1  0  0  0
 18  2  1  0  0  0
 20 21  1  0  0  0
 23 21  1  0  0  0
  3  2  2  0  0  0
  3  4  1  0  0  0
 15 17  2  0  0  0
 15 14  1  0  0  0
 17 16  1  0  0  0
  2  1  1  0  0  0
 14 12  2  0  0  0
 16 13  2  0  0  0
 12 13  1  0  0  0
 12  4  1  0  0  0
  4  6  2  0  0  0
  1  5  2  0  0  0
  6  5  1  0  0  0
  6  7  1  0  0  0
  5 10  1  0  0  0
  7  8  2  0  0  0
 10  9  2  0  0  0
  8  9  1  0  0  0
  8 11  1  0  0  0
 25 27  1  0  0  0
M  END
> <minimizedAffinity>
-7.20306

$$$$
5EDC_5M7_A_201


 27 30  0  0  0  0  0  0  0  0999 V2000
    2.6501    8.5753   18.5044 N   0  0  0  0  0  0  0  0  0  0  0  0
    2.4976    7.6617   17.5387 C   0  0  0  0  0  0  0  0  0  0  0  0
    3.6608    7.0161   16.9126 C   0  0  0  0  0  0  0  0  0  0  0  0
    4.9314    7.3707   17.3189 C   0  0  0  0  0  0  0  0  0  0  0  0
    3.9120    8.9288   18.9114 C   0  0  0  0  0  0  0  0  0  0  0  0
    5.0864    8.3639   18.3462 C   0  0  0  0  0  0  0  0  0  0  0  0
    6.3625    8.7595   18.7841 C   0  0  0  0  0  0  0  0  0  0  0  0
    6.4716    9.7039   19.7698 C   0  0  0  0  0  0  0  0  0  0  0  0
    5.3170   10.2881   20.3496 C   0  0  0  0  0  0  0  0  0  0  0  0
    4.0673    9.9143   19.9377 C   0  0  0  0  0  0  0  0  0  0  0  0
    8.0099   10.1742   20.3206 Cl  0  0  0  0  0  0  0  0  0  0  0  0
    6.1184    6.7691   16.6997 C   0  0  0  0  0  0  0  0  0  0  0  0
    6.4468    7.1970   15.3982 C   0  0  0  0  0  0  0  0  0  0  0  0
    6.9096    5.7914   17.3472 C   0  0  0  0  0  0  0  0  0  0  0  0
    8.0176    5.2546   16.6706 C   0  0  0  0  0  0  0  0  0  0  0  0
    7.5545    6.6656   14.7492 C   0  0  0  0  0  0  0  0  0  0  0  0
    8.3345    5.6978   15.3893 C   0  0  0  0  0  0  0  0  0  0  0  0
    1.1682    7.2682   17.1125 N   0  0  0  0  0  0  0  0  0  0  0  0
    0.0735    7.9672   17.7896 C   0  0  0  0  0  0  0  0  0  0  0  0
    1.0013    5.8121   17.1910 C   0  0  0  0  0  0  0  0  0  0  0  0
    1.1268    5.3078   18.6365 C   0  0  0  0  0  0  0  0  0  0  0  0
   -0.3096    7.2777   19.1030 C   0  0  0  0  0  0  0  0  0  0  0  0
    0.8331    6.4248   19.6153 C   0  0  0  0  0  0  0  0  0  0  0  0
    3.4762    5.9917   15.8712 C   0  0  0  0  0  0  0  0  0  0  0  0
    3.1699    6.1404   14.6903 O   0  0  0  0  0  0  0  0  0  0  0  0
    3.7358    4.7282   16.3456 O   0  0  0  0  0  0  0  0  0  0  0  0
    2.9910    6.9977   14.3571 H   0  0  0  0  0  0  0  0  0  0  0  0
 26 24  2  0  0  0
 25 24  1  0  0  0
 19 22  1  0  0  0
 19 18  1  0  0  0
 22 23  1  0  0  0
 24  3  1  0  0  0
 18 20  1  0  0  0
 18  2  1  0  0  0
 20 21  1  0  0  0
 23 21  1  0  0  0
  3  2  2  0  0  0
  3  4  1  0  0  0
 15 17  2  0  0  0
 15 14  1  0  0  0
 17 16  1  0  0  0
  2  1  1  0  0  0
 14 12  2  0  0  0
 16 13  2  0  0  0
 12 13  1  0  0  0
 12  4  1  0  0  0
  4  6  2  0  0  0
  1  5  2  0  0  0
  6  5  1  0  0  0
  6  7  1  0  0  0
  5 10  1  0  0  0
  7  8  2  0  0  0
 10  9  2  0  0  0
  8  9  1  0  0  0
  8 11  1  0  0  0
 25 27  1  0  0  0
M  END
> <minimizedAffinity>
-7.18095

$$$$
5EDC_5M7_A_201


 27 30  0  0  0  0  0  0  0  0999 V2000
    5.7469    9.2268   15.8346 N   0  0  0  0  0  0  0  0  0  0  0  0
    5.4127    7.9391   15.6920 C   0  0  0  0  0  0  0  0  0  0  0  0
    4.2090    7.3905   16.3339 C   0  0  0  0  0  0  0  0  0  0  0  0
    3.4196    8.2163   17.1087 C   0  0  0  0  0  0  0  0  0  0  0  0
    4.9632   10.0505   16.6030 C   0  0  0  0  0  0  0  0  0  0  0  0
    3.7941    9.5946   17.2688 C   0  0  0  0  0  0  0  0  0  0  0  0
    3.0224   10.4679   18.0552 C   0  0  0  0  0  0  0  0  0  0  0  0
    3.4063   11.7766   18.1797 C   0  0  0  0  0  0  0  0  0  0  0  0
    4.5706   12.2589   17.5300 C   0  0  0  0  0  0  0  0  0  0  0  0
    5.3328   11.4245   16.7592 C   0  0  0  0  0  0  0  0  0  0  0  0
    2.4685   12.8455   19.1119 Cl  0  0  0  0  0  0  0  0  0  0  0  0
    2.2252    7.7004   17.7880 C   0  0  0  0  0  0  0  0  0  0  0  0
    2.4339    6.9017   18.9297 C   0  0  0  0  0  0  0  0  0  0  0  0
    0.9111    7.9626   17.3347 C   0  0  0  0  0  0  0  0  0  0  0  0
   -0.1741    7.4106   18.0358 C   0  0  0  0  0  0  0  0  0  0  0  0
    1.3485    6.3755   19.6192 C   0  0  0  0  0  0  0  0  0  0  0  0
    0.0502    6.6334   19.1690 C   0  0  0  0  0  0  0  0  0  0  0  0
    6.2244    7.0635   14.8684 N   0  0  0  0  0  0  0  0  0  0  0  0
    6.5639    5.7793   15.4855 C   0  0  0  0  0  0  0  0  0  0  0  0
    7.4244    7.7586   14.3875 C   0  0  0  0  0  0  0  0  0  0  0  0
    8.3365    8.1778   15.5503 C   0  0  0  0  0  0  0  0  0  0  0  0
    7.8251    5.8839   16.3489 C   0  0  0  0  0  0  0  0  0  0  0  0
    8.0717    7.3188   16.7684 C   0  0  0  0  0  0  0  0  0  0  0  0
    3.8388    5.9781   16.1443 C   0  0  0  0  0  0  0  0  0  0  0  0
    4.0391    5.0225   16.8907 O   0  0  0  0  0  0  0  0  0  0  0  0
    3.1456    5.7844   14.9735 O   0  0  0  0  0  0  0  0  0  0  0  0
    4.5106    5.1442   17.6913 H   0  0  0  0  0  0  0  0  0  0  0  0
 26 24  2  0  0  0
 25 24  1  0  0  0
 19 22  1  0  0  0
 19 18  1  0  0  0
 22 23  1  0  0  0
 24  3  1  0  0  0
 18 20  1  0  0  0
 18  2  1  0  0  0
 20 21  1  0  0  0
 23 21  1  0  0  0
  3  2  2  0  0  0
  3  4  1  0  0  0
 15 17  2  0  0  0
 15 14  1  0  0  0
 17 16  1  0  0  0
  2  1  1  0  0  0
 14 12  2  0  0  0
 16 13  2  0  0  0
 12 13  1  0  0  0
 12  4  1  0  0  0
  4  6  2  0  0  0
  1  5  2  0  0  0
  6  5  1  0  0  0
  6  7  1  0  0  0
  5 10  1  0  0  0
  7  8  2  0  0  0
 10  9  2  0  0  0
  8  9  1  0  0  0
  8 11  1  0  0  0
 25 27  1  0  0  0
M  END
> <minimizedAffinity>
-7.02017

$$$$
