3P3G_3P3_A_401


 31 32  0  0  0  0  0  0  0  0999 V2000
   32.1363   -8.9530  -13.5311 C   0  0  0  0  0  0  0  0  0  0  0  0
   31.6253   -9.7987  -14.5518 C   0  0  0  0  0  0  0  0  0  0  0  0
   31.2264   -9.2537  -15.8556 C   0  0  0  0  0  0  0  0  0  0  0  0
   31.3944   -7.8806  -16.0922 C   0  0  0  0  0  0  0  0  0  0  0  0
   31.9156   -7.0214  -15.0589 C   0  0  0  0  0  0  0  0  0  0  0  0
   32.3116   -7.5573  -13.7614 C   0  0  0  0  0  0  0  0  0  0  0  0
   31.2425   -9.7725  -11.3907 N   0  0  0  0  0  0  0  0  0  0  0  0
   32.4182   -9.5685  -12.1921 C   0  0  0  0  0  0  0  0  0  0  0  0
   33.5397   -9.6852  -11.7110 O   0  0  0  0  0  0  0  0  0  0  0  0
   30.3579   -9.5604  -11.7672 H   0  0  0  0  0  0  0  0  0  0  0  0
   31.3354  -10.2819  -10.0462 C   0  0  0  0  0  0  0  0  0  0  0  0
   29.9335  -12.2328  -10.1813 O   0  0  0  0  0  0  0  0  0  0  0  0
   31.0866  -11.7687  -10.0589 C   0  0  0  0  0  0  0  0  0  0  0  0
   32.1233  -12.6921   -9.8227 N   0  0  0  0  0  0  0  0  0  0  0  0
   31.7714  -13.9625   -9.8009 O   0  0  0  0  0  0  0  0  0  0  0  0
   33.0548  -12.4062   -9.6823 H   0  0  0  0  0  0  0  0  0  0  0  0
   30.8172  -14.0365   -9.9588 H   0  0  0  0  0  0  0  0  0  0  0  0
   30.5600   -9.4479   -9.0202 C   0  0  0  0  0  0  0  0  0  0  0  0
   29.2708   -8.9030   -9.6672 C   0  0  0  0  0  0  0  0  0  0  0  0
   30.2459  -10.2917   -7.9068 O   0  0  0  0  0  0  0  0  0  0  0  0
   29.7150  -11.0443   -8.2111 H   0  0  0  0  0  0  0  0  0  0  0  0
   30.9998   -7.2774  -17.3123 C   0  0  0  0  0  0  0  0  0  0  0  0
   30.6580   -6.7472  -18.3179 C   0  0  0  0  0  0  0  0  0  0  0  0
   30.2494   -6.0867  -19.4430 C   0  0  0  0  0  0  0  0  0  0  0  0
   29.9106   -5.4707  -20.4061 C   0  0  0  0  0  0  0  0  0  0  0  0
   29.5162   -4.7081  -21.5373 C   0  0  0  0  0  0  0  0  0  0  0  0
   28.1774   -4.5188  -21.9019 C   0  0  0  0  0  0  0  0  0  0  0  0
   27.8671   -3.7490  -23.0250 C   0  0  0  0  0  0  0  0  0  0  0  0
   28.8794   -3.1392  -23.7700 C   0  0  0  0  0  0  0  0  0  0  0  0
   30.2052   -3.3190  -23.4027 C   0  0  0  0  0  0  0  0  0  0  0  0
   30.5166   -4.0931  -22.2876 C   0  0  0  0  0  0  0  0  0  0  0  0
 12 13  2  0  0  0
 13 14  1  0  0  0
 13 11  1  0  0  0
 14 15  1  0  0  0
 11  7  1  0  0  0
 11 18  1  0  0  0
  7  8  1  0  0  0
  8  9  2  0  0  0
  8  1  1  0  0  0
  1  2  2  0  0  0
  1  6  1  0  0  0
  2  3  1  0  0  0
  3  4  2  0  0  0
  4  5  1  0  0  0
  4 22  1  0  0  0
  5  6  2  0  0  0
 22 23  3  0  0  0
 23 24  1  0  0  0
 24 25  3  0  0  0
 25 26  1  0  0  0
 26 27  2  0  0  0
 26 31  1  0  0  0
 27 28  1  0  0  0
 28 29  2  0  0  0
 29 30  1  0  0  0
 30 31  2  0  0  0
 18 19  1  0  0  0
 18 20  1  0  0  0
 14 16  1  0  0  0
 15 17  1  0  0  0
  7 10  1  0  0  0
 20 21  1  0  0  0
M  END
> <minimizedAffinity>
-10.38043

$$$$
3P3G_3P3_A_401


 31 32  0  0  0  0  0  0  0  0999 V2000
   31.9734   -8.8354  -13.6399 C   0  0  0  0  0  0  0  0  0  0  0  0
   31.5407   -9.6794  -14.6976 C   0  0  0  0  0  0  0  0  0  0  0  0
   31.2008   -9.1266  -16.0148 C   0  0  0  0  0  0  0  0  0  0  0  0
   31.3472   -7.7468  -16.2250 C   0  0  0  0  0  0  0  0  0  0  0  0
   31.7891   -6.8892  -15.1541 C   0  0  0  0  0  0  0  0  0  0  0  0
   32.1263   -7.4328  -13.8432 C   0  0  0  0  0  0  0  0  0  0  0  0
   31.0133   -9.5189  -11.4805 N   0  0  0  0  0  0  0  0  0  0  0  0
   32.1964   -9.4619  -12.2950 C   0  0  0  0  0  0  0  0  0  0  0  0
   33.3019   -9.7007  -11.8220 O   0  0  0  0  0  0  0  0  0  0  0  0
   30.1551   -9.2112  -11.8523 H   0  0  0  0  0  0  0  0  0  0  0  0
   31.0608  -10.0181  -10.1300 C   0  0  0  0  0  0  0  0  0  0  0  0
   29.8625  -12.1002  -10.2669 O   0  0  0  0  0  0  0  0  0  0  0  0
   30.9638  -11.5224  -10.1516 C   0  0  0  0  0  0  0  0  0  0  0  0
   32.0911  -12.3375   -9.9320 N   0  0  0  0  0  0  0  0  0  0  0  0
   31.8700  -13.6371   -9.9166 O   0  0  0  0  0  0  0  0  0  0  0  0
   32.9902  -11.9595   -9.7980 H   0  0  0  0  0  0  0  0  0  0  0  0
   30.9267  -13.8064  -10.0662 H   0  0  0  0  0  0  0  0  0  0  0  0
   30.1346   -9.2676   -9.1664 C   0  0  0  0  0  0  0  0  0  0  0  0
   30.5679   -7.7902   -9.0806 C   0  0  0  0  0  0  0  0  0  0  0  0
   28.7961   -9.3708   -9.6645 O   0  0  0  0  0  0  0  0  0  0  0  0
   28.7517   -8.9870  -10.5543 H   0  0  0  0  0  0  0  0  0  0  0  0
   31.0056   -7.1369  -17.4577 C   0  0  0  0  0  0  0  0  0  0  0  0
   30.7027   -6.6040  -18.4743 C   0  0  0  0  0  0  0  0  0  0  0  0
   30.3283   -5.9449  -19.6121 C   0  0  0  0  0  0  0  0  0  0  0  0
   30.0172   -5.3299  -20.5850 C   0  0  0  0  0  0  0  0  0  0  0  0
   29.6542   -4.5682  -21.7274 C   0  0  0  0  0  0  0  0  0  0  0  0
   30.5923   -3.9447  -22.5593 C   0  0  0  0  0  0  0  0  0  0  0  0
   30.1587   -3.2177  -23.6700 C   0  0  0  0  0  0  0  0  0  0  0  0
   28.7985   -3.1334  -23.9770 C   0  0  0  0  0  0  0  0  0  0  0  0
   27.8699   -3.7595  -23.1579 C   0  0  0  0  0  0  0  0  0  0  0  0
   28.3004   -4.4781  -22.0452 C   0  0  0  0  0  0  0  0  0  0  0  0
 12 13  2  0  0  0
 13 14  1  0  0  0
 13 11  1  0  0  0
 14 15  1  0  0  0
 11  7  1  0  0  0
 11 18  1  0  0  0
  7  8  1  0  0  0
  8  9  2  0  0  0
  8  1  1  0  0  0
  1  2  2  0  0  0
  1  6  1  0  0  0
  2  3  1  0  0  0
  3  4  2  0  0  0
  4  5  1  0  0  0
  4 22  1  0  0  0
  5  6  2  0  0  0
 22 23  3  0  0  0
 23 24  1  0  0  0
 24 25  3  0  0  0
 25 26  1  0  0  0
 26 27  2  0  0  0
 26 31  1  0  0  0
 27 28  1  0  0  0
 28 29  2  0  0  0
 29 30  1  0  0  0
 30 31  2  0  0  0
 18 19  1  0  0  0
 18 20  1  0  0  0
 14 16  1  0  0  0
 15 17  1  0  0  0
  7 10  1  0  0  0
 20 21  1  0  0  0
M  END
> <minimizedAffinity>
-10.18544

$$$$
3P3G_3P3_A_401


 31 32  0  0  0  0  0  0  0  0999 V2000
   32.0560   -9.0291  -14.1604 C   0  0  0  0  0  0  0  0  0  0  0  0
   32.0476   -7.6094  -14.2095 C   0  0  0  0  0  0  0  0  0  0  0  0
   31.6184   -6.8974  -15.4199 C   0  0  0  0  0  0  0  0  0  0  0  0
   31.1777   -7.6465  -16.5219 C   0  0  0  0  0  0  0  0  0  0  0  0
   31.1824   -9.0870  -16.4729 C   0  0  0  0  0  0  0  0  0  0  0  0
   31.6096   -9.7991  -15.2738 C   0  0  0  0  0  0  0  0  0  0  0  0
   31.6546   -9.8107  -11.8626 N   0  0  0  0  0  0  0  0  0  0  0  0
   32.6108   -9.6807  -12.9280 C   0  0  0  0  0  0  0  0  0  0  0  0
   33.8043   -9.8834  -12.7350 O   0  0  0  0  0  0  0  0  0  0  0  0
   30.7226   -9.5310  -12.0126 H   0  0  0  0  0  0  0  0  0  0  0  0
   32.0357  -10.3430  -10.5792 C   0  0  0  0  0  0  0  0  0  0  0  0
   30.8439  -12.4305  -10.4690 O   0  0  0  0  0  0  0  0  0  0  0  0
   30.9435  -11.2503  -10.0724 C   0  0  0  0  0  0  0  0  0  0  0  0
   29.9275  -10.7767   -9.2199 N   0  0  0  0  0  0  0  0  0  0  0  0
   28.9957  -11.6496   -8.8914 O   0  0  0  0  0  0  0  0  0  0  0  0
   29.9139   -9.8496   -8.8892 H   0  0  0  0  0  0  0  0  0  0  0  0
   29.1861  -12.5009   -9.3156 H   0  0  0  0  0  0  0  0  0  0  0  0
   32.5747   -9.2831   -9.6119 C   0  0  0  0  0  0  0  0  0  0  0  0
   31.8408   -7.9479   -9.8492 C   0  0  0  0  0  0  0  0  0  0  0  0
   32.3544   -9.7473   -8.2753 O   0  0  0  0  0  0  0  0  0  0  0  0
   31.4054   -9.8909   -8.1352 H   0  0  0  0  0  0  0  0  0  0  0  0
   30.7819   -7.0308  -17.7354 C   0  0  0  0  0  0  0  0  0  0  0  0
   30.4518   -6.4867  -18.7374 C   0  0  0  0  0  0  0  0  0  0  0  0
   30.0815   -5.8058  -19.8637 C   0  0  0  0  0  0  0  0  0  0  0  0
   29.8007   -5.1907  -20.8457 C   0  0  0  0  0  0  0  0  0  0  0  0
   29.4952   -4.4400  -22.0120 C   0  0  0  0  0  0  0  0  0  0  0  0
   28.1884   -4.2514  -22.4784 C   0  0  0  0  0  0  0  0  0  0  0  0
   27.9661   -3.4938  -23.6302 C   0  0  0  0  0  0  0  0  0  0  0  0
   29.0337   -2.8952  -24.3037 C   0  0  0  0  0  0  0  0  0  0  0  0
   30.3275   -3.0742  -23.8357 C   0  0  0  0  0  0  0  0  0  0  0  0
   30.5514   -3.8363  -22.6917 C   0  0  0  0  0  0  0  0  0  0  0  0
 12 13  2  0  0  0
 13 14  1  0  0  0
 13 11  1  0  0  0
 14 15  1  0  0  0
 11  7  1  0  0  0
 11 18  1  0  0  0
  7  8  1  0  0  0
  8  9  2  0  0  0
  8  1  1  0  0  0
  1  2  2  0  0  0
  1  6  1  0  0  0
  2  3  1  0  0  0
  3  4  2  0  0  0
  4  5  1  0  0  0
  4 22  1  0  0  0
  5  6  2  0  0  0
 22 23  3  0  0  0
 23 24  1  0  0  0
 24 25  3  0  0  0
 25 26  1  0  0  0
 26 27  2  0  0  0
 26 31  1  0  0  0
 27 28  1  0  0  0
 28 29  2  0  0  0
 29 30  1  0  0  0
 30 31  2  0  0  0
 18 19  1  0  0  0
 18 20  1  0  0  0
 14 16  1  0  0  0
 15 17  1  0  0  0
  7 10  1  0  0  0
 20 21  1  0  0  0
M  END
> <minimizedAffinity>
-9.31152

$$$$
3P3G_3P3_A_401


 31 32  0  0  0  0  0  0  0  0999 V2000
   31.5721   -8.8101  -13.8695 C   0  0  0  0  0  0  0  0  0  0  0  0
   31.3698   -7.4048  -13.9145 C   0  0  0  0  0  0  0  0  0  0  0  0
   31.0433   -6.7282  -15.1761 C   0  0  0  0  0  0  0  0  0  0  0  0
   30.8960   -7.5021  -16.3376 C   0  0  0  0  0  0  0  0  0  0  0  0
   31.0977   -8.9286  -16.2933 C   0  0  0  0  0  0  0  0  0  0  0  0
   31.4240   -9.6054  -15.0432 C   0  0  0  0  0  0  0  0  0  0  0  0
   30.9622   -9.4836  -11.5833 N   0  0  0  0  0  0  0  0  0  0  0  0
   32.0092   -9.4101  -12.5655 C   0  0  0  0  0  0  0  0  0  0  0  0
   33.1787   -9.6141  -12.2599 O   0  0  0  0  0  0  0  0  0  0  0  0
   30.0505   -9.2031  -11.8267 H   0  0  0  0  0  0  0  0  0  0  0  0
   31.2233   -9.9606  -10.2492 C   0  0  0  0  0  0  0  0  0  0  0  0
   31.3666   -7.8305   -9.1393 O   0  0  0  0  0  0  0  0  0  0  0  0
   31.9417   -8.8890   -9.4692 C   0  0  0  0  0  0  0  0  0  0  0  0
   33.3159   -8.9853   -9.1768 N   0  0  0  0  0  0  0  0  0  0  0  0
   33.8444   -7.9589   -8.5402 O   0  0  0  0  0  0  0  0  0  0  0  0
   33.8499   -9.7719   -9.4325 H   0  0  0  0  0  0  0  0  0  0  0  0
   33.1598   -7.2906   -8.3800 H   0  0  0  0  0  0  0  0  0  0  0  0
   31.8132  -11.3748  -10.2087 C   0  0  0  0  0  0  0  0  0  0  0  0
   31.4370  -12.0522   -8.8755 C   0  0  0  0  0  0  0  0  0  0  0  0
   31.2801  -12.1113  -11.3148 O   0  0  0  0  0  0  0  0  0  0  0  0
   30.3128  -12.1394  -11.2484 H   0  0  0  0  0  0  0  0  0  0  0  0
   30.6164   -6.9160  -17.5972 C   0  0  0  0  0  0  0  0  0  0  0  0
   30.3883   -6.3964  -18.6398 C   0  0  0  0  0  0  0  0  0  0  0  0
   30.1447   -5.7443  -19.8165 C   0  0  0  0  0  0  0  0  0  0  0  0
   29.8906   -5.1620  -20.8254 C   0  0  0  0  0  0  0  0  0  0  0  0
   29.5562   -4.4624  -22.0153 C   0  0  0  0  0  0  0  0  0  0  0  0
   28.2399   -4.3121  -22.4688 C   0  0  0  0  0  0  0  0  0  0  0  0
   27.9889   -3.6037  -23.6458 C   0  0  0  0  0  0  0  0  0  0  0  0
   29.0369   -3.0159  -24.3583 C   0  0  0  0  0  0  0  0  0  0  0  0
   30.3401   -3.1568  -23.9034 C   0  0  0  0  0  0  0  0  0  0  0  0
   30.5927   -3.8699  -22.7341 C   0  0  0  0  0  0  0  0  0  0  0  0
 12 13  2  0  0  0
 13 14  1  0  0  0
 13 11  1  0  0  0
 14 15  1  0  0  0
 11  7  1  0  0  0
 11 18  1  0  0  0
  7  8  1  0  0  0
  8  9  2  0  0  0
  8  1  1  0  0  0
  1  2  2  0  0  0
  1  6  1  0  0  0
  2  3  1  0  0  0
  3  4  2  0  0  0
  4  5  1  0  0  0
  4 22  1  0  0  0
  5  6  2  0  0  0
 22 23  3  0  0  0
 23 24  1  0  0  0
 24 25  3  0  0  0
 25 26  1  0  0  0
 26 27  2  0  0  0
 26 31  1  0  0  0
 27 28  1  0  0  0
 28 29  2  0  0  0
 29 30  1  0  0  0
 30 31  2  0  0  0
 18 19  1  0  0  0
 18 20  1  0  0  0
 14 16  1  0  0  0
 15 17  1  0  0  0
  7 10  1  0  0  0
 20 21  1  0  0  0
M  END
> <minimizedAffinity>
-8.04340

$$$$
