2QWF_G20_A_800


 30 30  0  0  0  0  0  0  0  0999 V2000
   24.4961   18.7657   64.3385 C   0  0  0  0  0  0  0  0  0  0  0  0
   24.0093   17.6151   63.9681 C   0  0  0  0  0  0  0  0  0  0  0  0
   24.6302   16.6981   62.8191 C   0  0  0  0  0  0  0  0  0  0  0  0
   26.0248   16.8097   62.8161 C   0  0  0  0  0  0  0  0  0  0  0  0
   26.3550   18.2877   62.9492 C   0  0  0  0  0  0  0  0  0  0  0  0
   25.8102   18.8013   64.1283 O   0  0  0  0  0  0  0  0  0  0  0  0
   26.6364   16.1606   61.6805 N   0  0  0  0  0  0  0  0  0  0  0  0
   27.1335   14.9321   61.7885 C   0  0  0  0  0  0  0  0  0  0  0  0
   27.1229   14.2949   62.8433 O   0  0  0  0  0  0  0  0  0  0  0  0
   27.6281   14.3286   60.4840 C   0  0  0  0  0  0  0  0  0  0  0  0
   26.6859   16.6323   60.8178 H   0  0  0  0  0  0  0  0  0  0  0  0
   23.7089   19.6955   65.0494 C   0  0  0  0  0  0  0  0  0  0  0  0
   24.3693   20.4885   65.7400 O   0  0  0  0  0  0  0  0  0  0  0  0
   22.4625   19.7966   64.9156 O   0  0  0  0  0  0  0  0  0  0  0  0
   21.9966   19.1796   64.3863 H   0  0  0  0  0  0  0  0  0  0  0  0
   27.8575   18.2791   63.0715 C   0  0  0  0  0  0  0  0  0  0  0  0
   28.3816   17.7331   64.0507 O   0  0  0  0  0  0  0  0  0  0  0  0
   28.5796   18.7944   62.0612 N   0  0  0  0  0  0  0  0  0  0  0  0
   28.1117   19.3997   60.8021 C   0  0  0  0  0  0  0  0  0  0  0  0
   30.0483   18.6930   62.2570 C   0  0  0  0  0  0  0  0  0  0  0  0
   30.5734   17.2528   62.0252 C   0  0  0  0  0  0  0  0  0  0  0  0
   32.0284   17.0818   62.3909 C   0  0  0  0  0  0  0  0  0  0  0  0
   24.2364   15.2645   62.8436 N   0  0  0  0  0  0  0  0  0  0  0  0
   24.3864   14.8256   63.7120 H   0  0  0  0  0  0  0  0  0  0  0  0
   23.6941   14.4204   61.8701 C   0  0  0  0  0  0  0  0  0  0  0  0
   23.1240   13.2771   62.2339 N   0  0  0  0  0  0  0  0  0  0  0  0
   23.6584   14.8004   60.5852 N   0  0  0  0  0  0  0  0  0  0  0  0
   23.1474   12.9935   63.1763 H   0  0  0  0  0  0  0  0  0  0  0  0
   24.0794   15.6468   60.3103 H   0  0  0  0  0  0  0  0  0  0  0  0
   23.2113   14.2330   59.9163 H   0  0  0  0  0  0  0  0  0  0  0  0
 12 13  2  0  0  0
 12 14  1  0  0  0
 12  1  1  0  0  0
  1  2  2  0  0  0
  1  6  1  0  0  0
  2  3  1  0  0  0
  3  4  1  0  0  0
  3 23  1  0  0  0
  4  7  1  0  0  0
  4  5  1  0  0  0
  7  8  1  0  0  0
  8  9  2  0  0  0
  8 10  1  0  0  0
  5  6  1  0  0  0
  5 16  1  0  0  0
 16 17  2  0  0  0
 16 18  1  0  0  0
 18 19  1  0  0  0
 18 20  1  0  0  0
 20 21  1  0  0  0
 21 22  1  0  0  0
 23 25  1  0  0  0
 25 26  2  0  0  0
 25 27  1  0  0  0
 14 15  1  0  0  0
  7 11  1  0  0  0
 23 24  1  0  0  0
 26 28  1  0  0  0
 27 29  1  0  0  0
 27 30  1  0  0  0
M  END
> <minimizedAffinity>
-7.98162

$$$$
2QWF_G20_A_800


 30 30  0  0  0  0  0  0  0  0999 V2000
   25.8783   20.2689   63.7074 C   0  0  0  0  0  0  0  0  0  0  0  0
   27.0817   20.5901   64.0902 C   0  0  0  0  0  0  0  0  0  0  0  0
   28.3521   19.6305   63.9804 C   0  0  0  0  0  0  0  0  0  0  0  0
   28.2592   18.8399   62.8298 C   0  0  0  0  0  0  0  0  0  0  0  0
   26.8330   18.3180   62.7603 C   0  0  0  0  0  0  0  0  0  0  0  0
   25.9295   19.3822   62.7156 O   0  0  0  0  0  0  0  0  0  0  0  0
   29.2742   17.8147   62.7710 N   0  0  0  0  0  0  0  0  0  0  0  0
   30.3744   17.9909   62.0452 C   0  0  0  0  0  0  0  0  0  0  0  0
   30.5814   19.0055   61.3770 O   0  0  0  0  0  0  0  0  0  0  0  0
   31.4097   16.8862   62.1801 C   0  0  0  0  0  0  0  0  0  0  0  0
   29.1506   16.9770   63.2732 H   0  0  0  0  0  0  0  0  0  0  0  0
   24.7506   20.9708   64.1820 C   0  0  0  0  0  0  0  0  0  0  0  0
   24.5968   22.0865   63.6590 O   0  0  0  0  0  0  0  0  0  0  0  0
   23.9082   20.4776   64.9748 O   0  0  0  0  0  0  0  0  0  0  0  0
   24.0575   19.6324   65.3507 H   0  0  0  0  0  0  0  0  0  0  0  0
   26.8086   17.6038   61.4330 C   0  0  0  0  0  0  0  0  0  0  0  0
   27.4255   18.0867   60.4749 O   0  0  0  0  0  0  0  0  0  0  0  0
   26.1832   16.4158   61.3627 N   0  0  0  0  0  0  0  0  0  0  0  0
   25.4804   15.6742   62.4242 C   0  0  0  0  0  0  0  0  0  0  0  0
   26.2588   15.7727   60.0262 C   0  0  0  0  0  0  0  0  0  0  0  0
   26.7947   14.3199   60.1032 C   0  0  0  0  0  0  0  0  0  0  0  0
   28.1660   14.2217   60.7278 C   0  0  0  0  0  0  0  0  0  0  0  0
   29.6802   20.2971   64.0316 N   0  0  0  0  0  0  0  0  0  0  0  0
   30.1032   20.4095   63.1497 H   0  0  0  0  0  0  0  0  0  0  0  0
   30.4435   20.7947   65.0918 C   0  0  0  0  0  0  0  0  0  0  0  0
   30.2963   22.0588   65.4722 N   0  0  0  0  0  0  0  0  0  0  0  0
   31.2499   19.9816   65.7884 N   0  0  0  0  0  0  0  0  0  0  0  0
   29.7052   22.6601   64.9641 H   0  0  0  0  0  0  0  0  0  0  0  0
   31.3625   19.0438   65.5107 H   0  0  0  0  0  0  0  0  0  0  0  0
   31.7297   20.3222   66.5778 H   0  0  0  0  0  0  0  0  0  0  0  0
 12 13  2  0  0  0
 12 14  1  0  0  0
 12  1  1  0  0  0
  1  2  2  0  0  0
  1  6  1  0  0  0
  2  3  1  0  0  0
  3  4  1  0  0  0
  3 23  1  0  0  0
  4  7  1  0  0  0
  4  5  1  0  0  0
  7  8  1  0  0  0
  8  9  2  0  0  0
  8 10  1  0  0  0
  5  6  1  0  0  0
  5 16  1  0  0  0
 16 17  2  0  0  0
 16 18  1  0  0  0
 18 19  1  0  0  0
 18 20  1  0  0  0
 20 21  1  0  0  0
 21 22  1  0  0  0
 23 25  1  0  0  0
 25 26  2  0  0  0
 25 27  1  0  0  0
 14 15  1  0  0  0
  7 11  1  0  0  0
 23 24  1  0  0  0
 26 28  1  0  0  0
 27 29  1  0  0  0
 27 30  1  0  0  0
M  END
> <minimizedAffinity>
-7.53552

$$$$
2QWF_G20_A_800


 30 30  0  0  0  0  0  0  0  0999 V2000
   24.4661   18.6316   65.6549 C   0  0  0  0  0  0  0  0  0  0  0  0
   25.3678   19.5722   65.6708 C   0  0  0  0  0  0  0  0  0  0  0  0
   26.7429   19.5207   64.8626 C   0  0  0  0  0  0  0  0  0  0  0  0
   26.5589   18.8605   63.6429 C   0  0  0  0  0  0  0  0  0  0  0  0
   25.7321   17.6170   63.9281 C   0  0  0  0  0  0  0  0  0  0  0  0
   24.5079   17.9702   64.5003 O   0  0  0  0  0  0  0  0  0  0  0  0
   27.8002   18.6069   62.9503 N   0  0  0  0  0  0  0  0  0  0  0  0
   28.0543   19.1857   61.7804 C   0  0  0  0  0  0  0  0  0  0  0  0
   27.2573   19.9388   61.2180 O   0  0  0  0  0  0  0  0  0  0  0  0
   29.4485   18.9284   61.2323 C   0  0  0  0  0  0  0  0  0  0  0  0
   28.4651   17.9995   63.3481 H   0  0  0  0  0  0  0  0  0  0  0  0
   23.4885   18.5417   66.6677 C   0  0  0  0  0  0  0  0  0  0  0  0
   22.8521   19.5930   66.8462 O   0  0  0  0  0  0  0  0  0  0  0  0
   23.1999   17.4716   67.2619 O   0  0  0  0  0  0  0  0  0  0  0  0
   23.7025   16.6970   67.1024 H   0  0  0  0  0  0  0  0  0  0  0  0
   25.4821   17.0648   62.5479 C   0  0  0  0  0  0  0  0  0  0  0  0
   24.8006   17.7194   61.7488 O   0  0  0  0  0  0  0  0  0  0  0  0
   26.0848   15.9125   62.2064 N   0  0  0  0  0  0  0  0  0  0  0  0
   26.9842   15.0641   63.0076 C   0  0  0  0  0  0  0  0  0  0  0  0
   25.8137   15.4806   60.8115 C   0  0  0  0  0  0  0  0  0  0  0  0
   27.0129   15.7556   59.8682 C   0  0  0  0  0  0  0  0  0  0  0  0
   26.7696   16.8973   58.9104 C   0  0  0  0  0  0  0  0  0  0  0  0
   27.4161   20.8268   64.6356 N   0  0  0  0  0  0  0  0  0  0  0  0
   28.1769   20.7793   64.0125 H   0  0  0  0  0  0  0  0  0  0  0  0
   27.1760   22.1094   65.1373 C   0  0  0  0  0  0  0  0  0  0  0  0
   26.5240   22.9957   64.3932 N   0  0  0  0  0  0  0  0  0  0  0  0
   27.5123   22.4199   66.3971 N   0  0  0  0  0  0  0  0  0  0  0  0
   26.2746   22.7727   63.4673 H   0  0  0  0  0  0  0  0  0  0  0  0
   27.9957   21.7665   66.9528 H   0  0  0  0  0  0  0  0  0  0  0  0
   27.2761   23.3012   66.7668 H   0  0  0  0  0  0  0  0  0  0  0  0
 12 13  2  0  0  0
 12 14  1  0  0  0
 12  1  1  0  0  0
  1  2  2  0  0  0
  1  6  1  0  0  0
  2  3  1  0  0  0
  3  4  1  0  0  0
  3 23  1  0  0  0
  4  7  1  0  0  0
  4  5  1  0  0  0
  7  8  1  0  0  0
  8  9  2  0  0  0
  8 10  1  0  0  0
  5  6  1  0  0  0
  5 16  1  0  0  0
 16 17  2  0  0  0
 16 18  1  0  0  0
 18 19  1  0  0  0
 18 20  1  0  0  0
 20 21  1  0  0  0
 21 22  1  0  0  0
 23 25  1  0  0  0
 25 26  2  0  0  0
 25 27  1  0  0  0
 14 15  1  0  0  0
  7 11  1  0  0  0
 23 24  1  0  0  0
 26 28  1  0  0  0
 27 29  1  0  0  0
 27 30  1  0  0  0
M  END
> <minimizedAffinity>
-7.44342

$$$$
2QWF_G20_A_800


 30 30  0  0  0  0  0  0  0  0999 V2000
   26.6374   21.1150   64.6712 C   0  0  0  0  0  0  0  0  0  0  0  0
   25.6702   20.2904   64.3841 C   0  0  0  0  0  0  0  0  0  0  0  0
   25.8329   18.9851   63.4806 C   0  0  0  0  0  0  0  0  0  0  0  0
   27.0933   18.4132   63.6849 C   0  0  0  0  0  0  0  0  0  0  0  0
   28.1059   19.5471   63.6715 C   0  0  0  0  0  0  0  0  0  0  0  0
   27.8055   20.4764   64.6700 O   0  0  0  0  0  0  0  0  0  0  0  0
   27.3806   17.3445   62.7574 N   0  0  0  0  0  0  0  0  0  0  0  0
   27.4492   16.0841   63.1757 C   0  0  0  0  0  0  0  0  0  0  0  0
   27.2971   15.7599   64.3549 O   0  0  0  0  0  0  0  0  0  0  0  0
   27.6305   15.0558   62.0711 C   0  0  0  0  0  0  0  0  0  0  0  0
   27.5271   17.5509   61.8061 H   0  0  0  0  0  0  0  0  0  0  0  0
   26.3694   22.4259   65.1179 C   0  0  0  0  0  0  0  0  0  0  0  0
   25.6804   22.4737   66.1499 O   0  0  0  0  0  0  0  0  0  0  0  0
   26.8708   23.4541   64.5955 O   0  0  0  0  0  0  0  0  0  0  0  0
   27.3856   23.3800   63.8161 H   0  0  0  0  0  0  0  0  0  0  0  0
   29.3904   18.8451   64.0314 C   0  0  0  0  0  0  0  0  0  0  0  0
   29.5272   18.3806   65.1703 O   0  0  0  0  0  0  0  0  0  0  0  0
   30.3120   18.6740   63.0676 N   0  0  0  0  0  0  0  0  0  0  0  0
   30.2642   19.0905   61.6552 C   0  0  0  0  0  0  0  0  0  0  0  0
   31.5176   17.9289   63.5116 C   0  0  0  0  0  0  0  0  0  0  0  0
   32.1736   17.1312   62.3553 C   0  0  0  0  0  0  0  0  0  0  0  0
   33.6820   17.1148   62.4219 C   0  0  0  0  0  0  0  0  0  0  0  0
   24.7761   17.9502   63.6322 N   0  0  0  0  0  0  0  0  0  0  0  0
   24.4845   17.8127   64.5624 H   0  0  0  0  0  0  0  0  0  0  0  0
   24.1171   17.1350   62.7072 C   0  0  0  0  0  0  0  0  0  0  0  0
   24.4206   17.2249   61.4172 N   0  0  0  0  0  0  0  0  0  0  0  0
   23.2534   16.1977   63.1221 N   0  0  0  0  0  0  0  0  0  0  0  0
   25.0544   17.9115   61.1073 H   0  0  0  0  0  0  0  0  0  0  0  0
   23.0251   16.1269   64.0771 H   0  0  0  0  0  0  0  0  0  0  0  0
   22.8474   15.5801   62.4718 H   0  0  0  0  0  0  0  0  0  0  0  0
 12 13  2  0  0  0
 12 14  1  0  0  0
 12  1  1  0  0  0
  1  2  2  0  0  0
  1  6  1  0  0  0
  2  3  1  0  0  0
  3  4  1  0  0  0
  3 23  1  0  0  0
  4  7  1  0  0  0
  4  5  1  0  0  0
  7  8  1  0  0  0
  8  9  2  0  0  0
  8 10  1  0  0  0
  5  6  1  0  0  0
  5 16  1  0  0  0
 16 17  2  0  0  0
 16 18  1  0  0  0
 18 19  1  0  0  0
 18 20  1  0  0  0
 20 21  1  0  0  0
 21 22  1  0  0  0
 23 25  1  0  0  0
 25 26  2  0  0  0
 25 27  1  0  0  0
 14 15  1  0  0  0
  7 11  1  0  0  0
 23 24  1  0  0  0
 26 28  1  0  0  0
 27 29  1  0  0  0
 27 30  1  0  0  0
M  END
> <minimizedAffinity>
-7.41553

$$$$
2QWF_G20_A_800


 30 30  0  0  0  0  0  0  0  0999 V2000
   27.0963   17.1562   59.2645 C   0  0  0  0  0  0  0  0  0  0  0  0
   26.6796   16.1738   60.0124 C   0  0  0  0  0  0  0  0  0  0  0  0
   27.1887   15.8891   61.4978 C   0  0  0  0  0  0  0  0  0  0  0  0
   27.4564   17.0956   62.1536 C   0  0  0  0  0  0  0  0  0  0  0  0
   28.2277   17.9720   61.1798 C   0  0  0  0  0  0  0  0  0  0  0  0
   27.4782   18.1834   60.0204 O   0  0  0  0  0  0  0  0  0  0  0  0
   28.1040   16.9076   63.4304 N   0  0  0  0  0  0  0  0  0  0  0  0
   27.4307   17.0804   64.5639 C   0  0  0  0  0  0  0  0  0  0  0  0
   26.2477   17.4241   64.5953 O   0  0  0  0  0  0  0  0  0  0  0  0
   28.2030   16.7237   65.8237 C   0  0  0  0  0  0  0  0  0  0  0  0
   29.0534   16.6489   63.4619 H   0  0  0  0  0  0  0  0  0  0  0  0
   26.9268   17.1292   57.8644 C   0  0  0  0  0  0  0  0  0  0  0  0
   27.4225   18.1060   57.2796 O   0  0  0  0  0  0  0  0  0  0  0  0
   26.4245   16.1575   57.2439 O   0  0  0  0  0  0  0  0  0  0  0  0
   26.0592   15.4369   57.7186 H   0  0  0  0  0  0  0  0  0  0  0  0
   28.3414   19.2749   61.9293 C   0  0  0  0  0  0  0  0  0  0  0  0
   27.3105   19.8647   62.2770 O   0  0  0  0  0  0  0  0  0  0  0  0
   29.5685   19.7070   62.2688 N   0  0  0  0  0  0  0  0  0  0  0  0
   30.8768   19.0832   62.0044 C   0  0  0  0  0  0  0  0  0  0  0  0
   29.5684   20.9725   63.0462 C   0  0  0  0  0  0  0  0  0  0  0  0
   29.9201   20.7444   64.5388 C   0  0  0  0  0  0  0  0  0  0  0  0
   28.7067   20.6822   65.4354 C   0  0  0  0  0  0  0  0  0  0  0  0
   26.3048   15.0399   62.3394 N   0  0  0  0  0  0  0  0  0  0  0  0
   26.7909   14.4741   62.9819 H   0  0  0  0  0  0  0  0  0  0  0  0
   24.9158   14.8907   62.3932 C   0  0  0  0  0  0  0  0  0  0  0  0
   24.1588   15.9112   62.7803 N   0  0  0  0  0  0  0  0  0  0  0  0
   24.3371   13.7599   61.9655 N   0  0  0  0  0  0  0  0  0  0  0  0
   24.5789   16.7440   63.0953 H   0  0  0  0  0  0  0  0  0  0  0  0
   24.8936   13.0005   61.6775 H   0  0  0  0  0  0  0  0  0  0  0  0
   23.3555   13.6886   61.9393 H   0  0  0  0  0  0  0  0  0  0  0  0
 12 13  2  0  0  0
 12 14  1  0  0  0
 12  1  1  0  0  0
  1  2  2  0  0  0
  1  6  1  0  0  0
  2  3  1  0  0  0
  3  4  1  0  0  0
  3 23  1  0  0  0
  4  7  1  0  0  0
  4  5  1  0  0  0
  7  8  1  0  0  0
  8  9  2  0  0  0
  8 10  1  0  0  0
  5  6  1  0  0  0
  5 16  1  0  0  0
 16 17  2  0  0  0
 16 18  1  0  0  0
 18 19  1  0  0  0
 18 20  1  0  0  0
 20 21  1  0  0  0
 21 22  1  0  0  0
 23 25  1  0  0  0
 25 26  2  0  0  0
 25 27  1  0  0  0
 14 15  1  0  0  0
  7 11  1  0  0  0
 23 24  1  0  0  0
 26 28  1  0  0  0
 27 29  1  0  0  0
 27 30  1  0  0  0
M  END
> <minimizedAffinity>
-7.41524

$$$$
2QWF_G20_A_800


 30 30  0  0  0  0  0  0  0  0999 V2000
   27.7252   19.0540   61.8761 C   0  0  0  0  0  0  0  0  0  0  0  0
   26.6286   18.3534   61.9442 C   0  0  0  0  0  0  0  0  0  0  0  0
   25.7841   18.1229   63.2785 C   0  0  0  0  0  0  0  0  0  0  0  0
   25.8406   19.2639   64.0861 C   0  0  0  0  0  0  0  0  0  0  0  0
   27.2888   19.7261   64.1058 C   0  0  0  0  0  0  0  0  0  0  0  0
   27.7260   20.0039   62.8087 O   0  0  0  0  0  0  0  0  0  0  0  0
   25.2623   19.0547   65.3926 N   0  0  0  0  0  0  0  0  0  0  0  0
   24.0670   19.5542   65.6927 C   0  0  0  0  0  0  0  0  0  0  0  0
   23.4043   20.2281   64.9019 O   0  0  0  0  0  0  0  0  0  0  0  0
   23.5307   19.1467   67.0553 C   0  0  0  0  0  0  0  0  0  0  0  0
   25.7578   18.5372   66.0678 H   0  0  0  0  0  0  0  0  0  0  0  0
   28.6246   18.8976   60.8007 C   0  0  0  0  0  0  0  0  0  0  0  0
   28.0761   18.6043   59.7259 O   0  0  0  0  0  0  0  0  0  0  0  0
   29.8554   19.1420   60.8831 O   0  0  0  0  0  0  0  0  0  0  0  0
   30.2353   19.3600   61.7114 H   0  0  0  0  0  0  0  0  0  0  0  0
   27.2112   21.0175   64.8795 C   0  0  0  0  0  0  0  0  0  0  0  0
   26.4465   21.9100   64.4917 O   0  0  0  0  0  0  0  0  0  0  0  0
   27.9179   21.1185   66.0188 N   0  0  0  0  0  0  0  0  0  0  0  0
   28.8010   20.1241   66.6528 C   0  0  0  0  0  0  0  0  0  0  0  0
   27.7344   22.4095   66.7297 C   0  0  0  0  0  0  0  0  0  0  0  0
   29.0493   22.9151   67.3771 C   0  0  0  0  0  0  0  0  0  0  0  0
   28.9387   23.1239   68.8685 C   0  0  0  0  0  0  0  0  0  0  0  0
   24.3699   17.7035   63.0918 N   0  0  0  0  0  0  0  0  0  0  0  0
   23.7282   18.2142   63.6364 H   0  0  0  0  0  0  0  0  0  0  0  0
   23.7766   16.7229   62.2912 C   0  0  0  0  0  0  0  0  0  0  0  0
   23.5184   16.9832   61.0145 N   0  0  0  0  0  0  0  0  0  0  0  0
   23.5560   15.4927   62.7755 N   0  0  0  0  0  0  0  0  0  0  0  0
   23.6787   17.8851   60.6539 H   0  0  0  0  0  0  0  0  0  0  0  0
   23.7457   15.2945   63.7210 H   0  0  0  0  0  0  0  0  0  0  0  0
   23.2043   14.7872   62.1857 H   0  0  0  0  0  0  0  0  0  0  0  0
 12 13  2  0  0  0
 12 14  1  0  0  0
 12  1  1  0  0  0
  1  2  2  0  0  0
  1  6  1  0  0  0
  2  3  1  0  0  0
  3  4  1  0  0  0
  3 23  1  0  0  0
  4  7  1  0  0  0
  4  5  1  0  0  0
  7  8  1  0  0  0
  8  9  2  0  0  0
  8 10  1  0  0  0
  5  6  1  0  0  0
  5 16  1  0  0  0
 16 17  2  0  0  0
 16 18  1  0  0  0
 18 19  1  0  0  0
 18 20  1  0  0  0
 20 21  1  0  0  0
 21 22  1  0  0  0
 23 25  1  0  0  0
 25 26  2  0  0  0
 25 27  1  0  0  0
 14 15  1  0  0  0
  7 11  1  0  0  0
 23 24  1  0  0  0
 26 28  1  0  0  0
 27 29  1  0  0  0
 27 30  1  0  0  0
M  END
> <minimizedAffinity>
-7.23593

$$$$
2QWF_G20_A_800


 30 30  0  0  0  0  0  0  0  0999 V2000
   25.6523   15.9013   61.4606 C   0  0  0  0  0  0  0  0  0  0  0  0
   24.9078   16.6580   62.2162 C   0  0  0  0  0  0  0  0  0  0  0  0
   25.4504   17.5285   63.4387 C   0  0  0  0  0  0  0  0  0  0  0  0
   26.7333   18.0090   63.1544 C   0  0  0  0  0  0  0  0  0  0  0  0
   27.5223   16.8528   62.5614 C   0  0  0  0  0  0  0  0  0  0  0  0
   26.8938   16.3789   61.4076 O   0  0  0  0  0  0  0  0  0  0  0  0
   27.3604   18.6392   64.2922 N   0  0  0  0  0  0  0  0  0  0  0  0
   27.4431   19.9639   64.3732 C   0  0  0  0  0  0  0  0  0  0  0  0
   27.0197   20.7170   63.4945 O   0  0  0  0  0  0  0  0  0  0  0  0
   28.0110   20.4873   65.6825 C   0  0  0  0  0  0  0  0  0  0  0  0
   27.7304   18.0826   65.0151 H   0  0  0  0  0  0  0  0  0  0  0  0
   25.0882   14.8717   60.6786 C   0  0  0  0  0  0  0  0  0  0  0  0
   25.9172   14.2470   59.9971 O   0  0  0  0  0  0  0  0  0  0  0  0
   23.8788   14.5331   60.7435 O   0  0  0  0  0  0  0  0  0  0  0  0
   23.2811   15.0286   61.2683 H   0  0  0  0  0  0  0  0  0  0  0  0
   28.8230   17.5078   62.1722 C   0  0  0  0  0  0  0  0  0  0  0  0
   28.8137   18.4246   61.3409 O   0  0  0  0  0  0  0  0  0  0  0  0
   29.9425   17.1256   62.8113 N   0  0  0  0  0  0  0  0  0  0  0  0
   30.1051   16.1173   63.8731 C   0  0  0  0  0  0  0  0  0  0  0  0
   31.1596   17.8650   62.3899 C   0  0  0  0  0  0  0  0  0  0  0  0
   32.4029   17.4767   63.2307 C   0  0  0  0  0  0  0  0  0  0  0  0
   33.5931   17.0820   62.3895 C   0  0  0  0  0  0  0  0  0  0  0  0
   24.5769   18.6469   63.8823 N   0  0  0  0  0  0  0  0  0  0  0  0
   24.4865   19.3684   63.2186 H   0  0  0  0  0  0  0  0  0  0  0  0
   23.8594   18.8704   65.0611 C   0  0  0  0  0  0  0  0  0  0  0  0
   22.9364   19.8249   65.0988 N   0  0  0  0  0  0  0  0  0  0  0  0
   24.0270   18.0670   66.1209 N   0  0  0  0  0  0  0  0  0  0  0  0
   22.8093   20.4176   64.3231 H   0  0  0  0  0  0  0  0  0  0  0  0
   24.7097   17.3580   66.0981 H   0  0  0  0  0  0  0  0  0  0  0  0
   23.4674   18.1859   66.9221 H   0  0  0  0  0  0  0  0  0  0  0  0
 12 13  2  0  0  0
 12 14  1  0  0  0
 12  1  1  0  0  0
  1  2  2  0  0  0
  1  6  1  0  0  0
  2  3  1  0  0  0
  3  4  1  0  0  0
  3 23  1  0  0  0
  4  7  1  0  0  0
  4  5  1  0  0  0
  7  8  1  0  0  0
  8  9  2  0  0  0
  8 10  1  0  0  0
  5  6  1  0  0  0
  5 16  1  0  0  0
 16 17  2  0  0  0
 16 18  1  0  0  0
 18 19  1  0  0  0
 18 20  1  0  0  0
 20 21  1  0  0  0
 21 22  1  0  0  0
 23 25  1  0  0  0
 25 26  2  0  0  0
 25 27  1  0  0  0
 14 15  1  0  0  0
  7 11  1  0  0  0
 23 24  1  0  0  0
 26 28  1  0  0  0
 27 29  1  0  0  0
 27 30  1  0  0  0
M  END
> <minimizedAffinity>
-7.23296

$$$$
2QWF_G20_A_800


 30 30  0  0  0  0  0  0  0  0999 V2000
   28.2369   19.8747   62.6379 C   0  0  0  0  0  0  0  0  0  0  0  0
   27.9454   19.1818   61.5735 C   0  0  0  0  0  0  0  0  0  0  0  0
   27.0843   17.8381   61.5769 C   0  0  0  0  0  0  0  0  0  0  0  0
   26.0936   17.9048   62.5625 C   0  0  0  0  0  0  0  0  0  0  0  0
   26.7486   18.4582   63.8178 C   0  0  0  0  0  0  0  0  0  0  0  0
   27.2935   19.7189   63.5641 O   0  0  0  0  0  0  0  0  0  0  0  0
   25.4056   16.6493   62.7511 N   0  0  0  0  0  0  0  0  0  0  0  0
   24.2623   16.4012   62.1192 C   0  0  0  0  0  0  0  0  0  0  0  0
   23.7208   17.2150   61.3687 O   0  0  0  0  0  0  0  0  0  0  0  0
   23.7204   14.9943   62.3126 C   0  0  0  0  0  0  0  0  0  0  0  0
   25.7869   15.9704   63.3535 H   0  0  0  0  0  0  0  0  0  0  0  0
   29.3041   20.7972   62.6375 C   0  0  0  0  0  0  0  0  0  0  0  0
   29.9190   20.8541   63.7148 O   0  0  0  0  0  0  0  0  0  0  0  0
   29.6798   21.4246   61.6144 O   0  0  0  0  0  0  0  0  0  0  0  0
   29.1906   21.3579   60.8180 H   0  0  0  0  0  0  0  0  0  0  0  0
   25.5798   18.6139   64.7571 C   0  0  0  0  0  0  0  0  0  0  0  0
   24.4466   18.7842   64.2896 O   0  0  0  0  0  0  0  0  0  0  0  0
   25.8023   18.4756   66.0758 N   0  0  0  0  0  0  0  0  0  0  0  0
   27.0661   18.1912   66.7776 C   0  0  0  0  0  0  0  0  0  0  0  0
   24.5794   18.5981   66.9096 C   0  0  0  0  0  0  0  0  0  0  0  0
   24.7838   19.5517   68.1148 C   0  0  0  0  0  0  0  0  0  0  0  0
   24.6192   21.0095   67.7573 C   0  0  0  0  0  0  0  0  0  0  0  0
   26.4799   17.4468   60.2760 N   0  0  0  0  0  0  0  0  0  0  0  0
   25.7382   18.0281   59.9911 H   0  0  0  0  0  0  0  0  0  0  0  0
   26.7628   16.4117   59.3800 C   0  0  0  0  0  0  0  0  0  0  0  0
   27.1488   15.2279   59.8426 N   0  0  0  0  0  0  0  0  0  0  0  0
   26.5545   16.5749   58.0660 N   0  0  0  0  0  0  0  0  0  0  0  0
   27.3032   15.1027   60.8068 H   0  0  0  0  0  0  0  0  0  0  0  0
   26.2683   17.4503   57.7180 H   0  0  0  0  0  0  0  0  0  0  0  0
   26.6876   15.8195   57.4489 H   0  0  0  0  0  0  0  0  0  0  0  0
 12 13  2  0  0  0
 12 14  1  0  0  0
 12  1  1  0  0  0
  1  2  2  0  0  0
  1  6  1  0  0  0
  2  3  1  0  0  0
  3  4  1  0  0  0
  3 23  1  0  0  0
  4  7  1  0  0  0
  4  5  1  0  0  0
  7  8  1  0  0  0
  8  9  2  0  0  0
  8 10  1  0  0  0
  5  6  1  0  0  0
  5 16  1  0  0  0
 16 17  2  0  0  0
 16 18  1  0  0  0
 18 19  1  0  0  0
 18 20  1  0  0  0
 20 21  1  0  0  0
 21 22  1  0  0  0
 23 25  1  0  0  0
 25 26  2  0  0  0
 25 27  1  0  0  0
 14 15  1  0  0  0
  7 11  1  0  0  0
 23 24  1  0  0  0
 26 28  1  0  0  0
 27 29  1  0  0  0
 27 30  1  0  0  0
M  END
> <minimizedAffinity>
-7.01404

$$$$
2QWF_G20_A_800


 30 30  0  0  0  0  0  0  0  0999 V2000
   32.8556   17.1337   62.9069 C   0  0  0  0  0  0  0  0  0  0  0  0
   32.6990   17.3674   64.1792 C   0  0  0  0  0  0  0  0  0  0  0  0
   31.3528   17.9137   64.8395 C   0  0  0  0  0  0  0  0  0  0  0  0
   30.2420   17.3964   64.1641 C   0  0  0  0  0  0  0  0  0  0  0  0
   30.5286   17.5156   62.6758 C   0  0  0  0  0  0  0  0  0  0  0  0
   31.6904   16.8128   62.3486 O   0  0  0  0  0  0  0  0  0  0  0  0
   28.9997   18.0009   64.5837 N   0  0  0  0  0  0  0  0  0  0  0  0
   28.1080   17.3034   65.2812 C   0  0  0  0  0  0  0  0  0  0  0  0
   28.2724   16.1209   65.5869 O   0  0  0  0  0  0  0  0  0  0  0  0
   26.9092   18.1042   65.7630 C   0  0  0  0  0  0  0  0  0  0  0  0
   28.8110   18.9387   64.3512 H   0  0  0  0  0  0  0  0  0  0  0  0
   34.1419   17.0440   62.3350 C   0  0  0  0  0  0  0  0  0  0  0  0
   34.9857   17.7743   62.8797 O   0  0  0  0  0  0  0  0  0  0  0  0
   34.4458   16.2213   61.4337 O   0  0  0  0  0  0  0  0  0  0  0  0
   33.7822   15.6860   61.0449 H   0  0  0  0  0  0  0  0  0  0  0  0
   29.3462   16.8153   62.0563 C   0  0  0  0  0  0  0  0  0  0  0  0
   29.1388   15.6252   62.3255 O   0  0  0  0  0  0  0  0  0  0  0  0
   28.5064   17.5393   61.2958 N   0  0  0  0  0  0  0  0  0  0  0  0
   28.5681   18.9705   60.9519 C   0  0  0  0  0  0  0  0  0  0  0  0
   27.3491   16.7685   60.7740 C   0  0  0  0  0  0  0  0  0  0  0  0
   26.0631   17.0045   61.6071 C   0  0  0  0  0  0  0  0  0  0  0  0
   25.7689   15.8881   62.5804 C   0  0  0  0  0  0  0  0  0  0  0  0
   31.2058   17.6908   66.3021 N   0  0  0  0  0  0  0  0  0  0  0  0
   30.8070   18.4520   66.7824 H   0  0  0  0  0  0  0  0  0  0  0  0
   31.5253   16.6076   67.1261 C   0  0  0  0  0  0  0  0  0  0  0  0
   30.8750   15.4581   66.9838 N   0  0  0  0  0  0  0  0  0  0  0  0
   32.5463   16.6898   67.9906 N   0  0  0  0  0  0  0  0  0  0  0  0
   30.1244   15.3924   66.3502 H   0  0  0  0  0  0  0  0  0  0  0  0
   33.0316   17.5395   68.0999 H   0  0  0  0  0  0  0  0  0  0  0  0
   32.8111   15.9006   68.5162 H   0  0  0  0  0  0  0  0  0  0  0  0
 12 13  2  0  0  0
 12 14  1  0  0  0
 12  1  1  0  0  0
  1  2  2  0  0  0
  1  6  1  0  0  0
  2  3  1  0  0  0
  3  4  1  0  0  0
  3 23  1  0  0  0
  4  7  1  0  0  0
  4  5  1  0  0  0
  7  8  1  0  0  0
  8  9  2  0  0  0
  8 10  1  0  0  0
  5  6  1  0  0  0
  5 16  1  0  0  0
 16 17  2  0  0  0
 16 18  1  0  0  0
 18 19  1  0  0  0
 18 20  1  0  0  0
 20 21  1  0  0  0
 21 22  1  0  0  0
 23 25  1  0  0  0
 25 26  2  0  0  0
 25 27  1  0  0  0
 14 15  1  0  0  0
  7 11  1  0  0  0
 23 24  1  0  0  0
 26 28  1  0  0  0
 27 29  1  0  0  0
 27 30  1  0  0  0
M  END
> <minimizedAffinity>
-6.90689

$$$$
2QWF_G20_A_800


 30 30  0  0  0  0  0  0  0  0999 V2000
   28.1467   20.7765   64.6854 C   0  0  0  0  0  0  0  0  0  0  0  0
   26.8603   20.8303   64.8860 C   0  0  0  0  0  0  0  0  0  0  0  0
   25.7707   20.1161   63.9644 C   0  0  0  0  0  0  0  0  0  0  0  0
   26.2713   18.9025   63.4808 C   0  0  0  0  0  0  0  0  0  0  0  0
   27.6942   19.1611   63.0122 C   0  0  0  0  0  0  0  0  0  0  0  0
   28.4717   19.6428   64.0677 O   0  0  0  0  0  0  0  0  0  0  0  0
   25.4150   18.2996   62.4867 N   0  0  0  0  0  0  0  0  0  0  0  0
   24.9307   17.0737   62.6628 C   0  0  0  0  0  0  0  0  0  0  0  0
   25.1931   16.3846   63.6502 O   0  0  0  0  0  0  0  0  0  0  0  0
   23.9438   16.6204   61.5993 C   0  0  0  0  0  0  0  0  0  0  0  0
   25.1875   18.8010   61.6706 H   0  0  0  0  0  0  0  0  0  0  0  0
   29.0153   21.7243   65.2659 C   0  0  0  0  0  0  0  0  0  0  0  0
   28.4900   22.4039   66.1627 O   0  0  0  0  0  0  0  0  0  0  0  0
   30.2397   21.8050   64.9905 O   0  0  0  0  0  0  0  0  0  0  0  0
   30.6019   21.2765   64.3068 H   0  0  0  0  0  0  0  0  0  0  0  0
   28.1754   17.7806   62.6448 C   0  0  0  0  0  0  0  0  0  0  0  0
   28.3818   16.9533   63.5419 O   0  0  0  0  0  0  0  0  0  0  0  0
   28.2810   17.4712   61.3407 N   0  0  0  0  0  0  0  0  0  0  0  0
   27.9952   18.3094   60.1632 C   0  0  0  0  0  0  0  0  0  0  0  0
   28.7149   16.0738   61.0857 C   0  0  0  0  0  0  0  0  0  0  0  0
   27.5749   15.2034   60.4971 C   0  0  0  0  0  0  0  0  0  0  0  0
   27.2230   14.0163   61.3615 C   0  0  0  0  0  0  0  0  0  0  0  0
   24.4336   19.9040   64.5792 N   0  0  0  0  0  0  0  0  0  0  0  0
   23.6830   20.1723   64.0014 H   0  0  0  0  0  0  0  0  0  0  0  0
   24.0379   19.3967   65.8203 C   0  0  0  0  0  0  0  0  0  0  0  0
   23.5658   20.2215   66.7483 N   0  0  0  0  0  0  0  0  0  0  0  0
   24.0401   18.0754   66.0459 N   0  0  0  0  0  0  0  0  0  0  0  0
   23.5619   21.1928   66.5875 H   0  0  0  0  0  0  0  0  0  0  0  0
   24.3889   17.4598   65.3614 H   0  0  0  0  0  0  0  0  0  0  0  0
   23.6930   17.7206   66.8961 H   0  0  0  0  0  0  0  0  0  0  0  0
 12 13  2  0  0  0
 12 14  1  0  0  0
 12  1  1  0  0  0
  1  2  2  0  0  0
  1  6  1  0  0  0
  2  3  1  0  0  0
  3  4  1  0  0  0
  3 23  1  0  0  0
  4  7  1  0  0  0
  4  5  1  0  0  0
  7  8  1  0  0  0
  8  9  2  0  0  0
  8 10  1  0  0  0
  5  6  1  0  0  0
  5 16  1  0  0  0
 16 17  2  0  0  0
 16 18  1  0  0  0
 18 19  1  0  0  0
 18 20  1  0  0  0
 20 21  1  0  0  0
 21 22  1  0  0  0
 23 25  1  0  0  0
 25 26  2  0  0  0
 25 27  1  0  0  0
 14 15  1  0  0  0
  7 11  1  0  0  0
 23 24  1  0  0  0
 26 28  1  0  0  0
 27 29  1  0  0  0
 27 30  1  0  0  0
M  END
> <minimizedAffinity>
-6.83132

$$$$
