2RKG_AB1_B_501


 50 53  0  0  0  0  0  0  0  0999 V2000
  -11.1813   15.6705   -0.0948 C   0  0  0  0  0  0  0  0  0  0  0  0
  -10.1385   16.6045    0.5094 C   0  0  0  0  0  0  0  0  0  0  0  0
  -10.5418   17.9439    0.2348 O   0  0  0  0  0  0  0  0  0  0  0  0
  -10.5558   18.0872   -0.7245 H   0  0  0  0  0  0  0  0  0  0  0  0
   -8.7067   16.4020    0.0088 C   0  0  0  0  0  0  0  0  0  0  0  0
   -8.7338   16.1791   -1.4315 N   0  0  0  0  0  0  0  0  0  0  0  0
   -8.4160   14.9781   -1.9160 C   0  0  0  0  0  0  0  0  0  0  0  0
   -8.1182   14.0346   -1.2002 O   0  0  0  0  0  0  0  0  0  0  0  0
   -8.9850   16.9096   -2.0418 H   0  0  0  0  0  0  0  0  0  0  0  0
   -8.4307   14.7713   -3.4124 C   0  0  0  0  0  0  0  0  0  0  0  0
   -8.9183   15.9071   -4.1322 O   0  0  0  0  0  0  0  0  0  0  0  0
   -8.2758   16.3251   -5.2735 C   0  0  0  0  0  0  0  0  0  0  0  0
   -7.1105   17.1051   -5.2075 C   0  0  0  0  0  0  0  0  0  0  0  0
   -6.4817   17.5142   -6.3796 C   0  0  0  0  0  0  0  0  0  0  0  0
   -6.9954   17.1519   -7.6212 C   0  0  0  0  0  0  0  0  0  0  0  0
   -8.1507   16.3798   -7.6921 C   0  0  0  0  0  0  0  0  0  0  0  0
   -8.7921   15.9667   -6.5268 C   0  0  0  0  0  0  0  0  0  0  0  0
  -10.0372   15.1292   -6.6637 C   0  0  0  0  0  0  0  0  0  0  0  0
   -6.4902   17.5265   -3.8990 C   0  0  0  0  0  0  0  0  0  0  0  0
   -7.9223   17.7029    0.1805 C   0  0  0  0  0  0  0  0  0  0  0  0
   -6.4246   17.5457   -0.0138 C   0  0  0  0  0  0  0  0  0  0  0  0
   -5.6882   18.6259   -0.5026 C   0  0  0  0  0  0  0  0  0  0  0  0
   -4.3091   18.5110   -0.6884 C   0  0  0  0  0  0  0  0  0  0  0  0
   -3.6592   17.3151   -0.3774 C   0  0  0  0  0  0  0  0  0  0  0  0
   -4.3972   16.2366    0.1214 C   0  0  0  0  0  0  0  0  0  0  0  0
   -5.7770   16.3486    0.2986 C   0  0  0  0  0  0  0  0  0  0  0  0
  -11.7362   14.6111    0.8539 C   0  0  0  0  0  0  0  0  0  0  0  0
  -10.6912   14.4698    3.0767 C   0  0  0  0  0  0  0  0  0  0  0  0
  -11.5019   15.0957    2.2139 N   0  0  0  0  0  0  0  0  0  0  0  0
  -10.0716   13.4376    2.8081 O   0  0  0  0  0  0  0  0  0  0  0  0
  -11.9594   15.9166    2.5073 H   0  0  0  0  0  0  0  0  0  0  0  0
  -10.6020   15.1448    4.4313 C   0  0  0  0  0  0  0  0  0  0  0  0
  -12.4698   12.7249    7.4718 C   0  0  0  0  0  0  0  0  0  0  0  0
  -10.3805   13.5051    6.2691 C   0  0  0  0  0  0  0  0  0  0  0  0
  -11.2771   14.3456    5.4771 N   0  0  0  0  0  0  0  0  0  0  0  0
  -12.6010   14.4102    5.6539 C   0  0  0  0  0  0  0  0  0  0  0  0
  -13.1593   13.5151    6.4646 N   0  0  0  0  0  0  0  0  0  0  0  0
  -13.2858   15.2484    5.1127 O   0  0  0  0  0  0  0  0  0  0  0  0
  -11.1777   12.3078    6.7831 C   0  0  0  0  0  0  0  0  0  0  0  0
  -14.1295   13.3748    6.3742 H   0  0  0  0  0  0  0  0  0  0  0  0
   -9.1630   15.4994    4.8683 C   0  0  0  0  0  0  0  0  0  0  0  0
   -8.3874   16.2112    3.7675 C   0  0  0  0  0  0  0  0  0  0  0  0
   -9.1251   16.3780    6.1173 C   0  0  0  0  0  0  0  0  0  0  0  0
  -13.2493   14.6243    0.6394 C   0  0  0  0  0  0  0  0  0  0  0  0
  -14.5334   11.1033    1.3232 C   0  0  0  0  0  0  0  0  0  0  0  0
  -15.3557   11.3236    2.4271 C   0  0  0  0  0  0  0  0  0  0  0  0
  -15.4913   12.6100    2.9457 C   0  0  0  0  0  0  0  0  0  0  0  0
  -14.8059   13.6708    2.3554 C   0  0  0  0  0  0  0  0  0  0  0  0
  -13.9738   13.4510    1.2589 C   0  0  0  0  0  0  0  0  0  0  0  0
  -13.8475   12.1655    0.7373 C   0  0  0  0  0  0  0  0  0  0  0  0
 33 37  1  0  0  0
 33 39  1  0  0  0
 34 35  1  0  0  0
 34 39  1  0  0  0
 35 36  1  0  0  0
 35 32  1  0  0  0
 36 37  1  0  0  0
 36 38  2  0  0  0
 21 22  2  0  0  0
 21 26  1  0  0  0
 21 20  1  0  0  0
 22 23  1  0  0  0
 23 24  2  0  0  0
 24 25  1  0  0  0
 25 26  2  0  0  0
 32 28  1  0  0  0
 32 41  1  0  0  0
 28 29  1  0  0  0
 28 30  2  0  0  0
 29 27  1  0  0  0
 27 44  1  0  0  0
 27  1  1  0  0  0
 41 42  1  0  0  0
 41 43  1  0  0  0
 45 46  2  0  0  0
 45 50  1  0  0  0
 46 47  1  0  0  0
 47 48  2  0  0  0
 48 49  1  0  0  0
 49 50  2  0  0  0
 49 44  1  0  0  0
  1  2  1  0  0  0
  2  5  1  0  0  0
  2  3  1  0  0  0
  5  6  1  0  0  0
  5 20  1  0  0  0
  6  7  1  0  0  0
  7 10  1  0  0  0
  7  8  2  0  0  0
 10 11  1  0  0  0
 11 12  1  0  0  0
 12 13  2  0  0  0
 12 17  1  0  0  0
 13 14  1  0  0  0
 13 19  1  0  0  0
 14 15  2  0  0  0
 15 16  1  0  0  0
 16 17  2  0  0  0
 17 18  1  0  0  0
 37 40  1  0  0  0
 29 31  1  0  0  0
  6  9  1  0  0  0
  3  4  1  0  0  0
M  END
> <minimizedAffinity>
-10.17241

$$$$
2RKG_AB1_B_501


 50 53  0  0  0  0  0  0  0  0999 V2000
  -11.2255   15.6111   -0.0592 C   0  0  0  0  0  0  0  0  0  0  0  0
  -10.1949   16.5512    0.5564 C   0  0  0  0  0  0  0  0  0  0  0  0
  -10.6038   17.8883    0.2788 O   0  0  0  0  0  0  0  0  0  0  0  0
  -10.6088   18.0323   -0.6805 H   0  0  0  0  0  0  0  0  0  0  0  0
   -8.7567   16.3582    0.0704 C   0  0  0  0  0  0  0  0  0  0  0  0
   -8.7656   16.1607   -1.3738 N   0  0  0  0  0  0  0  0  0  0  0  0
   -8.4448   14.9674   -1.8752 C   0  0  0  0  0  0  0  0  0  0  0  0
   -8.1592   14.0106   -1.1723 O   0  0  0  0  0  0  0  0  0  0  0  0
   -9.0065   16.9026   -1.9744 H   0  0  0  0  0  0  0  0  0  0  0  0
   -8.4404   14.7870   -3.3750 C   0  0  0  0  0  0  0  0  0  0  0  0
   -8.9107   15.9385   -4.0813 O   0  0  0  0  0  0  0  0  0  0  0  0
   -8.2981   16.3257   -5.2495 C   0  0  0  0  0  0  0  0  0  0  0  0
   -8.8299   15.9744   -6.5003 C   0  0  0  0  0  0  0  0  0  0  0  0
   -8.1878   16.3801   -7.6664 C   0  0  0  0  0  0  0  0  0  0  0  0
   -7.0223   17.1379   -7.6048 C   0  0  0  0  0  0  0  0  0  0  0  0
   -6.4905   17.4880   -6.3676 C   0  0  0  0  0  0  0  0  0  0  0  0
   -7.1211   17.0854   -5.1927 C   0  0  0  0  0  0  0  0  0  0  0  0
   -6.5027   17.4964   -3.8816 C   0  0  0  0  0  0  0  0  0  0  0  0
  -10.0942   15.1649   -6.6451 C   0  0  0  0  0  0  0  0  0  0  0  0
   -7.9754   17.6562    0.2749 C   0  0  0  0  0  0  0  0  0  0  0  0
   -6.4833   17.5185    0.0296 C   0  0  0  0  0  0  0  0  0  0  0  0
   -5.7793   18.6059   -0.4900 C   0  0  0  0  0  0  0  0  0  0  0  0
   -4.4061   18.5089   -0.7228 C   0  0  0  0  0  0  0  0  0  0  0  0
   -3.7292   17.3239   -0.4284 C   0  0  0  0  0  0  0  0  0  0  0  0
   -4.4344   16.2381    0.1013 C   0  0  0  0  0  0  0  0  0  0  0  0
   -5.8087   16.3322    0.3256 C   0  0  0  0  0  0  0  0  0  0  0  0
  -11.8006   14.5622    0.8891 C   0  0  0  0  0  0  0  0  0  0  0  0
  -10.6927   14.4883    3.0846 C   0  0  0  0  0  0  0  0  0  0  0  0
  -11.5749   15.0512    2.2489 N   0  0  0  0  0  0  0  0  0  0  0  0
   -9.9942   13.5157    2.7888 O   0  0  0  0  0  0  0  0  0  0  0  0
  -12.0935   15.8269    2.5631 H   0  0  0  0  0  0  0  0  0  0  0  0
  -10.6281   15.1547    4.4449 C   0  0  0  0  0  0  0  0  0  0  0  0
  -12.4866   12.6804    7.4470 C   0  0  0  0  0  0  0  0  0  0  0  0
  -10.4008   13.4834    6.2532 C   0  0  0  0  0  0  0  0  0  0  0  0
  -11.3000   14.3368    5.4781 N   0  0  0  0  0  0  0  0  0  0  0  0
  -12.6235   14.3971    5.6592 C   0  0  0  0  0  0  0  0  0  0  0  0
  -13.1792   13.4876    6.4554 N   0  0  0  0  0  0  0  0  0  0  0  0
  -13.3104   15.2441    5.1343 O   0  0  0  0  0  0  0  0  0  0  0  0
  -11.1959   12.2765    6.7480 C   0  0  0  0  0  0  0  0  0  0  0  0
  -14.1495   13.3480    6.3649 H   0  0  0  0  0  0  0  0  0  0  0  0
   -9.1996   15.5299    4.8986 C   0  0  0  0  0  0  0  0  0  0  0  0
   -8.4403   16.3011    3.8268 C   0  0  0  0  0  0  0  0  0  0  0  0
   -9.1867   16.3629    6.1790 C   0  0  0  0  0  0  0  0  0  0  0  0
  -13.3112   14.5895    0.6594 C   0  0  0  0  0  0  0  0  0  0  0  0
  -15.5613   12.6063    3.0083 C   0  0  0  0  0  0  0  0  0  0  0  0
  -15.3980   11.3133    2.5136 C   0  0  0  0  0  0  0  0  0  0  0  0
  -14.5610   11.0883    1.4223 C   0  0  0  0  0  0  0  0  0  0  0  0
  -13.8885   12.1579    0.8329 C   0  0  0  0  0  0  0  0  0  0  0  0
  -14.0595   13.4533    1.3183 C   0  0  0  0  0  0  0  0  0  0  0  0
  -14.8898   13.6735    2.4150 C   0  0  0  0  0  0  0  0  0  0  0  0
 33 37  1  0  0  0
 33 39  1  0  0  0
 34 35  1  0  0  0
 34 39  1  0  0  0
 35 36  1  0  0  0
 35 32  1  0  0  0
 36 37  1  0  0  0
 36 38  2  0  0  0
 21 22  2  0  0  0
 21 26  1  0  0  0
 21 20  1  0  0  0
 22 23  1  0  0  0
 23 24  2  0  0  0
 24 25  1  0  0  0
 25 26  2  0  0  0
 32 28  1  0  0  0
 32 41  1  0  0  0
 28 29  1  0  0  0
 28 30  2  0  0  0
 29 27  1  0  0  0
 27 44  1  0  0  0
 27  1  1  0  0  0
 41 42  1  0  0  0
 41 43  1  0  0  0
 45 46  2  0  0  0
 45 50  1  0  0  0
 46 47  1  0  0  0
 47 48  2  0  0  0
 48 49  1  0  0  0
 49 50  2  0  0  0
 49 44  1  0  0  0
  1  2  1  0  0  0
  2  5  1  0  0  0
  2  3  1  0  0  0
  5  6  1  0  0  0
  5 20  1  0  0  0
  6  7  1  0  0  0
  7 10  1  0  0  0
  7  8  2  0  0  0
 10 11  1  0  0  0
 11 12  1  0  0  0
 12 13  2  0  0  0
 12 17  1  0  0  0
 13 14  1  0  0  0
 13 19  1  0  0  0
 14 15  2  0  0  0
 15 16  1  0  0  0
 16 17  2  0  0  0
 17 18  1  0  0  0
 37 40  1  0  0  0
 29 31  1  0  0  0
  6  9  1  0  0  0
  3  4  1  0  0  0
M  END
> <minimizedAffinity>
-10.14932

$$$$
2RKG_AB1_B_501


 50 53  0  0  0  0  0  0  0  0999 V2000
   -7.8107   17.5773    0.0252 C   0  0  0  0  0  0  0  0  0  0  0  0
   -9.1434   17.1268   -0.5631 C   0  0  0  0  0  0  0  0  0  0  0  0
  -10.0704   18.1995   -0.4144 O   0  0  0  0  0  0  0  0  0  0  0  0
  -10.2034   18.3834    0.5287 H   0  0  0  0  0  0  0  0  0  0  0  0
   -9.7407   15.8615    0.0565 C   0  0  0  0  0  0  0  0  0  0  0  0
   -9.4585   15.8539    1.4866 N   0  0  0  0  0  0  0  0  0  0  0  0
   -8.6409   14.9281    1.9893 C   0  0  0  0  0  0  0  0  0  0  0  0
   -8.0918   14.0853    1.2970 O   0  0  0  0  0  0  0  0  0  0  0  0
   -9.8683   16.5270    2.0767 H   0  0  0  0  0  0  0  0  0  0  0  0
   -8.3756   14.9237    3.4766 C   0  0  0  0  0  0  0  0  0  0  0  0
   -9.2081   15.8354    4.1989 O   0  0  0  0  0  0  0  0  0  0  0  0
   -9.8949   15.4062    5.3098 C   0  0  0  0  0  0  0  0  0  0  0  0
  -11.1274   14.7446    5.1918 C   0  0  0  0  0  0  0  0  0  0  0  0
  -11.8005   14.3217    6.3341 C   0  0  0  0  0  0  0  0  0  0  0  0
  -11.2593   14.5442    7.5968 C   0  0  0  0  0  0  0  0  0  0  0  0
  -10.0384   15.2003    7.7192 C   0  0  0  0  0  0  0  0  0  0  0  0
   -9.3561   15.6320    6.5843 C   0  0  0  0  0  0  0  0  0  0  0  0
   -8.0366   16.3336    6.7766 C   0  0  0  0  0  0  0  0  0  0  0  0
  -11.7696   14.4590    3.8574 C   0  0  0  0  0  0  0  0  0  0  0  0
  -11.2655   15.9262   -0.0328 C   0  0  0  0  0  0  0  0  0  0  0  0
  -11.9448   14.5742    0.0953 C   0  0  0  0  0  0  0  0  0  0  0  0
  -13.2842   14.5236    0.4845 C   0  0  0  0  0  0  0  0  0  0  0  0
  -13.9353   13.2947    0.6076 C   0  0  0  0  0  0  0  0  0  0  0  0
  -13.2497   12.1098    0.3332 C   0  0  0  0  0  0  0  0  0  0  0  0
  -11.9101   12.1627   -0.0659 C   0  0  0  0  0  0  0  0  0  0  0  0
  -11.2568   13.3908   -0.1802 C   0  0  0  0  0  0  0  0  0  0  0  0
   -6.6235   17.5253   -0.9330 C   0  0  0  0  0  0  0  0  0  0  0  0
   -7.1429   16.5372   -3.1255 C   0  0  0  0  0  0  0  0  0  0  0  0
   -7.1702   17.5822   -2.2885 N   0  0  0  0  0  0  0  0  0  0  0  0
   -6.6605   15.4398   -2.8347 O   0  0  0  0  0  0  0  0  0  0  0  0
   -7.5753   18.4242   -2.5985 H   0  0  0  0  0  0  0  0  0  0  0  0
   -7.7599   16.8230   -4.4805 C   0  0  0  0  0  0  0  0  0  0  0  0
   -4.7088   17.1536   -7.5088 C   0  0  0  0  0  0  0  0  0  0  0  0
   -6.4590   15.7739   -6.3032 C   0  0  0  0  0  0  0  0  0  0  0  0
   -6.7221   16.9818   -5.5225 N   0  0  0  0  0  0  0  0  0  0  0  0
   -6.0952   18.1486   -5.7060 C   0  0  0  0  0  0  0  0  0  0  0  0
   -5.0364   18.1599   -6.5116 N   0  0  0  0  0  0  0  0  0  0  0  0
   -6.4640   19.1717   -5.1751 O   0  0  0  0  0  0  0  0  0  0  0  0
   -5.0196   15.8369   -6.8106 C   0  0  0  0  0  0  0  0  0  0  0  0
   -4.4172   18.9203   -6.4245 H   0  0  0  0  0  0  0  0  0  0  0  0
   -8.8172   15.7879   -4.9256 C   0  0  0  0  0  0  0  0  0  0  0  0
   -9.8858   15.5652   -3.8633 C   0  0  0  0  0  0  0  0  0  0  0  0
   -9.5173   16.1809   -6.2252 C   0  0  0  0  0  0  0  0  0  0  0  0
   -5.8640   18.8330   -0.7123 C   0  0  0  0  0  0  0  0  0  0  0  0
   -2.2121   18.1144   -1.5250 C   0  0  0  0  0  0  0  0  0  0  0  0
   -1.9856   19.0078   -2.5708 C   0  0  0  0  0  0  0  0  0  0  0  0
   -3.0150   19.8388   -3.0089 C   0  0  0  0  0  0  0  0  0  0  0  0
   -4.2657   19.7743   -2.3963 C   0  0  0  0  0  0  0  0  0  0  0  0
   -4.4979   18.8734   -1.3582 C   0  0  0  0  0  0  0  0  0  0  0  0
   -3.4642   18.0505   -0.9167 C   0  0  0  0  0  0  0  0  0  0  0  0
 33 37  1  0  0  0
 33 39  1  0  0  0
 34 35  1  0  0  0
 34 39  1  0  0  0
 35 36  1  0  0  0
 35 32  1  0  0  0
 36 37  1  0  0  0
 36 38  2  0  0  0
 21 22  2  0  0  0
 21 26  1  0  0  0
 21 20  1  0  0  0
 22 23  1  0  0  0
 23 24  2  0  0  0
 24 25  1  0  0  0
 25 26  2  0  0  0
 32 28  1  0  0  0
 32 41  1  0  0  0
 28 29  1  0  0  0
 28 30  2  0  0  0
 29 27  1  0  0  0
 27 44  1  0  0  0
 27  1  1  0  0  0
 41 42  1  0  0  0
 41 43  1  0  0  0
 45 46  2  0  0  0
 45 50  1  0  0  0
 46 47  1  0  0  0
 47 48  2  0  0  0
 48 49  1  0  0  0
 49 50  2  0  0  0
 49 44  1  0  0  0
  1  2  1  0  0  0
  2  5  1  0  0  0
  2  3  1  0  0  0
  5  6  1  0  0  0
  5 20  1  0  0  0
  6  7  1  0  0  0
  7 10  1  0  0  0
  7  8  2  0  0  0
 10 11  1  0  0  0
 11 12  1  0  0  0
 12 13  2  0  0  0
 12 17  1  0  0  0
 13 14  1  0  0  0
 13 19  1  0  0  0
 14 15  2  0  0  0
 15 16  1  0  0  0
 16 17  2  0  0  0
 17 18  1  0  0  0
 37 40  1  0  0  0
 29 31  1  0  0  0
  6  9  1  0  0  0
  3  4  1  0  0  0
M  END
> <minimizedAffinity>
-10.10432

$$$$
2RKG_AB1_B_501


 50 53  0  0  0  0  0  0  0  0999 V2000
  -10.4543   15.5862    1.4990 C   0  0  0  0  0  0  0  0  0  0  0  0
   -9.6838   16.8442    1.1133 C   0  0  0  0  0  0  0  0  0  0  0  0
  -10.5632   17.6827    0.3681 O   0  0  0  0  0  0  0  0  0  0  0  0
  -10.8286   17.2294   -0.4473 H   0  0  0  0  0  0  0  0  0  0  0  0
   -8.4089   16.6101    0.2999 C   0  0  0  0  0  0  0  0  0  0  0  0
   -8.7706   16.3684   -1.0914 N   0  0  0  0  0  0  0  0  0  0  0  0
   -8.5208   15.1776   -1.6372 C   0  0  0  0  0  0  0  0  0  0  0  0
   -8.0145   14.2580   -1.0135 O   0  0  0  0  0  0  0  0  0  0  0  0
   -9.1960   17.0788   -1.6239 H   0  0  0  0  0  0  0  0  0  0  0  0
   -8.8846   14.9520   -3.0860 C   0  0  0  0  0  0  0  0  0  0  0  0
   -9.1685   16.1643   -3.7899 O   0  0  0  0  0  0  0  0  0  0  0  0
   -8.5562   16.4192   -4.9941 C   0  0  0  0  0  0  0  0  0  0  0  0
   -7.2981   17.0392   -5.0532 C   0  0  0  0  0  0  0  0  0  0  0  0
   -6.7025   17.2851   -6.2867 C   0  0  0  0  0  0  0  0  0  0  0  0
   -7.3418   16.9164   -7.4665 C   0  0  0  0  0  0  0  0  0  0  0  0
   -8.5893   16.3024   -7.4136 C   0  0  0  0  0  0  0  0  0  0  0  0
   -9.1982   16.0538   -6.1858 C   0  0  0  0  0  0  0  0  0  0  0  0
  -10.5474   15.3831   -6.1885 C   0  0  0  0  0  0  0  0  0  0  0  0
   -6.5413   17.4565   -3.8172 C   0  0  0  0  0  0  0  0  0  0  0  0
   -7.5882   17.8993    0.2641 C   0  0  0  0  0  0  0  0  0  0  0  0
   -6.1115   17.6782   -0.0119 C   0  0  0  0  0  0  0  0  0  0  0  0
   -5.5537   16.4260    0.2506 C   0  0  0  0  0  0  0  0  0  0  0  0
   -4.1994   16.1931    0.0036 C   0  0  0  0  0  0  0  0  0  0  0  0
   -3.3983   17.2118   -0.5158 C   0  0  0  0  0  0  0  0  0  0  0  0
   -3.9610   18.4634   -0.7873 C   0  0  0  0  0  0  0  0  0  0  0  0
   -5.3128   18.6988   -0.5320 C   0  0  0  0  0  0  0  0  0  0  0  0
  -10.6786   15.3916    2.9963 C   0  0  0  0  0  0  0  0  0  0  0  0
  -12.5761   14.2950    4.1145 C   0  0  0  0  0  0  0  0  0  0  0  0
  -11.6558   14.3130    3.1418 N   0  0  0  0  0  0  0  0  0  0  0  0
  -12.6858   15.1775    4.9693 O   0  0  0  0  0  0  0  0  0  0  0  0
  -11.6361   13.5689    2.4975 H   0  0  0  0  0  0  0  0  0  0  0  0
  -13.4809   13.0791    4.0776 C   0  0  0  0  0  0  0  0  0  0  0  0
  -13.8021   11.5479    0.0599 C   0  0  0  0  0  0  0  0  0  0  0  0
  -12.6714   11.5309    2.3274 C   0  0  0  0  0  0  0  0  0  0  0  0
  -13.6361   12.5647    2.6994 N   0  0  0  0  0  0  0  0  0  0  0  0
  -14.5906   13.0313    1.8874 C   0  0  0  0  0  0  0  0  0  0  0  0
  -14.5381   12.6767    0.6062 N   0  0  0  0  0  0  0  0  0  0  0  0
  -15.4840   13.7455    2.2828 O   0  0  0  0  0  0  0  0  0  0  0  0
  -12.4792   11.5795    0.8128 C   0  0  0  0  0  0  0  0  0  0  0  0
  -15.0448   13.2300   -0.0312 H   0  0  0  0  0  0  0  0  0  0  0  0
  -13.0529   11.9424    5.0326 C   0  0  0  0  0  0  0  0  0  0  0  0
  -12.2768   12.4641    6.2349 C   0  0  0  0  0  0  0  0  0  0  0  0
  -14.2379   11.1298    5.5512 C   0  0  0  0  0  0  0  0  0  0  0  0
   -9.3540   14.8583    3.5410 C   0  0  0  0  0  0  0  0  0  0  0  0
   -8.9803   15.5900    7.2610 C   0  0  0  0  0  0  0  0  0  0  0  0
   -8.1224   16.6885    7.2370 C   0  0  0  0  0  0  0  0  0  0  0  0
   -7.6682   17.1877    6.0178 C   0  0  0  0  0  0  0  0  0  0  0  0
   -8.0772   16.5876    4.8277 C   0  0  0  0  0  0  0  0  0  0  0  0
   -8.9256   15.4818    4.8497 C   0  0  0  0  0  0  0  0  0  0  0  0
   -9.3850   14.9908    6.0698 C   0  0  0  0  0  0  0  0  0  0  0  0
 33 37  1  0  0  0
 33 39  1  0  0  0
 34 35  1  0  0  0
 34 39  1  0  0  0
 35 36  1  0  0  0
 35 32  1  0  0  0
 36 37  1  0  0  0
 36 38  2  0  0  0
 21 22  2  0  0  0
 21 26  1  0  0  0
 21 20  1  0  0  0
 22 23  1  0  0  0
 23 24  2  0  0  0
 24 25  1  0  0  0
 25 26  2  0  0  0
 32 28  1  0  0  0
 32 41  1  0  0  0
 28 29  1  0  0  0
 28 30  2  0  0  0
 29 27  1  0  0  0
 27 44  1  0  0  0
 27  1  1  0  0  0
 41 42  1  0  0  0
 41 43  1  0  0  0
 45 46  2  0  0  0
 45 50  1  0  0  0
 46 47  1  0  0  0
 47 48  2  0  0  0
 48 49  1  0  0  0
 49 50  2  0  0  0
 49 44  1  0  0  0
  1  2  1  0  0  0
  2  5  1  0  0  0
  2  3  1  0  0  0
  5  6  1  0  0  0
  5 20  1  0  0  0
  6  7  1  0  0  0
  7 10  1  0  0  0
  7  8  2  0  0  0
 10 11  1  0  0  0
 11 12  1  0  0  0
 12 13  2  0  0  0
 12 17  1  0  0  0
 13 14  1  0  0  0
 13 19  1  0  0  0
 14 15  2  0  0  0
 15 16  1  0  0  0
 16 17  2  0  0  0
 17 18  1  0  0  0
 37 40  1  0  0  0
 29 31  1  0  0  0
  6  9  1  0  0  0
  3  4  1  0  0  0
M  END
> <minimizedAffinity>
-10.04118

$$$$
2RKG_AB1_B_501


 50 53  0  0  0  0  0  0  0  0999 V2000
   -8.1310   16.6532   -1.6310 C   0  0  0  0  0  0  0  0  0  0  0  0
   -9.5904   16.6968   -1.1915 C   0  0  0  0  0  0  0  0  0  0  0  0
   -9.7958   17.9162   -0.4823 O   0  0  0  0  0  0  0  0  0  0  0  0
   -9.2406   17.9251    0.3130 H   0  0  0  0  0  0  0  0  0  0  0  0
  -10.0482   15.5276   -0.3168 C   0  0  0  0  0  0  0  0  0  0  0  0
   -9.6440   15.7782    1.0611 N   0  0  0  0  0  0  0  0  0  0  0  0
   -8.7498   14.9755    1.6392 C   0  0  0  0  0  0  0  0  0  0  0  0
   -8.2290   14.0378    1.0556 O   0  0  0  0  0  0  0  0  0  0  0  0
  -10.0282   16.5343    1.5610 H   0  0  0  0  0  0  0  0  0  0  0  0
   -8.3577   15.2390    3.0742 C   0  0  0  0  0  0  0  0  0  0  0  0
   -9.2730   16.0993    3.7583 O   0  0  0  0  0  0  0  0  0  0  0  0
   -9.8037   15.7159    4.9671 C   0  0  0  0  0  0  0  0  0  0  0  0
  -10.9769   14.9480    5.0353 C   0  0  0  0  0  0  0  0  0  0  0  0
  -11.4914   14.5747    6.2733 C   0  0  0  0  0  0  0  0  0  0  0  0
  -10.8491   14.9522    7.4488 C   0  0  0  0  0  0  0  0  0  0  0  0
   -9.6865   15.7141    7.3868 C   0  0  0  0  0  0  0  0  0  0  0  0
   -9.1629   16.0975    6.1544 C   0  0  0  0  0  0  0  0  0  0  0  0
   -7.8997   16.9188    6.1473 C   0  0  0  0  0  0  0  0  0  0  0  0
  -11.7207   14.4933    3.8046 C   0  0  0  0  0  0  0  0  0  0  0  0
  -11.5760   15.4998   -0.2690 C   0  0  0  0  0  0  0  0  0  0  0  0
  -12.1535   14.1397    0.0804 C   0  0  0  0  0  0  0  0  0  0  0  0
  -13.4704   14.0600    0.5357 C   0  0  0  0  0  0  0  0  0  0  0  0
  -14.0288   12.8224    0.8614 C   0  0  0  0  0  0  0  0  0  0  0  0
  -13.2727   11.6567    0.7246 C   0  0  0  0  0  0  0  0  0  0  0  0
  -11.9561   11.7373    0.2590 C   0  0  0  0  0  0  0  0  0  0  0  0
  -11.3952   12.9754   -0.0580 C   0  0  0  0  0  0  0  0  0  0  0  0
   -7.8940   16.8437   -3.1270 C   0  0  0  0  0  0  0  0  0  0  0  0
   -6.0661   18.0290   -4.2702 C   0  0  0  0  0  0  0  0  0  0  0  0
   -6.4906   17.2226   -3.2888 N   0  0  0  0  0  0  0  0  0  0  0  0
   -6.8110   18.5235   -5.1199 O   0  0  0  0  0  0  0  0  0  0  0  0
   -5.8303   16.8700   -2.6494 H   0  0  0  0  0  0  0  0  0  0  0  0
   -4.5714   18.2820   -4.2498 C   0  0  0  0  0  0  0  0  0  0  0  0
   -2.9901   17.7297   -0.2769 C   0  0  0  0  0  0  0  0  0  0  0  0
   -3.5055   16.8036   -2.5786 C   0  0  0  0  0  0  0  0  0  0  0  0
   -4.0190   18.1377   -2.8853 N   0  0  0  0  0  0  0  0  0  0  0  0
   -4.0082   19.1643   -2.0284 C   0  0  0  0  0  0  0  0  0  0  0  0
   -3.6918   18.9072   -0.7620 N   0  0  0  0  0  0  0  0  0  0  0  0
   -4.2659   20.2959   -2.3714 O   0  0  0  0  0  0  0  0  0  0  0  0
   -3.6090   16.5869   -1.0700 C   0  0  0  0  0  0  0  0  0  0  0  0
   -3.9575   19.5767   -0.0908 H   0  0  0  0  0  0  0  0  0  0  0  0
   -3.7698   17.4195   -5.2503 C   0  0  0  0  0  0  0  0  0  0  0  0
   -4.6732   16.7161   -6.2548 C   0  0  0  0  0  0  0  0  0  0  0  0
   -2.7353   18.2286   -6.0304 C   0  0  0  0  0  0  0  0  0  0  0  0
   -8.0458   15.4537   -3.7439 C   0  0  0  0  0  0  0  0  0  0  0  0
   -8.9782   15.5573   -7.4362 C   0  0  0  0  0  0  0  0  0  0  0  0
  -10.3620   15.4020   -7.3714 C   0  0  0  0  0  0  0  0  0  0  0  0
  -10.9877   15.2642   -6.1338 C   0  0  0  0  0  0  0  0  0  0  0  0
  -10.2261   15.2858   -4.9663 C   0  0  0  0  0  0  0  0  0  0  0  0
   -8.8410   15.4290   -5.0292 C   0  0  0  0  0  0  0  0  0  0  0  0
   -8.2196   15.5756   -6.2674 C   0  0  0  0  0  0  0  0  0  0  0  0
 33 37  1  0  0  0
 33 39  1  0  0  0
 34 35  1  0  0  0
 34 39  1  0  0  0
 35 36  1  0  0  0
 35 32  1  0  0  0
 36 37  1  0  0  0
 36 38  2  0  0  0
 21 22  2  0  0  0
 21 26  1  0  0  0
 21 20  1  0  0  0
 22 23  1  0  0  0
 23 24  2  0  0  0
 24 25  1  0  0  0
 25 26  2  0  0  0
 32 28  1  0  0  0
 32 41  1  0  0  0
 28 29  1  0  0  0
 28 30  2  0  0  0
 29 27  1  0  0  0
 27 44  1  0  0  0
 27  1  1  0  0  0
 41 42  1  0  0  0
 41 43  1  0  0  0
 45 46  2  0  0  0
 45 50  1  0  0  0
 46 47  1  0  0  0
 47 48  2  0  0  0
 48 49  1  0  0  0
 49 50  2  0  0  0
 49 44  1  0  0  0
  1  2  1  0  0  0
  2  5  1  0  0  0
  2  3  1  0  0  0
  5  6  1  0  0  0
  5 20  1  0  0  0
  6  7  1  0  0  0
  7 10  1  0  0  0
  7  8  2  0  0  0
 10 11  1  0  0  0
 11 12  1  0  0  0
 12 13  2  0  0  0
 12 17  1  0  0  0
 13 14  1  0  0  0
 13 19  1  0  0  0
 14 15  2  0  0  0
 15 16  1  0  0  0
 16 17  2  0  0  0
 17 18  1  0  0  0
 37 40  1  0  0  0
 29 31  1  0  0  0
  6  9  1  0  0  0
  3  4  1  0  0  0
M  END
> <minimizedAffinity>
-9.93865

$$$$
2RKG_AB1_B_501


 50 53  0  0  0  0  0  0  0  0999 V2000
   -8.9099   15.4590   -0.9917 C   0  0  0  0  0  0  0  0  0  0  0  0
   -8.8301   14.8423    0.4006 C   0  0  0  0  0  0  0  0  0  0  0  0
   -7.7128   13.9573    0.4220 O   0  0  0  0  0  0  0  0  0  0  0  0
   -7.8547   13.2419   -0.2174 H   0  0  0  0  0  0  0  0  0  0  0  0
  -10.0780   14.0816    0.8544 C   0  0  0  0  0  0  0  0  0  0  0  0
  -10.5157   14.6107    2.1402 N   0  0  0  0  0  0  0  0  0  0  0  0
  -10.9319   13.7706    3.0885 C   0  0  0  0  0  0  0  0  0  0  0  0
  -10.9455   12.5588    2.9380 O   0  0  0  0  0  0  0  0  0  0  0  0
  -10.5041   15.5809    2.3073 H   0  0  0  0  0  0  0  0  0  0  0  0
  -11.4003   14.3386    4.4076 C   0  0  0  0  0  0  0  0  0  0  0  0
  -10.8693   15.6384    4.6805 O   0  0  0  0  0  0  0  0  0  0  0  0
   -9.8347   15.7844    5.5740 C   0  0  0  0  0  0  0  0  0  0  0  0
   -8.5863   16.2799    5.1661 C   0  0  0  0  0  0  0  0  0  0  0  0
   -7.5571   16.4165    6.0928 C   0  0  0  0  0  0  0  0  0  0  0  0
   -7.7555   16.0704    7.4260 C   0  0  0  0  0  0  0  0  0  0  0  0
   -8.9908   15.5778    7.8353 C   0  0  0  0  0  0  0  0  0  0  0  0
  -10.0282   15.4327    6.9173 C   0  0  0  0  0  0  0  0  0  0  0  0
  -11.3452   14.8980    7.4174 C   0  0  0  0  0  0  0  0  0  0  0  0
   -8.3012   16.6853    3.7416 C   0  0  0  0  0  0  0  0  0  0  0  0
  -11.2324   14.3890   -0.0995 C   0  0  0  0  0  0  0  0  0  0  0  0
  -12.4620   13.5278    0.1289 C   0  0  0  0  0  0  0  0  0  0  0  0
  -13.6069   14.1128    0.6720 C   0  0  0  0  0  0  0  0  0  0  0  0
  -14.7531   13.3460    0.8901 C   0  0  0  0  0  0  0  0  0  0  0  0
  -14.7608   11.9901    0.5573 C   0  0  0  0  0  0  0  0  0  0  0  0
  -13.6157   11.4075    0.0042 C   0  0  0  0  0  0  0  0  0  0  0  0
  -12.4670   12.1721   -0.2054 C   0  0  0  0  0  0  0  0  0  0  0  0
   -7.6034   16.0435   -1.5223 C   0  0  0  0  0  0  0  0  0  0  0  0
   -7.6744   15.6743   -3.9537 C   0  0  0  0  0  0  0  0  0  0  0  0
   -7.8593   16.4749   -2.8962 N   0  0  0  0  0  0  0  0  0  0  0  0
   -7.2763   14.5099   -3.8691 O   0  0  0  0  0  0  0  0  0  0  0  0
   -8.1811   17.3926   -3.0501 H   0  0  0  0  0  0  0  0  0  0  0  0
   -7.9963   16.3313   -5.2816 C   0  0  0  0  0  0  0  0  0  0  0  0
   -4.3746   17.2800   -7.4199 C   0  0  0  0  0  0  0  0  0  0  0  0
   -6.2615   15.6664   -6.9136 C   0  0  0  0  0  0  0  0  0  0  0  0
   -6.7646   16.7017   -6.0121 N   0  0  0  0  0  0  0  0  0  0  0  0
   -6.1849   17.8938   -5.8362 C   0  0  0  0  0  0  0  0  0  0  0  0
   -4.9764   18.0756   -6.3620 N   0  0  0  0  0  0  0  0  0  0  0  0
   -6.7242   18.7924   -5.2308 O   0  0  0  0  0  0  0  0  0  0  0  0
   -4.7519   15.8503   -7.0574 C   0  0  0  0  0  0  0  0  0  0  0  0
   -4.4396   18.8178   -6.0011 H   0  0  0  0  0  0  0  0  0  0  0  0
   -8.9321   15.5008   -6.1882 C   0  0  0  0  0  0  0  0  0  0  0  0
  -10.2803   15.2343   -5.5315 C   0  0  0  0  0  0  0  0  0  0  0  0
   -9.1876   16.1659   -7.5394 C   0  0  0  0  0  0  0  0  0  0  0  0
   -7.3618   17.3112   -0.7035 C   0  0  0  0  0  0  0  0  0  0  0  0
   -3.9780   18.9861   -0.1958 C   0  0  0  0  0  0  0  0  0  0  0  0
   -3.2258   17.9295    0.3151 C   0  0  0  0  0  0  0  0  0  0  0  0
   -3.8162   16.6798    0.4934 C   0  0  0  0  0  0  0  0  0  0  0  0
   -5.1560   16.4921    0.1566 C   0  0  0  0  0  0  0  0  0  0  0  0
   -5.9133   17.5502   -0.3433 C   0  0  0  0  0  0  0  0  0  0  0  0
   -5.3177   18.7958   -0.5288 C   0  0  0  0  0  0  0  0  0  0  0  0
 33 37  1  0  0  0
 33 39  1  0  0  0
 34 35  1  0  0  0
 34 39  1  0  0  0
 35 36  1  0  0  0
 35 32  1  0  0  0
 36 37  1  0  0  0
 36 38  2  0  0  0
 21 22  2  0  0  0
 21 26  1  0  0  0
 21 20  1  0  0  0
 22 23  1  0  0  0
 23 24  2  0  0  0
 24 25  1  0  0  0
 25 26  2  0  0  0
 32 28  1  0  0  0
 32 41  1  0  0  0
 28 29  1  0  0  0
 28 30  2  0  0  0
 29 27  1  0  0  0
 27 44  1  0  0  0
 27  1  1  0  0  0
 41 42  1  0  0  0
 41 43  1  0  0  0
 45 46  2  0  0  0
 45 50  1  0  0  0
 46 47  1  0  0  0
 47 48  2  0  0  0
 48 49  1  0  0  0
 49 50  2  0  0  0
 49 44  1  0  0  0
  1  2  1  0  0  0
  2  5  1  0  0  0
  2  3  1  0  0  0
  5  6  1  0  0  0
  5 20  1  0  0  0
  6  7  1  0  0  0
  7 10  1  0  0  0
  7  8  2  0  0  0
 10 11  1  0  0  0
 11 12  1  0  0  0
 12 13  2  0  0  0
 12 17  1  0  0  0
 13 14  1  0  0  0
 13 19  1  0  0  0
 14 15  2  0  0  0
 15 16  1  0  0  0
 16 17  2  0  0  0
 17 18  1  0  0  0
 37 40  1  0  0  0
 29 31  1  0  0  0
  6  9  1  0  0  0
  3  4  1  0  0  0
M  END
> <minimizedAffinity>
-9.58438

$$$$
2RKG_AB1_B_501


 50 53  0  0  0  0  0  0  0  0999 V2000
   -9.0441   16.6721    0.1853 C   0  0  0  0  0  0  0  0  0  0  0  0
  -10.5355   16.6420    0.5014 C   0  0  0  0  0  0  0  0  0  0  0  0
  -10.7631   17.5051    1.6128 O   0  0  0  0  0  0  0  0  0  0  0  0
  -10.2836   17.1695    2.3864 H   0  0  0  0  0  0  0  0  0  0  0  0
  -11.1122   15.2600    0.8167 C   0  0  0  0  0  0  0  0  0  0  0  0
  -11.3547   15.1621    2.2507 N   0  0  0  0  0  0  0  0  0  0  0  0
  -10.6220   14.3239    2.9847 C   0  0  0  0  0  0  0  0  0  0  0  0
   -9.7296   13.6381    2.5109 O   0  0  0  0  0  0  0  0  0  0  0  0
  -12.0541   15.7106    2.6741 H   0  0  0  0  0  0  0  0  0  0  0  0
  -10.9008   14.2215    4.4659 C   0  0  0  0  0  0  0  0  0  0  0  0
  -10.7726   15.4711    5.1499 O   0  0  0  0  0  0  0  0  0  0  0  0
   -9.7432   15.6646    6.0404 C   0  0  0  0  0  0  0  0  0  0  0  0
   -8.5390   16.2649    5.6404 C   0  0  0  0  0  0  0  0  0  0  0  0
   -7.5140   16.4475    6.5638 C   0  0  0  0  0  0  0  0  0  0  0  0
   -7.6734   16.0441    7.8861 C   0  0  0  0  0  0  0  0  0  0  0  0
   -8.8647   15.4477    8.2875 C   0  0  0  0  0  0  0  0  0  0  0  0
   -9.8972   15.2557    7.3727 C   0  0  0  0  0  0  0  0  0  0  0  0
  -11.1660   14.6082    7.8639 C   0  0  0  0  0  0  0  0  0  0  0  0
   -8.2985   16.7368    4.2282 C   0  0  0  0  0  0  0  0  0  0  0  0
  -12.4983   15.1344    0.1841 C   0  0  0  0  0  0  0  0  0  0  0  0
  -13.1909   13.8164    0.4825 C   0  0  0  0  0  0  0  0  0  0  0  0
  -14.2860   13.8077    1.3478 C   0  0  0  0  0  0  0  0  0  0  0  0
  -14.9442   12.6110    1.6379 C   0  0  0  0  0  0  0  0  0  0  0  0
  -14.5133   11.4174    1.0557 C   0  0  0  0  0  0  0  0  0  0  0  0
  -13.4216   11.4293    0.1812 C   0  0  0  0  0  0  0  0  0  0  0  0
  -12.7582   12.6242   -0.1017 C   0  0  0  0  0  0  0  0  0  0  0  0
   -8.6928   16.7388   -1.2987 C   0  0  0  0  0  0  0  0  0  0  0  0
   -6.5010   17.7914   -0.9229 C   0  0  0  0  0  0  0  0  0  0  0  0
   -7.2332   16.7709   -1.3876 N   0  0  0  0  0  0  0  0  0  0  0  0
   -6.9835   18.7889   -0.3811 O   0  0  0  0  0  0  0  0  0  0  0  0
   -6.7695   16.0102   -1.8066 H   0  0  0  0  0  0  0  0  0  0  0  0
   -5.0089   17.6156   -1.1263 C   0  0  0  0  0  0  0  0  0  0  0  0
   -4.0892   17.8149   -5.3339 C   0  0  0  0  0  0  0  0  0  0  0  0
   -5.4127   18.6442   -3.3386 C   0  0  0  0  0  0  0  0  0  0  0  0
   -4.6507   17.6686   -2.5605 N   0  0  0  0  0  0  0  0  0  0  0  0
   -3.7039   16.8734   -3.0696 C   0  0  0  0  0  0  0  0  0  0  0  0
   -3.5828   16.8280   -4.3937 N   0  0  0  0  0  0  0  0  0  0  0  0
   -2.9670   16.2154   -2.3704 O   0  0  0  0  0  0  0  0  0  0  0  0
   -5.4669   18.1626   -4.7872 C   0  0  0  0  0  0  0  0  0  0  0  0
   -3.1060   16.0543   -4.7721 H   0  0  0  0  0  0  0  0  0  0  0  0
   -4.1391   18.6028   -0.3163 C   0  0  0  0  0  0  0  0  0  0  0  0
   -3.1102   17.8859    0.5482 C   0  0  0  0  0  0  0  0  0  0  0  0
   -3.3979   19.6014   -1.2033 C   0  0  0  0  0  0  0  0  0  0  0  0
   -9.1373   15.3986   -1.8834 C   0  0  0  0  0  0  0  0  0  0  0  0
  -10.8709   15.4863   -5.2746 C   0  0  0  0  0  0  0  0  0  0  0  0
   -9.7786   15.4407   -6.1394 C   0  0  0  0  0  0  0  0  0  0  0  0
   -8.4859   15.3820   -5.6221 C   0  0  0  0  0  0  0  0  0  0  0  0
   -8.2922   15.3658   -4.2416 C   0  0  0  0  0  0  0  0  0  0  0  0
   -9.3824   15.4233   -3.3749 C   0  0  0  0  0  0  0  0  0  0  0  0
  -10.6737   15.4728   -3.8952 C   0  0  0  0  0  0  0  0  0  0  0  0
 33 37  1  0  0  0
 33 39  1  0  0  0
 34 35  1  0  0  0
 34 39  1  0  0  0
 35 36  1  0  0  0
 35 32  1  0  0  0
 36 37  1  0  0  0
 36 38  2  0  0  0
 21 22  2  0  0  0
 21 26  1  0  0  0
 21 20  1  0  0  0
 22 23  1  0  0  0
 23 24  2  0  0  0
 24 25  1  0  0  0
 25 26  2  0  0  0
 32 28  1  0  0  0
 32 41  1  0  0  0
 28 29  1  0  0  0
 28 30  2  0  0  0
 29 27  1  0  0  0
 27 44  1  0  0  0
 27  1  1  0  0  0
 41 42  1  0  0  0
 41 43  1  0  0  0
 45 46  2  0  0  0
 45 50  1  0  0  0
 46 47  1  0  0  0
 47 48  2  0  0  0
 48 49  1  0  0  0
 49 50  2  0  0  0
 49 44  1  0  0  0
  1  2  1  0  0  0
  2  5  1  0  0  0
  2  3  1  0  0  0
  5  6  1  0  0  0
  5 20  1  0  0  0
  6  7  1  0  0  0
  7 10  1  0  0  0
  7  8  2  0  0  0
 10 11  1  0  0  0
 11 12  1  0  0  0
 12 13  2  0  0  0
 12 17  1  0  0  0
 13 14  1  0  0  0
 13 19  1  0  0  0
 14 15  2  0  0  0
 15 16  1  0  0  0
 16 17  2  0  0  0
 17 18  1  0  0  0
 37 40  1  0  0  0
 29 31  1  0  0  0
  6  9  1  0  0  0
  3  4  1  0  0  0
M  END
> <minimizedAffinity>
-9.55085

$$$$
2RKG_AB1_B_501


 50 53  0  0  0  0  0  0  0  0999 V2000
  -10.4165   15.4939    1.2893 C   0  0  0  0  0  0  0  0  0  0  0  0
   -9.6361   16.7554    0.9365 C   0  0  0  0  0  0  0  0  0  0  0  0
  -10.4853   17.5879    0.1505 O   0  0  0  0  0  0  0  0  0  0  0  0
  -10.7110   17.1317   -0.6752 H   0  0  0  0  0  0  0  0  0  0  0  0
   -8.3244   16.5268    0.1821 C   0  0  0  0  0  0  0  0  0  0  0  0
   -8.6188   16.3157   -1.2298 N   0  0  0  0  0  0  0  0  0  0  0  0
   -8.4092   15.1154   -1.7717 C   0  0  0  0  0  0  0  0  0  0  0  0
   -7.9955   14.1633   -1.1287 O   0  0  0  0  0  0  0  0  0  0  0  0
   -8.9696   17.0535   -1.7791 H   0  0  0  0  0  0  0  0  0  0  0  0
   -8.7015   14.9207   -3.2410 C   0  0  0  0  0  0  0  0  0  0  0  0
   -9.0288   16.1389   -3.9155 O   0  0  0  0  0  0  0  0  0  0  0  0
   -8.4058   16.4580   -5.0987 C   0  0  0  0  0  0  0  0  0  0  0  0
   -7.1785   17.1394   -5.1134 C   0  0  0  0  0  0  0  0  0  0  0  0
   -6.5712   17.4497   -6.3265 C   0  0  0  0  0  0  0  0  0  0  0  0
   -7.1680   17.0851   -7.5296 C   0  0  0  0  0  0  0  0  0  0  0  0
   -8.3848   16.4105   -7.5206 C   0  0  0  0  0  0  0  0  0  0  0  0
   -9.0052   16.0970   -6.3136 C   0  0  0  0  0  0  0  0  0  0  0  0
  -10.3198   15.3624   -6.3641 C   0  0  0  0  0  0  0  0  0  0  0  0
   -6.4678   17.5565   -3.8502 C   0  0  0  0  0  0  0  0  0  0  0  0
   -7.4934   17.8096    0.2127 C   0  0  0  0  0  0  0  0  0  0  0  0
   -6.0161   17.5894   -0.0604 C   0  0  0  0  0  0  0  0  0  0  0  0
   -5.2469   18.6573   -0.5253 C   0  0  0  0  0  0  0  0  0  0  0  0
   -3.8854   18.4847   -0.7819 C   0  0  0  0  0  0  0  0  0  0  0  0
   -3.2853   17.2427   -0.5661 C   0  0  0  0  0  0  0  0  0  0  0  0
   -4.0555   16.1760   -0.0911 C   0  0  0  0  0  0  0  0  0  0  0  0
   -5.4184   16.3462    0.1569 C   0  0  0  0  0  0  0  0  0  0  0  0
  -10.8371   15.3744    2.7518 C   0  0  0  0  0  0  0  0  0  0  0  0
  -11.9532   13.2525    2.1999 C   0  0  0  0  0  0  0  0  0  0  0  0
  -11.9726   14.4534    2.7923 N   0  0  0  0  0  0  0  0  0  0  0  0
  -10.9859   12.8145    1.5723 O   0  0  0  0  0  0  0  0  0  0  0  0
  -12.7854   14.7278    3.2754 H   0  0  0  0  0  0  0  0  0  0  0  0
  -13.2404   12.4685    2.3651 C   0  0  0  0  0  0  0  0  0  0  0  0
  -13.6529   11.1442    6.4474 C   0  0  0  0  0  0  0  0  0  0  0  0
  -13.6799   13.0133    4.7368 C   0  0  0  0  0  0  0  0  0  0  0  0
  -13.3953   11.9726    3.7501 N   0  0  0  0  0  0  0  0  0  0  0  0
  -13.2763   10.6726    4.0395 C   0  0  0  0  0  0  0  0  0  0  0  0
  -13.2200   10.3293    5.3236 N   0  0  0  0  0  0  0  0  0  0  0  0
  -13.2275    9.8206    3.1814 O   0  0  0  0  0  0  0  0  0  0  0  0
  -13.1604   12.5405    6.0933 C   0  0  0  0  0  0  0  0  0  0  0  0
  -12.8509    9.4408    5.5324 H   0  0  0  0  0  0  0  0  0  0  0  0
  -14.5079   13.2320    1.9206 C   0  0  0  0  0  0  0  0  0  0  0  0
  -14.4991   13.5407    0.4290 C   0  0  0  0  0  0  0  0  0  0  0  0
  -15.7955   12.4742    2.2389 C   0  0  0  0  0  0  0  0  0  0  0  0
   -9.6768   14.6694    3.4534 C   0  0  0  0  0  0  0  0  0  0  0  0
   -7.7613   17.0688    5.7089 C   0  0  0  0  0  0  0  0  0  0  0  0
   -8.2155   16.6792    6.9679 C   0  0  0  0  0  0  0  0  0  0  0  0
   -9.1396   15.6423    7.0821 C   0  0  0  0  0  0  0  0  0  0  0  0
   -9.6025   14.9975    5.9359 C   0  0  0  0  0  0  0  0  0  0  0  0
   -9.1588   15.3932    4.6752 C   0  0  0  0  0  0  0  0  0  0  0  0
   -8.2282   16.4241    4.5651 C   0  0  0  0  0  0  0  0  0  0  0  0
 33 37  1  0  0  0
 33 39  1  0  0  0
 34 35  1  0  0  0
 34 39  1  0  0  0
 35 36  1  0  0  0
 35 32  1  0  0  0
 36 37  1  0  0  0
 36 38  2  0  0  0
 21 22  2  0  0  0
 21 26  1  0  0  0
 21 20  1  0  0  0
 22 23  1  0  0  0
 23 24  2  0  0  0
 24 25  1  0  0  0
 25 26  2  0  0  0
 32 28  1  0  0  0
 32 41  1  0  0  0
 28 29  1  0  0  0
 28 30  2  0  0  0
 29 27  1  0  0  0
 27 44  1  0  0  0
 27  1  1  0  0  0
 41 42  1  0  0  0
 41 43  1  0  0  0
 45 46  2  0  0  0
 45 50  1  0  0  0
 46 47  1  0  0  0
 47 48  2  0  0  0
 48 49  1  0  0  0
 49 50  2  0  0  0
 49 44  1  0  0  0
  1  2  1  0  0  0
  2  5  1  0  0  0
  2  3  1  0  0  0
  5  6  1  0  0  0
  5 20  1  0  0  0
  6  7  1  0  0  0
  7 10  1  0  0  0
  7  8  2  0  0  0
 10 11  1  0  0  0
 11 12  1  0  0  0
 12 13  2  0  0  0
 12 17  1  0  0  0
 13 14  1  0  0  0
 13 19  1  0  0  0
 14 15  2  0  0  0
 15 16  1  0  0  0
 16 17  2  0  0  0
 17 18  1  0  0  0
 37 40  1  0  0  0
 29 31  1  0  0  0
  6  9  1  0  0  0
  3  4  1  0  0  0
M  END
> <minimizedAffinity>
-9.43019

$$$$
2RKG_AB1_B_501


 50 53  0  0  0  0  0  0  0  0999 V2000
  -10.7179   15.6585    0.9861 C   0  0  0  0  0  0  0  0  0  0  0  0
   -9.7929   16.8661    0.8800 C   0  0  0  0  0  0  0  0  0  0  0  0
  -10.5111   17.9093    0.2259 O   0  0  0  0  0  0  0  0  0  0  0  0
  -10.7439   17.6275   -0.6726 H   0  0  0  0  0  0  0  0  0  0  0  0
   -8.4781   16.6229    0.1358 C   0  0  0  0  0  0  0  0  0  0  0  0
   -8.7656   16.3948   -1.2749 N   0  0  0  0  0  0  0  0  0  0  0  0
   -8.4986   15.2054   -1.8154 C   0  0  0  0  0  0  0  0  0  0  0  0
   -8.0366   14.2761   -1.1719 O   0  0  0  0  0  0  0  0  0  0  0  0
   -9.1540   17.1135   -1.8244 H   0  0  0  0  0  0  0  0  0  0  0  0
   -8.7850   14.9938   -3.2835 C   0  0  0  0  0  0  0  0  0  0  0  0
   -9.0570   16.2107   -3.9844 O   0  0  0  0  0  0  0  0  0  0  0  0
   -8.4265   16.4720   -5.1777 C   0  0  0  0  0  0  0  0  0  0  0  0
   -8.9869   16.0683   -6.3998 C   0  0  0  0  0  0  0  0  0  0  0  0
   -8.3257   16.3462   -7.5924 C   0  0  0  0  0  0  0  0  0  0  0  0
   -7.1123   17.0277   -7.5859 C   0  0  0  0  0  0  0  0  0  0  0  0
   -6.5520   17.4291   -6.3772 C   0  0  0  0  0  0  0  0  0  0  0  0
   -7.2016   17.1541   -5.1762 C   0  0  0  0  0  0  0  0  0  0  0  0
   -6.5504   17.6158   -3.8982 C   0  0  0  0  0  0  0  0  0  0  0  0
  -10.3027   15.3361   -6.4856 C   0  0  0  0  0  0  0  0  0  0  0  0
   -7.6423   17.9028    0.1545 C   0  0  0  0  0  0  0  0  0  0  0  0
   -6.1577   17.6685   -0.0617 C   0  0  0  0  0  0  0  0  0  0  0  0
   -5.3677   18.7192   -0.5307 C   0  0  0  0  0  0  0  0  0  0  0  0
   -3.9992   18.5335   -0.7358 C   0  0  0  0  0  0  0  0  0  0  0  0
   -3.4133   17.2957   -0.4641 C   0  0  0  0  0  0  0  0  0  0  0  0
   -4.2047   16.2465    0.0149 C   0  0  0  0  0  0  0  0  0  0  0  0
   -5.5743   16.4296    0.2114 C   0  0  0  0  0  0  0  0  0  0  0  0
  -10.8683   15.0728    2.3877 C   0  0  0  0  0  0  0  0  0  0  0  0
  -12.5549   13.2898    2.5598 C   0  0  0  0  0  0  0  0  0  0  0  0
  -11.3226   13.6923    2.2235 N   0  0  0  0  0  0  0  0  0  0  0  0
  -13.4137   14.0379    3.0335 O   0  0  0  0  0  0  0  0  0  0  0  0
  -10.6961   13.0310    1.8500 H   0  0  0  0  0  0  0  0  0  0  0  0
  -12.8062   11.8158    2.3094 C   0  0  0  0  0  0  0  0  0  0  0  0
  -15.8275   10.2532    4.9589 C   0  0  0  0  0  0  0  0  0  0  0  0
  -14.9795   10.6747    2.6085 C   0  0  0  0  0  0  0  0  0  0  0  0
  -13.8100   11.2729    3.2505 N   0  0  0  0  0  0  0  0  0  0  0  0
  -13.6304   11.3427    4.5737 C   0  0  0  0  0  0  0  0  0  0  0  0
  -14.6609   11.0263    5.3535 N   0  0  0  0  0  0  0  0  0  0  0  0
  -12.5753   11.6716    5.0669 O   0  0  0  0  0  0  0  0  0  0  0  0
  -16.1607   10.7831    3.5711 C   0  0  0  0  0  0  0  0  0  0  0  0
  -14.6308   11.3454    6.2844 H   0  0  0  0  0  0  0  0  0  0  0  0
  -13.1947   11.4786    0.8525 C   0  0  0  0  0  0  0  0  0  0  0  0
  -14.0438   12.5717    0.2168 C   0  0  0  0  0  0  0  0  0  0  0  0
  -11.9797   11.2429   -0.0429 C   0  0  0  0  0  0  0  0  0  0  0  0
   -9.4507   15.0024    2.9543 C   0  0  0  0  0  0  0  0  0  0  0  0
  -10.1519   15.6374    6.6446 C   0  0  0  0  0  0  0  0  0  0  0  0
   -9.0648   16.4370    6.9941 C   0  0  0  0  0  0  0  0  0  0  0  0
   -8.1094   16.7672    6.0347 C   0  0  0  0  0  0  0  0  0  0  0  0
   -8.2479   16.2985    4.7291 C   0  0  0  0  0  0  0  0  0  0  0  0
   -9.3278   15.4891    4.3802 C   0  0  0  0  0  0  0  0  0  0  0  0
  -10.2859   15.1684    5.3393 C   0  0  0  0  0  0  0  0  0  0  0  0
 33 37  1  0  0  0
 33 39  1  0  0  0
 34 35  1  0  0  0
 34 39  1  0  0  0
 35 36  1  0  0  0
 35 32  1  0  0  0
 36 37  1  0  0  0
 36 38  2  0  0  0
 21 22  2  0  0  0
 21 26  1  0  0  0
 21 20  1  0  0  0
 22 23  1  0  0  0
 23 24  2  0  0  0
 24 25  1  0  0  0
 25 26  2  0  0  0
 32 28  1  0  0  0
 32 41  1  0  0  0
 28 29  1  0  0  0
 28 30  2  0  0  0
 29 27  1  0  0  0
 27 44  1  0  0  0
 27  1  1  0  0  0
 41 42  1  0  0  0
 41 43  1  0  0  0
 45 46  2  0  0  0
 45 50  1  0  0  0
 46 47  1  0  0  0
 47 48  2  0  0  0
 48 49  1  0  0  0
 49 50  2  0  0  0
 49 44  1  0  0  0
  1  2  1  0  0  0
  2  5  1  0  0  0
  2  3  1  0  0  0
  5  6  1  0  0  0
  5 20  1  0  0  0
  6  7  1  0  0  0
  7 10  1  0  0  0
  7  8  2  0  0  0
 10 11  1  0  0  0
 11 12  1  0  0  0
 12 13  2  0  0  0
 12 17  1  0  0  0
 13 14  1  0  0  0
 13 19  1  0  0  0
 14 15  2  0  0  0
 15 16  1  0  0  0
 16 17  2  0  0  0
 17 18  1  0  0  0
 37 40  1  0  0  0
 29 31  1  0  0  0
  6  9  1  0  0  0
  3  4  1  0  0  0
M  END
> <minimizedAffinity>
-9.41966

$$$$
2RKG_AB1_B_501


 50 53  0  0  0  0  0  0  0  0999 V2000
   -7.5939   16.3011   -1.5418 C   0  0  0  0  0  0  0  0  0  0  0  0
   -9.0556   16.5296   -1.1731 C   0  0  0  0  0  0  0  0  0  0  0  0
   -9.1460   17.7874   -0.5085 O   0  0  0  0  0  0  0  0  0  0  0  0
   -8.6289   17.7577    0.3116 H   0  0  0  0  0  0  0  0  0  0  0  0
   -9.6862   15.4516   -0.2887 C   0  0  0  0  0  0  0  0  0  0  0  0
   -9.3930   15.7508    1.1075 N   0  0  0  0  0  0  0  0  0  0  0  0
   -8.5772   14.9494    1.7933 C   0  0  0  0  0  0  0  0  0  0  0  0
   -8.0386   13.9728    1.2960 O   0  0  0  0  0  0  0  0  0  0  0  0
   -9.7943   16.5386    1.5407 H   0  0  0  0  0  0  0  0  0  0  0  0
   -8.3006   15.2644    3.2447 C   0  0  0  0  0  0  0  0  0  0  0  0
   -9.3282   16.0500    3.8553 O   0  0  0  0  0  0  0  0  0  0  0  0
   -9.8787   15.6521    5.0506 C   0  0  0  0  0  0  0  0  0  0  0  0
   -9.2953   16.0127    6.2754 C   0  0  0  0  0  0  0  0  0  0  0  0
   -9.8745   15.5950    7.4699 C   0  0  0  0  0  0  0  0  0  0  0  0
  -11.0337   14.8250    7.4623 C   0  0  0  0  0  0  0  0  0  0  0  0
  -11.6153   14.4641    6.2510 C   0  0  0  0  0  0  0  0  0  0  0  0
  -11.0438   14.8723    5.0481 C   0  0  0  0  0  0  0  0  0  0  0  0
  -11.7187   14.4553    3.7671 C   0  0  0  0  0  0  0  0  0  0  0  0
   -8.0464   16.8537    6.3620 C   0  0  0  0  0  0  0  0  0  0  0  0
  -11.2090   15.5426   -0.3886 C   0  0  0  0  0  0  0  0  0  0  0  0
  -11.9259   14.2598   -0.0067 C   0  0  0  0  0  0  0  0  0  0  0  0
  -13.2582   14.3253    0.4042 C   0  0  0  0  0  0  0  0  0  0  0  0
  -13.9435   13.1615    0.7583 C   0  0  0  0  0  0  0  0  0  0  0  0
  -13.2995   11.9244    0.6947 C   0  0  0  0  0  0  0  0  0  0  0  0
  -11.9672   11.8593    0.2736 C   0  0  0  0  0  0  0  0  0  0  0  0
  -11.2796   13.0237   -0.0718 C   0  0  0  0  0  0  0  0  0  0  0  0
   -7.2398   16.5691   -3.0023 C   0  0  0  0  0  0  0  0  0  0  0  0
   -5.2277   17.7759   -3.7426 C   0  0  0  0  0  0  0  0  0  0  0  0
   -5.7926   16.7740   -3.0567 N   0  0  0  0  0  0  0  0  0  0  0  0
   -5.8679   18.6118   -4.3851 O   0  0  0  0  0  0  0  0  0  0  0  0
   -5.2092   16.1490   -2.5685 H   0  0  0  0  0  0  0  0  0  0  0  0
   -3.7137   17.7928   -3.6646 C   0  0  0  0  0  0  0  0  0  0  0  0
   -1.9609   19.3151   -7.2978 C   0  0  0  0  0  0  0  0  0  0  0  0
   -2.2708   19.4582   -4.7869 C   0  0  0  0  0  0  0  0  0  0  0  0
   -3.1143   18.2724   -4.9290 N   0  0  0  0  0  0  0  0  0  0  0  0
   -3.3480   17.6489   -6.0886 C   0  0  0  0  0  0  0  0  0  0  0  0
   -2.9501   18.2533   -7.2050 N   0  0  0  0  0  0  0  0  0  0  0  0
   -3.8933   16.5700   -6.1445 O   0  0  0  0  0  0  0  0  0  0  0  0
   -2.2839   20.2156   -6.1134 C   0  0  0  0  0  0  0  0  0  0  0  0
   -3.3638   17.9538   -8.0467 H   0  0  0  0  0  0  0  0  0  0  0  0
   -3.1506   18.5875   -2.4652 C   0  0  0  0  0  0  0  0  0  0  0  0
   -4.1654   19.5744   -1.9027 C   0  0  0  0  0  0  0  0  0  0  0  0
   -2.6870   17.6841   -1.3239 C   0  0  0  0  0  0  0  0  0  0  0  0
   -7.5241   15.2598   -3.7376 C   0  0  0  0  0  0  0  0  0  0  0  0
  -10.0528   15.1430   -6.5846 C   0  0  0  0  0  0  0  0  0  0  0  0
   -9.3394   15.7663   -7.6073 C   0  0  0  0  0  0  0  0  0  0  0  0
   -8.0437   16.2219   -7.3717 C   0  0  0  0  0  0  0  0  0  0  0  0
   -7.4662   16.0488   -6.1146 C   0  0  0  0  0  0  0  0  0  0  0  0
   -8.1819   15.4365   -5.0870 C   0  0  0  0  0  0  0  0  0  0  0  0
   -9.4736   14.9741   -5.3284 C   0  0  0  0  0  0  0  0  0  0  0  0
 33 37  1  0  0  0
 33 39  1  0  0  0
 34 35  1  0  0  0
 34 39  1  0  0  0
 35 36  1  0  0  0
 35 32  1  0  0  0
 36 37  1  0  0  0
 36 38  2  0  0  0
 21 22  2  0  0  0
 21 26  1  0  0  0
 21 20  1  0  0  0
 22 23  1  0  0  0
 23 24  2  0  0  0
 24 25  1  0  0  0
 25 26  2  0  0  0
 32 28  1  0  0  0
 32 41  1  0  0  0
 28 29  1  0  0  0
 28 30  2  0  0  0
 29 27  1  0  0  0
 27 44  1  0  0  0
 27  1  1  0  0  0
 41 42  1  0  0  0
 41 43  1  0  0  0
 45 46  2  0  0  0
 45 50  1  0  0  0
 46 47  1  0  0  0
 47 48  2  0  0  0
 48 49  1  0  0  0
 49 50  2  0  0  0
 49 44  1  0  0  0
  1  2  1  0  0  0
  2  5  1  0  0  0
  2  3  1  0  0  0
  5  6  1  0  0  0
  5 20  1  0  0  0
  6  7  1  0  0  0
  7 10  1  0  0  0
  7  8  2  0  0  0
 10 11  1  0  0  0
 11 12  1  0  0  0
 12 13  2  0  0  0
 12 17  1  0  0  0
 13 14  1  0  0  0
 13 19  1  0  0  0
 14 15  2  0  0  0
 15 16  1  0  0  0
 16 17  2  0  0  0
 17 18  1  0  0  0
 37 40  1  0  0  0
 29 31  1  0  0  0
  6  9  1  0  0  0
  3  4  1  0  0  0
M  END
> <minimizedAffinity>
-9.31446

$$$$
