4UA8_MLR_A_501
  RCSB PDB12061715043D
Coordinates from PDB:4UA8:A:501 Model:1 without hydrogens
 34 36  0  0  0  0            999 V2000
  -34.7210    8.5310   -5.8200   C 0  0  0  0  0  0  0  0  0  0  0  0
  -34.4890    9.3370   -4.5690   C 0  0  0  0  0  0  0  0  0  0  0  0
  -33.0780    9.7720   -4.4540   C 0  0  0  0  0  0  0  0  0  0  0  0
  -32.1720    8.5750   -4.4660   C 0  0  0  0  0  0  0  0  0  0  0  0
  -32.3690    7.7790   -5.7310   C 0  0  0  0  0  0  0  0  0  0  0  0
  -31.6290    6.4680   -5.6710   C 0  0  0  0  0  0  0  0  0  0  0  0
  -34.5810    9.2900   -6.9580   O 0  0  0  0  0  0  0  0  0  0  0  0
  -35.4300   10.4570   -4.5310   O 0  0  0  0  0  0  0  0  0  0  0  0
  -32.9520   10.4560   -3.1740   O 0  0  0  0  0  0  0  0  0  0  0  0
  -30.7930    9.0200   -4.3700   O 0  0  0  0  0  0  0  0  0  0  0  0
  -33.7690    7.4130   -5.8610   O 0  0  0  0  0  0  0  0  0  0  0  0
  -31.8080    5.7680   -6.9090   O 0  0  0  0  0  0  0  0  0  0  0  0
  -30.1300    8.6210   -3.1800   C 0  0  0  0  0  0  0  0  0  0  0  0
  -29.4940    9.7970   -2.5450   C 0  0  0  0  0  0  0  0  0  0  0  0
  -28.4400   10.3630   -3.4310   C 0  0  0  0  0  0  0  0  0  0  0  0
  -27.4200    9.3390   -3.8310   C 0  0  0  0  0  0  0  0  0  0  0  0
  -28.0920    8.1170   -4.3990   C 0  0  0  0  0  0  0  0  0  0  0  0
  -27.0860    6.9830   -4.5320   C 0  0  0  0  0  0  0  0  0  0  0  0
  -30.5160   10.7820   -2.2300   O 0  0  0  0  0  0  0  0  0  0  0  0
  -27.7700   11.4810   -2.7850   O 0  0  0  0  0  0  0  0  0  0  0  0
  -26.4880    9.8860   -4.8180   O 0  0  0  0  0  0  0  0  0  0  0  0
  -29.1230    7.6240   -3.5180   O 0  0  0  0  0  0  0  0  0  0  0  0
  -27.6810    5.8390   -5.1350   O 0  0  0  0  0  0  0  0  0  0  0  0
  -25.3240   10.2820   -4.2930   C 0  0  0  0  0  0  0  0  0  0  0  0
  -24.8270   11.5950   -4.7810   C 0  0  0  0  0  0  0  0  0  0  0  0
  -24.6030   11.5670   -6.2080   C 0  0  0  0  0  0  0  0  0  0  0  0
  -23.5920   10.6680   -6.6820   C 0  0  0  0  0  0  0  0  0  0  0  0
  -24.0420    9.2820   -6.2610   C 0  0  0  0  0  0  0  0  0  0  0  0
  -23.0800    8.2180   -6.5370   C 0  0  0  0  0  0  0  0  0  0  0  0
  -25.8720   12.5140   -4.3310   O 0  0  0  0  0  0  0  0  0  0  0  0
  -24.2450   13.0270   -6.6230   O 0  0  0  0  0  0  0  0  0  0  0  0
  -23.4420   10.6390   -8.1360   O 0  0  0  0  0  0  0  0  0  0  0  0
  -24.2050    9.2210   -4.7140   O 0  0  0  0  0  0  0  0  0  0  0  0
  -23.6490    6.8880   -6.3680   O 0  0  0  0  0  0  0  0  0  0  0  0
  1  2  1  0  0  0  0
  1  7  1  0  0  0  0
  1 11  1  0  0  0  0
  2  3  1  0  0  0  0
  2  8  1  0  0  0  0
  3  4  1  0  0  0  0
  3  9  1  0  0  0  0
  4  5  1  0  0  0  0
  4 10  1  0  0  0  0
  5  6  1  0  0  0  0
  5 11  1  0  0  0  0
  6 12  1  0  0  0  0
 10 13  1  0  0  0  0
 13 14  1  0  0  0  0
 13 22  1  0  0  0  0
 14 15  1  0  0  0  0
 14 19  1  0  0  0  0
 15 16  1  0  0  0  0
 15 20  1  0  0  0  0
 16 17  1  0  0  0  0
 16 21  1  0  0  0  0
 17 18  1  0  0  0  0
 17 22  1  0  0  0  0
 18 23  1  0  0  0  0
 21 24  1  0  0  0  0
 24 25  1  0  0  0  0
 24 33  1  0  0  0  0
 25 26  1  0  0  0  0
 25 30  1  0  0  0  0
 26 27  1  0  0  0  0
 26 31  1  0  0  0  0
 27 28  1  0  0  0  0
 27 32  1  0  0  0  0
 28 29  1  0  0  0  0
 28 33  1  0  0  0  0
 29 34  1  0  0  0  0
A    1
C1A
A    2
C2A
A    3
C3A
A    4
C4A
A    5
C5A
A    6
C6A
A    7
O1X
A    8
O2A
A    9
O3A
A   10
O4A
A   11
O5A
A   12
O6A
A   13
C1B
A   14
C2B
A   15
C3B
A   16
C4B
A   17
C5B
A   18
C6B
A   19
O2B
A   20
O3B
A   21
O4B
A   22
O5B
A   23
O6B
A   24
C1C
A   25
C2C
A   26
C3C
A   27
C4C
A   28
C5C
A   29
C6C
A   30
O2C
A   31
O3C
A   32
O4C
A   33
O5C
A   34
O6C
M  END
>  <InstanceId>
4UA8_MLR_A_501

>  <ChemCompId>
MLR

>  <PdbId>
4UA8

>  <ChainId>
A

>  <ResidueNumber>
501

>  <InsertionCode>


>  <Model>
1

>  <AltIds>


>  <MissingHeavyAtoms>
0

>  <ObservedFormula>
C18 O16

>  <Name>
MALTOTRIOSE

>  <SystematicName>
(2S,3R,4R,5S,6R)-5-[(2R,3R,4R,5S,6R)-3,4-dihydroxy-6-(hydroxymethyl)-5-[(2R,3R,4S,5S,6R)-3,4,5-trihydroxy-6-(hydroxymethyl)oxan-2-yl]oxy-oxan-2-yl]oxy-6-(hydroxymethyl)oxane-2,3,4-triol

>  <Synonyms>
AMYLOTRIOSE

>  <Type>
NON-POLYMER

>  <Formula>
C18 H32 O16

>  <MolecularWeight>
504.437

>  <ModifiedDate>
2011-06-04

>  <Parent>


>  <OneLetterCode>


>  <SubcomponentList>


>  <AmbiguousFlag>
N

>  <InChI>
InChI=1S/C18H32O16/c19-1-4-7(22)8(23)12(27)17(31-4)34-15-6(3-21)32-18(13(28)10(15)25)33-14-5(2-20)30-16(29)11(26)9(14)24/h4-29H,1-3H2/t4-,5-,6-,7-,8+,9-,10-,11-,12-,13-,14-,15-,16+,17-,18-/m1/s1

>  <InChIKey>
FYGDTMLNYKFZSV-PXXRMHSHSA-N

>  <SMILES>
C([C@@H]1[C@H]([C@@H]([C@H]([C@H](O1)O[C@@H]2[C@H](O[C@@H]([C@@H]([C@H]2O)O)O[C@@H]3[C@H](O[C@@H]([C@@H]([C@H]3O)O)O)CO)CO)O)O)O)O

$$$$
