4UA8_MLR_A_501


 45 47  0  0  0  0  0  0  0  0999 V2000
  -29.7406    8.4773   -3.4205 C   0  0  0  0  0  0  0  0  0  0  0  0
  -29.0411    9.5587   -2.6912 C   0  0  0  0  0  0  0  0  0  0  0  0
  -28.0732   10.2511   -3.5856 C   0  0  0  0  0  0  0  0  0  0  0  0
  -27.1011    9.3011   -4.2192 C   0  0  0  0  0  0  0  0  0  0  0  0
  -27.8302    8.1645   -4.8855 C   0  0  0  0  0  0  0  0  0  0  0  0
  -30.0235   10.4819   -2.1466 O   0  0  0  0  0  0  0  0  0  0  0  0
  -27.3392   11.2738   -2.8567 O   0  0  0  0  0  0  0  0  0  0  0  0
  -28.7753    7.5453   -3.9880 O   0  0  0  0  0  0  0  0  0  0  0  0
  -30.5408   10.8678   -2.8707 H   0  0  0  0  0  0  0  0  0  0  0  0
  -26.8185   10.8578   -2.1519 H   0  0  0  0  0  0  0  0  0  0  0  0
  -26.8472    7.0684   -5.2699 C   0  0  0  0  0  0  0  0  0  0  0  0
  -25.6720    7.1309   -4.4692 O   0  0  0  0  0  0  0  0  0  0  0  0
  -25.2351    7.9867   -4.6024 H   0  0  0  0  0  0  0  0  0  0  0  0
  -30.5116    9.0325   -4.4751 O   0  0  0  0  0  0  0  0  0  0  0  0
  -34.5356    8.6323   -5.6658 C   0  0  0  0  0  0  0  0  0  0  0  0
  -34.2170    9.2572   -4.3330 C   0  0  0  0  0  0  0  0  0  0  0  0
  -32.8103    9.7158   -4.2678 C   0  0  0  0  0  0  0  0  0  0  0  0
  -31.8847    8.5623   -4.5256 C   0  0  0  0  0  0  0  0  0  0  0  0
  -32.1698    7.9504   -5.8736 C   0  0  0  0  0  0  0  0  0  0  0  0
  -34.5055    9.5509   -6.6886 O   0  0  0  0  0  0  0  0  0  0  0  0
  -35.1738   10.3297   -4.0580 O   0  0  0  0  0  0  0  0  0  0  0  0
  -32.5924   10.2125   -2.9157 O   0  0  0  0  0  0  0  0  0  0  0  0
  -33.5682    7.5626   -5.9444 O   0  0  0  0  0  0  0  0  0  0  0  0
  -33.6139    9.9260   -6.7601 H   0  0  0  0  0  0  0  0  0  0  0  0
  -35.1009   11.0118   -4.7438 H   0  0  0  0  0  0  0  0  0  0  0  0
  -32.7715    9.5038   -2.2781 H   0  0  0  0  0  0  0  0  0  0  0  0
  -31.4013    6.6685   -6.0639 C   0  0  0  0  0  0  0  0  0  0  0  0
  -30.2295    6.9326   -6.8460 O   0  0  0  0  0  0  0  0  0  0  0  0
  -30.4906    7.2884   -7.7098 H   0  0  0  0  0  0  0  0  0  0  0  0
  -26.2643    9.9877   -5.2043 O   0  0  0  0  0  0  0  0  0  0  0  0
  -25.1616   10.5340   -4.6820 C   0  0  0  0  0  0  0  0  0  0  0  0
  -24.7004   11.7807   -5.3470 C   0  0  0  0  0  0  0  0  0  0  0  0
  -24.3768   11.5394   -6.7342 C   0  0  0  0  0  0  0  0  0  0  0  0
  -23.2903   10.6409   -6.9934 C   0  0  0  0  0  0  0  0  0  0  0  0
  -23.6962    9.3146   -6.3796 C   0  0  0  0  0  0  0  0  0  0  0  0
  -25.8202   12.6929   -5.1167 O   0  0  0  0  0  0  0  0  0  0  0  0
  -24.0668   12.9339   -7.3597 O   0  0  0  0  0  0  0  0  0  0  0  0
  -23.0384   10.3897   -8.4115 O   0  0  0  0  0  0  0  0  0  0  0  0
  -23.9628    9.4911   -4.8561 O   0  0  0  0  0  0  0  0  0  0  0  0
  -26.6343   12.3010   -5.4695 H   0  0  0  0  0  0  0  0  0  0  0  0
  -23.2959   13.3225   -6.9174 H   0  0  0  0  0  0  0  0  0  0  0  0
  -23.8257    9.9910   -8.8140 H   0  0  0  0  0  0  0  0  0  0  0  0
  -22.6637    8.2821   -6.4199 C   0  0  0  0  0  0  0  0  0  0  0  0
  -22.5791    7.5231   -5.1797 O   0  0  0  0  0  0  0  0  0  0  0  0
  -22.3460    8.1193   -4.4510 H   0  0  0  0  0  0  0  0  0  0  0  0
 15 16  1  0  0  0
 15 20  1  0  0  0
 15 23  1  0  0  0
 16 17  1  0  0  0
 16 21  1  0  0  0
 17 18  1  0  0  0
 17 22  1  0  0  0
 18 19  1  0  0  0
 18 14  1  0  0  0
 19 27  1  0  0  0
 19 23  1  0  0  0
 27 28  1  0  0  0
 14  1  1  0  0  0
  1  2  1  0  0  0
  1  8  1  0  0  0
  2  3  1  0  0  0
  2  6  1  0  0  0
  3  4  1  0  0  0
  3  7  1  0  0  0
  4  5  1  0  0  0
  4 30  1  0  0  0
  5 11  1  0  0  0
  5  8  1  0  0  0
 11 12  1  0  0  0
 30 31  1  0  0  0
 31 32  1  0  0  0
 31 39  1  0  0  0
 32 33  1  0  0  0
 32 36  1  0  0  0
 33 34  1  0  0  0
 33 37  1  0  0  0
 34 35  1  0  0  0
 34 38  1  0  0  0
 35 43  1  0  0  0
 35 39  1  0  0  0
 43 44  1  0  0  0
 20 24  1  0  0  0
 21 25  1  0  0  0
 22 26  1  0  0  0
 28 29  1  0  0  0
  6  9  1  0  0  0
  7 10  1  0  0  0
 12 13  1  0  0  0
 36 40  1  0  0  0
 37 41  1  0  0  0
 38 42  1  0  0  0
 44 45  1  0  0  0
M  END
> <minimizedAffinity>
-11.55088

$$$$
4UA8_MLR_A_501


 45 47  0  0  0  0  0  0  0  0999 V2000
  -27.2740    8.8845   -3.8952 C   0  0  0  0  0  0  0  0  0  0  0  0
  -26.4984   10.0865   -3.5152 C   0  0  0  0  0  0  0  0  0  0  0  0
  -25.9495   10.7582   -4.7250 C   0  0  0  0  0  0  0  0  0  0  0  0
  -25.1357    9.8283   -5.5747 C   0  0  0  0  0  0  0  0  0  0  0  0
  -25.9131    8.5757   -5.8817 C   0  0  0  0  0  0  0  0  0  0  0  0
  -27.3475   10.9800   -2.7441 O   0  0  0  0  0  0  0  0  0  0  0  0
  -25.1352   11.9047   -4.3527 O   0  0  0  0  0  0  0  0  0  0  0  0
  -26.4474    7.9786   -4.6816 O   0  0  0  0  0  0  0  0  0  0  0  0
  -28.1084   11.2479   -3.2828 H   0  0  0  0  0  0  0  0  0  0  0  0
  -24.3742   11.6051   -3.8312 H   0  0  0  0  0  0  0  0  0  0  0  0
  -24.9933    7.5270   -6.4899 C   0  0  0  0  0  0  0  0  0  0  0  0
  -23.6634    7.6677   -6.0021 O   0  0  0  0  0  0  0  0  0  0  0  0
  -23.3217    8.5431   -6.2425 H   0  0  0  0  0  0  0  0  0  0  0  0
  -28.3979    9.2666   -4.6734 O   0  0  0  0  0  0  0  0  0  0  0  0
  -32.5095    8.3515   -4.5053 C   0  0  0  0  0  0  0  0  0  0  0  0
  -31.9126    9.2687   -3.4704 C   0  0  0  0  0  0  0  0  0  0  0  0
  -30.6141    9.8234   -3.9169 C   0  0  0  0  0  0  0  0  0  0  0  0
  -29.6588    8.7060   -4.2211 C   0  0  0  0  0  0  0  0  0  0  0  0
  -30.2297    7.8005   -5.2826 C   0  0  0  0  0  0  0  0  0  0  0  0
  -32.8839    9.0283   -5.6422 O   0  0  0  0  0  0  0  0  0  0  0  0
  -32.8824   10.3088   -3.1257 O   0  0  0  0  0  0  0  0  0  0  0  0
  -30.0914   10.6131   -2.8098 O   0  0  0  0  0  0  0  0  0  0  0  0
  -31.5309    7.3140   -4.8571 O   0  0  0  0  0  0  0  0  0  0  0  0
  -32.1031    9.4379   -6.0466 H   0  0  0  0  0  0  0  0  0  0  0  0
  -33.0917   10.8306   -3.9162 H   0  0  0  0  0  0  0  0  0  0  0  0
  -29.9933   10.0480   -2.0276 H   0  0  0  0  0  0  0  0  0  0  0  0
  -29.3888    6.5620   -5.4527 C   0  0  0  0  0  0  0  0  0  0  0  0
  -28.6175    6.6767   -6.6555 O   0  0  0  0  0  0  0  0  0  0  0  0
  -29.2142    6.7733   -7.4141 H   0  0  0  0  0  0  0  0  0  0  0  0
  -24.7388   10.4747   -6.8263 O   0  0  0  0  0  0  0  0  0  0  0  0
  -23.4908   10.9540   -6.8088 C   0  0  0  0  0  0  0  0  0  0  0  0
  -23.2877   12.2104   -7.5765 C   0  0  0  0  0  0  0  0  0  0  0  0
  -23.5948   12.0189   -8.9752 C   0  0  0  0  0  0  0  0  0  0  0  0
  -22.7702   11.0916   -9.6928 C   0  0  0  0  0  0  0  0  0  0  0  0
  -22.9493    9.7558   -8.9968 C   0  0  0  0  0  0  0  0  0  0  0  0
  -24.1538   13.1541   -6.8706 O   0  0  0  0  0  0  0  0  0  0  0  0
  -23.5036   13.4269   -9.6394 O   0  0  0  0  0  0  0  0  0  0  0  0
  -23.1558   10.8944  -11.0892 O   0  0  0  0  0  0  0  0  0  0  0  0
  -22.5365    9.8743   -7.5005 O   0  0  0  0  0  0  0  0  0  0  0  0
  -25.0606   12.8101   -6.8535 H   0  0  0  0  0  0  0  0  0  0  0  0
  -22.5982   13.7653   -9.5571 H   0  0  0  0  0  0  0  0  0  0  0  0
  -24.0597   10.5448  -11.1287 H   0  0  0  0  0  0  0  0  0  0  0  0
  -22.0882    8.6870   -9.4965 C   0  0  0  0  0  0  0  0  0  0  0  0
  -22.1420    7.4890   -8.6700 O   0  0  0  0  0  0  0  0  0  0  0  0
  -21.8315    7.6992   -7.7754 H   0  0  0  0  0  0  0  0  0  0  0  0
 15 16  1  0  0  0
 15 20  1  0  0  0
 15 23  1  0  0  0
 16 17  1  0  0  0
 16 21  1  0  0  0
 17 18  1  0  0  0
 17 22  1  0  0  0
 18 19  1  0  0  0
 18 14  1  0  0  0
 19 27  1  0  0  0
 19 23  1  0  0  0
 27 28  1  0  0  0
 14  1  1  0  0  0
  1  2  1  0  0  0
  1  8  1  0  0  0
  2  3  1  0  0  0
  2  6  1  0  0  0
  3  4  1  0  0  0
  3  7  1  0  0  0
  4  5  1  0  0  0
  4 30  1  0  0  0
  5 11  1  0  0  0
  5  8  1  0  0  0
 11 12  1  0  0  0
 30 31  1  0  0  0
 31 32  1  0  0  0
 31 39  1  0  0  0
 32 33  1  0  0  0
 32 36  1  0  0  0
 33 34  1  0  0  0
 33 37  1  0  0  0
 34 35  1  0  0  0
 34 38  1  0  0  0
 35 43  1  0  0  0
 35 39  1  0  0  0
 43 44  1  0  0  0
 20 24  1  0  0  0
 21 25  1  0  0  0
 22 26  1  0  0  0
 28 29  1  0  0  0
  6  9  1  0  0  0
  7 10  1  0  0  0
 12 13  1  0  0  0
 36 40  1  0  0  0
 37 41  1  0  0  0
 38 42  1  0  0  0
 44 45  1  0  0  0
M  END
> <minimizedAffinity>
-10.22193

$$$$
4UA8_MLR_A_501


 45 47  0  0  0  0  0  0  0  0999 V2000
  -23.8622   10.0010   -5.5716 C   0  0  0  0  0  0  0  0  0  0  0  0
  -24.0407    8.6615   -4.9678 C   0  0  0  0  0  0  0  0  0  0  0  0
  -25.4623    8.2302   -5.0641 C   0  0  0  0  0  0  0  0  0  0  0  0
  -26.4044    9.2308   -4.4638 C   0  0  0  0  0  0  0  0  0  0  0  0
  -26.1513   10.6023   -5.0315 C   0  0  0  0  0  0  0  0  0  0  0  0
  -23.1484    7.7186   -5.6225 O   0  0  0  0  0  0  0  0  0  0  0  0
  -25.6545    6.9416   -4.4170 O   0  0  0  0  0  0  0  0  0  0  0  0
  -24.7569   10.9621   -4.9407 O   0  0  0  0  0  0  0  0  0  0  0  0
  -23.3622    7.6739   -6.5676 H   0  0  0  0  0  0  0  0  0  0  0  0
  -25.4510    7.0208   -3.4719 H   0  0  0  0  0  0  0  0  0  0  0  0
  -26.9011   11.6490   -4.2202 C   0  0  0  0  0  0  0  0  0  0  0  0
  -26.9135   11.3123   -2.8372 O   0  0  0  0  0  0  0  0  0  0  0  0
  -27.3612   10.4604   -2.7158 H   0  0  0  0  0  0  0  0  0  0  0  0
  -24.1600    9.9442   -6.9584 O   0  0  0  0  0  0  0  0  0  0  0  0
  -21.9702   10.8994  -10.4316 C   0  0  0  0  0  0  0  0  0  0  0  0
  -21.7857    9.5501   -9.7882 C   0  0  0  0  0  0  0  0  0  0  0  0
  -22.9103    9.2187   -8.8834 C   0  0  0  0  0  0  0  0  0  0  0  0
  -23.0431   10.2754   -7.8254 C   0  0  0  0  0  0  0  0  0  0  0  0
  -23.2646   11.6265   -8.4565 C   0  0  0  0  0  0  0  0  0  0  0  0
  -23.0312   10.9149  -11.3061 O   0  0  0  0  0  0  0  0  0  0  0  0
  -21.5803    8.5403  -10.8271 O   0  0  0  0  0  0  0  0  0  0  0  0
  -22.5817    7.9473   -8.2528 O   0  0  0  0  0  0  0  0  0  0  0  0
  -22.1859   11.9100   -9.3875 O   0  0  0  0  0  0  0  0  0  0  0  0
  -23.8501   10.7189  -10.8246 H   0  0  0  0  0  0  0  0  0  0  0  0
  -22.3612    8.5039  -11.4015 H   0  0  0  0  0  0  0  0  0  0  0  0
  -21.7437    8.0320   -7.7717 H   0  0  0  0  0  0  0  0  0  0  0  0
  -23.1903   12.7266   -7.4297 C   0  0  0  0  0  0  0  0  0  0  0  0
  -24.5086   13.0058   -6.9410 O   0  0  0  0  0  0  0  0  0  0  0  0
  -25.0744   13.2843   -7.6780 H   0  0  0  0  0  0  0  0  0  0  0  0
  -27.7967    8.8513   -4.7081 O   0  0  0  0  0  0  0  0  0  0  0  0
  -28.4914    8.6166   -3.5902 C   0  0  0  0  0  0  0  0  0  0  0  0
  -29.2497    7.3383   -3.5765 C   0  0  0  0  0  0  0  0  0  0  0  0
  -30.2284    7.3044   -4.6388 C   0  0  0  0  0  0  0  0  0  0  0  0
  -31.2789    8.2777   -4.5757 C   0  0  0  0  0  0  0  0  0  0  0  0
  -30.5927    9.6295   -4.6271 C   0  0  0  0  0  0  0  0  0  0  0  0
  -28.1855    6.3400   -3.6760 O   0  0  0  0  0  0  0  0  0  0  0  0
  -30.8392    5.8696   -4.6247 O   0  0  0  0  0  0  0  0  0  0  0  0
  -32.2112    8.2351   -5.7010 O   0  0  0  0  0  0  0  0  0  0  0  0
  -29.5927    9.7655   -3.4418 O   0  0  0  0  0  0  0  0  0  0  0  0
  -27.6561    6.5099   -4.4709 H   0  0  0  0  0  0  0  0  0  0  0  0
  -31.2858    5.7166   -3.7773 H   0  0  0  0  0  0  0  0  0  0  0  0
  -31.7301    8.4044   -6.5261 H   0  0  0  0  0  0  0  0  0  0  0  0
  -31.4830   10.7731   -4.4451 C   0  0  0  0  0  0  0  0  0  0  0  0
  -32.3695   10.9819   -5.5817 O   0  0  0  0  0  0  0  0  0  0  0  0
  -31.8413   11.1657   -6.3742 H   0  0  0  0  0  0  0  0  0  0  0  0
 15 16  1  0  0  0
 15 20  1  0  0  0
 15 23  1  0  0  0
 16 17  1  0  0  0
 16 21  1  0  0  0
 17 18  1  0  0  0
 17 22  1  0  0  0
 18 19  1  0  0  0
 18 14  1  0  0  0
 19 27  1  0  0  0
 19 23  1  0  0  0
 27 28  1  0  0  0
 14  1  1  0  0  0
  1  2  1  0  0  0
  1  8  1  0  0  0
  2  3  1  0  0  0
  2  6  1  0  0  0
  3  4  1  0  0  0
  3  7  1  0  0  0
  4  5  1  0  0  0
  4 30  1  0  0  0
  5 11  1  0  0  0
  5  8  1  0  0  0
 11 12  1  0  0  0
 30 31  1  0  0  0
 31 32  1  0  0  0
 31 39  1  0  0  0
 32 33  1  0  0  0
 32 36  1  0  0  0
 33 34  1  0  0  0
 33 37  1  0  0  0
 34 35  1  0  0  0
 34 38  1  0  0  0
 35 43  1  0  0  0
 35 39  1  0  0  0
 43 44  1  0  0  0
 20 24  1  0  0  0
 21 25  1  0  0  0
 22 26  1  0  0  0
 28 29  1  0  0  0
  6  9  1  0  0  0
  7 10  1  0  0  0
 12 13  1  0  0  0
 36 40  1  0  0  0
 37 41  1  0  0  0
 38 42  1  0  0  0
 44 45  1  0  0  0
M  END
> <minimizedAffinity>
-9.98154

$$$$
4UA8_MLR_A_501


 45 47  0  0  0  0  0  0  0  0999 V2000
  -29.7395    8.5083   -3.1212 C   0  0  0  0  0  0  0  0  0  0  0  0
  -28.6036    9.4375   -2.9286 C   0  0  0  0  0  0  0  0  0  0  0  0
  -27.5641    9.2151   -3.9708 C   0  0  0  0  0  0  0  0  0  0  0  0
  -27.1019    7.7893   -4.0210 C   0  0  0  0  0  0  0  0  0  0  0  0
  -28.2780    6.8558   -4.1344 C   0  0  0  0  0  0  0  0  0  0  0  0
  -29.0961   10.8054   -2.9454 O   0  0  0  0  0  0  0  0  0  0  0  0
  -26.4184   10.0835   -3.7490 O   0  0  0  0  0  0  0  0  0  0  0  0
  -29.2689    7.1296   -3.1218 O   0  0  0  0  0  0  0  0  0  0  0  0
  -29.5162   10.9874   -3.8006 H   0  0  0  0  0  0  0  0  0  0  0  0
  -26.0089    9.8672   -2.8967 H   0  0  0  0  0  0  0  0  0  0  0  0
  -27.8300    5.4212   -3.8960 C   0  0  0  0  0  0  0  0  0  0  0  0
  -28.2396    4.5729   -4.9632 O   0  0  0  0  0  0  0  0  0  0  0  0
  -29.2074    4.5788   -5.0278 H   0  0  0  0  0  0  0  0  0  0  0  0
  -30.3700    8.7747   -4.3647 O   0  0  0  0  0  0  0  0  0  0  0  0
  -34.3883    8.5699   -5.6226 C   0  0  0  0  0  0  0  0  0  0  0  0
  -34.0551    9.2420   -4.3165 C   0  0  0  0  0  0  0  0  0  0  0  0
  -32.6231    9.6128   -4.2434 C   0  0  0  0  0  0  0  0  0  0  0  0
  -31.7694    8.3909   -4.4217 C   0  0  0  0  0  0  0  0  0  0  0  0
  -32.0680    7.7289   -5.7428 C   0  0  0  0  0  0  0  0  0  0  0  0
  -34.2795    9.4301   -6.6898 O   0  0  0  0  0  0  0  0  0  0  0  0
  -34.9455   10.3861   -4.1177 O   0  0  0  0  0  0  0  0  0  0  0  0
  -32.3991   10.1646   -2.9140 O   0  0  0  0  0  0  0  0  0  0  0  0
  -33.4870    7.4277   -5.8249 O   0  0  0  0  0  0  0  0  0  0  0  0
  -33.3642    9.7435   -6.7605 H   0  0  0  0  0  0  0  0  0  0  0  0
  -34.8156   11.0254   -4.8355 H   0  0  0  0  0  0  0  0  0  0  0  0
  -32.6357    9.5029   -2.2452 H   0  0  0  0  0  0  0  0  0  0  0  0
  -31.3807    6.3925   -5.8506 C   0  0  0  0  0  0  0  0  0  0  0  0
  -30.2349    6.5186   -6.7026 O   0  0  0  0  0  0  0  0  0  0  0  0
  -30.5172    6.8129   -7.5827 H   0  0  0  0  0  0  0  0  0  0  0  0
  -26.1963    7.5718   -5.1499 O   0  0  0  0  0  0  0  0  0  0  0  0
  -26.7129    7.9350   -6.3282 C   0  0  0  0  0  0  0  0  0  0  0  0
  -26.2739    7.1157   -7.4880 C   0  0  0  0  0  0  0  0  0  0  0  0
  -24.8425    7.1954   -7.6672 C   0  0  0  0  0  0  0  0  0  0  0  0
  -24.3064    8.4850   -7.9902 C   0  0  0  0  0  0  0  0  0  0  0  0
  -24.6742    9.3877   -6.8280 C   0  0  0  0  0  0  0  0  0  0  0  0
  -26.7877    5.7891   -7.1487 O   0  0  0  0  0  0  0  0  0  0  0  0
  -24.4861    6.1799   -8.7959 O   0  0  0  0  0  0  0  0  0  0  0  0
  -22.8496    8.5221   -8.1082 O   0  0  0  0  0  0  0  0  0  0  0  0
  -26.2201    9.4217   -6.6474 O   0  0  0  0  0  0  0  0  0  0  0  0
  -26.4406    5.5194   -6.2840 H   0  0  0  0  0  0  0  0  0  0  0  0
  -24.9239    6.4454   -9.6197 H   0  0  0  0  0  0  0  0  0  0  0  0
  -22.4501    8.2631   -7.2631 H   0  0  0  0  0  0  0  0  0  0  0  0
  -24.3295   10.7947   -7.0153 C   0  0  0  0  0  0  0  0  0  0  0  0
  -25.4890   11.6726   -6.9385 O   0  0  0  0  0  0  0  0  0  0  0  0
  -26.1145   11.4446   -7.6441 H   0  0  0  0  0  0  0  0  0  0  0  0
 15 16  1  0  0  0
 15 20  1  0  0  0
 15 23  1  0  0  0
 16 17  1  0  0  0
 16 21  1  0  0  0
 17 18  1  0  0  0
 17 22  1  0  0  0
 18 19  1  0  0  0
 18 14  1  0  0  0
 19 27  1  0  0  0
 19 23  1  0  0  0
 27 28  1  0  0  0
 14  1  1  0  0  0
  1  2  1  0  0  0
  1  8  1  0  0  0
  2  3  1  0  0  0
  2  6  1  0  0  0
  3  4  1  0  0  0
  3  7  1  0  0  0
  4  5  1  0  0  0
  4 30  1  0  0  0
  5 11  1  0  0  0
  5  8  1  0  0  0
 11 12  1  0  0  0
 30 31  1  0  0  0
 31 32  1  0  0  0
 31 39  1  0  0  0
 32 33  1  0  0  0
 32 36  1  0  0  0
 33 34  1  0  0  0
 33 37  1  0  0  0
 34 35  1  0  0  0
 34 38  1  0  0  0
 35 43  1  0  0  0
 35 39  1  0  0  0
 43 44  1  0  0  0
 20 24  1  0  0  0
 21 25  1  0  0  0
 22 26  1  0  0  0
 28 29  1  0  0  0
  6  9  1  0  0  0
  7 10  1  0  0  0
 12 13  1  0  0  0
 36 40  1  0  0  0
 37 41  1  0  0  0
 38 42  1  0  0  0
 44 45  1  0  0  0
M  END
> <minimizedAffinity>
-9.75462

$$$$
4UA8_MLR_A_501


 45 47  0  0  0  0  0  0  0  0999 V2000
  -25.3385    8.6279   -5.2827 C   0  0  0  0  0  0  0  0  0  0  0  0
  -25.7741    7.2417   -5.5644 C   0  0  0  0  0  0  0  0  0  0  0  0
  -27.2354    7.2003   -5.8459 C   0  0  0  0  0  0  0  0  0  0  0  0
  -28.0466    7.8155   -4.7448 C   0  0  0  0  0  0  0  0  0  0  0  0
  -27.5351    9.1935   -4.4175 C   0  0  0  0  0  0  0  0  0  0  0  0
  -24.9986    6.7125   -6.6745 O   0  0  0  0  0  0  0  0  0  0  0  0
  -27.6795    5.8321   -6.0624 O   0  0  0  0  0  0  0  0  0  0  0  0
  -26.1116    9.1857   -4.1812 O   0  0  0  0  0  0  0  0  0  0  0  0
  -25.1459    7.2598   -7.4618 H   0  0  0  0  0  0  0  0  0  0  0  0
  -27.5368    5.3142   -5.2547 H   0  0  0  0  0  0  0  0  0  0  0  0
  -28.1653    9.6902   -3.1246 C   0  0  0  0  0  0  0  0  0  0  0  0
  -29.2230   10.6054   -3.3893 O   0  0  0  0  0  0  0  0  0  0  0  0
  -28.8739   11.3734   -3.8680 H   0  0  0  0  0  0  0  0  0  0  0  0
  -25.5375    9.4351   -6.4333 O   0  0  0  0  0  0  0  0  0  0  0  0
  -23.3157   12.5309   -8.2361 C   0  0  0  0  0  0  0  0  0  0  0  0
  -22.7147   11.1540   -8.1295 C   0  0  0  0  0  0  0  0  0  0  0  0
  -23.7511   10.1230   -7.8925 C   0  0  0  0  0  0  0  0  0  0  0  0
  -24.5152   10.4453   -6.6411 C   0  0  0  0  0  0  0  0  0  0  0  0
  -25.1523   11.8073   -6.7499 C   0  0  0  0  0  0  0  0  0  0  0  0
  -24.0942   12.6700   -9.3610 O   0  0  0  0  0  0  0  0  0  0  0  0
  -21.9094   10.8817   -9.3206 O   0  0  0  0  0  0  0  0  0  0  0  0
  -23.0522    8.8573   -7.7150 O   0  0  0  0  0  0  0  0  0  0  0  0
  -24.1315   12.7984   -7.0441 O   0  0  0  0  0  0  0  0  0  0  0  0
  -24.8333   12.0430   -9.3223 H   0  0  0  0  0  0  0  0  0  0  0  0
  -22.4759   10.9108  -10.1074 H   0  0  0  0  0  0  0  0  0  0  0  0
  -22.4369    8.9296   -6.9686 H   0  0  0  0  0  0  0  0  0  0  0  0
  -25.7445   12.2390   -5.4335 C   0  0  0  0  0  0  0  0  0  0  0  0
  -24.8747   11.8329   -4.3690 O   0  0  0  0  0  0  0  0  0  0  0  0
  -24.7760   10.8680   -4.3823 H   0  0  0  0  0  0  0  0  0  0  0  0
  -29.4596    7.8958   -5.1174 O   0  0  0  0  0  0  0  0  0  0  0  0
  -30.2768    7.2874   -4.2518 C   0  0  0  0  0  0  0  0  0  0  0  0
  -31.2207    6.3111   -4.8560 C   0  0  0  0  0  0  0  0  0  0  0  0
  -32.0968    6.9566   -5.8064 C   0  0  0  0  0  0  0  0  0  0  0  0
  -32.9869    7.9525   -5.2859 C   0  0  0  0  0  0  0  0  0  0  0  0
  -32.0994    9.0228   -4.6797 C   0  0  0  0  0  0  0  0  0  0  0  0
  -30.3178    5.3084   -5.4203 O   0  0  0  0  0  0  0  0  0  0  0  0
  -32.9196    5.8190   -6.4851 O   0  0  0  0  0  0  0  0  0  0  0  0
  -33.8131    8.6122   -6.2957 O   0  0  0  0  0  0  0  0  0  0  0  0
  -31.1973    8.4036   -3.5722 O   0  0  0  0  0  0  0  0  0  0  0  0
  -29.7015    5.7373   -6.0343 H   0  0  0  0  0  0  0  0  0  0  0  0
  -33.4564    5.3652   -5.8167 H   0  0  0  0  0  0  0  0  0  0  0  0
  -33.2417    9.0634   -6.9366 H   0  0  0  0  0  0  0  0  0  0  0  0
  -32.8159   10.0814   -3.9727 C   0  0  0  0  0  0  0  0  0  0  0  0
  -34.2587    9.8825   -3.9758 O   0  0  0  0  0  0  0  0  0  0  0  0
  -34.5842    9.8905   -4.8896 H   0  0  0  0  0  0  0  0  0  0  0  0
 15 16  1  0  0  0
 15 20  1  0  0  0
 15 23  1  0  0  0
 16 17  1  0  0  0
 16 21  1  0  0  0
 17 18  1  0  0  0
 17 22  1  0  0  0
 18 19  1  0  0  0
 18 14  1  0  0  0
 19 27  1  0  0  0
 19 23  1  0  0  0
 27 28  1  0  0  0
 14  1  1  0  0  0
  1  2  1  0  0  0
  1  8  1  0  0  0
  2  3  1  0  0  0
  2  6  1  0  0  0
  3  4  1  0  0  0
  3  7  1  0  0  0
  4  5  1  0  0  0
  4 30  1  0  0  0
  5 11  1  0  0  0
  5  8  1  0  0  0
 11 12  1  0  0  0
 30 31  1  0  0  0
 31 32  1  0  0  0
 31 39  1  0  0  0
 32 33  1  0  0  0
 32 36  1  0  0  0
 33 34  1  0  0  0
 33 37  1  0  0  0
 34 35  1  0  0  0
 34 38  1  0  0  0
 35 43  1  0  0  0
 35 39  1  0  0  0
 43 44  1  0  0  0
 20 24  1  0  0  0
 21 25  1  0  0  0
 22 26  1  0  0  0
 28 29  1  0  0  0
  6  9  1  0  0  0
  7 10  1  0  0  0
 12 13  1  0  0  0
 36 40  1  0  0  0
 37 41  1  0  0  0
 38 42  1  0  0  0
 44 45  1  0  0  0
M  END
> <minimizedAffinity>
-9.74673

$$$$
4UA8_MLR_A_501


 45 47  0  0  0  0  0  0  0  0999 V2000
  -27.3396    7.3843   -4.5893 C   0  0  0  0  0  0  0  0  0  0  0  0
  -28.2153    6.1938   -4.5083 C   0  0  0  0  0  0  0  0  0  0  0  0
  -29.6469    6.5907   -4.6045 C   0  0  0  0  0  0  0  0  0  0  0  0
  -30.0245    7.6183   -3.5795 C   0  0  0  0  0  0  0  0  0  0  0  0
  -29.0720    8.7838   -3.6232 C   0  0  0  0  0  0  0  0  0  0  0  0
  -27.8468    5.2563   -5.5568 O   0  0  0  0  0  0  0  0  0  0  0  0
  -30.5135    5.4309   -4.4633 O   0  0  0  0  0  0  0  0  0  0  0  0
  -27.6987    8.3460   -3.5557 O   0  0  0  0  0  0  0  0  0  0  0  0
  -27.9609    5.6784   -6.4227 H   0  0  0  0  0  0  0  0  0  0  0  0
  -30.3911    5.0410   -3.5836 H   0  0  0  0  0  0  0  0  0  0  0  0
  -29.2815    9.6743   -2.4071 C   0  0  0  0  0  0  0  0  0  0  0  0
  -29.3778   11.0431   -2.7856 O   0  0  0  0  0  0  0  0  0  0  0  0
  -28.5552   11.3170   -3.2207 H   0  0  0  0  0  0  0  0  0  0  0  0
  -27.4890    8.0026   -5.8582 O   0  0  0  0  0  0  0  0  0  0  0  0
  -23.3617    8.5787   -6.4945 C   0  0  0  0  0  0  0  0  0  0  0  0
  -24.2055    9.7326   -6.0202 C   0  0  0  0  0  0  0  0  0  0  0  0
  -25.4858    9.2692   -5.4377 C   0  0  0  0  0  0  0  0  0  0  0  0
  -26.2457    8.4631   -6.4508 C   0  0  0  0  0  0  0  0  0  0  0  0
  -25.4252    7.2835   -6.9070 C   0  0  0  0  0  0  0  0  0  0  0  0
  -22.9158    7.8008   -5.4520 O   0  0  0  0  0  0  0  0  0  0  0  0
  -23.4276   10.5543   -5.0923 O   0  0  0  0  0  0  0  0  0  0  0  0
  -26.2513   10.4624   -5.1023 O   0  0  0  0  0  0  0  0  0  0  0  0
  -24.1476    7.7497   -7.4182 O   0  0  0  0  0  0  0  0  0  0  0  0
  -23.6757    7.4199   -4.9847 H   0  0  0  0  0  0  0  0  0  0  0  0
  -23.1739   10.0210   -4.3228 H   0  0  0  0  0  0  0  0  0  0  0  0
  -26.3893   10.9934   -5.9023 H   0  0  0  0  0  0  0  0  0  0  0  0
  -26.0770    6.5835   -8.0711 C   0  0  0  0  0  0  0  0  0  0  0  0
  -27.1364    7.4032   -8.5815 O   0  0  0  0  0  0  0  0  0  0  0  0
  -27.7921    7.5559   -7.8832 H   0  0  0  0  0  0  0  0  0  0  0  0
  -31.3906    8.0966   -3.7962 O   0  0  0  0  0  0  0  0  0  0  0  0
  -31.5001    8.9625   -4.8089 C   0  0  0  0  0  0  0  0  0  0  0  0
  -32.6370    9.9141   -4.7041 C   0  0  0  0  0  0  0  0  0  0  0  0
  -33.8996    9.2125   -4.6741 C   0  0  0  0  0  0  0  0  0  0  0  0
  -34.2444    8.4602   -5.8447 C   0  0  0  0  0  0  0  0  0  0  0  0
  -33.1480    7.4248   -6.0076 C   0  0  0  0  0  0  0  0  0  0  0  0
  -32.3099   10.6627   -3.4909 O   0  0  0  0  0  0  0  0  0  0  0  0
  -34.9926   10.2909   -4.4012 O   0  0  0  0  0  0  0  0  0  0  0  0
  -35.5050    7.7268   -5.7427 O   0  0  0  0  0  0  0  0  0  0  0  0
  -31.7662    8.1284   -6.1463 O   0  0  0  0  0  0  0  0  0  0  0  0
  -32.2036   10.0464   -2.7495 H   0  0  0  0  0  0  0  0  0  0  0  0
  -35.0033   10.9318   -5.1291 H   0  0  0  0  0  0  0  0  0  0  0  0
  -35.4502    7.0894   -5.0136 H   0  0  0  0  0  0  0  0  0  0  0  0
  -33.2393    6.6261   -7.2272 C   0  0  0  0  0  0  0  0  0  0  0  0
  -33.8958    7.3360   -8.3163 O   0  0  0  0  0  0  0  0  0  0  0  0
  -34.8055    7.5531   -8.0588 H   0  0  0  0  0  0  0  0  0  0  0  0
 15 16  1  0  0  0
 15 20  1  0  0  0
 15 23  1  0  0  0
 16 17  1  0  0  0
 16 21  1  0  0  0
 17 18  1  0  0  0
 17 22  1  0  0  0
 18 19  1  0  0  0
 18 14  1  0  0  0
 19 27  1  0  0  0
 19 23  1  0  0  0
 27 28  1  0  0  0
 14  1  1  0  0  0
  1  2  1  0  0  0
  1  8  1  0  0  0
  2  3  1  0  0  0
  2  6  1  0  0  0
  3  4  1  0  0  0
  3  7  1  0  0  0
  4  5  1  0  0  0
  4 30  1  0  0  0
  5 11  1  0  0  0
  5  8  1  0  0  0
 11 12  1  0  0  0
 30 31  1  0  0  0
 31 32  1  0  0  0
 31 39  1  0  0  0
 32 33  1  0  0  0
 32 36  1  0  0  0
 33 34  1  0  0  0
 33 37  1  0  0  0
 34 35  1  0  0  0
 34 38  1  0  0  0
 35 43  1  0  0  0
 35 39  1  0  0  0
 43 44  1  0  0  0
 20 24  1  0  0  0
 21 25  1  0  0  0
 22 26  1  0  0  0
 28 29  1  0  0  0
  6  9  1  0  0  0
  7 10  1  0  0  0
 12 13  1  0  0  0
 36 40  1  0  0  0
 37 41  1  0  0  0
 38 42  1  0  0  0
 44 45  1  0  0  0
M  END
> <minimizedAffinity>
-9.64096

$$$$
4UA8_MLR_A_501


 45 47  0  0  0  0  0  0  0  0999 V2000
  -28.8797    7.8234   -3.4876 C   0  0  0  0  0  0  0  0  0  0  0  0
  -29.0058    6.3740   -3.7600 C   0  0  0  0  0  0  0  0  0  0  0  0
  -29.8454    6.1403   -4.9670 C   0  0  0  0  0  0  0  0  0  0  0  0
  -31.1900    6.7963   -4.8628 C   0  0  0  0  0  0  0  0  0  0  0  0
  -31.0422    8.2513   -4.5044 C   0  0  0  0  0  0  0  0  0  0  0  0
  -27.6793    5.7979   -3.9094 O   0  0  0  0  0  0  0  0  0  0  0  0
  -30.0232    4.7159   -5.2027 O   0  0  0  0  0  0  0  0  0  0  0  0
  -30.1982    8.4269   -3.3472 O   0  0  0  0  0  0  0  0  0  0  0  0
  -27.2235    6.2240   -4.6522 H   0  0  0  0  0  0  0  0  0  0  0  0
  -30.4963    4.3208   -4.4537 H   0  0  0  0  0  0  0  0  0  0  0  0
  -32.3947    8.8339   -4.1207 C   0  0  0  0  0  0  0  0  0  0  0  0
  -32.9779    9.5362   -5.2129 O   0  0  0  0  0  0  0  0  0  0  0  0
  -32.3979   10.2690   -5.4729 H   0  0  0  0  0  0  0  0  0  0  0  0
  -28.2020    8.4551   -4.5630 O   0  0  0  0  0  0  0  0  0  0  0  0
  -25.0393   11.2336   -4.7819 C   0  0  0  0  0  0  0  0  0  0  0  0
  -24.7361    9.7895   -4.4798 C   0  0  0  0  0  0  0  0  0  0  0  0
  -25.8571    8.9035   -4.8693 C   0  0  0  0  0  0  0  0  0  0  0  0
  -27.1104    9.3224   -4.1569 C   0  0  0  0  0  0  0  0  0  0  0  0
  -27.4448   10.7564   -4.4801 C   0  0  0  0  0  0  0  0  0  0  0  0
  -25.1142   11.4748   -6.1336 O   0  0  0  0  0  0  0  0  0  0  0  0
  -23.4728    9.4148   -5.1161 O   0  0  0  0  0  0  0  0  0  0  0  0
  -25.4939    7.5568   -4.4492 O   0  0  0  0  0  0  0  0  0  0  0  0
  -26.3126   11.6050   -4.1504 O   0  0  0  0  0  0  0  0  0  0  0  0
  -25.8350   10.9503   -6.5161 H   0  0  0  0  0  0  0  0  0  0  0  0
  -23.5516    9.5188   -6.0773 H   0  0  0  0  0  0  0  0  0  0  0  0
  -25.3415    7.5469   -3.4913 H   0  0  0  0  0  0  0  0  0  0  0  0
  -28.5723   11.2610   -3.6175 C   0  0  0  0  0  0  0  0  0  0  0  0
  -28.4436   10.7077   -2.3015 O   0  0  0  0  0  0  0  0  0  0  0  0
  -28.4794    9.7397   -2.3528 H   0  0  0  0  0  0  0  0  0  0  0  0
  -31.9299    6.6766   -6.1199 O   0  0  0  0  0  0  0  0  0  0  0  0
  -33.0299    5.9229   -6.0238 C   0  0  0  0  0  0  0  0  0  0  0  0
  -33.1993    4.9150   -7.1029 C   0  0  0  0  0  0  0  0  0  0  0  0
  -33.2941    5.5512   -8.3966 C   0  0  0  0  0  0  0  0  0  0  0  0
  -34.4215    6.4108   -8.6087 C   0  0  0  0  0  0  0  0  0  0  0  0
  -34.3068    7.5065   -7.5660 C   0  0  0  0  0  0  0  0  0  0  0  0
  -32.0325    4.0535   -6.9148 O   0  0  0  0  0  0  0  0  0  0  0  0
  -33.3044    4.4009   -9.4496 O   0  0  0  0  0  0  0  0  0  0  0  0
  -34.4419    7.0707   -9.9131 O   0  0  0  0  0  0  0  0  0  0  0  0
  -34.3007    6.8858   -6.1384 O   0  0  0  0  0  0  0  0  0  0  0  0
  -31.2249    4.5889   -6.9584 H   0  0  0  0  0  0  0  0  0  0  0  0
  -34.0865    3.8439   -9.3123 H   0  0  0  0  0  0  0  0  0  0  0  0
  -33.6522    7.6262  -10.0069 H   0  0  0  0  0  0  0  0  0  0  0  0
  -35.4384    8.4292   -7.5235 C   0  0  0  0  0  0  0  0  0  0  0  0
  -35.0846    9.7272   -6.9656 O   0  0  0  0  0  0  0  0  0  0  0  0
  -34.7846    9.6147   -6.0501 H   0  0  0  0  0  0  0  0  0  0  0  0
 15 16  1  0  0  0
 15 20  1  0  0  0
 15 23  1  0  0  0
 16 17  1  0  0  0
 16 21  1  0  0  0
 17 18  1  0  0  0
 17 22  1  0  0  0
 18 19  1  0  0  0
 18 14  1  0  0  0
 19 27  1  0  0  0
 19 23  1  0  0  0
 27 28  1  0  0  0
 14  1  1  0  0  0
  1  2  1  0  0  0
  1  8  1  0  0  0
  2  3  1  0  0  0
  2  6  1  0  0  0
  3  4  1  0  0  0
  3  7  1  0  0  0
  4  5  1  0  0  0
  4 30  1  0  0  0
  5 11  1  0  0  0
  5  8  1  0  0  0
 11 12  1  0  0  0
 30 31  1  0  0  0
 31 32  1  0  0  0
 31 39  1  0  0  0
 32 33  1  0  0  0
 32 36  1  0  0  0
 33 34  1  0  0  0
 33 37  1  0  0  0
 34 35  1  0  0  0
 34 38  1  0  0  0
 35 43  1  0  0  0
 35 39  1  0  0  0
 43 44  1  0  0  0
 20 24  1  0  0  0
 21 25  1  0  0  0
 22 26  1  0  0  0
 28 29  1  0  0  0
  6  9  1  0  0  0
  7 10  1  0  0  0
 12 13  1  0  0  0
 36 40  1  0  0  0
 37 41  1  0  0  0
 38 42  1  0  0  0
 44 45  1  0  0  0
M  END
> <minimizedAffinity>
-9.63743

$$$$
4UA8_MLR_A_501


 45 47  0  0  0  0  0  0  0  0999 V2000
  -32.4715    8.1520   -4.6142 C   0  0  0  0  0  0  0  0  0  0  0  0
  -32.1202    9.2556   -3.6926 C   0  0  0  0  0  0  0  0  0  0  0  0
  -30.7829    9.8144   -4.0325 C   0  0  0  0  0  0  0  0  0  0  0  0
  -29.7144    8.7625   -4.0585 C   0  0  0  0  0  0  0  0  0  0  0  0
  -30.1270    7.6111   -4.9369 C   0  0  0  0  0  0  0  0  0  0  0  0
  -33.1569   10.2735   -3.7478 O   0  0  0  0  0  0  0  0  0  0  0  0
  -30.4065   10.8578   -3.0913 O   0  0  0  0  0  0  0  0  0  0  0  0
  -31.4395    7.1242   -4.5870 O   0  0  0  0  0  0  0  0  0  0  0  0
  -33.2218   10.6204   -4.6513 H   0  0  0  0  0  0  0  0  0  0  0  0
  -30.3320   10.4790   -2.2014 H   0  0  0  0  0  0  0  0  0  0  0  0
  -29.1828    6.4353   -4.7332 C   0  0  0  0  0  0  0  0  0  0  0  0
  -28.8131    6.3069   -3.3645 O   0  0  0  0  0  0  0  0  0  0  0  0
  -28.3564    7.1126   -3.0760 H   0  0  0  0  0  0  0  0  0  0  0  0
  -32.5820    8.6513   -5.9384 O   0  0  0  0  0  0  0  0  0  0  0  0
  -34.9144    5.4706   -7.4263 C   0  0  0  0  0  0  0  0  0  0  0  0
  -33.6728    5.8885   -8.1694 C   0  0  0  0  0  0  0  0  0  0  0  0
  -32.7640    6.6821   -7.3106 C   0  0  0  0  0  0  0  0  0  0  0  0
  -33.4811    7.8945   -6.7914 C   0  0  0  0  0  0  0  0  0  0  0  0
  -34.7072    7.4877   -6.0142 C   0  0  0  0  0  0  0  0  0  0  0  0
  -34.6391    4.5706   -6.4238 O   0  0  0  0  0  0  0  0  0  0  0  0
  -33.0243    4.7055   -8.7361 O   0  0  0  0  0  0  0  0  0  0  0  0
  -31.6533    7.1059   -8.1527 O   0  0  0  0  0  0  0  0  0  0  0  0
  -35.5585    6.6584   -6.8500 O   0  0  0  0  0  0  0  0  0  0  0  0
  -34.0476    4.9813   -5.7739 H   0  0  0  0  0  0  0  0  0  0  0  0
  -32.7673    4.1035   -8.0202 H   0  0  0  0  0  0  0  0  0  0  0  0
  -31.9926    7.6262   -8.8977 H   0  0  0  0  0  0  0  0  0  0  0  0
  -35.5532    8.6844   -5.6650 C   0  0  0  0  0  0  0  0  0  0  0  0
  -35.0135    9.8472   -6.3062 O   0  0  0  0  0  0  0  0  0  0  0  0
  -34.1034    9.9907   -6.0029 H   0  0  0  0  0  0  0  0  0  0  0  0
  -28.4478    9.3144   -4.5411 O   0  0  0  0  0  0  0  0  0  0  0  0
  -27.4384    9.1740   -3.6758 C   0  0  0  0  0  0  0  0  0  0  0  0
  -26.6146   10.3932   -3.4655 C   0  0  0  0  0  0  0  0  0  0  0  0
  -25.9932   10.8183   -4.6986 C   0  0  0  0  0  0  0  0  0  0  0  0
  -25.0482    9.9147   -5.2865 C   0  0  0  0  0  0  0  0  0  0  0  0
  -25.8201    8.6417   -5.5769 C   0  0  0  0  0  0  0  0  0  0  0  0
  -27.5814   11.3322   -2.8976 O   0  0  0  0  0  0  0  0  0  0  0  0
  -25.2978   12.1798   -4.3909 O   0  0  0  0  0  0  0  0  0  0  0  0
  -24.4889   10.3681   -6.5589 O   0  0  0  0  0  0  0  0  0  0  0  0
  -26.4333    8.0779   -4.2617 O   0  0  0  0  0  0  0  0  0  0  0  0
  -28.3331   11.4281   -3.5031 H   0  0  0  0  0  0  0  0  0  0  0  0
  -24.6109   12.0474   -3.7190 H   0  0  0  0  0  0  0  0  0  0  0  0
  -25.2035   10.4765   -7.2059 H   0  0  0  0  0  0  0  0  0  0  0  0
  -25.0057    7.5326   -6.0671 C   0  0  0  0  0  0  0  0  0  0  0  0
  -25.7941    6.5132   -6.7457 O   0  0  0  0  0  0  0  0  0  0  0  0
  -26.4344    6.1328   -6.1242 H   0  0  0  0  0  0  0  0  0  0  0  0
 15 16  1  0  0  0
 15 20  1  0  0  0
 15 23  1  0  0  0
 16 17  1  0  0  0
 16 21  1  0  0  0
 17 18  1  0  0  0
 17 22  1  0  0  0
 18 19  1  0  0  0
 18 14  1  0  0  0
 19 27  1  0  0  0
 19 23  1  0  0  0
 27 28  1  0  0  0
 14  1  1  0  0  0
  1  2  1  0  0  0
  1  8  1  0  0  0
  2  3  1  0  0  0
  2  6  1  0  0  0
  3  4  1  0  0  0
  3  7  1  0  0  0
  4  5  1  0  0  0
  4 30  1  0  0  0
  5 11  1  0  0  0
  5  8  1  0  0  0
 11 12  1  0  0  0
 30 31  1  0  0  0
 31 32  1  0  0  0
 31 39  1  0  0  0
 32 33  1  0  0  0
 32 36  1  0  0  0
 33 34  1  0  0  0
 33 37  1  0  0  0
 34 35  1  0  0  0
 34 38  1  0  0  0
 35 43  1  0  0  0
 35 39  1  0  0  0
 43 44  1  0  0  0
 20 24  1  0  0  0
 21 25  1  0  0  0
 22 26  1  0  0  0
 28 29  1  0  0  0
  6  9  1  0  0  0
  7 10  1  0  0  0
 12 13  1  0  0  0
 36 40  1  0  0  0
 37 41  1  0  0  0
 38 42  1  0  0  0
 44 45  1  0  0  0
M  END
> <minimizedAffinity>
-9.61422

$$$$
4UA8_MLR_A_501


 45 47  0  0  0  0  0  0  0  0999 V2000
  -27.2852    7.2435   -4.6998 C   0  0  0  0  0  0  0  0  0  0  0  0
  -28.1864    6.0817   -4.5299 C   0  0  0  0  0  0  0  0  0  0  0  0
  -29.6104    6.5117   -4.5906 C   0  0  0  0  0  0  0  0  0  0  0  0
  -29.9222    7.5951   -3.6016 C   0  0  0  0  0  0  0  0  0  0  0  0
  -28.9436    8.7316   -3.7360 C   0  0  0  0  0  0  0  0  0  0  0  0
  -27.8824    5.0875   -5.5462 O   0  0  0  0  0  0  0  0  0  0  0  0
  -30.4993    5.3831   -4.3624 O   0  0  0  0  0  0  0  0  0  0  0  0
  -27.5800    8.2610   -3.6998 O   0  0  0  0  0  0  0  0  0  0  0  0
  -28.0196    5.4721   -6.4261 H   0  0  0  0  0  0  0  0  0  0  0  0
  -30.3525    5.0310   -3.4705 H   0  0  0  0  0  0  0  0  0  0  0  0
  -29.0834    9.6824   -2.5561 C   0  0  0  0  0  0  0  0  0  0  0  0
  -28.9872   11.0387   -2.9776 O   0  0  0  0  0  0  0  0  0  0  0  0
  -28.1198   11.1901   -3.3845 H   0  0  0  0  0  0  0  0  0  0  0  0
  -27.4685    7.8065   -5.9899 O   0  0  0  0  0  0  0  0  0  0  0  0
  -24.8376    8.7933   -9.1324 C   0  0  0  0  0  0  0  0  0  0  0  0
  -25.2579    7.3596   -8.9418 C   0  0  0  0  0  0  0  0  0  0  0  0
  -26.4823    7.2552   -8.1152 C   0  0  0  0  0  0  0  0  0  0  0  0
  -26.2539    7.9025   -6.7801 C   0  0  0  0  0  0  0  0  0  0  0  0
  -25.8676    9.3490   -6.9562 C   0  0  0  0  0  0  0  0  0  0  0  0
  -25.7373    9.4992   -9.8959 O   0  0  0  0  0  0  0  0  0  0  0  0
  -25.4025    6.7177  -10.2488 O   0  0  0  0  0  0  0  0  0  0  0  0
  -26.7389    5.8343   -7.9217 O   0  0  0  0  0  0  0  0  0  0  0  0
  -24.7025    9.4385   -7.8196 O   0  0  0  0  0  0  0  0  0  0  0  0
  -26.5980    9.5157   -9.4488 H   0  0  0  0  0  0  0  0  0  0  0  0
  -26.0889    7.1750  -10.7594 H   0  0  0  0  0  0  0  0  0  0  0  0
  -25.9743    5.4238   -7.4885 H   0  0  0  0  0  0  0  0  0  0  0  0
  -25.4305    9.9595   -5.6500 C   0  0  0  0  0  0  0  0  0  0  0  0
  -26.5261   10.6862   -5.0788 O   0  0  0  0  0  0  0  0  0  0  0  0
  -26.8034   11.3864   -5.6902 H   0  0  0  0  0  0  0  0  0  0  0  0
  -31.2834    8.0991   -3.7889 O   0  0  0  0  0  0  0  0  0  0  0  0
  -31.3970    8.9726   -4.7945 C   0  0  0  0  0  0  0  0  0  0  0  0
  -32.5229    9.9348   -4.6691 C   0  0  0  0  0  0  0  0  0  0  0  0
  -33.7920    9.2457   -4.6276 C   0  0  0  0  0  0  0  0  0  0  0  0
  -34.1591    8.5047   -5.7986 C   0  0  0  0  0  0  0  0  0  0  0  0
  -33.0753    7.4595   -5.9821 C   0  0  0  0  0  0  0  0  0  0  0  0
  -32.1729   10.6721   -3.4554 O   0  0  0  0  0  0  0  0  0  0  0  0
  -34.8705   10.3331   -4.3338 O   0  0  0  0  0  0  0  0  0  0  0  0
  -35.4257    7.7833   -5.6853 O   0  0  0  0  0  0  0  0  0  0  0  0
  -31.6884    8.1501   -6.1338 O   0  0  0  0  0  0  0  0  0  0  0  0
  -32.0635   10.0499   -2.7193 H   0  0  0  0  0  0  0  0  0  0  0  0
  -34.8840   10.9789   -5.0574 H   0  0  0  0  0  0  0  0  0  0  0  0
  -35.3680    7.1405   -4.9611 H   0  0  0  0  0  0  0  0  0  0  0  0
  -33.1901    6.6697   -7.2055 C   0  0  0  0  0  0  0  0  0  0  0  0
  -33.9872    7.3316   -8.2291 O   0  0  0  0  0  0  0  0  0  0  0  0
  -34.8899    7.4649   -7.9000 H   0  0  0  0  0  0  0  0  0  0  0  0
 15 16  1  0  0  0
 15 20  1  0  0  0
 15 23  1  0  0  0
 16 17  1  0  0  0
 16 21  1  0  0  0
 17 18  1  0  0  0
 17 22  1  0  0  0
 18 19  1  0  0  0
 18 14  1  0  0  0
 19 27  1  0  0  0
 19 23  1  0  0  0
 27 28  1  0  0  0
 14  1  1  0  0  0
  1  2  1  0  0  0
  1  8  1  0  0  0
  2  3  1  0  0  0
  2  6  1  0  0  0
  3  4  1  0  0  0
  3  7  1  0  0  0
  4  5  1  0  0  0
  4 30  1  0  0  0
  5 11  1  0  0  0
  5  8  1  0  0  0
 11 12  1  0  0  0
 30 31  1  0  0  0
 31 32  1  0  0  0
 31 39  1  0  0  0
 32 33  1  0  0  0
 32 36  1  0  0  0
 33 34  1  0  0  0
 33 37  1  0  0  0
 34 35  1  0  0  0
 34 38  1  0  0  0
 35 43  1  0  0  0
 35 39  1  0  0  0
 43 44  1  0  0  0
 20 24  1  0  0  0
 21 25  1  0  0  0
 22 26  1  0  0  0
 28 29  1  0  0  0
  6  9  1  0  0  0
  7 10  1  0  0  0
 12 13  1  0  0  0
 36 40  1  0  0  0
 37 41  1  0  0  0
 38 42  1  0  0  0
 44 45  1  0  0  0
M  END
> <minimizedAffinity>
-9.43889

$$$$
4UA8_MLR_A_501


 45 47  0  0  0  0  0  0  0  0999 V2000
  -23.9839    9.8047   -7.2416 C   0  0  0  0  0  0  0  0  0  0  0  0
  -24.1833    8.3433   -7.1184 C   0  0  0  0  0  0  0  0  0  0  0  0
  -25.5762    8.0404   -6.6891 C   0  0  0  0  0  0  0  0  0  0  0  0
  -25.9510    8.7521   -5.4234 C   0  0  0  0  0  0  0  0  0  0  0  0
  -25.6637   10.2257   -5.5403 C   0  0  0  0  0  0  0  0  0  0  0  0
  -23.8625    7.7079   -8.3862 O   0  0  0  0  0  0  0  0  0  0  0  0
  -25.7592    6.6088   -6.5069 O   0  0  0  0  0  0  0  0  0  0  0  0
  -24.3126   10.4663   -5.9860 O   0  0  0  0  0  0  0  0  0  0  0  0
  -24.4482    8.0529   -9.0782 H   0  0  0  0  0  0  0  0  0  0  0  0
  -25.1751    6.2957   -5.7985 H   0  0  0  0  0  0  0  0  0  0  0  0
  -25.7718   10.8880   -4.1746 C   0  0  0  0  0  0  0  0  0  0  0  0
  -27.0535   11.4800   -3.9928 O   0  0  0  0  0  0  0  0  0  0  0  0
  -27.1940   12.1610   -4.6691 H   0  0  0  0  0  0  0  0  0  0  0  0
  -24.8273   10.3184   -8.2613 O   0  0  0  0  0  0  0  0  0  0  0  0
  -21.7972   12.3517  -10.3720 C   0  0  0  0  0  0  0  0  0  0  0  0
  -22.5533   13.0714   -9.2863 C   0  0  0  0  0  0  0  0  0  0  0  0
  -23.2391   12.1233   -8.3784 C   0  0  0  0  0  0  0  0  0  0  0  0
  -24.1769   11.2524   -9.1632 C   0  0  0  0  0  0  0  0  0  0  0  0
  -23.4255   10.4986  -10.2307 C   0  0  0  0  0  0  0  0  0  0  0  0
  -20.7318   11.6384   -9.8751 O   0  0  0  0  0  0  0  0  0  0  0  0
  -21.6452   13.9744   -8.5783 O   0  0  0  0  0  0  0  0  0  0  0  0
  -24.0059   12.9252   -7.4344 O   0  0  0  0  0  0  0  0  0  0  0  0
  -22.7082   11.4386  -11.0750 O   0  0  0  0  0  0  0  0  0  0  0  0
  -21.0548   10.9606   -9.2609 H   0  0  0  0  0  0  0  0  0  0  0  0
  -20.9322   13.4601   -8.1686 H   0  0  0  0  0  0  0  0  0  0  0  0
  -24.6358   13.4810   -7.9193 H   0  0  0  0  0  0  0  0  0  0  0  0
  -24.3707    9.7840  -11.1613 C   0  0  0  0  0  0  0  0  0  0  0  0
  -25.6267   10.4745  -11.1797 O   0  0  0  0  0  0  0  0  0  0  0  0
  -25.9997   10.4910  -10.2844 H   0  0  0  0  0  0  0  0  0  0  0  0
  -27.3672    8.5548   -5.1113 O   0  0  0  0  0  0  0  0  0  0  0  0
  -27.5804    8.0316   -3.8997 C   0  0  0  0  0  0  0  0  0  0  0  0
  -28.4001    6.7918   -3.8842 C   0  0  0  0  0  0  0  0  0  0  0  0
  -29.7182    7.0347   -4.4235 C   0  0  0  0  0  0  0  0  0  0  0  0
  -30.5487    7.9530   -3.7010 C   0  0  0  0  0  0  0  0  0  0  0  0
  -29.8020    9.2734   -3.7023 C   0  0  0  0  0  0  0  0  0  0  0  0
  -27.5743    5.8590   -4.6503 O   0  0  0  0  0  0  0  0  0  0  0  0
  -30.4197    5.6443   -4.5060 O   0  0  0  0  0  0  0  0  0  0  0  0
  -31.8506    8.2043   -4.3169 O   0  0  0  0  0  0  0  0  0  0  0  0
  -28.4048    9.0968   -3.0389 O   0  0  0  0  0  0  0  0  0  0  0  0
  -27.3901    6.2340   -5.5257 H   0  0  0  0  0  0  0  0  0  0  0  0
  -30.5057    5.2721   -3.6144 H   0  0  0  0  0  0  0  0  0  0  0  0
  -31.7225    8.5865   -5.1992 H   0  0  0  0  0  0  0  0  0  0  0  0
  -30.4213   10.3254   -2.9001 C   0  0  0  0  0  0  0  0  0  0  0  0
  -29.6382   11.5533   -2.8824 O   0  0  0  0  0  0  0  0  0  0  0  0
  -28.7704   11.3777   -2.4862 H   0  0  0  0  0  0  0  0  0  0  0  0
 15 16  1  0  0  0
 15 20  1  0  0  0
 15 23  1  0  0  0
 16 17  1  0  0  0
 16 21  1  0  0  0
 17 18  1  0  0  0
 17 22  1  0  0  0
 18 19  1  0  0  0
 18 14  1  0  0  0
 19 27  1  0  0  0
 19 23  1  0  0  0
 27 28  1  0  0  0
 14  1  1  0  0  0
  1  2  1  0  0  0
  1  8  1  0  0  0
  2  3  1  0  0  0
  2  6  1  0  0  0
  3  4  1  0  0  0
  3  7  1  0  0  0
  4  5  1  0  0  0
  4 30  1  0  0  0
  5 11  1  0  0  0
  5  8  1  0  0  0
 11 12  1  0  0  0
 30 31  1  0  0  0
 31 32  1  0  0  0
 31 39  1  0  0  0
 32 33  1  0  0  0
 32 36  1  0  0  0
 33 34  1  0  0  0
 33 37  1  0  0  0
 34 35  1  0  0  0
 34 38  1  0  0  0
 35 43  1  0  0  0
 35 39  1  0  0  0
 43 44  1  0  0  0
 20 24  1  0  0  0
 21 25  1  0  0  0
 22 26  1  0  0  0
 28 29  1  0  0  0
  6  9  1  0  0  0
  7 10  1  0  0  0
 12 13  1  0  0  0
 36 40  1  0  0  0
 37 41  1  0  0  0
 38 42  1  0  0  0
 44 45  1  0  0  0
M  END
> <minimizedAffinity>
-9.24131

$$$$
