2VVS_OAN_A_900


 30 31  0  0  0  0  0  0  0  0999 V2000
   -8.4430  -11.6516    7.7083 C   0  0  0  0  0  0  0  0  0  0  0  0
   -9.3772  -11.4473    8.9386 C   0  0  0  0  0  0  0  0  0  0  0  0
   -9.7232  -12.6993    9.5700 O   0  0  0  0  0  0  0  0  0  0  0  0
   -8.7524  -10.4807    9.9656 C   0  0  0  0  0  0  0  0  0  0  0  0
   -9.6253  -10.2472   11.0535 O   0  0  0  0  0  0  0  0  0  0  0  0
   -8.4188   -9.1389    9.2974 C   0  0  0  0  0  0  0  0  0  0  0  0
   -7.4184   -9.3440    8.2499 O   0  0  0  0  0  0  0  0  0  0  0  0
   -7.2844  -10.5993    7.6889 C   0  0  0  0  0  0  0  0  0  0  0  0
   -6.0497  -10.9063    7.2465 N   0  0  0  0  0  0  0  0  0  0  0  0
   -8.9203  -13.1198    9.9157 H   0  0  0  0  0  0  0  0  0  0  0  0
  -10.4403   -9.8318   10.7307 H   0  0  0  0  0  0  0  0  0  0  0  0
  -10.8943  -11.1153    4.8169 C   0  0  0  0  0  0  0  0  0  0  0  0
  -10.0733  -10.7272    6.0480 C   0  0  0  0  0  0  0  0  0  0  0  0
  -10.1747   -9.6034    6.5551 O   0  0  0  0  0  0  0  0  0  0  0  0
   -9.2612  -11.7059    6.4746 N   0  0  0  0  0  0  0  0  0  0  0  0
   -9.2046  -12.5217    5.9265 H   0  0  0  0  0  0  0  0  0  0  0  0
   -8.0062   -8.0814   10.3199 C   0  0  0  0  0  0  0  0  0  0  0  0
   -6.6098   -8.0901   10.5286 O   0  0  0  0  0  0  0  0  0  0  0  0
   -6.3392   -8.9570   10.8696 H   0  0  0  0  0  0  0  0  0  0  0  0
   -5.0908   -9.9007    7.3499 O   0  0  0  0  0  0  0  0  0  0  0  0
   -4.1723  -10.0509    8.3571 C   0  0  0  0  0  0  0  0  0  0  0  0
   -2.9693   -9.8034    8.1899 O   0  0  0  0  0  0  0  0  0  0  0  0
   -4.6687  -10.5019    9.5210 N   0  0  0  0  0  0  0  0  0  0  0  0
   -5.6244  -10.7362    9.5513 H   0  0  0  0  0  0  0  0  0  0  0  0
   -3.9548  -10.6546   10.6412 C   0  0  0  0  0  0  0  0  0  0  0  0
   -3.7296   -9.5938   11.5299 C   0  0  0  0  0  0  0  0  0  0  0  0
   -3.0154   -9.8057   12.7044 C   0  0  0  0  0  0  0  0  0  0  0  0
   -2.5195  -11.0881   12.9803 C   0  0  0  0  0  0  0  0  0  0  0  0
   -2.7403  -12.1516   12.0885 C   0  0  0  0  0  0  0  0  0  0  0  0
   -3.4731  -11.9319   10.9256 C   0  0  0  0  0  0  0  0  0  0  0  0
 12 13  1  0  0  0
 13 14  2  0  0  0
 13 15  1  0  0  0
 15  1  1  0  0  0
  1  2  1  0  0  0
  1  8  1  0  0  0
  2  3  1  0  0  0
  2  4  1  0  0  0
  4  5  1  0  0  0
  4  6  1  0  0  0
  6 17  1  0  0  0
  6  7  1  0  0  0
 17 18  1  0  0  0
  7  8  1  0  0  0
  8  9  2  0  0  0
  9 20  1  0  0  0
 20 21  1  0  0  0
 21 22  2  0  0  0
 21 23  1  0  0  0
 23 25  1  0  0  0
 25 26  2  0  0  0
 25 30  1  0  0  0
 26 27  1  0  0  0
 27 28  2  0  0  0
 28 29  1  0  0  0
 29 30  2  0  0  0
 15 16  1  0  0  0
  3 10  1  0  0  0
  5 11  1  0  0  0
 18 19  1  0  0  0
 23 24  1  0  0  0
M  END
> <minimizedAffinity>
-10.54390

$$$$
2VVS_OAN_A_900


 30 31  0  0  0  0  0  0  0  0999 V2000
   -8.3124  -11.6199    7.7487 C   0  0  0  0  0  0  0  0  0  0  0  0
   -9.2594  -11.4960    8.9800 C   0  0  0  0  0  0  0  0  0  0  0  0
   -9.5054  -12.7746    9.6051 O   0  0  0  0  0  0  0  0  0  0  0  0
   -8.7122  -10.4883   10.0119 C   0  0  0  0  0  0  0  0  0  0  0  0
   -9.6004  -10.3298   11.1009 O   0  0  0  0  0  0  0  0  0  0  0  0
   -8.4857   -9.1211    9.3504 C   0  0  0  0  0  0  0  0  0  0  0  0
   -7.4726   -9.2415    8.3019 O   0  0  0  0  0  0  0  0  0  0  0  0
   -7.2403  -10.4795    7.7346 C   0  0  0  0  0  0  0  0  0  0  0  0
   -5.9855  -10.6860    7.2907 N   0  0  0  0  0  0  0  0  0  0  0  0
   -8.6718  -13.1322    9.9487 H   0  0  0  0  0  0  0  0  0  0  0  0
  -10.4457   -9.9783   10.7802 H   0  0  0  0  0  0  0  0  0  0  0  0
  -10.7920  -11.2568    4.8544 C   0  0  0  0  0  0  0  0  0  0  0  0
   -9.9997  -10.8113    6.0848 C   0  0  0  0  0  0  0  0  0  0  0  0
  -10.1762   -9.6953    6.5886 O   0  0  0  0  0  0  0  0  0  0  0  0
   -9.1243  -11.7323    6.5147 N   0  0  0  0  0  0  0  0  0  0  0  0
   -9.0129  -12.5441    5.9690 H   0  0  0  0  0  0  0  0  0  0  0  0
   -8.1572   -8.0395   10.3783 C   0  0  0  0  0  0  0  0  0  0  0  0
   -6.7749   -7.7521   10.3933 O   0  0  0  0  0  0  0  0  0  0  0  0
   -6.2809   -8.5518   10.6330 H   0  0  0  0  0  0  0  0  0  0  0  0
   -5.1087   -9.6086    7.3992 O   0  0  0  0  0  0  0  0  0  0  0  0
   -3.7966   -9.9266    7.6398 C   0  0  0  0  0  0  0  0  0  0  0  0
   -3.3198   -9.9216    8.7839 O   0  0  0  0  0  0  0  0  0  0  0  0
   -3.0704  -10.2210    6.5488 N   0  0  0  0  0  0  0  0  0  0  0  0
   -3.5084  -10.1386    5.6709 H   0  0  0  0  0  0  0  0  0  0  0  0
   -1.7939  -10.6182    6.5724 C   0  0  0  0  0  0  0  0  0  0  0  0
   -1.4370  -11.9653    6.7268 C   0  0  0  0  0  0  0  0  0  0  0  0
   -0.0979  -12.3404    6.7053 C   0  0  0  0  0  0  0  0  0  0  0  0
    0.8850  -11.3545    6.5360 C   0  0  0  0  0  0  0  0  0  0  0  0
    0.5294  -10.0032    6.3857 C   0  0  0  0  0  0  0  0  0  0  0  0
   -0.8149   -9.6421    6.3895 C   0  0  0  0  0  0  0  0  0  0  0  0
 12 13  1  0  0  0
 13 14  2  0  0  0
 13 15  1  0  0  0
 15  1  1  0  0  0
  1  2  1  0  0  0
  1  8  1  0  0  0
  2  3  1  0  0  0
  2  4  1  0  0  0
  4  5  1  0  0  0
  4  6  1  0  0  0
  6 17  1  0  0  0
  6  7  1  0  0  0
 17 18  1  0  0  0
  7  8  1  0  0  0
  8  9  2  0  0  0
  9 20  1  0  0  0
 20 21  1  0  0  0
 21 22  2  0  0  0
 21 23  1  0  0  0
 23 25  1  0  0  0
 25 26  2  0  0  0
 25 30  1  0  0  0
 26 27  1  0  0  0
 27 28  2  0  0  0
 28 29  1  0  0  0
 29 30  2  0  0  0
 15 16  1  0  0  0
  3 10  1  0  0  0
  5 11  1  0  0  0
 18 19  1  0  0  0
 23 24  1  0  0  0
M  END
> <minimizedAffinity>
-9.16993

$$$$
2VVS_OAN_A_900


 30 31  0  0  0  0  0  0  0  0999 V2000
   -6.1689   -9.4516    9.9683 C   0  0  0  0  0  0  0  0  0  0  0  0
   -7.7202   -9.4043   10.1069 C   0  0  0  0  0  0  0  0  0  0  0  0
   -8.1763   -8.1531   10.6658 O   0  0  0  0  0  0  0  0  0  0  0  0
   -8.4146   -9.6758    8.7565 C   0  0  0  0  0  0  0  0  0  0  0  0
   -9.8221   -9.6933    8.8931 O   0  0  0  0  0  0  0  0  0  0  0  0
   -7.9528  -11.0236    8.1835 C   0  0  0  0  0  0  0  0  0  0  0  0
   -6.5151  -10.9801    7.9160 O   0  0  0  0  0  0  0  0  0  0  0  0
   -5.7357  -10.0629    8.5939 C   0  0  0  0  0  0  0  0  0  0  0  0
   -4.6468   -9.6273    7.9313 N   0  0  0  0  0  0  0  0  0  0  0  0
   -7.9431   -7.4270   10.0664 H   0  0  0  0  0  0  0  0  0  0  0  0
  -10.0796  -10.4093    9.4948 H   0  0  0  0  0  0  0  0  0  0  0  0
   -3.9701  -10.8762   12.7598 C   0  0  0  0  0  0  0  0  0  0  0  0
   -4.3260   -9.9653   11.5835 C   0  0  0  0  0  0  0  0  0  0  0  0
   -3.4977   -9.1755   11.1137 O   0  0  0  0  0  0  0  0  0  0  0  0
   -5.5898  -10.1148   11.1596 N   0  0  0  0  0  0  0  0  0  0  0  0
   -6.1768  -10.7101   11.6795 H   0  0  0  0  0  0  0  0  0  0  0  0
   -8.7759  -11.4352    6.9639 C   0  0  0  0  0  0  0  0  0  0  0  0
   -9.8420  -12.2853    7.3305 O   0  0  0  0  0  0  0  0  0  0  0  0
   -9.4875  -13.0914    7.7374 H   0  0  0  0  0  0  0  0  0  0  0  0
   -4.4128  -10.2043    6.6848 O   0  0  0  0  0  0  0  0  0  0  0  0
   -3.4023  -11.1300    6.6341 C   0  0  0  0  0  0  0  0  0  0  0  0
   -2.2122  -10.7972    6.5386 O   0  0  0  0  0  0  0  0  0  0  0  0
   -3.7995  -12.4126    6.6750 N   0  0  0  0  0  0  0  0  0  0  0  0
   -4.7674  -12.5924    6.6855 H   0  0  0  0  0  0  0  0  0  0  0  0
   -2.9713  -13.4620    6.7023 C   0  0  0  0  0  0  0  0  0  0  0  0
   -2.4440  -14.0238    5.5309 C   0  0  0  0  0  0  0  0  0  0  0  0
   -1.5538  -15.0898    5.6064 C   0  0  0  0  0  0  0  0  0  0  0  0
   -1.2002  -15.5966    6.8653 C   0  0  0  0  0  0  0  0  0  0  0  0
   -1.7314  -15.0378    8.0404 C   0  0  0  0  0  0  0  0  0  0  0  0
   -2.6064  -13.9587    7.9532 C   0  0  0  0  0  0  0  0  0  0  0  0
 12 13  1  0  0  0
 13 14  2  0  0  0
 13 15  1  0  0  0
 15  1  1  0  0  0
  1  2  1  0  0  0
  1  8  1  0  0  0
  2  3  1  0  0  0
  2  4  1  0  0  0
  4  5  1  0  0  0
  4  6  1  0  0  0
  6 17  1  0  0  0
  6  7  1  0  0  0
 17 18  1  0  0  0
  7  8  1  0  0  0
  8  9  2  0  0  0
  9 20  1  0  0  0
 20 21  1  0  0  0
 21 22  2  0  0  0
 21 23  1  0  0  0
 23 25  1  0  0  0
 25 26  2  0  0  0
 25 30  1  0  0  0
 26 27  1  0  0  0
 27 28  2  0  0  0
 28 29  1  0  0  0
 29 30  2  0  0  0
 15 16  1  0  0  0
  3 10  1  0  0  0
  5 11  1  0  0  0
 18 19  1  0  0  0
 23 24  1  0  0  0
M  END
> <minimizedAffinity>
-8.73220

$$$$
2VVS_OAN_A_900


 30 31  0  0  0  0  0  0  0  0999 V2000
   -5.5352  -10.4988    8.1842 C   0  0  0  0  0  0  0  0  0  0  0  0
   -6.9314  -10.1330    7.5972 C   0  0  0  0  0  0  0  0  0  0  0  0
   -7.4905  -11.2117    6.8164 O   0  0  0  0  0  0  0  0  0  0  0  0
   -7.9143   -9.7057    8.7068 C   0  0  0  0  0  0  0  0  0  0  0  0
   -9.1627   -9.3154    8.1694 O   0  0  0  0  0  0  0  0  0  0  0  0
   -7.3303   -8.5355    9.5115 C   0  0  0  0  0  0  0  0  0  0  0  0
   -6.1003   -8.9607   10.1799 O   0  0  0  0  0  0  0  0  0  0  0  0
   -5.4041  -10.0420    9.6756 C   0  0  0  0  0  0  0  0  0  0  0  0
   -4.7123  -10.7584   10.5826 N   0  0  0  0  0  0  0  0  0  0  0  0
   -7.6383  -11.9816    7.3877 H   0  0  0  0  0  0  0  0  0  0  0  0
   -9.0391   -8.5489    7.5879 H   0  0  0  0  0  0  0  0  0  0  0  0
   -2.3062   -9.6502    6.3107 C   0  0  0  0  0  0  0  0  0  0  0  0
   -3.2124  -10.4471    7.2508 C   0  0  0  0  0  0  0  0  0  0  0  0
   -2.7782  -11.4132    7.8899 O   0  0  0  0  0  0  0  0  0  0  0  0
   -4.4755   -9.9962    7.2793 N   0  0  0  0  0  0  0  0  0  0  0  0
   -4.7163   -9.2771    6.6515 H   0  0  0  0  0  0  0  0  0  0  0  0
   -8.3570   -7.9374   10.4720 C   0  0  0  0  0  0  0  0  0  0  0  0
   -9.0500   -8.9483   11.1731 O   0  0  0  0  0  0  0  0  0  0  0  0
   -9.5242   -9.5123   10.5422 H   0  0  0  0  0  0  0  0  0  0  0  0
   -4.7338  -10.2804   11.8912 O   0  0  0  0  0  0  0  0  0  0  0  0
   -3.7373  -10.7408   12.7130 C   0  0  0  0  0  0  0  0  0  0  0  0
   -3.9715  -11.4932   13.6698 O   0  0  0  0  0  0  0  0  0  0  0  0
   -2.5030  -10.3016   12.4163 N   0  0  0  0  0  0  0  0  0  0  0  0
   -2.4116   -9.6548   11.6797 H   0  0  0  0  0  0  0  0  0  0  0  0
   -1.3899  -10.6819   13.0521 C   0  0  0  0  0  0  0  0  0  0  0  0
   -0.6773  -11.8310   12.6809 C   0  0  0  0  0  0  0  0  0  0  0  0
    0.4984  -12.1683   13.3430 C   0  0  0  0  0  0  0  0  0  0  0  0
    0.9531  -11.3504   14.3874 C   0  0  0  0  0  0  0  0  0  0  0  0
    0.2377  -10.2008   14.7639 C   0  0  0  0  0  0  0  0  0  0  0  0
   -0.9273   -9.8625   14.0812 C   0  0  0  0  0  0  0  0  0  0  0  0
 12 13  1  0  0  0
 13 14  2  0  0  0
 13 15  1  0  0  0
 15  1  1  0  0  0
  1  2  1  0  0  0
  1  8  1  0  0  0
  2  3  1  0  0  0
  2  4  1  0  0  0
  4  5  1  0  0  0
  4  6  1  0  0  0
  6 17  1  0  0  0
  6  7  1  0  0  0
 17 18  1  0  0  0
  7  8  1  0  0  0
  8  9  2  0  0  0
  9 20  1  0  0  0
 20 21  1  0  0  0
 21 22  2  0  0  0
 21 23  1  0  0  0
 23 25  1  0  0  0
 25 26  2  0  0  0
 25 30  1  0  0  0
 26 27  1  0  0  0
 27 28  2  0  0  0
 28 29  1  0  0  0
 29 30  2  0  0  0
 15 16  1  0  0  0
  3 10  1  0  0  0
  5 11  1  0  0  0
 18 19  1  0  0  0
 23 24  1  0  0  0
M  END
> <minimizedAffinity>
-8.18999

$$$$
2VVS_OAN_A_900


 30 31  0  0  0  0  0  0  0  0999 V2000
   -3.2732  -12.2554   11.1257 C   0  0  0  0  0  0  0  0  0  0  0  0
   -2.8060  -13.2083    9.9847 C   0  0  0  0  0  0  0  0  0  0  0  0
   -3.0758  -14.5937   10.2913 O   0  0  0  0  0  0  0  0  0  0  0  0
   -3.4416  -12.8222    8.6332 C   0  0  0  0  0  0  0  0  0  0  0  0
   -2.9714  -13.6483    7.5861 O   0  0  0  0  0  0  0  0  0  0  0  0
   -3.1222  -11.3587    8.2951 C   0  0  0  0  0  0  0  0  0  0  0  0
   -3.7120  -10.4786    9.3040 O   0  0  0  0  0  0  0  0  0  0  0  0
   -3.9985  -10.9914   10.5544 C   0  0  0  0  0  0  0  0  0  0  0  0
   -5.0362  -10.4158   11.1917 N   0  0  0  0  0  0  0  0  0  0  0  0
   -4.0333  -14.7268   10.3704 H   0  0  0  0  0  0  0  0  0  0  0  0
   -2.0125  -13.5368    7.4920 H   0  0  0  0  0  0  0  0  0  0  0  0
   -0.9019  -11.3735   13.9990 C   0  0  0  0  0  0  0  0  0  0  0  0
   -2.2245  -11.7860   13.3503 C   0  0  0  0  0  0  0  0  0  0  0  0
   -3.2489  -11.9355   14.0275 O   0  0  0  0  0  0  0  0  0  0  0  0
   -2.1311  -11.9698   12.0249 N   0  0  0  0  0  0  0  0  0  0  0  0
   -1.2361  -11.9104   11.6190 H   0  0  0  0  0  0  0  0  0  0  0  0
   -3.5406  -10.9999    6.8701 C   0  0  0  0  0  0  0  0  0  0  0  0
   -4.8572  -11.4326    6.6001 O   0  0  0  0  0  0  0  0  0  0  0  0
   -4.9057  -12.3971    6.6917 H   0  0  0  0  0  0  0  0  0  0  0  0
   -5.6392   -9.3414   10.5410 O   0  0  0  0  0  0  0  0  0  0  0  0
   -6.8557   -9.5982    9.9625 C   0  0  0  0  0  0  0  0  0  0  0  0
   -7.9229   -9.3505   10.5421 O   0  0  0  0  0  0  0  0  0  0  0  0
   -6.8017  -10.1523    8.7400 N   0  0  0  0  0  0  0  0  0  0  0  0
   -5.9143  -10.3768    8.3775 H   0  0  0  0  0  0  0  0  0  0  0  0
   -7.8697  -10.4200    7.9813 C   0  0  0  0  0  0  0  0  0  0  0  0
   -8.3014   -9.5487    6.9711 C   0  0  0  0  0  0  0  0  0  0  0  0
   -9.3933   -9.8849    6.1779 C   0  0  0  0  0  0  0  0  0  0  0  0
  -10.0573  -11.0984    6.4084 C   0  0  0  0  0  0  0  0  0  0  0  0
   -9.6288  -11.9709    7.4235 C   0  0  0  0  0  0  0  0  0  0  0  0
   -8.5228  -11.6327    8.1983 C   0  0  0  0  0  0  0  0  0  0  0  0
 12 13  1  0  0  0
 13 14  2  0  0  0
 13 15  1  0  0  0
 15  1  1  0  0  0
  1  2  1  0  0  0
  1  8  1  0  0  0
  2  3  1  0  0  0
  2  4  1  0  0  0
  4  5  1  0  0  0
  4  6  1  0  0  0
  6 17  1  0  0  0
  6  7  1  0  0  0
 17 18  1  0  0  0
  7  8  1  0  0  0
  8  9  2  0  0  0
  9 20  1  0  0  0
 20 21  1  0  0  0
 21 22  2  0  0  0
 21 23  1  0  0  0
 23 25  1  0  0  0
 25 26  2  0  0  0
 25 30  1  0  0  0
 26 27  1  0  0  0
 27 28  2  0  0  0
 28 29  1  0  0  0
 29 30  2  0  0  0
 15 16  1  0  0  0
  3 10  1  0  0  0
  5 11  1  0  0  0
 18 19  1  0  0  0
 23 24  1  0  0  0
M  END
> <minimizedAffinity>
-7.57662

$$$$
