2VVS_OAN_A_900
  RCSB PDB12061707093D
Coordinates from PDB:2VVS:A:900 Model:1 without hydrogens
 25 26  0  0  0  0            999 V2000
  -11.0440  -11.0480    5.0140   C 0  0  0  0  0  0  0  0  0  0  0  0
  -10.1010  -10.6620    6.1550   C 0  0  0  0  0  0  0  0  0  0  0  0
  -10.0280   -9.4940    6.5560   O 0  0  0  0  0  0  0  0  0  0  0  0
   -9.3900  -11.6960    6.6290   N 0  0  0  0  0  0  0  0  0  0  0  0
   -8.4910  -11.6390    7.8050   C 0  0  0  0  0  0  0  0  0  0  0  0
   -9.3330  -11.3550    9.0850   C 0  0  0  0  0  0  0  0  0  0  0  0
   -9.6890  -12.5700    9.7800   O 0  0  0  0  0  0  0  0  0  0  0  0
   -8.6020  -10.3850   10.0360   C 0  0  0  0  0  0  0  0  0  0  0  0
   -9.3910  -10.0790   11.1690   O 0  0  0  0  0  0  0  0  0  0  0  0
   -8.2570   -9.0810    9.3020   C 0  0  0  0  0  0  0  0  0  0  0  0
   -7.7340   -8.0110   10.2590   C 0  0  0  0  0  0  0  0  0  0  0  0
   -6.3940   -8.2640   10.6250   O 0  0  0  0  0  0  0  0  0  0  0  0
   -7.3370   -9.3630    8.2000   O 0  0  0  0  0  0  0  0  0  0  0  0
   -7.2930  -10.6400    7.6750   C 0  0  0  0  0  0  0  0  0  0  0  0
   -6.1040  -11.0150    7.1650   N 0  0  0  0  0  0  0  0  0  0  0  0
   -5.0990  -10.0500    7.1720   O 0  0  0  0  0  0  0  0  0  0  0  0
   -3.8640  -10.4690    6.7480   C 0  0  0  0  0  0  0  0  0  0  0  0
   -3.6570  -11.6350    6.3820   O 0  0  0  0  0  0  0  0  0  0  0  0
   -2.9010   -9.5330    6.7790   N 0  0  0  0  0  0  0  0  0  0  0  0
   -1.6490   -9.7190    6.3480   C 0  0  0  0  0  0  0  0  0  0  0  0
   -1.0970  -10.9990    6.1970   C 0  0  0  0  0  0  0  0  0  0  0  0
    0.1960  -11.1490    5.7070   C 0  0  0  0  0  0  0  0  0  0  0  0
    0.9380  -10.0060    5.3760   C 0  0  0  0  0  0  0  0  0  0  0  0
    0.3880   -8.7220    5.5310   C 0  0  0  0  0  0  0  0  0  0  0  0
   -0.9140   -8.5850    6.0040   C 0  0  0  0  0  0  0  0  0  0  0  0
  1  2  1  0  0  0  0
  2  3  2  0  0  0  0
  2  4  1  0  0  0  0
  4  5  1  0  0  0  0
  5  6  1  0  0  0  0
  5 14  1  0  0  0  0
  6  7  1  0  0  0  0
  6  8  1  0  0  0  0
  8  9  1  0  0  0  0
  8 10  1  0  0  0  0
 10 11  1  0  0  0  0
 10 13  1  0  0  0  0
 11 12  1  0  0  0  0
 13 14  1  0  0  0  0
 14 15  2  0  0  0  0
 15 16  1  0  0  0  0
 16 17  1  0  0  0  0
 17 18  2  0  0  0  0
 17 19  1  0  0  0  0
 19 20  1  0  0  0  0
 20 21  2  0  0  0  0
 20 25  1  0  0  0  0
 21 22  1  0  0  0  0
 22 23  2  0  0  0  0
 23 24  1  0  0  0  0
 24 25  2  0  0  0  0
A    1
CAH
A    2
CAG
A    3
OAN
A    4
NAI
A    5
CAB
A    6
CAC
A    7
OAJ
A    8
CAD
A    9
OAK
A   10
CAE
A   11
CAF
A   12
OAM
A   13
OAL
A   14
CAA
A   15
NAY
A   16
OAQ
A   17
CAP
A   18
OAR
A   19
NAO
A   20
CAS
A   21
CAT
A   22
CAU
A   23
CAV
A   24
CAW
A   25
CAX
M  END
>  <InstanceId>
2VVS_OAN_A_900

>  <ChemCompId>
OAN

>  <PdbId>
2VVS

>  <ChainId>
A

>  <ResidueNumber>
900

>  <InsertionCode>


>  <Model>
1

>  <AltIds>


>  <MissingHeavyAtoms>
0

>  <ObservedFormula>
C15 N3 O7

>  <Name>
O-(2-ACETAMIDO-2-DEOXY D-GLUCOPYRANOSYLIDENE) AMINO-N-PHENYLCARBAMATE

>  <SystematicName>
[(Z)-[(3R,4R,5S,6R)-3-acetamido-6-(hydroxymethyl)-4,5-bis(oxidanyl)oxan-2-ylidene]amino] N-phenylcarbamate

>  <Synonyms>
PUGNAc

>  <Type>
NON-POLYMER

>  <Formula>
C15 H19 N3 O7

>  <MolecularWeight>
353.327

>  <ModifiedDate>
2011-08-15

>  <Parent>


>  <OneLetterCode>


>  <SubcomponentList>


>  <AmbiguousFlag>
N

>  <InChI>
InChI=1S/C15H19N3O7/c1-8(20)16-11-13(22)12(21)10(7-19)24-14(11)18-25-15(23)17-9-5-3-2-4-6-9/h2-6,10-13,19,21-22H,7H2,1H3,(H,16,20)(H,17,23)/b18-14-/t10-,11-,12-,13-/m1/s1

>  <InChIKey>
PBLNJFVQMUMOJY-JXZOILRNSA-N

>  <SMILES>
CC(=O)N[C@@H]\1[C@H]([C@@H]([C@H](O/C1=N\OC(=O)Nc2ccccc2)CO)O)O

$$$$
