3QX5_02P_H_5
  RCSB PDB12061710293D
Coordinates from PDB:3QX5:H:5 Model:1 without hydrogens
 28 30  0  0  0  0            999 V2000
   16.4240  -15.5120   23.3060   N 0  0  0  0  0  0  0  0  0  0  0  0
   17.6850  -14.7880   23.3080   C 0  0  0  0  0  0  0  0  0  0  0  0
   17.4080  -13.4370   22.7140   C 0  0  0  0  0  0  0  0  0  0  0  0
   16.4780  -12.7610   23.1340   O 0  0  0  0  0  0  0  0  0  0  0  0
   18.1720  -14.6910   24.7490   C 0  0  0  0  0  0  0  0  0  0  0  0
   19.5740  -14.1400   24.8310   C 0  0  0  0  0  0  0  0  0  0  0  0
   19.7810  -12.9810   25.5680   C 0  0  0  0  0  0  0  0  0  0  0  0
   20.6460  -14.7660   24.1940   C 0  0  0  0  0  0  0  0  0  0  0  0
   21.0550  -12.4410   25.6690   C 0  0  0  0  0  0  0  0  0  0  0  0
   21.9240  -14.2220   24.2990   C 0  0  0  0  0  0  0  0  0  0  0  0
   22.1300  -13.0620   25.0390   C 0  0  0  0  0  0  0  0  0  0  0  0
   18.1760  -13.0170   21.7070   N 0  0  0  0  0  0  0  0  0  0  0  0
   17.8850  -11.7110   21.1120   C 0  0  0  0  0  0  0  0  0  0  0  0
   16.4510  -11.6410   20.6420   C 0  0  0  0  0  0  0  0  0  0  0  0
   15.9570  -12.5680   20.0060   O 0  0  0  0  0  0  0  0  0  0  0  0
   18.8570  -11.6130   19.9430   C 0  0  0  0  0  0  0  0  0  0  0  0
   19.9600  -12.6050   20.2520   C 0  0  0  0  0  0  0  0  0  0  0  0
   19.3160  -13.6980   21.0900   C 0  0  0  0  0  0  0  0  0  0  0  0
   12.2700   -7.5340   24.5420  Cl 0  0  0  0  0  0  0  0  0  0  0  0
   15.7480  -10.5500   20.9450   N 0  0  0  0  0  0  0  0  0  0  0  0
   14.3550  -10.3360   20.5670   C 0  0  0  0  0  0  0  0  0  0  0  0
   13.4280  -10.2790   21.7690   C 0  0  0  0  0  0  0  0  0  0  0  0
   12.7200  -11.3620   22.1460   N 0  3  0  0  0  0  0  0  0  0  0  0
   13.3000   -9.0870   22.4730   C 0  0  0  0  0  0  0  0  0  0  0  0
   12.4470   -9.0340   23.5760   C 0  0  0  0  0  0  0  0  0  0  0  0
   11.7230  -10.1610   23.9420   C 0  0  0  0  0  0  0  0  0  0  0  0
   11.8890  -11.3200   23.2010   C 0  0  0  0  0  0  0  0  0  0  0  0
   12.8480  -12.6260   21.4090   C 0  0  0  0  0  0  0  0  0  0  0  0
 11 10  2  0  0  0  0
 11  9  1  0  0  0  0
 19 25  1  0  0  0  0
  7  6  1  0  0  0  0
  7  9  2  0  0  0  0
  6  8  2  0  0  0  0
  6  5  1  0  0  0  0
  8 10  1  0  0  0  0
  5  2  1  0  0  0  0
  2  3  1  0  0  0  0
  2  1  1  0  0  0  0
  3 12  1  0  0  0  0
  3  4  2  0  0  0  0
 12 13  1  0  0  0  0
 12 18  1  0  0  0  0
 13 16  1  0  0  0  0
 13 14  1  0  0  0  0
 18 17  1  0  0  0  0
 16 17  1  0  0  0  0
 14 20  1  0  0  0  0
 14 15  2  0  0  0  0
 20 21  1  0  0  0  0
 21 22  1  0  0  0  0
 22 23  2  0  0  0  0
 22 24  1  0  0  0  0
 23 27  1  0  0  0  0
 23 28  1  0  0  0  0
 24 25  2  0  0  0  0
 25 26  1  0  0  0  0
 26 27  2  0  0  0  0
M  CHG  1  23   1
A    1
N10
A    2
C8
A    3
C9
A    4
O12
A    5
C7
A    6
C4
A    7
C3
A    8
C5
A    9
C26
A   10
C6
A   11
C1
A   12
N11
A   13
C13
A   14
C17
A   15
O28
A   16
C15
A   17
C16
A   18
C14
A   19
CL2
A   20
N18
A   21
C19
A   22
C20
A   23
N21
A   24
C22
A   25
C23
A   26
C24
A   27
C25
A   28
C27
M  END
>  <InstanceId>
3QX5_02P_H_5

>  <ChemCompId>
02P

>  <PdbId>
3QX5

>  <ChainId>
H

>  <ResidueNumber>
5

>  <InsertionCode>


>  <Model>
1

>  <AltIds>


>  <MissingHeavyAtoms>
0

>  <ObservedFormula>
C21 N4 O2 Cl

>  <Name>
D-phenylalanyl-N-[(4-chloro-1-methylpyridinium-2-yl)methyl]-L-prolinamide

>  <SystematicName>
(2S)-1-[(2R)-2-azanyl-3-phenyl-propanoyl]-N-[(4-chloro-1-methyl-pyridin-1-ium-2-yl)methyl]pyrrolidine-2-carboxamide

>  <Synonyms>


>  <Type>
peptide-like

>  <Formula>
C21 H26 Cl N4 O2

>  <MolecularWeight>
401.91

>  <ModifiedDate>
2012-03-02

>  <Parent>


>  <OneLetterCode>


>  <SubcomponentList>
DPN PRO NNX

>  <AmbiguousFlag>
N

>  <InChI>
InChI=1S/C21H25ClN4O2/c1-25-11-9-16(22)13-17(25)14-24-20(27)19-8-5-10-26(19)21(28)18(23)12-15-6-3-2-4-7-15/h2-4,6-7,9,11,13,18-19H,5,8,10,12,14,23H2,1H3/p+1/t18-,19+/m1/s1

>  <InChIKey>
BNDOLKJAONQVEV-MOPGFXCFSA-O

>  <SMILES>
C[n+]1ccc(cc1CNC(=O)[C@@H]2CCCN2C(=O)[C@@H](Cc3ccccc3)N)Cl

$$$$
