3QX5_02P_H_5


 31 33  0  0  0  0  0  0  0  0999 V2000
   17.4711  -13.3902   22.6095 C   0  0  0  0  0  0  0  0  0  0  0  0
   16.4850  -12.7679   22.9817 O   0  0  0  0  0  0  0  0  0  0  0  0
   18.2657  -12.9248   21.6439 N   0  0  0  0  0  0  0  0  0  0  0  0
   17.9344  -11.6343   21.0361 C   0  0  0  0  0  0  0  0  0  0  0  0
   18.9584  -11.4786   19.9190 C   0  0  0  0  0  0  0  0  0  0  0  0
   20.0969  -12.4099   20.2834 C   0  0  0  0  0  0  0  0  0  0  0  0
   19.4717  -13.5398   21.0858 C   0  0  0  0  0  0  0  0  0  0  0  0
   16.5524  -15.4880   23.2257 N   0  0  0  0  0  0  0  0  0  0  0  0
   17.7910  -14.7263   23.2154 C   0  0  0  0  0  0  0  0  0  0  0  0
   16.7225  -16.4083   23.6312 H   0  0  0  0  0  0  0  0  0  0  0  0
   16.2113  -15.5951   22.2704 H   0  0  0  0  0  0  0  0  0  0  0  0
   18.2803  -14.6005   24.6534 C   0  0  0  0  0  0  0  0  0  0  0  0
   19.6572  -13.9882   24.7255 C   0  0  0  0  0  0  0  0  0  0  0  0
   19.8013  -12.7743   25.3851 C   0  0  0  0  0  0  0  0  0  0  0  0
   20.7674  -14.6114   24.1546 C   0  0  0  0  0  0  0  0  0  0  0  0
   21.0503  -12.1769   25.4742 C   0  0  0  0  0  0  0  0  0  0  0  0
   22.0201  -14.0096   24.2476 C   0  0  0  0  0  0  0  0  0  0  0  0
   22.1631  -12.7946   24.9101 C   0  0  0  0  0  0  0  0  0  0  0  0
   16.5248  -11.6412   20.4928 C   0  0  0  0  0  0  0  0  0  0  0  0
   16.1731  -12.4932   19.6815 O   0  0  0  0  0  0  0  0  0  0  0  0
   15.6848  -10.7017   20.9265 N   0  0  0  0  0  0  0  0  0  0  0  0
   16.0249  -10.0468   21.5781 H   0  0  0  0  0  0  0  0  0  0  0  0
   14.2947  -10.5790   20.5003 C   0  0  0  0  0  0  0  0  0  0  0  0
   12.2701   -7.4512   24.2575 Cl  0  0  0  0  0  0  0  0  0  0  0  0
   13.3408  -10.4043   21.6694 C   0  0  0  0  0  0  0  0  0  0  0  0
   12.5613  -11.4234   22.0819 N   0  0  0  0  0  0  0  0  0  0  0  0
   13.2633   -9.1703   22.3052 C   0  0  0  0  0  0  0  0  0  0  0  0
   12.3856   -9.0092   23.3779 C   0  0  0  0  0  0  0  0  0  0  0  0
   11.5880  -10.0719   23.7813 C   0  0  0  0  0  0  0  0  0  0  0  0
   11.7063  -11.2771   23.1079 C   0  0  0  0  0  0  0  0  0  0  0  0
   12.6355  -12.7309   21.4169 C   0  0  0  0  0  0  0  0  0  0  0  0
 18 17  2  0  0  0
 18 16  1  0  0  0
 24 28  1  0  0  0
 14 13  1  0  0  0
 14 16  2  0  0  0
 13 15  2  0  0  0
 13 12  1  0  0  0
 15 17  1  0  0  0
 12  9  1  0  0  0
  9  1  1  0  0  0
  9  8  1  0  0  0
  1  3  1  0  0  0
  1  2  2  0  0  0
  3  4  1  0  0  0
  3  7  1  0  0  0
  4  5  1  0  0  0
  4 19  1  0  0  0
  7  6  1  0  0  0
  5  6  1  0  0  0
 19 21  1  0  0  0
 19 20  2  0  0  0
 21 23  1  0  0  0
 23 25  1  0  0  0
 25 26  2  0  0  0
 25 27  1  0  0  0
 26 30  1  0  0  0
 26 31  1  0  0  0
 27 28  2  0  0  0
 28 29  1  0  0  0
 29 30  2  0  0  0
  8 10  1  0  0  0
  8 11  1  0  0  0
 21 22  1  0  0  0
M  CHG 1  26   1
M  END
> <minimizedAffinity>
-10.09698

$$$$
3QX5_02P_H_5


 31 33  0  0  0  0  0  0  0  0999 V2000
   17.1931  -13.5448   21.0413 C   0  0  0  0  0  0  0  0  0  0  0  0
   16.9839  -13.1413   19.9048 O   0  0  0  0  0  0  0  0  0  0  0  0
   16.7210  -14.7198   21.4618 N   0  0  0  0  0  0  0  0  0  0  0  0
   15.9442  -15.5306   20.5218 C   0  0  0  0  0  0  0  0  0  0  0  0
   15.4755  -16.7159   21.3563 C   0  0  0  0  0  0  0  0  0  0  0  0
   16.4185  -16.7724   22.5411 C   0  0  0  0  0  0  0  0  0  0  0  0
   16.8779  -15.3425   22.7777 C   0  0  0  0  0  0  0  0  0  0  0  0
   17.7885  -11.3163   21.5921 N   0  0  0  0  0  0  0  0  0  0  0  0
   17.9657  -12.6975   22.0107 C   0  0  0  0  0  0  0  0  0  0  0  0
   18.2989  -10.7009   22.2255 H   0  0  0  0  0  0  0  0  0  0  0  0
   16.7967  -11.0792   21.6133 H   0  0  0  0  0  0  0  0  0  0  0  0
   19.4569  -13.0118   21.9840 C   0  0  0  0  0  0  0  0  0  0  0  0
   20.0583  -12.9944   23.3675 C   0  0  0  0  0  0  0  0  0  0  0  0
   21.4323  -12.8271   23.4831 C   0  0  0  0  0  0  0  0  0  0  0  0
   19.2712  -13.1368   24.5107 C   0  0  0  0  0  0  0  0  0  0  0  0
   22.0258  -12.8052   24.7370 C   0  0  0  0  0  0  0  0  0  0  0  0
   19.8702  -13.1126   25.7681 C   0  0  0  0  0  0  0  0  0  0  0  0
   21.2464  -12.9433   25.8823 C   0  0  0  0  0  0  0  0  0  0  0  0
   14.7745  -14.7472   19.9739 C   0  0  0  0  0  0  0  0  0  0  0  0
   14.5525  -14.7201   18.7665 O   0  0  0  0  0  0  0  0  0  0  0  0
   13.9976  -14.0983   20.8409 N   0  0  0  0  0  0  0  0  0  0  0  0
   14.2259  -14.1587   21.7967 H   0  0  0  0  0  0  0  0  0  0  0  0
   12.8315  -13.3042   20.4684 C   0  0  0  0  0  0  0  0  0  0  0  0
   11.4223   -9.9802   24.3367 Cl  0  0  0  0  0  0  0  0  0  0  0  0
   12.8699  -11.9035   21.0548 C   0  0  0  0  0  0  0  0  0  0  0  0
   13.5321  -10.9111   20.4279 N   0  0  0  0  0  0  0  0  0  0  0  0
   12.2268  -11.6539   22.2619 C   0  0  0  0  0  0  0  0  0  0  0  0
   12.2636  -10.3676   22.8016 C   0  0  0  0  0  0  0  0  0  0  0  0
   12.9574   -9.3626   22.1407 C   0  0  0  0  0  0  0  0  0  0  0  0
   13.5816   -9.6710   20.9428 C   0  0  0  0  0  0  0  0  0  0  0  0
   14.2148  -11.1644   19.1523 C   0  0  0  0  0  0  0  0  0  0  0  0
 18 17  2  0  0  0
 18 16  1  0  0  0
 24 28  1  0  0  0
 14 13  1  0  0  0
 14 16  2  0  0  0
 13 15  2  0  0  0
 13 12  1  0  0  0
 15 17  1  0  0  0
 12  9  1  0  0  0
  9  1  1  0  0  0
  9  8  1  0  0  0
  1  3  1  0  0  0
  1  2  2  0  0  0
  3  4  1  0  0  0
  3  7  1  0  0  0
  4  5  1  0  0  0
  4 19  1  0  0  0
  7  6  1  0  0  0
  5  6  1  0  0  0
 19 21  1  0  0  0
 19 20  2  0  0  0
 21 23  1  0  0  0
 23 25  1  0  0  0
 25 26  2  0  0  0
 25 27  1  0  0  0
 26 30  1  0  0  0
 26 31  1  0  0  0
 27 28  2  0  0  0
 28 29  1  0  0  0
 29 30  2  0  0  0
  8 10  1  0  0  0
  8 11  1  0  0  0
 21 22  1  0  0  0
M  CHG 1  26   1
M  END
> <minimizedAffinity>
-8.31479

$$$$
3QX5_02P_H_5


 31 33  0  0  0  0  0  0  0  0999 V2000
   17.4989  -13.1843   22.3944 C   0  0  0  0  0  0  0  0  0  0  0  0
   16.4973  -12.5289   22.6504 O   0  0  0  0  0  0  0  0  0  0  0  0
   18.3623  -12.7989   21.4531 N   0  0  0  0  0  0  0  0  0  0  0  0
   18.0881  -11.5562   20.7286 C   0  0  0  0  0  0  0  0  0  0  0  0
   19.1871  -11.4926   19.6754 C   0  0  0  0  0  0  0  0  0  0  0  0
   20.2872  -12.4010   20.1858 C   0  0  0  0  0  0  0  0  0  0  0  0
   19.5959  -13.4625   21.0266 C   0  0  0  0  0  0  0  0  0  0  0  0
   16.5034  -15.2017   23.1451 N   0  0  0  0  0  0  0  0  0  0  0  0
   17.7612  -14.4726   23.1198 C   0  0  0  0  0  0  0  0  0  0  0  0
   16.6344  -16.0889   23.6310 H   0  0  0  0  0  0  0  0  0  0  0  0
   16.1944  -15.3798   22.1895 H   0  0  0  0  0  0  0  0  0  0  0  0
   18.2013  -14.2393   24.5603 C   0  0  0  0  0  0  0  0  0  0  0  0
   19.6539  -13.8409   24.6451 C   0  0  0  0  0  0  0  0  0  0  0  0
   19.9614  -12.5898   25.1642 C   0  0  0  0  0  0  0  0  0  0  0  0
   20.6738  -14.6940   24.2224 C   0  0  0  0  0  0  0  0  0  0  0  0
   21.2848  -12.1842   25.2598 C   0  0  0  0  0  0  0  0  0  0  0  0
   22.0014  -14.2842   24.3214 C   0  0  0  0  0  0  0  0  0  0  0  0
   22.3080  -13.0314   24.8432 C   0  0  0  0  0  0  0  0  0  0  0  0
   16.7185  -11.5949   20.0924 C   0  0  0  0  0  0  0  0  0  0  0  0
   16.0579  -10.5670   19.9705 O   0  0  0  0  0  0  0  0  0  0  0  0
   16.2613  -12.7725   19.6676 N   0  0  0  0  0  0  0  0  0  0  0  0
   16.8376  -13.5610   19.7920 H   0  0  0  0  0  0  0  0  0  0  0  0
   14.9637  -12.9716   19.0307 C   0  0  0  0  0  0  0  0  0  0  0  0
   13.8984  -18.1482   18.7727 Cl  0  0  0  0  0  0  0  0  0  0  0  0
   14.2203  -14.1735   19.5875 C   0  0  0  0  0  0  0  0  0  0  0  0
   13.4011  -14.0463   20.6500 N   0  0  0  0  0  0  0  0  0  0  0  0
   14.4059  -15.4198   18.9999 C   0  0  0  0  0  0  0  0  0  0  0  0
   13.7246  -16.5244   19.5125 C   0  0  0  0  0  0  0  0  0  0  0  0
   12.8904  -16.3701   20.6119 C   0  0  0  0  0  0  0  0  0  0  0  0
   12.7468  -15.1045   21.1575 C   0  0  0  0  0  0  0  0  0  0  0  0
   13.1981  -12.7342   21.2780 C   0  0  0  0  0  0  0  0  0  0  0  0
 18 17  2  0  0  0
 18 16  1  0  0  0
 24 28  1  0  0  0
 14 13  1  0  0  0
 14 16  2  0  0  0
 13 15  2  0  0  0
 13 12  1  0  0  0
 15 17  1  0  0  0
 12  9  1  0  0  0
  9  1  1  0  0  0
  9  8  1  0  0  0
  1  3  1  0  0  0
  1  2  2  0  0  0
  3  4  1  0  0  0
  3  7  1  0  0  0
  4  5  1  0  0  0
  4 19  1  0  0  0
  7  6  1  0  0  0
  5  6  1  0  0  0
 19 21  1  0  0  0
 19 20  2  0  0  0
 21 23  1  0  0  0
 23 25  1  0  0  0
 25 26  2  0  0  0
 25 27  1  0  0  0
 26 30  1  0  0  0
 26 31  1  0  0  0
 27 28  2  0  0  0
 28 29  1  0  0  0
 29 30  2  0  0  0
  8 10  1  0  0  0
  8 11  1  0  0  0
 21 22  1  0  0  0
M  CHG 1  26   1
M  END
> <minimizedAffinity>
-8.16291

$$$$
3QX5_02P_H_5


 31 33  0  0  0  0  0  0  0  0999 V2000
   17.2865  -12.9892   21.0332 C   0  0  0  0  0  0  0  0  0  0  0  0
   17.7063  -11.9858   20.4717 O   0  0  0  0  0  0  0  0  0  0  0  0
   16.3068  -13.7252   20.5052 N   0  0  0  0  0  0  0  0  0  0  0  0
   15.7422  -13.3076   19.2203 C   0  0  0  0  0  0  0  0  0  0  0  0
   14.5959  -14.2833   18.9861 C   0  0  0  0  0  0  0  0  0  0  0  0
   14.8994  -15.4798   19.8649 C   0  0  0  0  0  0  0  0  0  0  0  0
   15.6942  -14.9412   21.0439 C   0  0  0  0  0  0  0  0  0  0  0  0
   16.8295  -13.0994   23.3578 N   0  0  0  0  0  0  0  0  0  0  0  0
   17.8486  -13.3977   22.3644 C   0  0  0  0  0  0  0  0  0  0  0  0
   17.1694  -13.3620   24.2829 H   0  0  0  0  0  0  0  0  0  0  0  0
   15.9825  -13.6261   23.1446 H   0  0  0  0  0  0  0  0  0  0  0  0
   19.1029  -12.6093   22.7226 C   0  0  0  0  0  0  0  0  0  0  0  0
   19.8658  -13.2531   23.8536 C   0  0  0  0  0  0  0  0  0  0  0  0
   20.3839  -12.4315   24.8465 C   0  0  0  0  0  0  0  0  0  0  0  0
   20.0522  -14.6344   23.9193 C   0  0  0  0  0  0  0  0  0  0  0  0
   21.0919  -12.9832   25.9044 C   0  0  0  0  0  0  0  0  0  0  0  0
   20.7621  -15.1849   24.9838 C   0  0  0  0  0  0  0  0  0  0  0  0
   21.2790  -14.3607   25.9784 C   0  0  0  0  0  0  0  0  0  0  0  0
   15.2459  -11.8824   19.2881 C   0  0  0  0  0  0  0  0  0  0  0  0
   15.5076  -11.0873   18.3897 O   0  0  0  0  0  0  0  0  0  0  0  0
   14.5165  -11.5257   20.3450 N   0  0  0  0  0  0  0  0  0  0  0  0
   14.3391  -12.2081   21.0320 H   0  0  0  0  0  0  0  0  0  0  0  0
   13.9633  -10.1914   20.5520 C   0  0  0  0  0  0  0  0  0  0  0  0
   12.1293   -7.3630   24.6306 Cl  0  0  0  0  0  0  0  0  0  0  0  0
   13.0786  -10.1129   21.7842 C   0  0  0  0  0  0  0  0  0  0  0  0
   12.3370  -11.1703   22.1693 N   0  0  0  0  0  0  0  0  0  0  0  0
   13.0247   -8.9273   22.5082 C   0  0  0  0  0  0  0  0  0  0  0  0
   12.2105   -8.8545   23.6390 C   0  0  0  0  0  0  0  0  0  0  0  0
   11.4506   -9.9550   24.0131 C   0  0  0  0  0  0  0  0  0  0  0  0
   11.5427  -11.1087   23.2513 C   0  0  0  0  0  0  0  0  0  0  0  0
   12.3868  -12.4274   21.4114 C   0  0  0  0  0  0  0  0  0  0  0  0
 18 17  2  0  0  0
 18 16  1  0  0  0
 24 28  1  0  0  0
 14 13  1  0  0  0
 14 16  2  0  0  0
 13 15  2  0  0  0
 13 12  1  0  0  0
 15 17  1  0  0  0
 12  9  1  0  0  0
  9  1  1  0  0  0
  9  8  1  0  0  0
  1  3  1  0  0  0
  1  2  2  0  0  0
  3  4  1  0  0  0
  3  7  1  0  0  0
  4  5  1  0  0  0
  4 19  1  0  0  0
  7  6  1  0  0  0
  5  6  1  0  0  0
 19 21  1  0  0  0
 19 20  2  0  0  0
 21 23  1  0  0  0
 23 25  1  0  0  0
 25 26  2  0  0  0
 25 27  1  0  0  0
 26 30  1  0  0  0
 26 31  1  0  0  0
 27 28  2  0  0  0
 28 29  1  0  0  0
 29 30  2  0  0  0
  8 10  1  0  0  0
  8 11  1  0  0  0
 21 22  1  0  0  0
M  CHG 1  26   1
M  END
> <minimizedAffinity>
-7.91414

$$$$
3QX5_02P_H_5


 31 33  0  0  0  0  0  0  0  0999 V2000
   15.4467  -12.2724   21.4054 C   0  0  0  0  0  0  0  0  0  0  0  0
   15.4014  -13.4832   21.5790 O   0  0  0  0  0  0  0  0  0  0  0  0
   14.3811  -11.4976   21.6165 N   0  0  0  0  0  0  0  0  0  0  0  0
   13.1429  -12.1321   22.0734 C   0  0  0  0  0  0  0  0  0  0  0  0
   12.1302  -10.9941   22.0924 C   0  0  0  0  0  0  0  0  0  0  0  0
   12.9534   -9.7231   22.1478 C   0  0  0  0  0  0  0  0  0  0  0  0
   14.2681  -10.0466   21.4560 C   0  0  0  0  0  0  0  0  0  0  0  0
   16.3695  -10.9328   19.6796 N   0  0  0  0  0  0  0  0  0  0  0  0
   16.7100  -11.6297   20.9095 C   0  0  0  0  0  0  0  0  0  0  0  0
   17.2021  -10.4785   19.3046 H   0  0  0  0  0  0  0  0  0  0  0  0
   15.6566  -10.2296   19.8735 H   0  0  0  0  0  0  0  0  0  0  0  0
   17.7873  -12.6585   20.5871 C   0  0  0  0  0  0  0  0  0  0  0  0
   18.7582  -12.8302   21.7290 C   0  0  0  0  0  0  0  0  0  0  0  0
   20.1148  -12.6984   21.4618 C   0  0  0  0  0  0  0  0  0  0  0  0
   18.3233  -13.1100   23.0250 C   0  0  0  0  0  0  0  0  0  0  0  0
   21.0413  -12.8486   22.4835 C   0  0  0  0  0  0  0  0  0  0  0  0
   19.2562  -13.2585   24.0487 C   0  0  0  0  0  0  0  0  0  0  0  0
   20.6146  -13.1244   23.7797 C   0  0  0  0  0  0  0  0  0  0  0  0
   12.7190  -13.2295   21.1258 C   0  0  0  0  0  0  0  0  0  0  0  0
   12.3388  -12.9604   19.9896 O   0  0  0  0  0  0  0  0  0  0  0  0
   12.7778  -14.4875   21.5622 N   0  0  0  0  0  0  0  0  0  0  0  0
   13.0920  -14.6401   22.4826 H   0  0  0  0  0  0  0  0  0  0  0  0
   12.4075  -15.6536   20.7672 C   0  0  0  0  0  0  0  0  0  0  0  0
   15.2048  -15.6761   16.2757 Cl  0  0  0  0  0  0  0  0  0  0  0  0
   13.5741  -16.2067   19.9669 C   0  0  0  0  0  0  0  0  0  0  0  0
   14.3910  -17.1402   20.4936 N   0  0  0  0  0  0  0  0  0  0  0  0
   13.8064  -15.7263   18.6831 C   0  0  0  0  0  0  0  0  0  0  0  0
   14.8793  -16.2328   17.9486 C   0  0  0  0  0  0  0  0  0  0  0  0
   15.7111  -17.1900   18.5145 C   0  0  0  0  0  0  0  0  0  0  0  0
   15.4322  -17.6287   19.7989 C   0  0  0  0  0  0  0  0  0  0  0  0
   14.1543  -17.6543   21.8490 C   0  0  0  0  0  0  0  0  0  0  0  0
 18 17  2  0  0  0
 18 16  1  0  0  0
 24 28  1  0  0  0
 14 13  1  0  0  0
 14 16  2  0  0  0
 13 15  2  0  0  0
 13 12  1  0  0  0
 15 17  1  0  0  0
 12  9  1  0  0  0
  9  1  1  0  0  0
  9  8  1  0  0  0
  1  3  1  0  0  0
  1  2  2  0  0  0
  3  4  1  0  0  0
  3  7  1  0  0  0
  4  5  1  0  0  0
  4 19  1  0  0  0
  7  6  1  0  0  0
  5  6  1  0  0  0
 19 21  1  0  0  0
 19 20  2  0  0  0
 21 23  1  0  0  0
 23 25  1  0  0  0
 25 26  2  0  0  0
 25 27  1  0  0  0
 26 30  1  0  0  0
 26 31  1  0  0  0
 27 28  2  0  0  0
 28 29  1  0  0  0
 29 30  2  0  0  0
  8 10  1  0  0  0
  8 11  1  0  0  0
 21 22  1  0  0  0
M  CHG 1  26   1
M  END
> <minimizedAffinity>
-7.88011

$$$$
3QX5_02P_H_5


 31 33  0  0  0  0  0  0  0  0999 V2000
   17.3794  -13.0500   22.2999 C   0  0  0  0  0  0  0  0  0  0  0  0
   16.3959  -12.3320   22.4235 O   0  0  0  0  0  0  0  0  0  0  0  0
   18.4069  -12.6974   21.5251 N   0  0  0  0  0  0  0  0  0  0  0  0
   18.3367  -11.4143   20.8230 C   0  0  0  0  0  0  0  0  0  0  0  0
   19.5925  -11.3960   19.9607 C   0  0  0  0  0  0  0  0  0  0  0  0
   20.5329  -12.3993   20.5973 C   0  0  0  0  0  0  0  0  0  0  0  0
   19.6458  -13.4350   21.2696 C   0  0  0  0  0  0  0  0  0  0  0  0
   16.1779  -15.0519   22.7160 N   0  0  0  0  0  0  0  0  0  0  0  0
   17.4348  -14.3778   22.9989 C   0  0  0  0  0  0  0  0  0  0  0  0
   16.1706  -15.9635   23.1734 H   0  0  0  0  0  0  0  0  0  0  0  0
   16.0781  -15.1762   21.7085 H   0  0  0  0  0  0  0  0  0  0  0  0
   17.5591  -14.2244   24.5103 C   0  0  0  0  0  0  0  0  0  0  0  0
   18.9993  -14.2425   24.9590 C   0  0  0  0  0  0  0  0  0  0  0  0
   19.6257  -13.0268   25.2020 C   0  0  0  0  0  0  0  0  0  0  0  0
   19.6974  -15.4378   25.1344 C   0  0  0  0  0  0  0  0  0  0  0  0
   20.9495  -12.9988   25.6163 C   0  0  0  0  0  0  0  0  0  0  0  0
   21.0259  -15.4059   25.5521 C   0  0  0  0  0  0  0  0  0  0  0  0
   21.6514  -14.1875   25.7967 C   0  0  0  0  0  0  0  0  0  0  0  0
   17.0878  -11.3311   19.9772 C   0  0  0  0  0  0  0  0  0  0  0  0
   16.3982  -10.3151   19.9811 O   0  0  0  0  0  0  0  0  0  0  0  0
   16.7690  -12.3879   19.2302 N   0  0  0  0  0  0  0  0  0  0  0  0
   17.3617  -13.1730   19.2684 H   0  0  0  0  0  0  0  0  0  0  0  0
   15.6001  -12.4591   18.3597 C   0  0  0  0  0  0  0  0  0  0  0  0
   11.8087  -11.8736   22.0041 Cl  0  0  0  0  0  0  0  0  0  0  0  0
   14.3810  -13.0249   19.0675 C   0  0  0  0  0  0  0  0  0  0  0  0
   13.8935  -14.2376   18.7388 N   0  0  0  0  0  0  0  0  0  0  0  0
   13.7552  -12.2695   20.0527 C   0  0  0  0  0  0  0  0  0  0  0  0
   12.6341  -12.7883   20.7016 C   0  0  0  0  0  0  0  0  0  0  0  0
   12.1463  -14.0376   20.3416 C   0  0  0  0  0  0  0  0  0  0  0  0
   12.8095  -14.7433   19.3507 C   0  0  0  0  0  0  0  0  0  0  0  0
   14.5471  -15.0436   17.6993 C   0  0  0  0  0  0  0  0  0  0  0  0
 18 17  2  0  0  0
 18 16  1  0  0  0
 24 28  1  0  0  0
 14 13  1  0  0  0
 14 16  2  0  0  0
 13 15  2  0  0  0
 13 12  1  0  0  0
 15 17  1  0  0  0
 12  9  1  0  0  0
  9  1  1  0  0  0
  9  8  1  0  0  0
  1  3  1  0  0  0
  1  2  2  0  0  0
  3  4  1  0  0  0
  3  7  1  0  0  0
  4  5  1  0  0  0
  4 19  1  0  0  0
  7  6  1  0  0  0
  5  6  1  0  0  0
 19 21  1  0  0  0
 19 20  2  0  0  0
 21 23  1  0  0  0
 23 25  1  0  0  0
 25 26  2  0  0  0
 25 27  1  0  0  0
 26 30  1  0  0  0
 26 31  1  0  0  0
 27 28  2  0  0  0
 28 29  1  0  0  0
 29 30  2  0  0  0
  8 10  1  0  0  0
  8 11  1  0  0  0
 21 22  1  0  0  0
M  CHG 1  26   1
M  END
> <minimizedAffinity>
-7.82279

$$$$
3QX5_02P_H_5


 31 33  0  0  0  0  0  0  0  0999 V2000
   14.6272  -13.4563   20.7985 C   0  0  0  0  0  0  0  0  0  0  0  0
   15.6809  -13.3480   21.4118 O   0  0  0  0  0  0  0  0  0  0  0  0
   13.9530  -14.6074   20.7690 N   0  0  0  0  0  0  0  0  0  0  0  0
   14.5020  -15.7507   21.5009 C   0  0  0  0  0  0  0  0  0  0  0  0
   13.5601  -16.8971   21.1555 C   0  0  0  0  0  0  0  0  0  0  0  0
   12.2788  -16.2382   20.6861 C   0  0  0  0  0  0  0  0  0  0  0  0
   12.6909  -14.9026   20.0878 C   0  0  0  0  0  0  0  0  0  0  0  0
   14.7242  -12.3161   18.7212 N   0  0  0  0  0  0  0  0  0  0  0  0
   14.0825  -12.2897   20.0258 C   0  0  0  0  0  0  0  0  0  0  0  0
   14.3826  -11.5370   18.1585 H   0  0  0  0  0  0  0  0  0  0  0  0
   14.5057  -13.1954   18.2527 H   0  0  0  0  0  0  0  0  0  0  0  0
   14.4148  -10.9583   20.6891 C   0  0  0  0  0  0  0  0  0  0  0  0
   13.3923  -10.5810   21.7322 C   0  0  0  0  0  0  0  0  0  0  0  0
   13.3687   -9.2671   22.1822 C   0  0  0  0  0  0  0  0  0  0  0  0
   12.4850  -11.5117   22.2395 C   0  0  0  0  0  0  0  0  0  0  0  0
   12.4442   -8.8784   23.1409 C   0  0  0  0  0  0  0  0  0  0  0  0
   11.5571  -11.1175   23.2006 C   0  0  0  0  0  0  0  0  0  0  0  0
   11.5336   -9.8007   23.6491 C   0  0  0  0  0  0  0  0  0  0  0  0
   15.9149  -16.0468   21.0557 C   0  0  0  0  0  0  0  0  0  0  0  0
   16.1521  -16.3409   19.8873 O   0  0  0  0  0  0  0  0  0  0  0  0
   16.8846  -15.9721   21.9670 N   0  0  0  0  0  0  0  0  0  0  0  0
   16.6322  -15.7303   22.8874 H   0  0  0  0  0  0  0  0  0  0  0  0
   18.2951  -16.2247   21.6920 C   0  0  0  0  0  0  0  0  0  0  0  0
   20.4177  -11.6504   20.0892 Cl  0  0  0  0  0  0  0  0  0  0  0  0
   19.1720  -15.0226   21.9975 C   0  0  0  0  0  0  0  0  0  0  0  0
   19.7735  -14.8946   23.1967 N   0  0  0  0  0  0  0  0  0  0  0  0
   19.3370  -14.0379   21.0300 C   0  0  0  0  0  0  0  0  0  0  0  0
   20.1409  -12.9326   21.3113 C   0  0  0  0  0  0  0  0  0  0  0  0
   20.7457  -12.8193   22.5562 C   0  0  0  0  0  0  0  0  0  0  0  0
   20.5426  -13.8303   23.4817 C   0  0  0  0  0  0  0  0  0  0  0  0
   19.6056  -15.9292   24.2256 C   0  0  0  0  0  0  0  0  0  0  0  0
 18 17  2  0  0  0
 18 16  1  0  0  0
 24 28  1  0  0  0
 14 13  1  0  0  0
 14 16  2  0  0  0
 13 15  2  0  0  0
 13 12  1  0  0  0
 15 17  1  0  0  0
 12  9  1  0  0  0
  9  1  1  0  0  0
  9  8  1  0  0  0
  1  3  1  0  0  0
  1  2  2  0  0  0
  3  4  1  0  0  0
  3  7  1  0  0  0
  4  5  1  0  0  0
  4 19  1  0  0  0
  7  6  1  0  0  0
  5  6  1  0  0  0
 19 21  1  0  0  0
 19 20  2  0  0  0
 21 23  1  0  0  0
 23 25  1  0  0  0
 25 26  2  0  0  0
 25 27  1  0  0  0
 26 30  1  0  0  0
 26 31  1  0  0  0
 27 28  2  0  0  0
 28 29  1  0  0  0
 29 30  2  0  0  0
  8 10  1  0  0  0
  8 11  1  0  0  0
 21 22  1  0  0  0
M  CHG 1  26   1
M  END
> <minimizedAffinity>
-7.77663

$$$$
3QX5_02P_H_5


 31 33  0  0  0  0  0  0  0  0999 V2000
   14.4593  -12.0012   21.0429 C   0  0  0  0  0  0  0  0  0  0  0  0
   15.4638  -11.6394   21.6416 O   0  0  0  0  0  0  0  0  0  0  0  0
   14.0849  -13.2816   21.0196 N   0  0  0  0  0  0  0  0  0  0  0  0
   14.9060  -14.2566   21.7404 C   0  0  0  0  0  0  0  0  0  0  0  0
   14.2663  -15.5979   21.4049 C   0  0  0  0  0  0  0  0  0  0  0  0
   12.8566  -15.2708   20.9556 C   0  0  0  0  0  0  0  0  0  0  0  0
   12.9228  -13.8754   20.3555 C   0  0  0  0  0  0  0  0  0  0  0  0
   14.2378  -10.8834   18.9631 N   0  0  0  0  0  0  0  0  0  0  0  0
   13.6362  -11.0025   20.2815 C   0  0  0  0  0  0  0  0  0  0  0  0
   13.7087  -10.2114   18.4074 H   0  0  0  0  0  0  0  0  0  0  0  0
   14.2252  -11.7922   18.5002 H   0  0  0  0  0  0  0  0  0  0  0  0
   13.6559   -9.6262   20.9361 C   0  0  0  0  0  0  0  0  0  0  0  0
   12.8178   -9.5898   22.1900 C   0  0  0  0  0  0  0  0  0  0  0  0
   12.8617   -8.4448   22.9751 C   0  0  0  0  0  0  0  0  0  0  0  0
   12.0119  -10.6655   22.5644 C   0  0  0  0  0  0  0  0  0  0  0  0
   12.1063   -8.3702   24.1364 C   0  0  0  0  0  0  0  0  0  0  0  0
   11.2535  -10.5864   23.7301 C   0  0  0  0  0  0  0  0  0  0  0  0
   11.2972   -9.4382   24.5145 C   0  0  0  0  0  0  0  0  0  0  0  0
   16.3419  -14.2005   21.2743 C   0  0  0  0  0  0  0  0  0  0  0  0
   16.6318  -14.4730   20.1126 O   0  0  0  0  0  0  0  0  0  0  0  0
   17.2715  -13.8426   22.1598 N   0  0  0  0  0  0  0  0  0  0  0  0
   16.9772  -13.6349   23.0761 H   0  0  0  0  0  0  0  0  0  0  0  0
   18.6961  -13.7379   21.8622 C   0  0  0  0  0  0  0  0  0  0  0  0
   20.7565  -12.2387   26.4997 Cl  0  0  0  0  0  0  0  0  0  0  0  0
   19.5670  -14.0658   23.0628 C   0  0  0  0  0  0  0  0  0  0  0  0
   20.1846  -15.2596   23.1615 N   0  0  0  0  0  0  0  0  0  0  0  0
   19.7097  -13.1250   24.0765 C   0  0  0  0  0  0  0  0  0  0  0  0
   20.5082  -13.4269   25.1803 C   0  0  0  0  0  0  0  0  0  0  0  0
   21.1297  -14.6659   25.2630 C   0  0  0  0  0  0  0  0  0  0  0  0
   20.9486  -15.5645   24.2239 C   0  0  0  0  0  0  0  0  0  0  0  0
   20.0402  -16.2603   22.0961 C   0  0  0  0  0  0  0  0  0  0  0  0
 18 17  2  0  0  0
 18 16  1  0  0  0
 24 28  1  0  0  0
 14 13  1  0  0  0
 14 16  2  0  0  0
 13 15  2  0  0  0
 13 12  1  0  0  0
 15 17  1  0  0  0
 12  9  1  0  0  0
  9  1  1  0  0  0
  9  8  1  0  0  0
  1  3  1  0  0  0
  1  2  2  0  0  0
  3  4  1  0  0  0
  3  7  1  0  0  0
  4  5  1  0  0  0
  4 19  1  0  0  0
  7  6  1  0  0  0
  5  6  1  0  0  0
 19 21  1  0  0  0
 19 20  2  0  0  0
 21 23  1  0  0  0
 23 25  1  0  0  0
 25 26  2  0  0  0
 25 27  1  0  0  0
 26 30  1  0  0  0
 26 31  1  0  0  0
 27 28  2  0  0  0
 28 29  1  0  0  0
 29 30  2  0  0  0
  8 10  1  0  0  0
  8 11  1  0  0  0
 21 22  1  0  0  0
M  CHG 1  26   1
M  END
> <minimizedAffinity>
-7.66356

$$$$
3QX5_02P_H_5


 31 33  0  0  0  0  0  0  0  0999 V2000
   17.2269  -14.8449   22.1039 C   0  0  0  0  0  0  0  0  0  0  0  0
   17.0337  -14.9217   20.8976 O   0  0  0  0  0  0  0  0  0  0  0  0
   16.7709  -15.7761   22.9436 N   0  0  0  0  0  0  0  0  0  0  0  0
   16.0319  -16.9102   22.3851 C   0  0  0  0  0  0  0  0  0  0  0  0
   15.5706  -17.6896   23.6102 C   0  0  0  0  0  0  0  0  0  0  0  0
   16.4890  -17.2540   24.7341 C   0  0  0  0  0  0  0  0  0  0  0  0
   16.9128  -15.8326   24.3999 C   0  0  0  0  0  0  0  0  0  0  0  0
   17.4820  -12.4912   21.9637 N   0  0  0  0  0  0  0  0  0  0  0  0
   17.9604  -13.6657   22.6751 C   0  0  0  0  0  0  0  0  0  0  0  0
   17.9556  -11.6613   22.3206 H   0  0  0  0  0  0  0  0  0  0  0  0
   16.4762  -12.3953   22.1035 H   0  0  0  0  0  0  0  0  0  0  0  0
   19.4657  -13.7684   22.4594 C   0  0  0  0  0  0  0  0  0  0  0  0
   20.2370  -13.3816   23.6969 C   0  0  0  0  0  0  0  0  0  0  0  0
   19.5443  -13.2809   24.8966 C   0  0  0  0  0  0  0  0  0  0  0  0
   21.6093  -13.1321   23.6572 C   0  0  0  0  0  0  0  0  0  0  0  0
   20.2157  -12.9278   26.0583 C   0  0  0  0  0  0  0  0  0  0  0  0
   22.2804  -12.7795   24.8258 C   0  0  0  0  0  0  0  0  0  0  0  0
   21.5854  -12.6808   26.0270 C   0  0  0  0  0  0  0  0  0  0  0  0
   14.8579  -16.4349   21.5618 C   0  0  0  0  0  0  0  0  0  0  0  0
   14.4880  -17.0699   20.5780 O   0  0  0  0  0  0  0  0  0  0  0  0
   14.2416  -15.3160   21.9422 N   0  0  0  0  0  0  0  0  0  0  0  0
   14.5837  -14.8518   22.7402 H   0  0  0  0  0  0  0  0  0  0  0  0
   13.0939  -14.7330   21.2552 C   0  0  0  0  0  0  0  0  0  0  0  0
   15.3284  -12.7103   16.9061 Cl  0  0  0  0  0  0  0  0  0  0  0  0
   13.4662  -13.5093   20.4359 C   0  0  0  0  0  0  0  0  0  0  0  0
   13.1577  -12.2704   20.8673 N   0  0  0  0  0  0  0  0  0  0  0  0
   14.1170  -13.6781   19.2190 C   0  0  0  0  0  0  0  0  0  0  0  0
   14.4572  -12.5541   18.4653 C   0  0  0  0  0  0  0  0  0  0  0  0
   14.1236  -11.2878   18.9273 C   0  0  0  0  0  0  0  0  0  0  0  0
   13.4725  -11.1815   20.1458 C   0  0  0  0  0  0  0  0  0  0  0  0
   12.4702  -12.0812   22.1514 C   0  0  0  0  0  0  0  0  0  0  0  0
 18 17  2  0  0  0
 18 16  1  0  0  0
 24 28  1  0  0  0
 14 13  1  0  0  0
 14 16  2  0  0  0
 13 15  2  0  0  0
 13 12  1  0  0  0
 15 17  1  0  0  0
 12  9  1  0  0  0
  9  1  1  0  0  0
  9  8  1  0  0  0
  1  3  1  0  0  0
  1  2  2  0  0  0
  3  4  1  0  0  0
  3  7  1  0  0  0
  4  5  1  0  0  0
  4 19  1  0  0  0
  7  6  1  0  0  0
  5  6  1  0  0  0
 19 21  1  0  0  0
 19 20  2  0  0  0
 21 23  1  0  0  0
 23 25  1  0  0  0
 25 26  2  0  0  0
 25 27  1  0  0  0
 26 30  1  0  0  0
 26 31  1  0  0  0
 27 28  2  0  0  0
 28 29  1  0  0  0
 29 30  2  0  0  0
  8 10  1  0  0  0
  8 11  1  0  0  0
 21 22  1  0  0  0
M  CHG 1  26   1
M  END
> <minimizedAffinity>
-7.64967

$$$$
