2DW7_SRT_A_1001
  RCSB PDB12061705233D
Coordinates from PDB:2DW7:A:1001 Model:1 without hydrogens
 10  9  0  0  0  0            999 V2000
   10.2440   36.1510    9.1120   O 0  0  0  0  0  0  0  0  0  0  0  0
    9.5590   35.7970   11.1670   O 0  0  0  0  0  0  0  0  0  0  0  0
    9.5580   35.4350    9.9860   C 0  0  0  0  0  0  0  0  0  0  0  0
    8.8000   34.2380    9.4600   C 0  0  0  0  0  0  0  0  0  0  0  0
    9.4200   33.7600    8.2910   O 0  0  0  0  0  0  0  0  0  0  0  0
    8.7190   33.0500   10.4370   C 0  0  0  0  0  0  0  0  0  0  0  0
    8.7410   33.4950   11.7720   O 0  0  0  0  0  0  0  0  0  0  0  0
    7.4490   32.3030   10.2250   C 0  0  0  0  0  0  0  0  0  0  0  0
    7.4830   31.0720   10.2080   O 0  0  0  0  0  0  0  0  0  0  0  0
    6.2720   32.9380   10.0460   O 0  0  0  0  0  0  0  0  0  0  0  0
  1  3  1  0  0  0  0
  2  3  2  0  0  0  0
  3  4  1  0  0  0  0
  4  5  1  0  0  0  0
  4  6  1  0  0  0  0
  6  7  1  0  0  0  0
  6  8  1  0  0  0  0
  8  9  2  0  0  0  0
  8 10  1  0  0  0  0
A    1
O1
A    2
O11
A    3
C1
A    4
C2
A    5
O2
A    6
C3
A    7
O3
A    8
C4
A    9
O4
A   10
O41
M  END
>  <InstanceId>
2DW7_SRT_A_1001

>  <ChemCompId>
SRT

>  <PdbId>
2DW7

>  <ChainId>
A

>  <ResidueNumber>
1001

>  <InsertionCode>


>  <Model>
1

>  <AltIds>


>  <MissingHeavyAtoms>
0

>  <ObservedFormula>
C4 O6

>  <Name>
S,R MESO-TARTARIC ACID

>  <SystematicName>
(2S,3R)-2,3-dihydroxybutanedioic acid

>  <Synonyms>


>  <Type>
NON-POLYMER

>  <Formula>
C4 H6 O6

>  <MolecularWeight>
150.087

>  <ModifiedDate>
2011-06-04

>  <Parent>


>  <OneLetterCode>


>  <SubcomponentList>


>  <AmbiguousFlag>
N

>  <InChI>
InChI=1S/C4H6O6/c5-1(3(7)8)2(6)4(9)10/h1-2,5-6H,(H,7,8)(H,9,10)/t1-,2+

>  <InChIKey>
FEWJPZIEWOKRBE-XIXRPRMCSA-N

>  <SMILES>
[C@H]([C@H](C(=O)O)O)(C(=O)O)O

$$$$
