2DW7_SRT_A_1001


 14 13  0  0  0  0  0  0  0  0999 V2000
    8.2443   33.4625   10.9090 C   0  0  0  0  0  0  0  0  0  0  0  0
    8.6444   33.8769   12.1926 O   0  0  0  0  0  0  0  0  0  0  0  0
    9.5034   33.4807   12.4071 H   0  0  0  0  0  0  0  0  0  0  0  0
    7.5472   31.4279    9.7954 O   0  0  0  0  0  0  0  0  0  0  0  0
    8.3374   31.2131   11.8318 O   0  0  0  0  0  0  0  0  0  0  0  0
    8.0454   31.9644   10.8959 C   0  0  0  0  0  0  0  0  0  0  0  0
    7.3171   31.9748    9.0702 H   0  0  0  0  0  0  0  0  0  0  0  0
    9.3111   33.9767    9.9240 C   0  0  0  0  0  0  0  0  0  0  0  0
    8.9884   33.6184    8.6018 O   0  0  0  0  0  0  0  0  0  0  0  0
    8.1402   34.0197    8.3560 H   0  0  0  0  0  0  0  0  0  0  0  0
    9.3897   35.4617    9.9891 C   0  0  0  0  0  0  0  0  0  0  0  0
    8.3492   36.1026   10.1423 O   0  0  0  0  0  0  0  0  0  0  0  0
   10.5639   36.1172    9.8786 O   0  0  0  0  0  0  0  0  0  0  0  0
   11.3596   35.6364    9.7619 H   0  0  0  0  0  0  0  0  0  0  0  0
  4  6  1  0  0  0
  5  6  2  0  0  0
  6  1  1  0  0  0
  1  2  1  0  0  0
  1  8  1  0  0  0
  8  9  1  0  0  0
  8 11  1  0  0  0
 11 12  2  0  0  0
 11 13  1  0  0  0
  4  7  1  0  0  0
  2  3  1  0  0  0
  9 10  1  0  0  0
 13 14  1  0  0  0
M  END
> <minimizedAffinity>
-7.16897

$$$$
2DW7_SRT_A_1001


 14 13  0  0  0  0  0  0  0  0999 V2000
    9.1760   33.7823   10.0235 C   0  0  0  0  0  0  0  0  0  0  0  0
    9.0225   33.8849    8.6288 O   0  0  0  0  0  0  0  0  0  0  0  0
    8.2475   34.4326    8.4282 H   0  0  0  0  0  0  0  0  0  0  0  0
    7.1545   32.4709    9.7795 O   0  0  0  0  0  0  0  0  0  0  0  0
    7.7394   33.0043   11.8267 O   0  0  0  0  0  0  0  0  0  0  0  0
    7.9802   33.0740   10.6171 C   0  0  0  0  0  0  0  0  0  0  0  0
    7.3135   32.5079    8.8568 H   0  0  0  0  0  0  0  0  0  0  0  0
    9.4023   35.2115   10.5515 C   0  0  0  0  0  0  0  0  0  0  0  0
   10.4098   35.8646    9.8172 O   0  0  0  0  0  0  0  0  0  0  0  0
   10.1408   35.9313    8.8876 H   0  0  0  0  0  0  0  0  0  0  0  0
    8.1511   36.0068   10.4184 C   0  0  0  0  0  0  0  0  0  0  0  0
    7.9497   36.6210    9.3701 O   0  0  0  0  0  0  0  0  0  0  0  0
    7.2428   36.0752   11.4139 O   0  0  0  0  0  0  0  0  0  0  0  0
    7.3892   35.6107   12.2143 H   0  0  0  0  0  0  0  0  0  0  0  0
  4  6  1  0  0  0
  5  6  2  0  0  0
  6  1  1  0  0  0
  1  2  1  0  0  0
  1  8  1  0  0  0
  8  9  1  0  0  0
  8 11  1  0  0  0
 11 12  2  0  0  0
 11 13  1  0  0  0
  4  7  1  0  0  0
  2  3  1  0  0  0
  9 10  1  0  0  0
 13 14  1  0  0  0
M  END
> <minimizedAffinity>
-6.88239

$$$$
2DW7_SRT_A_1001


 14 13  0  0  0  0  0  0  0  0999 V2000
    8.7216   33.1610   10.0767 C   0  0  0  0  0  0  0  0  0  0  0  0
    8.9879   33.4949    8.7362 O   0  0  0  0  0  0  0  0  0  0  0  0
    8.2164   33.9424    8.3550 H   0  0  0  0  0  0  0  0  0  0  0  0
    6.3523   32.6735   10.1965 O   0  0  0  0  0  0  0  0  0  0  0  0
    7.7082   30.9493   10.1172 O   0  0  0  0  0  0  0  0  0  0  0  0
    7.5761   32.1772   10.1391 C   0  0  0  0  0  0  0  0  0  0  0  0
    6.2234   33.6014   10.2143 H   0  0  0  0  0  0  0  0  0  0  0  0
    8.4714   34.4852   10.8227 C   0  0  0  0  0  0  0  0  0  0  0  0
    9.1320   34.4944   12.0653 O   0  0  0  0  0  0  0  0  0  0  0  0
   10.0879   34.4100   11.9240 H   0  0  0  0  0  0  0  0  0  0  0  0
    8.9906   35.6266   10.0205 C   0  0  0  0  0  0  0  0  0  0  0  0
    8.1841   36.3900    9.4878 O   0  0  0  0  0  0  0  0  0  0  0  0
   10.3133   35.8389    9.8592 O   0  0  0  0  0  0  0  0  0  0  0  0
   10.9328   35.2624   10.2614 H   0  0  0  0  0  0  0  0  0  0  0  0
  4  6  1  0  0  0
  5  6  2  0  0  0
  6  1  1  0  0  0
  1  2  1  0  0  0
  1  8  1  0  0  0
  8  9  1  0  0  0
  8 11  1  0  0  0
 11 12  2  0  0  0
 11 13  1  0  0  0
  4  7  1  0  0  0
  2  3  1  0  0  0
  9 10  1  0  0  0
 13 14  1  0  0  0
M  END
> <minimizedAffinity>
-6.79733

$$$$
2DW7_SRT_A_1001


 14 13  0  0  0  0  0  0  0  0999 V2000
    8.5314   34.2077    9.7579 C   0  0  0  0  0  0  0  0  0  0  0  0
    9.1328   33.6969    8.5931 O   0  0  0  0  0  0  0  0  0  0  0  0
   10.0879   33.6057    8.7357 H   0  0  0  0  0  0  0  0  0  0  0  0
   10.2696   35.8858    9.5885 O   0  0  0  0  0  0  0  0  0  0  0  0
    8.4338   36.4742   10.6377 O   0  0  0  0  0  0  0  0  0  0  0  0
    9.0614   35.5949   10.0388 C   0  0  0  0  0  0  0  0  0  0  0  0
   10.7676   35.2374    9.1307 H   0  0  0  0  0  0  0  0  0  0  0  0
    8.7914   33.1827   10.8778 C   0  0  0  0  0  0  0  0  0  0  0  0
    8.7498   33.7989   12.1425 O   0  0  0  0  0  0  0  0  0  0  0  0
    7.8696   34.1797   12.2878 H   0  0  0  0  0  0  0  0  0  0  0  0
    7.7456   32.1238   10.8506 C   0  0  0  0  0  0  0  0  0  0  0  0
    6.6953   32.3454   10.2468 O   0  0  0  0  0  0  0  0  0  0  0  0
    7.9173   30.9387   11.4726 O   0  0  0  0  0  0  0  0  0  0  0  0
    8.7136   30.7629   11.9340 H   0  0  0  0  0  0  0  0  0  0  0  0
  4  6  1  0  0  0
  5  6  2  0  0  0
  6  1  1  0  0  0
  1  2  1  0  0  0
  1  8  1  0  0  0
  8  9  1  0  0  0
  8 11  1  0  0  0
 11 12  2  0  0  0
 11 13  1  0  0  0
  4  7  1  0  0  0
  2  3  1  0  0  0
  9 10  1  0  0  0
 13 14  1  0  0  0
M  END
> <minimizedAffinity>
-6.55265

$$$$
2DW7_SRT_A_1001


 14 13  0  0  0  0  0  0  0  0999 V2000
    8.4460   34.6109   11.1362 C   0  0  0  0  0  0  0  0  0  0  0  0
    7.8195   34.2626   12.3468 O   0  0  0  0  0  0  0  0  0  0  0  0
    6.8636   34.1800   12.2041 H   0  0  0  0  0  0  0  0  0  0  0  0
    8.4895   36.4649    9.5784 O   0  0  0  0  0  0  0  0  0  0  0  0
    7.0838   36.6235   11.2567 O   0  0  0  0  0  0  0  0  0  0  0  0
    7.9575   35.9668   10.6811 C   0  0  0  0  0  0  0  0  0  0  0  0
    9.1541   35.9876    9.1219 H   0  0  0  0  0  0  0  0  0  0  0  0
    8.1684   33.4637   10.1466 C   0  0  0  0  0  0  0  0  0  0  0  0
    9.0812   33.4919    9.0758 O   0  0  0  0  0  0  0  0  0  0  0  0
    9.9824   33.3782    9.4160 H   0  0  0  0  0  0  0  0  0  0  0  0
    8.3123   32.1520   10.8355 C   0  0  0  0  0  0  0  0  0  0  0  0
    7.6173   31.2073   10.4594 O   0  0  0  0  0  0  0  0  0  0  0  0
    9.1746   31.9769   11.8584 O   0  0  0  0  0  0  0  0  0  0  0  0
    9.7066   32.6909   12.1501 H   0  0  0  0  0  0  0  0  0  0  0  0
  4  6  1  0  0  0
  5  6  2  0  0  0
  6  1  1  0  0  0
  1  2  1  0  0  0
  1  8  1  0  0  0
  8  9  1  0  0  0
  8 11  1  0  0  0
 11 12  2  0  0  0
 11 13  1  0  0  0
  4  7  1  0  0  0
  2  3  1  0  0  0
  9 10  1  0  0  0
 13 14  1  0  0  0
M  END
> <minimizedAffinity>
-6.45188

$$$$
2DW7_SRT_A_1001


 14 13  0  0  0  0  0  0  0  0999 V2000
    8.0275   33.9597   11.1767 C   0  0  0  0  0  0  0  0  0  0  0  0
    7.9139   34.2144   12.5557 O   0  0  0  0  0  0  0  0  0  0  0  0
    8.7988   34.2583   12.9503 H   0  0  0  0  0  0  0  0  0  0  0  0
    8.6647   32.1266    9.7277 O   0  0  0  0  0  0  0  0  0  0  0  0
    9.2047   31.9385   11.8468 O   0  0  0  0  0  0  0  0  0  0  0  0
    8.6661   32.6074   10.9590 C   0  0  0  0  0  0  0  0  0  0  0  0
    8.2631   32.6134    9.0351 H   0  0  0  0  0  0  0  0  0  0  0  0
    8.8060   35.1420   10.5697 C   0  0  0  0  0  0  0  0  0  0  0  0
    9.3735   34.7872    9.3316 O   0  0  0  0  0  0  0  0  0  0  0  0
    8.6688   34.5461    8.7101 H   0  0  0  0  0  0  0  0  0  0  0  0
    7.8878   36.2908   10.3392 C   0  0  0  0  0  0  0  0  0  0  0  0
    7.8597   36.8104    9.2229 O   0  0  0  0  0  0  0  0  0  0  0  0
    7.0968   36.7763   11.3186 O   0  0  0  0  0  0  0  0  0  0  0  0
    7.1128   36.3862   12.1703 H   0  0  0  0  0  0  0  0  0  0  0  0
  4  6  1  0  0  0
  5  6  2  0  0  0
  6  1  1  0  0  0
  1  2  1  0  0  0
  1  8  1  0  0  0
  8  9  1  0  0  0
  8 11  1  0  0  0
 11 12  2  0  0  0
 11 13  1  0  0  0
  4  7  1  0  0  0
  2  3  1  0  0  0
  9 10  1  0  0  0
 13 14  1  0  0  0
M  END
> <minimizedAffinity>
-6.25729

$$$$
2DW7_SRT_A_1001


 14 13  0  0  0  0  0  0  0  0999 V2000
    8.8738   34.3609   10.9487 C   0  0  0  0  0  0  0  0  0  0  0  0
    7.9891   34.7182   11.9826 O   0  0  0  0  0  0  0  0  0  0  0  0
    7.1657   35.0597   11.6000 H   0  0  0  0  0  0  0  0  0  0  0  0
   10.5046   35.9854   10.1954 O   0  0  0  0  0  0  0  0  0  0  0  0
    8.4573   36.2250    9.4413 O   0  0  0  0  0  0  0  0  0  0  0  0
    9.2448   35.5881   10.1485 C   0  0  0  0  0  0  0  0  0  0  0  0
   11.1231   35.5204   10.7239 H   0  0  0  0  0  0  0  0  0  0  0  0
    8.1817   33.2503   10.1362 C   0  0  0  0  0  0  0  0  0  0  0  0
    8.8294   33.0525    8.9024 O   0  0  0  0  0  0  0  0  0  0  0  0
    9.7463   32.7775    9.0590 H   0  0  0  0  0  0  0  0  0  0  0  0
    8.2281   31.9663   10.8879 C   0  0  0  0  0  0  0  0  0  0  0  0
    8.9658   31.8829   11.8705 O   0  0  0  0  0  0  0  0  0  0  0  0
    7.4916   30.8983   10.5170 O   0  0  0  0  0  0  0  0  0  0  0  0
    6.9280   30.9543    9.7705 H   0  0  0  0  0  0  0  0  0  0  0  0
  4  6  1  0  0  0
  5  6  2  0  0  0
  6  1  1  0  0  0
  1  2  1  0  0  0
  1  8  1  0  0  0
  8  9  1  0  0  0
  8 11  1  0  0  0
 11 12  2  0  0  0
 11 13  1  0  0  0
  4  7  1  0  0  0
  2  3  1  0  0  0
  9 10  1  0  0  0
 13 14  1  0  0  0
M  END
> <minimizedAffinity>
-6.13820

$$$$
2DW7_SRT_A_1001


 14 13  0  0  0  0  0  0  0  0999 V2000
    7.8529   33.9382   11.5421 C   0  0  0  0  0  0  0  0  0  0  0  0
    9.0534   33.9047   12.2750 O   0  0  0  0  0  0  0  0  0  0  0  0
    9.7973   33.7568   11.6703 H   0  0  0  0  0  0  0  0  0  0  0  0
    6.7969   32.5623    9.8517 O   0  0  0  0  0  0  0  0  0  0  0  0
    8.1576   31.5432   11.2399 O   0  0  0  0  0  0  0  0  0  0  0  0
    7.6181   32.5968   10.8868 C   0  0  0  0  0  0  0  0  0  0  0  0
    6.3741   33.3470    9.5627 H   0  0  0  0  0  0  0  0  0  0  0  0
    7.9646   35.1205   10.5612 C   0  0  0  0  0  0  0  0  0  0  0  0
    8.0472   36.3425   11.2545 O   0  0  0  0  0  0  0  0  0  0  0  0
    8.8406   36.3445   11.8127 H   0  0  0  0  0  0  0  0  0  0  0  0
    9.1941   34.9803    9.7338 C   0  0  0  0  0  0  0  0  0  0  0  0
   10.1723   35.6774   10.0058 O   0  0  0  0  0  0  0  0  0  0  0  0
    9.2591   34.1191    8.6972 O   0  0  0  0  0  0  0  0  0  0  0  0
    8.5189   33.5856    8.4842 H   0  0  0  0  0  0  0  0  0  0  0  0
  4  6  1  0  0  0
  5  6  2  0  0  0
  6  1  1  0  0  0
  1  2  1  0  0  0
  1  8  1  0  0  0
  8  9  1  0  0  0
  8 11  1  0  0  0
 11 12  2  0  0  0
 11 13  1  0  0  0
  4  7  1  0  0  0
  2  3  1  0  0  0
  9 10  1  0  0  0
 13 14  1  0  0  0
M  END
> <minimizedAffinity>
-5.82505

$$$$
2DW7_SRT_A_1001


 14 13  0  0  0  0  0  0  0  0999 V2000
    8.9025   35.1256   10.0693 C   0  0  0  0  0  0  0  0  0  0  0  0
   10.1811   35.7124   10.0892 O   0  0  0  0  0  0  0  0  0  0  0  0
   10.4515   35.8673   11.0078 H   0  0  0  0  0  0  0  0  0  0  0  0
    7.5294   37.1153    9.9229 O   0  0  0  0  0  0  0  0  0  0  0  0
    7.3748   35.9481   11.7752 O   0  0  0  0  0  0  0  0  0  0  0  0
    7.8935   36.0819   10.6622 C   0  0  0  0  0  0  0  0  0  0  0  0
    7.9071   37.2408    9.0746 H   0  0  0  0  0  0  0  0  0  0  0  0
    9.0207   33.7789   10.8074 C   0  0  0  0  0  0  0  0  0  0  0  0
    8.6875   33.9204   12.1675 O   0  0  0  0  0  0  0  0  0  0  0  0
    7.7687   34.2215   12.2456 H   0  0  0  0  0  0  0  0  0  0  0  0
    8.0861   32.7871   10.2086 C   0  0  0  0  0  0  0  0  0  0  0  0
    6.8934   32.8412   10.5109 O   0  0  0  0  0  0  0  0  0  0  0  0
    8.5126   31.8338    9.3542 O   0  0  0  0  0  0  0  0  0  0  0  0
    9.4185   31.7864    9.1195 H   0  0  0  0  0  0  0  0  0  0  0  0
  4  6  1  0  0  0
  5  6  2  0  0  0
  6  1  1  0  0  0
  1  2  1  0  0  0
  1  8  1  0  0  0
  8  9  1  0  0  0
  8 11  1  0  0  0
 11 12  2  0  0  0
 11 13  1  0  0  0
  4  7  1  0  0  0
  2  3  1  0  0  0
  9 10  1  0  0  0
 13 14  1  0  0  0
M  END
> <minimizedAffinity>
-5.55575

$$$$
