1T31_OHH_A_901


 51 57  0  0  0  0  0  0  0  0999 V2000
    2.1995   40.1499   21.1617 C   0  0  0  0  0  0  0  0  0  0  0  0
    3.6534   40.1537   21.3020 C   0  0  0  0  0  0  0  0  0  0  0  0
    4.3064   39.7845   22.5920 C   0  0  0  0  0  0  0  0  0  0  0  0
    3.5243   39.4103   23.7569 C   0  0  0  0  0  0  0  0  0  0  0  0
    2.0465   39.3908   23.6703 C   0  0  0  0  0  0  0  0  0  0  0  0
    1.3516   39.7749   22.3145 C   0  0  0  0  0  0  0  0  0  0  0  0
   -0.0945   39.7573   22.2414 C   0  0  0  0  0  0  0  0  0  0  0  0
   -0.9553   39.3974   23.3949 C   0  0  0  0  0  0  0  0  0  0  0  0
   -0.2070   39.0210   24.7285 C   0  0  0  0  0  0  0  0  0  0  0  0
    1.2189   39.0317   24.8074 C   0  0  0  0  0  0  0  0  0  0  0  0
   -1.1357   39.4987   26.8449 O   0  0  0  0  0  0  0  0  0  0  0  0
   -0.9485   38.6123   26.0274 C   0  0  0  0  0  0  0  0  0  0  0  0
   -1.3672   37.2202   26.1679 N   0  0  0  0  0  0  0  0  0  0  0  0
   -2.0941   36.8880   27.4475 C   0  0  0  0  0  0  0  0  0  0  0  0
   -1.6271   31.2290   24.2886 O   0  0  0  0  0  0  0  0  0  0  0  0
   -0.2368   33.7411   24.6899 C   0  0  0  0  0  0  0  0  0  0  0  0
   -1.5198   33.5492   23.8834 N   0  0  0  0  0  0  0  0  0  0  0  0
   -2.0253   34.8098   23.2805 C   0  0  0  0  0  0  0  0  0  0  0  0
   -2.4083   35.8540   24.3342 C   0  0  0  0  0  0  0  0  0  0  0  0
   -1.1269   36.1683   25.1497 C   0  0  0  0  0  0  0  0  0  0  0  0
   -0.4732   34.8381   25.7844 C   0  0  0  0  0  0  0  0  0  0  0  0
   -2.1107   32.2260   23.7694 C   0  0  0  0  0  0  0  0  0  0  0  0
   -4.6102   31.1806   20.8204 C   0  0  0  0  0  0  0  0  0  0  0  0
   -3.4170   31.3493   21.6167 C   0  0  0  0  0  0  0  0  0  0  0  0
   -3.4274   32.0622   22.9478 C   0  0  0  0  0  0  0  0  0  0  0  0
   -4.7312   32.5968   23.4254 C   0  0  0  0  0  0  0  0  0  0  0  0
   -5.9668   32.4601   22.6681 C   0  0  0  0  0  0  0  0  0  0  0  0
   -5.9137   31.7117   21.2878 C   0  0  0  0  0  0  0  0  0  0  0  0
   -7.1797   31.5760   20.5124 C   0  0  0  0  0  0  0  0  0  0  0  0
   -8.4329   32.1295   21.0346 C   0  0  0  0  0  0  0  0  0  0  0  0
   -8.4832   32.8369   22.3451 C   0  0  0  0  0  0  0  0  0  0  0  0
   -7.2728   32.9986   23.1457 C   0  0  0  0  0  0  0  0  0  0  0  0
   -3.1792   39.1628   24.3492 O   0  0  0  0  0  0  0  0  0  0  0  0
   -2.5569   39.3776   23.3532 C   0  0  0  0  0  0  0  0  0  0  0  0
   -3.1118   39.4693   21.9186 C   0  0  0  0  0  0  0  0  0  0  0  0
   -6.2241   36.1731   21.5363 C   0  0  0  0  0  0  0  0  0  0  0  0
   -6.5514   37.3677   22.2625 C   0  0  0  0  0  0  0  0  0  0  0  0
   -5.5669   38.4174   22.3858 C   0  0  0  0  0  0  0  0  0  0  0  0
   -4.2035   38.3753   21.8141 C   0  0  0  0  0  0  0  0  0  0  0  0
   -3.8175   37.1215   21.0403 C   0  0  0  0  0  0  0  0  0  0  0  0
   -4.9031   35.9879   20.9127 C   0  0  0  0  0  0  0  0  0  0  0  0
   -4.5877   34.7436   20.1654 C   0  0  0  0  0  0  0  0  0  0  0  0
   -3.3011   34.5430   19.5539 C   0  0  0  0  0  0  0  0  0  0  0  0
   -2.2440   35.5824   19.6519 C   0  0  0  0  0  0  0  0  0  0  0  0
   -2.5016   36.8310   20.3731 C   0  0  0  0  0  0  0  0  0  0  0  0
   -3.6709   41.0656   21.5042 P   0  0  0  0  0  0  0  0  0  0  0  0
   -4.6257   41.5650   22.5086 O   0  0  0  0  0  0  0  0  0  0  0  0
   -2.4145   41.9067   21.3107 O   0  0  0  0  0  0  0  0  0  0  0  0
   -4.0698   41.1069   20.0258 O   0  0  0  0  0  0  0  0  0  0  0  0
   -4.9232   42.4536   22.2581 H   0  0  0  0  0  0  0  0  0  0  0  0
   -4.3804   41.9975   19.7994 H   0  0  0  0  0  0  0  0  0  0  0  0
 15 22  2  0  0  0
 46 47  1  0  0  0
 46 48  2  0  0  0
 46 49  1  0  0  0
 46 35  1  0  0  0
 35 34  1  0  0  0
 35 39  1  0  0  0
 33 34  2  0  0  0
 34  8  1  0  0  0
  1  2  2  0  0  0
  1  6  1  0  0  0
  2  3  1  0  0  0
  3  4  2  0  0  0
  4  5  1  0  0  0
  5  6  2  0  0  0
  5 10  1  0  0  0
  6  7  1  0  0  0
  7  8  2  0  0  0
  8  9  1  0  0  0
  9 10  2  0  0  0
  9 12  1  0  0  0
 11 12  2  0  0  0
 12 13  1  0  0  0
 36 37  2  0  0  0
 36 41  1  0  0  0
 37 38  1  0  0  0
 38 39  2  0  0  0
 39 40  1  0  0  0
 40 41  2  0  0  0
 40 45  1  0  0  0
 41 42  1  0  0  0
 42 43  2  0  0  0
 43 44  1  0  0  0
 44 45  2  0  0  0
 13 14  1  0  0  0
 13 20  1  0  0  0
 16 17  1  0  0  0
 16 21  1  0  0  0
 17 18  1  0  0  0
 17 22  1  0  0  0
 18 19  1  0  0  0
 19 20  1  0  0  0
 20 21  1  0  0  0
 22 25  1  0  0  0
 23 24  2  0  0  0
 23 28  1  0  0  0
 24 25  1  0  0  0
 25 26  2  0  0  0
 26 27  1  0  0  0
 27 28  2  0  0  0
 27 32  1  0  0  0
 28 29  1  0  0  0
 29 30  2  0  0  0
 30 31  1  0  0  0
 31 32  2  0  0  0
 47 50  1  0  0  0
 49 51  1  0  0  0
M  END
> <minimizedAffinity>
-11.38040

$$$$
1T31_OHH_A_901


 51 57  0  0  0  0  0  0  0  0999 V2000
    1.7281   39.9380   21.3740 C   0  0  0  0  0  0  0  0  0  0  0  0
    3.1775   40.1044   21.4452 C   0  0  0  0  0  0  0  0  0  0  0  0
    3.9251   39.8368   22.7087 C   0  0  0  0  0  0  0  0  0  0  0  0
    3.2427   39.4043   23.9154 C   0  0  0  0  0  0  0  0  0  0  0  0
    1.7736   39.2210   23.8991 C   0  0  0  0  0  0  0  0  0  0  0  0
    0.9799   39.4973   22.5717 C   0  0  0  0  0  0  0  0  0  0  0  0
   -0.4572   39.3197   22.5674 C   0  0  0  0  0  0  0  0  0  0  0  0
   -1.2199   38.8925   23.7662 C   0  0  0  0  0  0  0  0  0  0  0  0
   -0.3749   38.6292   25.0689 C   0  0  0  0  0  0  0  0  0  0  0  0
    1.0432   38.7979   25.0799 C   0  0  0  0  0  0  0  0  0  0  0  0
   -1.3242   39.0534   27.1876 O   0  0  0  0  0  0  0  0  0  0  0  0
   -1.0071   38.1698   26.4079 C   0  0  0  0  0  0  0  0  0  0  0  0
   -1.1797   36.7362   26.6277 N   0  0  0  0  0  0  0  0  0  0  0  0
   -1.8109   36.3535   27.9434 C   0  0  0  0  0  0  0  0  0  0  0  0
   -0.3115   30.7028   25.0990 O   0  0  0  0  0  0  0  0  0  0  0  0
    0.5547   33.4643   25.2666 C   0  0  0  0  0  0  0  0  0  0  0  0
   -0.7050   32.9646   24.5619 N   0  0  0  0  0  0  0  0  0  0  0  0
   -1.4913   34.0544   23.9276 C   0  0  0  0  0  0  0  0  0  0  0  0
   -2.0203   35.0686   24.9468 C   0  0  0  0  0  0  0  0  0  0  0  0
   -0.7867   35.6882   25.6540 C   0  0  0  0  0  0  0  0  0  0  0  0
    0.1605   34.5624   26.3135 C   0  0  0  0  0  0  0  0  0  0  0  0
   -1.0176   31.5449   24.5608 C   0  0  0  0  0  0  0  0  0  0  0  0
   -3.4274   30.0113   21.7540 C   0  0  0  0  0  0  0  0  0  0  0  0
   -2.2501   30.4628   22.4587 C   0  0  0  0  0  0  0  0  0  0  0  0
   -2.3170   31.0649   23.8418 C   0  0  0  0  0  0  0  0  0  0  0  0
   -3.6602   31.1815   24.4712 C   0  0  0  0  0  0  0  0  0  0  0  0
   -4.8826   30.7464   23.8116 C   0  0  0  0  0  0  0  0  0  0  0  0
   -4.7704   30.1253   22.3729 C   0  0  0  0  0  0  0  0  0  0  0  0
   -6.0241   29.6836   21.6979 C   0  0  0  0  0  0  0  0  0  0  0  0
   -7.3195   29.8300   22.3689 C   0  0  0  0  0  0  0  0  0  0  0  0
   -7.4250   30.4168   23.7345 C   0  0  0  0  0  0  0  0  0  0  0  0
   -6.2290   30.8660   24.4415 C   0  0  0  0  0  0  0  0  0  0  0  0
   -3.4050   38.8112   24.8293 O   0  0  0  0  0  0  0  0  0  0  0  0
   -2.8097   38.6963   23.8008 C   0  0  0  0  0  0  0  0  0  0  0  0
   -3.3709   38.1833   22.4605 C   0  0  0  0  0  0  0  0  0  0  0  0
   -5.5949   34.3080   23.3171 C   0  0  0  0  0  0  0  0  0  0  0  0
   -5.7039   35.4001   24.2429 C   0  0  0  0  0  0  0  0  0  0  0  0
   -5.0004   36.6327   23.9748 C   0  0  0  0  0  0  0  0  0  0  0  0
   -4.1467   36.8845   22.7935 C   0  0  0  0  0  0  0  0  0  0  0  0
   -4.0028   35.7475   21.7905 C   0  0  0  0  0  0  0  0  0  0  0  0
   -4.7784   34.4114   22.0960 C   0  0  0  0  0  0  0  0  0  0  0  0
   -4.6815   33.2685   21.1524 C   0  0  0  0  0  0  0  0  0  0  0  0
   -3.8849   33.3495   19.9572 C   0  0  0  0  0  0  0  0  0  0  0  0
   -3.1319   34.5877   19.6297 C   0  0  0  0  0  0  0  0  0  0  0  0
   -3.1945   35.7472   20.5225 C   0  0  0  0  0  0  0  0  0  0  0  0
   -4.3201   39.3753   21.6175 P   0  0  0  0  0  0  0  0  0  0  0  0
   -3.4590   40.2606   20.8145 O   0  0  0  0  0  0  0  0  0  0  0  0
   -5.3714   38.5923   20.8396 O   0  0  0  0  0  0  0  0  0  0  0  0
   -5.3309   40.0072   22.5795 O   0  0  0  0  0  0  0  0  0  0  0  0
   -4.0076   40.9151   20.3547 H   0  0  0  0  0  0  0  0  0  0  0  0
   -5.8572   40.6702   22.1059 H   0  0  0  0  0  0  0  0  0  0  0  0
 15 22  2  0  0  0
 46 47  1  0  0  0
 46 48  2  0  0  0
 46 49  1  0  0  0
 46 35  1  0  0  0
 35 34  1  0  0  0
 35 39  1  0  0  0
 33 34  2  0  0  0
 34  8  1  0  0  0
  1  2  2  0  0  0
  1  6  1  0  0  0
  2  3  1  0  0  0
  3  4  2  0  0  0
  4  5  1  0  0  0
  5  6  2  0  0  0
  5 10  1  0  0  0
  6  7  1  0  0  0
  7  8  2  0  0  0
  8  9  1  0  0  0
  9 10  2  0  0  0
  9 12  1  0  0  0
 11 12  2  0  0  0
 12 13  1  0  0  0
 36 37  2  0  0  0
 36 41  1  0  0  0
 37 38  1  0  0  0
 38 39  2  0  0  0
 39 40  1  0  0  0
 40 41  2  0  0  0
 40 45  1  0  0  0
 41 42  1  0  0  0
 42 43  2  0  0  0
 43 44  1  0  0  0
 44 45  2  0  0  0
 13 14  1  0  0  0
 13 20  1  0  0  0
 16 17  1  0  0  0
 16 21  1  0  0  0
 17 18  1  0  0  0
 17 22  1  0  0  0
 18 19  1  0  0  0
 19 20  1  0  0  0
 20 21  1  0  0  0
 22 25  1  0  0  0
 23 24  2  0  0  0
 23 28  1  0  0  0
 24 25  1  0  0  0
 25 26  2  0  0  0
 26 27  1  0  0  0
 27 28  2  0  0  0
 27 32  1  0  0  0
 28 29  1  0  0  0
 29 30  2  0  0  0
 30 31  1  0  0  0
 31 32  2  0  0  0
 47 50  1  0  0  0
 49 51  1  0  0  0
M  END
> <minimizedAffinity>
-8.54957

$$$$
