5ORG_6DB_A_321
  RCSB PDB12191704023D
Coordinates from PDB:5ORG:A:321 Model:1 without hydrogens
 17 16  0  0  0  0            999 V2000
  -14.3800  -27.6770   26.0950   O 0  0  0  0  0  0  0  0  0  0  0  0
  -15.3270  -26.8830   25.8000   C 0  0  0  0  0  0  0  0  0  0  0  0
  -16.0230  -27.1240   24.5330   C 0  0  0  0  0  0  0  0  0  0  0  0
  -16.8040  -28.4490   24.6310   C 0  0  0  0  0  0  0  0  0  0  0  0
  -16.9010  -26.0430   24.1110   N 0  0  0  0  0  0  0  0  0  0  0  0
  -16.2550  -24.8030   23.6250   C 0  0  0  0  0  0  0  0  0  0  0  0
  -17.3160  -23.7670   23.3810   C 0  0  0  0  0  0  0  0  0  0  0  0
  -16.9810  -22.5450   23.2640   O 0  0  0  0  0  0  0  0  0  0  0  0
  -18.5280  -24.1010   23.2650   O 0  0  0  0  0  0  0  0  0  0  0  0
  -15.3900  -24.9460   22.3610   C 0  0  0  0  0  0  0  0  0  0  0  0
  -16.1620  -25.6040   21.1740   C 0  0  0  0  0  0  0  0  0  0  0  0
  -15.6500  -25.2720   19.7760   C 0  0  0  0  0  0  0  0  0  0  0  0
  -16.3090  -26.2400   18.9600   N 0  0  0  0  0  0  0  0  0  0  0  0
  -15.9520  -26.5410   17.6600   C 0  0  0  0  0  0  0  0  0  0  0  0
  -16.6710  -27.4130   16.9890   N 0  0  0  0  0  0  0  0  0  0  0  0
  -14.9090  -25.9500   17.1620   N 0  0  0  0  0  0  0  0  0  0  0  0
  -15.6520  -25.9470   26.5850   O 0  0  0  0  0  0  0  0  0  0  0  0
  1  2  2  0  0  0  0
  4  3  1  0  0  0  0
  2 17  1  0  0  0  0
  2  3  1  0  0  0  0
  3  5  1  0  0  0  0
  5  6  1  0  0  0  0
  8  7  2  0  0  0  0
  6  7  1  0  0  0  0
  6 10  1  0  0  0  0
  7  9  1  0  0  0  0
 10 11  1  0  0  0  0
 11 12  1  0  0  0  0
 12 13  1  0  0  0  0
 13 14  1  0  0  0  0
 14 15  2  0  0  0  0
 14 16  1  0  0  0  0
A    1
O
A    2
C
A    3
CA
A    4
CB
A    5
N
A    6
CAI
A    7
CAE
A    8
OAB
A    9
OAF
A   10
CAK
A   11
CAL
A   12
CAM
A   13
NAN
A   14
CAP
A   15
NAO
A   16
NAQ
A   17
OXT
M  END
>  <InstanceId>
5ORG_6DB_A_321

>  <ChemCompId>
6DB

>  <PdbId>
5ORG

>  <ChainId>
A

>  <ResidueNumber>
321

>  <InsertionCode>


>  <Model>
1

>  <AltIds>


>  <MissingHeavyAtoms>
0

>  <ObservedFormula>
C9 N4 O4

>  <Name>
octopine

>  <SystematicName>
(2~{S})-5-carbamimidamido-2-[[(2~{R})-1-oxidanyl-1-oxidanylidene-propan-2-yl]amino]pentanoic acid

>  <Synonyms>


>  <Type>
NON-POLYMER

>  <Formula>
C9 H18 N4 O4

>  <MolecularWeight>
246.264

>  <ModifiedDate>
2016-11-25

>  <Parent>


>  <OneLetterCode>


>  <SubcomponentList>


>  <AmbiguousFlag>
N

>  <InChI>
InChI=1S/C9H18N4O4/c1-5(7(14)15)13-6(8(16)17)3-2-4-12-9(10)11/h5-6,13H,2-4H2,1H3,(H,14,15)(H,16,17)(H4,10,11,12)/t5-,6+/m1/s1

>  <InChIKey>
IMXSCCDUAFEIOE-RITPCOANSA-N

>  <SMILES>
[H]/N=C(/N)\NCCC[C@@H](C(=O)O)N[C@H](C)C(=O)O

$$$$
