5VC3_DB8_A_601


 37 40  0  0  0  0  0  0  0  0999 V2000
   -4.3656    3.7792   13.9777 C   0  0  0  0  0  0  0  0  0  0  0  0
   -5.6949    6.4824   11.9456 C   0  0  0  0  0  0  0  0  0  0  0  0
   -4.4664    4.9515    9.9284 C   0  0  0  0  0  0  0  0  0  0  0  0
   -4.9866    4.9046   13.5707 N   0  0  0  0  0  0  0  0  0  0  0  0
   -3.7188    2.9442   13.0422 C   0  0  0  0  0  0  0  0  0  0  0  0
   -5.1330    6.1481    9.5863 C   0  0  0  0  0  0  0  0  0  0  0  0
   -5.7525    6.9062   10.6085 C   0  0  0  0  0  0  0  0  0  0  0  0
   -3.7317    3.3016   11.6468 C   0  0  0  0  0  0  0  0  0  0  0  0
   -5.0268    5.2908   12.2781 C   0  0  0  0  0  0  0  0  0  0  0  0
   -4.3985    4.5050   11.2709 C   0  0  0  0  0  0  0  0  0  0  0  0
   -4.0205    7.0312    7.5680 C   0  0  0  0  0  0  0  0  0  0  0  0
   -5.2192    6.6070    8.2821 O   0  0  0  0  0  0  0  0  0  0  0  0
   -2.6544    0.9613   14.0267 N   0  0  0  0  0  0  0  0  0  0  0  0
   -3.1550    1.8862   13.5666 C   0  0  0  0  0  0  0  0  0  0  0  0
   -3.1337    2.5551   10.6390 N   0  0  0  0  0  0  0  0  0  0  0  0
   -3.4965    2.6963    9.7347 H   0  0  0  0  0  0  0  0  0  0  0  0
    1.3144   -1.2438   11.0874 Cl  0  0  0  0  0  0  0  0  0  0  0  0
   -3.9563   -0.3572   10.7300 Cl  0  0  0  0  0  0  0  0  0  0  0  0
   -1.2866   -0.6409   10.8991 C   0  0  0  0  0  0  0  0  0  0  0  0
   -0.7783    2.1209   10.7755 C   0  0  0  0  0  0  0  0  0  0  0  0
    0.3106    1.2322   10.8851 C   0  0  0  0  0  0  0  0  0  0  0  0
    0.0384   -0.1492   10.9451 C   0  0  0  0  0  0  0  0  0  0  0  0
   -2.3661    0.2571   10.7808 C   0  0  0  0  0  0  0  0  0  0  0  0
   -2.1112    1.6514   10.7288 C   0  0  0  0  0  0  0  0  0  0  0  0
    1.6204    1.6630   10.9291 O   0  0  0  0  0  0  0  0  0  0  0  0
    2.0923    2.6335    9.9629 C   0  0  0  0  0  0  0  0  0  0  0  0
   -6.3996    8.0654   10.2665 O   0  0  0  0  0  0  0  0  0  0  0  0
   -7.8366    8.1415   10.3386 C   0  0  0  0  0  0  0  0  0  0  0  0
   -8.1519    9.1851   11.4369 C   0  0  0  0  0  0  0  0  0  0  0  0
   -8.6783   10.5233   10.8529 C   0  0  0  0  0  0  0  0  0  0  0  0
   -4.9065   14.8689   11.0662 C   0  0  0  0  0  0  0  0  0  0  0  0
   -6.6941   11.6983    9.8177 C   0  0  0  0  0  0  0  0  0  0  0  0
   -8.2484   12.9836   11.2030 C   0  0  0  0  0  0  0  0  0  0  0  0
   -5.5351   12.6590   10.1714 C   0  0  0  0  0  0  0  0  0  0  0  0
   -7.1183   13.9458   11.6386 C   0  0  0  0  0  0  0  0  0  0  0  0
   -7.6733   11.6309   10.9439 N   0  0  0  0  0  0  0  0  0  0  0  0
   -6.0278   14.0006   10.6169 N   0  0  0  0  0  0  0  0  0  0  0  0
 11 12  1  0  0  0
 21 25  1  0  0  0
 26 25  1  0  0  0
 36 30  1  0  0  0
 29 30  1  0  0  0
 14 13  3  0  0  0
 17 22  1  0  0  0
 18 23  1  0  0  0
  5 14  1  0  0  0
  5  1  2  0  0  0
  4  1  1  0  0  0
 19 23  2  0  0  0
 19 22  1  0  0  0
 24 20  2  0  0  0
 21 20  1  0  0  0
  7  2  2  0  0  0
  2  9  1  0  0  0
  6  3  2  0  0  0
  3 10  1  0  0  0
 29 28  1  0  0  0
 27 28  1  0  0  0
 31 37  1  0  0  0
 36 32  1  0  0  0
 34 32  1  0  0  0
 35 33  1  0  0  0
 33 36  1  0  0  0
 37 34  1  0  0  0
 35 37  1  0  0  0
  9  4  2  0  0  0
 24 15  1  0  0  0
 15  8  1  0  0  0
 12  6  1  0  0  0
 27  7  1  0  0  0
 22 21  2  0  0  0
 23 24  1  0  0  0
  8  5  1  0  0  0
  6  7  1  0  0  0
 10  8  2  0  0  0
 10  9  1  0  0  0
 15 16  1  0  0  0
M  END
> <minimizedAffinity>
-9.20427

$$$$
5VC3_DB8_A_601


 37 40  0  0  0  0  0  0  0  0999 V2000
   -3.9026    3.3435   14.0021 C   0  0  0  0  0  0  0  0  0  0  0  0
   -5.4122    6.0508   12.1059 C   0  0  0  0  0  0  0  0  0  0  0  0
   -4.2960    4.5718    9.9873 C   0  0  0  0  0  0  0  0  0  0  0  0
   -4.5689    4.4630   13.6551 N   0  0  0  0  0  0  0  0  0  0  0  0
   -3.3059    2.5340   13.0124 C   0  0  0  0  0  0  0  0  0  0  0  0
   -5.0047    5.7607    9.7094 C   0  0  0  0  0  0  0  0  0  0  0  0
   -5.5671    6.4926   10.7825 C   0  0  0  0  0  0  0  0  0  0  0  0
   -3.4188    2.9112   11.6267 C   0  0  0  0  0  0  0  0  0  0  0  0
   -4.7028    4.8670   12.3743 C   0  0  0  0  0  0  0  0  0  0  0  0
   -4.1302    4.1074   11.3151 C   0  0  0  0  0  0  0  0  0  0  0  0
   -4.0370    6.5806    7.5922 C   0  0  0  0  0  0  0  0  0  0  0  0
   -5.1864    6.2366    8.4212 O   0  0  0  0  0  0  0  0  0  0  0  0
   -2.1547    0.5523   13.8967 N   0  0  0  0  0  0  0  0  0  0  0  0
   -2.6898    1.4791   13.4812 C   0  0  0  0  0  0  0  0  0  0  0  0
   -2.8772    2.1903   10.5696 N   0  0  0  0  0  0  0  0  0  0  0  0
   -3.5146    1.6362   10.0637 H   0  0  0  0  0  0  0  0  0  0  0  0
    2.6954    2.1007    8.7375 Cl  0  0  0  0  0  0  0  0  0  0  0  0
   -1.5082   -0.5002   10.8012 Cl  0  0  0  0  0  0  0  0  0  0  0  0
    0.5097    0.9401    9.7573 C   0  0  0  0  0  0  0  0  0  0  0  0
   -0.9829    3.3183    9.6238 C   0  0  0  0  0  0  0  0  0  0  0  0
    0.3546    3.3276    9.1782 C   0  0  0  0  0  0  0  0  0  0  0  0
    1.0885    2.1269    9.2512 C   0  0  0  0  0  0  0  0  0  0  0  0
   -0.8307    0.9414   10.1917 C   0  0  0  0  0  0  0  0  0  0  0  0
   -1.5816    2.1434   10.1343 C   0  0  0  0  0  0  0  0  0  0  0  0
    0.9618    4.4585    8.6726 O   0  0  0  0  0  0  0  0  0  0  0  0
    0.1753    5.6498    8.4270 C   0  0  0  0  0  0  0  0  0  0  0  0
   -6.2558    7.6446   10.5027 O   0  0  0  0  0  0  0  0  0  0  0  0
   -7.5490    7.8773   11.0936 C   0  0  0  0  0  0  0  0  0  0  0  0
   -8.1822    9.0360   10.2866 C   0  0  0  0  0  0  0  0  0  0  0  0
   -8.5500   10.2515   11.1788 C   0  0  0  0  0  0  0  0  0  0  0  0
   -4.8652   14.6384   10.6013 C   0  0  0  0  0  0  0  0  0  0  0  0
   -6.6808   11.3276    9.8605 C   0  0  0  0  0  0  0  0  0  0  0  0
   -8.1449   12.7404   11.2197 C   0  0  0  0  0  0  0  0  0  0  0  0
   -5.5175   12.3355   10.0097 C   0  0  0  0  0  0  0  0  0  0  0  0
   -7.0038   13.7585   11.4523 C   0  0  0  0  0  0  0  0  0  0  0  0
   -7.5643   11.3743   11.0642 N   0  0  0  0  0  0  0  0  0  0  0  0
   -6.0007   13.7123   10.3443 N   0  0  0  0  0  0  0  0  0  0  0  0
 11 12  1  0  0  0
 21 25  1  0  0  0
 26 25  1  0  0  0
 36 30  1  0  0  0
 29 30  1  0  0  0
 14 13  3  0  0  0
 17 22  1  0  0  0
 18 23  1  0  0  0
  5 14  1  0  0  0
  5  1  2  0  0  0
  4  1  1  0  0  0
 19 23  2  0  0  0
 19 22  1  0  0  0
 24 20  2  0  0  0
 21 20  1  0  0  0
  7  2  2  0  0  0
  2  9  1  0  0  0
  6  3  2  0  0  0
  3 10  1  0  0  0
 29 28  1  0  0  0
 27 28  1  0  0  0
 31 37  1  0  0  0
 36 32  1  0  0  0
 34 32  1  0  0  0
 35 33  1  0  0  0
 33 36  1  0  0  0
 37 34  1  0  0  0
 35 37  1  0  0  0
  9  4  2  0  0  0
 24 15  1  0  0  0
 15  8  1  0  0  0
 12  6  1  0  0  0
 27  7  1  0  0  0
 22 21  2  0  0  0
 23 24  1  0  0  0
  8  5  1  0  0  0
  6  7  1  0  0  0
 10  8  2  0  0  0
 10  9  1  0  0  0
 15 16  1  0  0  0
M  END
> <minimizedAffinity>
-8.97001

$$$$
5VC3_DB8_A_601


 37 40  0  0  0  0  0  0  0  0999 V2000
   -0.7725    3.8110    8.4533 C   0  0  0  0  0  0  0  0  0  0  0  0
   -3.5099    6.0597    9.2616 C   0  0  0  0  0  0  0  0  0  0  0  0
   -4.2234    3.8674   10.8761 C   0  0  0  0  0  0  0  0  0  0  0  0
   -1.5979    4.8758    8.5035 N   0  0  0  0  0  0  0  0  0  0  0  0
   -1.0444    2.6617    9.2255 C   0  0  0  0  0  0  0  0  0  0  0  0
   -5.0385    5.0199   10.8666 C   0  0  0  0  0  0  0  0  0  0  0  0
   -4.6661    6.1186   10.0557 C   0  0  0  0  0  0  0  0  0  0  0  0
   -2.2094    2.6374   10.0724 C   0  0  0  0  0  0  0  0  0  0  0  0
   -2.7049    4.9070    9.2750 C   0  0  0  0  0  0  0  0  0  0  0  0
   -3.0516    3.7883   10.0843 C   0  0  0  0  0  0  0  0  0  0  0  0
   -6.1411    4.8824   13.0705 C   0  0  0  0  0  0  0  0  0  0  0  0
   -6.1872    5.1272   11.6335 O   0  0  0  0  0  0  0  0  0  0  0  0
    0.6044    0.8608    8.9562 N   0  0  0  0  0  0  0  0  0  0  0  0
   -0.1676    1.7007    9.0849 C   0  0  0  0  0  0  0  0  0  0  0  0
   -2.5730    1.5651   10.8777 N   0  0  0  0  0  0  0  0  0  0  0  0
   -3.4549    1.1714   10.6866 H   0  0  0  0  0  0  0  0  0  0  0  0
    0.5030   -0.9690   15.1829 Cl  0  0  0  0  0  0  0  0  0  0  0  0
   -2.9258    2.8319   13.6048 Cl  0  0  0  0  0  0  0  0  0  0  0  0
   -1.2021    0.8679   14.2435 C   0  0  0  0  0  0  0  0  0  0  0  0
   -1.0586   -0.1396   11.6233 C   0  0  0  0  0  0  0  0  0  0  0  0
   -0.3066   -0.7680   12.6367 C   0  0  0  0  0  0  0  0  0  0  0  0
   -0.3905   -0.2508   13.9449 C   0  0  0  0  0  0  0  0  0  0  0  0
   -1.9557    1.4820   13.2234 C   0  0  0  0  0  0  0  0  0  0  0  0
   -1.8760    0.9807   11.8990 C   0  0  0  0  0  0  0  0  0  0  0  0
    0.4957   -1.8641   12.3960 O   0  0  0  0  0  0  0  0  0  0  0  0
    1.5304   -1.7912   11.3849 C   0  0  0  0  0  0  0  0  0  0  0  0
   -5.4625    7.2345   10.0548 O   0  0  0  0  0  0  0  0  0  0  0  0
   -5.9016    7.8105    8.8092 C   0  0  0  0  0  0  0  0  0  0  0  0
   -6.9942    8.8416    9.1801 C   0  0  0  0  0  0  0  0  0  0  0  0
   -7.9466    8.3259   10.2918 C   0  0  0  0  0  0  0  0  0  0  0  0
  -13.0226   11.0358   10.0765 C   0  0  0  0  0  0  0  0  0  0  0  0
   -9.3695   10.2832   11.0226 C   0  0  0  0  0  0  0  0  0  0  0  0
   -9.8806    9.1644    8.9074 C   0  0  0  0  0  0  0  0  0  0  0  0
  -10.8458   10.7126   11.1883 C   0  0  0  0  0  0  0  0  0  0  0  0
  -11.3808    9.5153    9.0446 C   0  0  0  0  0  0  0  0  0  0  0  0
   -9.2857    8.9978   10.2660 N   0  0  0  0  0  0  0  0  0  0  0  0
  -11.5780   10.7378    9.8828 N   0  0  0  0  0  0  0  0  0  0  0  0
 11 12  1  0  0  0
 21 25  1  0  0  0
 26 25  1  0  0  0
 36 30  1  0  0  0
 29 30  1  0  0  0
 14 13  3  0  0  0
 17 22  1  0  0  0
 18 23  1  0  0  0
  5 14  1  0  0  0
  5  1  2  0  0  0
  4  1  1  0  0  0
 19 23  2  0  0  0
 19 22  1  0  0  0
 24 20  2  0  0  0
 21 20  1  0  0  0
  7  2  2  0  0  0
  2  9  1  0  0  0
  6  3  2  0  0  0
  3 10  1  0  0  0
 29 28  1  0  0  0
 27 28  1  0  0  0
 31 37  1  0  0  0
 36 32  1  0  0  0
 34 32  1  0  0  0
 35 33  1  0  0  0
 33 36  1  0  0  0
 37 34  1  0  0  0
 35 37  1  0  0  0
  9  4  2  0  0  0
 24 15  1  0  0  0
 15  8  1  0  0  0
 12  6  1  0  0  0
 27  7  1  0  0  0
 22 21  2  0  0  0
 23 24  1  0  0  0
  8  5  1  0  0  0
  6  7  1  0  0  0
 10  8  2  0  0  0
 10  9  1  0  0  0
 15 16  1  0  0  0
M  END
> <minimizedAffinity>
-8.88568

$$$$
5VC3_DB8_A_601


 37 40  0  0  0  0  0  0  0  0999 V2000
   -4.9425    6.5977   10.9846 C   0  0  0  0  0  0  0  0  0  0  0  0
   -2.3424    6.4858    8.4488 C   0  0  0  0  0  0  0  0  0  0  0  0
   -2.3866    3.7689    9.1826 C   0  0  0  0  0  0  0  0  0  0  0  0
   -4.0586    6.9367   10.0248 N   0  0  0  0  0  0  0  0  0  0  0  0
   -5.0404    5.2600   11.4228 C   0  0  0  0  0  0  0  0  0  0  0  0
   -1.4850    4.2074    8.1887 C   0  0  0  0  0  0  0  0  0  0  0  0
   -1.4764    5.5749    7.8235 C   0  0  0  0  0  0  0  0  0  0  0  0
   -4.1908    4.2578   10.8320 C   0  0  0  0  0  0  0  0  0  0  0  0
   -3.2355    6.0413    9.4395 C   0  0  0  0  0  0  0  0  0  0  0  0
   -3.2702    4.6711    9.8242 C   0  0  0  0  0  0  0  0  0  0  0  0
    0.0114    2.2463    8.2655 C   0  0  0  0  0  0  0  0  0  0  0  0
   -0.6128    3.3476    7.5415 O   0  0  0  0  0  0  0  0  0  0  0  0
   -6.7168    4.8885   13.1795 N   0  0  0  0  0  0  0  0  0  0  0  0
   -5.9348    5.0654   12.3578 C   0  0  0  0  0  0  0  0  0  0  0  0
   -4.2033    2.9128   11.1803 N   0  0  0  0  0  0  0  0  0  0  0  0
   -5.0067    2.4123   10.9097 H   0  0  0  0  0  0  0  0  0  0  0  0
   -0.0726   -0.2092   13.9389 Cl  0  0  0  0  0  0  0  0  0  0  0  0
   -3.7437    3.6895   14.0703 Cl  0  0  0  0  0  0  0  0  0  0  0  0
   -1.9432    1.7032   13.8492 C   0  0  0  0  0  0  0  0  0  0  0  0
   -2.5684    1.1571   11.1637 C   0  0  0  0  0  0  0  0  0  0  0  0
   -1.5699    0.3917   11.7997 C   0  0  0  0  0  0  0  0  0  0  0  0
   -1.2692    0.6779   13.1464 C   0  0  0  0  0  0  0  0  0  0  0  0
   -2.9454    2.4556   13.2049 C   0  0  0  0  0  0  0  0  0  0  0  0
   -3.2544    2.1876   11.8468 C   0  0  0  0  0  0  0  0  0  0  0  0
   -0.8880   -0.6213   11.1580 O   0  0  0  0  0  0  0  0  0  0  0  0
    0.4588   -0.3909   10.6769 C   0  0  0  0  0  0  0  0  0  0  0  0
   -0.5992    5.9911    6.8556 O   0  0  0  0  0  0  0  0  0  0  0  0
   -0.1058    7.3448    6.8583 C   0  0  0  0  0  0  0  0  0  0  0  0
    1.3387    7.2713    6.3083 C   0  0  0  0  0  0  0  0  0  0  0  0
    1.5863    5.9996    5.4537 C   0  0  0  0  0  0  0  0  0  0  0  0
    5.8817    2.8526    7.6449 C   0  0  0  0  0  0  0  0  0  0  0  0
    4.0743    5.5922    5.6363 C   0  0  0  0  0  0  0  0  0  0  0  0
    2.6111    4.8544    7.4533 C   0  0  0  0  0  0  0  0  0  0  0  0
    5.0991    4.4830    5.9691 C   0  0  0  0  0  0  0  0  0  0  0  0
    3.5695    3.6904    7.7987 C   0  0  0  0  0  0  0  0  0  0  0  0
    2.6938    5.1458    5.9919 N   0  0  0  0  0  0  0  0  0  0  0  0
    4.9714    3.9990    7.3799 N   0  0  0  0  0  0  0  0  0  0  0  0
 11 12  1  0  0  0
 21 25  1  0  0  0
 26 25  1  0  0  0
 36 30  1  0  0  0
 29 30  1  0  0  0
 14 13  3  0  0  0
 17 22  1  0  0  0
 18 23  1  0  0  0
  5 14  1  0  0  0
  5  1  2  0  0  0
  4  1  1  0  0  0
 19 23  2  0  0  0
 19 22  1  0  0  0
 24 20  2  0  0  0
 21 20  1  0  0  0
  7  2  2  0  0  0
  2  9  1  0  0  0
  6  3  2  0  0  0
  3 10  1  0  0  0
 29 28  1  0  0  0
 27 28  1  0  0  0
 31 37  1  0  0  0
 36 32  1  0  0  0
 34 32  1  0  0  0
 35 33  1  0  0  0
 33 36  1  0  0  0
 37 34  1  0  0  0
 35 37  1  0  0  0
  9  4  2  0  0  0
 24 15  1  0  0  0
 15  8  1  0  0  0
 12  6  1  0  0  0
 27  7  1  0  0  0
 22 21  2  0  0  0
 23 24  1  0  0  0
  8  5  1  0  0  0
  6  7  1  0  0  0
 10  8  2  0  0  0
 10  9  1  0  0  0
 15 16  1  0  0  0
M  END
> <minimizedAffinity>
-8.87974

$$$$
5VC3_DB8_A_601


 37 40  0  0  0  0  0  0  0  0999 V2000
   -0.6202    3.7387    8.3911 C   0  0  0  0  0  0  0  0  0  0  0  0
   -3.3403    6.0159    9.1776 C   0  0  0  0  0  0  0  0  0  0  0  0
   -4.0885    3.8318   10.7877 C   0  0  0  0  0  0  0  0  0  0  0  0
   -1.4349    4.8119    8.4345 N   0  0  0  0  0  0  0  0  0  0  0  0
   -0.9097    2.5927    9.1616 C   0  0  0  0  0  0  0  0  0  0  0  0
   -4.8916    4.9927   10.7715 C   0  0  0  0  0  0  0  0  0  0  0  0
   -4.5018    6.0871    9.9629 C   0  0  0  0  0  0  0  0  0  0  0  0
   -2.0813    2.5808    9.9997 C   0  0  0  0  0  0  0  0  0  0  0  0
   -2.5474    4.8550    9.1976 C   0  0  0  0  0  0  0  0  0  0  0  0
   -2.9116    3.7403   10.0047 C   0  0  0  0  0  0  0  0  0  0  0  0
   -5.9979    4.9411   12.9772 C   0  0  0  0  0  0  0  0  0  0  0  0
   -6.0449    5.1122   11.5296 O   0  0  0  0  0  0  0  0  0  0  0  0
    0.7161    0.7677    8.9155 N   0  0  0  0  0  0  0  0  0  0  0  0
   -0.0417    1.6226    9.0282 C   0  0  0  0  0  0  0  0  0  0  0  0
   -2.4619    1.5128   10.8027 N   0  0  0  0  0  0  0  0  0  0  0  0
   -3.3216    1.0930   10.5703 H   0  0  0  0  0  0  0  0  0  0  0  0
    0.4336   -0.8673   15.3160 Cl  0  0  0  0  0  0  0  0  0  0  0  0
   -3.0340    2.7845   13.4901 Cl  0  0  0  0  0  0  0  0  0  0  0  0
   -1.2790    0.8944   14.2542 C   0  0  0  0  0  0  0  0  0  0  0  0
   -0.9324   -0.1257   11.6579 C   0  0  0  0  0  0  0  0  0  0  0  0
   -0.2218   -0.7167   12.7224 C   0  0  0  0  0  0  0  0  0  0  0  0
   -0.4076   -0.1938   14.0177 C   0  0  0  0  0  0  0  0  0  0  0  0
   -1.9904    1.4710   13.1831 C   0  0  0  0  0  0  0  0  0  0  0  0
   -1.8083    0.9636   11.8712 C   0  0  0  0  0  0  0  0  0  0  0  0
    0.6359   -1.7822   12.5428 O   0  0  0  0  0  0  0  0  0  0  0  0
    1.5344   -1.8001   11.4068 C   0  0  0  0  0  0  0  0  0  0  0  0
   -5.2866    7.2111    9.9555 O   0  0  0  0  0  0  0  0  0  0  0  0
   -5.6589    7.8268    8.7072 C   0  0  0  0  0  0  0  0  0  0  0  0
   -7.0568    8.4483    8.9406 C   0  0  0  0  0  0  0  0  0  0  0  0
   -7.2866    9.7305    8.0968 C   0  0  0  0  0  0  0  0  0  0  0  0
   -6.4953   14.4928   11.2353 C   0  0  0  0  0  0  0  0  0  0  0  0
   -7.3758   10.8503   10.3612 C   0  0  0  0  0  0  0  0  0  0  0  0
   -5.8407   11.7173    8.6645 C   0  0  0  0  0  0  0  0  0  0  0  0
   -7.4860   12.2453   11.0193 C   0  0  0  0  0  0  0  0  0  0  0  0
   -5.9540   13.1473    9.2432 C   0  0  0  0  0  0  0  0  0  0  0  0
   -7.1220   10.9876    8.8954 N   0  0  0  0  0  0  0  0  0  0  0  0
   -6.3146   13.1189   10.6941 N   0  0  0  0  0  0  0  0  0  0  0  0
 11 12  1  0  0  0
 21 25  1  0  0  0
 26 25  1  0  0  0
 36 30  1  0  0  0
 29 30  1  0  0  0
 14 13  3  0  0  0
 17 22  1  0  0  0
 18 23  1  0  0  0
  5 14  1  0  0  0
  5  1  2  0  0  0
  4  1  1  0  0  0
 19 23  2  0  0  0
 19 22  1  0  0  0
 24 20  2  0  0  0
 21 20  1  0  0  0
  7  2  2  0  0  0
  2  9  1  0  0  0
  6  3  2  0  0  0
  3 10  1  0  0  0
 29 28  1  0  0  0
 27 28  1  0  0  0
 31 37  1  0  0  0
 36 32  1  0  0  0
 34 32  1  0  0  0
 35 33  1  0  0  0
 33 36  1  0  0  0
 37 34  1  0  0  0
 35 37  1  0  0  0
  9  4  2  0  0  0
 24 15  1  0  0  0
 15  8  1  0  0  0
 12  6  1  0  0  0
 27  7  1  0  0  0
 22 21  2  0  0  0
 23 24  1  0  0  0
  8  5  1  0  0  0
  6  7  1  0  0  0
 10  8  2  0  0  0
 10  9  1  0  0  0
 15 16  1  0  0  0
M  END
> <minimizedAffinity>
-8.86056

$$$$
5VC3_DB8_A_601


 37 40  0  0  0  0  0  0  0  0999 V2000
   -4.0722    3.3884   14.0160 C   0  0  0  0  0  0  0  0  0  0  0  0
   -5.6254    6.1715   12.2708 C   0  0  0  0  0  0  0  0  0  0  0  0
   -4.4291    4.8664   10.0828 C   0  0  0  0  0  0  0  0  0  0  0  0
   -4.7643    4.5094   13.7296 N   0  0  0  0  0  0  0  0  0  0  0  0
   -3.4346    2.6625   12.9876 C   0  0  0  0  0  0  0  0  0  0  0  0
   -5.1668    6.0509    9.8690 C   0  0  0  0  0  0  0  0  0  0  0  0
   -5.7693    6.6948   10.9761 C   0  0  0  0  0  0  0  0  0  0  0  0
   -3.5336    3.1266   11.6275 C   0  0  0  0  0  0  0  0  0  0  0  0
   -4.8869    4.9927   12.4754 C   0  0  0  0  0  0  0  0  0  0  0  0
   -4.2737    4.3205   11.3806 C   0  0  0  0  0  0  0  0  0  0  0  0
   -4.2545    7.3439    7.9750 C   0  0  0  0  0  0  0  0  0  0  0  0
   -5.3391    6.6052    8.6112 O   0  0  0  0  0  0  0  0  0  0  0  0
   -2.2319    0.6653   13.7616 N   0  0  0  0  0  0  0  0  0  0  0  0
   -2.7968    1.5965   13.3989 C   0  0  0  0  0  0  0  0  0  0  0  0
   -2.9525    2.4920   10.5366 N   0  0  0  0  0  0  0  0  0  0  0  0
   -3.5746    2.0067    9.9477 H   0  0  0  0  0  0  0  0  0  0  0  0
    2.6946    2.1870    8.9758 Cl  0  0  0  0  0  0  0  0  0  0  0  0
   -2.1366    4.4126    8.3430 Cl  0  0  0  0  0  0  0  0  0  0  0  0
    0.2259    3.2028    8.7798 C   0  0  0  0  0  0  0  0  0  0  0  0
   -0.7701    1.5343   10.8110 C   0  0  0  0  0  0  0  0  0  0  0  0
    0.5908    1.4372   10.4559 C   0  0  0  0  0  0  0  0  0  0  0  0
    1.0741    2.2813    9.4363 C   0  0  0  0  0  0  0  0  0  0  0  0
   -1.1305    3.2965    9.1497 C   0  0  0  0  0  0  0  0  0  0  0  0
   -1.6364    2.4478   10.1674 C   0  0  0  0  0  0  0  0  0  0  0  0
    1.4583    0.5576   11.0698 O   0  0  0  0  0  0  0  0  0  0  0  0
    1.4089   -0.8518   10.7389 C   0  0  0  0  0  0  0  0  0  0  0  0
   -6.4858    7.8431   10.7585 O   0  0  0  0  0  0  0  0  0  0  0  0
   -7.8319    7.9630   11.2581 C   0  0  0  0  0  0  0  0  0  0  0  0
   -8.5932    8.8269   10.2243 C   0  0  0  0  0  0  0  0  0  0  0  0
   -9.0090   10.2092   10.7947 C   0  0  0  0  0  0  0  0  0  0  0  0
   -4.8333   14.1620   10.4871 C   0  0  0  0  0  0  0  0  0  0  0  0
   -7.0269   11.1467    9.5369 C   0  0  0  0  0  0  0  0  0  0  0  0
   -8.3134   12.6244   11.0027 C   0  0  0  0  0  0  0  0  0  0  0  0
   -5.7528   11.9981    9.7446 C   0  0  0  0  0  0  0  0  0  0  0  0
   -7.0601   13.4828   11.2944 C   0  0  0  0  0  0  0  0  0  0  0  0
   -7.8980   11.2135   10.7487 N   0  0  0  0  0  0  0  0  0  0  0  0
   -6.0702   13.3957   10.1771 N   0  0  0  0  0  0  0  0  0  0  0  0
 11 12  1  0  0  0
 21 25  1  0  0  0
 26 25  1  0  0  0
 36 30  1  0  0  0
 29 30  1  0  0  0
 14 13  3  0  0  0
 17 22  1  0  0  0
 18 23  1  0  0  0
  5 14  1  0  0  0
  5  1  2  0  0  0
  4  1  1  0  0  0
 19 23  2  0  0  0
 19 22  1  0  0  0
 24 20  2  0  0  0
 21 20  1  0  0  0
  7  2  2  0  0  0
  2  9  1  0  0  0
  6  3  2  0  0  0
  3 10  1  0  0  0
 29 28  1  0  0  0
 27 28  1  0  0  0
 31 37  1  0  0  0
 36 32  1  0  0  0
 34 32  1  0  0  0
 35 33  1  0  0  0
 33 36  1  0  0  0
 37 34  1  0  0  0
 35 37  1  0  0  0
  9  4  2  0  0  0
 24 15  1  0  0  0
 15  8  1  0  0  0
 12  6  1  0  0  0
 27  7  1  0  0  0
 22 21  2  0  0  0
 23 24  1  0  0  0
  8  5  1  0  0  0
  6  7  1  0  0  0
 10  8  2  0  0  0
 10  9  1  0  0  0
 15 16  1  0  0  0
M  END
> <minimizedAffinity>
-8.83902

$$$$
5VC3_DB8_A_601


 37 40  0  0  0  0  0  0  0  0999 V2000
   -0.3534   -0.4299   12.9895 C   0  0  0  0  0  0  0  0  0  0  0  0
   -3.0333    2.0208   12.8626 C   0  0  0  0  0  0  0  0  0  0  0  0
   -2.1325    2.1858   10.2012 C   0  0  0  0  0  0  0  0  0  0  0  0
   -1.3851    0.3745   13.3156 N   0  0  0  0  0  0  0  0  0  0  0  0
    0.1713   -0.4200   11.6797 C   0  0  0  0  0  0  0  0  0  0  0  0
   -3.2053    2.9997   10.6253 C   0  0  0  0  0  0  0  0  0  0  0  0
   -3.6537    2.9033   11.9643 C   0  0  0  0  0  0  0  0  0  0  0  0
   -0.4080    0.4537   10.6917 C   0  0  0  0  0  0  0  0  0  0  0  0
   -1.9639    1.2155   12.4329 C   0  0  0  0  0  0  0  0  0  0  0  0
   -1.4943    1.2873   11.0909 C   0  0  0  0  0  0  0  0  0  0  0  0
   -3.0956    4.6406    8.7849 C   0  0  0  0  0  0  0  0  0  0  0  0
   -3.8511    3.8840    9.7767 O   0  0  0  0  0  0  0  0  0  0  0  0
    2.0504   -1.9637   11.3326 N   0  0  0  0  0  0  0  0  0  0  0  0
    1.1700   -1.2452   11.4952 C   0  0  0  0  0  0  0  0  0  0  0  0
    0.0223    0.5439    9.3737 N   0  0  0  0  0  0  0  0  0  0  0  0
   -0.4536   -0.0315    8.7321 H   0  0  0  0  0  0  0  0  0  0  0  0
    4.2539    3.9629    7.1776 Cl  0  0  0  0  0  0  0  0  0  0  0  0
    2.4569   -0.9430    8.3595 Cl  0  0  0  0  0  0  0  0  0  0  0  0
    3.2181    1.5806    7.8224 C   0  0  0  0  0  0  0  0  0  0  0  0
    0.8474    2.7245    8.8087 C   0  0  0  0  0  0  0  0  0  0  0  0
    1.8474    3.5714    8.2888 C   0  0  0  0  0  0  0  0  0  0  0  0
    3.0294    2.9817    7.7977 C   0  0  0  0  0  0  0  0  0  0  0  0
    2.2075    0.7440    8.3366 C   0  0  0  0  0  0  0  0  0  0  0  0
    1.0152    1.3210    8.8440 C   0  0  0  0  0  0  0  0  0  0  0  0
    1.7082    4.9430    8.2392 O   0  0  0  0  0  0  0  0  0  0  0  0
    0.3991    5.5406    8.4052 C   0  0  0  0  0  0  0  0  0  0  0  0
   -4.6977    3.6957   12.3664 O   0  0  0  0  0  0  0  0  0  0  0  0
   -4.5458    4.5758   13.4970 C   0  0  0  0  0  0  0  0  0  0  0  0
   -5.1900    5.9192   13.0789 C   0  0  0  0  0  0  0  0  0  0  0  0
   -6.5793    5.7314   12.4129 C   0  0  0  0  0  0  0  0  0  0  0  0
   -7.2513    9.3313    7.9693 C   0  0  0  0  0  0  0  0  0  0  0  0
   -7.5797    7.8719   11.5147 C   0  0  0  0  0  0  0  0  0  0  0  0
   -5.5451    6.9852   10.4845 C   0  0  0  0  0  0  0  0  0  0  0  0
   -7.9910    8.5541   10.1893 C   0  0  0  0  0  0  0  0  0  0  0  0
   -5.9302    7.5963    9.1166 C   0  0  0  0  0  0  0  0  0  0  0  0
   -6.7860    6.6371   11.2372 N   0  0  0  0  0  0  0  0  0  0  0  0
   -6.8209    8.7856    9.2847 N   0  0  0  0  0  0  0  0  0  0  0  0
 11 12  1  0  0  0
 21 25  1  0  0  0
 26 25  1  0  0  0
 36 30  1  0  0  0
 29 30  1  0  0  0
 14 13  3  0  0  0
 17 22  1  0  0  0
 18 23  1  0  0  0
  5 14  1  0  0  0
  5  1  2  0  0  0
  4  1  1  0  0  0
 19 23  2  0  0  0
 19 22  1  0  0  0
 24 20  2  0  0  0
 21 20  1  0  0  0
  7  2  2  0  0  0
  2  9  1  0  0  0
  6  3  2  0  0  0
  3 10  1  0  0  0
 29 28  1  0  0  0
 27 28  1  0  0  0
 31 37  1  0  0  0
 36 32  1  0  0  0
 34 32  1  0  0  0
 35 33  1  0  0  0
 33 36  1  0  0  0
 37 34  1  0  0  0
 35 37  1  0  0  0
  9  4  2  0  0  0
 24 15  1  0  0  0
 15  8  1  0  0  0
 12  6  1  0  0  0
 27  7  1  0  0  0
 22 21  2  0  0  0
 23 24  1  0  0  0
  8  5  1  0  0  0
  6  7  1  0  0  0
 10  8  2  0  0  0
 10  9  1  0  0  0
 15 16  1  0  0  0
M  END
> <minimizedAffinity>
-8.71096

$$$$
5VC3_DB8_A_601


 37 40  0  0  0  0  0  0  0  0999 V2000
   -4.4110    7.6012    9.7461 C   0  0  0  0  0  0  0  0  0  0  0  0
   -1.6652    6.6022    7.5860 C   0  0  0  0  0  0  0  0  0  0  0  0
   -2.2727    4.1085    8.7410 C   0  0  0  0  0  0  0  0  0  0  0  0
   -3.3996    7.6094    8.8547 N   0  0  0  0  0  0  0  0  0  0  0  0
   -4.7913    6.3999   10.3811 C   0  0  0  0  0  0  0  0  0  0  0  0
   -1.2227    4.2041    7.8022 C   0  0  0  0  0  0  0  0  0  0  0  0
   -0.9307    5.4622    7.2232 C   0  0  0  0  0  0  0  0  0  0  0  0
   -4.0927    5.1804   10.0652 C   0  0  0  0  0  0  0  0  0  0  0  0
   -2.7078    6.4988    8.5237 C   0  0  0  0  0  0  0  0  0  0  0  0
   -3.0275    5.2459    9.1190 C   0  0  0  0  0  0  0  0  0  0  0  0
   -0.7266    2.4569    6.1310 C   0  0  0  0  0  0  0  0  0  0  0  0
   -0.4708    3.1086    7.4104 O   0  0  0  0  0  0  0  0  0  0  0  0
   -6.6594    6.6444   11.9575 N   0  0  0  0  0  0  0  0  0  0  0  0
   -5.7843    6.5289   11.2235 C   0  0  0  0  0  0  0  0  0  0  0  0
   -4.3829    3.9416   10.6234 N   0  0  0  0  0  0  0  0  0  0  0  0
   -5.2476    3.5506   10.3614 H   0  0  0  0  0  0  0  0  0  0  0  0
   -1.0808    0.7213   14.2489 Cl  0  0  0  0  0  0  0  0  0  0  0  0
   -4.9372    4.3762   13.5679 Cl  0  0  0  0  0  0  0  0  0  0  0  0
   -2.9893    2.5296   13.7472 C   0  0  0  0  0  0  0  0  0  0  0  0
   -2.6771    2.2894   10.9640 C   0  0  0  0  0  0  0  0  0  0  0  0
   -1.8681    1.5042   11.8104 C   0  0  0  0  0  0  0  0  0  0  0  0
   -2.0379    1.6362   13.2031 C   0  0  0  0  0  0  0  0  0  0  0  0
   -3.7980    3.3028   12.8906 C   0  0  0  0  0  0  0  0  0  0  0  0
   -3.6341    3.1899   11.4862 C   0  0  0  0  0  0  0  0  0  0  0  0
   -0.9297    0.6157   11.3276 O   0  0  0  0  0  0  0  0  0  0  0  0
   -1.3221   -0.7401   11.0020 C   0  0  0  0  0  0  0  0  0  0  0  0
    0.0890    5.5449    6.3106 O   0  0  0  0  0  0  0  0  0  0  0  0
    1.3876    6.0194    6.7160 C   0  0  0  0  0  0  0  0  0  0  0  0
    2.4002    4.9576    6.2240 C   0  0  0  0  0  0  0  0  0  0  0  0
    3.4038    4.5346    7.3298 C   0  0  0  0  0  0  0  0  0  0  0  0
    2.0908   -0.6663    9.4233 C   0  0  0  0  0  0  0  0  0  0  0  0
    2.1206    3.1603    9.0193 C   0  0  0  0  0  0  0  0  0  0  0  0
    2.7505    2.1394    6.8868 C   0  0  0  0  0  0  0  0  0  0  0  0
    2.1321    1.7812    9.7188 C   0  0  0  0  0  0  0  0  0  0  0  0
    2.8340    0.7406    7.5418 C   0  0  0  0  0  0  0  0  0  0  0  0
    3.1055    3.1798    7.8962 N   0  0  0  0  0  0  0  0  0  0  0  0
    1.9572    0.6535    8.7499 N   0  0  0  0  0  0  0  0  0  0  0  0
 11 12  1  0  0  0
 21 25  1  0  0  0
 26 25  1  0  0  0
 36 30  1  0  0  0
 29 30  1  0  0  0
 14 13  3  0  0  0
 17 22  1  0  0  0
 18 23  1  0  0  0
  5 14  1  0  0  0
  5  1  2  0  0  0
  4  1  1  0  0  0
 19 23  2  0  0  0
 19 22  1  0  0  0
 24 20  2  0  0  0
 21 20  1  0  0  0
  7  2  2  0  0  0
  2  9  1  0  0  0
  6  3  2  0  0  0
  3 10  1  0  0  0
 29 28  1  0  0  0
 27 28  1  0  0  0
 31 37  1  0  0  0
 36 32  1  0  0  0
 34 32  1  0  0  0
 35 33  1  0  0  0
 33 36  1  0  0  0
 37 34  1  0  0  0
 35 37  1  0  0  0
  9  4  2  0  0  0
 24 15  1  0  0  0
 15  8  1  0  0  0
 12  6  1  0  0  0
 27  7  1  0  0  0
 22 21  2  0  0  0
 23 24  1  0  0  0
  8  5  1  0  0  0
  6  7  1  0  0  0
 10  8  2  0  0  0
 10  9  1  0  0  0
 15 16  1  0  0  0
M  END
> <minimizedAffinity>
-8.64734

$$$$
5VC3_DB8_A_601


 37 40  0  0  0  0  0  0  0  0999 V2000
   -4.7652    7.9790    9.6933 C   0  0  0  0  0  0  0  0  0  0  0  0
   -1.8088    7.0493    7.7962 C   0  0  0  0  0  0  0  0  0  0  0  0
   -2.4497    4.5437    8.9066 C   0  0  0  0  0  0  0  0  0  0  0  0
   -3.6778    8.0122    8.8969 N   0  0  0  0  0  0  0  0  0  0  0  0
   -5.1683    6.7699   10.2986 C   0  0  0  0  0  0  0  0  0  0  0  0
   -1.3221    4.6652    8.0659 C   0  0  0  0  0  0  0  0  0  0  0  0
   -1.0134    5.9289    7.5082 C   0  0  0  0  0  0  0  0  0  0  0  0
   -4.4108    5.5692   10.0544 C   0  0  0  0  0  0  0  0  0  0  0  0
   -2.9287    6.9202    8.6364 C   0  0  0  0  0  0  0  0  0  0  0  0
   -3.2665    5.6610    9.2080 C   0  0  0  0  0  0  0  0  0  0  0  0
    0.0811    2.7747    8.8065 C   0  0  0  0  0  0  0  0  0  0  0  0
   -0.5080    3.5897    7.7503 O   0  0  0  0  0  0  0  0  0  0  0  0
   -7.1747    6.9721   11.7013 N   0  0  0  0  0  0  0  0  0  0  0  0
   -6.2365    6.8742   11.0470 C   0  0  0  0  0  0  0  0  0  0  0  0
   -4.7162    4.3247   10.5916 N   0  0  0  0  0  0  0  0  0  0  0  0
   -5.5772    3.9405   10.3083 H   0  0  0  0  0  0  0  0  0  0  0  0
   -1.4987    1.0404   14.2357 Cl  0  0  0  0  0  0  0  0  0  0  0  0
   -5.1973    4.8512   13.5340 Cl  0  0  0  0  0  0  0  0  0  0  0  0
   -3.3322    2.9221   13.7238 C   0  0  0  0  0  0  0  0  0  0  0  0
   -3.0811    2.6046   10.9422 C   0  0  0  0  0  0  0  0  0  0  0  0
   -2.2934    1.8027   11.7931 C   0  0  0  0  0  0  0  0  0  0  0  0
   -2.4320    1.9740   13.1850 C   0  0  0  0  0  0  0  0  0  0  0  0
   -4.1203    3.7117   12.8630 C   0  0  0  0  0  0  0  0  0  0  0  0
   -3.9868    3.5594   11.4591 C   0  0  0  0  0  0  0  0  0  0  0  0
   -1.4050    0.8616   11.3155 O   0  0  0  0  0  0  0  0  0  0  0  0
   -1.9025   -0.3573   10.7115 C   0  0  0  0  0  0  0  0  0  0  0  0
    0.0820    6.0367    6.6910 O   0  0  0  0  0  0  0  0  0  0  0  0
   -0.0869    6.1684    5.2662 C   0  0  0  0  0  0  0  0  0  0  0  0
    1.0189    5.2961    4.6251 C   0  0  0  0  0  0  0  0  0  0  0  0
    2.2802    5.1798    5.5221 C   0  0  0  0  0  0  0  0  0  0  0  0
    2.9356   -0.0247    7.8969 C   0  0  0  0  0  0  0  0  0  0  0  0
    2.0534    2.6723    5.2978 C   0  0  0  0  0  0  0  0  0  0  0  0
    3.7182    3.5832    6.8424 C   0  0  0  0  0  0  0  0  0  0  0  0
    1.9225    1.3869    6.1475 C   0  0  0  0  0  0  0  0  0  0  0  0
    3.5903    2.3471    7.7635 C   0  0  0  0  0  0  0  0  0  0  0  0
    2.4111    3.8335    6.1668 N   0  0  0  0  0  0  0  0  0  0  0  0
    3.1290    1.1467    7.0004 N   0  0  0  0  0  0  0  0  0  0  0  0
 11 12  1  0  0  0
 21 25  1  0  0  0
 26 25  1  0  0  0
 36 30  1  0  0  0
 29 30  1  0  0  0
 14 13  3  0  0  0
 17 22  1  0  0  0
 18 23  1  0  0  0
  5 14  1  0  0  0
  5  1  2  0  0  0
  4  1  1  0  0  0
 19 23  2  0  0  0
 19 22  1  0  0  0
 24 20  2  0  0  0
 21 20  1  0  0  0
  7  2  2  0  0  0
  2  9  1  0  0  0
  6  3  2  0  0  0
  3 10  1  0  0  0
 29 28  1  0  0  0
 27 28  1  0  0  0
 31 37  1  0  0  0
 36 32  1  0  0  0
 34 32  1  0  0  0
 35 33  1  0  0  0
 33 36  1  0  0  0
 37 34  1  0  0  0
 35 37  1  0  0  0
  9  4  2  0  0  0
 24 15  1  0  0  0
 15  8  1  0  0  0
 12  6  1  0  0  0
 27  7  1  0  0  0
 22 21  2  0  0  0
 23 24  1  0  0  0
  8  5  1  0  0  0
  6  7  1  0  0  0
 10  8  2  0  0  0
 10  9  1  0  0  0
 15 16  1  0  0  0
M  END
> <minimizedAffinity>
-8.42790

$$$$
5VC3_DB8_A_601


 37 40  0  0  0  0  0  0  0  0999 V2000
   -9.1631    9.7276   10.9699 C   0  0  0  0  0  0  0  0  0  0  0  0
   -6.6640    7.1416   11.4908 C   0  0  0  0  0  0  0  0  0  0  0  0
   -5.9002    8.0094    8.9246 C   0  0  0  0  0  0  0  0  0  0  0  0
   -8.4236    8.7341   11.5027 N   0  0  0  0  0  0  0  0  0  0  0  0
   -8.8607   10.2316    9.6871 C   0  0  0  0  0  0  0  0  0  0  0  0
   -5.1809    6.9684    9.5507 C   0  0  0  0  0  0  0  0  0  0  0  0
   -5.5703    6.5450   10.8440 C   0  0  0  0  0  0  0  0  0  0  0  0
   -7.7514    9.6789    8.9529 C   0  0  0  0  0  0  0  0  0  0  0  0
   -7.3767    8.1761   10.8592 C   0  0  0  0  0  0  0  0  0  0  0  0
   -7.0052    8.6263    9.5607 C   0  0  0  0  0  0  0  0  0  0  0  0
   -4.2945    5.3045    7.9579 C   0  0  0  0  0  0  0  0  0  0  0  0
   -4.0940    6.3499    8.9549 O   0  0  0  0  0  0  0  0  0  0  0  0
  -10.3453   12.0371    8.9318 N   0  0  0  0  0  0  0  0  0  0  0  0
   -9.6542   11.1919    9.2868 C   0  0  0  0  0  0  0  0  0  0  0  0
   -7.3594   10.0986    7.6878 N   0  0  0  0  0  0  0  0  0  0  0  0
   -7.5910    9.4906    6.9488 H   0  0  0  0  0  0  0  0  0  0  0  0
   -4.4513   14.9824    6.2355 Cl  0  0  0  0  0  0  0  0  0  0  0  0
   -7.0005   10.5245    4.7118 Cl  0  0  0  0  0  0  0  0  0  0  0  0
   -5.7539   12.7234    5.6319 C   0  0  0  0  0  0  0  0  0  0  0  0
   -6.2332   12.1158    8.3342 C   0  0  0  0  0  0  0  0  0  0  0  0
   -5.5299   13.2954    8.0157 C   0  0  0  0  0  0  0  0  0  0  0  0
   -5.2987   13.5855    6.6562 C   0  0  0  0  0  0  0  0  0  0  0  0
   -6.4632   11.5517    5.9627 C   0  0  0  0  0  0  0  0  0  0  0  0
   -6.6966   11.2390    7.3264 C   0  0  0  0  0  0  0  0  0  0  0  0
   -5.0700   14.1697    8.9786 O   0  0  0  0  0  0  0  0  0  0  0  0
   -4.9102   13.7170   10.3453 C   0  0  0  0  0  0  0  0  0  0  0  0
   -4.8643    5.5352   11.4452 O   0  0  0  0  0  0  0  0  0  0  0  0
   -5.2681    5.0373   12.7355 C   0  0  0  0  0  0  0  0  0  0  0  0
   -4.3848    3.7960   13.0070 C   0  0  0  0  0  0  0  0  0  0  0  0
   -3.8119    3.1766   11.7042 C   0  0  0  0  0  0  0  0  0  0  0  0
   -0.0183   -1.0177   12.7866 C   0  0  0  0  0  0  0  0  0  0  0  0
   -2.4352    1.9119   13.4055 C   0  0  0  0  0  0  0  0  0  0  0  0
   -3.0672    0.7979   11.3207 C   0  0  0  0  0  0  0  0  0  0  0  0
   -1.1681    1.0337   13.5273 C   0  0  0  0  0  0  0  0  0  0  0  0
   -1.7880   -0.0711   11.3570 C   0  0  0  0  0  0  0  0  0  0  0  0
   -2.7895    2.1135   11.9684 N   0  0  0  0  0  0  0  0  0  0  0  0
   -1.2882   -0.2435   12.7557 N   0  0  0  0  0  0  0  0  0  0  0  0
 11 12  1  0  0  0
 21 25  1  0  0  0
 26 25  1  0  0  0
 36 30  1  0  0  0
 29 30  1  0  0  0
 14 13  3  0  0  0
 17 22  1  0  0  0
 18 23  1  0  0  0
  5 14  1  0  0  0
  5  1  2  0  0  0
  4  1  1  0  0  0
 19 23  2  0  0  0
 19 22  1  0  0  0
 24 20  2  0  0  0
 21 20  1  0  0  0
  7  2  2  0  0  0
  2  9  1  0  0  0
  6  3  2  0  0  0
  3 10  1  0  0  0
 29 28  1  0  0  0
 27 28  1  0  0  0
 31 37  1  0  0  0
 36 32  1  0  0  0
 34 32  1  0  0  0
 35 33  1  0  0  0
 33 36  1  0  0  0
 37 34  1  0  0  0
 35 37  1  0  0  0
  9  4  2  0  0  0
 24 15  1  0  0  0
 15  8  1  0  0  0
 12  6  1  0  0  0
 27  7  1  0  0  0
 22 21  2  0  0  0
 23 24  1  0  0  0
  8  5  1  0  0  0
  6  7  1  0  0  0
 10  8  2  0  0  0
 10  9  1  0  0  0
 15 16  1  0  0  0
M  END
> <minimizedAffinity>
-8.36815

$$$$
