3NPC_B96_A_365
  RCSB PDB12061709573D
Coordinates from PDB:3NPC:A:365 Model:1 without hydrogens
 39 43  0  0  0  0            999 V2000
   55.1090   47.7460   10.1500   C 0  0  0  0  0  0  0  0  0  0  0  0
   53.9930   48.1800    9.9410   O 0  0  0  0  0  0  0  0  0  0  0  0
   55.8600   48.2360   11.1640   N 0  0  0  0  0  0  0  0  0  0  0  0
   55.3960   49.1900   12.0890   C 0  0  0  0  0  0  0  0  0  0  0  0
   56.1180   50.3550   12.4040   C 0  0  0  0  0  0  0  0  0  0  0  0
   55.5790   51.2550   13.3750   C 0  0  0  0  0  0  0  0  0  0  0  0
   54.3430   50.9590   14.0150   C 0  0  0  0  0  0  0  0  0  0  0  0
   57.3380   50.6560   11.7700   C 0  0  0  0  0  0  0  0  0  0  0  0
   57.9950   51.7930   12.0920   C 0  0  0  0  0  0  0  0  0  0  0  0
   57.4780   52.6710   13.0470   C 0  0  0  0  0  0  0  0  0  0  0  0
   56.2960   52.4300   13.6800   C 0  0  0  0  0  0  0  0  0  0  0  0
   53.6760   49.8000   13.6980   C 0  0  0  0  0  0  0  0  0  0  0  0
   54.2040   48.9310   12.7500   C 0  0  0  0  0  0  0  0  0  0  0  0
   55.6480   46.7770    9.3860   N 0  0  0  0  0  0  0  0  0  0  0  0
   55.0160   46.0950    8.3370   C 0  0  0  0  0  0  0  0  0  0  0  0
   54.2400   46.5870    7.3270   C 0  0  0  0  0  0  0  0  0  0  0  0
   53.8390   45.5070    6.5200   C 0  0  0  0  0  0  0  0  0  0  0  0
   54.3430   44.4170    7.0110   N 0  0  0  0  0  0  0  0  0  0  0  0
   55.0820   44.7430    8.1500   N 0  0  0  0  0  0  0  0  0  0  0  0
   55.7500   43.7760    8.9090   C 0  0  0  0  0  0  0  0  0  0  0  0
   53.8320   45.9910    4.1080   C 0  0  0  0  0  0  0  0  0  0  0  0
   52.3840   44.1580    5.0340   C 0  0  0  0  0  0  0  0  0  0  0  0
   51.8030   46.5280    5.4910   C 0  0  0  0  0  0  0  0  0  0  0  0
   52.9670   45.5500    5.2890   C 0  0  0  0  0  0  0  0  0  0  0  0
   56.4310   42.7670    8.2300   C 0  0  0  0  0  0  0  0  0  0  0  0
   57.0790   41.7790    8.9380   C 0  0  0  0  0  0  0  0  0  0  0  0
   57.0340   41.7900   10.3270   C 0  0  0  0  0  0  0  0  0  0  0  0
   56.3450   42.7890   11.0040   C 0  0  0  0  0  0  0  0  0  0  0  0
   55.6950   43.7860   10.2950   C 0  0  0  0  0  0  0  0  0  0  0  0
   57.7560   40.7120   11.1040   C 0  0  0  0  0  0  0  0  0  0  0  0
   53.8680   51.8360   14.9470   O 0  0  0  0  0  0  0  0  0  0  0  0
   52.5070   51.6030   15.3470   C 0  0  0  0  0  0  0  0  0  0  0  0
   52.0470   52.8360   16.1360   C 0  0  0  0  0  0  0  0  0  0  0  0
   51.2040   53.7350   15.3300   N 0  0  0  0  0  0  0  0  0  0  0  0
   52.0140   54.3100   14.2390   C 0  0  0  0  0  0  0  0  0  0  0  0
   51.1380   55.2660   13.4220   C 0  0  0  0  0  0  0  0  0  0  0  0
   50.7840   56.3550   14.2750   O 0  0  0  0  0  0  0  0  0  0  0  0
   49.9840   55.8710   15.3710   C 0  0  0  0  0  0  0  0  0  0  0  0
   50.7740   54.8450   16.1980   C 0  0  0  0  0  0  0  0  0  0  0  0
  1  2  2  0  0  0  0
  1  3  1  0  0  0  0
  1 14  1  0  0  0  0
  3  4  1  0  0  0  0
  4  5  2  0  0  0  0
  4 13  1  0  0  0  0
  5  6  1  0  0  0  0
  5  8  1  0  0  0  0
  6  7  2  0  0  0  0
  6 11  1  0  0  0  0
  7 12  1  0  0  0  0
  7 31  1  0  0  0  0
  8  9  2  0  0  0  0
  9 10  1  0  0  0  0
 10 11  2  0  0  0  0
 12 13  2  0  0  0  0
 14 15  1  0  0  0  0
 15 16  2  0  0  0  0
 15 19  1  0  0  0  0
 16 17  1  0  0  0  0
 17 18  2  0  0  0  0
 17 24  1  0  0  0  0
 18 19  1  0  0  0  0
 19 20  1  0  0  0  0
 20 25  2  0  0  0  0
 20 29  1  0  0  0  0
 21 24  1  0  0  0  0
 22 24  1  0  0  0  0
 23 24  1  0  0  0  0
 25 26  1  0  0  0  0
 26 27  2  0  0  0  0
 27 28  1  0  0  0  0
 27 30  1  0  0  0  0
 28 29  2  0  0  0  0
 31 32  1  0  0  0  0
 32 33  1  0  0  0  0
 33 34  1  0  0  0  0
 34 35  1  0  0  0  0
 34 39  1  0  0  0  0
 35 36  1  0  0  0  0
 36 37  1  0  0  0  0
 37 38  1  0  0  0  0
 38 39  1  0  0  0  0
A    1
C1
A    2
O1
A    3
N2
A    4
C3
A    5
C4
A    6
C5
A    7
C6
A    8
C31
A    9
C32
A   10
C33
A   11
C34
A   12
C7
A   13
C8
A   14
N9
A   15
C10
A   16
C14
A   17
C13
A   18
N12
A   19
N11
A   20
C15
A   21
C17
A   22
C18
A   23
C19
A   24
C16
A   25
C20
A   26
C21
A   27
C22
A   28
C23
A   29
C24
A   30
C25
A   31
O41
A   32
C42
A   33
C43
A   34
N44
A   35
C45
A   36
C46
A   37
O47
A   38
C48
A   39
C49
M  END
>  <InstanceId>
3NPC_B96_A_365

>  <ChemCompId>
B96

>  <PdbId>
3NPC

>  <ChainId>
A

>  <ResidueNumber>
365

>  <InsertionCode>


>  <Model>
1

>  <AltIds>


>  <MissingHeavyAtoms>
0

>  <ObservedFormula>
C31 N5 O3

>  <Name>
1-(5-TERT-BUTYL-2-P-TOLYL-2H-PYRAZOL-3-YL)-3-[4-(2-MORPHOLIN-4-YL-ETHOXY)-NAPHTHALEN-1-YL]-UREA

>  <SystematicName>
3-[5-tert-butyl-2-(4-methylphenyl)pyrazol-3-yl]-1-[4-(2-morpholin-4-ylethoxy)naphthalen-1-yl]urea

>  <Synonyms>


>  <Type>
NON-POLYMER

>  <Formula>
C31 H37 N5 O3

>  <MolecularWeight>
527.657

>  <ModifiedDate>
2011-06-04

>  <Parent>


>  <OneLetterCode>


>  <SubcomponentList>


>  <AmbiguousFlag>
N

>  <InChI>
InChI=1S/C31H37N5O3/c1-22-9-11-23(12-10-22)36-29(21-28(34-36)31(2,3)4)33-30(37)32-26-13-14-27(25-8-6-5-7-24(25)26)39-20-17-35-15-18-38-19-16-35/h5-14,21H,15-20H2,1-4H3,(H2,32,33,37)

>  <InChIKey>
MVCOAUNKQVWQHZ-UHFFFAOYSA-N

>  <SMILES>
Cc1ccc(cc1)n2c(cc(n2)C(C)(C)C)NC(=O)Nc3ccc(c4c3cccc4)OCCN5CCOCC5

$$$$
