3NPC_B96_A_365


 41 45  0  0  0  0  0  0  0  0999 V2000
   55.0992   47.8409   10.1968 C   0  0  0  0  0  0  0  0  0  0  0  0
   54.0103   48.3328    9.9734 O   0  0  0  0  0  0  0  0  0  0  0  0
   55.8423   48.2607   11.2474 N   0  0  0  0  0  0  0  0  0  0  0  0
   55.6154   46.8748    9.4137 N   0  0  0  0  0  0  0  0  0  0  0  0
   56.7462   47.8859   11.3563 H   0  0  0  0  0  0  0  0  0  0  0  0
   56.5272   46.5709    9.6272 H   0  0  0  0  0  0  0  0  0  0  0  0
   55.3957   49.2028   12.1929 C   0  0  0  0  0  0  0  0  0  0  0  0
   56.1186   50.3689   12.5018 C   0  0  0  0  0  0  0  0  0  0  0  0
   55.5984   51.2562   13.4946 C   0  0  0  0  0  0  0  0  0  0  0  0
   54.3801   50.9466   14.1616 C   0  0  0  0  0  0  0  0  0  0  0  0
   57.3210   50.6833   11.8412 C   0  0  0  0  0  0  0  0  0  0  0  0
   57.9792   51.8210   12.1584 C   0  0  0  0  0  0  0  0  0  0  0  0
   57.4808   52.6865   13.1344 C   0  0  0  0  0  0  0  0  0  0  0  0
   56.3160   52.4323   13.7937 C   0  0  0  0  0  0  0  0  0  0  0  0
   53.7121   49.7869   13.8494 C   0  0  0  0  0  0  0  0  0  0  0  0
   54.2217   48.9303   12.8802 C   0  0  0  0  0  0  0  0  0  0  0  0
   53.9231   51.8116   15.1136 O   0  0  0  0  0  0  0  0  0  0  0  0
   52.5116   51.7239   15.3716 C   0  0  0  0  0  0  0  0  0  0  0  0
   52.1285   52.9403   16.2249 C   0  0  0  0  0  0  0  0  0  0  0  0
   51.1459   53.8084   15.5546 N   0  0  0  0  0  0  0  0  0  0  0  0
   51.7404   54.3468   14.3162 C   0  0  0  0  0  0  0  0  0  0  0  0
   50.7228   55.2714   13.6390 C   0  0  0  0  0  0  0  0  0  0  0  0
   50.5191   56.3887   14.5044 O   0  0  0  0  0  0  0  0  0  0  0  0
   49.9346   55.9414   15.7428 C   0  0  0  0  0  0  0  0  0  0  0  0
   50.8700   54.9470   16.4477 C   0  0  0  0  0  0  0  0  0  0  0  0
   54.9834   46.2591    8.3245 C   0  0  0  0  0  0  0  0  0  0  0  0
   54.1971   46.8106    7.3540 C   0  0  0  0  0  0  0  0  0  0  0  0
   53.8011   45.7836    6.4782 C   0  0  0  0  0  0  0  0  0  0  0  0
   54.3178   44.6678    6.8920 N   0  0  0  0  0  0  0  0  0  0  0  0
   55.0605   44.9234    8.0465 N   0  0  0  0  0  0  0  0  0  0  0  0
   55.7417   43.9138    8.7351 C   0  0  0  0  0  0  0  0  0  0  0  0
   56.4707   42.9898    7.9884 C   0  0  0  0  0  0  0  0  0  0  0  0
   57.1338   41.9633    8.6239 C   0  0  0  0  0  0  0  0  0  0  0  0
   57.0561   41.8502   10.0069 C   0  0  0  0  0  0  0  0  0  0  0  0
   56.3194   42.7642   10.7505 C   0  0  0  0  0  0  0  0  0  0  0  0
   55.6541   43.7998   10.1148 C   0  0  0  0  0  0  0  0  0  0  0  0
   57.7944   40.7302   10.7051 C   0  0  0  0  0  0  0  0  0  0  0  0
   53.7313   46.5763    4.1504 C   0  0  0  0  0  0  0  0  0  0  0  0
   52.4773   44.5038    4.8185 C   0  0  0  0  0  0  0  0  0  0  0  0
   51.6678   46.7245    5.5779 C   0  0  0  0  0  0  0  0  0  0  0  0
   52.9215   45.9012    5.2575 C   0  0  0  0  0  0  0  0  0  0  0  0
  1  2  2  0  0  0
  1  3  1  0  0  0
  1  4  1  0  0  0
  3  7  1  0  0  0
  7  8  2  0  0  0
  7 16  1  0  0  0
  8  9  1  0  0  0
  8 11  1  0  0  0
  9 10  2  0  0  0
  9 14  1  0  0  0
 10 15  1  0  0  0
 10 17  1  0  0  0
 11 12  2  0  0  0
 12 13  1  0  0  0
 13 14  2  0  0  0
 15 16  2  0  0  0
  4 26  1  0  0  0
 26 27  2  0  0  0
 26 30  1  0  0  0
 27 28  1  0  0  0
 28 29  2  0  0  0
 28 41  1  0  0  0
 29 30  1  0  0  0
 30 31  1  0  0  0
 31 32  2  0  0  0
 31 36  1  0  0  0
 38 41  1  0  0  0
 39 41  1  0  0  0
 40 41  1  0  0  0
 32 33  1  0  0  0
 33 34  2  0  0  0
 34 35  1  0  0  0
 34 37  1  0  0  0
 35 36  2  0  0  0
 17 18  1  0  0  0
 18 19  1  0  0  0
 19 20  1  0  0  0
 20 21  1  0  0  0
 20 25  1  0  0  0
 21 22  1  0  0  0
 22 23  1  0  0  0
 23 24  1  0  0  0
 24 25  1  0  0  0
  3  5  1  0  0  0
  4  6  1  0  0  0
M  END
> <minimizedAffinity>
-14.01802

$$$$
3NPC_B96_A_365


 41 45  0  0  0  0  0  0  0  0999 V2000
   55.1522   46.7423   10.6643 C   0  0  0  0  0  0  0  0  0  0  0  0
   55.5943   46.3374   11.7216 O   0  0  0  0  0  0  0  0  0  0  0  0
   54.6325   47.9884   10.5669 N   0  0  0  0  0  0  0  0  0  0  0  0
   55.1490   45.9765    9.5567 N   0  0  0  0  0  0  0  0  0  0  0  0
   54.2239   48.2557    9.7120 H   0  0  0  0  0  0  0  0  0  0  0  0
   54.7198   46.3563    8.7562 H   0  0  0  0  0  0  0  0  0  0  0  0
   54.6433   48.9234   11.6189 C   0  0  0  0  0  0  0  0  0  0  0  0
   55.7550   49.7382   11.8982 C   0  0  0  0  0  0  0  0  0  0  0  0
   55.6832   50.6418   13.0035 C   0  0  0  0  0  0  0  0  0  0  0  0
   54.5104   50.6953   13.8076 C   0  0  0  0  0  0  0  0  0  0  0  0
   56.9154   49.6940   11.1029 C   0  0  0  0  0  0  0  0  0  0  0  0
   57.9578   50.5032   11.3974 C   0  0  0  0  0  0  0  0  0  0  0  0
   57.8969   51.3809   12.4819 C   0  0  0  0  0  0  0  0  0  0  0  0
   56.7924   51.4689   13.2745 C   0  0  0  0  0  0  0  0  0  0  0  0
   53.4517   49.8681   13.5180 C   0  0  0  0  0  0  0  0  0  0  0  0
   53.5268   48.9944   12.4393 C   0  0  0  0  0  0  0  0  0  0  0  0
   54.4854   51.5609   14.8627 O   0  0  0  0  0  0  0  0  0  0  0  0
   53.7294   52.7617   14.6320 C   0  0  0  0  0  0  0  0  0  0  0  0
   52.6312   52.8209   15.7020 C   0  0  0  0  0  0  0  0  0  0  0  0
   51.4827   53.6411   15.2818 N   0  0  0  0  0  0  0  0  0  0  0  0
   51.7561   54.2108   13.9485 C   0  0  0  0  0  0  0  0  0  0  0  0
   50.5693   55.0857   13.5304 C   0  0  0  0  0  0  0  0  0  0  0  0
   50.5135   56.1898   14.4341 O   0  0  0  0  0  0  0  0  0  0  0  0
   50.2455   55.7116   15.7664 C   0  0  0  0  0  0  0  0  0  0  0  0
   51.3619   54.7629   16.2292 C   0  0  0  0  0  0  0  0  0  0  0  0
   55.6963   44.6922    9.4304 C   0  0  0  0  0  0  0  0  0  0  0  0
   56.2230   43.8767   10.3906 C   0  0  0  0  0  0  0  0  0  0  0  0
   56.6400   42.6855    9.7697 C   0  0  0  0  0  0  0  0  0  0  0  0
   56.3815   42.7703    8.5011 N   0  0  0  0  0  0  0  0  0  0  0  0
   55.7948   44.0121    8.2493 N   0  0  0  0  0  0  0  0  0  0  0  0
   55.4012   44.4057    6.9658 C   0  0  0  0  0  0  0  0  0  0  0  0
   54.3284   43.7384    6.3770 C   0  0  0  0  0  0  0  0  0  0  0  0
   53.9254   44.0750    5.1036 C   0  0  0  0  0  0  0  0  0  0  0  0
   54.6050   45.0698    4.4107 C   0  0  0  0  0  0  0  0  0  0  0  0
   55.6822   45.7269    4.9928 C   0  0  0  0  0  0  0  0  0  0  0  0
   56.0880   45.3930    6.2746 C   0  0  0  0  0  0  0  0  0  0  0  0
   54.1543   45.4475    3.0174 C   0  0  0  0  0  0  0  0  0  0  0  0
   58.0175   40.6950    9.3307 C   0  0  0  0  0  0  0  0  0  0  0  0
   58.2775   41.9626   11.4846 C   0  0  0  0  0  0  0  0  0  0  0  0
   56.2330   40.6083   11.0987 C   0  0  0  0  0  0  0  0  0  0  0  0
   57.2893   41.4868   10.4171 C   0  0  0  0  0  0  0  0  0  0  0  0
  1  2  2  0  0  0
  1  3  1  0  0  0
  1  4  1  0  0  0
  3  7  1  0  0  0
  7  8  2  0  0  0
  7 16  1  0  0  0
  8  9  1  0  0  0
  8 11  1  0  0  0
  9 10  2  0  0  0
  9 14  1  0  0  0
 10 15  1  0  0  0
 10 17  1  0  0  0
 11 12  2  0  0  0
 12 13  1  0  0  0
 13 14  2  0  0  0
 15 16  2  0  0  0
  4 26  1  0  0  0
 26 27  2  0  0  0
 26 30  1  0  0  0
 27 28  1  0  0  0
 28 29  2  0  0  0
 28 41  1  0  0  0
 29 30  1  0  0  0
 30 31  1  0  0  0
 31 32  2  0  0  0
 31 36  1  0  0  0
 38 41  1  0  0  0
 39 41  1  0  0  0
 40 41  1  0  0  0
 32 33  1  0  0  0
 33 34  2  0  0  0
 34 35  1  0  0  0
 34 37  1  0  0  0
 35 36  2  0  0  0
 17 18  1  0  0  0
 18 19  1  0  0  0
 19 20  1  0  0  0
 20 21  1  0  0  0
 20 25  1  0  0  0
 21 22  1  0  0  0
 22 23  1  0  0  0
 23 24  1  0  0  0
 24 25  1  0  0  0
  3  5  1  0  0  0
  4  6  1  0  0  0
M  END
> <minimizedAffinity>
-11.32375

$$$$
