1HI3_A2P_A_999


 34 36  0  0  0  0  0  0  0  0999 V2000
   12.7229   13.2214    5.3881 C   0  0  0  0  0  0  0  0  0  0  0  0
   12.5465   13.5558    6.7957 O   0  0  0  0  0  0  0  0  0  0  0  0
   13.2389   14.5017    4.7475 C   0  0  0  0  0  0  0  0  0  0  0  0
   12.1179   15.3284    4.4625 O   0  0  0  0  0  0  0  0  0  0  0  0
   14.0848   15.0902    5.8720 C   0  0  0  0  0  0  0  0  0  0  0  0
   13.2080   14.7795    7.0870 C   0  0  0  0  0  0  0  0  0  0  0  0
   11.5983   15.4587    5.2712 H   0  0  0  0  0  0  0  0  0  0  0  0
   13.9336   14.6035    8.3486 N   0  0  0  0  0  0  0  0  0  0  0  0
   15.2766   14.3631    8.5496 C   0  0  0  0  0  0  0  0  0  0  0  0
   15.6035   14.2186    9.8128 N   0  0  0  0  0  0  0  0  0  0  0  0
   14.3976   14.3804   10.4907 C   0  0  0  0  0  0  0  0  0  0  0  0
   14.0505   14.3428   11.8728 C   0  0  0  0  0  0  0  0  0  0  0  0
   14.9244   14.1070   12.8542 N   0  0  0  0  0  0  0  0  0  0  0  0
   12.7493   14.5559   12.2059 N   0  0  0  0  0  0  0  0  0  0  0  0
   11.8610   14.7912   11.2230 C   0  0  0  0  0  0  0  0  0  0  0  0
   12.0652   14.8447    9.9019 N   0  0  0  0  0  0  0  0  0  0  0  0
   13.3647   14.6292    9.5992 C   0  0  0  0  0  0  0  0  0  0  0  0
   15.8727   13.9494   12.6416 H   0  0  0  0  0  0  0  0  0  0  0  0
   14.6206   14.0907   13.7905 H   0  0  0  0  0  0  0  0  0  0  0  0
   13.6654   12.0413    5.2732 C   0  0  0  0  0  0  0  0  0  0  0  0
   14.5227   12.2093    4.1241 O   0  0  0  0  0  0  0  0  0  0  0  0
   16.1078   11.8222    4.1861 P   0  0  0  0  0  0  0  0  0  0  0  0
   16.5249   11.5383    2.7461 O   0  0  0  0  0  0  0  0  0  0  0  0
   16.7960   13.0550    4.7638 O   0  0  0  0  0  0  0  0  0  0  0  0
   16.2111   10.5930    5.0861 O   0  0  0  0  0  0  0  0  0  0  0  0
   17.7501   12.8921    4.8287 H   0  0  0  0  0  0  0  0  0  0  0  0
   17.1395   10.3208    5.1563 H   0  0  0  0  0  0  0  0  0  0  0  0
   14.3549   16.4722    5.6691 O   0  0  0  0  0  0  0  0  0  0  0  0
   15.5651   17.0159    4.7187 P   0  0  0  0  0  0  0  0  0  0  0  0
   14.9116   17.6934    3.5249 O   0  0  0  0  0  0  0  0  0  0  0  0
   16.3831   17.9742    5.5686 O   0  0  0  0  0  0  0  0  0  0  0  0
   16.3208   15.7559    4.3450 O   0  0  0  0  0  0  0  0  0  0  0  0
   17.1188   18.3253    5.0429 H   0  0  0  0  0  0  0  0  0  0  0  0
   17.0690   15.9855    3.7721 H   0  0  0  0  0  0  0  0  0  0  0  0
 29 30  2  0  0  0
 29 31  1  0  0  0
 29 32  1  0  0  0
 29 28  1  0  0  0
 22 23  2  0  0  0
 22 24  1  0  0  0
 22 25  1  0  0  0
 22 21  1  0  0  0
 21 20  1  0  0  0
 20  1  1  0  0  0
  1  2  1  0  0  0
  1  3  1  0  0  0
  2  6  1  0  0  0
  3  4  1  0  0  0
  3  5  1  0  0  0
  5 28  1  0  0  0
  5  6  1  0  0  0
  6  8  1  0  0  0
  8  9  1  0  0  0
  8 17  1  0  0  0
  9 10  2  0  0  0
 10 11  1  0  0  0
 11 12  1  0  0  0
 11 17  2  0  0  0
 12 13  1  0  0  0
 12 14  2  0  0  0
 14 15  1  0  0  0
 15 16  2  0  0  0
 16 17  1  0  0  0
 31 33  1  0  0  0
 32 34  1  0  0  0
 24 26  1  0  0  0
 25 27  1  0  0  0
  4  7  1  0  0  0
 13 18  1  0  0  0
 13 19  1  0  0  0
M  END
> <minimizedAffinity>
-7.74805

$$$$
1HI3_A2P_A_999


 34 36  0  0  0  0  0  0  0  0999 V2000
   12.9832   17.7706    5.6316 C   0  0  0  0  0  0  0  0  0  0  0  0
   13.1965   16.6497    4.7247 O   0  0  0  0  0  0  0  0  0  0  0  0
   12.9250   17.1427    7.0166 C   0  0  0  0  0  0  0  0  0  0  0  0
   11.6031   16.6607    7.2209 O   0  0  0  0  0  0  0  0  0  0  0  0
   13.9148   15.9909    6.8750 C   0  0  0  0  0  0  0  0  0  0  0  0
   13.5882   15.5002    5.4630 C   0  0  0  0  0  0  0  0  0  0  0  0
   11.3597   16.0664    6.4940 H   0  0  0  0  0  0  0  0  0  0  0  0
   14.7041   14.8723    4.7492 N   0  0  0  0  0  0  0  0  0  0  0  0
   15.6756   15.4630    3.9687 C   0  0  0  0  0  0  0  0  0  0  0  0
   16.5180   14.6077    3.4376 N   0  0  0  0  0  0  0  0  0  0  0  0
   16.0773   13.3713    3.9034 C   0  0  0  0  0  0  0  0  0  0  0  0
   16.5428   12.0388    3.7040 C   0  0  0  0  0  0  0  0  0  0  0  0
   17.5909   11.7224    2.9400 N   0  0  0  0  0  0  0  0  0  0  0  0
   15.8728   11.0330    4.3278 N   0  0  0  0  0  0  0  0  0  0  0  0
   14.8132   11.3425    5.0972 C   0  0  0  0  0  0  0  0  0  0  0  0
   14.2838   12.5441    5.3530 N   0  0  0  0  0  0  0  0  0  0  0  0
   14.9675   13.5239    4.7212 C   0  0  0  0  0  0  0  0  0  0  0  0
   18.0941   12.4306    2.4769 H   0  0  0  0  0  0  0  0  0  0  0  0
   17.8606   10.7809    2.8399 H   0  0  0  0  0  0  0  0  0  0  0  0
   14.1007   18.7764    5.4480 C   0  0  0  0  0  0  0  0  0  0  0  0
   14.3930   19.4190    6.7071 O   0  0  0  0  0  0  0  0  0  0  0  0
   15.8710   19.3069    7.3921 P   0  0  0  0  0  0  0  0  0  0  0  0
   16.4587   20.7144    7.3496 O   0  0  0  0  0  0  0  0  0  0  0  0
   15.6139   18.8214    8.8153 O   0  0  0  0  0  0  0  0  0  0  0  0
   16.6587   18.3102    6.5449 O   0  0  0  0  0  0  0  0  0  0  0  0
   16.4585   18.7321    9.2840 H   0  0  0  0  0  0  0  0  0  0  0  0
   17.5504   18.2072    6.9125 H   0  0  0  0  0  0  0  0  0  0  0  0
   13.7492   15.0165    7.8983 O   0  0  0  0  0  0  0  0  0  0  0  0
   14.9786   14.4783    8.8270 P   0  0  0  0  0  0  0  0  0  0  0  0
   14.3532   13.6748    9.9559 O   0  0  0  0  0  0  0  0  0  0  0  0
   15.8656   13.6381    7.9231 O   0  0  0  0  0  0  0  0  0  0  0  0
   15.6495   15.7507    9.3058 O   0  0  0  0  0  0  0  0  0  0  0  0
   16.6149   13.2943    8.4342 H   0  0  0  0  0  0  0  0  0  0  0  0
   16.4031   15.5251    9.8732 H   0  0  0  0  0  0  0  0  0  0  0  0
 29 30  2  0  0  0
 29 31  1  0  0  0
 29 32  1  0  0  0
 29 28  1  0  0  0
 22 23  2  0  0  0
 22 24  1  0  0  0
 22 25  1  0  0  0
 22 21  1  0  0  0
 21 20  1  0  0  0
 20  1  1  0  0  0
  1  2  1  0  0  0
  1  3  1  0  0  0
  2  6  1  0  0  0
  3  4  1  0  0  0
  3  5  1  0  0  0
  5 28  1  0  0  0
  5  6  1  0  0  0
  6  8  1  0  0  0
  8  9  1  0  0  0
  8 17  1  0  0  0
  9 10  2  0  0  0
 10 11  1  0  0  0
 11 12  1  0  0  0
 11 17  2  0  0  0
 12 13  1  0  0  0
 12 14  2  0  0  0
 14 15  1  0  0  0
 15 16  2  0  0  0
 16 17  1  0  0  0
 31 33  1  0  0  0
 32 34  1  0  0  0
 24 26  1  0  0  0
 25 27  1  0  0  0
  4  7  1  0  0  0
 13 18  1  0  0  0
 13 19  1  0  0  0
M  END
> <minimizedAffinity>
-7.54426

$$$$
1HI3_A2P_A_999


 34 36  0  0  0  0  0  0  0  0999 V2000
   13.8818   14.1940    9.2851 C   0  0  0  0  0  0  0  0  0  0  0  0
   13.0683   13.5310    8.2736 O   0  0  0  0  0  0  0  0  0  0  0  0
   14.9856   14.8882    8.5006 C   0  0  0  0  0  0  0  0  0  0  0  0
   16.0025   13.9297    8.2387 O   0  0  0  0  0  0  0  0  0  0  0  0
   14.2550   15.2790    7.2200 C   0  0  0  0  0  0  0  0  0  0  0  0
   13.3956   14.0349    6.9856 C   0  0  0  0  0  0  0  0  0  0  0  0
   15.6136   13.1579    7.7982 H   0  0  0  0  0  0  0  0  0  0  0  0
   12.1391   14.2732    6.2689 N   0  0  0  0  0  0  0  0  0  0  0  0
   10.9741   14.8492    6.7303 C   0  0  0  0  0  0  0  0  0  0  0  0
   10.0122   14.8821    5.8375 N   0  0  0  0  0  0  0  0  0  0  0  0
   10.5820   14.2947    4.7105 C   0  0  0  0  0  0  0  0  0  0  0  0
   10.0829   14.0207    3.4036 C   0  0  0  0  0  0  0  0  0  0  0  0
    8.8405   14.3048    3.0060 N   0  0  0  0  0  0  0  0  0  0  0  0
   10.9252   13.4303    2.5139 N   0  0  0  0  0  0  0  0  0  0  0  0
   12.1783   13.1376    2.9071 C   0  0  0  0  0  0  0  0  0  0  0  0
   12.7535   13.3398    4.0979 N   0  0  0  0  0  0  0  0  0  0  0  0
   11.8952   13.9263    4.9618 C   0  0  0  0  0  0  0  0  0  0  0  0
    8.2097   14.7322    3.6295 H   0  0  0  0  0  0  0  0  0  0  0  0
    8.5550   14.0869    2.0894 H   0  0  0  0  0  0  0  0  0  0  0  0
   13.0050   15.1296   10.0914 C   0  0  0  0  0  0  0  0  0  0  0  0
   12.2167   14.3718   11.0336 O   0  0  0  0  0  0  0  0  0  0  0  0
   10.6223   14.1161   10.7916 P   0  0  0  0  0  0  0  0  0  0  0  0
   10.0492   15.4546   10.3356 O   0  0  0  0  0  0  0  0  0  0  0  0
   10.5513   13.0471    9.7055 O   0  0  0  0  0  0  0  0  0  0  0  0
   10.0564   13.6553   12.1329 O   0  0  0  0  0  0  0  0  0  0  0  0
    9.6227   12.8453    9.5107 H   0  0  0  0  0  0  0  0  0  0  0  0
    9.1051   13.4888   12.0425 H   0  0  0  0  0  0  0  0  0  0  0  0
   15.1573   15.5882    6.1643 O   0  0  0  0  0  0  0  0  0  0  0  0
   15.3913   17.1029    5.6037 P   0  0  0  0  0  0  0  0  0  0  0  0
   14.0168   17.7421    5.4875 O   0  0  0  0  0  0  0  0  0  0  0  0
   16.2860   17.8026    6.6135 O   0  0  0  0  0  0  0  0  0  0  0  0
   16.0610   16.8885    4.2607 O   0  0  0  0  0  0  0  0  0  0  0  0
   16.4539   18.7122    6.3211 H   0  0  0  0  0  0  0  0  0  0  0  0
   16.2405   17.7478    3.8480 H   0  0  0  0  0  0  0  0  0  0  0  0
 29 30  2  0  0  0
 29 31  1  0  0  0
 29 32  1  0  0  0
 29 28  1  0  0  0
 22 23  2  0  0  0
 22 24  1  0  0  0
 22 25  1  0  0  0
 22 21  1  0  0  0
 21 20  1  0  0  0
 20  1  1  0  0  0
  1  2  1  0  0  0
  1  3  1  0  0  0
  2  6  1  0  0  0
  3  4  1  0  0  0
  3  5  1  0  0  0
  5 28  1  0  0  0
  5  6  1  0  0  0
  6  8  1  0  0  0
  8  9  1  0  0  0
  8 17  1  0  0  0
  9 10  2  0  0  0
 10 11  1  0  0  0
 11 12  1  0  0  0
 11 17  2  0  0  0
 12 13  1  0  0  0
 12 14  2  0  0  0
 14 15  1  0  0  0
 15 16  2  0  0  0
 16 17  1  0  0  0
 31 33  1  0  0  0
 32 34  1  0  0  0
 24 26  1  0  0  0
 25 27  1  0  0  0
  4  7  1  0  0  0
 13 18  1  0  0  0
 13 19  1  0  0  0
M  END
> <minimizedAffinity>
-7.39573

$$$$
1HI3_A2P_A_999


 34 36  0  0  0  0  0  0  0  0999 V2000
   14.3728   15.3219    3.9592 C   0  0  0  0  0  0  0  0  0  0  0  0
   13.2231   15.1875    4.8449 O   0  0  0  0  0  0  0  0  0  0  0  0
   15.1354   16.5253    4.4944 C   0  0  0  0  0  0  0  0  0  0  0  0
   14.5273   17.6965    3.9652 O   0  0  0  0  0  0  0  0  0  0  0  0
   14.8867   16.4060    5.9945 C   0  0  0  0  0  0  0  0  0  0  0  0
   13.4184   15.9756    6.0113 C   0  0  0  0  0  0  0  0  0  0  0  0
   13.5796   17.6903    4.1720 H   0  0  0  0  0  0  0  0  0  0  0  0
   13.0211   15.1657    7.1668 N   0  0  0  0  0  0  0  0  0  0  0  0
   13.5900   14.0055    7.6486 C   0  0  0  0  0  0  0  0  0  0  0  0
   12.9665   13.5048    8.6897 N   0  0  0  0  0  0  0  0  0  0  0  0
   11.9207   14.3970    8.9138 C   0  0  0  0  0  0  0  0  0  0  0  0
   10.8747   14.4405    9.8814 C   0  0  0  0  0  0  0  0  0  0  0  0
   10.7010   13.5197   10.8324 N   0  0  0  0  0  0  0  0  0  0  0  0
   10.0017   15.4817    9.8253 N   0  0  0  0  0  0  0  0  0  0  0  0
   10.1674   16.4128    8.8680 C   0  0  0  0  0  0  0  0  0  0  0  0
   11.0990   16.4753    7.9099 N   0  0  0  0  0  0  0  0  0  0  0  0
   11.9518   15.4297    7.9885 C   0  0  0  0  0  0  0  0  0  0  0  0
   11.3182   12.7553   10.8961 H   0  0  0  0  0  0  0  0  0  0  0  0
    9.9556   13.6050   11.4698 H   0  0  0  0  0  0  0  0  0  0  0  0
   15.1604   14.0282    3.9694 C   0  0  0  0  0  0  0  0  0  0  0  0
   14.2705   12.9149    4.1977 O   0  0  0  0  0  0  0  0  0  0  0  0
   14.8218   11.4984    4.7944 P   0  0  0  0  0  0  0  0  0  0  0  0
   15.0640   10.6015    3.5840 O   0  0  0  0  0  0  0  0  0  0  0  0
   16.1108   11.8515    5.5300 O   0  0  0  0  0  0  0  0  0  0  0  0
   13.7248   10.9681    5.7147 O   0  0  0  0  0  0  0  0  0  0  0  0
   16.4951   11.0474    5.9130 H   0  0  0  0  0  0  0  0  0  0  0  0
   14.0048   10.1220    6.0974 H   0  0  0  0  0  0  0  0  0  0  0  0
   15.1594   17.6232    6.6788 O   0  0  0  0  0  0  0  0  0  0  0  0
   15.9042   17.6850    8.1296 P   0  0  0  0  0  0  0  0  0  0  0  0
   17.1011   18.6082    7.9665 O   0  0  0  0  0  0  0  0  0  0  0  0
   14.8786   18.2144    9.1183 O   0  0  0  0  0  0  0  0  0  0  0  0
   16.2978   16.2446    8.3918 O   0  0  0  0  0  0  0  0  0  0  0  0
   15.2781   18.2689   10.0005 H   0  0  0  0  0  0  0  0  0  0  0  0
   16.7536   16.1844    9.2460 H   0  0  0  0  0  0  0  0  0  0  0  0
 29 30  2  0  0  0
 29 31  1  0  0  0
 29 32  1  0  0  0
 29 28  1  0  0  0
 22 23  2  0  0  0
 22 24  1  0  0  0
 22 25  1  0  0  0
 22 21  1  0  0  0
 21 20  1  0  0  0
 20  1  1  0  0  0
  1  2  1  0  0  0
  1  3  1  0  0  0
  2  6  1  0  0  0
  3  4  1  0  0  0
  3  5  1  0  0  0
  5 28  1  0  0  0
  5  6  1  0  0  0
  6  8  1  0  0  0
  8  9  1  0  0  0
  8 17  1  0  0  0
  9 10  2  0  0  0
 10 11  1  0  0  0
 11 12  1  0  0  0
 11 17  2  0  0  0
 12 13  1  0  0  0
 12 14  2  0  0  0
 14 15  1  0  0  0
 15 16  2  0  0  0
 16 17  1  0  0  0
 31 33  1  0  0  0
 32 34  1  0  0  0
 24 26  1  0  0  0
 25 27  1  0  0  0
  4  7  1  0  0  0
 13 18  1  0  0  0
 13 19  1  0  0  0
M  END
> <minimizedAffinity>
-7.29303

$$$$
1HI3_A2P_A_999


 34 36  0  0  0  0  0  0  0  0999 V2000
   13.0341   14.6217    5.0631 C   0  0  0  0  0  0  0  0  0  0  0  0
   12.9533   14.1129    6.4266 O   0  0  0  0  0  0  0  0  0  0  0  0
   12.8375   16.1247    5.1983 C   0  0  0  0  0  0  0  0  0  0  0  0
   11.4397   16.3767    5.2631 O   0  0  0  0  0  0  0  0  0  0  0  0
   13.5098   16.4045    6.5385 C   0  0  0  0  0  0  0  0  0  0  0  0
   13.0564   15.1888    7.3494 C   0  0  0  0  0  0  0  0  0  0  0  0
   11.0489   15.8493    5.9772 H   0  0  0  0  0  0  0  0  0  0  0  0
   13.9743   14.7745    8.4147 N   0  0  0  0  0  0  0  0  0  0  0  0
   15.2745   14.3261    8.3125 C   0  0  0  0  0  0  0  0  0  0  0  0
   15.8120   13.9989    9.4646 N   0  0  0  0  0  0  0  0  0  0  0  0
   14.8019   14.2541   10.3891 C   0  0  0  0  0  0  0  0  0  0  0  0
   14.7272   14.1144   11.8057 C   0  0  0  0  0  0  0  0  0  0  0  0
   15.7249   13.6511   12.5622 N   0  0  0  0  0  0  0  0  0  0  0  0
   13.5664   14.4714   12.4179 N   0  0  0  0  0  0  0  0  0  0  0  0
   12.5544   14.9364   11.6628 C   0  0  0  0  0  0  0  0  0  0  0  0
   12.5051   15.1052   10.3366 N   0  0  0  0  0  0  0  0  0  0  0  0
   13.6697   14.7428    9.7543 C   0  0  0  0  0  0  0  0  0  0  0  0
   16.5763   13.3854   12.1453 H   0  0  0  0  0  0  0  0  0  0  0  0
   15.6093   13.5752   13.5369 H   0  0  0  0  0  0  0  0  0  0  0  0
   14.3637   14.2172    4.4609 C   0  0  0  0  0  0  0  0  0  0  0  0
   14.2645   12.8904    3.9013 O   0  0  0  0  0  0  0  0  0  0  0  0
   14.8369   11.5880    4.7029 P   0  0  0  0  0  0  0  0  0  0  0  0
   16.0426   12.0828    5.4965 O   0  0  0  0  0  0  0  0  0  0  0  0
   13.6887   11.1374    5.6007 O   0  0  0  0  0  0  0  0  0  0  0  0
   15.2105   10.5615    3.6360 O   0  0  0  0  0  0  0  0  0  0  0  0
   13.9633   10.3593    6.1107 H   0  0  0  0  0  0  0  0  0  0  0  0
   15.5584    9.7632    4.0632 H   0  0  0  0  0  0  0  0  0  0  0  0
   13.1193   17.6614    7.0789 O   0  0  0  0  0  0  0  0  0  0  0  0
   13.9595   18.4315    8.2470 P   0  0  0  0  0  0  0  0  0  0  0  0
   15.3776   17.8860    8.1961 O   0  0  0  0  0  0  0  0  0  0  0  0
   13.8839   19.9149    7.9254 O   0  0  0  0  0  0  0  0  0  0  0  0
   13.2263   18.0589    9.5205 O   0  0  0  0  0  0  0  0  0  0  0  0
   14.3722   20.4166    8.5968 H   0  0  0  0  0  0  0  0  0  0  0  0
   13.6620   18.4782   10.2790 H   0  0  0  0  0  0  0  0  0  0  0  0
 29 30  2  0  0  0
 29 31  1  0  0  0
 29 32  1  0  0  0
 29 28  1  0  0  0
 22 23  2  0  0  0
 22 24  1  0  0  0
 22 25  1  0  0  0
 22 21  1  0  0  0
 21 20  1  0  0  0
 20  1  1  0  0  0
  1  2  1  0  0  0
  1  3  1  0  0  0
  2  6  1  0  0  0
  3  4  1  0  0  0
  3  5  1  0  0  0
  5 28  1  0  0  0
  5  6  1  0  0  0
  6  8  1  0  0  0
  8  9  1  0  0  0
  8 17  1  0  0  0
  9 10  2  0  0  0
 10 11  1  0  0  0
 11 12  1  0  0  0
 11 17  2  0  0  0
 12 13  1  0  0  0
 12 14  2  0  0  0
 14 15  1  0  0  0
 15 16  2  0  0  0
 16 17  1  0  0  0
 31 33  1  0  0  0
 32 34  1  0  0  0
 24 26  1  0  0  0
 25 27  1  0  0  0
  4  7  1  0  0  0
 13 18  1  0  0  0
 13 19  1  0  0  0
M  END
> <minimizedAffinity>
-7.28182

$$$$
1HI3_A2P_A_999


 34 36  0  0  0  0  0  0  0  0999 V2000
   14.7358   14.0841    7.1263 C   0  0  0  0  0  0  0  0  0  0  0  0
   15.1465   15.4475    7.4377 O   0  0  0  0  0  0  0  0  0  0  0  0
   13.5668   13.8087    8.0609 C   0  0  0  0  0  0  0  0  0  0  0  0
   14.0988   13.4147    9.3192 O   0  0  0  0  0  0  0  0  0  0  0  0
   12.9103   15.1828    8.1470 C   0  0  0  0  0  0  0  0  0  0  0  0
   14.1418   16.0886    8.2119 C   0  0  0  0  0  0  0  0  0  0  0  0
   14.7205   14.0899    9.6330 H   0  0  0  0  0  0  0  0  0  0  0  0
   13.9520   17.4359    7.6662 N   0  0  0  0  0  0  0  0  0  0  0  0
   12.8945   17.9333    6.9339 C   0  0  0  0  0  0  0  0  0  0  0  0
   13.0509   19.1828    6.5629 N   0  0  0  0  0  0  0  0  0  0  0  0
   14.2906   19.5354    7.0905 C   0  0  0  0  0  0  0  0  0  0  0  0
   15.0520   20.7400    7.0539 C   0  0  0  0  0  0  0  0  0  0  0  0
   14.6599   21.8502    6.4247 N   0  0  0  0  0  0  0  0  0  0  0  0
   16.2509   20.7522    7.6960 N   0  0  0  0  0  0  0  0  0  0  0  0
   16.6555   19.6366    8.3301 C   0  0  0  0  0  0  0  0  0  0  0  0
   16.0360   18.4549    8.4280 N   0  0  0  0  0  0  0  0  0  0  0  0
   14.8491   18.4704    7.7815 C   0  0  0  0  0  0  0  0  0  0  0  0
   13.7966   21.8693    5.9519 H   0  0  0  0  0  0  0  0  0  0  0  0
   15.2340   22.6499    6.4336 H   0  0  0  0  0  0  0  0  0  0  0  0
   14.3932   13.9935    5.6537 C   0  0  0  0  0  0  0  0  0  0  0  0
   15.1133   12.8979    5.0498 O   0  0  0  0  0  0  0  0  0  0  0  0
   14.3365   11.5620    4.5227 P   0  0  0  0  0  0  0  0  0  0  0  0
   15.4086   10.6754    3.8961 O   0  0  0  0  0  0  0  0  0  0  0  0
   13.7192   10.9417    5.7723 O   0  0  0  0  0  0  0  0  0  0  0  0
   13.2999   12.0437    3.5102 O   0  0  0  0  0  0  0  0  0  0  0  0
   13.2377   10.1356    5.5290 H   0  0  0  0  0  0  0  0  0  0  0  0
   12.8076   11.2827    3.1645 H   0  0  0  0  0  0  0  0  0  0  0  0
   12.0342   15.2863    9.2633 O   0  0  0  0  0  0  0  0  0  0  0  0
   10.5931   14.5244    9.3416 P   0  0  0  0  0  0  0  0  0  0  0  0
    9.6854   15.3947   10.1960 O   0  0  0  0  0  0  0  0  0  0  0  0
   10.1020   14.3832    7.9103 O   0  0  0  0  0  0  0  0  0  0  0  0
   10.9251   13.1960    9.9923 O   0  0  0  0  0  0  0  0  0  0  0  0
    9.2427   13.9331    7.9062 H   0  0  0  0  0  0  0  0  0  0  0  0
   10.1161   12.6682   10.0808 H   0  0  0  0  0  0  0  0  0  0  0  0
 29 30  2  0  0  0
 29 31  1  0  0  0
 29 32  1  0  0  0
 29 28  1  0  0  0
 22 23  2  0  0  0
 22 24  1  0  0  0
 22 25  1  0  0  0
 22 21  1  0  0  0
 21 20  1  0  0  0
 20  1  1  0  0  0
  1  2  1  0  0  0
  1  3  1  0  0  0
  2  6  1  0  0  0
  3  4  1  0  0  0
  3  5  1  0  0  0
  5 28  1  0  0  0
  5  6  1  0  0  0
  6  8  1  0  0  0
  8  9  1  0  0  0
  8 17  1  0  0  0
  9 10  2  0  0  0
 10 11  1  0  0  0
 11 12  1  0  0  0
 11 17  2  0  0  0
 12 13  1  0  0  0
 12 14  2  0  0  0
 14 15  1  0  0  0
 15 16  2  0  0  0
 16 17  1  0  0  0
 31 33  1  0  0  0
 32 34  1  0  0  0
 24 26  1  0  0  0
 25 27  1  0  0  0
  4  7  1  0  0  0
 13 18  1  0  0  0
 13 19  1  0  0  0
M  END
> <minimizedAffinity>
-7.21375

$$$$
1HI3_A2P_A_999


 34 36  0  0  0  0  0  0  0  0999 V2000
   14.6069   14.1248    7.5131 C   0  0  0  0  0  0  0  0  0  0  0  0
   14.5671   15.5711    7.6896 O   0  0  0  0  0  0  0  0  0  0  0  0
   13.9373   13.5639    8.7592 C   0  0  0  0  0  0  0  0  0  0  0  0
   14.9124   13.5151    9.7928 O   0  0  0  0  0  0  0  0  0  0  0  0
   12.8824   14.6272    9.0478 C   0  0  0  0  0  0  0  0  0  0  0  0
   13.6658   15.9042    8.7367 C   0  0  0  0  0  0  0  0  0  0  0  0
   15.3096   14.3930    9.9043 H   0  0  0  0  0  0  0  0  0  0  0  0
   12.8536   17.0363    8.2808 N   0  0  0  0  0  0  0  0  0  0  0  0
   12.5844   17.4463    6.9918 C   0  0  0  0  0  0  0  0  0  0  0  0
   11.8450   18.5290    6.9261 N   0  0  0  0  0  0  0  0  0  0  0  0
   11.6050   18.8514    8.2596 C   0  0  0  0  0  0  0  0  0  0  0  0
   10.8772   19.9050    8.8859 C   0  0  0  0  0  0  0  0  0  0  0  0
   10.2444   20.8725    8.2182 N   0  0  0  0  0  0  0  0  0  0  0  0
   10.8316   19.9238   10.2450 N   0  0  0  0  0  0  0  0  0  0  0  0
   11.4693   18.9543   10.9262 C   0  0  0  0  0  0  0  0  0  0  0  0
   12.1829   17.9262   10.4534 N   0  0  0  0  0  0  0  0  0  0  0  0
   12.2122   17.9320    9.1021 C   0  0  0  0  0  0  0  0  0  0  0  0
   10.2610   20.8834    7.2339 H   0  0  0  0  0  0  0  0  0  0  0  0
    9.7612   21.5752    8.7101 H   0  0  0  0  0  0  0  0  0  0  0  0
   13.9137   13.7644    6.2155 C   0  0  0  0  0  0  0  0  0  0  0  0
   14.8257   13.0489    5.3553 O   0  0  0  0  0  0  0  0  0  0  0  0
   14.4672   11.5580    4.7941 P   0  0  0  0  0  0  0  0  0  0  0  0
   15.8070   10.8658    4.5622 O   0  0  0  0  0  0  0  0  0  0  0  0
   13.6517   10.9009    5.9034 O   0  0  0  0  0  0  0  0  0  0  0  0
   13.6773   11.7671    3.5041 O   0  0  0  0  0  0  0  0  0  0  0  0
   13.4030   10.0031    5.6334 H   0  0  0  0  0  0  0  0  0  0  0  0
   13.4383   10.9054    3.1281 H   0  0  0  0  0  0  0  0  0  0  0  0
   12.3877   14.5402   10.3789 O   0  0  0  0  0  0  0  0  0  0  0  0
   10.8147   14.2876   10.7327 P   0  0  0  0  0  0  0  0  0  0  0  0
   10.7210   14.1719   12.2457 O   0  0  0  0  0  0  0  0  0  0  0  0
   10.0521   15.4813   10.1819 O   0  0  0  0  0  0  0  0  0  0  0  0
   10.4904   12.9908   10.0176 O   0  0  0  0  0  0  0  0  0  0  0  0
    9.1064   15.3754   10.3695 H   0  0  0  0  0  0  0  0  0  0  0  0
    9.5616   12.7588   10.1741 H   0  0  0  0  0  0  0  0  0  0  0  0
 29 30  2  0  0  0
 29 31  1  0  0  0
 29 32  1  0  0  0
 29 28  1  0  0  0
 22 23  2  0  0  0
 22 24  1  0  0  0
 22 25  1  0  0  0
 22 21  1  0  0  0
 21 20  1  0  0  0
 20  1  1  0  0  0
  1  2  1  0  0  0
  1  3  1  0  0  0
  2  6  1  0  0  0
  3  4  1  0  0  0
  3  5  1  0  0  0
  5 28  1  0  0  0
  5  6  1  0  0  0
  6  8  1  0  0  0
  8  9  1  0  0  0
  8 17  1  0  0  0
  9 10  2  0  0  0
 10 11  1  0  0  0
 11 12  1  0  0  0
 11 17  2  0  0  0
 12 13  1  0  0  0
 12 14  2  0  0  0
 14 15  1  0  0  0
 15 16  2  0  0  0
 16 17  1  0  0  0
 31 33  1  0  0  0
 32 34  1  0  0  0
 24 26  1  0  0  0
 25 27  1  0  0  0
  4  7  1  0  0  0
 13 18  1  0  0  0
 13 19  1  0  0  0
M  END
> <minimizedAffinity>
-7.10202

$$$$
1HI3_A2P_A_999


 34 36  0  0  0  0  0  0  0  0999 V2000
   12.3563   15.2770    7.7684 C   0  0  0  0  0  0  0  0  0  0  0  0
   13.4895   15.6687    6.9396 O   0  0  0  0  0  0  0  0  0  0  0  0
   11.2030   15.1035    6.7908 C   0  0  0  0  0  0  0  0  0  0  0  0
   10.6439   16.3874    6.5450 O   0  0  0  0  0  0  0  0  0  0  0  0
   11.9228   14.5712    5.5558 C   0  0  0  0  0  0  0  0  0  0  0  0
   13.1935   15.4235    5.5713 C   0  0  0  0  0  0  0  0  0  0  0  0
   11.3415   16.9924    6.2482 H   0  0  0  0  0  0  0  0  0  0  0  0
   14.3717   14.7941    4.9674 N   0  0  0  0  0  0  0  0  0  0  0  0
   15.4147   15.3837    4.2843 C   0  0  0  0  0  0  0  0  0  0  0  0
   16.3027   14.5273    3.8357 N   0  0  0  0  0  0  0  0  0  0  0  0
   15.8170   13.2913    4.2557 C   0  0  0  0  0  0  0  0  0  0  0  0
   16.2971   11.9581    4.1005 C   0  0  0  0  0  0  0  0  0  0  0  0
   17.4131   11.6404    3.4404 N   0  0  0  0  0  0  0  0  0  0  0  0
   15.5685   10.9530    4.6560 N   0  0  0  0  0  0  0  0  0  0  0  0
   14.4405   11.2638    5.3205 C   0  0  0  0  0  0  0  0  0  0  0  0
   13.8911   12.4662    5.5255 N   0  0  0  0  0  0  0  0  0  0  0  0
   14.6341   13.4453    4.9633 C   0  0  0  0  0  0  0  0  0  0  0  0
   17.9598   12.3480    3.0284 H   0  0  0  0  0  0  0  0  0  0  0  0
   17.6896   10.6984    3.3656 H   0  0  0  0  0  0  0  0  0  0  0  0
   12.7157   14.0237    8.5393 C   0  0  0  0  0  0  0  0  0  0  0  0
   11.5780   13.5784    9.3080 O   0  0  0  0  0  0  0  0  0  0  0  0
   11.2116   14.2550   10.7482 P   0  0  0  0  0  0  0  0  0  0  0  0
   12.5480   14.5564   11.4201 O   0  0  0  0  0  0  0  0  0  0  0  0
   10.4289   15.5190   10.4061 O   0  0  0  0  0  0  0  0  0  0  0  0
   10.3867   13.2187   11.5081 O   0  0  0  0  0  0  0  0  0  0  0  0
   10.1771   15.9749   11.2245 H   0  0  0  0  0  0  0  0  0  0  0  0
   10.1419   13.5742   12.3767 H   0  0  0  0  0  0  0  0  0  0  0  0
   11.1319   14.7009    4.3803 O   0  0  0  0  0  0  0  0  0  0  0  0
   10.7169   13.4343    3.4385 P   0  0  0  0  0  0  0  0  0  0  0  0
   10.0269   14.0101    2.2123 O   0  0  0  0  0  0  0  0  0  0  0  0
   12.0076   12.7051    3.1037 O   0  0  0  0  0  0  0  0  0  0  0  0
    9.7847   12.6244    4.3179 O   0  0  0  0  0  0  0  0  0  0  0  0
   11.8100   11.9396    2.5417 H   0  0  0  0  0  0  0  0  0  0  0  0
    9.4833   11.8400    3.8333 H   0  0  0  0  0  0  0  0  0  0  0  0
 29 30  2  0  0  0
 29 31  1  0  0  0
 29 32  1  0  0  0
 29 28  1  0  0  0
 22 23  2  0  0  0
 22 24  1  0  0  0
 22 25  1  0  0  0
 22 21  1  0  0  0
 21 20  1  0  0  0
 20  1  1  0  0  0
  1  2  1  0  0  0
  1  3  1  0  0  0
  2  6  1  0  0  0
  3  4  1  0  0  0
  3  5  1  0  0  0
  5 28  1  0  0  0
  5  6  1  0  0  0
  6  8  1  0  0  0
  8  9  1  0  0  0
  8 17  1  0  0  0
  9 10  2  0  0  0
 10 11  1  0  0  0
 11 12  1  0  0  0
 11 17  2  0  0  0
 12 13  1  0  0  0
 12 14  2  0  0  0
 14 15  1  0  0  0
 15 16  2  0  0  0
 16 17  1  0  0  0
 31 33  1  0  0  0
 32 34  1  0  0  0
 24 26  1  0  0  0
 25 27  1  0  0  0
  4  7  1  0  0  0
 13 18  1  0  0  0
 13 19  1  0  0  0
M  END
> <minimizedAffinity>
-7.07736

$$$$
1HI3_A2P_A_999


 34 36  0  0  0  0  0  0  0  0999 V2000
   12.1946   14.6980    7.4243 C   0  0  0  0  0  0  0  0  0  0  0  0
   12.5474   16.1086    7.3224 O   0  0  0  0  0  0  0  0  0  0  0  0
   12.7749   14.0620    6.1695 C   0  0  0  0  0  0  0  0  0  0  0  0
   11.8504   14.2685    5.1093 O   0  0  0  0  0  0  0  0  0  0  0  0
   14.0416   14.8863    5.9633 C   0  0  0  0  0  0  0  0  0  0  0  0
   13.5368   16.2866    6.3179 C   0  0  0  0  0  0  0  0  0  0  0  0
   11.6533   15.2151    5.0320 H   0  0  0  0  0  0  0  0  0  0  0  0
   14.5539   17.1974    6.8519 N   0  0  0  0  0  0  0  0  0  0  0  0
   15.6418   16.9098    7.6492 C   0  0  0  0  0  0  0  0  0  0  0  0
   16.3434   17.9671    7.9859 N   0  0  0  0  0  0  0  0  0  0  0  0
   15.6782   19.0213    7.3647 C   0  0  0  0  0  0  0  0  0  0  0  0
   15.9136   20.4267    7.3254 C   0  0  0  0  0  0  0  0  0  0  0  0
   16.9196   21.0315    7.9614 N   0  0  0  0  0  0  0  0  0  0  0  0
   15.0566   21.1933    6.5990 N   0  0  0  0  0  0  0  0  0  0  0  0
   14.0379   20.5924    5.9573 C   0  0  0  0  0  0  0  0  0  0  0  0
   13.7148   19.2946    5.9249 N   0  0  0  0  0  0  0  0  0  0  0  0
   14.5812   18.5570    6.6544 C   0  0  0  0  0  0  0  0  0  0  0  0
   17.5549   20.5009    8.4944 H   0  0  0  0  0  0  0  0  0  0  0  0
   17.0262   22.0081    7.8973 H   0  0  0  0  0  0  0  0  0  0  0  0
   12.7471   14.1411    8.7199 C   0  0  0  0  0  0  0  0  0  0  0  0
   11.6773   13.5718    9.5040 O   0  0  0  0  0  0  0  0  0  0  0  0
   11.2017   14.2537   10.9094 P   0  0  0  0  0  0  0  0  0  0  0  0
   12.4821   14.5464   11.6859 O   0  0  0  0  0  0  0  0  0  0  0  0
   10.4583   15.5228   10.5042 O   0  0  0  0  0  0  0  0  0  0  0  0
   10.3109   13.2248   11.6020 O   0  0  0  0  0  0  0  0  0  0  0  0
   10.1452   15.9819   11.2992 H   0  0  0  0  0  0  0  0  0  0  0  0
    9.9999   13.5836   12.4478 H   0  0  0  0  0  0  0  0  0  0  0  0
   14.5550   14.7539    4.6431 O   0  0  0  0  0  0  0  0  0  0  0  0
   15.7783   13.7447    4.2572 P   0  0  0  0  0  0  0  0  0  0  0  0
   15.2603   12.8321    3.1572 O   0  0  0  0  0  0  0  0  0  0  0  0
   16.9336   14.6218    3.8037 O   0  0  0  0  0  0  0  0  0  0  0  0
   16.0594   13.0106    5.5534 O   0  0  0  0  0  0  0  0  0  0  0  0
   17.6887   14.0626    3.5625 H   0  0  0  0  0  0  0  0  0  0  0  0
   16.7835   12.3797    5.4172 H   0  0  0  0  0  0  0  0  0  0  0  0
 29 30  2  0  0  0
 29 31  1  0  0  0
 29 32  1  0  0  0
 29 28  1  0  0  0
 22 23  2  0  0  0
 22 24  1  0  0  0
 22 25  1  0  0  0
 22 21  1  0  0  0
 21 20  1  0  0  0
 20  1  1  0  0  0
  1  2  1  0  0  0
  1  3  1  0  0  0
  2  6  1  0  0  0
  3  4  1  0  0  0
  3  5  1  0  0  0
  5 28  1  0  0  0
  5  6  1  0  0  0
  6  8  1  0  0  0
  8  9  1  0  0  0
  8 17  1  0  0  0
  9 10  2  0  0  0
 10 11  1  0  0  0
 11 12  1  0  0  0
 11 17  2  0  0  0
 12 13  1  0  0  0
 12 14  2  0  0  0
 14 15  1  0  0  0
 15 16  2  0  0  0
 16 17  1  0  0  0
 31 33  1  0  0  0
 32 34  1  0  0  0
 24 26  1  0  0  0
 25 27  1  0  0  0
  4  7  1  0  0  0
 13 18  1  0  0  0
 13 19  1  0  0  0
M  END
> <minimizedAffinity>
-6.96218

$$$$
1HI3_A2P_A_999


 34 36  0  0  0  0  0  0  0  0999 V2000
   13.0770   15.2838    8.3078 C   0  0  0  0  0  0  0  0  0  0  0  0
   14.2677   15.2683    7.4672 O   0  0  0  0  0  0  0  0  0  0  0  0
   11.9135   15.3601    7.3298 C   0  0  0  0  0  0  0  0  0  0  0  0
   11.7374   16.7238    6.9683 O   0  0  0  0  0  0  0  0  0  0  0  0
   12.4434   14.5436    6.1555 C   0  0  0  0  0  0  0  0  0  0  0  0
   13.9031   15.0012    6.1198 C   0  0  0  0  0  0  0  0  0  0  0  0
   12.5750   17.0801    6.6330 H   0  0  0  0  0  0  0  0  0  0  0  0
   14.8507   14.0162    5.5897 N   0  0  0  0  0  0  0  0  0  0  0  0
   15.2326   12.8048    6.1268 C   0  0  0  0  0  0  0  0  0  0  0  0
   16.1358   12.1727    5.4140 N   0  0  0  0  0  0  0  0  0  0  0  0
   16.3601   13.0200    4.3315 C   0  0  0  0  0  0  0  0  0  0  0  0
   17.2167   12.9343    3.1953 C   0  0  0  0  0  0  0  0  0  0  0  0
   18.0478   11.9154    2.9642 N   0  0  0  0  0  0  0  0  0  0  0  0
   17.1849   13.9563    2.2985 N   0  0  0  0  0  0  0  0  0  0  0  0
   16.3524   14.9889    2.5251 C   0  0  0  0  0  0  0  0  0  0  0  0
   15.5133   15.1817    3.5490 N   0  0  0  0  0  0  0  0  0  0  0  0
   15.5655   14.1529    4.4241 C   0  0  0  0  0  0  0  0  0  0  0  0
   18.0913   11.1623    3.5969 H   0  0  0  0  0  0  0  0  0  0  0  0
   18.6173   11.9171    2.1611 H   0  0  0  0  0  0  0  0  0  0  0  0
   13.0745   14.0503    9.1867 C   0  0  0  0  0  0  0  0  0  0  0  0
   11.7440   13.8127    9.6936 O   0  0  0  0  0  0  0  0  0  0  0  0
   11.2549   14.4442   11.1177 P   0  0  0  0  0  0  0  0  0  0  0  0
   10.2374   13.4583   11.6843 O   0  0  0  0  0  0  0  0  0  0  0  0
   12.5188   14.5357   11.9672 O   0  0  0  0  0  0  0  0  0  0  0  0
   10.6436   15.8052   10.7927 O   0  0  0  0  0  0  0  0  0  0  0  0
   12.2983   14.9067   12.8360 H   0  0  0  0  0  0  0  0  0  0  0  0
   10.3352   16.2249   11.6110 H   0  0  0  0  0  0  0  0  0  0  0  0
   11.7115   14.7906    4.9607 O   0  0  0  0  0  0  0  0  0  0  0  0
   11.6763   13.7507    3.7034 P   0  0  0  0  0  0  0  0  0  0  0  0
   10.2283   13.6656    3.2481 O   0  0  0  0  0  0  0  0  0  0  0  0
   12.5979   14.3274    2.6414 O   0  0  0  0  0  0  0  0  0  0  0  0
   12.1885   12.4532    4.2972 O   0  0  0  0  0  0  0  0  0  0  0  0
   12.6094   13.7398    1.8696 H   0  0  0  0  0  0  0  0  0  0  0  0
   12.2023   11.7671    3.6116 H   0  0  0  0  0  0  0  0  0  0  0  0
 29 30  2  0  0  0
 29 31  1  0  0  0
 29 32  1  0  0  0
 29 28  1  0  0  0
 22 23  2  0  0  0
 22 24  1  0  0  0
 22 25  1  0  0  0
 22 21  1  0  0  0
 21 20  1  0  0  0
 20  1  1  0  0  0
  1  2  1  0  0  0
  1  3  1  0  0  0
  2  6  1  0  0  0
  3  4  1  0  0  0
  3  5  1  0  0  0
  5 28  1  0  0  0
  5  6  1  0  0  0
  6  8  1  0  0  0
  8  9  1  0  0  0
  8 17  1  0  0  0
  9 10  2  0  0  0
 10 11  1  0  0  0
 11 12  1  0  0  0
 11 17  2  0  0  0
 12 13  1  0  0  0
 12 14  2  0  0  0
 14 15  1  0  0  0
 15 16  2  0  0  0
 16 17  1  0  0  0
 31 33  1  0  0  0
 32 34  1  0  0  0
 24 26  1  0  0  0
 25 27  1  0  0  0
  4  7  1  0  0  0
 13 18  1  0  0  0
 13 19  1  0  0  0
M  END
> <minimizedAffinity>
-6.93272

$$$$
