1HI3_A2P_A_999
  RCSB PDB12061702433D
Coordinates from PDB:1HI3:A:999 Model:1 without hydrogens
 27 29  0  0  0  0            999 V2000
   14.8530   14.4520    9.7070   P 0  0  0  0  0  0  0  0  0  0  0  0
   14.2360   15.2030   10.8760   O 0  0  0  0  0  0  0  0  0  0  0  0
   13.8430   13.6100    8.9450   O 0  0  0  0  0  0  0  0  0  0  0  0
   16.1030   13.6840   10.0890   O 0  0  0  0  0  0  0  0  0  0  0  0
   10.3480   16.8950    7.2600   P 0  0  0  0  0  0  0  0  0  0  0  0
   10.1840   16.3180    8.6630   O 0  0  0  0  0  0  0  0  0  0  0  0
    9.6100   18.2180    7.0800   O 0  0  0  0  0  0  0  0  0  0  0  0
   10.0450   15.8780    6.1620   O 0  0  0  0  0  0  0  0  0  0  0  0
   11.9310   17.2670    7.1120   O 0  0  0  0  0  0  0  0  0  0  0  0
   12.5150   17.5560    5.8240   C 0  0  0  0  0  0  0  0  0  0  0  0
   14.0250   17.5840    5.9390   C 0  0  0  0  0  0  0  0  0  0  0  0
   14.4100   18.5880    6.9230   O 0  0  0  0  0  0  0  0  0  0  0  0
   14.6400   16.2880    6.4470   C 0  0  0  0  0  0  0  0  0  0  0  0
   15.9970   16.2550    6.0240   O 0  0  0  0  0  0  0  0  0  0  0  0
   14.5390   16.4700    7.9580   C 0  0  0  0  0  0  0  0  0  0  0  0
   15.3980   15.5800    8.6610   O 0  0  0  0  0  0  0  0  0  0  0  0
   14.8980   17.9510    8.0960   C 0  0  0  0  0  0  0  0  0  0  0  0
   14.3030   18.6300    9.2510   N 0  0  0  0  0  0  0  0  0  0  0  0
   13.1070   18.3710    9.8870   C 0  0  0  0  0  0  0  0  0  0  0  0
   12.8470   19.1930   10.8770   N 0  0  0  0  0  0  0  0  0  0  0  0
   13.9470   20.0470   10.9000   C 0  0  0  0  0  0  0  0  0  0  0  0
   14.2940   21.1580   11.7230   C 0  0  0  0  0  0  0  0  0  0  0  0
   13.5260   21.6210   12.7120   N 0  0  0  0  0  0  0  0  0  0  0  0
   15.4770   21.7830   11.4790   N 0  0  0  0  0  0  0  0  0  0  0  0
   16.2560   21.3250   10.4820   C 0  0  0  0  0  0  0  0  0  0  0  0
   16.0360   20.3040    9.6460   N 0  0  0  0  0  0  0  0  0  0  0  0
   14.8550   19.7020    9.9100   C 0  0  0  0  0  0  0  0  0  0  0  0
  1  2  2  0  0  0  0
  1  3  1  0  0  0  0
  1  4  1  0  0  0  0
  1 16  1  0  0  0  0
  5  6  2  0  0  0  0
  5  7  1  0  0  0  0
  5  8  1  0  0  0  0
  5  9  1  0  0  0  0
  9 10  1  0  0  0  0
 10 11  1  0  0  0  0
 11 12  1  0  0  0  0
 11 13  1  0  0  0  0
 12 17  1  0  0  0  0
 13 14  1  0  0  0  0
 13 15  1  0  0  0  0
 15 16  1  0  0  0  0
 15 17  1  0  0  0  0
 17 18  1  0  0  0  0
 18 19  1  0  0  0  0
 18 27  1  0  0  0  0
 19 20  2  0  0  0  0
 20 21  1  0  0  0  0
 21 22  1  0  0  0  0
 21 27  2  0  0  0  0
 22 23  1  0  0  0  0
 22 24  2  0  0  0  0
 24 25  1  0  0  0  0
 25 26  2  0  0  0  0
 26 27  1  0  0  0  0
A    1
P1
A    2
O1P
A    3
O2P
A    4
O3P
A    5
P2
A    6
O4P
A    7
O5P
A    8
O6P
A    9
O5'
A   10
C5'
A   11
C4'
A   12
O4'
A   13
C3'
A   14
O3'
A   15
C2'
A   16
O2'
A   17
C1'
A   18
N9
A   19
C8
A   20
N7
A   21
C5
A   22
C6
A   23
N6
A   24
N1
A   25
C2
A   26
N3
A   27
C4
M  END
>  <InstanceId>
1HI3_A2P_A_999

>  <ChemCompId>
A2P

>  <PdbId>
1HI3

>  <ChainId>
A

>  <ResidueNumber>
999

>  <InsertionCode>


>  <Model>
1

>  <AltIds>


>  <MissingHeavyAtoms>
0

>  <ObservedFormula>
C10 N5 O10 P2

>  <Name>
ADENOSINE-2'-5'-DIPHOSPHATE

>  <SystematicName>
[(2R,3R,4R,5R)-2-(6-aminopurin-9-yl)-4-hydroxy-5-(phosphonooxymethyl)oxolan-3-yl] dihydrogen phosphate

>  <Synonyms>


>  <Type>
NON-POLYMER

>  <Formula>
C10 H15 N5 O10 P2

>  <MolecularWeight>
427.201

>  <ModifiedDate>
2011-06-04

>  <Parent>


>  <OneLetterCode>


>  <SubcomponentList>


>  <AmbiguousFlag>
N

>  <InChI>
InChI=1S/C10H15N5O10P2/c11-8-5-9(13-2-12-8)15(3-14-5)10-7(25-27(20,21)22)6(16)4(24-10)1-23-26(17,18)19/h2-4,6-7,10,16H,1H2,(H2,11,12,13)(H2,17,18,19)(H2,20,21,22)/t4-,6-,7-,10-/m1/s1

>  <InChIKey>
AEOBEOJCBAYXBA-KQYNXXCUSA-N

>  <SMILES>
c1nc(c2c(n1)n(cn2)[C@H]3[C@@H]([C@@H]([C@H](O3)COP(=O)(O)O)O)OP(=O)(O)O)N

$$$$
