4MNP_SLB_A_401
  RCSB PDB12061713453D
Coordinates from PDB:4MNP:A:401 Model:1 without hydrogens
 21 21  0  0  0  0            999 V2000
   22.4830   28.2630   40.7160   C 0  0  0  0  0  0  0  0  0  0  0  0
   21.8660   26.9580   41.0130   C 0  0  0  0  0  0  0  0  0  0  0  0
   22.8490   25.9460   41.2720   C 0  0  0  0  0  0  0  0  0  0  0  0
   22.3470   24.6090   41.3370   C 0  0  0  0  0  0  0  0  0  0  0  0
   21.5150   24.2590   40.2070   C 0  0  0  0  0  0  0  0  0  0  0  0
   20.3700   25.2270   39.9500   C 0  0  0  0  0  0  0  0  0  0  0  0
   19.7020   24.9790   38.7400   C 0  0  0  0  0  0  0  0  0  0  0  0
   18.6590   26.0860   38.5180   C 0  0  0  0  0  0  0  0  0  0  0  0
   17.7580   25.7190   37.3870   C 0  0  0  0  0  0  0  0  0  0  0  0
   21.4070   21.7770   39.6410   C 0  0  0  0  0  0  0  0  0  0  0  0
   20.8160   20.4460   39.8820   C 0  0  0  0  0  0  0  0  0  0  0  0
   20.9400   22.9220   40.4280   N 0  0  0  0  0  0  0  0  0  0  0  0
   23.1500   28.4150   39.6640   O 0  0  0  0  0  0  0  0  0  0  0  0
   22.3410   29.2360   41.5100   O 0  0  0  0  0  0  0  0  0  0  0  0
   21.1470   27.1260   42.1850   O 0  0  0  0  0  0  0  0  0  0  0  0
   23.4400   23.6690   41.4940   O 0  0  0  0  0  0  0  0  0  0  0  0
   20.9080   26.6230   39.9810   O 0  0  0  0  0  0  0  0  0  0  0  0
   20.6210   25.0130   37.6790   O 0  0  0  0  0  0  0  0  0  0  0  0
   17.9270   26.2310   39.6500   O 0  0  0  0  0  0  0  0  0  0  0  0
   16.9420   24.6160   37.5580   O 0  0  0  0  0  0  0  0  0  0  0  0
   22.2940   21.9200   38.7780   O 0  0  0  0  0  0  0  0  0  0  0  0
  1  2  1  0  0  0  0
  1 13  2  0  0  0  0
  1 14  1  0  0  0  0
  2  3  1  0  0  0  0
  2 15  1  0  0  0  0
  2 17  1  0  0  0  0
  3  4  1  0  0  0  0
  4  5  1  0  0  0  0
  4 16  1  0  0  0  0
  5  6  1  0  0  0  0
  5 12  1  0  0  0  0
  6  7  1  0  0  0  0
  6 17  1  0  0  0  0
  7  8  1  0  0  0  0
  7 18  1  0  0  0  0
  8  9  1  0  0  0  0
  8 19  1  0  0  0  0
  9 20  1  0  0  0  0
 10 11  1  0  0  0  0
 10 12  1  0  0  0  0
 10 21  2  0  0  0  0
A    1
C1
A    2
C2
A    3
C3
A    4
C4
A    5
C5
A    6
C6
A    7
C7
A    8
C8
A    9
C9
A   10
C10
A   11
C11
A   12
N5
A   13
O1A
A   14
O1B
A   15
O2
A   16
O4
A   17
O6
A   18
O7
A   19
O8
A   20
O9
A   21
O10
M  END
>  <InstanceId>
4MNP_SLB_A_401

>  <ChemCompId>
SLB

>  <PdbId>
4MNP

>  <ChainId>
A

>  <ResidueNumber>
401

>  <InsertionCode>


>  <Model>
1

>  <AltIds>


>  <MissingHeavyAtoms>
0

>  <ObservedFormula>
C11 N O9

>  <Name>
5-N-ACETYL-BETA-D-NEURAMINIC ACID

>  <SystematicName>
(2S,4S,5R,6R)-5-acetamido-2,4-dihydroxy-6-[(1R,2R)-1,2,3-trihydroxypropyl]oxane-2-carboxylic acid

>  <Synonyms>
BETA-SIALIC ACID

>  <Type>
NON-POLYMER

>  <Formula>
C11 H19 N O9

>  <MolecularWeight>
309.27

>  <ModifiedDate>
2011-06-04

>  <Parent>


>  <OneLetterCode>


>  <SubcomponentList>


>  <AmbiguousFlag>
N

>  <InChI>
InChI=1S/C11H19NO9/c1-4(14)12-7-5(15)2-11(20,10(18)19)21-9(7)8(17)6(16)3-13/h5-9,13,15-17,20H,2-3H2,1H3,(H,12,14)(H,18,19)/t5-,6+,7+,8+,9+,11-/m0/s1

>  <InChIKey>
SQVRNKJHWKZAKO-PFQGKNLYSA-N

>  <SMILES>
CC(=O)N[C@@H]1[C@H](C[C@](O[C@H]1[C@@H]([C@@H](CO)O)O)(C(=O)O)O)O

$$$$
