4MNP_SLB_A_401


 28 28  0  0  0  0  0  0  0  0999 V2000
   21.4603   27.0541   40.9644 C   0  0  0  0  0  0  0  0  0  0  0  0
   22.4089   25.9889   41.1164 C   0  0  0  0  0  0  0  0  0  0  0  0
   21.8519   24.6724   41.1332 C   0  0  0  0  0  0  0  0  0  0  0  0
   20.9508   24.4226   40.0299 C   0  0  0  0  0  0  0  0  0  0  0  0
   19.8387   25.4505   39.8859 C   0  0  0  0  0  0  0  0  0  0  0  0
   20.8077   27.1844   42.1793 O   0  0  0  0  0  0  0  0  0  0  0  0
   22.9085   23.6804   41.1818 O   0  0  0  0  0  0  0  0  0  0  0  0
   20.4390   26.8189   39.9661 O   0  0  0  0  0  0  0  0  0  0  0  0
   21.4587   27.3441   42.8805 H   0  0  0  0  0  0  0  0  0  0  0  0
   23.4497   23.7450   40.3794 H   0  0  0  0  0  0  0  0  0  0  0  0
   20.8696   21.9298   39.5091 C   0  0  0  0  0  0  0  0  0  0  0  0
   20.2291   20.6140   39.7030 C   0  0  0  0  0  0  0  0  0  0  0  0
   20.3286   23.1002   40.2061 N   0  0  0  0  0  0  0  0  0  0  0  0
   21.8600   22.0386   38.7613 O   0  0  0  0  0  0  0  0  0  0  0  0
   19.5456   23.0015   40.7947 H   0  0  0  0  0  0  0  0  0  0  0  0
   22.1193   28.3472   40.7086 C   0  0  0  0  0  0  0  0  0  0  0  0
   22.9468   28.4533   39.7712 O   0  0  0  0  0  0  0  0  0  0  0  0
   21.8534   29.3558   41.4223 O   0  0  0  0  0  0  0  0  0  0  0  0
   21.2365   29.2837   42.1239 H   0  0  0  0  0  0  0  0  0  0  0  0
   19.1019   25.3002   38.7000 C   0  0  0  0  0  0  0  0  0  0  0  0
   19.9788   25.2383   37.6052 O   0  0  0  0  0  0  0  0  0  0  0  0
   20.5030   26.0535   37.5643 H   0  0  0  0  0  0  0  0  0  0  0  0
   18.1917   26.5268   38.5276 C   0  0  0  0  0  0  0  0  0  0  0  0
   17.7148   26.8922   39.7430 O   0  0  0  0  0  0  0  0  0  0  0  0
   17.2092   26.1583   40.1260 H   0  0  0  0  0  0  0  0  0  0  0  0
   17.0510   26.1931   37.6258 C   0  0  0  0  0  0  0  0  0  0  0  0
   15.7825   26.5410   38.0520 O   0  0  0  0  0  0  0  0  0  0  0  0
   15.5630   26.0423   38.8545 H   0  0  0  0  0  0  0  0  0  0  0  0
 16  1  1  0  0  0
 16 17  2  0  0  0
 16 18  1  0  0  0
  1  2  1  0  0  0
  1  6  1  0  0  0
  1  8  1  0  0  0
  2  3  1  0  0  0
  3  4  1  0  0  0
  3  7  1  0  0  0
  4  5  1  0  0  0
  4 13  1  0  0  0
  5 20  1  0  0  0
  5  8  1  0  0  0
 20 23  1  0  0  0
 20 21  1  0  0  0
 23 26  1  0  0  0
 23 24  1  0  0  0
 26 27  1  0  0  0
 11 12  1  0  0  0
 11 13  1  0  0  0
 11 14  2  0  0  0
 13 15  1  0  0  0
 18 19  1  0  0  0
  6  9  1  0  0  0
  7 10  1  0  0  0
 21 22  1  0  0  0
 24 25  1  0  0  0
 27 28  1  0  0  0
M  END
> <minimizedAffinity>
-9.17212

$$$$
4MNP_SLB_A_401


 28 28  0  0  0  0  0  0  0  0999 V2000
   22.3851   20.8760   40.2221 C   0  0  0  0  0  0  0  0  0  0  0  0
   22.6122   21.8964   39.2399 C   0  0  0  0  0  0  0  0  0  0  0  0
   21.6088   22.9125   39.1712 C   0  0  0  0  0  0  0  0  0  0  0  0
   21.2896   23.4837   40.4609 C   0  0  0  0  0  0  0  0  0  0  0  0
   20.9145   22.4606   41.5224 C   0  0  0  0  0  0  0  0  0  0  0  0
   21.3812   20.0604   39.7262 O   0  0  0  0  0  0  0  0  0  0  0  0
   21.9982   23.9400   38.2249 O   0  0  0  0  0  0  0  0  0  0  0  0
   21.9302   21.3618   41.5074 O   0  0  0  0  0  0  0  0  0  0  0  0
   21.6461   19.7113   38.8609 H   0  0  0  0  0  0  0  0  0  0  0  0
   22.8118   24.3703   38.5314 H   0  0  0  0  0  0  0  0  0  0  0  0
   20.4064   25.8459   40.0967 C   0  0  0  0  0  0  0  0  0  0  0  0
   19.2582   26.7610   39.9454 C   0  0  0  0  0  0  0  0  0  0  0  0
   20.1609   24.4164   40.3086 N   0  0  0  0  0  0  0  0  0  0  0  0
   21.5697   26.2884   40.0426 O   0  0  0  0  0  0  0  0  0  0  0  0
   19.2371   24.0786   40.3492 H   0  0  0  0  0  0  0  0  0  0  0  0
   23.5661   20.0135   40.4044 C   0  0  0  0  0  0  0  0  0  0  0  0
   23.8806   19.1865   39.5145 O   0  0  0  0  0  0  0  0  0  0  0  0
   24.2716   20.1033   41.4492 O   0  0  0  0  0  0  0  0  0  0  0  0
   24.0426   20.7185   42.1177 H   0  0  0  0  0  0  0  0  0  0  0  0
   20.8038   23.0170   42.8069 C   0  0  0  0  0  0  0  0  0  0  0  0
   19.5745   23.6848   42.9266 O   0  0  0  0  0  0  0  0  0  0  0  0
   19.5217   24.3871   42.2596 H   0  0  0  0  0  0  0  0  0  0  0  0
   21.9354   24.0392   42.9995 C   0  0  0  0  0  0  0  0  0  0  0  0
   23.0660   23.3792   43.3521 O   0  0  0  0  0  0  0  0  0  0  0  0
   22.9140   22.8966   44.1796 H   0  0  0  0  0  0  0  0  0  0  0  0
   21.5703   25.0085   44.0732 C   0  0  0  0  0  0  0  0  0  0  0  0
   21.1896   24.4873   45.2960 O   0  0  0  0  0  0  0  0  0  0  0  0
   20.3700   23.9794   45.1899 H   0  0  0  0  0  0  0  0  0  0  0  0
 16  1  1  0  0  0
 16 17  2  0  0  0
 16 18  1  0  0  0
  1  2  1  0  0  0
  1  6  1  0  0  0
  1  8  1  0  0  0
  2  3  1  0  0  0
  3  4  1  0  0  0
  3  7  1  0  0  0
  4  5  1  0  0  0
  4 13  1  0  0  0
  5 20  1  0  0  0
  5  8  1  0  0  0
 20 23  1  0  0  0
 20 21  1  0  0  0
 23 26  1  0  0  0
 23 24  1  0  0  0
 26 27  1  0  0  0
 11 12  1  0  0  0
 11 13  1  0  0  0
 11 14  2  0  0  0
 13 15  1  0  0  0
 18 19  1  0  0  0
  6  9  1  0  0  0
  7 10  1  0  0  0
 21 22  1  0  0  0
 24 25  1  0  0  0
 27 28  1  0  0  0
M  END
> <minimizedAffinity>
-8.91721

$$$$
4MNP_SLB_A_401


 28 28  0  0  0  0  0  0  0  0999 V2000
   19.9558   25.8715   39.8539 C   0  0  0  0  0  0  0  0  0  0  0  0
   20.4089   24.8175   38.9929 C   0  0  0  0  0  0  0  0  0  0  0  0
   21.4666   24.0117   39.5180 C   0  0  0  0  0  0  0  0  0  0  0  0
   21.2002   23.5241   40.8533 C   0  0  0  0  0  0  0  0  0  0  0  0
   20.8345   24.6098   41.8540 C   0  0  0  0  0  0  0  0  0  0  0  0
   20.9260   26.8596   39.8205 O   0  0  0  0  0  0  0  0  0  0  0  0
   21.7642   22.9200   38.6112 O   0  0  0  0  0  0  0  0  0  0  0  0
   19.7938   25.4937   41.2417 O   0  0  0  0  0  0  0  0  0  0  0  0
   21.0669   27.1436   38.9038 H   0  0  0  0  0  0  0  0  0  0  0  0
   20.9872   22.3447   38.5317 H   0  0  0  0  0  0  0  0  0  0  0  0
   22.4846   21.3631   41.2692 C   0  0  0  0  0  0  0  0  0  0  0  0
   23.6912   20.6835   41.7800 C   0  0  0  0  0  0  0  0  0  0  0  0
   22.3927   22.8234   41.3571 N   0  0  0  0  0  0  0  0  0  0  0  0
   21.5577   20.6984   40.7682 O   0  0  0  0  0  0  0  0  0  0  0  0
   23.1319   23.3379   41.7548 H   0  0  0  0  0  0  0  0  0  0  0  0
   18.7151   26.4936   39.3583 C   0  0  0  0  0  0  0  0  0  0  0  0
   18.5707   26.7103   38.1308 O   0  0  0  0  0  0  0  0  0  0  0  0
   17.7891   26.8062   40.1596 O   0  0  0  0  0  0  0  0  0  0  0  0
   17.8902   26.6472   41.0774 H   0  0  0  0  0  0  0  0  0  0  0  0
   20.3897   24.0969   43.0832 C   0  0  0  0  0  0  0  0  0  0  0  0
   18.9868   24.0413   43.0905 O   0  0  0  0  0  0  0  0  0  0  0  0
   18.6272   24.9324   42.9578 H   0  0  0  0  0  0  0  0  0  0  0  0
   20.8466   25.0428   44.2053 C   0  0  0  0  0  0  0  0  0  0  0  0
   20.1674   26.2111   44.0964 O   0  0  0  0  0  0  0  0  0  0  0  0
   20.3507   26.6124   43.2325 H   0  0  0  0  0  0  0  0  0  0  0  0
   22.3103   25.3058   44.0868 C   0  0  0  0  0  0  0  0  0  0  0  0
   23.1416   24.6926   45.0059 O   0  0  0  0  0  0  0  0  0  0  0  0
   22.9437   25.0273   45.8946 H   0  0  0  0  0  0  0  0  0  0  0  0
 16  1  1  0  0  0
 16 17  2  0  0  0
 16 18  1  0  0  0
  1  2  1  0  0  0
  1  6  1  0  0  0
  1  8  1  0  0  0
  2  3  1  0  0  0
  3  4  1  0  0  0
  3  7  1  0  0  0
  4  5  1  0  0  0
  4 13  1  0  0  0
  5 20  1  0  0  0
  5  8  1  0  0  0
 20 23  1  0  0  0
 20 21  1  0  0  0
 23 26  1  0  0  0
 23 24  1  0  0  0
 26 27  1  0  0  0
 11 12  1  0  0  0
 11 13  1  0  0  0
 11 14  2  0  0  0
 13 15  1  0  0  0
 18 19  1  0  0  0
  6  9  1  0  0  0
  7 10  1  0  0  0
 21 22  1  0  0  0
 24 25  1  0  0  0
 27 28  1  0  0  0
M  END
> <minimizedAffinity>
-8.85004

$$$$
4MNP_SLB_A_401


 28 28  0  0  0  0  0  0  0  0999 V2000
   22.9691   25.0073   42.2387 C   0  0  0  0  0  0  0  0  0  0  0  0
   22.2352   26.2389   42.1953 C   0  0  0  0  0  0  0  0  0  0  0  0
   21.5800   26.5164   40.9553 C   0  0  0  0  0  0  0  0  0  0  0  0
   20.7824   25.4101   40.4742 C   0  0  0  0  0  0  0  0  0  0  0  0
   21.5362   24.0925   40.3748 C   0  0  0  0  0  0  0  0  0  0  0  0
   24.1247   25.2045   41.5009 O   0  0  0  0  0  0  0  0  0  0  0  0
   20.7867   27.7253   41.0657 O   0  0  0  0  0  0  0  0  0  0  0  0
   22.2875   23.8740   41.6503 O   0  0  0  0  0  0  0  0  0  0  0  0
   24.6149   25.9590   41.8632 H   0  0  0  0  0  0  0  0  0  0  0  0
   20.0897   27.5953   41.7276 H   0  0  0  0  0  0  0  0  0  0  0  0
   18.9149   26.2994   38.9864 C   0  0  0  0  0  0  0  0  0  0  0  0
   18.4143   26.6214   37.6355 C   0  0  0  0  0  0  0  0  0  0  0  0
   20.2604   25.7380   39.1374 N   0  0  0  0  0  0  0  0  0  0  0  0
   18.1981   26.5060   39.9841 O   0  0  0  0  0  0  0  0  0  0  0  0
   20.8175   25.5796   38.3414 H   0  0  0  0  0  0  0  0  0  0  0  0
   23.4041   24.6724   43.6064 C   0  0  0  0  0  0  0  0  0  0  0  0
   24.5136   24.1163   43.7917 O   0  0  0  0  0  0  0  0  0  0  0  0
   22.6710   24.9468   44.5987 O   0  0  0  0  0  0  0  0  0  0  0  0
   21.8413   25.3621   44.4676 H   0  0  0  0  0  0  0  0  0  0  0  0
   20.6986   22.9998   40.0985 C   0  0  0  0  0  0  0  0  0  0  0  0
   19.8417   22.7757   41.1880 O   0  0  0  0  0  0  0  0  0  0  0  0
   20.3687   22.5923   41.9814 H   0  0  0  0  0  0  0  0  0  0  0  0
   21.5705   21.7499   39.8980 C   0  0  0  0  0  0  0  0  0  0  0  0
   22.5598   22.0429   39.0185 O   0  0  0  0  0  0  0  0  0  0  0  0
   22.1705   22.3120   38.1717 H   0  0  0  0  0  0  0  0  0  0  0  0
   20.7428   20.6311   39.3607 C   0  0  0  0  0  0  0  0  0  0  0  0
   19.8360   20.0420   40.2223 O   0  0  0  0  0  0  0  0  0  0  0  0
   20.3130   19.6138   40.9504 H   0  0  0  0  0  0  0  0  0  0  0  0
 16  1  1  0  0  0
 16 17  2  0  0  0
 16 18  1  0  0  0
  1  2  1  0  0  0
  1  6  1  0  0  0
  1  8  1  0  0  0
  2  3  1  0  0  0
  3  4  1  0  0  0
  3  7  1  0  0  0
  4  5  1  0  0  0
  4 13  1  0  0  0
  5 20  1  0  0  0
  5  8  1  0  0  0
 20 23  1  0  0  0
 20 21  1  0  0  0
 23 26  1  0  0  0
 23 24  1  0  0  0
 26 27  1  0  0  0
 11 12  1  0  0  0
 11 13  1  0  0  0
 11 14  2  0  0  0
 13 15  1  0  0  0
 18 19  1  0  0  0
  6  9  1  0  0  0
  7 10  1  0  0  0
 21 22  1  0  0  0
 24 25  1  0  0  0
 27 28  1  0  0  0
M  END
> <minimizedAffinity>
-8.74132

$$$$
4MNP_SLB_A_401


 28 28  0  0  0  0  0  0  0  0999 V2000
   21.9733   26.4833   40.5384 C   0  0  0  0  0  0  0  0  0  0  0  0
   21.7652   25.5932   39.4330 C   0  0  0  0  0  0  0  0  0  0  0  0
   22.4685   24.3508   39.5081 C   0  0  0  0  0  0  0  0  0  0  0  0
   22.2892   23.6721   40.7725 C   0  0  0  0  0  0  0  0  0  0  0  0
   22.6154   24.5229   41.9907 C   0  0  0  0  0  0  0  0  0  0  0  0
   23.2409   27.0205   40.3858 O   0  0  0  0  0  0  0  0  0  0  0  0
   22.0978   23.4956   38.3972 O   0  0  0  0  0  0  0  0  0  0  0  0
   21.9428   25.8511   41.8401 O   0  0  0  0  0  0  0  0  0  0  0  0
   23.3054   27.4564   39.5216 H   0  0  0  0  0  0  0  0  0  0  0  0
   21.1524   23.2858   38.4521 H   0  0  0  0  0  0  0  0  0  0  0  0
   22.5602   21.1411   40.8874 C   0  0  0  0  0  0  0  0  0  0  0  0
   23.4461   19.9608   40.9179 C   0  0  0  0  0  0  0  0  0  0  0  0
   23.1518   22.4797   40.8058 N   0  0  0  0  0  0  0  0  0  0  0  0
   21.3236   20.9957   40.9291 O   0  0  0  0  0  0  0  0  0  0  0  0
   24.1305   22.5818   40.7730 H   0  0  0  0  0  0  0  0  0  0  0  0
   21.0366   27.6208   40.5144 C   0  0  0  0  0  0  0  0  0  0  0  0
   19.8218   27.4262   40.2672 O   0  0  0  0  0  0  0  0  0  0  0  0
   21.4450   28.7939   40.7477 O   0  0  0  0  0  0  0  0  0  0  0  0
   22.3507   28.9465   40.9330 H   0  0  0  0  0  0  0  0  0  0  0  0
   22.2465   23.9138   43.2010 C   0  0  0  0  0  0  0  0  0  0  0  0
   21.0061   23.2741   43.0476 O   0  0  0  0  0  0  0  0  0  0  0  0
   20.3354   23.9263   42.7911 H   0  0  0  0  0  0  0  0  0  0  0  0
   22.1044   25.0027   44.2764 C   0  0  0  0  0  0  0  0  0  0  0  0
   22.8646   24.6629   45.3465 O   0  0  0  0  0  0  0  0  0  0  0  0
   22.5639   23.8107   45.6990 H   0  0  0  0  0  0  0  0  0  0  0  0
   20.6781   25.1213   44.6974 C   0  0  0  0  0  0  0  0  0  0  0  0
   19.8516   25.9137   43.9224 O   0  0  0  0  0  0  0  0  0  0  0  0
   20.1552   26.8341   43.9628 H   0  0  0  0  0  0  0  0  0  0  0  0
 16  1  1  0  0  0
 16 17  2  0  0  0
 16 18  1  0  0  0
  1  2  1  0  0  0
  1  6  1  0  0  0
  1  8  1  0  0  0
  2  3  1  0  0  0
  3  4  1  0  0  0
  3  7  1  0  0  0
  4  5  1  0  0  0
  4 13  1  0  0  0
  5 20  1  0  0  0
  5  8  1  0  0  0
 20 23  1  0  0  0
 20 21  1  0  0  0
 23 26  1  0  0  0
 23 24  1  0  0  0
 26 27  1  0  0  0
 11 12  1  0  0  0
 11 13  1  0  0  0
 11 14  2  0  0  0
 13 15  1  0  0  0
 18 19  1  0  0  0
  6  9  1  0  0  0
  7 10  1  0  0  0
 21 22  1  0  0  0
 24 25  1  0  0  0
 27 28  1  0  0  0
M  END
> <minimizedAffinity>
-8.69037

$$$$
4MNP_SLB_A_401


 28 28  0  0  0  0  0  0  0  0999 V2000
   21.2959   27.0843   40.4384 C   0  0  0  0  0  0  0  0  0  0  0  0
   21.4142   26.1923   41.5554 C   0  0  0  0  0  0  0  0  0  0  0  0
   20.9145   24.8707   41.3375 C   0  0  0  0  0  0  0  0  0  0  0  0
   21.4178   24.2659   40.1241 C   0  0  0  0  0  0  0  0  0  0  0  0
   21.2109   25.1072   38.8737 C   0  0  0  0  0  0  0  0  0  0  0  0
   19.9606   27.4426   40.3528 O   0  0  0  0  0  0  0  0  0  0  0  0
   21.1852   24.0347   42.4911 O   0  0  0  0  0  0  0  0  0  0  0  0
   21.6550   26.5071   39.1605 O   0  0  0  0  0  0  0  0  0  0  0  0
   19.6769   27.8360   41.1928 H   0  0  0  0  0  0  0  0  0  0  0  0
   22.1440   23.9545   42.6144 H   0  0  0  0  0  0  0  0  0  0  0  0
   21.5202   21.7257   39.9531 C   0  0  0  0  0  0  0  0  0  0  0  0
   20.8260   20.4398   39.7447 C   0  0  0  0  0  0  0  0  0  0  0  0
   20.7483   22.9712   39.9176 N   0  0  0  0  0  0  0  0  0  0  0  0
   22.7488   21.7466   40.1582 O   0  0  0  0  0  0  0  0  0  0  0  0
   19.7778   22.9418   39.7550 H   0  0  0  0  0  0  0  0  0  0  0  0
   22.0466   28.3349   40.6493 C   0  0  0  0  0  0  0  0  0  0  0  0
   23.0521   28.5880   39.9425 O   0  0  0  0  0  0  0  0  0  0  0  0
   21.6825   29.1610   41.5338 O   0  0  0  0  0  0  0  0  0  0  0  0
   20.9326   28.9784   42.0651 H   0  0  0  0  0  0  0  0  0  0  0  0
   21.8789   24.5947   37.7499 C   0  0  0  0  0  0  0  0  0  0  0  0
   23.0964   24.0193   38.1475 O   0  0  0  0  0  0  0  0  0  0  0  0
   23.6470   24.6922   38.5774 H   0  0  0  0  0  0  0  0  0  0  0  0
   22.1786   25.7531   36.7851 C   0  0  0  0  0  0  0  0  0  0  0  0
   21.7314   25.4201   35.5492 O   0  0  0  0  0  0  0  0  0  0  0  0
   22.1823   24.6158   35.2480 H   0  0  0  0  0  0  0  0  0  0  0  0
   23.6481   26.0051   36.7308 C   0  0  0  0  0  0  0  0  0  0  0  0
   24.2035   26.7440   37.7590 O   0  0  0  0  0  0  0  0  0  0  0  0
   23.8399   27.6431   37.7440 H   0  0  0  0  0  0  0  0  0  0  0  0
 16  1  1  0  0  0
 16 17  2  0  0  0
 16 18  1  0  0  0
  1  2  1  0  0  0
  1  6  1  0  0  0
  1  8  1  0  0  0
  2  3  1  0  0  0
  3  4  1  0  0  0
  3  7  1  0  0  0
  4  5  1  0  0  0
  4 13  1  0  0  0
  5 20  1  0  0  0
  5  8  1  0  0  0
 20 23  1  0  0  0
 20 21  1  0  0  0
 23 26  1  0  0  0
 23 24  1  0  0  0
 26 27  1  0  0  0
 11 12  1  0  0  0
 11 13  1  0  0  0
 11 14  2  0  0  0
 13 15  1  0  0  0
 18 19  1  0  0  0
  6  9  1  0  0  0
  7 10  1  0  0  0
 21 22  1  0  0  0
 24 25  1  0  0  0
 27 28  1  0  0  0
M  END
> <minimizedAffinity>
-8.65758

$$$$
4MNP_SLB_A_401


 28 28  0  0  0  0  0  0  0  0999 V2000
   21.4386   25.0361   43.4949 C   0  0  0  0  0  0  0  0  0  0  0  0
   21.3165   26.0705   42.5087 C   0  0  0  0  0  0  0  0  0  0  0  0
   22.0771   25.8694   41.3150 C   0  0  0  0  0  0  0  0  0  0  0  0
   21.8841   24.5598   40.7323 C   0  0  0  0  0  0  0  0  0  0  0  0
   22.1218   23.4060   41.6948 C   0  0  0  0  0  0  0  0  0  0  0  0
   22.6829   25.1902   44.0837 O   0  0  0  0  0  0  0  0  0  0  0  0
   21.7912   26.9175   40.3545 O   0  0  0  0  0  0  0  0  0  0  0  0
   21.3905   23.6883   42.9694 O   0  0  0  0  0  0  0  0  0  0  0  0
   22.7583   26.0848   44.4511 H   0  0  0  0  0  0  0  0  0  0  0  0
   20.8559   26.8771   40.1006 H   0  0  0  0  0  0  0  0  0  0  0  0
   22.3252   24.6066   38.2232 C   0  0  0  0  0  0  0  0  0  0  0  0
   23.2659   24.4411   37.0978 C   0  0  0  0  0  0  0  0  0  0  0  0
   22.8029   24.3993   39.5933 N   0  0  0  0  0  0  0  0  0  0  0  0
   21.1394   24.9207   38.0056 O   0  0  0  0  0  0  0  0  0  0  0  0
   23.7423   24.1516   39.7526 H   0  0  0  0  0  0  0  0  0  0  0  0
   20.4484   25.1854   44.5762 C   0  0  0  0  0  0  0  0  0  0  0  0
   20.7396   24.8324   45.7446 O   0  0  0  0  0  0  0  0  0  0  0  0
   19.3069   25.6732   44.3387 O   0  0  0  0  0  0  0  0  0  0  0  0
   19.0828   25.9389   43.4685 H   0  0  0  0  0  0  0  0  0  0  0  0
   21.7383   22.1625   41.1671 C   0  0  0  0  0  0  0  0  0  0  0  0
   22.5984   21.8121   40.1141 O   0  0  0  0  0  0  0  0  0  0  0  0
   22.5542   22.4898   39.4214 H   0  0  0  0  0  0  0  0  0  0  0  0
   20.3103   22.2832   40.6114 C   0  0  0  0  0  0  0  0  0  0  0  0
   19.4346   22.2606   41.6463 O   0  0  0  0  0  0  0  0  0  0  0  0
   19.5295   21.4263   42.1319 H   0  0  0  0  0  0  0  0  0  0  0  0
   20.0225   21.1443   39.6918 C   0  0  0  0  0  0  0  0  0  0  0  0
   20.2329   19.8672   40.1781 O   0  0  0  0  0  0  0  0  0  0  0  0
   21.1762   19.7449   40.3681 H   0  0  0  0  0  0  0  0  0  0  0  0
 16  1  1  0  0  0
 16 17  2  0  0  0
 16 18  1  0  0  0
  1  2  1  0  0  0
  1  6  1  0  0  0
  1  8  1  0  0  0
  2  3  1  0  0  0
  3  4  1  0  0  0
  3  7  1  0  0  0
  4  5  1  0  0  0
  4 13  1  0  0  0
  5 20  1  0  0  0
  5  8  1  0  0  0
 20 23  1  0  0  0
 20 21  1  0  0  0
 23 26  1  0  0  0
 23 24  1  0  0  0
 26 27  1  0  0  0
 11 12  1  0  0  0
 11 13  1  0  0  0
 11 14  2  0  0  0
 13 15  1  0  0  0
 18 19  1  0  0  0
  6  9  1  0  0  0
  7 10  1  0  0  0
 21 22  1  0  0  0
 24 25  1  0  0  0
 27 28  1  0  0  0
M  END
> <minimizedAffinity>
-8.61201

$$$$
4MNP_SLB_A_401


 28 28  0  0  0  0  0  0  0  0999 V2000
   20.4948   24.5631   42.9281 C   0  0  0  0  0  0  0  0  0  0  0  0
   21.8538   24.1345   42.7647 C   0  0  0  0  0  0  0  0  0  0  0  0
   22.2299   23.7917   41.4287 C   0  0  0  0  0  0  0  0  0  0  0  0
   21.8773   24.8070   40.4610 C   0  0  0  0  0  0  0  0  0  0  0  0
   20.4138   25.2206   40.4939 C   0  0  0  0  0  0  0  0  0  0  0  0
   19.7044   23.4292   42.8375 O   0  0  0  0  0  0  0  0  0  0  0  0
   23.6450   23.4802   41.3693 O   0  0  0  0  0  0  0  0  0  0  0  0
   20.0226   25.4820   41.9144 O   0  0  0  0  0  0  0  0  0  0  0  0
   19.9883   22.7832   43.5031 H   0  0  0  0  0  0  0  0  0  0  0  0
   24.1595   24.2659   41.6121 H   0  0  0  0  0  0  0  0  0  0  0  0
   23.0805   25.0597   38.2292 C   0  0  0  0  0  0  0  0  0  0  0  0
   23.3693   24.5396   36.8783 C   0  0  0  0  0  0  0  0  0  0  0  0
   22.1796   24.3094   39.1089 N   0  0  0  0  0  0  0  0  0  0  0  0
   23.6007   26.1245   38.6134 O   0  0  0  0  0  0  0  0  0  0  0  0
   21.7748   23.4690   38.7942 H   0  0  0  0  0  0  0  0  0  0  0  0
   20.2524   25.1299   44.2667 C   0  0  0  0  0  0  0  0  0  0  0  0
   20.8661   24.6717   45.2608 O   0  0  0  0  0  0  0  0  0  0  0  0
   19.4346   26.0808   44.4230 O   0  0  0  0  0  0  0  0  0  0  0  0
   18.9730   26.4277   43.6852 H   0  0  0  0  0  0  0  0  0  0  0  0
   20.1407   26.3389   39.6897 C   0  0  0  0  0  0  0  0  0  0  0  0
   19.8246   27.4385   40.5036 O   0  0  0  0  0  0  0  0  0  0  0  0
   19.0483   27.2271   41.0455 H   0  0  0  0  0  0  0  0  0  0  0  0
   18.9256   26.0225   38.8032 C   0  0  0  0  0  0  0  0  0  0  0  0
   19.3083   26.0690   37.5033 O   0  0  0  0  0  0  0  0  0  0  0  0
   19.6447   26.9550   37.2968 H   0  0  0  0  0  0  0  0  0  0  0  0
   17.8463   27.0249   39.0398 C   0  0  0  0  0  0  0  0  0  0  0  0
   17.0459   26.8447   40.1526 O   0  0  0  0  0  0  0  0  0  0  0  0
   16.5439   26.0199   40.0598 H   0  0  0  0  0  0  0  0  0  0  0  0
 16  1  1  0  0  0
 16 17  2  0  0  0
 16 18  1  0  0  0
  1  2  1  0  0  0
  1  6  1  0  0  0
  1  8  1  0  0  0
  2  3  1  0  0  0
  3  4  1  0  0  0
  3  7  1  0  0  0
  4  5  1  0  0  0
  4 13  1  0  0  0
  5 20  1  0  0  0
  5  8  1  0  0  0
 20 23  1  0  0  0
 20 21  1  0  0  0
 23 26  1  0  0  0
 23 24  1  0  0  0
 26 27  1  0  0  0
 11 12  1  0  0  0
 11 13  1  0  0  0
 11 14  2  0  0  0
 13 15  1  0  0  0
 18 19  1  0  0  0
  6  9  1  0  0  0
  7 10  1  0  0  0
 21 22  1  0  0  0
 24 25  1  0  0  0
 27 28  1  0  0  0
M  END
> <minimizedAffinity>
-8.49676

$$$$
4MNP_SLB_A_401


 28 28  0  0  0  0  0  0  0  0999 V2000
   20.9156   23.4437   41.3972 C   0  0  0  0  0  0  0  0  0  0  0  0
   22.2276   23.9993   41.5627 C   0  0  0  0  0  0  0  0  0  0  0  0
   22.7895   24.5983   40.3925 C   0  0  0  0  0  0  0  0  0  0  0  0
   21.8965   25.5372   39.7502 C   0  0  0  0  0  0  0  0  0  0  0  0
   20.5208   24.9725   39.4297 C   0  0  0  0  0  0  0  0  0  0  0  0
   21.0675   22.2652   40.6853 O   0  0  0  0  0  0  0  0  0  0  0  0
   24.0627   25.2172   40.7069 O   0  0  0  0  0  0  0  0  0  0  0  0
   19.9975   24.2704   40.6431 O   0  0  0  0  0  0  0  0  0  0  0  0
   21.6785   21.6785   41.1579 H   0  0  0  0  0  0  0  0  0  0  0  0
   23.9252   25.9316   41.3485 H   0  0  0  0  0  0  0  0  0  0  0  0
   23.1750   27.2983   38.4251 C   0  0  0  0  0  0  0  0  0  0  0  0
   23.7788   27.7360   37.1512 C   0  0  0  0  0  0  0  0  0  0  0  0
   22.5049   25.9963   38.4909 N   0  0  0  0  0  0  0  0  0  0  0  0
   23.2384   28.0306   39.4309 O   0  0  0  0  0  0  0  0  0  0  0  0
   22.4616   25.4264   37.6893 H   0  0  0  0  0  0  0  0  0  0  0  0
   20.3074   23.0719   42.6871 C   0  0  0  0  0  0  0  0  0  0  0  0
   19.2266   23.5998   43.0448 O   0  0  0  0  0  0  0  0  0  0  0  0
   20.8623   22.2186   43.4364 O   0  0  0  0  0  0  0  0  0  0  0  0
   21.6694   21.8205   43.1756 H   0  0  0  0  0  0  0  0  0  0  0  0
   19.6136   25.9509   38.9921 C   0  0  0  0  0  0  0  0  0  0  0  0
   18.6707   26.2040   40.0013 O   0  0  0  0  0  0  0  0  0  0  0  0
   18.1941   25.3856   40.2112 H   0  0  0  0  0  0  0  0  0  0  0  0
   18.8733   25.4175   37.7552 C   0  0  0  0  0  0  0  0  0  0  0  0
   19.7409   25.3654   36.7146 O   0  0  0  0  0  0  0  0  0  0  0  0
   20.0840   26.2548   36.5349 H   0  0  0  0  0  0  0  0  0  0  0  0
   17.7376   26.3214   37.4108 C   0  0  0  0  0  0  0  0  0  0  0  0
   16.5783   26.1951   38.1536 O   0  0  0  0  0  0  0  0  0  0  0  0
   16.1941   25.3167   38.0064 H   0  0  0  0  0  0  0  0  0  0  0  0
 16  1  1  0  0  0
 16 17  2  0  0  0
 16 18  1  0  0  0
  1  2  1  0  0  0
  1  6  1  0  0  0
  1  8  1  0  0  0
  2  3  1  0  0  0
  3  4  1  0  0  0
  3  7  1  0  0  0
  4  5  1  0  0  0
  4 13  1  0  0  0
  5 20  1  0  0  0
  5  8  1  0  0  0
 20 23  1  0  0  0
 20 21  1  0  0  0
 23 26  1  0  0  0
 23 24  1  0  0  0
 26 27  1  0  0  0
 11 12  1  0  0  0
 11 13  1  0  0  0
 11 14  2  0  0  0
 13 15  1  0  0  0
 18 19  1  0  0  0
  6  9  1  0  0  0
  7 10  1  0  0  0
 21 22  1  0  0  0
 24 25  1  0  0  0
 27 28  1  0  0  0
M  END
> <minimizedAffinity>
-8.43371

$$$$
4MNP_SLB_A_401


 28 28  0  0  0  0  0  0  0  0999 V2000
   20.9509   25.6532   38.1713 C   0  0  0  0  0  0  0  0  0  0  0  0
   21.2453   26.6501   39.1598 C   0  0  0  0  0  0  0  0  0  0  0  0
   20.5805   26.4816   40.4142 C   0  0  0  0  0  0  0  0  0  0  0  0
   20.7165   25.1470   40.9545 C   0  0  0  0  0  0  0  0  0  0  0  0
   20.2997   24.0399   39.9982 C   0  0  0  0  0  0  0  0  0  0  0  0
   19.6759   25.9210   37.7009 O   0  0  0  0  0  0  0  0  0  0  0  0
   21.0363   27.4797   41.3623 O   0  0  0  0  0  0  0  0  0  0  0  0
   20.9349   24.2935   38.6672 O   0  0  0  0  0  0  0  0  0  0  0  0
   19.6418   26.8274   37.3573 H   0  0  0  0  0  0  0  0  0  0  0  0
   21.9840   27.3581   41.5293 H   0  0  0  0  0  0  0  0  0  0  0  0
   20.5086   25.1572   43.4940 C   0  0  0  0  0  0  0  0  0  0  0  0
   19.6618   25.0406   44.6974 C   0  0  0  0  0  0  0  0  0  0  0  0
   19.8931   25.0331   42.1695 N   0  0  0  0  0  0  0  0  0  0  0  0
   21.7323   25.3605   43.6082 O   0  0  0  0  0  0  0  0  0  0  0  0
   18.9249   24.8728   42.0921 H   0  0  0  0  0  0  0  0  0  0  0  0
   21.8494   25.7488   37.0070 C   0  0  0  0  0  0  0  0  0  0  0  0
   23.0585   26.0414   37.1719 O   0  0  0  0  0  0  0  0  0  0  0  0
   21.4143   25.5316   35.8405 O   0  0  0  0  0  0  0  0  0  0  0  0
   20.5126   25.3126   35.7101 H   0  0  0  0  0  0  0  0  0  0  0  0
   20.6253   22.7571   40.4675 C   0  0  0  0  0  0  0  0  0  0  0  0
   19.6862   22.3555   41.4310 O   0  0  0  0  0  0  0  0  0  0  0  0
   19.6905   22.9853   42.1687 H   0  0  0  0  0  0  0  0  0  0  0  0
   22.0111   22.8127   41.1300 C   0  0  0  0  0  0  0  0  0  0  0  0
   22.9557   22.5595   40.1909 O   0  0  0  0  0  0  0  0  0  0  0  0
   22.8071   21.6790   39.8121 H   0  0  0  0  0  0  0  0  0  0  0  0
   22.1005   21.7907   42.2132 C   0  0  0  0  0  0  0  0  0  0  0  0
   21.5054   22.0951   43.4235 O   0  0  0  0  0  0  0  0  0  0  0  0
   21.9544   22.8570   43.8220 H   0  0  0  0  0  0  0  0  0  0  0  0
 16  1  1  0  0  0
 16 17  2  0  0  0
 16 18  1  0  0  0
  1  2  1  0  0  0
  1  6  1  0  0  0
  1  8  1  0  0  0
  2  3  1  0  0  0
  3  4  1  0  0  0
  3  7  1  0  0  0
  4  5  1  0  0  0
  4 13  1  0  0  0
  5 20  1  0  0  0
  5  8  1  0  0  0
 20 23  1  0  0  0
 20 21  1  0  0  0
 23 26  1  0  0  0
 23 24  1  0  0  0
 26 27  1  0  0  0
 11 12  1  0  0  0
 11 13  1  0  0  0
 11 14  2  0  0  0
 13 15  1  0  0  0
 18 19  1  0  0  0
  6  9  1  0  0  0
  7 10  1  0  0  0
 21 22  1  0  0  0
 24 25  1  0  0  0
 27 28  1  0  0  0
M  END
> <minimizedAffinity>
-8.28460

$$$$
