3RYZ_RYZ_A_262


 27 27  0  0  0  0  0  0  0  0999 V2000
   18.0274    6.6188   14.3542 N   0  0  0  0  0  0  0  0  0  0  0  0
   16.1796    6.4327   13.0777 O   0  0  0  0  0  0  0  0  0  0  0  0
   16.8990    6.0064   14.0055 C   0  0  0  0  0  0  0  0  0  0  0  0
   18.5499    6.2552   15.1052 H   0  0  0  0  0  0  0  0  0  0  0  0
   16.4467    4.8008   14.7278 C   0  0  0  0  0  0  0  0  0  0  0  0
   14.6980    3.4661   15.8673 C   0  0  0  0  0  0  0  0  0  0  0  0
   15.1108    4.6374   15.1340 C   0  0  0  0  0  0  0  0  0  0  0  0
   15.6403    2.4734   16.2220 C   0  0  0  0  0  0  0  0  0  0  0  0
   17.3979    3.8112   15.0456 C   0  0  0  0  0  0  0  0  0  0  0  0
   17.0080    2.6374   15.7574 C   0  0  0  0  0  0  0  0  0  0  0  0
   15.0934    1.1463   17.0705 S   0  0  0  0  0  0  0  0  0  0  0  0
   15.4817    1.3853   18.4727 O   0  0  0  0  0  0  0  0  0  0  0  0
   15.6394   -0.0357   16.4765 O   0  0  0  0  0  0  0  0  0  0  0  0
   13.4852    1.1360   16.9281 N   0  0  0  0  0  0  0  0  0  0  0  0
   13.1008    1.9801   17.3528 H   0  0  0  0  0  0  0  0  0  0  0  0
   13.1072    0.3151   17.4011 H   0  0  0  0  0  0  0  0  0  0  0  0
   18.5277    7.8229   13.6592 C   0  0  0  0  0  0  0  0  0  0  0  0
   20.3944    8.1579   15.1533 F   0  0  0  0  0  0  0  0  0  0  0  0
   18.6797    8.8301   15.8082 F   0  0  0  0  0  0  0  0  0  0  0  0
   19.2920    8.7289   14.6691 C   0  0  0  0  0  0  0  0  0  0  0  0
   18.5315   10.9188   14.6234 F   0  0  0  0  0  0  0  0  0  0  0  0
   19.1555    9.9313   12.8207 F   0  0  0  0  0  0  0  0  0  0  0  0
   19.4364   10.0947   14.0882 C   0  0  0  0  0  0  0  0  0  0  0  0
   21.5882   10.0404   13.5935 F   0  0  0  0  0  0  0  0  0  0  0  0
   21.1291   10.6568   15.6572 F   0  0  0  0  0  0  0  0  0  0  0  0
   20.7677   12.0064   14.1389 F   0  0  0  0  0  0  0  0  0  0  0  0
   20.8002   10.7022   14.3909 C   0  0  0  0  0  0  0  0  0  0  0  0
  8 11  1  0  0  0
 14 11  1  0  0  0
 12 11  2  0  0  0
 11 13  2  0  0  0
 17  1  1  0  0  0
  1  3  1  0  0  0
  2  3  2  0  0  0
  3  5  1  0  0  0
  5  9  2  0  0  0
  5  7  1  0  0  0
  7  6  2  0  0  0
  6  8  1  0  0  0
 10  8  2  0  0  0
  9 10  1  0  0  0
 20 18  1  0  0  0
 21 23  1  0  0  0
 24 27  1  0  0  0
 20 19  1  0  0  0
 22 23  1  0  0  0
 27 25  1  0  0  0
 27 26  1  0  0  0
 17 20  1  0  0  0
 23 20  1  0  0  0
 23 27  1  0  0  0
  1  4  1  0  0  0
 14 15  1  0  0  0
 14 16  1  0  0  0
M  END
> <minimizedAffinity>
-7.62563

$$$$
3RYZ_RYZ_A_262


 27 27  0  0  0  0  0  0  0  0999 V2000
   17.2149    5.3386   12.3221 N   0  0  0  0  0  0  0  0  0  0  0  0
   17.2886    6.8246   14.0147 O   0  0  0  0  0  0  0  0  0  0  0  0
   17.0155    5.6815   13.5920 C   0  0  0  0  0  0  0  0  0  0  0  0
   17.0021    4.4192   12.0418 H   0  0  0  0  0  0  0  0  0  0  0  0
   16.4779    4.7019   14.5569 C   0  0  0  0  0  0  0  0  0  0  0  0
   16.6798    2.6418   15.9182 C   0  0  0  0  0  0  0  0  0  0  0  0
   17.2368    3.6045   15.0001 C   0  0  0  0  0  0  0  0  0  0  0  0
   15.3438    2.7660   16.3641 C   0  0  0  0  0  0  0  0  0  0  0  0
   15.1534    4.8618   15.0098 C   0  0  0  0  0  0  0  0  0  0  0  0
   14.5876    3.9292   15.9300 C   0  0  0  0  0  0  0  0  0  0  0  0
   14.7652    1.6165   17.4243 S   0  0  0  0  0  0  0  0  0  0  0  0
   13.4333    1.2422   16.9143 O   0  0  0  0  0  0  0  0  0  0  0  0
   14.7836    2.1613   18.7476 O   0  0  0  0  0  0  0  0  0  0  0  0
   15.7726    0.3578   17.3380 N   0  0  0  0  0  0  0  0  0  0  0  0
   15.7559   -0.0269   16.3934 H   0  0  0  0  0  0  0  0  0  0  0  0
   15.4791   -0.3587   18.0020 H   0  0  0  0  0  0  0  0  0  0  0  0
   17.7430    6.2829   11.3157 C   0  0  0  0  0  0  0  0  0  0  0  0
   15.7709    5.5793   10.1137 F   0  0  0  0  0  0  0  0  0  0  0  0
   17.1073    6.5138    9.0357 F   0  0  0  0  0  0  0  0  0  0  0  0
   16.6480    6.5737   10.2474 C   0  0  0  0  0  0  0  0  0  0  0  0
   16.0714    8.6221    9.3270 F   0  0  0  0  0  0  0  0  0  0  0  0
   16.9581    8.5022   11.2797 F   0  0  0  0  0  0  0  0  0  0  0  0
   16.0937    7.9392   10.4748 C   0  0  0  0  0  0  0  0  0  0  0  0
   14.3971    9.1500   11.2052 F   0  0  0  0  0  0  0  0  0  0  0  0
   14.4753    7.0961   11.9956 F   0  0  0  0  0  0  0  0  0  0  0  0
   13.8794    7.3597   10.0379 F   0  0  0  0  0  0  0  0  0  0  0  0
   14.6553    7.8951   10.9744 C   0  0  0  0  0  0  0  0  0  0  0  0
  8 11  1  0  0  0
 14 11  1  0  0  0
 12 11  2  0  0  0
 11 13  2  0  0  0
 17  1  1  0  0  0
  1  3  1  0  0  0
  2  3  2  0  0  0
  3  5  1  0  0  0
  5  9  2  0  0  0
  5  7  1  0  0  0
  7  6  2  0  0  0
  6  8  1  0  0  0
 10  8  2  0  0  0
  9 10  1  0  0  0
 20 18  1  0  0  0
 21 23  1  0  0  0
 24 27  1  0  0  0
 20 19  1  0  0  0
 22 23  1  0  0  0
 27 25  1  0  0  0
 27 26  1  0  0  0
 17 20  1  0  0  0
 23 20  1  0  0  0
 23 27  1  0  0  0
  1  4  1  0  0  0
 14 15  1  0  0  0
 14 16  1  0  0  0
M  END
> <minimizedAffinity>
-7.59949

$$$$
3RYZ_RYZ_A_262


 27 27  0  0  0  0  0  0  0  0999 V2000
   15.9589    4.6399   14.3951 N   0  0  0  0  0  0  0  0  0  0  0  0
   17.8724    3.4607   14.2319 O   0  0  0  0  0  0  0  0  0  0  0  0
   17.2800    4.5600   14.2602 C   0  0  0  0  0  0  0  0  0  0  0  0
   15.5405    5.5303   14.4317 H   0  0  0  0  0  0  0  0  0  0  0  0
   18.0983    5.7847   14.1597 C   0  0  0  0  0  0  0  0  0  0  0  0
   20.0757    7.0272   13.3330 C   0  0  0  0  0  0  0  0  0  0  0  0
   19.2743    5.8296   13.3905 C   0  0  0  0  0  0  0  0  0  0  0  0
   19.7101    8.1712   14.0792 C   0  0  0  0  0  0  0  0  0  0  0  0
   17.6989    6.9217   14.8896 C   0  0  0  0  0  0  0  0  0  0  0  0
   18.4692    8.1218   14.8349 C   0  0  0  0  0  0  0  0  0  0  0  0
   20.6833    9.5204   13.9659 S   0  0  0  0  0  0  0  0  0  0  0  0
   20.8177   10.0285   15.3436 O   0  0  0  0  0  0  0  0  0  0  0  0
   20.0976   10.4321   13.0311 O   0  0  0  0  0  0  0  0  0  0  0  0
   22.1135    9.0149   13.4129 N   0  0  0  0  0  0  0  0  0  0  0  0
   22.5267    8.3657   14.0823 H   0  0  0  0  0  0  0  0  0  0  0  0
   22.7327    9.8160   13.2895 H   0  0  0  0  0  0  0  0  0  0  0  0
   15.0945    3.4454   14.4921 C   0  0  0  0  0  0  0  0  0  0  0  0
   13.4833    3.2330   16.2776 F   0  0  0  0  0  0  0  0  0  0  0  0
   15.1596    4.1066   16.7756 F   0  0  0  0  0  0  0  0  0  0  0  0
   14.7814    3.1477   15.9882 C   0  0  0  0  0  0  0  0  0  0  0  0
   16.6851    2.1913   16.9029 F   0  0  0  0  0  0  0  0  0  0  0  0
   15.6533    1.2483   15.2720 F   0  0  0  0  0  0  0  0  0  0  0  0
   15.4849    1.8976   16.3954 C   0  0  0  0  0  0  0  0  0  0  0  0
   14.7841    1.9776   18.4884 F   0  0  0  0  0  0  0  0  0  0  0  0
   15.2060   -0.0468   17.7313 F   0  0  0  0  0  0  0  0  0  0  0  0
   13.4930    0.8968   17.0739 F   0  0  0  0  0  0  0  0  0  0  0  0
   14.7308    1.1481   17.4864 C   0  0  0  0  0  0  0  0  0  0  0  0
  8 11  1  0  0  0
 14 11  1  0  0  0
 12 11  2  0  0  0
 11 13  2  0  0  0
 17  1  1  0  0  0
  1  3  1  0  0  0
  2  3  2  0  0  0
  3  5  1  0  0  0
  5  9  2  0  0  0
  5  7  1  0  0  0
  7  6  2  0  0  0
  6  8  1  0  0  0
 10  8  2  0  0  0
  9 10  1  0  0  0
 20 18  1  0  0  0
 21 23  1  0  0  0
 24 27  1  0  0  0
 20 19  1  0  0  0
 22 23  1  0  0  0
 27 25  1  0  0  0
 27 26  1  0  0  0
 17 20  1  0  0  0
 23 20  1  0  0  0
 23 27  1  0  0  0
  1  4  1  0  0  0
 14 15  1  0  0  0
 14 16  1  0  0  0
M  END
> <minimizedAffinity>
-7.40419

$$$$
3RYZ_RYZ_A_262


 27 27  0  0  0  0  0  0  0  0999 V2000
   17.7886    6.1369   13.5509 N   0  0  0  0  0  0  0  0  0  0  0  0
   15.7217    6.1305   12.6528 O   0  0  0  0  0  0  0  0  0  0  0  0
   16.5411    5.6800   13.4809 C   0  0  0  0  0  0  0  0  0  0  0  0
   18.3911    5.7633   14.2340 H   0  0  0  0  0  0  0  0  0  0  0  0
   16.0756    4.6277   14.4060 C   0  0  0  0  0  0  0  0  0  0  0  0
   14.4495    3.7208   16.0404 C   0  0  0  0  0  0  0  0  0  0  0  0
   14.8687    4.7464   15.1171 C   0  0  0  0  0  0  0  0  0  0  0  0
   15.2648    2.5893   16.2734 C   0  0  0  0  0  0  0  0  0  0  0  0
   16.8910    3.4954   14.6009 C   0  0  0  0  0  0  0  0  0  0  0  0
   16.4881    2.4616   15.4985 C   0  0  0  0  0  0  0  0  0  0  0  0
   14.7183    1.4434   17.3544 S   0  0  0  0  0  0  0  0  0  0  0  0
   13.3235    1.1652   16.9651 O   0  0  0  0  0  0  0  0  0  0  0  0
   14.8952    1.9442   18.6833 O   0  0  0  0  0  0  0  0  0  0  0  0
   15.6328    0.1303   17.1394 N   0  0  0  0  0  0  0  0  0  0  0  0
   15.5033   -0.2227   16.1913 H   0  0  0  0  0  0  0  0  0  0  0  0
   15.3593   -0.5880   17.8100 H   0  0  0  0  0  0  0  0  0  0  0  0
   18.3058    7.1827   12.6442 C   0  0  0  0  0  0  0  0  0  0  0  0
   20.7089    7.0970   12.4283 F   0  0  0  0  0  0  0  0  0  0  0  0
   20.0438    7.1187   14.2663 F   0  0  0  0  0  0  0  0  0  0  0  0
   19.7133    7.6423   13.1263 C   0  0  0  0  0  0  0  0  0  0  0  0
   18.8128    9.6702   12.4537 F   0  0  0  0  0  0  0  0  0  0  0  0
   20.9130    9.4785   12.8615 F   0  0  0  0  0  0  0  0  0  0  0  0
   19.7205    9.1266   13.2692 C   0  0  0  0  0  0  0  0  0  0  0  0
   20.5029    9.6214   15.2743 F   0  0  0  0  0  0  0  0  0  0  0  0
   18.4632    8.7915   15.2566 F   0  0  0  0  0  0  0  0  0  0  0  0
   18.7235   10.7384   14.6249 F   0  0  0  0  0  0  0  0  0  0  0  0
   19.3465    9.5660   14.6790 C   0  0  0  0  0  0  0  0  0  0  0  0
  8 11  1  0  0  0
 14 11  1  0  0  0
 12 11  2  0  0  0
 11 13  2  0  0  0
 17  1  1  0  0  0
  1  3  1  0  0  0
  2  3  2  0  0  0
  3  5  1  0  0  0
  5  9  2  0  0  0
  5  7  1  0  0  0
  7  6  2  0  0  0
  6  8  1  0  0  0
 10  8  2  0  0  0
  9 10  1  0  0  0
 20 18  1  0  0  0
 21 23  1  0  0  0
 24 27  1  0  0  0
 20 19  1  0  0  0
 22 23  1  0  0  0
 27 25  1  0  0  0
 27 26  1  0  0  0
 17 20  1  0  0  0
 23 20  1  0  0  0
 23 27  1  0  0  0
  1  4  1  0  0  0
 14 15  1  0  0  0
 14 16  1  0  0  0
M  END
> <minimizedAffinity>
-7.32589

$$$$
3RYZ_RYZ_A_262


 27 27  0  0  0  0  0  0  0  0999 V2000
   16.7029    4.4524   13.9258 N   0  0  0  0  0  0  0  0  0  0  0  0
   18.6767    3.7963   14.7930 O   0  0  0  0  0  0  0  0  0  0  0  0
   17.9555    4.6916   14.3046 C   0  0  0  0  0  0  0  0  0  0  0  0
   16.1681    5.1959   13.5646 H   0  0  0  0  0  0  0  0  0  0  0  0
   18.5314    6.0449   14.1767 C   0  0  0  0  0  0  0  0  0  0  0  0
   18.5095    8.4792   14.6366 C   0  0  0  0  0  0  0  0  0  0  0  0
   17.9483    7.1610   14.8020 C   0  0  0  0  0  0  0  0  0  0  0  0
   19.6404    8.6787   13.8118 C   0  0  0  0  0  0  0  0  0  0  0  0
   19.6757    6.2153   13.3726 C   0  0  0  0  0  0  0  0  0  0  0  0
   20.2560    7.5085   13.2075 C   0  0  0  0  0  0  0  0  0  0  0  0
   20.2356   10.2294   13.6656 S   0  0  0  0  0  0  0  0  0  0  0  0
   19.2022   11.1065   14.2461 O   0  0  0  0  0  0  0  0  0  0  0  0
   20.5453   10.4749   12.2901 O   0  0  0  0  0  0  0  0  0  0  0  0
   21.5855   10.2928   14.5490 N   0  0  0  0  0  0  0  0  0  0  0  0
   21.3596   10.1173   15.5281 H   0  0  0  0  0  0  0  0  0  0  0  0
   22.0083   11.2165   14.4579 H   0  0  0  0  0  0  0  0  0  0  0  0
   16.0822    3.1152   14.0256 C   0  0  0  0  0  0  0  0  0  0  0  0
   13.9871    3.1313   15.2253 F   0  0  0  0  0  0  0  0  0  0  0  0
   15.4638    4.0405   16.1273 F   0  0  0  0  0  0  0  0  0  0  0  0
   15.3052    2.9992   15.3701 C   0  0  0  0  0  0  0  0  0  0  0  0
   16.9650    2.0580   16.6873 F   0  0  0  0  0  0  0  0  0  0  0  0
   15.9678    0.9005   15.1774 F   0  0  0  0  0  0  0  0  0  0  0  0
   15.7878    1.7988   16.1116 C   0  0  0  0  0  0  0  0  0  0  0  0
   13.8363    0.8822   16.5905 F   0  0  0  0  0  0  0  0  0  0  0  0
   14.5288    2.3914   18.0369 F   0  0  0  0  0  0  0  0  0  0  0  0
   15.4496    0.5450   18.0463 F   0  0  0  0  0  0  0  0  0  0  0  0
   14.8393    1.4035   17.2362 C   0  0  0  0  0  0  0  0  0  0  0  0
  8 11  1  0  0  0
 14 11  1  0  0  0
 12 11  2  0  0  0
 11 13  2  0  0  0
 17  1  1  0  0  0
  1  3  1  0  0  0
  2  3  2  0  0  0
  3  5  1  0  0  0
  5  9  2  0  0  0
  5  7  1  0  0  0
  7  6  2  0  0  0
  6  8  1  0  0  0
 10  8  2  0  0  0
  9 10  1  0  0  0
 20 18  1  0  0  0
 21 23  1  0  0  0
 24 27  1  0  0  0
 20 19  1  0  0  0
 22 23  1  0  0  0
 27 25  1  0  0  0
 27 26  1  0  0  0
 17 20  1  0  0  0
 23 20  1  0  0  0
 23 27  1  0  0  0
  1  4  1  0  0  0
 14 15  1  0  0  0
 14 16  1  0  0  0
M  END
> <minimizedAffinity>
-7.22981

$$$$
3RYZ_RYZ_A_262


 27 27  0  0  0  0  0  0  0  0999 V2000
   16.7070    4.2409   14.3334 N   0  0  0  0  0  0  0  0  0  0  0  0
   15.2642    5.5327   13.1810 O   0  0  0  0  0  0  0  0  0  0  0  0
   16.3579    5.3934   13.7680 C   0  0  0  0  0  0  0  0  0  0  0  0
   17.5883    4.1751   14.7672 H   0  0  0  0  0  0  0  0  0  0  0  0
   17.2735    6.5511   13.7995 C   0  0  0  0  0  0  0  0  0  0  0  0
   18.5968    8.2554   15.0170 C   0  0  0  0  0  0  0  0  0  0  0  0
   17.7285    7.1038   15.0095 C   0  0  0  0  0  0  0  0  0  0  0  0
   18.9798    8.8724   13.8038 C   0  0  0  0  0  0  0  0  0  0  0  0
   17.6649    7.1320   12.5771 C   0  0  0  0  0  0  0  0  0  0  0  0
   18.5354    8.2627   12.5611 C   0  0  0  0  0  0  0  0  0  0  0  0
   19.9848   10.2003   13.8873 S   0  0  0  0  0  0  0  0  0  0  0  0
   19.0956   11.3569   14.1018 O   0  0  0  0  0  0  0  0  0  0  0  0
   20.7793   10.2506   12.6980 O   0  0  0  0  0  0  0  0  0  0  0  0
   20.9378    9.9801   15.1718 N   0  0  0  0  0  0  0  0  0  0  0  0
   20.3672    9.9449   16.0165 H   0  0  0  0  0  0  0  0  0  0  0  0
   21.5997   10.7531   15.2405 H   0  0  0  0  0  0  0  0  0  0  0  0
   15.8247    3.0556   14.3363 C   0  0  0  0  0  0  0  0  0  0  0  0
   17.0844    2.5414   16.3307 F   0  0  0  0  0  0  0  0  0  0  0  0
   16.0542    1.0515   15.5959 F   0  0  0  0  0  0  0  0  0  0  0  0
   15.9209    2.3364   15.7141 C   0  0  0  0  0  0  0  0  0  0  0  0
   13.6115    2.1686   15.8328 F   0  0  0  0  0  0  0  0  0  0  0  0
   14.6275    3.9183   16.5540 F   0  0  0  0  0  0  0  0  0  0  0  0
   14.6822    2.6122   16.4970 C   0  0  0  0  0  0  0  0  0  0  0  0
   13.5716    1.2135   17.7963 F   0  0  0  0  0  0  0  0  0  0  0  0
   14.8048    2.6899   18.8681 F   0  0  0  0  0  0  0  0  0  0  0  0
   15.7650    1.1248   17.9270 F   0  0  0  0  0  0  0  0  0  0  0  0
   14.6827    1.8906   17.8386 C   0  0  0  0  0  0  0  0  0  0  0  0
  8 11  1  0  0  0
 14 11  1  0  0  0
 12 11  2  0  0  0
 11 13  2  0  0  0
 17  1  1  0  0  0
  1  3  1  0  0  0
  2  3  2  0  0  0
  3  5  1  0  0  0
  5  9  2  0  0  0
  5  7  1  0  0  0
  7  6  2  0  0  0
  6  8  1  0  0  0
 10  8  2  0  0  0
  9 10  1  0  0  0
 20 18  1  0  0  0
 21 23  1  0  0  0
 24 27  1  0  0  0
 20 19  1  0  0  0
 22 23  1  0  0  0
 27 25  1  0  0  0
 27 26  1  0  0  0
 17 20  1  0  0  0
 23 20  1  0  0  0
 23 27  1  0  0  0
  1  4  1  0  0  0
 14 15  1  0  0  0
 14 16  1  0  0  0
M  END
> <minimizedAffinity>
-7.15518

$$$$
3RYZ_RYZ_A_262


 27 27  0  0  0  0  0  0  0  0999 V2000
   16.0408    5.2805   14.1062 N   0  0  0  0  0  0  0  0  0  0  0  0
   18.0286    5.2775   13.0445 O   0  0  0  0  0  0  0  0  0  0  0  0
   16.8637    5.7145   13.1553 C   0  0  0  0  0  0  0  0  0  0  0  0
   15.1385    5.6701   14.1644 H   0  0  0  0  0  0  0  0  0  0  0  0
   16.4261    6.7543   12.2029 C   0  0  0  0  0  0  0  0  0  0  0  0
   16.8822    8.6752   10.7063 C   0  0  0  0  0  0  0  0  0  0  0  0
   17.3362    7.6461   11.6089 C   0  0  0  0  0  0  0  0  0  0  0  0
   15.5043    8.8281   10.4282 C   0  0  0  0  0  0  0  0  0  0  0  0
   15.0510    6.8696   11.9187 C   0  0  0  0  0  0  0  0  0  0  0  0
   14.5818    7.8712   11.0169 C   0  0  0  0  0  0  0  0  0  0  0  0
   15.0506   10.0394    9.3760 S   0  0  0  0  0  0  0  0  0  0  0  0
   14.8874   11.2459   10.2079 O   0  0  0  0  0  0  0  0  0  0  0  0
   13.8790    9.6193    8.6696 O   0  0  0  0  0  0  0  0  0  0  0  0
   16.2728   10.2345    8.3393 N   0  0  0  0  0  0  0  0  0  0  0  0
   17.1051   10.5338    8.8473 H   0  0  0  0  0  0  0  0  0  0  0  0
   16.0231   10.9424    7.6487 H   0  0  0  0  0  0  0  0  0  0  0  0
   16.4270    4.2370   15.0784 C   0  0  0  0  0  0  0  0  0  0  0  0
   14.2174    3.3975   14.5865 F   0  0  0  0  0  0  0  0  0  0  0  0
   14.4539    4.0924   16.3983 F   0  0  0  0  0  0  0  0  0  0  0  0
   15.1624    3.4457   15.5250 C   0  0  0  0  0  0  0  0  0  0  0  0
   16.7305    2.3051   16.7960 F   0  0  0  0  0  0  0  0  0  0  0  0
   15.8055    1.3764   15.0943 F   0  0  0  0  0  0  0  0  0  0  0  0
   15.5848    2.1486   16.1273 C   0  0  0  0  0  0  0  0  0  0  0  0
   14.7715    2.4011   18.1651 F   0  0  0  0  0  0  0  0  0  0  0  0
   14.6698    0.3474   17.3769 F   0  0  0  0  0  0  0  0  0  0  0  0
   13.3457    1.7406   16.6268 F   0  0  0  0  0  0  0  0  0  0  0  0
   14.5679    1.6301   17.1361 C   0  0  0  0  0  0  0  0  0  0  0  0
  8 11  1  0  0  0
 14 11  1  0  0  0
 12 11  2  0  0  0
 11 13  2  0  0  0
 17  1  1  0  0  0
  1  3  1  0  0  0
  2  3  2  0  0  0
  3  5  1  0  0  0
  5  9  2  0  0  0
  5  7  1  0  0  0
  7  6  2  0  0  0
  6  8  1  0  0  0
 10  8  2  0  0  0
  9 10  1  0  0  0
 20 18  1  0  0  0
 21 23  1  0  0  0
 24 27  1  0  0  0
 20 19  1  0  0  0
 22 23  1  0  0  0
 27 25  1  0  0  0
 27 26  1  0  0  0
 17 20  1  0  0  0
 23 20  1  0  0  0
 23 27  1  0  0  0
  1  4  1  0  0  0
 14 15  1  0  0  0
 14 16  1  0  0  0
M  END
> <minimizedAffinity>
-6.93114

$$$$
3RYZ_RYZ_A_262


 27 27  0  0  0  0  0  0  0  0999 V2000
   17.9649    4.1084   14.3799 N   0  0  0  0  0  0  0  0  0  0  0  0
   17.6636    6.1472   13.4685 O   0  0  0  0  0  0  0  0  0  0  0  0
   18.3528    5.1139   13.6000 C   0  0  0  0  0  0  0  0  0  0  0  0
   18.5335    3.3066   14.4353 H   0  0  0  0  0  0  0  0  0  0  0  0
   19.6158    5.0286   12.8403 C   0  0  0  0  0  0  0  0  0  0  0  0
   21.6812    6.0392   11.9181 C   0  0  0  0  0  0  0  0  0  0  0  0
   20.4683    6.1367   12.6922 C   0  0  0  0  0  0  0  0  0  0  0  0
   22.0188    4.8325   11.2632 C   0  0  0  0  0  0  0  0  0  0  0  0
   19.9459    3.8075   12.2199 C   0  0  0  0  0  0  0  0  0  0  0  0
   21.1487    3.6849   11.4617 C   0  0  0  0  0  0  0  0  0  0  0  0
   23.4355    4.7914   10.3849 S   0  0  0  0  0  0  0  0  0  0  0  0
   23.2471    3.7298    9.3789 O   0  0  0  0  0  0  0  0  0  0  0  0
   24.5294    4.5940   11.2863 O   0  0  0  0  0  0  0  0  0  0  0  0
   23.5751    6.2289    9.6633 N   0  0  0  0  0  0  0  0  0  0  0  0
   22.7936    6.3649    9.0222 H   0  0  0  0  0  0  0  0  0  0  0  0
   24.4518    6.2645    9.1432 H   0  0  0  0  0  0  0  0  0  0  0  0
   16.7146    4.1470   15.1664 C   0  0  0  0  0  0  0  0  0  0  0  0
   16.1486    2.3627   13.6416 F   0  0  0  0  0  0  0  0  0  0  0  0
   14.6233    3.2269   14.5063 F   0  0  0  0  0  0  0  0  0  0  0  0
   15.8406    2.9059   14.8189 C   0  0  0  0  0  0  0  0  0  0  0  0
   16.9042    2.1426   16.7325 F   0  0  0  0  0  0  0  0  0  0  0  0
   15.8096    0.7944   15.4682 F   0  0  0  0  0  0  0  0  0  0  0  0
   15.7999    1.9916   15.9962 C   0  0  0  0  0  0  0  0  0  0  0  0
   15.0707    1.9174   18.0796 F   0  0  0  0  0  0  0  0  0  0  0  0
   13.5020    1.7419   16.5442 F   0  0  0  0  0  0  0  0  0  0  0  0
   14.3480    3.5973   16.8584 F   0  0  0  0  0  0  0  0  0  0  0  0
   14.6262    2.2993   16.9172 C   0  0  0  0  0  0  0  0  0  0  0  0
  8 11  1  0  0  0
 14 11  1  0  0  0
 12 11  2  0  0  0
 11 13  2  0  0  0
 17  1  1  0  0  0
  1  3  1  0  0  0
  2  3  2  0  0  0
  3  5  1  0  0  0
  5  9  2  0  0  0
  5  7  1  0  0  0
  7  6  2  0  0  0
  6  8  1  0  0  0
 10  8  2  0  0  0
  9 10  1  0  0  0
 20 18  1  0  0  0
 21 23  1  0  0  0
 24 27  1  0  0  0
 20 19  1  0  0  0
 22 23  1  0  0  0
 27 25  1  0  0  0
 27 26  1  0  0  0
 17 20  1  0  0  0
 23 20  1  0  0  0
 23 27  1  0  0  0
  1  4  1  0  0  0
 14 15  1  0  0  0
 14 16  1  0  0  0
M  END
> <minimizedAffinity>
-6.74435

$$$$
3RYZ_RYZ_A_262


 27 27  0  0  0  0  0  0  0  0999 V2000
   18.0356    6.6967   14.3740 N   0  0  0  0  0  0  0  0  0  0  0  0
   16.2690    6.3710   13.0133 O   0  0  0  0  0  0  0  0  0  0  0  0
   16.9456    6.0287   14.0058 C   0  0  0  0  0  0  0  0  0  0  0  0
   18.5240    6.3994   15.1754 H   0  0  0  0  0  0  0  0  0  0  0  0
   16.4853    4.8601   14.7817 C   0  0  0  0  0  0  0  0  0  0  0  0
   16.8645    2.6447   15.8240 C   0  0  0  0  0  0  0  0  0  0  0  0
   17.3443    3.7915   15.0929 C   0  0  0  0  0  0  0  0  0  0  0  0
   15.5077    2.5586   16.2128 C   0  0  0  0  0  0  0  0  0  0  0  0
   15.1358    4.8091   15.1833 C   0  0  0  0  0  0  0  0  0  0  0  0
   14.6437    3.6907   15.9206 C   0  0  0  0  0  0  0  0  0  0  0  0
   15.0220    1.2039   17.0548 S   0  0  0  0  0  0  0  0  0  0  0  0
   13.5636    1.1158   16.8558 O   0  0  0  0  0  0  0  0  0  0  0  0
   15.4481    1.3312   18.4151 O   0  0  0  0  0  0  0  0  0  0  0  0
   15.7587   -0.0577   16.3675 N   0  0  0  0  0  0  0  0  0  0  0  0
   15.4519   -0.1441   15.3986 H   0  0  0  0  0  0  0  0  0  0  0  0
   15.5210   -0.9089   16.8767 H   0  0  0  0  0  0  0  0  0  0  0  0
   18.5423    7.8672   13.6281 C   0  0  0  0  0  0  0  0  0  0  0  0
   20.3431    6.2953   13.2888 F   0  0  0  0  0  0  0  0  0  0  0  0
   20.9022    8.1504   13.5476 F   0  0  0  0  0  0  0  0  0  0  0  0
   19.9175    7.5210   12.9847 C   0  0  0  0  0  0  0  0  0  0  0  0
   21.1245    7.8701   11.0361 F   0  0  0  0  0  0  0  0  0  0  0  0
   19.4516    9.1217   11.5351 F   0  0  0  0  0  0  0  0  0  0  0  0
   19.8874    7.8880   11.5397 C   0  0  0  0  0  0  0  0  0  0  0  0
   19.1314    5.8152   11.4392 F   0  0  0  0  0  0  0  0  0  0  0  0
   19.4995    6.7610    9.4849 F   0  0  0  0  0  0  0  0  0  0  0  0
   17.8416    7.3619   10.5560 F   0  0  0  0  0  0  0  0  0  0  0  0
   19.0758    6.8963   10.7160 C   0  0  0  0  0  0  0  0  0  0  0  0
  8 11  1  0  0  0
 14 11  1  0  0  0
 12 11  2  0  0  0
 11 13  2  0  0  0
 17  1  1  0  0  0
  1  3  1  0  0  0
  2  3  2  0  0  0
  3  5  1  0  0  0
  5  9  2  0  0  0
  5  7  1  0  0  0
  7  6  2  0  0  0
  6  8  1  0  0  0
 10  8  2  0  0  0
  9 10  1  0  0  0
 20 18  1  0  0  0
 21 23  1  0  0  0
 24 27  1  0  0  0
 20 19  1  0  0  0
 22 23  1  0  0  0
 27 25  1  0  0  0
 27 26  1  0  0  0
 17 20  1  0  0  0
 23 20  1  0  0  0
 23 27  1  0  0  0
  1  4  1  0  0  0
 14 15  1  0  0  0
 14 16  1  0  0  0
M  END
> <minimizedAffinity>
-6.54284

$$$$
3RYZ_RYZ_A_262


 27 27  0  0  0  0  0  0  0  0999 V2000
   17.0595    6.1544   14.7568 N   0  0  0  0  0  0  0  0  0  0  0  0
   17.2309    6.4696   12.5319 O   0  0  0  0  0  0  0  0  0  0  0  0
   17.5307    6.8059   13.6969 C   0  0  0  0  0  0  0  0  0  0  0  0
   17.3408    6.4457   15.6541 H   0  0  0  0  0  0  0  0  0  0  0  0
   18.4509    7.9478   13.8675 C   0  0  0  0  0  0  0  0  0  0  0  0
   19.8014    9.4713   15.2792 C   0  0  0  0  0  0  0  0  0  0  0  0
   18.9290    8.3322   15.1324 C   0  0  0  0  0  0  0  0  0  0  0  0
   20.1652   10.2454   14.1534 C   0  0  0  0  0  0  0  0  0  0  0  0
   18.8228    8.6874   12.7275 C   0  0  0  0  0  0  0  0  0  0  0  0
   19.6969    9.8090   12.8482 C   0  0  0  0  0  0  0  0  0  0  0  0
   21.1762   11.5489   14.3967 S   0  0  0  0  0  0  0  0  0  0  0  0
   22.0016   11.1968   15.5668 O   0  0  0  0  0  0  0  0  0  0  0  0
   20.3785   12.7281   14.5422 O   0  0  0  0  0  0  0  0  0  0  0  0
   22.0982   11.6727   13.0771 N   0  0  0  0  0  0  0  0  0  0  0  0
   22.6646   10.8303   12.9778 H   0  0  0  0  0  0  0  0  0  0  0  0
   22.7092   12.4848   13.1643 H   0  0  0  0  0  0  0  0  0  0  0  0
   16.1307    5.0111   14.6407 C   0  0  0  0  0  0  0  0  0  0  0  0
   17.9323    3.7133   15.5890 F   0  0  0  0  0  0  0  0  0  0  0  0
   17.6786    3.4930   13.6633 F   0  0  0  0  0  0  0  0  0  0  0  0
   16.9327    3.6780   14.7083 C   0  0  0  0  0  0  0  0  0  0  0  0
   16.2100    1.6531   13.8405 F   0  0  0  0  0  0  0  0  0  0  0  0
   14.8067    3.0853   14.6108 F   0  0  0  0  0  0  0  0  0  0  0  0
   15.9775    2.5377   14.8140 C   0  0  0  0  0  0  0  0  0  0  0  0
   15.8525    2.6907   17.0137 F   0  0  0  0  0  0  0  0  0  0  0  0
   17.3057    1.2123   16.2707 F   0  0  0  0  0  0  0  0  0  0  0  0
   15.2993    0.7484   16.1435 F   0  0  0  0  0  0  0  0  0  0  0  0
   16.1355    1.7809   16.1266 C   0  0  0  0  0  0  0  0  0  0  0  0
  8 11  1  0  0  0
 14 11  1  0  0  0
 12 11  2  0  0  0
 11 13  2  0  0  0
 17  1  1  0  0  0
  1  3  1  0  0  0
  2  3  2  0  0  0
  3  5  1  0  0  0
  5  9  2  0  0  0
  5  7  1  0  0  0
  7  6  2  0  0  0
  6  8  1  0  0  0
 10  8  2  0  0  0
  9 10  1  0  0  0
 20 18  1  0  0  0
 21 23  1  0  0  0
 24 27  1  0  0  0
 20 19  1  0  0  0
 22 23  1  0  0  0
 27 25  1  0  0  0
 27 26  1  0  0  0
 17 20  1  0  0  0
 23 20  1  0  0  0
 23 27  1  0  0  0
  1  4  1  0  0  0
 14 15  1  0  0  0
 14 16  1  0  0  0
M  END
> <minimizedAffinity>
-6.54148

$$$$
