3NZK_C90_A_501
  RCSB PDB12061709593D
Coordinates from PDB:3NZK:A:501 Model:1 without hydrogens
 32 34  0  0  0  0            999 V2000
   -0.0910  -19.6980  -15.0970   C 0  0  0  0  0  0  0  0  0  0  0  0
   -0.8190  -20.3800  -13.9420   C 0  0  0  0  0  0  0  0  0  0  0  0
   -2.1430  -21.6730  -11.7320   C 0  0  0  0  0  0  0  0  0  0  0  0
   -2.8030  -22.2980  -10.6540   C 0  0  0  0  0  0  0  0  0  0  0  0
    1.9730  -16.1540  -13.8630   O 0  0  0  0  0  0  0  0  0  0  0  0
   -3.3700  -22.8340   -9.7300   C 0  0  0  0  0  0  0  0  0  0  0  0
   -4.0440  -23.3770   -8.6020   C 0  0  0  0  0  0  0  0  0  0  0  0
   -8.7250  -23.7990   -3.1500   C 0  0  0  0  0  0  0  0  0  0  0  0
   -5.4430  -24.3660   -6.2780   C 0  0  0  0  0  0  0  0  0  0  0  0
   -6.1670  -24.8220   -5.1310   C 0  0  0  0  0  0  0  0  0  0  0  0
   -8.3590  -25.0610   -4.0190   C 0  0  0  0  0  0  0  0  0  0  0  0
   -7.5580  -22.8590   -2.8100   C 0  0  0  0  0  0  0  0  0  0  0  0
   -9.5460  -25.8140   -4.6430   C 0  0  0  0  0  0  0  0  0  0  0  0
    1.8080  -16.4100  -15.2610   C 0  0  0  0  0  0  0  0  0  0  0  0
    0.7680  -16.4410  -13.1590   C 0  0  0  0  0  0  0  0  0  0  0  0
    1.4410  -17.9080  -15.4910   C 0  0  0  0  0  0  0  0  0  0  0  0
    0.5330  -17.9510  -13.3100   C 0  0  0  0  0  0  0  0  0  0  0  0
    0.2410  -18.2770  -14.7240   N 0  0  0  0  0  0  0  0  0  0  0  0
   -0.1260  -21.3960  -13.1790   C 0  0  0  0  0  0  0  0  0  0  0  0
   -2.1800  -20.0090  -13.6020   C 0  0  0  0  0  0  0  0  0  0  0  0
   -0.7910  -22.0400  -12.0690   C 0  0  0  0  0  0  0  0  0  0  0  0
   -2.8450  -20.6600  -12.4900   C 0  0  0  0  0  0  0  0  0  0  0  0
   -5.4830  -23.3180   -8.5620   C 0  0  0  0  0  0  0  0  0  0  0  0
   -3.2920  -23.9150   -7.4930   C 0  0  0  0  0  0  0  0  0  0  0  0
   -6.1800  -23.8040   -7.4060   C 0  0  0  0  0  0  0  0  0  0  0  0
   -3.9790  -24.4190   -6.3240   C 0  0  0  0  0  0  0  0  0  0  0  0
   -5.5540  -25.2220   -4.1320   O 0  0  0  0  0  0  0  0  0  0  0  0
   -7.4790  -24.6370   -5.1200   N 0  0  0  0  0  0  0  0  0  0  0  0
   -9.6690  -23.0000   -3.8650   O 0  0  0  0  0  0  0  0  0  0  0  0
   -9.7130  -27.0510   -4.2510   N 0  0  0  0  0  0  0  0  0  0  0  0
  -10.4490  -25.1740   -5.1430   O 0  0  0  0  0  0  0  0  0  0  0  0
  -10.8340  -27.6990   -4.5260   O 0  0  0  0  0  0  0  0  0  0  0  0
 17 15  1  0  0  0  0
 17 18  1  0  0  0  0
 20 22  2  0  0  0  0
 20  2  1  0  0  0  0
 15  5  1  0  0  0  0
  1 18  1  0  0  0  0
  1  2  1  0  0  0  0
 22  3  1  0  0  0  0
 18 16  1  0  0  0  0
  2 19  2  0  0  0  0
  5 14  1  0  0  0  0
  3  4  1  0  0  0  0
  3 21  2  0  0  0  0
 16 14  1  0  0  0  0
 31 13  2  0  0  0  0
 19 21  1  0  0  0  0
  4  6  3  0  0  0  0
 23 25  2  0  0  0  0
 23  7  1  0  0  0  0
  6  7  1  0  0  0  0
 12  8  1  0  0  0  0
 25  9  1  0  0  0  0
  7 24  2  0  0  0  0
 32 30  1  0  0  0  0
 13 30  1  0  0  0  0
 13 11  1  0  0  0  0
 28 11  1  0  0  0  0
 28 10  1  0  0  0  0
  9 10  1  0  0  0  0
  9 26  2  0  0  0  0
 24 26  1  0  0  0  0
 11  8  1  0  0  0  0
  8 29  1  0  0  0  0
 10 27  2  0  0  0  0
A    1
C5
A    2
C6
A    3
C9
A    4
C10
A    5
O1
A    6
C11
A    7
C12
A    8
C19
A    9
C15
A   10
C16
A   11
C18
A   12
C21
A   13
C22
A   14
CA1
A   15
CA2
A   16
CB1
A   17
CB2
A   18
N4
A   19
CC1
A   20
CC2
A   21
CD1
A   22
CD2
A   23
CE1
A   24
CE2
A   25
CF1
A   26
CF
A   27
O16
A   28
N17
A   29
O20
A   30
N23
A   31
O22
A   32
O24
M  END
>  <InstanceId>
3NZK_C90_A_501

>  <ChemCompId>
C90

>  <PdbId>
3NZK

>  <ChainId>
A

>  <ResidueNumber>
501

>  <InsertionCode>


>  <Model>
1

>  <AltIds>


>  <MissingHeavyAtoms>
0

>  <ObservedFormula>
C24 N3 O5

>  <Name>
N-{(1S,2R)-2-hydroxy-1-[(hydroxyamino)carbonyl]propyl}-4-{[4-(morpholin-4-ylmethyl)phenyl]ethynyl}benzamide

>  <SystematicName>
N-[(2S,3R)-3-hydroxy-1-(hydroxyamino)-1-oxo-butan-2-yl]-4-[2-[4-(morpholin-4-ylmethyl)phenyl]ethynyl]benzamide

>  <Synonyms>


>  <Type>
NON-POLYMER

>  <Formula>
C24 H27 N3 O5

>  <MolecularWeight>
437.488

>  <ModifiedDate>
2011-06-04

>  <Parent>


>  <OneLetterCode>


>  <SubcomponentList>


>  <AmbiguousFlag>


>  <InChI>
InChI=1S/C24H27N3O5/c1-17(28)22(24(30)26-31)25-23(29)21-10-8-19(9-11-21)3-2-18-4-6-20(7-5-18)16-27-12-14-32-15-13-27/h4-11,17,22,28,31H,12-16H2,1H3,(H,25,29)(H,26,30)/t17-,22+/m1/s1

>  <InChIKey>
FQYBTYFKOHPWQT-VGSWGCGISA-N

>  <SMILES>
C[C@H]([C@@H](C(=O)NO)NC(=O)c1ccc(cc1)C#Cc2ccc(cc2)CN3CCOCC3)O

$$$$
