1SDT_MK1_B_902


 49 53  0  0  0  0  0  0  0  0999 V2000
   23.7565   15.7961    5.0825 C   0  0  0  0  0  0  0  0  0  0  0  0
   24.4486   14.6481    4.7260 O   0  0  0  0  0  0  0  0  0  0  0  0
   25.2595   14.5823    5.2542 H   0  0  0  0  0  0  0  0  0  0  0  0
   24.7090   16.9717    4.7919 C   0  0  0  0  0  0  0  0  0  0  0  0
   23.6497   20.6233    2.9243 N   0  0  0  0  0  0  0  0  0  0  0  0
   23.7522   20.5462    4.4183 C   0  0  0  0  0  0  0  0  0  0  0  0
   24.6379   19.4244    4.9352 C   0  0  0  0  0  0  0  0  0  0  0  0
   23.9700   18.1632    4.4427 N   0  0  0  0  0  0  0  0  0  0  0  0
   23.8451   18.1607    2.9673 C   0  0  0  0  0  0  0  0  0  0  0  0
   23.1524   19.3901    2.4651 C   0  0  0  0  0  0  0  0  0  0  0  0
   24.6614   19.4956    6.4257 C   0  0  0  0  0  0  0  0  0  0  0  0
   23.6096   19.3730    7.0658 O   0  0  0  0  0  0  0  0  0  0  0  0
   25.8510   19.6951    6.9848 N   0  0  0  0  0  0  0  0  0  0  0  0
   26.6326   19.7683    6.3907 H   0  0  0  0  0  0  0  0  0  0  0  0
   26.0699   19.8111    8.4023 C   0  0  0  0  0  0  0  0  0  0  0  0
   27.5747   20.1495    8.5516 C   0  0  0  0  0  0  0  0  0  0  0  0
   25.7816   18.5567    9.0045 C   0  0  0  0  0  0  0  0  0  0  0  0
   25.3008   20.9070    8.9726 C   0  0  0  0  0  0  0  0  0  0  0  0
   22.7966   21.7583    2.5440 C   0  0  0  0  0  0  0  0  0  0  0  0
   23.3752   23.1822    2.5980 C   0  0  0  0  0  0  0  0  0  0  0  0
   24.4751   23.5428    1.7958 C   0  0  0  0  0  0  0  0  0  0  0  0
   25.0732   24.8204    1.7360 N   0  0  0  0  0  0  0  0  0  0  0  0
   24.4134   25.6956    2.6000 C   0  0  0  0  0  0  0  0  0  0  0  0
   23.3178   25.4246    3.4109 C   0  0  0  0  0  0  0  0  0  0  0  0
   22.7851   24.1440    3.4197 C   0  0  0  0  0  0  0  0  0  0  0  0
   23.3495   15.7095    6.5642 C   0  0  0  0  0  0  0  0  0  0  0  0
   22.5018   14.4583    6.9366 C   0  0  0  0  0  0  0  0  0  0  0  0
   21.1306   14.5500    6.3341 C   0  0  0  0  0  0  0  0  0  0  0  0
   20.3556   15.4916    6.5326 O   0  0  0  0  0  0  0  0  0  0  0  0
   20.7687   13.4831    5.6457 N   0  0  0  0  0  0  0  0  0  0  0  0
   21.4667   12.8535    5.3529 H   0  0  0  0  0  0  0  0  0  0  0  0
   19.4200   13.2031    5.3091 C   0  0  0  0  0  0  0  0  0  0  0  0
   18.9386   11.7894    5.5727 C   0  0  0  0  0  0  0  0  0  0  0  0
   19.9303   10.8283    5.1797 O   0  0  0  0  0  0  0  0  0  0  0  0
   17.7171   11.6110    4.6704 C   0  0  0  0  0  0  0  0  0  0  0  0
   18.0132   12.3987    3.4185 C   0  0  0  0  0  0  0  0  0  0  0  0
   17.5546   12.3710    2.1365 C   0  0  0  0  0  0  0  0  0  0  0  0
   18.0687   13.3024    1.2363 C   0  0  0  0  0  0  0  0  0  0  0  0
   19.0080   14.2554    1.5877 C   0  0  0  0  0  0  0  0  0  0  0  0
   19.4885   14.3072    2.8843 C   0  0  0  0  0  0  0  0  0  0  0  0
   19.0695   13.4457    3.8279 C   0  0  0  0  0  0  0  0  0  0  0  0
   20.1363   10.9427    4.2388 H   0  0  0  0  0  0  0  0  0  0  0  0
   22.4004   14.3786    8.4688 C   0  0  0  0  0  0  0  0  0  0  0  0
   21.5091   13.2783    8.9276 C   0  0  0  0  0  0  0  0  0  0  0  0
   20.3901   13.5401    9.6836 C   0  0  0  0  0  0  0  0  0  0  0  0
   19.5126   12.5390   10.0513 C   0  0  0  0  0  0  0  0  0  0  0  0
   19.8097   11.2289    9.6650 C   0  0  0  0  0  0  0  0  0  0  0  0
   20.9425   10.9567    8.9191 C   0  0  0  0  0  0  0  0  0  0  0  0
   21.7922   11.9852    8.5315 C   0  0  0  0  0  0  0  0  0  0  0  0
  5  6  1  0  0  0
  5 10  1  0  0  0
  5 19  1  0  0  0
  6  7  1  0  0  0
  7 11  1  0  0  0
  7  8  1  0  0  0
 11 12  2  0  0  0
 11 13  1  0  0  0
 13 15  1  0  0  0
 15 16  1  0  0  0
 15 17  1  0  0  0
 15 18  1  0  0  0
  8  9  1  0  0  0
  8  4  1  0  0  0
  9 10  1  0  0  0
  4  1  1  0  0  0
  1  2  1  0  0  0
  1 26  1  0  0  0
 26 27  1  0  0  0
 27 43  1  0  0  0
 27 28  1  0  0  0
 43 44  1  0  0  0
 44 45  2  0  0  0
 44 49  1  0  0  0
 45 46  1  0  0  0
 46 47  2  0  0  0
 47 48  1  0  0  0
 48 49  2  0  0  0
 28 29  2  0  0  0
 28 30  1  0  0  0
 30 32  1  0  0  0
 32 33  1  0  0  0
 32 41  1  0  0  0
 33 34  1  0  0  0
 33 35  1  0  0  0
 35 36  1  0  0  0
 36 37  2  0  0  0
 36 41  1  0  0  0
 37 38  1  0  0  0
 38 39  2  0  0  0
 39 40  1  0  0  0
 40 41  2  0  0  0
 19 20  1  0  0  0
 20 21  1  0  0  0
 20 25  2  0  0  0
 21 22  2  0  0  0
 22 23  1  0  0  0
 23 24  2  0  0  0
 24 25  1  0  0  0
 13 14  1  0  0  0
  2  3  1  0  0  0
 30 31  1  0  0  0
 34 42  1  0  0  0
M  END
> <minimizedAffinity>
-12.71421

$$$$
1SDT_MK1_B_902


 49 53  0  0  0  0  0  0  0  0999 V2000
   23.2452   19.5050    3.4000 C   0  0  0  0  0  0  0  0  0  0  0  0
   22.8214   19.2602    2.1021 O   0  0  0  0  0  0  0  0  0  0  0  0
   23.5705   18.9480    1.5708 H   0  0  0  0  0  0  0  0  0  0  0  0
   24.3403   20.5833    3.2911 C   0  0  0  0  0  0  0  0  0  0  0  0
   23.0942   24.6206    3.5923 N   0  0  0  0  0  0  0  0  0  0  0  0
   24.2757   24.1389    4.3800 C   0  0  0  0  0  0  0  0  0  0  0  0
   24.9566   22.9054    3.8097 C   0  0  0  0  0  0  0  0  0  0  0  0
   23.8921   21.8359    3.8547 N   0  0  0  0  0  0  0  0  0  0  0  0
   22.6932   22.2364    3.0835 C   0  0  0  0  0  0  0  0  0  0  0  0
   22.1652   23.5664    3.5259 C   0  0  0  0  0  0  0  0  0  0  0  0
   26.1206   22.5685    4.6808 C   0  0  0  0  0  0  0  0  0  0  0  0
   27.1520   22.1038    4.1796 O   0  0  0  0  0  0  0  0  0  0  0  0
   25.9652   22.7957    5.9815 N   0  0  0  0  0  0  0  0  0  0  0  0
   25.1102   23.1795    6.2830 H   0  0  0  0  0  0  0  0  0  0  0  0
   26.9661   22.5169    6.9770 C   0  0  0  0  0  0  0  0  0  0  0  0
   26.2694   22.7840    8.3351 C   0  0  0  0  0  0  0  0  0  0  0  0
   28.0485   23.4184    6.7893 C   0  0  0  0  0  0  0  0  0  0  0  0
   27.3753   21.1208    6.9452 C   0  0  0  0  0  0  0  0  0  0  0  0
   22.5400   25.8291    4.2193 C   0  0  0  0  0  0  0  0  0  0  0  0
   21.0597   26.1795    3.9931 C   0  0  0  0  0  0  0  0  0  0  0  0
   20.6698   26.9908    2.9101 C   0  0  0  0  0  0  0  0  0  0  0  0
   19.3455   27.3555    2.5831 N   0  0  0  0  0  0  0  0  0  0  0  0
   18.4566   26.7922    3.4998 C   0  0  0  0  0  0  0  0  0  0  0  0
   18.7568   25.9733    4.5818 C   0  0  0  0  0  0  0  0  0  0  0  0
   20.0823   25.6599    4.8435 C   0  0  0  0  0  0  0  0  0  0  0  0
   23.7561   18.1960    4.0275 C   0  0  0  0  0  0  0  0  0  0  0  0
   23.3695   17.9933    5.5215 C   0  0  0  0  0  0  0  0  0  0  0  0
   21.9650   17.4782    5.6392 C   0  0  0  0  0  0  0  0  0  0  0  0
   21.0927   18.0159    6.3296 O   0  0  0  0  0  0  0  0  0  0  0  0
   21.7548   16.3312    5.0200 N   0  0  0  0  0  0  0  0  0  0  0  0
   22.4010   16.0406    4.3365 H   0  0  0  0  0  0  0  0  0  0  0  0
   20.6401   15.4991    5.2951 C   0  0  0  0  0  0  0  0  0  0  0  0
   20.8800   14.3433    6.2473 C   0  0  0  0  0  0  0  0  0  0  0  0
   22.1317   13.6986    5.9663 O   0  0  0  0  0  0  0  0  0  0  0  0
   19.7552   13.3491    5.9567 C   0  0  0  0  0  0  0  0  0  0  0  0
   19.4949   13.4461    4.4741 C   0  0  0  0  0  0  0  0  0  0  0  0
   18.9260   12.6295    3.5443 C   0  0  0  0  0  0  0  0  0  0  0  0
   18.8428   13.0893    2.2315 C   0  0  0  0  0  0  0  0  0  0  0  0
   19.2975   14.3346    1.8358 C   0  0  0  0  0  0  0  0  0  0  0  0
   19.8770   15.1849    2.7609 C   0  0  0  0  0  0  0  0  0  0  0  0
   20.0192   14.8338    4.0512 C   0  0  0  0  0  0  0  0  0  0  0  0
   22.1343   13.3836    5.0488 H   0  0  0  0  0  0  0  0  0  0  0  0
   23.4980   19.3443    6.2443 C   0  0  0  0  0  0  0  0  0  0  0  0
   24.2648   19.2430    7.5160 C   0  0  0  0  0  0  0  0  0  0  0  0
   24.0284   20.1095    8.5579 C   0  0  0  0  0  0  0  0  0  0  0  0
   24.6766   19.9800    9.7705 C   0  0  0  0  0  0  0  0  0  0  0  0
   25.6198   18.9572    9.9065 C   0  0  0  0  0  0  0  0  0  0  0  0
   25.8744   18.0930    8.8567 C   0  0  0  0  0  0  0  0  0  0  0  0
   25.1845   18.2217    7.6578 C   0  0  0  0  0  0  0  0  0  0  0  0
  5  6  1  0  0  0
  5 10  1  0  0  0
  5 19  1  0  0  0
  6  7  1  0  0  0
  7 11  1  0  0  0
  7  8  1  0  0  0
 11 12  2  0  0  0
 11 13  1  0  0  0
 13 15  1  0  0  0
 15 16  1  0  0  0
 15 17  1  0  0  0
 15 18  1  0  0  0
  8  9  1  0  0  0
  8  4  1  0  0  0
  9 10  1  0  0  0
  4  1  1  0  0  0
  1  2  1  0  0  0
  1 26  1  0  0  0
 26 27  1  0  0  0
 27 43  1  0  0  0
 27 28  1  0  0  0
 43 44  1  0  0  0
 44 45  2  0  0  0
 44 49  1  0  0  0
 45 46  1  0  0  0
 46 47  2  0  0  0
 47 48  1  0  0  0
 48 49  2  0  0  0
 28 29  2  0  0  0
 28 30  1  0  0  0
 30 32  1  0  0  0
 32 33  1  0  0  0
 32 41  1  0  0  0
 33 34  1  0  0  0
 33 35  1  0  0  0
 35 36  1  0  0  0
 36 37  2  0  0  0
 36 41  1  0  0  0
 37 38  1  0  0  0
 38 39  2  0  0  0
 39 40  1  0  0  0
 40 41  2  0  0  0
 19 20  1  0  0  0
 20 21  1  0  0  0
 20 25  2  0  0  0
 21 22  2  0  0  0
 22 23  1  0  0  0
 23 24  2  0  0  0
 24 25  1  0  0  0
 13 14  1  0  0  0
  2  3  1  0  0  0
 30 31  1  0  0  0
 34 42  1  0  0  0
M  END
> <minimizedAffinity>
-10.74369

$$$$
1SDT_MK1_B_902


 49 53  0  0  0  0  0  0  0  0999 V2000
   23.6189   15.7743    5.1568 C   0  0  0  0  0  0  0  0  0  0  0  0
   24.8802   15.5051    4.6462 O   0  0  0  0  0  0  0  0  0  0  0  0
   24.7937   15.0465    3.7959 H   0  0  0  0  0  0  0  0  0  0  0  0
   22.9308   14.4064    5.3275 C   0  0  0  0  0  0  0  0  0  0  0  0
   21.0722   13.0812    8.8960 N   0  0  0  0  0  0  0  0  0  0  0  0
   20.2352   13.5176    7.7309 C   0  0  0  0  0  0  0  0  0  0  0  0
   20.9342   13.4372    6.3836 C   0  0  0  0  0  0  0  0  0  0  0  0
   22.0998   14.3883    6.5094 N   0  0  0  0  0  0  0  0  0  0  0  0
   22.9833   14.0115    7.6363 C   0  0  0  0  0  0  0  0  0  0  0  0
   22.2243   13.8881    8.9217 C   0  0  0  0  0  0  0  0  0  0  0  0
   19.9715   13.8736    5.3301 C   0  0  0  0  0  0  0  0  0  0  0  0
   19.6228   15.0591    5.2660 O   0  0  0  0  0  0  0  0  0  0  0  0
   19.5364   12.9268    4.5044 N   0  0  0  0  0  0  0  0  0  0  0  0
   19.8818   12.0133    4.6284 H   0  0  0  0  0  0  0  0  0  0  0  0
   18.5931   13.1511    3.4411 C   0  0  0  0  0  0  0  0  0  0  0  0
   17.2401   13.4107    4.1504 C   0  0  0  0  0  0  0  0  0  0  0  0
   18.5203   11.9726    2.6504 C   0  0  0  0  0  0  0  0  0  0  0  0
   18.9333   14.3359    2.6677 C   0  0  0  0  0  0  0  0  0  0  0  0
   20.2850   13.1732   10.1338 C   0  0  0  0  0  0  0  0  0  0  0  0
   19.0013   12.3372   10.2698 C   0  0  0  0  0  0  0  0  0  0  0  0
   19.0492   10.9309   10.2137 C   0  0  0  0  0  0  0  0  0  0  0  0
   17.9481   10.0583   10.3546 N   0  0  0  0  0  0  0  0  0  0  0  0
   16.7805   10.7948   10.5597 C   0  0  0  0  0  0  0  0  0  0  0  0
   16.6501   12.1759   10.6420 C   0  0  0  0  0  0  0  0  0  0  0  0
   17.7769   12.9703   10.4903 C   0  0  0  0  0  0  0  0  0  0  0  0
   22.8642   16.7062    4.1922 C   0  0  0  0  0  0  0  0  0  0  0  0
   23.6610   17.9656    3.7433 C   0  0  0  0  0  0  0  0  0  0  0  0
   23.8955   18.8853    4.9057 C   0  0  0  0  0  0  0  0  0  0  0  0
   23.0067   19.2481    5.6835 O   0  0  0  0  0  0  0  0  0  0  0  0
   25.1228   19.3666    4.9769 N   0  0  0  0  0  0  0  0  0  0  0  0
   25.8352   18.9146    4.4695 H   0  0  0  0  0  0  0  0  0  0  0  0
   25.4612   20.5052    5.7512 C   0  0  0  0  0  0  0  0  0  0  0  0
   26.4876   21.4474    5.1523 C   0  0  0  0  0  0  0  0  0  0  0  0
   27.5654   20.7153    4.5491 O   0  0  0  0  0  0  0  0  0  0  0  0
   27.0484   22.2307    6.3398 C   0  0  0  0  0  0  0  0  0  0  0  0
   27.0660   21.2639    7.4975 C   0  0  0  0  0  0  0  0  0  0  0  0
   27.7453   21.1899    8.6755 C   0  0  0  0  0  0  0  0  0  0  0  0
   27.4670   20.1221    9.5266 C   0  0  0  0  0  0  0  0  0  0  0  0
   26.5288   19.1478    9.2359 C   0  0  0  0  0  0  0  0  0  0  0  0
   25.8226   19.2009    8.0471 C   0  0  0  0  0  0  0  0  0  0  0  0
   26.0243   20.1809    7.1488 C   0  0  0  0  0  0  0  0  0  0  0  0
   27.9812   20.1451    5.2146 H   0  0  0  0  0  0  0  0  0  0  0  0
   22.8530   18.6889    2.6533 C   0  0  0  0  0  0  0  0  0  0  0  0
   23.3626   20.0598    2.3769 C   0  0  0  0  0  0  0  0  0  0  0  0
   22.5712   21.1659    2.5831 C   0  0  0  0  0  0  0  0  0  0  0  0
   23.0547   22.4472    2.4049 C   0  0  0  0  0  0  0  0  0  0  0  0
   24.3739   22.5980    1.9679 C   0  0  0  0  0  0  0  0  0  0  0  0
   25.1697   21.4891    1.7425 C   0  0  0  0  0  0  0  0  0  0  0  0
   24.6719   20.2109    1.9620 C   0  0  0  0  0  0  0  0  0  0  0  0
  5  6  1  0  0  0
  5 10  1  0  0  0
  5 19  1  0  0  0
  6  7  1  0  0  0
  7 11  1  0  0  0
  7  8  1  0  0  0
 11 12  2  0  0  0
 11 13  1  0  0  0
 13 15  1  0  0  0
 15 16  1  0  0  0
 15 17  1  0  0  0
 15 18  1  0  0  0
  8  9  1  0  0  0
  8  4  1  0  0  0
  9 10  1  0  0  0
  4  1  1  0  0  0
  1  2  1  0  0  0
  1 26  1  0  0  0
 26 27  1  0  0  0
 27 43  1  0  0  0
 27 28  1  0  0  0
 43 44  1  0  0  0
 44 45  2  0  0  0
 44 49  1  0  0  0
 45 46  1  0  0  0
 46 47  2  0  0  0
 47 48  1  0  0  0
 48 49  2  0  0  0
 28 29  2  0  0  0
 28 30  1  0  0  0
 30 32  1  0  0  0
 32 33  1  0  0  0
 32 41  1  0  0  0
 33 34  1  0  0  0
 33 35  1  0  0  0
 35 36  1  0  0  0
 36 37  2  0  0  0
 36 41  1  0  0  0
 37 38  1  0  0  0
 38 39  2  0  0  0
 39 40  1  0  0  0
 40 41  2  0  0  0
 19 20  1  0  0  0
 20 21  1  0  0  0
 20 25  2  0  0  0
 21 22  2  0  0  0
 22 23  1  0  0  0
 23 24  2  0  0  0
 24 25  1  0  0  0
 13 14  1  0  0  0
  2  3  1  0  0  0
 30 31  1  0  0  0
 34 42  1  0  0  0
M  END
> <minimizedAffinity>
-10.67767

$$$$
1SDT_MK1_B_902


 49 53  0  0  0  0  0  0  0  0999 V2000
   23.8605   18.6878    3.4788 C   0  0  0  0  0  0  0  0  0  0  0  0
   24.7025   17.8214    2.7973 O   0  0  0  0  0  0  0  0  0  0  0  0
   25.2575   17.3430    3.4329 H   0  0  0  0  0  0  0  0  0  0  0  0
   24.7811   19.6513    4.2523 C   0  0  0  0  0  0  0  0  0  0  0  0
   23.7058   23.3360    2.4604 N   0  0  0  0  0  0  0  0  0  0  0  0
   24.7869   23.2933    3.4987 C   0  0  0  0  0  0  0  0  0  0  0  0
   25.4573   21.9387    3.6594 C   0  0  0  0  0  0  0  0  0  0  0  0
   24.3435   21.0199    4.1003 N   0  0  0  0  0  0  0  0  0  0  0  0
   23.2399   20.9991    3.1134 C   0  0  0  0  0  0  0  0  0  0  0  0
   22.7376   22.3774    2.8107 C   0  0  0  0  0  0  0  0  0  0  0  0
   26.5202   22.0631    4.6995 C   0  0  0  0  0  0  0  0  0  0  0  0
   27.6445   21.5897    4.4923 O   0  0  0  0  0  0  0  0  0  0  0  0
   26.1756   22.6935    5.8182 N   0  0  0  0  0  0  0  0  0  0  0  0
   25.2588   23.0462    5.8842 H   0  0  0  0  0  0  0  0  0  0  0  0
   27.0561   22.8936    6.9386 C   0  0  0  0  0  0  0  0  0  0  0  0
   26.1375   23.3646    8.0942 C   0  0  0  0  0  0  0  0  0  0  0  0
   27.9883   23.9113    6.6000 C   0  0  0  0  0  0  0  0  0  0  0  0
   27.6930   21.6499    7.3449 C   0  0  0  0  0  0  0  0  0  0  0  0
   23.1551   24.6961    2.3740 C   0  0  0  0  0  0  0  0  0  0  0  0
   23.4996   25.5684    1.1551 C   0  0  0  0  0  0  0  0  0  0  0  0
   23.7975   26.9360    1.3103 C   0  0  0  0  0  0  0  0  0  0  0  0
   24.1555   27.8282    0.2761 N   0  0  0  0  0  0  0  0  0  0  0  0
   24.1725   27.1566   -0.9472 C   0  0  0  0  0  0  0  0  0  0  0  0
   23.9064   25.8131   -1.1831 C   0  0  0  0  0  0  0  0  0  0  0  0
   23.5575   24.9971   -0.1172 C   0  0  0  0  0  0  0  0  0  0  0  0
   22.9318   17.8791    4.4018 C   0  0  0  0  0  0  0  0  0  0  0  0
   23.6034   17.3488    5.7020 C   0  0  0  0  0  0  0  0  0  0  0  0
   23.4458   15.8603    5.8094 C   0  0  0  0  0  0  0  0  0  0  0  0
   24.1370   15.0503    5.1827 O   0  0  0  0  0  0  0  0  0  0  0  0
   22.4292   15.4757    6.5589 N   0  0  0  0  0  0  0  0  0  0  0  0
   22.0324   16.1261    7.1825 H   0  0  0  0  0  0  0  0  0  0  0  0
   21.8831   14.1682    6.5061 C   0  0  0  0  0  0  0  0  0  0  0  0
   20.7424   13.9526    5.5302 C   0  0  0  0  0  0  0  0  0  0  0  0
   19.8200   15.0522    5.5686 O   0  0  0  0  0  0  0  0  0  0  0  0
   20.0181   12.7043    6.0353 C   0  0  0  0  0  0  0  0  0  0  0  0
   20.1117   12.7562    7.5399 C   0  0  0  0  0  0  0  0  0  0  0  0
   19.4086   12.1995    8.5648 C   0  0  0  0  0  0  0  0  0  0  0  0
   19.8220   12.4721    9.8674 C   0  0  0  0  0  0  0  0  0  0  0  0
   20.9148   13.2671   10.1634 C   0  0  0  0  0  0  0  0  0  0  0  0
   21.6482   13.8427    9.1409 C   0  0  0  0  0  0  0  0  0  0  0  0
   21.3264   13.6556    7.8488 C   0  0  0  0  0  0  0  0  0  0  0  0
   19.4759   15.1543    6.4697 H   0  0  0  0  0  0  0  0  0  0  0  0
   22.9412   18.0376    6.9067 C   0  0  0  0  0  0  0  0  0  0  0  0
   23.9332   18.6391    7.8393 C   0  0  0  0  0  0  0  0  0  0  0  0
   23.7315   19.8871    8.3813 C   0  0  0  0  0  0  0  0  0  0  0  0
   24.6037   20.4257    9.3067 C   0  0  0  0  0  0  0  0  0  0  0  0
   25.7329   19.6805    9.6583 C   0  0  0  0  0  0  0  0  0  0  0  0
   25.9504   18.4318    9.1039 C   0  0  0  0  0  0  0  0  0  0  0  0
   25.0406   17.8960    8.2010 C   0  0  0  0  0  0  0  0  0  0  0  0
  5  6  1  0  0  0
  5 10  1  0  0  0
  5 19  1  0  0  0
  6  7  1  0  0  0
  7 11  1  0  0  0
  7  8  1  0  0  0
 11 12  2  0  0  0
 11 13  1  0  0  0
 13 15  1  0  0  0
 15 16  1  0  0  0
 15 17  1  0  0  0
 15 18  1  0  0  0
  8  9  1  0  0  0
  8  4  1  0  0  0
  9 10  1  0  0  0
  4  1  1  0  0  0
  1  2  1  0  0  0
  1 26  1  0  0  0
 26 27  1  0  0  0
 27 43  1  0  0  0
 27 28  1  0  0  0
 43 44  1  0  0  0
 44 45  2  0  0  0
 44 49  1  0  0  0
 45 46  1  0  0  0
 46 47  2  0  0  0
 47 48  1  0  0  0
 48 49  2  0  0  0
 28 29  2  0  0  0
 28 30  1  0  0  0
 30 32  1  0  0  0
 32 33  1  0  0  0
 32 41  1  0  0  0
 33 34  1  0  0  0
 33 35  1  0  0  0
 35 36  1  0  0  0
 36 37  2  0  0  0
 36 41  1  0  0  0
 37 38  1  0  0  0
 38 39  2  0  0  0
 39 40  1  0  0  0
 40 41  2  0  0  0
 19 20  1  0  0  0
 20 21  1  0  0  0
 20 25  2  0  0  0
 21 22  2  0  0  0
 22 23  1  0  0  0
 23 24  2  0  0  0
 24 25  1  0  0  0
 13 14  1  0  0  0
  2  3  1  0  0  0
 30 31  1  0  0  0
 34 42  1  0  0  0
M  END
> <minimizedAffinity>
-10.26000

$$$$
1SDT_MK1_B_902


 49 53  0  0  0  0  0  0  0  0999 V2000
   22.0506   14.4569    6.7516 C   0  0  0  0  0  0  0  0  0  0  0  0
   23.2111   13.7153    6.9162 O   0  0  0  0  0  0  0  0  0  0  0  0
   23.4290   13.6610    7.8599 H   0  0  0  0  0  0  0  0  0  0  0  0
   22.3524   15.8502    7.3360 C   0  0  0  0  0  0  0  0  0  0  0  0
   23.6222   17.4073    3.6068 N   0  0  0  0  0  0  0  0  0  0  0  0
   24.2985   17.8435    4.8720 C   0  0  0  0  0  0  0  0  0  0  0  0
   24.1690   16.8661    6.0287 C   0  0  0  0  0  0  0  0  0  0  0  0
   22.6841   16.7901    6.2899 N   0  0  0  0  0  0  0  0  0  0  0  0
   21.9467   16.3505    5.0834 C   0  0  0  0  0  0  0  0  0  0  0  0
   22.2599   17.2083    3.8962 C   0  0  0  0  0  0  0  0  0  0  0  0
   24.9115   17.4229    7.1974 C   0  0  0  0  0  0  0  0  0  0  0  0
   25.6629   16.6927    7.8557 O   0  0  0  0  0  0  0  0  0  0  0  0
   24.7072   18.7093    7.4635 N   0  0  0  0  0  0  0  0  0  0  0  0
   24.0990   19.2106    6.8735 H   0  0  0  0  0  0  0  0  0  0  0  0
   25.3176   19.4164    8.5581 C   0  0  0  0  0  0  0  0  0  0  0  0
   24.3297   20.5601    8.9003 C   0  0  0  0  0  0  0  0  0  0  0  0
   26.5573   19.9489    8.1121 C   0  0  0  0  0  0  0  0  0  0  0  0
   25.4516   18.5675    9.7324 C   0  0  0  0  0  0  0  0  0  0  0  0
   23.8401   18.4123    2.5565 C   0  0  0  0  0  0  0  0  0  0  0  0
   23.4883   19.8822    2.8407 C   0  0  0  0  0  0  0  0  0  0  0  0
   24.5007   20.8530    2.9662 C   0  0  0  0  0  0  0  0  0  0  0  0
   24.3022   22.2319    3.1962 N   0  0  0  0  0  0  0  0  0  0  0  0
   22.9370   22.5076    3.2860 C   0  0  0  0  0  0  0  0  0  0  0  0
   21.8794   21.6148    3.1604 C   0  0  0  0  0  0  0  0  0  0  0  0
   22.1518   20.2731    2.9381 C   0  0  0  0  0  0  0  0  0  0  0  0
   20.8851   13.7495    7.4655 C   0  0  0  0  0  0  0  0  0  0  0  0
   21.2017   12.3090    7.9630 C   0  0  0  0  0  0  0  0  0  0  0  0
   20.2411   11.3211    7.3686 C   0  0  0  0  0  0  0  0  0  0  0  0
   20.4171   10.0982    7.3850 O   0  0  0  0  0  0  0  0  0  0  0  0
   19.2266   11.8705    6.7268 N   0  0  0  0  0  0  0  0  0  0  0  0
   19.0195   12.8176    6.8980 H   0  0  0  0  0  0  0  0  0  0  0  0
   18.4220   11.1579    5.8020 C   0  0  0  0  0  0  0  0  0  0  0  0
   18.1630   11.8363    4.4705 C   0  0  0  0  0  0  0  0  0  0  0  0
   17.8809   13.2323    4.6525 O   0  0  0  0  0  0  0  0  0  0  0  0
   16.9055   11.1632    3.9196 C   0  0  0  0  0  0  0  0  0  0  0  0
   16.0465   10.8534    5.1202 C   0  0  0  0  0  0  0  0  0  0  0  0
   14.7200   10.6142    5.3149 C   0  0  0  0  0  0  0  0  0  0  0  0
   14.2875   10.3354    6.6099 C   0  0  0  0  0  0  0  0  0  0  0  0
   15.1415   10.2785    7.6968 C   0  0  0  0  0  0  0  0  0  0  0  0
   16.4942   10.5147    7.5262 C   0  0  0  0  0  0  0  0  0  0  0  0
   17.0138   10.8067    6.3209 C   0  0  0  0  0  0  0  0  0  0  0  0
   17.1125   13.3335    5.2357 H   0  0  0  0  0  0  0  0  0  0  0  0
   21.0957   12.2904    9.4968 C   0  0  0  0  0  0  0  0  0  0  0  0
   19.7012   12.0782    9.9723 C   0  0  0  0  0  0  0  0  0  0  0  0
   19.2693   10.8348   10.3718 C   0  0  0  0  0  0  0  0  0  0  0  0
   18.0033   10.6378   10.8874 C   0  0  0  0  0  0  0  0  0  0  0  0
   17.1441   11.7379   10.9610 C   0  0  0  0  0  0  0  0  0  0  0  0
   17.5667   12.9878   10.5449 C   0  0  0  0  0  0  0  0  0  0  0  0
   18.8568   13.1682   10.0620 C   0  0  0  0  0  0  0  0  0  0  0  0
  5  6  1  0  0  0
  5 10  1  0  0  0
  5 19  1  0  0  0
  6  7  1  0  0  0
  7 11  1  0  0  0
  7  8  1  0  0  0
 11 12  2  0  0  0
 11 13  1  0  0  0
 13 15  1  0  0  0
 15 16  1  0  0  0
 15 17  1  0  0  0
 15 18  1  0  0  0
  8  9  1  0  0  0
  8  4  1  0  0  0
  9 10  1  0  0  0
  4  1  1  0  0  0
  1  2  1  0  0  0
  1 26  1  0  0  0
 26 27  1  0  0  0
 27 43  1  0  0  0
 27 28  1  0  0  0
 43 44  1  0  0  0
 44 45  2  0  0  0
 44 49  1  0  0  0
 45 46  1  0  0  0
 46 47  2  0  0  0
 47 48  1  0  0  0
 48 49  2  0  0  0
 28 29  2  0  0  0
 28 30  1  0  0  0
 30 32  1  0  0  0
 32 33  1  0  0  0
 32 41  1  0  0  0
 33 34  1  0  0  0
 33 35  1  0  0  0
 35 36  1  0  0  0
 36 37  2  0  0  0
 36 41  1  0  0  0
 37 38  1  0  0  0
 38 39  2  0  0  0
 39 40  1  0  0  0
 40 41  2  0  0  0
 19 20  1  0  0  0
 20 21  1  0  0  0
 20 25  2  0  0  0
 21 22  2  0  0  0
 22 23  1  0  0  0
 23 24  2  0  0  0
 24 25  1  0  0  0
 13 14  1  0  0  0
  2  3  1  0  0  0
 30 31  1  0  0  0
 34 42  1  0  0  0
M  END
> <minimizedAffinity>
-10.07737

$$$$
1SDT_MK1_B_902


 49 53  0  0  0  0  0  0  0  0999 V2000
   23.9762   18.7761    3.9172 C   0  0  0  0  0  0  0  0  0  0  0  0
   24.5687   17.7155    3.2477 O   0  0  0  0  0  0  0  0  0  0  0  0
   25.4691   17.5837    3.5834 H   0  0  0  0  0  0  0  0  0  0  0  0
   24.8631   20.0037    3.6338 C   0  0  0  0  0  0  0  0  0  0  0  0
   22.9069   23.7411    3.2474 N   0  0  0  0  0  0  0  0  0  0  0  0
   24.1244   23.6170    4.1139 C   0  0  0  0  0  0  0  0  0  0  0  0
   25.0354   22.4521    3.7629 C   0  0  0  0  0  0  0  0  0  0  0  0
   24.1776   21.2284    3.9770 N   0  0  0  0  0  0  0  0  0  0  0  0
   22.9569   21.2732    3.1401 C   0  0  0  0  0  0  0  0  0  0  0  0
   22.1838   22.5388    3.3503 C   0  0  0  0  0  0  0  0  0  0  0  0
   26.2067   22.4788    4.6873 C   0  0  0  0  0  0  0  0  0  0  0  0
   27.3308   22.1767    4.2676 O   0  0  0  0  0  0  0  0  0  0  0  0
   25.9550   22.8354    5.9431 N   0  0  0  0  0  0  0  0  0  0  0  0
   25.0281   23.0697    6.1782 H   0  0  0  0  0  0  0  0  0  0  0  0
   26.9497   22.9009    6.9808 C   0  0  0  0  0  0  0  0  0  0  0  0
   27.8724   24.0799    6.5810 C   0  0  0  0  0  0  0  0  0  0  0  0
   27.6773   21.6802    6.9820 C   0  0  0  0  0  0  0  0  0  0  0  0
   26.3538   23.2102    8.2718 C   0  0  0  0  0  0  0  0  0  0  0  0
   22.1227   24.9140    3.6596 C   0  0  0  0  0  0  0  0  0  0  0  0
   22.5526   26.3100    3.1783 C   0  0  0  0  0  0  0  0  0  0  0  0
   22.4017   26.6839    1.8290 C   0  0  0  0  0  0  0  0  0  0  0  0
   22.7304   27.9408    1.2760 N   0  0  0  0  0  0  0  0  0  0  0  0
   23.2377   28.7797    2.2693 C   0  0  0  0  0  0  0  0  0  0  0  0
   23.4049   28.4945    3.6191 C   0  0  0  0  0  0  0  0  0  0  0  0
   23.0626   27.2356    4.0902 C   0  0  0  0  0  0  0  0  0  0  0  0
   23.8774   18.4441    5.4167 C   0  0  0  0  0  0  0  0  0  0  0  0
   23.4409   16.9844    5.7352 C   0  0  0  0  0  0  0  0  0  0  0  0
   21.9626   16.8192    5.5369 C   0  0  0  0  0  0  0  0  0  0  0  0
   21.1214   17.6277    5.9437 O   0  0  0  0  0  0  0  0  0  0  0  0
   21.6156   15.6761    4.9749 N   0  0  0  0  0  0  0  0  0  0  0  0
   22.3044   15.1579    4.4993 H   0  0  0  0  0  0  0  0  0  0  0  0
   20.2954   15.1611    5.0255 C   0  0  0  0  0  0  0  0  0  0  0  0
   20.0549   14.0155    5.9897 C   0  0  0  0  0  0  0  0  0  0  0  0
   21.1319   13.0674    5.9385 O   0  0  0  0  0  0  0  0  0  0  0  0
   18.7882   13.3269    5.4804 C   0  0  0  0  0  0  0  0  0  0  0  0
   18.8386   13.4353    3.9767 C   0  0  0  0  0  0  0  0  0  0  0  0
   18.2625   12.7568    2.9459 C   0  0  0  0  0  0  0  0  0  0  0  0
   18.5418   13.1775    1.6471 C   0  0  0  0  0  0  0  0  0  0  0  0
   19.3622   14.2540    1.3606 C   0  0  0  0  0  0  0  0  0  0  0  0
   19.9577   14.9623    2.3893 C   0  0  0  0  0  0  0  0  0  0  0  0
   19.7662   14.6313    3.6784 C   0  0  0  0  0  0  0  0  0  0  0  0
   21.2234   12.7306    5.0335 H   0  0  0  0  0  0  0  0  0  0  0  0
   23.8155   16.6723    7.1934 C   0  0  0  0  0  0  0  0  0  0  0  0
   24.3989   17.8461    7.8989 C   0  0  0  0  0  0  0  0  0  0  0  0
   23.6893   19.0166    8.0351 C   0  0  0  0  0  0  0  0  0  0  0  0
   24.1862   20.0868    8.7528 C   0  0  0  0  0  0  0  0  0  0  0  0
   25.4604   19.9673    9.3150 C   0  0  0  0  0  0  0  0  0  0  0  0
   26.1862   18.7989    9.1672 C   0  0  0  0  0  0  0  0  0  0  0  0
   25.6510   17.7230    8.4700 C   0  0  0  0  0  0  0  0  0  0  0  0
  5  6  1  0  0  0
  5 10  1  0  0  0
  5 19  1  0  0  0
  6  7  1  0  0  0
  7 11  1  0  0  0
  7  8  1  0  0  0
 11 12  2  0  0  0
 11 13  1  0  0  0
 13 15  1  0  0  0
 15 16  1  0  0  0
 15 17  1  0  0  0
 15 18  1  0  0  0
  8  9  1  0  0  0
  8  4  1  0  0  0
  9 10  1  0  0  0
  4  1  1  0  0  0
  1  2  1  0  0  0
  1 26  1  0  0  0
 26 27  1  0  0  0
 27 43  1  0  0  0
 27 28  1  0  0  0
 43 44  1  0  0  0
 44 45  2  0  0  0
 44 49  1  0  0  0
 45 46  1  0  0  0
 46 47  2  0  0  0
 47 48  1  0  0  0
 48 49  2  0  0  0
 28 29  2  0  0  0
 28 30  1  0  0  0
 30 32  1  0  0  0
 32 33  1  0  0  0
 32 41  1  0  0  0
 33 34  1  0  0  0
 33 35  1  0  0  0
 35 36  1  0  0  0
 36 37  2  0  0  0
 36 41  1  0  0  0
 37 38  1  0  0  0
 38 39  2  0  0  0
 39 40  1  0  0  0
 40 41  2  0  0  0
 19 20  1  0  0  0
 20 21  1  0  0  0
 20 25  2  0  0  0
 21 22  2  0  0  0
 22 23  1  0  0  0
 23 24  2  0  0  0
 24 25  1  0  0  0
 13 14  1  0  0  0
  2  3  1  0  0  0
 30 31  1  0  0  0
 34 42  1  0  0  0
M  END
> <minimizedAffinity>
-10.02942

$$$$
1SDT_MK1_B_902


 49 53  0  0  0  0  0  0  0  0999 V2000
   23.1867   15.9360    4.9112 C   0  0  0  0  0  0  0  0  0  0  0  0
   23.8116   15.0981    5.8231 O   0  0  0  0  0  0  0  0  0  0  0  0
   23.9833   15.5847    6.6444 H   0  0  0  0  0  0  0  0  0  0  0  0
   24.1617   17.1052    4.6741 C   0  0  0  0  0  0  0  0  0  0  0  0
   23.1287   20.9486    3.2231 N   0  0  0  0  0  0  0  0  0  0  0  0
   23.3090   20.7252    4.6949 C   0  0  0  0  0  0  0  0  0  0  0  0
   24.1823   19.5337    5.0523 C   0  0  0  0  0  0  0  0  0  0  0  0
   23.4461   18.3456    4.4817 N   0  0  0  0  0  0  0  0  0  0  0  0
   23.2419   18.4887    3.0221 C   0  0  0  0  0  0  0  0  0  0  0  0
   22.5655   19.7802    2.6785 C   0  0  0  0  0  0  0  0  0  0  0  0
   24.2886   19.4605    6.5390 C   0  0  0  0  0  0  0  0  0  0  0  0
   23.5367   18.7114    7.1751 O   0  0  0  0  0  0  0  0  0  0  0  0
   25.2139   20.2331    7.0998 N   0  0  0  0  0  0  0  0  0  0  0  0
   25.7725   20.7864    6.5075 H   0  0  0  0  0  0  0  0  0  0  0  0
   25.4516   20.3126    8.5169 C   0  0  0  0  0  0  0  0  0  0  0  0
   25.8167   18.8691    8.9461 C   0  0  0  0  0  0  0  0  0  0  0  0
   24.2497   20.7293    9.1503 C   0  0  0  0  0  0  0  0  0  0  0  0
   26.5839   21.1749    8.8198 C   0  0  0  0  0  0  0  0  0  0  0  0
   22.2957   22.1391    3.0009 C   0  0  0  0  0  0  0  0  0  0  0  0
   22.9701   23.5175    2.8981 C   0  0  0  0  0  0  0  0  0  0  0  0
   22.5977   24.5668    3.7603 C   0  0  0  0  0  0  0  0  0  0  0  0
   23.1620   25.8609    3.7820 N   0  0  0  0  0  0  0  0  0  0  0  0
   24.1592   25.9615    2.8108 C   0  0  0  0  0  0  0  0  0  0  0  0
   24.5947   24.9749    1.9342 C   0  0  0  0  0  0  0  0  0  0  0  0
   23.9903   23.7271    1.9687 C   0  0  0  0  0  0  0  0  0  0  0  0
   21.8324   16.3939    5.4810 C   0  0  0  0  0  0  0  0  0  0  0  0
   20.8237   15.2445    5.7712 C   0  0  0  0  0  0  0  0  0  0  0  0
   21.0148   14.7115    7.1609 C   0  0  0  0  0  0  0  0  0  0  0  0
   21.7697   15.2236    7.9942 O   0  0  0  0  0  0  0  0  0  0  0  0
   20.3827   13.5769    7.3977 N   0  0  0  0  0  0  0  0  0  0  0  0
   19.6543   13.3092    6.7919 H   0  0  0  0  0  0  0  0  0  0  0  0
   20.7056   12.7264    8.4854 C   0  0  0  0  0  0  0  0  0  0  0  0
   21.1917   11.3341    8.1317 C   0  0  0  0  0  0  0  0  0  0  0  0
   20.4109   10.7739    7.0649 O   0  0  0  0  0  0  0  0  0  0  0  0
   20.9512   10.4980    9.3891 C   0  0  0  0  0  0  0  0  0  0  0  0
   19.6850   11.0386   10.0054 C   0  0  0  0  0  0  0  0  0  0  0  0
   18.7549   10.5498   10.8719 C   0  0  0  0  0  0  0  0  0  0  0  0
   17.6987   11.3820   11.2376 C   0  0  0  0  0  0  0  0  0  0  0  0
   17.5607   12.6778   10.7730 C   0  0  0  0  0  0  0  0  0  0  0  0
   18.4931   13.1999    9.8940 C   0  0  0  0  0  0  0  0  0  0  0  0
   19.5430   12.4769    9.4661 C   0  0  0  0  0  0  0  0  0  0  0  0
   19.4774   10.7469    7.3272 H   0  0  0  0  0  0  0  0  0  0  0  0
   21.0521   14.1259    4.7412 C   0  0  0  0  0  0  0  0  0  0  0  0
   19.8966   13.9513    3.8194 C   0  0  0  0  0  0  0  0  0  0  0  0
   18.9051   13.0369    4.0899 C   0  0  0  0  0  0  0  0  0  0  0  0
   17.7891   12.9177    3.2851 C   0  0  0  0  0  0  0  0  0  0  0  0
   17.7048   13.7319    2.1520 C   0  0  0  0  0  0  0  0  0  0  0  0
   18.7069   14.6416    1.8651 C   0  0  0  0  0  0  0  0  0  0  0  0
   19.8035   14.7678    2.7087 C   0  0  0  0  0  0  0  0  0  0  0  0
  5  6  1  0  0  0
  5 10  1  0  0  0
  5 19  1  0  0  0
  6  7  1  0  0  0
  7 11  1  0  0  0
  7  8  1  0  0  0
 11 12  2  0  0  0
 11 13  1  0  0  0
 13 15  1  0  0  0
 15 16  1  0  0  0
 15 17  1  0  0  0
 15 18  1  0  0  0
  8  9  1  0  0  0
  8  4  1  0  0  0
  9 10  1  0  0  0
  4  1  1  0  0  0
  1  2  1  0  0  0
  1 26  1  0  0  0
 26 27  1  0  0  0
 27 43  1  0  0  0
 27 28  1  0  0  0
 43 44  1  0  0  0
 44 45  2  0  0  0
 44 49  1  0  0  0
 45 46  1  0  0  0
 46 47  2  0  0  0
 47 48  1  0  0  0
 48 49  2  0  0  0
 28 29  2  0  0  0
 28 30  1  0  0  0
 30 32  1  0  0  0
 32 33  1  0  0  0
 32 41  1  0  0  0
 33 34  1  0  0  0
 33 35  1  0  0  0
 35 36  1  0  0  0
 36 37  2  0  0  0
 36 41  1  0  0  0
 37 38  1  0  0  0
 38 39  2  0  0  0
 39 40  1  0  0  0
 40 41  2  0  0  0
 19 20  1  0  0  0
 20 21  1  0  0  0
 20 25  2  0  0  0
 21 22  2  0  0  0
 22 23  1  0  0  0
 23 24  2  0  0  0
 24 25  1  0  0  0
 13 14  1  0  0  0
  2  3  1  0  0  0
 30 31  1  0  0  0
 34 42  1  0  0  0
M  END
> <minimizedAffinity>
-10.00564

$$$$
1SDT_MK1_B_902


 49 53  0  0  0  0  0  0  0  0999 V2000
   22.0823   17.5314    4.6638 C   0  0  0  0  0  0  0  0  0  0  0  0
   21.5286   18.0880    5.8074 O   0  0  0  0  0  0  0  0  0  0  0  0
   22.2216   18.2117    6.4748 H   0  0  0  0  0  0  0  0  0  0  0  0
   22.6853   16.1822    5.0994 C   0  0  0  0  0  0  0  0  0  0  0  0
   19.2621   14.0540    3.7968 N   0  0  0  0  0  0  0  0  0  0  0  0
   19.8095   13.8251    5.1739 C   0  0  0  0  0  0  0  0  0  0  0  0
   20.6385   14.9737    5.7249 C   0  0  0  0  0  0  0  0  0  0  0  0
   21.8010   15.0885    4.7685 N   0  0  0  0  0  0  0  0  0  0  0  0
   21.3371   15.3299    3.3833 C   0  0  0  0  0  0  0  0  0  0  0  0
   20.3502   14.2949    2.9382 C   0  0  0  0  0  0  0  0  0  0  0  0
   21.0849   14.6104    7.1018 C   0  0  0  0  0  0  0  0  0  0  0  0
   21.4823   15.4917    7.8741 O   0  0  0  0  0  0  0  0  0  0  0  0
   21.0259   13.3200    7.4163 N   0  0  0  0  0  0  0  0  0  0  0  0
   20.6833   12.6956    6.7367 H   0  0  0  0  0  0  0  0  0  0  0  0
   21.4305   12.7771    8.6861 C   0  0  0  0  0  0  0  0  0  0  0  0
   22.9080   13.2113    8.8580 C   0  0  0  0  0  0  0  0  0  0  0  0
   21.3344   11.3609    8.6192 C   0  0  0  0  0  0  0  0  0  0  0  0
   20.6604   13.3494    9.7802 C   0  0  0  0  0  0  0  0  0  0  0  0
   18.4572   12.8953    3.3844 C   0  0  0  0  0  0  0  0  0  0  0  0
   17.7848   12.0279    4.4618 C   0  0  0  0  0  0  0  0  0  0  0  0
   18.5529   11.3914    5.4558 C   0  0  0  0  0  0  0  0  0  0  0  0
   18.0499   10.5979    6.5099 N   0  0  0  0  0  0  0  0  0  0  0  0
   16.6583   10.5272    6.4300 C   0  0  0  0  0  0  0  0  0  0  0  0
   15.8287   11.1338    5.4946 C   0  0  0  0  0  0  0  0  0  0  0  0
   16.3952   11.8969    4.4845 C   0  0  0  0  0  0  0  0  0  0  0  0
   23.1319   18.4948    4.0819 C   0  0  0  0  0  0  0  0  0  0  0  0
   23.2261   19.8711    4.8027 C   0  0  0  0  0  0  0  0  0  0  0  0
   22.6131   20.9518    3.9613 C   0  0  0  0  0  0  0  0  0  0  0  0
   21.5350   20.8322    3.3697 O   0  0  0  0  0  0  0  0  0  0  0  0
   23.3730   22.0216    3.8154 N   0  0  0  0  0  0  0  0  0  0  0  0
   24.1186   22.1578    4.4437 H   0  0  0  0  0  0  0  0  0  0  0  0
   23.1636   22.9831    2.7944 C   0  0  0  0  0  0  0  0  0  0  0  0
   24.3984   23.4623    2.0558 C   0  0  0  0  0  0  0  0  0  0  0  0
   25.4839   23.6926    2.9669 O   0  0  0  0  0  0  0  0  0  0  0  0
   23.9980   24.8041    1.4415 C   0  0  0  0  0  0  0  0  0  0  0  0
   23.0573   25.4443    2.4318 C   0  0  0  0  0  0  0  0  0  0  0  0
   22.6479   26.7192    2.6803 C   0  0  0  0  0  0  0  0  0  0  0  0
   21.7200   26.9226    3.6998 C   0  0  0  0  0  0  0  0  0  0  0  0
   21.1901   25.8929    4.4568 C   0  0  0  0  0  0  0  0  0  0  0  0
   21.5868   24.5881    4.2231 C   0  0  0  0  0  0  0  0  0  0  0  0
   22.4877   24.2831    3.2725 C   0  0  0  0  0  0  0  0  0  0  0  0
   25.2153   24.3465    3.6312 H   0  0  0  0  0  0  0  0  0  0  0  0
   24.7091   20.1827    5.0632 C   0  0  0  0  0  0  0  0  0  0  0  0
   25.0979   19.9714    6.4844 C   0  0  0  0  0  0  0  0  0  0  0  0
   26.3893   20.1872    6.9063 C   0  0  0  0  0  0  0  0  0  0  0  0
   26.7476   20.0699    8.2349 C   0  0  0  0  0  0  0  0  0  0  0  0
   25.7637   19.6849    9.1503 C   0  0  0  0  0  0  0  0  0  0  0  0
   24.4670   19.4498    8.7296 C   0  0  0  0  0  0  0  0  0  0  0  0
   24.1225   19.6080    7.3931 C   0  0  0  0  0  0  0  0  0  0  0  0
  5  6  1  0  0  0
  5 10  1  0  0  0
  5 19  1  0  0  0
  6  7  1  0  0  0
  7 11  1  0  0  0
  7  8  1  0  0  0
 11 12  2  0  0  0
 11 13  1  0  0  0
 13 15  1  0  0  0
 15 16  1  0  0  0
 15 17  1  0  0  0
 15 18  1  0  0  0
  8  9  1  0  0  0
  8  4  1  0  0  0
  9 10  1  0  0  0
  4  1  1  0  0  0
  1  2  1  0  0  0
  1 26  1  0  0  0
 26 27  1  0  0  0
 27 43  1  0  0  0
 27 28  1  0  0  0
 43 44  1  0  0  0
 44 45  2  0  0  0
 44 49  1  0  0  0
 45 46  1  0  0  0
 46 47  2  0  0  0
 47 48  1  0  0  0
 48 49  2  0  0  0
 28 29  2  0  0  0
 28 30  1  0  0  0
 30 32  1  0  0  0
 32 33  1  0  0  0
 32 41  1  0  0  0
 33 34  1  0  0  0
 33 35  1  0  0  0
 35 36  1  0  0  0
 36 37  2  0  0  0
 36 41  1  0  0  0
 37 38  1  0  0  0
 38 39  2  0  0  0
 39 40  1  0  0  0
 40 41  2  0  0  0
 19 20  1  0  0  0
 20 21  1  0  0  0
 20 25  2  0  0  0
 21 22  2  0  0  0
 22 23  1  0  0  0
 23 24  2  0  0  0
 24 25  1  0  0  0
 13 14  1  0  0  0
  2  3  1  0  0  0
 30 31  1  0  0  0
 34 42  1  0  0  0
M  END
> <minimizedAffinity>
-9.96855

$$$$
1SDT_MK1_B_902


 49 53  0  0  0  0  0  0  0  0999 V2000
   22.4318   14.5386    7.2073 C   0  0  0  0  0  0  0  0  0  0  0  0
   23.4783   13.9823    6.4866 O   0  0  0  0  0  0  0  0  0  0  0  0
   23.4299   14.2795    5.5645 H   0  0  0  0  0  0  0  0  0  0  0  0
   21.1404   14.0436    6.5283 C   0  0  0  0  0  0  0  0  0  0  0  0
   19.8293   11.6166    9.7430 N   0  0  0  0  0  0  0  0  0  0  0  0
   19.2741   11.4036    8.3665 C   0  0  0  0  0  0  0  0  0  0  0  0
   20.1642   11.9033    7.2403 C   0  0  0  0  0  0  0  0  0  0  0  0
   20.2722   13.3899    7.4803 N   0  0  0  0  0  0  0  0  0  0  0  0
   20.8284   13.6799    8.8216 C   0  0  0  0  0  0  0  0  0  0  0  0
   20.0535   12.9958    9.9056 C   0  0  0  0  0  0  0  0  0  0  0  0
   19.4937   11.5968    5.9427 C   0  0  0  0  0  0  0  0  0  0  0  0
   19.8471   10.6110    5.2835 O   0  0  0  0  0  0  0  0  0  0  0  0
   18.5305   12.4331    5.5680 N   0  0  0  0  0  0  0  0  0  0  0  0
   18.3130   13.1831    6.1675 H   0  0  0  0  0  0  0  0  0  0  0  0
   17.7854   12.3127    4.3429 C   0  0  0  0  0  0  0  0  0  0  0  0
   18.8259   12.5289    3.2152 C   0  0  0  0  0  0  0  0  0  0  0  0
   16.8021   13.3382    4.3136 C   0  0  0  0  0  0  0  0  0  0  0  0
   17.2228   10.9794    4.1900 C   0  0  0  0  0  0  0  0  0  0  0  0
   18.9007   11.0691   10.7422 C   0  0  0  0  0  0  0  0  0  0  0  0
   17.3870   11.2465   10.5355 C   0  0  0  0  0  0  0  0  0  0  0  0
   16.7611   12.4754   10.8205 C   0  0  0  0  0  0  0  0  0  0  0  0
   15.3911   12.7677   10.6441 N   0  0  0  0  0  0  0  0  0  0  0  0
   14.7268   11.6486   10.1399 C   0  0  0  0  0  0  0  0  0  0  0  0
   15.2702   10.4101    9.8201 C   0  0  0  0  0  0  0  0  0  0  0  0
   16.6252   10.1949   10.0235 C   0  0  0  0  0  0  0  0  0  0  0  0
   22.5616   16.0721    7.1978 C   0  0  0  0  0  0  0  0  0  0  0  0
   23.0834   16.6752    5.8612 C   0  0  0  0  0  0  0  0  0  0  0  0
   24.4547   17.2568    6.0429 C   0  0  0  0  0  0  0  0  0  0  0  0
   25.4754   16.7778    5.5376 O   0  0  0  0  0  0  0  0  0  0  0  0
   24.5042   18.2767    6.8798 N   0  0  0  0  0  0  0  0  0  0  0  0
   23.6659   18.7414    7.1046 H   0  0  0  0  0  0  0  0  0  0  0  0
   25.7104   18.7330    7.4694 C   0  0  0  0  0  0  0  0  0  0  0  0
   25.6628   19.0351    8.9548 C   0  0  0  0  0  0  0  0  0  0  0  0
   24.4554   19.7321    9.2979 O   0  0  0  0  0  0  0  0  0  0  0  0
   26.8436   19.9733    9.2073 C   0  0  0  0  0  0  0  0  0  0  0  0
   26.9611   20.8272    7.9694 C   0  0  0  0  0  0  0  0  0  0  0  0
   27.5175   22.0381    7.6884 C   0  0  0  0  0  0  0  0  0  0  0  0
   27.4413   22.5060    6.3780 C   0  0  0  0  0  0  0  0  0  0  0  0
   26.8412   21.7946    5.3544 C   0  0  0  0  0  0  0  0  0  0  0  0
   26.2708   20.5605    5.6122 C   0  0  0  0  0  0  0  0  0  0  0  0
   26.2765   20.0233    6.8449 C   0  0  0  0  0  0  0  0  0  0  0  0
   24.4001   20.5543    8.7863 H   0  0  0  0  0  0  0  0  0  0  0  0
   22.1028   17.7686    5.4060 C   0  0  0  0  0  0  0  0  0  0  0  0
   22.6365   18.5846    4.2813 C   0  0  0  0  0  0  0  0  0  0  0  0
   22.7099   19.9552    4.3717 C   0  0  0  0  0  0  0  0  0  0  0  0
   23.2732   20.7192    3.3685 C   0  0  0  0  0  0  0  0  0  0  0  0
   23.7402   20.0637    2.2256 C   0  0  0  0  0  0  0  0  0  0  0  0
   23.6537   18.6870    2.1213 C   0  0  0  0  0  0  0  0  0  0  0  0
   23.1145   17.9365    3.1586 C   0  0  0  0  0  0  0  0  0  0  0  0
  5  6  1  0  0  0
  5 10  1  0  0  0
  5 19  1  0  0  0
  6  7  1  0  0  0
  7 11  1  0  0  0
  7  8  1  0  0  0
 11 12  2  0  0  0
 11 13  1  0  0  0
 13 15  1  0  0  0
 15 16  1  0  0  0
 15 17  1  0  0  0
 15 18  1  0  0  0
  8  9  1  0  0  0
  8  4  1  0  0  0
  9 10  1  0  0  0
  4  1  1  0  0  0
  1  2  1  0  0  0
  1 26  1  0  0  0
 26 27  1  0  0  0
 27 43  1  0  0  0
 27 28  1  0  0  0
 43 44  1  0  0  0
 44 45  2  0  0  0
 44 49  1  0  0  0
 45 46  1  0  0  0
 46 47  2  0  0  0
 47 48  1  0  0  0
 48 49  2  0  0  0
 28 29  2  0  0  0
 28 30  1  0  0  0
 30 32  1  0  0  0
 32 33  1  0  0  0
 32 41  1  0  0  0
 33 34  1  0  0  0
 33 35  1  0  0  0
 35 36  1  0  0  0
 36 37  2  0  0  0
 36 41  1  0  0  0
 37 38  1  0  0  0
 38 39  2  0  0  0
 39 40  1  0  0  0
 40 41  2  0  0  0
 19 20  1  0  0  0
 20 21  1  0  0  0
 20 25  2  0  0  0
 21 22  2  0  0  0
 22 23  1  0  0  0
 23 24  2  0  0  0
 24 25  1  0  0  0
 13 14  1  0  0  0
  2  3  1  0  0  0
 30 31  1  0  0  0
 34 42  1  0  0  0
M  END
> <minimizedAffinity>
-9.95701

$$$$
1SDT_MK1_B_902


 49 53  0  0  0  0  0  0  0  0999 V2000
   23.1028   17.8121    3.4582 C   0  0  0  0  0  0  0  0  0  0  0  0
   23.7292   17.7964    2.2207 O   0  0  0  0  0  0  0  0  0  0  0  0
   23.0612   17.8526    1.5195 H   0  0  0  0  0  0  0  0  0  0  0  0
   22.1701   16.5859    3.4759 C   0  0  0  0  0  0  0  0  0  0  0  0
   22.9790   14.2390    6.9084 N   0  0  0  0  0  0  0  0  0  0  0  0
   21.6254   14.1869    6.2652 C   0  0  0  0  0  0  0  0  0  0  0  0
   21.6038   14.5950    4.8012 C   0  0  0  0  0  0  0  0  0  0  0  0
   22.0685   16.0313    4.8062 N   0  0  0  0  0  0  0  0  0  0  0  0
   23.4111   16.1609    5.4171 C   0  0  0  0  0  0  0  0  0  0  0  0
   23.4608   15.5550    6.7860 C   0  0  0  0  0  0  0  0  0  0  0  0
   20.2042   14.4651    4.2998 C   0  0  0  0  0  0  0  0  0  0  0  0
   19.2559   14.5412    5.0909 O   0  0  0  0  0  0  0  0  0  0  0  0
   20.0654   14.2672    2.9924 N   0  0  0  0  0  0  0  0  0  0  0  0
   20.8814   14.2333    2.4427 H   0  0  0  0  0  0  0  0  0  0  0  0
   18.7994   14.0994    2.3291 C   0  0  0  0  0  0  0  0  0  0  0  0
   19.1318   13.3648    1.0059 C   0  0  0  0  0  0  0  0  0  0  0  0
   18.2603   15.3863    2.0600 C   0  0  0  0  0  0  0  0  0  0  0  0
   17.9005   13.2553    3.1019 C   0  0  0  0  0  0  0  0  0  0  0  0
   22.8806   13.7964    8.3066 C   0  0  0  0  0  0  0  0  0  0  0  0
   21.6376   13.0119    8.7590 C   0  0  0  0  0  0  0  0  0  0  0  0
   21.4788   11.6554    8.4160 C   0  0  0  0  0  0  0  0  0  0  0  0
   20.4012   10.8257    8.7957 N   0  0  0  0  0  0  0  0  0  0  0  0
   19.4946   11.5488    9.5723 C   0  0  0  0  0  0  0  0  0  0  0  0
   19.5836   12.8787    9.9655 C   0  0  0  0  0  0  0  0  0  0  0  0
   20.6708   13.6336    9.5510 C   0  0  0  0  0  0  0  0  0  0  0  0
   22.3460   19.1408    3.6323 C   0  0  0  0  0  0  0  0  0  0  0  0
   23.2107   20.4176    3.4207 C   0  0  0  0  0  0  0  0  0  0  0  0
   24.4634   20.3505    4.2442 C   0  0  0  0  0  0  0  0  0  0  0  0
   25.6018   20.3809    3.7648 O   0  0  0  0  0  0  0  0  0  0  0  0
   24.2549   20.1513    5.5325 N   0  0  0  0  0  0  0  0  0  0  0  0
   23.3563   20.3240    5.8956 H   0  0  0  0  0  0  0  0  0  0  0  0
   25.2672   19.6998    6.4170 C   0  0  0  0  0  0  0  0  0  0  0  0
   24.8277   18.7554    7.5192 C   0  0  0  0  0  0  0  0  0  0  0  0
   23.5878   19.1871    8.1003 O   0  0  0  0  0  0  0  0  0  0  0  0
   25.9167   18.8578    8.5877 C   0  0  0  0  0  0  0  0  0  0  0  0
   26.3818   20.2925    8.5633 C   0  0  0  0  0  0  0  0  0  0  0  0
   27.0194   21.1096    9.4468 C   0  0  0  0  0  0  0  0  0  0  0  0
   27.3092   22.4117    9.0436 C   0  0  0  0  0  0  0  0  0  0  0  0
   26.9919   22.9037    7.7902 C   0  0  0  0  0  0  0  0  0  0  0  0
   26.3466   22.0936    6.8725 C   0  0  0  0  0  0  0  0  0  0  0  0
   26.0084   20.8254    7.1647 C   0  0  0  0  0  0  0  0  0  0  0  0
   23.6901   20.0862    8.4497 H   0  0  0  0  0  0  0  0  0  0  0  0
   22.3761   21.6428    3.8290 C   0  0  0  0  0  0  0  0  0  0  0  0
   22.7502   22.8688    3.0725 C   0  0  0  0  0  0  0  0  0  0  0  0
   22.6256   24.1168    3.6375 C   0  0  0  0  0  0  0  0  0  0  0  0
   23.0404   25.2567    2.9772 C   0  0  0  0  0  0  0  0  0  0  0  0
   23.5629   25.1173    1.6882 C   0  0  0  0  0  0  0  0  0  0  0  0
   23.6751   23.8666    1.1078 C   0  0  0  0  0  0  0  0  0  0  0  0
   23.2832   22.7308    1.8052 C   0  0  0  0  0  0  0  0  0  0  0  0
  5  6  1  0  0  0
  5 10  1  0  0  0
  5 19  1  0  0  0
  6  7  1  0  0  0
  7 11  1  0  0  0
  7  8  1  0  0  0
 11 12  2  0  0  0
 11 13  1  0  0  0
 13 15  1  0  0  0
 15 16  1  0  0  0
 15 17  1  0  0  0
 15 18  1  0  0  0
  8  9  1  0  0  0
  8  4  1  0  0  0
  9 10  1  0  0  0
  4  1  1  0  0  0
  1  2  1  0  0  0
  1 26  1  0  0  0
 26 27  1  0  0  0
 27 43  1  0  0  0
 27 28  1  0  0  0
 43 44  1  0  0  0
 44 45  2  0  0  0
 44 49  1  0  0  0
 45 46  1  0  0  0
 46 47  2  0  0  0
 47 48  1  0  0  0
 48 49  2  0  0  0
 28 29  2  0  0  0
 28 30  1  0  0  0
 30 32  1  0  0  0
 32 33  1  0  0  0
 32 41  1  0  0  0
 33 34  1  0  0  0
 33 35  1  0  0  0
 35 36  1  0  0  0
 36 37  2  0  0  0
 36 41  1  0  0  0
 37 38  1  0  0  0
 38 39  2  0  0  0
 39 40  1  0  0  0
 40 41  2  0  0  0
 19 20  1  0  0  0
 20 21  1  0  0  0
 20 25  2  0  0  0
 21 22  2  0  0  0
 22 23  1  0  0  0
 23 24  2  0  0  0
 24 25  1  0  0  0
 13 14  1  0  0  0
  2  3  1  0  0  0
 30 31  1  0  0  0
 34 42  1  0  0  0
M  END
> <minimizedAffinity>
-9.87156

$$$$
