5YZ2_AMP_A_301
  RCSB PDB05261800283D
Coordinates from PDB:5YZ2:A:301 Model:1 without hydrogens
 23 25  0  0  0  0            999 V2000
   14.9970    7.5030    8.1530   P 0  0  0  0  0  0  0  0  0  0  0  0
   14.2600    6.7060    7.0990   O 0  0  0  0  0  0  0  0  0  0  0  0
   14.6990    7.0910    9.5750   O 0  0  0  0  0  0  0  0  0  0  0  0
   14.9990    8.9970    7.9320   O 0  0  0  0  0  0  0  0  0  0  0  0
   16.5200    7.0820    7.9450   O 0  0  0  0  0  0  0  0  0  0  0  0
   16.9070    5.7120    7.9880   C 0  0  0  0  0  0  0  0  0  0  0  0
   18.0260    5.4000    7.0210   C 0  0  0  0  0  0  0  0  0  0  0  0
   17.5990    5.7260    5.6750   O 0  0  0  0  0  0  0  0  0  0  0  0
   19.3340    6.1470    7.2380   C 0  0  0  0  0  0  0  0  0  0  0  0
   20.4160    5.3270    6.7930   O 0  0  0  0  0  0  0  0  0  0  0  0
   19.1830    7.3570    6.3260   C 0  0  0  0  0  0  0  0  0  0  0  0
   20.4020    7.9260    5.9080   O 0  0  0  0  0  0  0  0  0  0  0  0
   18.4080    6.7610    5.1460   C 0  0  0  0  0  0  0  0  0  0  0  0
   17.5110    7.6880    4.4600   N 0  0  0  0  0  0  0  0  0  0  0  0
   16.7580    8.6540    5.0260   C 0  0  0  0  0  0  0  0  0  0  0  0
   16.0300    9.2980    4.0860   N 0  0  0  0  0  0  0  0  0  0  0  0
   16.3170    8.7200    2.9000   C 0  0  0  0  0  0  0  0  0  0  0  0
   15.9040    8.9100    1.5070   C 0  0  0  0  0  0  0  0  0  0  0  0
   15.0170    9.8700    1.2320   N 0  0  0  0  0  0  0  0  0  0  0  0
   16.4270    8.1080    0.5470   N 0  0  0  0  0  0  0  0  0  0  0  0
   17.3150    7.1510    0.8470   C 0  0  0  0  0  0  0  0  0  0  0  0
   17.7420    6.9210    2.1060   N 0  0  0  0  0  0  0  0  0  0  0  0
   17.2890    7.6640    3.1500   C 0  0  0  0  0  0  0  0  0  0  0  0
  1  2  2  0  0  0  0
  1  3  1  0  0  0  0
  1  4  1  0  0  0  0
  1  5  1  0  0  0  0
  5  6  1  0  0  0  0
  6  7  1  0  0  0  0
  7  8  1  0  0  0  0
  7  9  1  0  0  0  0
  8 13  1  0  0  0  0
  9 10  1  0  0  0  0
  9 11  1  0  0  0  0
 11 12  1  0  0  0  0
 11 13  1  0  0  0  0
 13 14  1  0  0  0  0
 14 15  1  0  0  0  0
 14 23  1  0  0  0  0
 15 16  2  0  0  0  0
 16 17  1  0  0  0  0
 17 18  1  0  0  0  0
 17 23  2  0  0  0  0
 18 19  1  0  0  0  0
 18 20  2  0  0  0  0
 20 21  1  0  0  0  0
 21 22  2  0  0  0  0
 22 23  1  0  0  0  0
A    1
P
A    2
O1P
A    3
O2P
A    4
O3P
A    5
O5'
A    6
C5'
A    7
C4'
A    8
O4'
A    9
C3'
A   10
O3'
A   11
C2'
A   12
O2'
A   13
C1'
A   14
N9
A   15
C8
A   16
N7
A   17
C5
A   18
C6
A   19
N6
A   20
N1
A   21
C2
A   22
N3
A   23
C4
M  END
>  <InstanceId>
5YZ2_AMP_A_301

>  <ChemCompId>
AMP

>  <PdbId>
5YZ2

>  <ChainId>
A

>  <ResidueNumber>
301

>  <InsertionCode>


>  <Model>
1

>  <AltIds>


>  <MissingHeavyAtoms>
0

>  <ObservedFormula>
C10 N5 O7 P

>  <Name>
ADENOSINE MONOPHOSPHATE

>  <SystematicName>
[(2R,3S,4R,5R)-5-(6-aminopurin-9-yl)-3,4-bis(oxidanyl)oxolan-2-yl]methyl dihydrogen phosphate

>  <Synonyms>


>  <Type>
NON-POLYMER

>  <Formula>
C10 H14 N5 O7 P

>  <MolecularWeight>
347.221

>  <ModifiedDate>
2011-12-08

>  <Parent>


>  <OneLetterCode>


>  <SubcomponentList>


>  <AmbiguousFlag>
N

>  <InChI>
InChI=1S/C10H14N5O7P/c11-8-5-9(13-2-12-8)15(3-14-5)10-7(17)6(16)4(22-10)1-21-23(18,19)20/h2-4,6-7,10,16-17H,1H2,(H2,11,12,13)(H2,18,19,20)/t4-,6-,7-,10-/m1/s1

>  <InChIKey>
UDMBCSSLTHHNCD-KQYNXXCUSA-N

>  <SMILES>
c1nc(c2c(n1)n(cn2)[C@H]3[C@@H]([C@@H]([C@H](O3)COP(=O)(O)O)O)O)N

$$$$
