2ZCQ_B65_A_451


 28 29  0  0  0  0  0  0  0  0999 V2000
   19.5082   53.7175   37.2492 C   0  0  0  0  0  0  0  0  0  0  0  0
   16.3157   55.7884   37.0620 C   0  0  0  0  0  0  0  0  0  0  0  0
   17.2046   54.7310   37.2436 C   0  0  0  0  0  0  0  0  0  0  0  0
   16.7848   57.0075   36.5884 C   0  0  0  0  0  0  0  0  0  0  0  0
   18.1370   57.1617   36.3083 C   0  0  0  0  0  0  0  0  0  0  0  0
   19.0251   56.1059   36.5014 C   0  0  0  0  0  0  0  0  0  0  0  0
   18.5542   54.8851   36.9727 C   0  0  0  0  0  0  0  0  0  0  0  0
   15.0360   55.6049   37.4781 O   0  0  0  0  0  0  0  0  0  0  0  0
   14.9352   55.4469   39.8531 C   0  0  0  0  0  0  0  0  0  0  0  0
   14.7649   56.0849   41.0844 C   0  0  0  0  0  0  0  0  0  0  0  0
   14.3682   57.4164   41.1361 C   0  0  0  0  0  0  0  0  0  0  0  0
   14.1371   58.1174   39.9620 C   0  0  0  0  0  0  0  0  0  0  0  0
   14.3033   57.4823   38.7319 C   0  0  0  0  0  0  0  0  0  0  0  0
   14.7075   56.1526   38.6836 C   0  0  0  0  0  0  0  0  0  0  0  0
   19.0725   52.4449   36.5188 C   0  0  0  0  0  0  0  0  0  0  0  0
   20.1825   51.3989   36.6164 C   0  0  0  0  0  0  0  0  0  0  0  0
   21.3926   51.7376   35.7408 C   0  0  0  0  0  0  0  0  0  0  0  0
   21.3863   50.7479   34.1916 P   0  0  0  0  0  0  0  0  0  0  0  0
   22.7128   51.1439   33.3707 O   0  0  0  0  0  0  0  0  0  0  0  0
   21.5586   49.2122   34.6488 O   0  0  0  0  0  0  0  0  0  0  0  0
   20.1561   50.9579   33.3923 O   0  0  0  0  0  0  0  0  0  0  0  0
   23.4937   50.9929   33.9260 H   0  0  0  0  0  0  0  0  0  0  0  0
   22.3729   49.1187   35.1675 H   0  0  0  0  0  0  0  0  0  0  0  0
   22.9280   51.4235   36.6835 S   0  0  0  0  0  0  0  0  0  0  0  0
   23.6001   50.2868   36.1318 O   0  0  0  0  0  0  0  0  0  0  0  0
   22.5946   51.1482   38.1180 O   0  0  0  0  0  0  0  0  0  0  0  0
   23.8123   52.6376   36.6199 O   0  0  0  0  0  0  0  0  0  0  0  0
   24.0357   52.8268   35.6951 H   0  0  0  0  0  0  0  0  0  0  0  0
  9 10  2  0  0  0
  9 14  1  0  0  0
 10 11  1  0  0  0
 11 12  2  0  0  0
 12 13  1  0  0  0
 13 14  2  0  0  0
 14  8  1  0  0  0
  8  2  1  0  0  0
  2  3  2  0  0  0
  2  4  1  0  0  0
  3  7  1  0  0  0
  4  5  2  0  0  0
  5  6  1  0  0  0
  6  7  2  0  0  0
  7  1  1  0  0  0
  1 15  1  0  0  0
 15 16  1  0  0  0
 16 17  1  0  0  0
 17 18  1  0  0  0
 17 24  1  0  0  0
 18 19  1  0  0  0
 18 20  1  0  0  0
 18 21  2  0  0  0
 24 25  2  0  0  0
 24 26  2  0  0  0
 24 27  1  0  0  0
 19 22  1  0  0  0
 20 23  1  0  0  0
 27 28  1  0  0  0
M  END
> <minimizedAffinity>
-10.20531

$$$$
2ZCQ_B65_A_451


 28 29  0  0  0  0  0  0  0  0999 V2000
   17.2636   52.0325   37.0238 C   0  0  0  0  0  0  0  0  0  0  0  0
   15.7985   54.9126   39.0424 C   0  0  0  0  0  0  0  0  0  0  0  0
   16.4170   53.7135   38.6945 C   0  0  0  0  0  0  0  0  0  0  0  0
   15.2612   55.7225   38.0495 C   0  0  0  0  0  0  0  0  0  0  0  0
   15.3533   55.3319   36.7192 C   0  0  0  0  0  0  0  0  0  0  0  0
   15.9821   54.1378   36.3737 C   0  0  0  0  0  0  0  0  0  0  0  0
   16.5170   53.3263   37.3684 C   0  0  0  0  0  0  0  0  0  0  0  0
   15.8604   55.2903   40.3455 O   0  0  0  0  0  0  0  0  0  0  0  0
   13.7467   54.4179   41.0138 C   0  0  0  0  0  0  0  0  0  0  0  0
   12.6117   54.5300   41.8209 C   0  0  0  0  0  0  0  0  0  0  0  0
   12.4057   55.6711   42.5879 C   0  0  0  0  0  0  0  0  0  0  0  0
   13.3279   56.7064   42.5526 C   0  0  0  0  0  0  0  0  0  0  0  0
   14.4599   56.5985   41.7457 C   0  0  0  0  0  0  0  0  0  0  0  0
   14.6666   55.4525   40.9855 C   0  0  0  0  0  0  0  0  0  0  0  0
   18.1889   52.2162   35.8185 C   0  0  0  0  0  0  0  0  0  0  0  0
   19.2817   51.1483   35.8507 C   0  0  0  0  0  0  0  0  0  0  0  0
   20.6352   51.6728   35.3623 C   0  0  0  0  0  0  0  0  0  0  0  0
   21.2803   50.6508   33.9770 P   0  0  0  0  0  0  0  0  0  0  0  0
   22.7047   51.2698   33.5546 O   0  0  0  0  0  0  0  0  0  0  0  0
   21.5689   49.1935   34.6015 O   0  0  0  0  0  0  0  0  0  0  0  0
   20.3399   50.5919   32.8331 O   0  0  0  0  0  0  0  0  0  0  0  0
   23.2900   51.2914   34.3278 H   0  0  0  0  0  0  0  0  0  0  0  0
   22.1867   49.2768   35.3447 H   0  0  0  0  0  0  0  0  0  0  0  0
   21.8224   51.6706   36.7536 S   0  0  0  0  0  0  0  0  0  0  0  0
   21.3576   52.5575   37.7760 O   0  0  0  0  0  0  0  0  0  0  0  0
   23.1647   52.1333   36.2751 O   0  0  0  0  0  0  0  0  0  0  0  0
   21.9594   50.2741   37.2932 O   0  0  0  0  0  0  0  0  0  0  0  0
   21.0960   49.9624   37.6067 H   0  0  0  0  0  0  0  0  0  0  0  0
  9 10  2  0  0  0
  9 14  1  0  0  0
 10 11  1  0  0  0
 11 12  2  0  0  0
 12 13  1  0  0  0
 13 14  2  0  0  0
 14  8  1  0  0  0
  8  2  1  0  0  0
  2  3  2  0  0  0
  2  4  1  0  0  0
  3  7  1  0  0  0
  4  5  2  0  0  0
  5  6  1  0  0  0
  6  7  2  0  0  0
  7  1  1  0  0  0
  1 15  1  0  0  0
 15 16  1  0  0  0
 16 17  1  0  0  0
 17 18  1  0  0  0
 17 24  1  0  0  0
 18 19  1  0  0  0
 18 20  1  0  0  0
 18 21  2  0  0  0
 24 25  2  0  0  0
 24 26  2  0  0  0
 24 27  1  0  0  0
 19 22  1  0  0  0
 20 23  1  0  0  0
 27 28  1  0  0  0
M  END
> <minimizedAffinity>
-10.05695

$$$$
2ZCQ_B65_A_451


 28 29  0  0  0  0  0  0  0  0999 V2000
   18.6036   53.0004   37.3189 C   0  0  0  0  0  0  0  0  0  0  0  0
   16.2899   56.0048   36.9498 C   0  0  0  0  0  0  0  0  0  0  0  0
   16.7694   54.7186   37.1891 C   0  0  0  0  0  0  0  0  0  0  0  0
   17.1556   56.9850   36.4805 C   0  0  0  0  0  0  0  0  0  0  0  0
   18.4922   56.6745   36.2624 C   0  0  0  0  0  0  0  0  0  0  0  0
   18.9710   55.3905   36.5131 C   0  0  0  0  0  0  0  0  0  0  0  0
   18.1032   54.4091   36.9800 C   0  0  0  0  0  0  0  0  0  0  0  0
   15.0065   56.2677   37.3077 O   0  0  0  0  0  0  0  0  0  0  0  0
   14.3709   58.1589   38.6096 C   0  0  0  0  0  0  0  0  0  0  0  0
   14.0189   58.6853   39.8550 C   0  0  0  0  0  0  0  0  0  0  0  0
   14.1267   57.9070   41.0019 C   0  0  0  0  0  0  0  0  0  0  0  0
   14.5876   56.6019   40.9138 C   0  0  0  0  0  0  0  0  0  0  0  0
   14.9424   56.0750   39.6725 C   0  0  0  0  0  0  0  0  0  0  0  0
   14.8264   56.8539   38.5263 C   0  0  0  0  0  0  0  0  0  0  0  0
   18.6660   52.1074   36.0774 C   0  0  0  0  0  0  0  0  0  0  0  0
   20.0540   52.2124   35.4463 C   0  0  0  0  0  0  0  0  0  0  0  0
   20.9254   50.9846   35.7272 C   0  0  0  0  0  0  0  0  0  0  0  0
   22.2390   51.3718   36.9535 P   0  0  0  0  0  0  0  0  0  0  0  0
   22.8780   49.9709   37.4221 O   0  0  0  0  0  0  0  0  0  0  0  0
   23.3841   52.1604   36.1387 O   0  0  0  0  0  0  0  0  0  0  0  0
   21.7270   52.1590   38.1001 O   0  0  0  0  0  0  0  0  0  0  0  0
   23.2005   49.4869   36.6458 H   0  0  0  0  0  0  0  0  0  0  0  0
   23.6907   51.6121   35.3995 H   0  0  0  0  0  0  0  0  0  0  0  0
   21.6744   50.4040   34.1629 S   0  0  0  0  0  0  0  0  0  0  0  0
   20.7081   49.6489   33.4252 O   0  0  0  0  0  0  0  0  0  0  0  0
   22.8561   49.5321   34.4599 O   0  0  0  0  0  0  0  0  0  0  0  0
   22.1393   51.5872   33.3604 O   0  0  0  0  0  0  0  0  0  0  0  0
   21.3825   52.1604   33.1613 H   0  0  0  0  0  0  0  0  0  0  0  0
  9 10  2  0  0  0
  9 14  1  0  0  0
 10 11  1  0  0  0
 11 12  2  0  0  0
 12 13  1  0  0  0
 13 14  2  0  0  0
 14  8  1  0  0  0
  8  2  1  0  0  0
  2  3  2  0  0  0
  2  4  1  0  0  0
  3  7  1  0  0  0
  4  5  2  0  0  0
  5  6  1  0  0  0
  6  7  2  0  0  0
  7  1  1  0  0  0
  1 15  1  0  0  0
 15 16  1  0  0  0
 16 17  1  0  0  0
 17 18  1  0  0  0
 17 24  1  0  0  0
 18 19  1  0  0  0
 18 20  1  0  0  0
 18 21  2  0  0  0
 24 25  2  0  0  0
 24 26  2  0  0  0
 24 27  1  0  0  0
 19 22  1  0  0  0
 20 23  1  0  0  0
 27 28  1  0  0  0
M  END
> <minimizedAffinity>
-10.04704

$$$$
2ZCQ_B65_A_451


 28 29  0  0  0  0  0  0  0  0999 V2000
   14.9647   53.9168   39.5205 C   0  0  0  0  0  0  0  0  0  0  0  0
   14.5019   57.6879   39.8038 C   0  0  0  0  0  0  0  0  0  0  0  0
   14.7715   56.4165   39.3017 C   0  0  0  0  0  0  0  0  0  0  0  0
   14.2007   57.8455   41.1510 C   0  0  0  0  0  0  0  0  0  0  0  0
   14.1637   56.7325   41.9818 C   0  0  0  0  0  0  0  0  0  0  0  0
   14.4228   55.4612   41.4745 C   0  0  0  0  0  0  0  0  0  0  0  0
   14.7271   55.3046   40.1266 C   0  0  0  0  0  0  0  0  0  0  0  0
   14.4292   58.7080   38.9102 O   0  0  0  0  0  0  0  0  0  0  0  0
   12.3634   59.8217   39.3198 C   0  0  0  0  0  0  0  0  0  0  0  0
   11.1623   60.3291   38.8178 C   0  0  0  0  0  0  0  0  0  0  0  0
   10.7865   60.0725   37.5041 C   0  0  0  0  0  0  0  0  0  0  0  0
   11.6039   59.3075   36.6855 C   0  0  0  0  0  0  0  0  0  0  0  0
   12.8017   58.7974   37.1849 C   0  0  0  0  0  0  0  0  0  0  0  0
   13.1782   59.0623   38.4971 C   0  0  0  0  0  0  0  0  0  0  0  0
   16.4465   53.5342   39.5445 C   0  0  0  0  0  0  0  0  0  0  0  0
   16.9281   53.2805   38.1165 C   0  0  0  0  0  0  0  0  0  0  0  0
   17.8267   54.4023   37.5876 C   0  0  0  0  0  0  0  0  0  0  0  0
   17.2330   55.0134   35.9586 P   0  0  0  0  0  0  0  0  0  0  0  0
   18.4144   55.9063   35.3281 O   0  0  0  0  0  0  0  0  0  0  0  0
   17.0831   53.7078   35.0260 O   0  0  0  0  0  0  0  0  0  0  0  0
   15.9636   55.7704   36.0679 O   0  0  0  0  0  0  0  0  0  0  0  0
   19.2256   55.3772   35.2733 H   0  0  0  0  0  0  0  0  0  0  0  0
   17.9333   53.2429   34.9814 H   0  0  0  0  0  0  0  0  0  0  0  0
   19.5423   53.7854   37.4426 S   0  0  0  0  0  0  0  0  0  0  0  0
   19.6808   52.5828   38.2060 O   0  0  0  0  0  0  0  0  0  0  0  0
   20.4967   54.8136   37.9688 O   0  0  0  0  0  0  0  0  0  0  0  0
   19.8618   53.5283   35.9962 O   0  0  0  0  0  0  0  0  0  0  0  0
   19.2501   52.8634   35.6432 H   0  0  0  0  0  0  0  0  0  0  0  0
  9 10  2  0  0  0
  9 14  1  0  0  0
 10 11  1  0  0  0
 11 12  2  0  0  0
 12 13  1  0  0  0
 13 14  2  0  0  0
 14  8  1  0  0  0
  8  2  1  0  0  0
  2  3  2  0  0  0
  2  4  1  0  0  0
  3  7  1  0  0  0
  4  5  2  0  0  0
  5  6  1  0  0  0
  6  7  2  0  0  0
  7  1  1  0  0  0
  1 15  1  0  0  0
 15 16  1  0  0  0
 16 17  1  0  0  0
 17 18  1  0  0  0
 17 24  1  0  0  0
 18 19  1  0  0  0
 18 20  1  0  0  0
 18 21  2  0  0  0
 24 25  2  0  0  0
 24 26  2  0  0  0
 24 27  1  0  0  0
 19 22  1  0  0  0
 20 23  1  0  0  0
 27 28  1  0  0  0
M  END
> <minimizedAffinity>
-9.74650

$$$$
2ZCQ_B65_A_451


 28 29  0  0  0  0  0  0  0  0999 V2000
   17.4748   55.3383   35.6981 C   0  0  0  0  0  0  0  0  0  0  0  0
   15.5921   56.0941   38.9230 C   0  0  0  0  0  0  0  0  0  0  0  0
   16.4492   55.5151   37.9894 C   0  0  0  0  0  0  0  0  0  0  0  0
   14.7364   57.1157   38.5299 C   0  0  0  0  0  0  0  0  0  0  0  0
   14.7501   57.5547   37.2117 C   0  0  0  0  0  0  0  0  0  0  0  0
   15.6161   56.9813   36.2832 C   0  0  0  0  0  0  0  0  0  0  0  0
   16.4701   55.9568   36.6768 C   0  0  0  0  0  0  0  0  0  0  0  0
   15.7255   55.7041   40.2170 O   0  0  0  0  0  0  0  0  0  0  0  0
   13.7004   54.6275   40.8612 C   0  0  0  0  0  0  0  0  0  0  0  0
   12.6331   54.5331   41.7581 C   0  0  0  0  0  0  0  0  0  0  0  0
   12.4583   55.4966   42.7449 C   0  0  0  0  0  0  0  0  0  0  0  0
   13.3441   56.5594   42.8415 C   0  0  0  0  0  0  0  0  0  0  0  0
   14.4083   56.6577   41.9459 C   0  0  0  0  0  0  0  0  0  0  0  0
   14.5845   55.6881   40.9647 C   0  0  0  0  0  0  0  0  0  0  0  0
   17.1885   53.8547   35.4543 C   0  0  0  0  0  0  0  0  0  0  0  0
   17.9410   53.0165   36.4873 C   0  0  0  0  0  0  0  0  0  0  0  0
   19.4564   53.2311   36.4321 C   0  0  0  0  0  0  0  0  0  0  0  0
   20.3349   51.6579   36.0679 P   0  0  0  0  0  0  0  0  0  0  0  0
   21.8548   52.0380   35.6995 O   0  0  0  0  0  0  0  0  0  0  0  0
   20.3786   50.8452   37.4588 O   0  0  0  0  0  0  0  0  0  0  0  0
   19.6799   50.8822   34.9883 O   0  0  0  0  0  0  0  0  0  0  0  0
   22.2475   52.5433   36.4284 H   0  0  0  0  0  0  0  0  0  0  0  0
   20.8137   51.3865   38.1360 H   0  0  0  0  0  0  0  0  0  0  0  0
   20.0284   53.9180   38.0278 S   0  0  0  0  0  0  0  0  0  0  0  0
   20.0076   55.3475   37.9643 O   0  0  0  0  0  0  0  0  0  0  0  0
   21.4275   53.4591   38.3046 O   0  0  0  0  0  0  0  0  0  0  0  0
   19.1344   53.4289   39.1331 O   0  0  0  0  0  0  0  0  0  0  0  0
   18.2243   53.7198   38.9656 H   0  0  0  0  0  0  0  0  0  0  0  0
  9 10  2  0  0  0
  9 14  1  0  0  0
 10 11  1  0  0  0
 11 12  2  0  0  0
 12 13  1  0  0  0
 13 14  2  0  0  0
 14  8  1  0  0  0
  8  2  1  0  0  0
  2  3  2  0  0  0
  2  4  1  0  0  0
  3  7  1  0  0  0
  4  5  2  0  0  0
  5  6  1  0  0  0
  6  7  2  0  0  0
  7  1  1  0  0  0
  1 15  1  0  0  0
 15 16  1  0  0  0
 16 17  1  0  0  0
 17 18  1  0  0  0
 17 24  1  0  0  0
 18 19  1  0  0  0
 18 20  1  0  0  0
 18 21  2  0  0  0
 24 25  2  0  0  0
 24 26  2  0  0  0
 24 27  1  0  0  0
 19 22  1  0  0  0
 20 23  1  0  0  0
 27 28  1  0  0  0
M  END
> <minimizedAffinity>
-9.61989

$$$$
2ZCQ_B65_A_451


 28 29  0  0  0  0  0  0  0  0999 V2000
   15.2483   52.4478   39.2030 C   0  0  0  0  0  0  0  0  0  0  0  0
   14.5701   56.0424   40.2683 C   0  0  0  0  0  0  0  0  0  0  0  0
   15.1200   54.9210   39.6506 C   0  0  0  0  0  0  0  0  0  0  0  0
   13.5622   55.8831   41.2112 C   0  0  0  0  0  0  0  0  0  0  0  0
   13.1076   54.6076   41.5226 C   0  0  0  0  0  0  0  0  0  0  0  0
   13.6517   53.4891   40.8952 C   0  0  0  0  0  0  0  0  0  0  0  0
   14.6626   53.6492   39.9537 C   0  0  0  0  0  0  0  0  0  0  0  0
   14.9723   57.2600   39.8208 O   0  0  0  0  0  0  0  0  0  0  0  0
   13.7630   59.3105   39.7290 C   0  0  0  0  0  0  0  0  0  0  0  0
   12.9118   60.1621   39.0201 C   0  0  0  0  0  0  0  0  0  0  0  0
   12.3190   59.7363   37.8369 C   0  0  0  0  0  0  0  0  0  0  0  0
   12.5694   58.4599   37.3557 C   0  0  0  0  0  0  0  0  0  0  0  0
   13.4161   57.6069   38.0626 C   0  0  0  0  0  0  0  0  0  0  0  0
   14.0133   58.0387   39.2420 C   0  0  0  0  0  0  0  0  0  0  0  0
   16.1311   52.8868   38.0322 C   0  0  0  0  0  0  0  0  0  0  0  0
   17.5807   52.4938   38.3148 C   0  0  0  0  0  0  0  0  0  0  0  0
   18.5676   53.1273   37.3298 C   0  0  0  0  0  0  0  0  0  0  0  0
   19.5195   51.8398   36.4264 P   0  0  0  0  0  0  0  0  0  0  0  0
   20.5571   52.6057   35.4635 O   0  0  0  0  0  0  0  0  0  0  0  0
   20.3934   51.0734   37.5426 O   0  0  0  0  0  0  0  0  0  0  0  0
   18.6420   50.9142   35.6717 O   0  0  0  0  0  0  0  0  0  0  0  0
   21.1115   53.1998   35.9932 H   0  0  0  0  0  0  0  0  0  0  0  0
   20.9516   51.7132   38.0117 H   0  0  0  0  0  0  0  0  0  0  0  0
   19.7068   54.2309   38.2406 S   0  0  0  0  0  0  0  0  0  0  0  0
   19.8173   55.4772   37.5459 O   0  0  0  0  0  0  0  0  0  0  0  0
   21.0615   53.5974   38.3312 O   0  0  0  0  0  0  0  0  0  0  0  0
   19.1846   54.4510   39.6331 O   0  0  0  0  0  0  0  0  0  0  0  0
   18.3068   54.8612   39.5882 H   0  0  0  0  0  0  0  0  0  0  0  0
  9 10  2  0  0  0
  9 14  1  0  0  0
 10 11  1  0  0  0
 11 12  2  0  0  0
 12 13  1  0  0  0
 13 14  2  0  0  0
 14  8  1  0  0  0
  8  2  1  0  0  0
  2  3  2  0  0  0
  2  4  1  0  0  0
  3  7  1  0  0  0
  4  5  2  0  0  0
  5  6  1  0  0  0
  6  7  2  0  0  0
  7  1  1  0  0  0
  1 15  1  0  0  0
 15 16  1  0  0  0
 16 17  1  0  0  0
 17 18  1  0  0  0
 17 24  1  0  0  0
 18 19  1  0  0  0
 18 20  1  0  0  0
 18 21  2  0  0  0
 24 25  2  0  0  0
 24 26  2  0  0  0
 24 27  1  0  0  0
 19 22  1  0  0  0
 20 23  1  0  0  0
 27 28  1  0  0  0
M  END
> <minimizedAffinity>
-9.59198

$$$$
2ZCQ_B65_A_451


 28 29  0  0  0  0  0  0  0  0999 V2000
   18.5923   53.1814   36.6974 C   0  0  0  0  0  0  0  0  0  0  0  0
   16.0058   53.9068   39.3991 C   0  0  0  0  0  0  0  0  0  0  0  0
   17.1607   53.9464   38.6205 C   0  0  0  0  0  0  0  0  0  0  0  0
   15.0273   52.9578   39.1300 C   0  0  0  0  0  0  0  0  0  0  0  0
   15.2071   52.0633   38.0822 C   0  0  0  0  0  0  0  0  0  0  0  0
   16.3578   52.1125   37.2985 C   0  0  0  0  0  0  0  0  0  0  0  0
   17.3381   53.0607   37.5704 C   0  0  0  0  0  0  0  0  0  0  0  0
   15.8411   54.8917   40.3196 O   0  0  0  0  0  0  0  0  0  0  0  0
   14.5754   56.8462   40.8231 C   0  0  0  0  0  0  0  0  0  0  0  0
   14.0563   58.0724   40.4000 C   0  0  0  0  0  0  0  0  0  0  0  0
   14.1394   58.4462   39.0636 C   0  0  0  0  0  0  0  0  0  0  0  0
   14.7377   57.5996   38.1423 C   0  0  0  0  0  0  0  0  0  0  0  0
   15.2539   56.3739   38.5613 C   0  0  0  0  0  0  0  0  0  0  0  0
   15.1758   56.0064   39.9002 C   0  0  0  0  0  0  0  0  0  0  0  0
   18.7429   51.9858   35.7537 C   0  0  0  0  0  0  0  0  0  0  0  0
   19.9447   51.1465   36.1862 C   0  0  0  0  0  0  0  0  0  0  0  0
   21.2693   51.6831   35.6355 C   0  0  0  0  0  0  0  0  0  0  0  0
   21.9163   50.6015   34.2972 P   0  0  0  0  0  0  0  0  0  0  0  0
   23.4279   50.2133   34.6905 O   0  0  0  0  0  0  0  0  0  0  0  0
   21.0497   49.2448   34.3692 O   0  0  0  0  0  0  0  0  0  0  0  0
   21.8378   51.2442   32.9641 O   0  0  0  0  0  0  0  0  0  0  0  0
   23.4372   49.7967   35.5665 H   0  0  0  0  0  0  0  0  0  0  0  0
   21.1283   48.8576   35.2551 H   0  0  0  0  0  0  0  0  0  0  0  0
   22.4865   51.8002   36.9956 S   0  0  0  0  0  0  0  0  0  0  0  0
   22.7561   50.4907   37.5059 O   0  0  0  0  0  0  0  0  0  0  0  0
   21.9348   52.6526   38.0973 O   0  0  0  0  0  0  0  0  0  0  0  0
   23.7501   52.4342   36.4839 O   0  0  0  0  0  0  0  0  0  0  0  0
   24.1178   51.8912   35.7691 H   0  0  0  0  0  0  0  0  0  0  0  0
  9 10  2  0  0  0
  9 14  1  0  0  0
 10 11  1  0  0  0
 11 12  2  0  0  0
 12 13  1  0  0  0
 13 14  2  0  0  0
 14  8  1  0  0  0
  8  2  1  0  0  0
  2  3  2  0  0  0
  2  4  1  0  0  0
  3  7  1  0  0  0
  4  5  2  0  0  0
  5  6  1  0  0  0
  6  7  2  0  0  0
  7  1  1  0  0  0
  1 15  1  0  0  0
 15 16  1  0  0  0
 16 17  1  0  0  0
 17 18  1  0  0  0
 17 24  1  0  0  0
 18 19  1  0  0  0
 18 20  1  0  0  0
 18 21  2  0  0  0
 24 25  2  0  0  0
 24 26  2  0  0  0
 24 27  1  0  0  0
 19 22  1  0  0  0
 20 23  1  0  0  0
 27 28  1  0  0  0
M  END
> <minimizedAffinity>
-9.55828

$$$$
2ZCQ_B65_A_451


 28 29  0  0  0  0  0  0  0  0999 V2000
   17.8712   53.0475   36.4297 C   0  0  0  0  0  0  0  0  0  0  0  0
   15.2826   53.9063   39.0901 C   0  0  0  0  0  0  0  0  0  0  0  0
   16.1339   53.9861   37.9899 C   0  0  0  0  0  0  0  0  0  0  0  0
   15.3126   52.7794   39.9023 C   0  0  0  0  0  0  0  0  0  0  0  0
   16.1857   51.7404   39.6043 C   0  0  0  0  0  0  0  0  0  0  0  0
   17.0278   51.8185   38.4973 C   0  0  0  0  0  0  0  0  0  0  0  0
   16.9993   52.9480   37.6865 C   0  0  0  0  0  0  0  0  0  0  0  0
   14.3686   54.8990   39.2437 O   0  0  0  0  0  0  0  0  0  0  0  0
   14.7191   56.4239   41.0402 C   0  0  0  0  0  0  0  0  0  0  0  0
   14.3122   56.9162   42.2829 C   0  0  0  0  0  0  0  0  0  0  0  0
   13.3075   56.2739   42.9976 C   0  0  0  0  0  0  0  0  0  0  0  0
   12.7052   55.1374   42.4790 C   0  0  0  0  0  0  0  0  0  0  0  0
   13.1113   54.6422   41.2404 C   0  0  0  0  0  0  0  0  0  0  0  0
   14.1115   55.2914   40.5247 C   0  0  0  0  0  0  0  0  0  0  0  0
   18.3228   51.6685   35.9428 C   0  0  0  0  0  0  0  0  0  0  0  0
   19.6579   51.8011   35.2109 C   0  0  0  0  0  0  0  0  0  0  0  0
   20.6561   50.7063   35.5990 C   0  0  0  0  0  0  0  0  0  0  0  0
   21.9070   51.3420   36.7867 P   0  0  0  0  0  0  0  0  0  0  0  0
   22.6008   50.0629   37.4743 O   0  0  0  0  0  0  0  0  0  0  0  0
   23.0366   52.0643   35.8927 O   0  0  0  0  0  0  0  0  0  0  0  0
   21.3177   52.2597   37.7902 O   0  0  0  0  0  0  0  0  0  0  0  0
   22.9732   49.4886   36.7870 H   0  0  0  0  0  0  0  0  0  0  0  0
   23.3950   51.4311   35.2512 H   0  0  0  0  0  0  0  0  0  0  0  0
   21.4798   50.0772   34.0921 S   0  0  0  0  0  0  0  0  0  0  0  0
   22.7471   49.5129   34.4439 O   0  0  0  0  0  0  0  0  0  0  0  0
   21.6944   51.2013   33.1250 O   0  0  0  0  0  0  0  0  0  0  0  0
   20.6074   49.0413   33.4394 O   0  0  0  0  0  0  0  0  0  0  0  0
   20.4607   48.3071   34.0561 H   0  0  0  0  0  0  0  0  0  0  0  0
  9 10  2  0  0  0
  9 14  1  0  0  0
 10 11  1  0  0  0
 11 12  2  0  0  0
 12 13  1  0  0  0
 13 14  2  0  0  0
 14  8  1  0  0  0
  8  2  1  0  0  0
  2  3  2  0  0  0
  2  4  1  0  0  0
  3  7  1  0  0  0
  4  5  2  0  0  0
  5  6  1  0  0  0
  6  7  2  0  0  0
  7  1  1  0  0  0
  1 15  1  0  0  0
 15 16  1  0  0  0
 16 17  1  0  0  0
 17 18  1  0  0  0
 17 24  1  0  0  0
 18 19  1  0  0  0
 18 20  1  0  0  0
 18 21  2  0  0  0
 24 25  2  0  0  0
 24 26  2  0  0  0
 24 27  1  0  0  0
 19 22  1  0  0  0
 20 23  1  0  0  0
 27 28  1  0  0  0
M  END
> <minimizedAffinity>
-9.54624

$$$$
2ZCQ_B65_A_451


 28 29  0  0  0  0  0  0  0  0999 V2000
   17.8560   52.6130   35.8520 C   0  0  0  0  0  0  0  0  0  0  0  0
   15.9741   54.3228   38.6895 C   0  0  0  0  0  0  0  0  0  0  0  0
   16.3275   53.8385   37.4317 C   0  0  0  0  0  0  0  0  0  0  0  0
   16.8497   54.1672   39.7570 C   0  0  0  0  0  0  0  0  0  0  0  0
   18.0651   53.5232   39.5609 C   0  0  0  0  0  0  0  0  0  0  0  0
   18.4108   53.0303   38.3046 C   0  0  0  0  0  0  0  0  0  0  0  0
   17.5351   53.1890   37.2359 C   0  0  0  0  0  0  0  0  0  0  0  0
   14.7200   54.8236   38.8344 O   0  0  0  0  0  0  0  0  0  0  0  0
   14.5840   57.1322   38.2625 C   0  0  0  0  0  0  0  0  0  0  0  0
   14.3114   58.4445   38.6574 C   0  0  0  0  0  0  0  0  0  0  0  0
   14.0911   58.7428   39.9973 C   0  0  0  0  0  0  0  0  0  0  0  0
   14.1437   57.7362   40.9499 C   0  0  0  0  0  0  0  0  0  0  0  0
   14.4185   56.4263   40.5589 C   0  0  0  0  0  0  0  0  0  0  0  0
   14.6309   56.1300   39.2168 C   0  0  0  0  0  0  0  0  0  0  0  0
   18.8076   51.4177   35.9426 C   0  0  0  0  0  0  0  0  0  0  0  0
   20.1869   51.8272   35.4274 C   0  0  0  0  0  0  0  0  0  0  0  0
   21.2608   50.7727   35.7107 C   0  0  0  0  0  0  0  0  0  0  0  0
   22.4450   51.3607   36.9882 P   0  0  0  0  0  0  0  0  0  0  0  0
   23.5475   52.2592   36.2349 O   0  0  0  0  0  0  0  0  0  0  0  0
   21.6065   52.3508   37.9440 O   0  0  0  0  0  0  0  0  0  0  0  0
   23.0611   50.2444   37.7435 O   0  0  0  0  0  0  0  0  0  0  0  0
   23.1061   52.9765   35.7537 H   0  0  0  0  0  0  0  0  0  0  0  0
   21.2213   53.0645   37.4120 H   0  0  0  0  0  0  0  0  0  0  0  0
   22.1486   50.3818   34.1602 S   0  0  0  0  0  0  0  0  0  0  0  0
   21.4777   49.3130   33.4853 O   0  0  0  0  0  0  0  0  0  0  0  0
   23.5523   49.9611   34.4723 O   0  0  0  0  0  0  0  0  0  0  0  0
   22.1960   51.6053   33.2878 O   0  0  0  0  0  0  0  0  0  0  0  0
   21.2921   51.8882   33.0783 H   0  0  0  0  0  0  0  0  0  0  0  0
  9 10  2  0  0  0
  9 14  1  0  0  0
 10 11  1  0  0  0
 11 12  2  0  0  0
 12 13  1  0  0  0
 13 14  2  0  0  0
 14  8  1  0  0  0
  8  2  1  0  0  0
  2  3  2  0  0  0
  2  4  1  0  0  0
  3  7  1  0  0  0
  4  5  2  0  0  0
  5  6  1  0  0  0
  6  7  2  0  0  0
  7  1  1  0  0  0
  1 15  1  0  0  0
 15 16  1  0  0  0
 16 17  1  0  0  0
 17 18  1  0  0  0
 17 24  1  0  0  0
 18 19  1  0  0  0
 18 20  1  0  0  0
 18 21  2  0  0  0
 24 25  2  0  0  0
 24 26  2  0  0  0
 24 27  1  0  0  0
 19 22  1  0  0  0
 20 23  1  0  0  0
 27 28  1  0  0  0
M  END
> <minimizedAffinity>
-9.54223

$$$$
2ZCQ_B65_A_451


 28 29  0  0  0  0  0  0  0  0999 V2000
   17.6643   51.6562   36.8697 C   0  0  0  0  0  0  0  0  0  0  0  0
   15.2155   52.9296   39.4961 C   0  0  0  0  0  0  0  0  0  0  0  0
   15.9538   52.7957   38.3220 C   0  0  0  0  0  0  0  0  0  0  0  0
   15.4631   52.0771   40.5649 C   0  0  0  0  0  0  0  0  0  0  0  0
   16.4389   51.0948   40.4489 C   0  0  0  0  0  0  0  0  0  0  0  0
   17.1678   50.9564   39.2698 C   0  0  0  0  0  0  0  0  0  0  0  0
   16.9214   51.8119   38.2015 C   0  0  0  0  0  0  0  0  0  0  0  0
   14.1934   53.8239   39.4906 O   0  0  0  0  0  0  0  0  0  0  0  0
   14.8778   55.7097   40.7755 C   0  0  0  0  0  0  0  0  0  0  0  0
   14.6168   56.5974   41.8225 C   0  0  0  0  0  0  0  0  0  0  0  0
   13.5514   56.3703   42.6862 C   0  0  0  0  0  0  0  0  0  0  0  0
   12.7427   55.2570   42.5126 C   0  0  0  0  0  0  0  0  0  0  0  0
   13.0027   54.3679   41.4704 C   0  0  0  0  0  0  0  0  0  0  0  0
   14.0647   54.6021   40.6037 C   0  0  0  0  0  0  0  0  0  0  0  0
   19.1777   51.8032   37.0446 C   0  0  0  0  0  0  0  0  0  0  0  0
   19.8932   50.8188   36.1201 C   0  0  0  0  0  0  0  0  0  0  0  0
   21.1099   51.4376   35.4256 C   0  0  0  0  0  0  0  0  0  0  0  0
   21.4473   50.6098   33.8193 P   0  0  0  0  0  0  0  0  0  0  0  0
   22.6602   51.4050   33.1216 O   0  0  0  0  0  0  0  0  0  0  0  0
   21.9995   49.1413   34.1876 O   0  0  0  0  0  0  0  0  0  0  0  0
   20.2482   50.5536   32.9501 O   0  0  0  0  0  0  0  0  0  0  0  0
   23.4236   51.4197   33.7199 H   0  0  0  0  0  0  0  0  0  0  0  0
   22.7816   49.2231   34.7556 H   0  0  0  0  0  0  0  0  0  0  0  0
   22.5666   51.3020   36.5232 S   0  0  0  0  0  0  0  0  0  0  0  0
   22.7884   52.5564   37.1753 O   0  0  0  0  0  0  0  0  0  0  0  0
   23.7780   50.9473   35.7160 O   0  0  0  0  0  0  0  0  0  0  0  0
   22.3304   50.2179   37.5377 O   0  0  0  0  0  0  0  0  0  0  0  0
   21.5477   50.4359   38.0675 H   0  0  0  0  0  0  0  0  0  0  0  0
  9 10  2  0  0  0
  9 14  1  0  0  0
 10 11  1  0  0  0
 11 12  2  0  0  0
 12 13  1  0  0  0
 13 14  2  0  0  0
 14  8  1  0  0  0
  8  2  1  0  0  0
  2  3  2  0  0  0
  2  4  1  0  0  0
  3  7  1  0  0  0
  4  5  2  0  0  0
  5  6  1  0  0  0
  6  7  2  0  0  0
  7  1  1  0  0  0
  1 15  1  0  0  0
 15 16  1  0  0  0
 16 17  1  0  0  0
 17 18  1  0  0  0
 17 24  1  0  0  0
 18 19  1  0  0  0
 18 20  1  0  0  0
 18 21  2  0  0  0
 24 25  2  0  0  0
 24 26  2  0  0  0
 24 27  1  0  0  0
 19 22  1  0  0  0
 20 23  1  0  0  0
 27 28  1  0  0  0
M  END
> <minimizedAffinity>
-9.53877

$$$$
