5G4O_O80_A_1293


 22 24  0  0  0  0  0  0  0  0999 V2000
   91.6343   93.4515  -44.1364 C   0  0  0  0  0  0  0  0  0  0  0  0
   91.9292   93.7436  -42.8202 N   0  0  0  0  0  0  0  0  0  0  0  0
   91.1863   94.6288  -44.7254 C   0  0  0  0  0  0  0  0  0  0  0  0
   91.2236   95.6393  -43.7229 C   0  0  0  0  0  0  0  0  0  0  0  0
   91.6913   95.0622  -42.5411 C   0  0  0  0  0  0  0  0  0  0  0  0
   91.7156   92.2542  -44.8514 C   0  0  0  0  0  0  0  0  0  0  0  0
   91.3396   92.2608  -46.1952 C   0  0  0  0  0  0  0  0  0  0  0  0
   90.8900   93.4263  -46.8059 C   0  0  0  0  0  0  0  0  0  0  0  0
   90.8087   94.6199  -46.0828 C   0  0  0  0  0  0  0  0  0  0  0  0
   91.8529   95.7770  -41.3487 C   0  0  0  0  0  0  0  0  0  0  0  0
   91.5236   97.1294  -41.3702 C   0  0  0  0  0  0  0  0  0  0  0  0
   91.0543   97.7331  -42.5319 C   0  0  0  0  0  0  0  0  0  0  0  0
   90.9000   96.9999  -43.7096 C   0  0  0  0  0  0  0  0  0  0  0  0
   92.4253   92.8085  -41.8403 C   0  0  0  0  0  0  0  0  0  0  0  0
   94.4373   91.6833  -41.2481 F   0  0  0  0  0  0  0  0  0  0  0  0
   94.4716   93.0315  -42.9548 F   0  0  0  0  0  0  0  0  0  0  0  0
   94.3278   93.8383  -40.9352 F   0  0  0  0  0  0  0  0  0  0  0  0
   93.9287   92.8330  -41.7354 C   0  0  0  0  0  0  0  0  0  0  0  0
   90.7139   99.1786  -42.5153 C   0  0  0  0  0  0  0  0  0  0  0  0
   89.4933   99.5165  -43.2998 N   0  0  0  0  0  0  0  0  0  0  0  0
   88.3255   99.6640  -42.3875 C   0  0  0  0  0  0  0  0  0  0  0  0
   89.7030  100.7950  -44.0293 C   0  0  0  0  0  0  0  0  0  0  0  0
  1  2  1  0  0  0
  1  3  2  0  0  0
  1  6  1  0  0  0
 15 18  1  0  0  0
  2  5  1  0  0  0
  2 14  1  0  0  0
  3  4  1  0  0  0
  3  9  1  0  0  0
 16 18  1  0  0  0
 20 19  1  0  0  0
 20 21  1  0  0  0
 20 22  1  0  0  0
  4  5  2  0  0  0
  4 13  1  0  0  0
 17 18  1  0  0  0
  5 10  1  0  0  0
  6  7  2  0  0  0
  7  8  1  0  0  0
  8  9  2  0  0  0
 10 11  2  0  0  0
 11 12  1  0  0  0
 12 13  2  0  0  0
 12 19  1  0  0  0
 14 18  1  0  0  0
M  END
> <minimizedAffinity>
-8.13069

$$$$
5G4O_O80_A_1293


 22 24  0  0  0  0  0  0  0  0999 V2000
   91.4585   95.0398  -43.2914 C   0  0  0  0  0  0  0  0  0  0  0  0
   90.8657   95.5664  -44.4209 N   0  0  0  0  0  0  0  0  0  0  0  0
   91.7975   93.7234  -43.5842 C   0  0  0  0  0  0  0  0  0  0  0  0
   91.3927   93.4752  -44.9266 C   0  0  0  0  0  0  0  0  0  0  0  0
   90.8132   94.6417  -45.4286 C   0  0  0  0  0  0  0  0  0  0  0  0
   91.7152   95.6062  -42.0405 C   0  0  0  0  0  0  0  0  0  0  0  0
   92.3366   94.8159  -41.0728 C   0  0  0  0  0  0  0  0  0  0  0  0
   92.6861   93.4974  -41.3434 C   0  0  0  0  0  0  0  0  0  0  0  0
   92.4233   92.9370  -42.5967 C   0  0  0  0  0  0  0  0  0  0  0  0
   90.3039   94.7488  -46.7278 C   0  0  0  0  0  0  0  0  0  0  0  0
   90.3926   93.6209  -47.5390 C   0  0  0  0  0  0  0  0  0  0  0  0
   90.9637   92.4437  -47.0675 C   0  0  0  0  0  0  0  0  0  0  0  0
   91.4643   92.3597  -45.7672 C   0  0  0  0  0  0  0  0  0  0  0  0
   90.3581   96.9096  -44.5579 C   0  0  0  0  0  0  0  0  0  0  0  0
   92.5448   97.3930  -45.3638 F   0  0  0  0  0  0  0  0  0  0  0  0
   91.0154   98.9294  -45.5414 F   0  0  0  0  0  0  0  0  0  0  0  0
   91.8435   98.4414  -43.5853 F   0  0  0  0  0  0  0  0  0  0  0  0
   91.4581   97.9192  -44.7639 C   0  0  0  0  0  0  0  0  0  0  0  0
   91.0406   91.2617  -47.9632 C   0  0  0  0  0  0  0  0  0  0  0  0
   90.0468   91.2842  -49.0729 N   0  0  0  0  0  0  0  0  0  0  0  0
   90.7490   91.3311  -50.3853 C   0  0  0  0  0  0  0  0  0  0  0  0
   89.2041   90.0604  -49.0175 C   0  0  0  0  0  0  0  0  0  0  0  0
  1  2  1  0  0  0
  1  3  2  0  0  0
  1  6  1  0  0  0
 15 18  1  0  0  0
  2  5  1  0  0  0
  2 14  1  0  0  0
  3  4  1  0  0  0
  3  9  1  0  0  0
 16 18  1  0  0  0
 20 19  1  0  0  0
 20 21  1  0  0  0
 20 22  1  0  0  0
  4  5  2  0  0  0
  4 13  1  0  0  0
 17 18  1  0  0  0
  5 10  1  0  0  0
  6  7  2  0  0  0
  7  8  1  0  0  0
  8  9  2  0  0  0
 10 11  2  0  0  0
 11 12  1  0  0  0
 12 13  2  0  0  0
 12 19  1  0  0  0
 14 18  1  0  0  0
M  END
> <minimizedAffinity>
-6.63697

$$$$
5G4O_O80_A_1293


 22 24  0  0  0  0  0  0  0  0999 V2000
   91.3334   93.4357  -45.7929 C   0  0  0  0  0  0  0  0  0  0  0  0
   91.7838   94.1468  -44.6993 N   0  0  0  0  0  0  0  0  0  0  0  0
   90.4465   94.2588  -46.4781 C   0  0  0  0  0  0  0  0  0  0  0  0
   90.3794   95.4888  -45.7638 C   0  0  0  0  0  0  0  0  0  0  0  0
   91.2237   95.3949  -44.6562 C   0  0  0  0  0  0  0  0  0  0  0  0
   91.6243   92.1409  -46.2291 C   0  0  0  0  0  0  0  0  0  0  0  0
   91.0036   91.6805  -47.3910 C   0  0  0  0  0  0  0  0  0  0  0  0
   90.1143   92.4862  -48.0935 C   0  0  0  0  0  0  0  0  0  0  0  0
   89.8262   93.7798  -47.6490 C   0  0  0  0  0  0  0  0  0  0  0  0
   91.3988   96.4327  -43.7336 C   0  0  0  0  0  0  0  0  0  0  0  0
   90.6834   97.6061  -43.9555 C   0  0  0  0  0  0  0  0  0  0  0  0
   89.8336   97.7300  -45.0494 C   0  0  0  0  0  0  0  0  0  0  0  0
   89.6738   96.6810  -45.9563 C   0  0  0  0  0  0  0  0  0  0  0  0
   92.7212   93.6702  -43.7120 C   0  0  0  0  0  0  0  0  0  0  0  0
   92.3578   92.1198  -41.9430 F   0  0  0  0  0  0  0  0  0  0  0  0
   92.4495   94.2381  -41.4575 F   0  0  0  0  0  0  0  0  0  0  0  0
   90.7186   93.4393  -42.5140 F   0  0  0  0  0  0  0  0  0  0  0  0
   92.0562   93.3530  -42.3971 C   0  0  0  0  0  0  0  0  0  0  0  0
   89.0878   98.9980  -45.2525 C   0  0  0  0  0  0  0  0  0  0  0  0
   89.0119   99.8512  -44.0336 N   0  0  0  0  0  0  0  0  0  0  0  0
   89.2984  101.2696  -44.3854 C   0  0  0  0  0  0  0  0  0  0  0  0
   87.6500   99.7638  -43.4432 C   0  0  0  0  0  0  0  0  0  0  0  0
  1  2  1  0  0  0
  1  3  2  0  0  0
  1  6  1  0  0  0
 15 18  1  0  0  0
  2  5  1  0  0  0
  2 14  1  0  0  0
  3  4  1  0  0  0
  3  9  1  0  0  0
 16 18  1  0  0  0
 20 19  1  0  0  0
 20 21  1  0  0  0
 20 22  1  0  0  0
  4  5  2  0  0  0
  4 13  1  0  0  0
 17 18  1  0  0  0
  5 10  1  0  0  0
  6  7  2  0  0  0
  7  8  1  0  0  0
  8  9  2  0  0  0
 10 11  2  0  0  0
 11 12  1  0  0  0
 12 13  2  0  0  0
 12 19  1  0  0  0
 14 18  1  0  0  0
M  END
> <minimizedAffinity>
-5.61203

$$$$
5G4O_O80_A_1293


 22 24  0  0  0  0  0  0  0  0999 V2000
   91.1431   97.1377  -43.2298 C   0  0  0  0  0  0  0  0  0  0  0  0
   90.8454   98.2357  -44.0112 N   0  0  0  0  0  0  0  0  0  0  0  0
   91.5926   97.6181  -42.0048 C   0  0  0  0  0  0  0  0  0  0  0  0
   91.5534   99.0399  -42.0725 C   0  0  0  0  0  0  0  0  0  0  0  0
   91.0830   99.4022  -43.3358 C   0  0  0  0  0  0  0  0  0  0  0  0
   91.0630   95.7696  -43.5006 C   0  0  0  0  0  0  0  0  0  0  0  0
   91.4419   94.8750  -42.4988 C   0  0  0  0  0  0  0  0  0  0  0  0
   91.8931   95.3322  -41.2655 C   0  0  0  0  0  0  0  0  0  0  0  0
   91.9731   96.7030  -41.0034 C   0  0  0  0  0  0  0  0  0  0  0  0
   90.9190  100.7313  -43.7423 C   0  0  0  0  0  0  0  0  0  0  0  0
   91.2486  101.7217  -42.8212 C   0  0  0  0  0  0  0  0  0  0  0  0
   91.7206  101.3927  -41.5550 C   0  0  0  0  0  0  0  0  0  0  0  0
   91.8772  100.0596  -41.1717 C   0  0  0  0  0  0  0  0  0  0  0  0
   90.3470   98.1969  -45.3642 C   0  0  0  0  0  0  0  0  0  0  0  0
   88.2724   98.8015  -46.3619 F   0  0  0  0  0  0  0  0  0  0  0  0
   88.5394   96.7476  -45.6974 F   0  0  0  0  0  0  0  0  0  0  0  0
   88.2992   98.3417  -44.2308 F   0  0  0  0  0  0  0  0  0  0  0  0
   88.8499   98.0308  -45.4183 C   0  0  0  0  0  0  0  0  0  0  0  0
   92.0612  102.4777  -40.5999 C   0  0  0  0  0  0  0  0  0  0  0  0
   93.3749  102.2903  -39.9229 N   0  0  0  0  0  0  0  0  0  0  0  0
   94.4762  102.7628  -40.8070 C   0  0  0  0  0  0  0  0  0  0  0  0
   93.4027  103.0683  -38.6561 C   0  0  0  0  0  0  0  0  0  0  0  0
  1  2  1  0  0  0
  1  3  2  0  0  0
  1  6  1  0  0  0
 15 18  1  0  0  0
  2  5  1  0  0  0
  2 14  1  0  0  0
  3  4  1  0  0  0
  3  9  1  0  0  0
 16 18  1  0  0  0
 20 19  1  0  0  0
 20 21  1  0  0  0
 20 22  1  0  0  0
  4  5  2  0  0  0
  4 13  1  0  0  0
 17 18  1  0  0  0
  5 10  1  0  0  0
  6  7  2  0  0  0
  7  8  1  0  0  0
  8  9  2  0  0  0
 10 11  2  0  0  0
 11 12  1  0  0  0
 12 13  2  0  0  0
 12 19  1  0  0  0
 14 18  1  0  0  0
M  END
> <minimizedAffinity>
-5.39513

$$$$
5G4O_O80_A_1293


 22 24  0  0  0  0  0  0  0  0999 V2000
   91.4718  101.0133  -43.0497 C   0  0  0  0  0  0  0  0  0  0  0  0
   91.1685  100.1689  -44.0983 N   0  0  0  0  0  0  0  0  0  0  0  0
   91.7153  100.2133  -41.9387 C   0  0  0  0  0  0  0  0  0  0  0  0
   91.5517   98.8607  -42.3524 C   0  0  0  0  0  0  0  0  0  0  0  0
   91.2103   98.8584  -43.7060 C   0  0  0  0  0  0  0  0  0  0  0  0
   91.5432  102.4068  -42.9844 C   0  0  0  0  0  0  0  0  0  0  0  0
   91.8770  102.9944  -41.7634 C   0  0  0  0  0  0  0  0  0  0  0  0
   92.1261  102.2146  -40.6394 C   0  0  0  0  0  0  0  0  0  0  0  0
   92.0498  100.8207  -40.7121 C   0  0  0  0  0  0  0  0  0  0  0  0
   90.9753   97.6882  -44.4369 C   0  0  0  0  0  0  0  0  0  0  0  0
   91.0949   96.4800  -43.7558 C   0  0  0  0  0  0  0  0  0  0  0  0
   91.4328   96.4494  -42.4070 C   0  0  0  0  0  0  0  0  0  0  0  0
   91.6617   97.6297  -41.6977 C   0  0  0  0  0  0  0  0  0  0  0  0
   90.8462  100.5780  -45.4435 C   0  0  0  0  0  0  0  0  0  0  0  0
   91.8191  100.6385  -47.6148 F   0  0  0  0  0  0  0  0  0  0  0  0
   92.5966  101.9882  -46.0965 F   0  0  0  0  0  0  0  0  0  0  0  0
   93.0135   99.8528  -45.9686 F   0  0  0  0  0  0  0  0  0  0  0  0
   92.0754  100.7596  -46.2967 C   0  0  0  0  0  0  0  0  0  0  0  0
   91.5513   95.1407  -41.7153 C   0  0  0  0  0  0  0  0  0  0  0  0
   92.5348   94.2159  -42.3454 N   0  0  0  0  0  0  0  0  0  0  0  0
   93.4086   93.6124  -41.3013 C   0  0  0  0  0  0  0  0  0  0  0  0
   91.8154   93.1300  -43.0624 C   0  0  0  0  0  0  0  0  0  0  0  0
  1  2  1  0  0  0
  1  3  2  0  0  0
  1  6  1  0  0  0
 15 18  1  0  0  0
  2  5  1  0  0  0
  2 14  1  0  0  0
  3  4  1  0  0  0
  3  9  1  0  0  0
 16 18  1  0  0  0
 20 19  1  0  0  0
 20 21  1  0  0  0
 20 22  1  0  0  0
  4  5  2  0  0  0
  4 13  1  0  0  0
 17 18  1  0  0  0
  5 10  1  0  0  0
  6  7  2  0  0  0
  7  8  1  0  0  0
  8  9  2  0  0  0
 10 11  2  0  0  0
 11 12  1  0  0  0
 12 13  2  0  0  0
 12 19  1  0  0  0
 14 18  1  0  0  0
M  END
> <minimizedAffinity>
-5.23994

$$$$
5G4O_O80_A_1293


 22 24  0  0  0  0  0  0  0  0999 V2000
   90.1071   98.9754  -44.8311 C   0  0  0  0  0  0  0  0  0  0  0  0
   90.7707   99.4044  -43.6996 N   0  0  0  0  0  0  0  0  0  0  0  0
   90.0866   97.5856  -44.7901 C   0  0  0  0  0  0  0  0  0  0  0  0
   90.7562   97.1918  -43.5967 C   0  0  0  0  0  0  0  0  0  0  0  0
   91.1746   98.3457  -42.9319 C   0  0  0  0  0  0  0  0  0  0  0  0
   89.5342   99.6902  -45.8857 C   0  0  0  0  0  0  0  0  0  0  0  0
   88.9221   98.9726  -46.9141 C   0  0  0  0  0  0  0  0  0  0  0  0
   88.8880   97.5826  -46.8937 C   0  0  0  0  0  0  0  0  0  0  0  0
   89.4661   96.8745  -45.8362 C   0  0  0  0  0  0  0  0  0  0  0  0
   91.8685   98.3232  -41.7167 C   0  0  0  0  0  0  0  0  0  0  0  0
   92.1418   97.0745  -41.1652 C   0  0  0  0  0  0  0  0  0  0  0  0
   91.7389   95.9066  -41.8039 C   0  0  0  0  0  0  0  0  0  0  0  0
   91.0487   95.9533  -43.0163 C   0  0  0  0  0  0  0  0  0  0  0  0
   91.0227  100.7785  -43.3405 C   0  0  0  0  0  0  0  0  0  0  0  0
   93.1122  100.3167  -44.3824 F   0  0  0  0  0  0  0  0  0  0  0  0
   92.0303  102.1049  -44.9850 F   0  0  0  0  0  0  0  0  0  0  0  0
   92.9867  102.0211  -43.0284 F   0  0  0  0  0  0  0  0  0  0  0  0
   92.3048  101.3003  -43.9370 C   0  0  0  0  0  0  0  0  0  0  0  0
   92.0487   94.5932  -41.1839 C   0  0  0  0  0  0  0  0  0  0  0  0
   92.9024   93.7156  -42.0327 N   0  0  0  0  0  0  0  0  0  0  0  0
   94.0933   93.2629  -41.2616 C   0  0  0  0  0  0  0  0  0  0  0  0
   92.1242   92.5251  -42.4662 C   0  0  0  0  0  0  0  0  0  0  0  0
  1  2  1  0  0  0
  1  3  2  0  0  0
  1  6  1  0  0  0
 15 18  1  0  0  0
  2  5  1  0  0  0
  2 14  1  0  0  0
  3  4  1  0  0  0
  3  9  1  0  0  0
 16 18  1  0  0  0
 20 19  1  0  0  0
 20 21  1  0  0  0
 20 22  1  0  0  0
  4  5  2  0  0  0
  4 13  1  0  0  0
 17 18  1  0  0  0
  5 10  1  0  0  0
  6  7  2  0  0  0
  7  8  1  0  0  0
  8  9  2  0  0  0
 10 11  2  0  0  0
 11 12  1  0  0  0
 12 13  2  0  0  0
 12 19  1  0  0  0
 14 18  1  0  0  0
M  END
> <minimizedAffinity>
-5.19516

$$$$
