5VYY_9QY_A_301
  RCSB PDB04141810293D
Coordinates from PDB:5VYY:A:301 Model:1 without hydrogens
 27 29  0  0  0  0            999 V2000
   -3.9220  -35.1170    7.4240   C 0  0  0  0  0  0  0  0  0  0  0  0
    1.9970  -29.9070    4.3410   C 0  0  0  0  0  0  0  0  0  0  0  0
    1.9660  -30.9220    5.2890   C 0  0  0  0  0  0  0  0  0  0  0  0
    1.8400  -30.2260    2.9900   C 0  0  0  0  0  0  0  0  0  0  0  0
    1.5930  -36.3170    5.6310   C 0  0  0  0  0  0  0  0  0  0  0  0
    1.8040  -32.2640    4.8910   C 0  0  0  0  0  0  0  0  0  0  0  0
    1.6630  -31.5480    2.5950   C 0  0  0  0  0  0  0  0  0  0  0  0
    2.1690  -35.4580    4.7780   C 0  0  0  0  0  0  0  0  0  0  0  0
   -5.5380  -33.3480    2.0760   C 0  0  0  0  0  0  0  0  0  0  0  0
   -1.3590  -35.1010    3.8770   C 0  0  0  0  0  0  0  0  0  0  0  0
   -1.9060  -33.7280    4.2640   C 0  0  0  0  0  0  0  0  0  0  0  0
    1.4770  -33.9000    3.0160   C 0  0  0  0  0  0  0  0  0  0  0  0
   -4.4360  -33.8550    5.5860   C 0  0  0  0  0  0  0  0  0  0  0  0
    1.6340  -32.5830    3.5330   C 0  0  0  0  0  0  0  0  0  0  0  0
   -4.3280  -33.2640    1.4000   C 0  0  0  0  0  0  0  0  0  0  0  0
   -5.5380  -33.5460    3.4410   C 0  0  0  0  0  0  0  0  0  0  0  0
   -3.1460  -33.3950    2.1300   C 0  0  0  0  0  0  0  0  0  0  0  0
    0.0380  -35.4040    4.4600   C 0  0  0  0  0  0  0  0  0  0  0  0
   -3.1490  -33.5990    3.5250   C 0  0  0  0  0  0  0  0  0  0  0  0
   -4.3680  -33.6490    4.1950   C 0  0  0  0  0  0  0  0  0  0  0  0
    0.2670  -36.2920    5.4310   N 0  0  0  0  0  0  0  0  0  0  0  0
    1.2100  -34.9010    4.0410   N 0  0  0  0  0  0  0  0  0  0  0  0
   -4.9450  -33.0360    6.3700   O 0  0  0  0  0  0  0  0  0  0  0  0
   -4.2400  -33.1340    0.0310   O 0  0  0  0  0  0  0  0  0  0  0  0
   -6.7290  -33.5870    4.0890   O 0  0  0  0  0  0  0  0  0  0  0  0
   -3.9470  -35.0550    5.9840   O 0  0  0  0  0  0  0  0  0  0  0  0
   -1.6860  -33.2150    1.1990  Cl 0  0  0  0  0  0  0  0  0  0  0  0
 24 15  1  0  0  0  0
 27 17  1  0  0  0  0
 15  9  2  0  0  0  0
 15 17  1  0  0  0  0
  9 16  1  0  0  0  0
 17 19  2  0  0  0  0
  7  4  2  0  0  0  0
  7 14  1  0  0  0  0
  4  2  1  0  0  0  0
 12 14  1  0  0  0  0
 12 22  1  0  0  0  0
 16 25  1  0  0  0  0
 16 20  2  0  0  0  0
 19 20  1  0  0  0  0
 19 11  1  0  0  0  0
 14  6  2  0  0  0  0
 10 11  1  0  0  0  0
 10 18  1  0  0  0  0
 22 18  1  0  0  0  0
 22  8  1  0  0  0  0
 20 13  1  0  0  0  0
  2  3  2  0  0  0  0
 18 21  2  0  0  0  0
  8  5  2  0  0  0  0
  6  3  1  0  0  0  0
 21  5  1  0  0  0  0
 13 26  1  0  0  0  0
 13 23  2  0  0  0  0
 26  1  1  0  0  0  0
A    1
CAA
A    2
CAF
A    3
CAG
A    4
CAH
A    5
CAI
A    6
CAJ
A    7
CAK
A    8
CAL
A    9
CAM
A   10
CAN
A   11
CAO
A   12
CAP
A   13
CAS
A   14
CAT
A   15
CAU
A   16
CAV
A   17
CAW
A   18
CAX
A   19
CAY
A   20
CAZ
A   21
NAQ
A   22
NBA
A   23
OAB
A   24
OAC
A   25
OAD
A   26
OAR
A   27
CL
M  END
>  <InstanceId>
5VYY_9QY_A_301

>  <ChemCompId>
9QY

>  <PdbId>
5VYY

>  <ChainId>
A

>  <ResidueNumber>
301

>  <InsertionCode>


>  <Model>
1

>  <AltIds>


>  <MissingHeavyAtoms>
0

>  <ObservedFormula>
C20 N2 O4 Cl

>  <Name>
methyl 2-[2-(1-benzyl-1H-imidazol-2-yl)ethyl]-3-chloro-4,6-dihydroxybenzoate

>  <SystematicName>
methyl 3-chloranyl-4,6-bis(oxidanyl)-2-[2-[1-(phenylmethyl)imidazol-2-yl]ethyl]benzoate

>  <Synonyms>
resorcinylic inhibitor BnIm

>  <Type>
NON-POLYMER

>  <Formula>
C20 H19 Cl N2 O4

>  <MolecularWeight>
386.829

>  <ModifiedDate>
2018-04-13

>  <Parent>


>  <OneLetterCode>


>  <SubcomponentList>


>  <AmbiguousFlag>
N

>  <InChI>
InChI=1S/C20H19ClN2O4/c1-27-20(26)18-14(19(21)16(25)11-15(18)24)7-8-17-22-9-10-23(17)12-13-5-3-2-4-6-13/h2-6,9-11,24-25H,7-8,12H2,1H3

>  <InChIKey>
NCWIQXPFJORNJP-UHFFFAOYSA-N

>  <SMILES>
COC(=O)c1c(cc(c(c1CCc2nccn2Cc3ccccc3)Cl)O)O

$$$$
