3RLB_VIB_A_191
  RCSB PDB12061710353D
Coordinates from PDB:3RLB:A:191 Model:1 without hydrogens
 18 19  0  0  0  0            999 V2000
   37.0650  -25.2360   41.7910   C 0  0  0  0  0  0  0  0  0  0  0  0
   36.2090  -21.6970   44.8310   N 0  0  0  0  0  0  0  0  0  0  0  0
   33.0740  -21.9020   48.7990   C 0  0  0  0  0  0  0  0  0  0  0  0
   28.9960  -20.3490   48.8980   O 0  0  0  0  0  0  0  0  0  0  0  0
   29.4930  -20.4020   47.5680   C 0  0  0  0  0  0  0  0  0  0  0  0
   30.9120  -19.8960   47.6810   C 0  0  0  0  0  0  0  0  0  0  0  0
   32.9770  -21.9370   45.1150   C 0  0  0  0  0  0  0  0  0  0  0  0
   31.7250  -20.7330   45.1530   S 0  0  0  0  0  0  0  0  0  0  0  0
   31.8150  -20.7910   46.8750   C 0  0  0  0  0  0  0  0  0  0  0  0
   32.7970  -21.7330   47.3410   C 0  0  0  0  0  0  0  0  0  0  0  0
   33.4340  -22.3470   46.3040   N 0  3  0  0  0  0  0  0  0  0  0  0
   34.4990  -23.3380   46.5240   C 0  0  0  0  0  0  0  0  0  0  0  0
   35.9570  -22.9830   44.5080   C 0  0  0  0  0  0  0  0  0  0  0  0
   36.5220  -23.4680   43.4040   N 0  0  0  0  0  0  0  0  0  0  0  0
   36.3950  -24.7750   43.0550   C 0  0  0  0  0  0  0  0  0  0  0  0
   35.6320  -25.6160   43.7720   N 0  0  0  0  0  0  0  0  0  0  0  0
   35.0210  -25.1710   44.8890   C 0  0  0  0  0  0  0  0  0  0  0  0
   35.1580  -23.8310   45.2780   C 0  0  0  0  0  0  0  0  0  0  0  0
  1 15  1  0  0  0  0
  2 13  1  0  0  0  0
  3 10  1  0  0  0  0
  4  5  1  0  0  0  0
  5  6  1  0  0  0  0
  6  9  1  0  0  0  0
  7  8  1  0  0  0  0
  7 11  2  0  0  0  0
  8  9  1  0  0  0  0
  9 10  2  0  0  0  0
 10 11  1  0  0  0  0
 11 12  1  0  0  0  0
 12 18  1  0  0  0  0
 13 14  1  0  0  0  0
 13 18  2  0  0  0  0
 14 15  2  0  0  0  0
 15 16  1  0  0  0  0
 16 17  2  0  0  0  0
 17 18  1  0  0  0  0
M  CHG  1  11   1
A    1
CM2
A    2
N4A
A    3
CM4
A    4
O1
A    5
C7
A    6
C6
A    7
C2
A    8
S1
A    9
C5
A   10
C4
A   11
N3
A   12
C7A
A   13
C4A
A   14
N3A
A   15
C2A
A   16
N1A
A   17
C6A
A   18
C5A
M  END
>  <InstanceId>
3RLB_VIB_A_191

>  <ChemCompId>
VIB

>  <PdbId>
3RLB

>  <ChainId>
A

>  <ResidueNumber>
191

>  <InsertionCode>


>  <Model>
1

>  <AltIds>


>  <MissingHeavyAtoms>
0

>  <ObservedFormula>
C12 N4 O S

>  <Name>
3-(4-AMINO-2-METHYL-PYRIMIDIN-5-YLMETHYL)-5-(2-HYDROXY-ETHYL)-4-METHYL-THIAZOL-3-IUM

>  <SystematicName>
2-[3-[(4-amino-2-methyl-pyrimidin-5-yl)methyl]-4-methyl-1,3-thiazol-3-ium-5-yl]ethanol

>  <Synonyms>
THIAMIN, VITAMIN B1

>  <Type>
NON-POLYMER

>  <Formula>
C12 H17 N4 O S

>  <MolecularWeight>
265.355

>  <ModifiedDate>
2011-06-04

>  <Parent>


>  <OneLetterCode>


>  <SubcomponentList>


>  <AmbiguousFlag>
N

>  <InChI>
InChI=1S/C12H17N4OS/c1-8-11(3-4-17)18-7-16(8)6-10-5-14-9(2)15-12(10)13/h5,7,17H,3-4,6H2,1-2H3,(H2,13,14,15)/q+1

>  <InChIKey>
JZRWCGZRTZMZEH-UHFFFAOYSA-N

>  <SMILES>
Cc1c(sc[n+]1Cc2cnc(nc2N)C)CCO

$$$$
