3RZ8_RZ8_A_262


 22 22  0  0  0  0  0  0  0  0999 V2000
   16.1862    4.6426   14.4194 C   0  0  0  0  0  0  0  0  0  0  0  0
   16.6859    2.6915   15.7744 C   0  0  0  0  0  0  0  0  0  0  0  0
   17.0964    3.6403   14.8436 C   0  0  0  0  0  0  0  0  0  0  0  0
   15.3681    2.7044   16.3585 C   0  0  0  0  0  0  0  0  0  0  0  0
   14.9126    4.7496   15.0298 C   0  0  0  0  0  0  0  0  0  0  0  0
   14.5174    3.7551   15.9345 C   0  0  0  0  0  0  0  0  0  0  0  0
   14.9106    1.5938   17.5414 S   0  0  0  0  0  0  0  0  0  0  0  0
   14.7852    2.3477   18.7744 O   0  0  0  0  0  0  0  0  0  0  0  0
   15.8936    0.5319   17.4706 O   0  0  0  0  0  0  0  0  0  0  0  0
   13.5475    0.9996   17.0704 N   0  0  0  0  0  0  0  0  0  0  0  0
   12.8299    1.7235   17.1079 H   0  0  0  0  0  0  0  0  0  0  0  0
   13.2837    0.2273   17.6821 H   0  0  0  0  0  0  0  0  0  0  0  0
   17.6160    6.4673   13.7290 N   0  0  0  0  0  0  0  0  0  0  0  0
   15.9760    5.8190   12.3552 O   0  0  0  0  0  0  0  0  0  0  0  0
   16.5883    5.6836   13.4373 C   0  0  0  0  0  0  0  0  0  0  0  0
   18.0609    6.3926   14.6041 H   0  0  0  0  0  0  0  0  0  0  0  0
   18.0924    7.4537   12.7377 C   0  0  0  0  0  0  0  0  0  0  0  0
   18.8115    8.4625   13.5636 C   0  0  0  0  0  0  0  0  0  0  0  0
   18.8235    7.9651   14.9782 C   0  0  0  0  0  0  0  0  0  0  0  0
   19.6992    8.9879   15.6715 C   0  0  0  0  0  0  0  0  0  0  0  0
   20.3311    9.9314   14.6713 C   0  0  0  0  0  0  0  0  0  0  0  0
   21.5494   10.6375   15.2588 C   0  0  0  0  0  0  0  0  0  0  0  0
  4  7  1  0  0  0
 10  7  1  0  0  0
  8  7  2  0  0  0
  7  9  2  0  0  0
 17 13  1  0  0  0
 13 15  1  0  0  0
 14 15  2  0  0  0
 15  1  1  0  0  0
  1  3  2  0  0  0
  1  5  1  0  0  0
  3  2  1  0  0  0
  2  4  2  0  0  0
  6  4  1  0  0  0
  5  6  2  0  0  0
 17 18  1  0  0  0
 18 19  1  0  0  0
 20 19  1  0  0  0
 20 21  1  0  0  0
 22 21  1  0  0  0
 13 16  1  0  0  0
 10 11  1  0  0  0
 10 12  1  0  0  0
M  END
> <minimizedAffinity>
-6.87198

$$$$
3RZ8_RZ8_A_262


 22 22  0  0  0  0  0  0  0  0999 V2000
   16.3720    4.6763   14.6641 C   0  0  0  0  0  0  0  0  0  0  0  0
   16.6570    2.5848   15.8629 C   0  0  0  0  0  0  0  0  0  0  0  0
   17.1953    3.5957   15.0733 C   0  0  0  0  0  0  0  0  0  0  0  0
   15.2889    2.6068   16.3163 C   0  0  0  0  0  0  0  0  0  0  0  0
   15.0488    4.7871   15.1569 C   0  0  0  0  0  0  0  0  0  0  0  0
   14.5265    3.7325   15.9176 C   0  0  0  0  0  0  0  0  0  0  0  0
   14.6722    1.4137   17.3352 S   0  0  0  0  0  0  0  0  0  0  0  0
   13.3094    1.1762   16.8984 O   0  0  0  0  0  0  0  0  0  0  0  0
   14.8979    1.9039   18.6797 O   0  0  0  0  0  0  0  0  0  0  0  0
   15.5835    0.1635   17.1357 N   0  0  0  0  0  0  0  0  0  0  0  0
   15.4492   -0.2085   16.1955 H   0  0  0  0  0  0  0  0  0  0  0  0
   15.3372   -0.5497   17.8220 H   0  0  0  0  0  0  0  0  0  0  0  0
   17.7941    6.6109   14.3717 N   0  0  0  0  0  0  0  0  0  0  0  0
   16.5448    5.9351   12.6455 O   0  0  0  0  0  0  0  0  0  0  0  0
   16.9108    5.7841   13.8319 C   0  0  0  0  0  0  0  0  0  0  0  0
   18.0388    6.5205   15.3210 H   0  0  0  0  0  0  0  0  0  0  0  0
   18.4109    7.6689   13.5453 C   0  0  0  0  0  0  0  0  0  0  0  0
   19.6650    7.9993   14.2766 C   0  0  0  0  0  0  0  0  0  0  0  0
   19.3407    9.0744   15.2703 C   0  0  0  0  0  0  0  0  0  0  0  0
   20.5820    9.9407   15.2239 C   0  0  0  0  0  0  0  0  0  0  0  0
   20.4389   11.0431   14.1970 C   0  0  0  0  0  0  0  0  0  0  0  0
   19.0011   11.5464   14.1115 C   0  0  0  0  0  0  0  0  0  0  0  0
  4  7  1  0  0  0
 10  7  1  0  0  0
  8  7  2  0  0  0
  7  9  2  0  0  0
 17 13  1  0  0  0
 13 15  1  0  0  0
 14 15  2  0  0  0
 15  1  1  0  0  0
  1  3  2  0  0  0
  1  5  1  0  0  0
  3  2  1  0  0  0
  2  4  2  0  0  0
  6  4  1  0  0  0
  5  6  2  0  0  0
 17 18  1  0  0  0
 18 19  1  0  0  0
 20 19  1  0  0  0
 20 21  1  0  0  0
 22 21  1  0  0  0
 13 16  1  0  0  0
 10 11  1  0  0  0
 10 12  1  0  0  0
M  END
> <minimizedAffinity>
-6.82474

$$$$
3RZ8_RZ8_A_262


 22 22  0  0  0  0  0  0  0  0999 V2000
   16.5065    4.8203   14.8491 C   0  0  0  0  0  0  0  0  0  0  0  0
   16.8923    2.6203   15.7997 C   0  0  0  0  0  0  0  0  0  0  0  0
   17.3923    3.7650   15.1876 C   0  0  0  0  0  0  0  0  0  0  0  0
   15.4991    2.4737   16.1393 C   0  0  0  0  0  0  0  0  0  0  0  0
   15.1471    4.7600   15.2423 C   0  0  0  0  0  0  0  0  0  0  0  0
   14.6689    3.5771   15.8218 C   0  0  0  0  0  0  0  0  0  0  0  0
   14.9213    1.1128   16.9494 S   0  0  0  0  0  0  0  0  0  0  0  0
   15.6027   -0.0250   16.3617 O   0  0  0  0  0  0  0  0  0  0  0  0
   13.4782    1.1900   16.8472 O   0  0  0  0  0  0  0  0  0  0  0  0
   15.2939    1.3145   18.4505 N   0  0  0  0  0  0  0  0  0  0  0  0
   16.3070    1.2658   18.5589 H   0  0  0  0  0  0  0  0  0  0  0  0
   14.8565    0.5829   19.0107 H   0  0  0  0  0  0  0  0  0  0  0  0
   16.9803    6.1495   12.8847 N   0  0  0  0  0  0  0  0  0  0  0  0
   17.4255    7.0208   14.8947 O   0  0  0  0  0  0  0  0  0  0  0  0
   17.0012    6.0664   14.2068 C   0  0  0  0  0  0  0  0  0  0  0  0
   16.6957    5.3762   12.3459 H   0  0  0  0  0  0  0  0  0  0  0  0
   17.3854    7.4058   12.2211 C   0  0  0  0  0  0  0  0  0  0  0  0
   16.7754    7.3001   10.8669 C   0  0  0  0  0  0  0  0  0  0  0  0
   15.3391    6.9086   11.0459 C   0  0  0  0  0  0  0  0  0  0  0  0
   14.6367    8.2503   11.0404 C   0  0  0  0  0  0  0  0  0  0  0  0
   14.5940    8.8372    9.6462 C   0  0  0  0  0  0  0  0  0  0  0  0
   14.9939   10.3096    9.6451 C   0  0  0  0  0  0  0  0  0  0  0  0
  4  7  1  0  0  0
 10  7  1  0  0  0
  8  7  2  0  0  0
  7  9  2  0  0  0
 17 13  1  0  0  0
 13 15  1  0  0  0
 14 15  2  0  0  0
 15  1  1  0  0  0
  1  3  2  0  0  0
  1  5  1  0  0  0
  3  2  1  0  0  0
  2  4  2  0  0  0
  6  4  1  0  0  0
  5  6  2  0  0  0
 17 18  1  0  0  0
 18 19  1  0  0  0
 20 19  1  0  0  0
 20 21  1  0  0  0
 22 21  1  0  0  0
 13 16  1  0  0  0
 10 11  1  0  0  0
 10 12  1  0  0  0
M  END
> <minimizedAffinity>
-6.46992

$$$$
3RZ8_RZ8_A_262


 22 22  0  0  0  0  0  0  0  0999 V2000
   16.3566    4.7992   14.7819 C   0  0  0  0  0  0  0  0  0  0  0  0
   14.6015    3.5784   15.9315 C   0  0  0  0  0  0  0  0  0  0  0  0
   15.0121    4.7040   15.2248 C   0  0  0  0  0  0  0  0  0  0  0  0
   15.4876    2.4753   16.2069 C   0  0  0  0  0  0  0  0  0  0  0  0
   17.2390    3.7041   14.9506 C   0  0  0  0  0  0  0  0  0  0  0  0
   16.8046    2.6028   15.7002 C   0  0  0  0  0  0  0  0  0  0  0  0
   14.9551    1.0851   16.9979 S   0  0  0  0  0  0  0  0  0  0  0  0
   15.6521   -0.0243   16.3752 O   0  0  0  0  0  0  0  0  0  0  0  0
   13.5091    1.1309   16.9216 O   0  0  0  0  0  0  0  0  0  0  0  0
   15.3489    1.2646   18.4965 N   0  0  0  0  0  0  0  0  0  0  0  0
   16.3645    1.2372   18.5868 H   0  0  0  0  0  0  0  0  0  0  0  0
   14.9380    0.5117   19.0485 H   0  0  0  0  0  0  0  0  0  0  0  0
   17.9152    6.6158   14.4338 N   0  0  0  0  0  0  0  0  0  0  0  0
   16.2323    6.3620   12.9844 O   0  0  0  0  0  0  0  0  0  0  0  0
   16.8333    5.9780   14.0118 C   0  0  0  0  0  0  0  0  0  0  0  0
   18.3535    6.3429   15.2720 H   0  0  0  0  0  0  0  0  0  0  0  0
   18.4620    7.7377   13.6432 C   0  0  0  0  0  0  0  0  0  0  0  0
   19.9206    7.4454   13.5811 C   0  0  0  0  0  0  0  0  0  0  0  0
   20.1015    6.2158   12.7422 C   0  0  0  0  0  0  0  0  0  0  0  0
   20.5054    6.7964   11.4031 C   0  0  0  0  0  0  0  0  0  0  0  0
   21.0677    5.7263   10.4927 C   0  0  0  0  0  0  0  0  0  0  0  0
   21.1358    4.3729   11.1937 C   0  0  0  0  0  0  0  0  0  0  0  0
  4  7  1  0  0  0
 10  7  1  0  0  0
  8  7  2  0  0  0
  7  9  2  0  0  0
 17 13  1  0  0  0
 13 15  1  0  0  0
 14 15  2  0  0  0
 15  1  1  0  0  0
  1  3  2  0  0  0
  1  5  1  0  0  0
  3  2  1  0  0  0
  2  4  2  0  0  0
  6  4  1  0  0  0
  5  6  2  0  0  0
 17 18  1  0  0  0
 18 19  1  0  0  0
 20 19  1  0  0  0
 20 21  1  0  0  0
 22 21  1  0  0  0
 13 16  1  0  0  0
 10 11  1  0  0  0
 10 12  1  0  0  0
M  END
> <minimizedAffinity>
-6.03232

$$$$
3RZ8_RZ8_A_262


 22 22  0  0  0  0  0  0  0  0999 V2000
   16.8404    3.6799   11.8272 C   0  0  0  0  0  0  0  0  0  0  0  0
   16.8690    3.5382   14.2503 C   0  0  0  0  0  0  0  0  0  0  0  0
   16.9561    4.3073   13.0945 C   0  0  0  0  0  0  0  0  0  0  0  0
   16.6295    2.1172   14.2145 C   0  0  0  0  0  0  0  0  0  0  0  0
   16.5165    2.3037   11.7431 C   0  0  0  0  0  0  0  0  0  0  0  0
   16.4745    1.5516   12.9247 C   0  0  0  0  0  0  0  0  0  0  0  0
   16.4506    1.2114   15.6250 S   0  0  0  0  0  0  0  0  0  0  0  0
   15.0876    1.4275   16.0720 O   0  0  0  0  0  0  0  0  0  0  0  0
   17.5402    1.6239   16.4861 O   0  0  0  0  0  0  0  0  0  0  0  0
   16.7121   -0.2722   15.2204 N   0  0  0  0  0  0  0  0  0  0  0  0
   15.9606   -0.5960   14.6114 H   0  0  0  0  0  0  0  0  0  0  0  0
   16.7444   -0.8525   16.0585 H   0  0  0  0  0  0  0  0  0  0  0  0
   16.6674    5.7673   10.6175 N   0  0  0  0  0  0  0  0  0  0  0  0
   17.2052    3.9182    9.4822 O   0  0  0  0  0  0  0  0  0  0  0  0
   16.9138    4.4664   10.5678 C   0  0  0  0  0  0  0  0  0  0  0  0
   16.3864    6.1844   11.4638 H   0  0  0  0  0  0  0  0  0  0  0  0
   16.8154    6.5901    9.3994 C   0  0  0  0  0  0  0  0  0  0  0  0
   17.2218    7.9232    9.9233 C   0  0  0  0  0  0  0  0  0  0  0  0
   17.3861    7.7959   11.4084 C   0  0  0  0  0  0  0  0  0  0  0  0
   18.3047    8.9559   11.7311 C   0  0  0  0  0  0  0  0  0  0  0  0
   19.0432    8.7207   13.0308 C   0  0  0  0  0  0  0  0  0  0  0  0
   18.3917    7.6130   13.8533 C   0  0  0  0  0  0  0  0  0  0  0  0
  4  7  1  0  0  0
 10  7  1  0  0  0
  8  7  2  0  0  0
  7  9  2  0  0  0
 17 13  1  0  0  0
 13 15  1  0  0  0
 14 15  2  0  0  0
 15  1  1  0  0  0
  1  3  2  0  0  0
  1  5  1  0  0  0
  3  2  1  0  0  0
  2  4  2  0  0  0
  6  4  1  0  0  0
  5  6  2  0  0  0
 17 18  1  0  0  0
 18 19  1  0  0  0
 20 19  1  0  0  0
 20 21  1  0  0  0
 22 21  1  0  0  0
 13 16  1  0  0  0
 10 11  1  0  0  0
 10 12  1  0  0  0
M  END
> <minimizedAffinity>
-5.73904

$$$$
3RZ8_RZ8_A_262


 22 22  0  0  0  0  0  0  0  0999 V2000
   18.0805    6.4604   14.2838 C   0  0  0  0  0  0  0  0  0  0  0  0
   18.4151    4.0599   14.4178 C   0  0  0  0  0  0  0  0  0  0  0  0
   18.9273    5.3283   14.1650 C   0  0  0  0  0  0  0  0  0  0  0  0
   17.0513    3.8481   14.8334 C   0  0  0  0  0  0  0  0  0  0  0  0
   16.7603    6.3113   14.7745 C   0  0  0  0  0  0  0  0  0  0  0  0
   16.2646    5.0171   14.9819 C   0  0  0  0  0  0  0  0  0  0  0  0
   16.4663    2.3124   15.2095 S   0  0  0  0  0  0  0  0  0  0  0  0
   16.5396    1.5420   13.9826 O   0  0  0  0  0  0  0  0  0  0  0  0
   15.1697    2.5344   15.8167 O   0  0  0  0  0  0  0  0  0  0  0  0
   17.4101    1.7513   16.3174 N   0  0  0  0  0  0  0  0  0  0  0  0
   18.3354    1.5829   15.9226 H   0  0  0  0  0  0  0  0  0  0  0  0
   17.0295    0.8760   16.6771 H   0  0  0  0  0  0  0  0  0  0  0  0
   18.9100    8.1788   12.7974 N   0  0  0  0  0  0  0  0  0  0  0  0
   18.7149    8.6539   14.9730 O   0  0  0  0  0  0  0  0  0  0  0  0
   18.5909    7.8346   14.0363 C   0  0  0  0  0  0  0  0  0  0  0  0
   18.8614    7.5144   12.0724 H   0  0  0  0  0  0  0  0  0  0  0  0
   19.3389    9.5623   12.5065 C   0  0  0  0  0  0  0  0  0  0  0  0
   18.2007   10.1271   11.7303 C   0  0  0  0  0  0  0  0  0  0  0  0
   17.6407    9.0258   10.8805 C   0  0  0  0  0  0  0  0  0  0  0  0
   16.3177    9.6086   10.4294 C   0  0  0  0  0  0  0  0  0  0  0  0
   15.2070    8.5865   10.5376 C   0  0  0  0  0  0  0  0  0  0  0  0
   15.6293    7.3868   11.3804 C   0  0  0  0  0  0  0  0  0  0  0  0
  4  7  1  0  0  0
 10  7  1  0  0  0
  8  7  2  0  0  0
  7  9  2  0  0  0
 17 13  1  0  0  0
 13 15  1  0  0  0
 14 15  2  0  0  0
 15  1  1  0  0  0
  1  3  2  0  0  0
  1  5  1  0  0  0
  3  2  1  0  0  0
  2  4  2  0  0  0
  6  4  1  0  0  0
  5  6  2  0  0  0
 17 18  1  0  0  0
 18 19  1  0  0  0
 20 19  1  0  0  0
 20 21  1  0  0  0
 22 21  1  0  0  0
 13 16  1  0  0  0
 10 11  1  0  0  0
 10 12  1  0  0  0
M  END
> <minimizedAffinity>
-5.56179

$$$$
3RZ8_RZ8_A_262


 22 22  0  0  0  0  0  0  0  0999 V2000
   17.7811    6.0922   14.2484 C   0  0  0  0  0  0  0  0  0  0  0  0
   18.2916    3.7805   14.7850 C   0  0  0  0  0  0  0  0  0  0  0  0
   18.7313    5.0686   14.4977 C   0  0  0  0  0  0  0  0  0  0  0  0
   16.8924    3.4456   14.8742 C   0  0  0  0  0  0  0  0  0  0  0  0
   16.3984    5.8326   14.4120 C   0  0  0  0  0  0  0  0  0  0  0  0
   15.9888    4.5163   14.6634 C   0  0  0  0  0  0  0  0  0  0  0  0
   16.3754    1.8980   15.2981 S   0  0  0  0  0  0  0  0  0  0  0  0
   16.5122    1.0866   14.1034 O   0  0  0  0  0  0  0  0  0  0  0  0
   15.0570    2.0780   15.8712 O   0  0  0  0  0  0  0  0  0  0  0  0
   17.3219    1.4265   16.4448 N   0  0  0  0  0  0  0  0  0  0  0  0
   18.2624    1.2896   16.0746 H   0  0  0  0  0  0  0  0  0  0  0  0
   16.9770    0.5475   16.8305 H   0  0  0  0  0  0  0  0  0  0  0  0
   18.5988    8.2560   14.9553 N   0  0  0  0  0  0  0  0  0  0  0  0
   18.2040    7.9238   12.7802 O   0  0  0  0  0  0  0  0  0  0  0  0
   18.2079    7.4849   13.9514 C   0  0  0  0  0  0  0  0  0  0  0  0
   18.5495    7.9240   15.8809 H   0  0  0  0  0  0  0  0  0  0  0  0
   19.1088    9.6154   14.6823 C   0  0  0  0  0  0  0  0  0  0  0  0
   20.4304    9.6389   15.3676 C   0  0  0  0  0  0  0  0  0  0  0  0
   21.1974   10.8115   14.8335 C   0  0  0  0  0  0  0  0  0  0  0  0
   20.0911   11.7733   14.4531 C   0  0  0  0  0  0  0  0  0  0  0  0
   20.6513   13.0135   13.7912 C   0  0  0  0  0  0  0  0  0  0  0  0
   20.8543   14.1427   14.7971 C   0  0  0  0  0  0  0  0  0  0  0  0
  4  7  1  0  0  0
 10  7  1  0  0  0
  8  7  2  0  0  0
  7  9  2  0  0  0
 17 13  1  0  0  0
 13 15  1  0  0  0
 14 15  2  0  0  0
 15  1  1  0  0  0
  1  3  2  0  0  0
  1  5  1  0  0  0
  3  2  1  0  0  0
  2  4  2  0  0  0
  6  4  1  0  0  0
  5  6  2  0  0  0
 17 18  1  0  0  0
 18 19  1  0  0  0
 20 19  1  0  0  0
 20 21  1  0  0  0
 22 21  1  0  0  0
 13 16  1  0  0  0
 10 11  1  0  0  0
 10 12  1  0  0  0
M  END
> <minimizedAffinity>
-5.49419

$$$$
3RZ8_RZ8_A_262


 22 22  0  0  0  0  0  0  0  0999 V2000
   18.1731    7.4449   13.8610 C   0  0  0  0  0  0  0  0  0  0  0  0
   19.2821    9.1340   15.2061 C   0  0  0  0  0  0  0  0  0  0  0  0
   18.5890    7.9304   15.1275 C   0  0  0  0  0  0  0  0  0  0  0  0
   19.6292    9.9015   14.0364 C   0  0  0  0  0  0  0  0  0  0  0  0
   18.5674    8.1172   12.6783 C   0  0  0  0  0  0  0  0  0  0  0  0
   19.2308    9.3459   12.7954 C   0  0  0  0  0  0  0  0  0  0  0  0
   20.5353   11.3192   14.1416 S   0  0  0  0  0  0  0  0  0  0  0  0
   19.5775   12.3999   14.2795 O   0  0  0  0  0  0  0  0  0  0  0  0
   21.4068   11.3036   12.9843 O   0  0  0  0  0  0  0  0  0  0  0  0
   21.4357   11.1622   15.4055 N   0  0  0  0  0  0  0  0  0  0  0  0
   20.8519   11.1691   16.2419 H   0  0  0  0  0  0  0  0  0  0  0  0
   22.0998   11.9352   15.4481 H   0  0  0  0  0  0  0  0  0  0  0  0
   17.0570    5.5323   14.8340 N   0  0  0  0  0  0  0  0  0  0  0  0
   17.1907    5.6698   12.6068 O   0  0  0  0  0  0  0  0  0  0  0  0
   17.4425    6.1567   13.7309 C   0  0  0  0  0  0  0  0  0  0  0  0
   17.3038    5.8919   15.7166 H   0  0  0  0  0  0  0  0  0  0  0  0
   16.2557    4.2950   14.7360 C   0  0  0  0  0  0  0  0  0  0  0  0
   14.8872    4.7307   15.1289 C   0  0  0  0  0  0  0  0  0  0  0  0
   14.4575    3.8842   16.2896 C   0  0  0  0  0  0  0  0  0  0  0  0
   14.9346    2.5072   15.8776 C   0  0  0  0  0  0  0  0  0  0  0  0
   14.5813    1.4726   16.9240 C   0  0  0  0  0  0  0  0  0  0  0  0
   14.7831    2.0125   18.3367 C   0  0  0  0  0  0  0  0  0  0  0  0
  4  7  1  0  0  0
 10  7  1  0  0  0
  8  7  2  0  0  0
  7  9  2  0  0  0
 17 13  1  0  0  0
 13 15  1  0  0  0
 14 15  2  0  0  0
 15  1  1  0  0  0
  1  3  2  0  0  0
  1  5  1  0  0  0
  3  2  1  0  0  0
  2  4  2  0  0  0
  6  4  1  0  0  0
  5  6  2  0  0  0
 17 18  1  0  0  0
 18 19  1  0  0  0
 20 19  1  0  0  0
 20 21  1  0  0  0
 22 21  1  0  0  0
 13 16  1  0  0  0
 10 11  1  0  0  0
 10 12  1  0  0  0
M  END
> <minimizedAffinity>
-5.48873

$$$$
3RZ8_RZ8_A_262


 22 22  0  0  0  0  0  0  0  0999 V2000
   17.7430    6.4536   13.1263 C   0  0  0  0  0  0  0  0  0  0  0  0
   18.5183    8.6498   12.4419 C   0  0  0  0  0  0  0  0  0  0  0  0
   17.7842    7.5001   12.1691 C   0  0  0  0  0  0  0  0  0  0  0  0
   19.2204    8.8389   13.6865 C   0  0  0  0  0  0  0  0  0  0  0  0
   18.3422    6.6301   14.3975 C   0  0  0  0  0  0  0  0  0  0  0  0
   19.1057    7.7831   14.6242 C   0  0  0  0  0  0  0  0  0  0  0  0
   20.0426   10.2692   14.0333 S   0  0  0  0  0  0  0  0  0  0  0  0
   20.9704   10.4760   12.9375 O   0  0  0  0  0  0  0  0  0  0  0  0
   20.5715   10.0925   15.3705 O   0  0  0  0  0  0  0  0  0  0  0  0
   18.9549   11.3848   14.1058 N   0  0  0  0  0  0  0  0  0  0  0  0
   18.5600   11.5354   13.1775 H   0  0  0  0  0  0  0  0  0  0  0  0
   19.3778   12.2508   14.4400 H   0  0  0  0  0  0  0  0  0  0  0  0
   17.1534    4.1735   13.6772 N   0  0  0  0  0  0  0  0  0  0  0  0
   16.1308    5.1509   11.9462 O   0  0  0  0  0  0  0  0  0  0  0  0
   16.9596    5.2143   12.8807 C   0  0  0  0  0  0  0  0  0  0  0  0
   17.8444    4.2097   14.3775 H   0  0  0  0  0  0  0  0  0  0  0  0
   16.3297    2.9582   13.5117 C   0  0  0  0  0  0  0  0  0  0  0  0
   15.4100    2.9952   14.6820 C   0  0  0  0  0  0  0  0  0  0  0  0
   16.2176    2.6731   15.9037 C   0  0  0  0  0  0  0  0  0  0  0  0
   15.9810    1.1857   16.0629 C   0  0  0  0  0  0  0  0  0  0  0  0
   14.8218    0.9154   16.9973 C   0  0  0  0  0  0  0  0  0  0  0  0
   14.7478    1.9530   18.1135 C   0  0  0  0  0  0  0  0  0  0  0  0
  4  7  1  0  0  0
 10  7  1  0  0  0
  8  7  2  0  0  0
  7  9  2  0  0  0
 17 13  1  0  0  0
 13 15  1  0  0  0
 14 15  2  0  0  0
 15  1  1  0  0  0
  1  3  2  0  0  0
  1  5  1  0  0  0
  3  2  1  0  0  0
  2  4  2  0  0  0
  6  4  1  0  0  0
  5  6  2  0  0  0
 17 18  1  0  0  0
 18 19  1  0  0  0
 20 19  1  0  0  0
 20 21  1  0  0  0
 22 21  1  0  0  0
 13 16  1  0  0  0
 10 11  1  0  0  0
 10 12  1  0  0  0
M  END
> <minimizedAffinity>
-5.30776

$$$$
3RZ8_RZ8_A_262


 22 22  0  0  0  0  0  0  0  0999 V2000
   15.9887    4.4516   14.1213 C   0  0  0  0  0  0  0  0  0  0  0  0
   14.5597    3.9670   16.0229 C   0  0  0  0  0  0  0  0  0  0  0  0
   14.9475    4.8337   15.0062 C   0  0  0  0  0  0  0  0  0  0  0  0
   15.1563    2.6663   16.1964 C   0  0  0  0  0  0  0  0  0  0  0  0
   16.5427    3.1503   14.1966 C   0  0  0  0  0  0  0  0  0  0  0  0
   16.1570    2.3180   15.2559 C   0  0  0  0  0  0  0  0  0  0  0  0
   14.6235    1.5969   17.3857 S   0  0  0  0  0  0  0  0  0  0  0  0
   13.3370    1.1014   16.9343 O   0  0  0  0  0  0  0  0  0  0  0  0
   14.6872    2.3414   18.6269 O   0  0  0  0  0  0  0  0  0  0  0  0
   15.6977    0.4686   17.4631 N   0  0  0  0  0  0  0  0  0  0  0  0
   15.6801   -0.0774   16.6017 H   0  0  0  0  0  0  0  0  0  0  0  0
   15.4947   -0.1404   18.2558 H   0  0  0  0  0  0  0  0  0  0  0  0
   16.9864    6.5026   13.3159 N   0  0  0  0  0  0  0  0  0  0  0  0
   16.2697    5.0055   11.8185 O   0  0  0  0  0  0  0  0  0  0  0  0
   16.4242    5.3417   13.0132 C   0  0  0  0  0  0  0  0  0  0  0  0
   17.0574    6.7863   14.2560 H   0  0  0  0  0  0  0  0  0  0  0  0
   17.5063    7.3702   12.2391 C   0  0  0  0  0  0  0  0  0  0  0  0
   18.9843    7.2591   12.3814 C   0  0  0  0  0  0  0  0  0  0  0  0
   19.5865    7.4512   11.0217 C   0  0  0  0  0  0  0  0  0  0  0  0
   20.1427    8.8569   11.1117 C   0  0  0  0  0  0  0  0  0  0  0  0
   19.5131    9.7594   10.0728 C   0  0  0  0  0  0  0  0  0  0  0  0
   20.5703   10.4830    9.2441 C   0  0  0  0  0  0  0  0  0  0  0  0
  4  7  1  0  0  0
 10  7  1  0  0  0
  8  7  2  0  0  0
  7  9  2  0  0  0
 17 13  1  0  0  0
 13 15  1  0  0  0
 14 15  2  0  0  0
 15  1  1  0  0  0
  1  3  2  0  0  0
  1  5  1  0  0  0
  3  2  1  0  0  0
  2  4  2  0  0  0
  6  4  1  0  0  0
  5  6  2  0  0  0
 17 18  1  0  0  0
 18 19  1  0  0  0
 20 19  1  0  0  0
 20 21  1  0  0  0
 22 21  1  0  0  0
 13 16  1  0  0  0
 10 11  1  0  0  0
 10 12  1  0  0  0
M  END
> <minimizedAffinity>
-5.28024

$$$$
