1B55_4IP_A_171


 38 38  0  0  0  0  0  0  0  0999 V2000
   -2.0766    4.5549   38.9311 C   0  0  0  0  0  0  0  0  0  0  0  0
   -0.8506    5.2615   39.4240 C   0  0  0  0  0  0  0  0  0  0  0  0
   -0.8421    6.6914   39.1597 O   0  0  0  0  0  0  0  0  0  0  0  0
    0.2539    4.5612   38.7292 C   0  0  0  0  0  0  0  0  0  0  0  0
    0.1707    4.7494   37.1793 C   0  0  0  0  0  0  0  0  0  0  0  0
   -1.0147    4.0310   36.6933 C   0  0  0  0  0  0  0  0  0  0  0  0
   -2.2518    4.5554   37.4053 C   0  0  0  0  0  0  0  0  0  0  0  0
   -3.2400    3.6121   37.1508 O   0  0  0  0  0  0  0  0  0  0  0  0
   -0.9049    6.8439   38.2038 H   0  0  0  0  0  0  0  0  0  0  0  0
   -2.9565    2.7478   37.4879 H   0  0  0  0  0  0  0  0  0  0  0  0
   -3.3977    4.7944   39.6180 O   0  0  0  0  0  0  0  0  0  0  0  0
   -4.1408    3.7804   40.6960 P   0  0  0  0  0  0  0  0  0  0  0  0
   -4.8947    4.5771   41.6675 O   0  0  0  0  0  0  0  0  0  0  0  0
   -3.0994    2.9682   41.3784 O   0  0  0  0  0  0  0  0  0  0  0  0
   -4.8899    3.0357   39.6325 O   0  0  0  0  0  0  0  0  0  0  0  0
   -2.6564    3.5092   42.0507 H   0  0  0  0  0  0  0  0  0  0  0  0
   -5.5498    3.6222   39.2309 H   0  0  0  0  0  0  0  0  0  0  0  0
    1.4817    4.9392   39.2955 O   0  0  0  0  0  0  0  0  0  0  0  0
    2.3626    3.9530   40.0875 P   0  0  0  0  0  0  0  0  0  0  0  0
    3.4204    4.8173   40.4099 O   0  0  0  0  0  0  0  0  0  0  0  0
    1.4074    3.5218   41.0872 O   0  0  0  0  0  0  0  0  0  0  0  0
    2.6685    2.9172   39.1516 O   0  0  0  0  0  0  0  0  0  0  0  0
    1.2286    4.2523   41.6998 H   0  0  0  0  0  0  0  0  0  0  0  0
    3.3092    3.2470   38.5023 H   0  0  0  0  0  0  0  0  0  0  0  0
    1.2846    4.0984   36.5926 O   0  0  0  0  0  0  0  0  0  0  0  0
    2.5009    4.7759   36.0068 P   0  0  0  0  0  0  0  0  0  0  0  0
    3.4613    4.8092   37.1338 O   0  0  0  0  0  0  0  0  0  0  0  0
    2.8886    3.8961   34.8766 O   0  0  0  0  0  0  0  0  0  0  0  0
    1.9917    6.0624   35.6283 O   0  0  0  0  0  0  0  0  0  0  0  0
    3.7598    3.9075   37.3309 H   0  0  0  0  0  0  0  0  0  0  0  0
    3.2197    3.0525   35.2224 H   0  0  0  0  0  0  0  0  0  0  0  0
   -1.1531    4.3137   35.2554 O   0  0  0  0  0  0  0  0  0  0  0  0
   -0.5609    3.5296   33.9627 P   0  0  0  0  0  0  0  0  0  0  0  0
    0.0614    2.3765   34.6151 O   0  0  0  0  0  0  0  0  0  0  0  0
   -1.6528    3.2986   33.0569 O   0  0  0  0  0  0  0  0  0  0  0  0
    0.3609    4.5220   33.4817 O   0  0  0  0  0  0  0  0  0  0  0  0
   -0.6277    1.7597   34.9077 H   0  0  0  0  0  0  0  0  0  0  0  0
    1.0754    4.6394   34.1271 H   0  0  0  0  0  0  0  0  0  0  0  0
  1 11  1  0  0  0
  1  2  1  0  0  0
  1  7  1  0  0  0
 11 12  1  0  0  0
  2  3  1  0  0  0
  2  4  1  0  0  0
  4 18  1  0  0  0
  4  5  1  0  0  0
 18 19  1  0  0  0
  5 25  1  0  0  0
  5  6  1  0  0  0
 25 26  1  0  0  0
  6 32  1  0  0  0
  6  7  1  0  0  0
 32 33  1  0  0  0
  7  8  1  0  0  0
 12 13  2  0  0  0
 12 14  1  0  0  0
 12 15  1  0  0  0
 19 20  2  0  0  0
 19 21  1  0  0  0
 19 22  1  0  0  0
 26 27  1  0  0  0
 26 28  1  0  0  0
 26 29  2  0  0  0
 33 34  1  0  0  0
 33 35  2  0  0  0
 33 36  1  0  0  0
  3  9  1  0  0  0
  8 10  1  0  0  0
 14 16  1  0  0  0
 15 17  1  0  0  0
 21 23  1  0  0  0
 22 24  1  0  0  0
 27 30  1  0  0  0
 28 31  1  0  0  0
 34 37  1  0  0  0
 36 38  1  0  0  0
M  END
> <minimizedAffinity>
-8.49129

$$$$
1B55_4IP_A_171


 38 38  0  0  0  0  0  0  0  0999 V2000
   -1.9165    4.7019   37.9798 C   0  0  0  0  0  0  0  0  0  0  0  0
   -1.8124    3.4966   37.0955 C   0  0  0  0  0  0  0  0  0  0  0  0
   -1.5765    2.2530   37.8113 O   0  0  0  0  0  0  0  0  0  0  0  0
   -0.6955    3.8334   36.1834 C   0  0  0  0  0  0  0  0  0  0  0  0
    0.6536    3.9898   36.9578 C   0  0  0  0  0  0  0  0  0  0  0  0
    0.5617    5.1887   37.8015 C   0  0  0  0  0  0  0  0  0  0  0  0
   -0.6293    5.0586   38.7380 C   0  0  0  0  0  0  0  0  0  0  0  0
   -0.8398    6.3403   39.2320 O   0  0  0  0  0  0  0  0  0  0  0  0
   -0.7497    2.3210   38.3139 H   0  0  0  0  0  0  0  0  0  0  0  0
   -1.0122    6.9468   38.4949 H   0  0  0  0  0  0  0  0  0  0  0  0
   -3.1216    4.8661   38.8715 O   0  0  0  0  0  0  0  0  0  0  0  0
   -3.5264    3.9077   40.1599 P   0  0  0  0  0  0  0  0  0  0  0  0
   -3.8399    4.7557   41.3130 O   0  0  0  0  0  0  0  0  0  0  0  0
   -2.3796    3.0118   40.4634 O   0  0  0  0  0  0  0  0  0  0  0  0
   -4.6483    3.2307   39.4320 O   0  0  0  0  0  0  0  0  0  0  0  0
   -1.6936    3.5122   40.9324 H   0  0  0  0  0  0  0  0  0  0  0  0
   -5.3591    3.8698   39.2672 H   0  0  0  0  0  0  0  0  0  0  0  0
   -0.6553    2.9102   35.1265 O   0  0  0  0  0  0  0  0  0  0  0  0
   -0.3664    3.3334   33.6728 P   0  0  0  0  0  0  0  0  0  0  0  0
    0.5286    2.3105   33.3226 O   0  0  0  0  0  0  0  0  0  0  0  0
   -1.7186    3.3646   33.1548 O   0  0  0  0  0  0  0  0  0  0  0  0
    0.1976    4.6414   33.7875 O   0  0  0  0  0  0  0  0  0  0  0  0
   -2.0622    2.4595   33.0932 H   0  0  0  0  0  0  0  0  0  0  0  0
    1.1001    4.5749   34.1367 H   0  0  0  0  0  0  0  0  0  0  0  0
    1.6779    4.2581   36.0157 O   0  0  0  0  0  0  0  0  0  0  0  0
    2.8968    3.4025   35.7625 P   0  0  0  0  0  0  0  0  0  0  0  0
    3.8300    3.7916   36.8447 O   0  0  0  0  0  0  0  0  0  0  0  0
    2.3806    2.0140   35.8469 O   0  0  0  0  0  0  0  0  0  0  0  0
    3.3065    3.8198   34.4527 O   0  0  0  0  0  0  0  0  0  0  0  0
    3.4875    3.4764   37.6958 H   0  0  0  0  0  0  0  0  0  0  0  0
    2.1285    1.8178   36.7628 H   0  0  0  0  0  0  0  0  0  0  0  0
    1.7857    5.2599   38.6159 O   0  0  0  0  0  0  0  0  0  0  0  0
    2.1897    4.4877   39.9859 P   0  0  0  0  0  0  0  0  0  0  0  0
    3.3279    5.2989   40.4208 O   0  0  0  0  0  0  0  0  0  0  0  0
    1.0204    4.4432   40.8207 O   0  0  0  0  0  0  0  0  0  0  0  0
    2.5358    3.2023   39.4438 O   0  0  0  0  0  0  0  0  0  0  0  0
    3.0071    6.1446   40.7712 H   0  0  0  0  0  0  0  0  0  0  0  0
    3.3281    3.2874   38.8907 H   0  0  0  0  0  0  0  0  0  0  0  0
  1 11  1  0  0  0
  1  2  1  0  0  0
  1  7  1  0  0  0
 11 12  1  0  0  0
  2  3  1  0  0  0
  2  4  1  0  0  0
  4 18  1  0  0  0
  4  5  1  0  0  0
 18 19  1  0  0  0
  5 25  1  0  0  0
  5  6  1  0  0  0
 25 26  1  0  0  0
  6 32  1  0  0  0
  6  7  1  0  0  0
 32 33  1  0  0  0
  7  8  1  0  0  0
 12 13  2  0  0  0
 12 14  1  0  0  0
 12 15  1  0  0  0
 19 20  2  0  0  0
 19 21  1  0  0  0
 19 22  1  0  0  0
 26 27  1  0  0  0
 26 28  1  0  0  0
 26 29  2  0  0  0
 33 34  1  0  0  0
 33 35  2  0  0  0
 33 36  1  0  0  0
  3  9  1  0  0  0
  8 10  1  0  0  0
 14 16  1  0  0  0
 15 17  1  0  0  0
 21 23  1  0  0  0
 22 24  1  0  0  0
 27 30  1  0  0  0
 28 31  1  0  0  0
 34 37  1  0  0  0
 36 38  1  0  0  0
M  END
> <minimizedAffinity>
-7.46325

$$$$
1B55_4IP_A_171


 38 38  0  0  0  0  0  0  0  0999 V2000
   -2.3835    3.7700   37.6184 C   0  0  0  0  0  0  0  0  0  0  0  0
   -1.1927    3.1583   36.9452 C   0  0  0  0  0  0  0  0  0  0  0  0
   -0.9397    1.7775   37.3245 O   0  0  0  0  0  0  0  0  0  0  0  0
   -0.0792    4.0543   37.3329 C   0  0  0  0  0  0  0  0  0  0  0  0
    0.1669    4.0324   38.8768 C   0  0  0  0  0  0  0  0  0  0  0  0
   -0.9873    4.6596   39.5340 C   0  0  0  0  0  0  0  0  0  0  0  0
   -2.2568    3.9202   39.1417 C   0  0  0  0  0  0  0  0  0  0  0  0
   -3.2949    4.7661   39.5129 O   0  0  0  0  0  0  0  0  0  0  0  0
   -0.7941    1.7268   38.2822 H   0  0  0  0  0  0  0  0  0  0  0  0
   -3.2019    5.6140   39.0510 H   0  0  0  0  0  0  0  0  0  0  0  0
   -3.7682    3.3049   37.2434 O   0  0  0  0  0  0  0  0  0  0  0  0
   -4.5619    1.9893   37.8612 P   0  0  0  0  0  0  0  0  0  0  0  0
   -5.2545    2.3775   39.0927 O   0  0  0  0  0  0  0  0  0  0  0  0
   -3.5662    0.9196   38.1338 O   0  0  0  0  0  0  0  0  0  0  0  0
   -5.3670    1.7650   36.6169 O   0  0  0  0  0  0  0  0  0  0  0  0
   -3.0833    1.1274   38.9490 H   0  0  0  0  0  0  0  0  0  0  0  0
   -5.9932    2.4966   36.5008 H   0  0  0  0  0  0  0  0  0  0  0  0
    1.0545    3.7590   36.5594 O   0  0  0  0  0  0  0  0  0  0  0  0
    1.6328    4.7517   35.5317 P   0  0  0  0  0  0  0  0  0  0  0  0
    0.4870    5.5331   35.3161 O   0  0  0  0  0  0  0  0  0  0  0  0
    2.7602    5.2562   36.2881 O   0  0  0  0  0  0  0  0  0  0  0  0
    2.0424    3.9319   34.4353 O   0  0  0  0  0  0  0  0  0  0  0  0
    2.4387    5.8056   37.0201 H   0  0  0  0  0  0  0  0  0  0  0  0
    1.2595    3.6162   33.9574 H   0  0  0  0  0  0  0  0  0  0  0  0
    1.2752    4.8687   39.1615 O   0  0  0  0  0  0  0  0  0  0  0  0
    2.5483    4.4483   39.8575 P   0  0  0  0  0  0  0  0  0  0  0  0
    2.0966    3.4244   40.8275 O   0  0  0  0  0  0  0  0  0  0  0  0
    3.4033    3.9380   38.7574 O   0  0  0  0  0  0  0  0  0  0  0  0
    2.9964    5.6717   40.4577 O   0  0  0  0  0  0  0  0  0  0  0  0
    1.8103    2.6303   40.3496 H   0  0  0  0  0  0  0  0  0  0  0  0
    3.0279    3.1129   38.4123 H   0  0  0  0  0  0  0  0  0  0  0  0
   -0.8038    4.5257   40.9882 O   0  0  0  0  0  0  0  0  0  0  0  0
   -1.2519    3.3418   42.0051 P   0  0  0  0  0  0  0  0  0  0  0  0
   -2.5693    3.8304   42.4155 O   0  0  0  0  0  0  0  0  0  0  0  0
   -1.1743    2.0993   41.2867 O   0  0  0  0  0  0  0  0  0  0  0  0
   -0.2216    3.4758   42.9983 O   0  0  0  0  0  0  0  0  0  0  0  0
   -3.2015    3.7029   41.6909 H   0  0  0  0  0  0  0  0  0  0  0  0
   -0.3187    4.3276   43.4521 H   0  0  0  0  0  0  0  0  0  0  0  0
  1 11  1  0  0  0
  1  2  1  0  0  0
  1  7  1  0  0  0
 11 12  1  0  0  0
  2  3  1  0  0  0
  2  4  1  0  0  0
  4 18  1  0  0  0
  4  5  1  0  0  0
 18 19  1  0  0  0
  5 25  1  0  0  0
  5  6  1  0  0  0
 25 26  1  0  0  0
  6 32  1  0  0  0
  6  7  1  0  0  0
 32 33  1  0  0  0
  7  8  1  0  0  0
 12 13  2  0  0  0
 12 14  1  0  0  0
 12 15  1  0  0  0
 19 20  2  0  0  0
 19 21  1  0  0  0
 19 22  1  0  0  0
 26 27  1  0  0  0
 26 28  1  0  0  0
 26 29  2  0  0  0
 33 34  1  0  0  0
 33 35  2  0  0  0
 33 36  1  0  0  0
  3  9  1  0  0  0
  8 10  1  0  0  0
 14 16  1  0  0  0
 15 17  1  0  0  0
 21 23  1  0  0  0
 22 24  1  0  0  0
 27 30  1  0  0  0
 28 31  1  0  0  0
 34 37  1  0  0  0
 36 38  1  0  0  0
M  END
> <minimizedAffinity>
-7.25752

$$$$
1B55_4IP_A_171


 38 38  0  0  0  0  0  0  0  0999 V2000
    0.5588    3.0368   35.3516 C   0  0  0  0  0  0  0  0  0  0  0  0
   -0.9085    3.3393   35.3834 C   0  0  0  0  0  0  0  0  0  0  0  0
   -1.2425    4.7028   35.0038 O   0  0  0  0  0  0  0  0  0  0  0  0
   -1.2917    3.0422   36.7826 C   0  0  0  0  0  0  0  0  0  0  0  0
   -0.5735    3.9965   37.7917 C   0  0  0  0  0  0  0  0  0  0  0  0
    0.8605    3.6786   37.7821 C   0  0  0  0  0  0  0  0  0  0  0  0
    1.4013    3.8215   36.3681 C   0  0  0  0  0  0  0  0  0  0  0  0
    2.6358    3.1837   36.3891 O   0  0  0  0  0  0  0  0  0  0  0  0
   -0.8014    5.3231   35.6050 H   0  0  0  0  0  0  0  0  0  0  0  0
    2.5163    2.2567   36.6485 H   0  0  0  0  0  0  0  0  0  0  0  0
    1.2702    2.9514   34.0246 O   0  0  0  0  0  0  0  0  0  0  0  0
    2.2912    1.7430   33.5351 P   0  0  0  0  0  0  0  0  0  0  0  0
    1.6942    1.0371   32.3983 O   0  0  0  0  0  0  0  0  0  0  0  0
    2.5075    0.8138   34.6752 O   0  0  0  0  0  0  0  0  0  0  0  0
    3.4383    2.6757   33.2875 O   0  0  0  0  0  0  0  0  0  0  0  0
    1.7306    0.2422   34.7783 H   0  0  0  0  0  0  0  0  0  0  0  0
    3.2309    3.2503   32.5340 H   0  0  0  0  0  0  0  0  0  0  0  0
   -2.6910    3.0248   36.8945 O   0  0  0  0  0  0  0  0  0  0  0  0
   -3.4697    1.7585   37.3017 P   0  0  0  0  0  0  0  0  0  0  0  0
   -3.0020    0.8863   36.3065 O   0  0  0  0  0  0  0  0  0  0  0  0
   -3.0350    1.6372   38.6780 O   0  0  0  0  0  0  0  0  0  0  0  0
   -4.8440    2.1372   37.2016 O   0  0  0  0  0  0  0  0  0  0  0  0
   -2.1001    1.3796   38.7003 H   0  0  0  0  0  0  0  0  0  0  0  0
   -5.0929    2.2068   36.2667 H   0  0  0  0  0  0  0  0  0  0  0  0
   -1.0293    3.6863   39.0974 O   0  0  0  0  0  0  0  0  0  0  0  0
   -1.6639    4.6535   40.0687 P   0  0  0  0  0  0  0  0  0  0  0  0
   -1.0008    5.9425   39.7646 O   0  0  0  0  0  0  0  0  0  0  0  0
   -3.1086    4.5961   39.7354 O   0  0  0  0  0  0  0  0  0  0  0  0
   -1.3116    4.0956   41.3424 O   0  0  0  0  0  0  0  0  0  0  0  0
   -1.2869    6.2553   38.8922 H   0  0  0  0  0  0  0  0  0  0  0  0
   -3.2551    4.9928   38.8624 H   0  0  0  0  0  0  0  0  0  0  0  0
    1.5438    4.6594   38.6408 O   0  0  0  0  0  0  0  0  0  0  0  0
    2.5420    4.4443   39.9032 P   0  0  0  0  0  0  0  0  0  0  0  0
    3.7060    3.8713   39.2253 O   0  0  0  0  0  0  0  0  0  0  0  0
    2.6881    5.7130   40.5628 O   0  0  0  0  0  0  0  0  0  0  0  0
    1.7650    3.5064   40.6664 O   0  0  0  0  0  0  0  0  0  0  0  0
    4.1711    4.5683   38.7366 H   0  0  0  0  0  0  0  0  0  0  0  0
    1.6971    2.6705   40.1790 H   0  0  0  0  0  0  0  0  0  0  0  0
  1 11  1  0  0  0
  1  2  1  0  0  0
  1  7  1  0  0  0
 11 12  1  0  0  0
  2  3  1  0  0  0
  2  4  1  0  0  0
  4 18  1  0  0  0
  4  5  1  0  0  0
 18 19  1  0  0  0
  5 25  1  0  0  0
  5  6  1  0  0  0
 25 26  1  0  0  0
  6 32  1  0  0  0
  6  7  1  0  0  0
 32 33  1  0  0  0
  7  8  1  0  0  0
 12 13  2  0  0  0
 12 14  1  0  0  0
 12 15  1  0  0  0
 19 20  2  0  0  0
 19 21  1  0  0  0
 19 22  1  0  0  0
 26 27  1  0  0  0
 26 28  1  0  0  0
 26 29  2  0  0  0
 33 34  1  0  0  0
 33 35  2  0  0  0
 33 36  1  0  0  0
  3  9  1  0  0  0
  8 10  1  0  0  0
 14 16  1  0  0  0
 15 17  1  0  0  0
 21 23  1  0  0  0
 22 24  1  0  0  0
 27 30  1  0  0  0
 28 31  1  0  0  0
 34 37  1  0  0  0
 36 38  1  0  0  0
M  END
> <minimizedAffinity>
-7.23295

$$$$
1B55_4IP_A_171


 38 38  0  0  0  0  0  0  0  0999 V2000
   -2.4247    3.1657   37.8824 C   0  0  0  0  0  0  0  0  0  0  0  0
   -1.7734    4.3220   38.5784 C   0  0  0  0  0  0  0  0  0  0  0  0
   -2.0040    5.6072   37.9385 O   0  0  0  0  0  0  0  0  0  0  0  0
   -0.3388    3.9551   38.5880 C   0  0  0  0  0  0  0  0  0  0  0  0
    0.2426    3.8657   37.1394 C   0  0  0  0  0  0  0  0  0  0  0  0
   -0.3740    2.7138   36.4682 C   0  0  0  0  0  0  0  0  0  0  0  0
   -1.8861    2.8743   36.4740 C   0  0  0  0  0  0  0  0  0  0  0  0
   -2.3822    1.6183   36.1459 O   0  0  0  0  0  0  0  0  0  0  0  0
   -1.6643    5.5817   37.0302 H   0  0  0  0  0  0  0  0  0  0  0  0
   -2.0757    0.9691   36.7982 H   0  0  0  0  0  0  0  0  0  0  0  0
   -3.9263    3.0297   37.9161 O   0  0  0  0  0  0  0  0  0  0  0  0
   -4.7791    1.6379   38.1956 P   0  0  0  0  0  0  0  0  0  0  0  0
   -5.7248    1.8629   39.2919 O   0  0  0  0  0  0  0  0  0  0  0  0
   -3.8205    0.5559   38.5428 O   0  0  0  0  0  0  0  0  0  0  0  0
   -5.3016    1.5576   36.7929 O   0  0  0  0  0  0  0  0  0  0  0  0
   -3.5241    0.6684   39.4595 H   0  0  0  0  0  0  0  0  0  0  0  0
   -5.9181    2.2896   36.6351 H   0  0  0  0  0  0  0  0  0  0  0  0
    0.3629    4.8191   39.4436 O   0  0  0  0  0  0  0  0  0  0  0  0
    1.2343    4.3011   40.6047 P   0  0  0  0  0  0  0  0  0  0  0  0
    2.1897    5.3288   40.6347 O   0  0  0  0  0  0  0  0  0  0  0  0
    0.2221    4.1800   41.6336 O   0  0  0  0  0  0  0  0  0  0  0  0
    1.7039    3.0276   40.1577 O   0  0  0  0  0  0  0  0  0  0  0  0
   -0.0679    5.0642   41.9075 H   0  0  0  0  0  0  0  0  0  0  0  0
    2.3778    3.1541   39.4716 H   0  0  0  0  0  0  0  0  0  0  0  0
    1.6243    3.5640   37.2334 O   0  0  0  0  0  0  0  0  0  0  0  0
    2.7610    4.4822   36.8506 P   0  0  0  0  0  0  0  0  0  0  0  0
    2.0896    5.7698   36.5596 O   0  0  0  0  0  0  0  0  0  0  0  0
    3.6345    4.4860   38.0500 O   0  0  0  0  0  0  0  0  0  0  0  0
    3.3146    3.8325   35.6978 O   0  0  0  0  0  0  0  0  0  0  0  0
    1.7426    6.1470   37.3832 H   0  0  0  0  0  0  0  0  0  0  0  0
    3.1835    4.9431   38.7770 H   0  0  0  0  0  0  0  0  0  0  0  0
    0.0860    2.7094   35.0701 O   0  0  0  0  0  0  0  0  0  0  0  0
    0.0077    3.8613   33.9283 P   0  0  0  0  0  0  0  0  0  0  0  0
   -1.1181    3.3689   33.1328 O   0  0  0  0  0  0  0  0  0  0  0  0
   -0.1259    5.1269   34.5964 O   0  0  0  0  0  0  0  0  0  0  0  0
    1.2988    3.6857   33.3214 O   0  0  0  0  0  0  0  0  0  0  0  0
   -1.9462    3.5258   33.6129 H   0  0  0  0  0  0  0  0  0  0  0  0
    1.3364    2.8197   32.8861 H   0  0  0  0  0  0  0  0  0  0  0  0
  1 11  1  0  0  0
  1  2  1  0  0  0
  1  7  1  0  0  0
 11 12  1  0  0  0
  2  3  1  0  0  0
  2  4  1  0  0  0
  4 18  1  0  0  0
  4  5  1  0  0  0
 18 19  1  0  0  0
  5 25  1  0  0  0
  5  6  1  0  0  0
 25 26  1  0  0  0
  6 32  1  0  0  0
  6  7  1  0  0  0
 32 33  1  0  0  0
  7  8  1  0  0  0
 12 13  2  0  0  0
 12 14  1  0  0  0
 12 15  1  0  0  0
 19 20  2  0  0  0
 19 21  1  0  0  0
 19 22  1  0  0  0
 26 27  1  0  0  0
 26 28  1  0  0  0
 26 29  2  0  0  0
 33 34  1  0  0  0
 33 35  2  0  0  0
 33 36  1  0  0  0
  3  9  1  0  0  0
  8 10  1  0  0  0
 14 16  1  0  0  0
 15 17  1  0  0  0
 21 23  1  0  0  0
 22 24  1  0  0  0
 27 30  1  0  0  0
 28 31  1  0  0  0
 34 37  1  0  0  0
 36 38  1  0  0  0
M  END
> <minimizedAffinity>
-7.14842

$$$$
1B55_4IP_A_171


 38 38  0  0  0  0  0  0  0  0999 V2000
   -1.3997    3.9999   36.5044 C   0  0  0  0  0  0  0  0  0  0  0  0
   -2.7427    4.1330   37.1557 C   0  0  0  0  0  0  0  0  0  0  0  0
   -3.1442    5.5066   37.4143 O   0  0  0  0  0  0  0  0  0  0  0  0
   -2.5992    3.3511   38.4051 C   0  0  0  0  0  0  0  0  0  0  0  0
   -1.5295    3.9782   39.3574 C   0  0  0  0  0  0  0  0  0  0  0  0
   -0.2099    3.8200   38.7319 C   0  0  0  0  0  0  0  0  0  0  0  0
   -0.2175    4.4772   37.3607 C   0  0  0  0  0  0  0  0  0  0  0  0
    0.9164    3.9897   36.7221 O   0  0  0  0  0  0  0  0  0  0  0  0
   -2.4927    5.9299   37.9950 H   0  0  0  0  0  0  0  0  0  0  0  0
    0.8673    3.0224   36.6699 H   0  0  0  0  0  0  0  0  0  0  0  0
   -1.2249    4.4302   35.0696 O   0  0  0  0  0  0  0  0  0  0  0  0
   -0.4140    3.5998   33.8884 P   0  0  0  0  0  0  0  0  0  0  0  0
    0.2222    2.4189   34.4782 O   0  0  0  0  0  0  0  0  0  0  0  0
    0.6052    4.5012   33.2894 O   0  0  0  0  0  0  0  0  0  0  0  0
   -1.6353    3.4166   33.0388 O   0  0  0  0  0  0  0  0  0  0  0  0
    1.3644    4.5743   33.8888 H   0  0  0  0  0  0  0  0  0  0  0  0
   -2.2549    2.8202   33.4876 H   0  0  0  0  0  0  0  0  0  0  0  0
   -3.8610    3.1641   38.9915 O   0  0  0  0  0  0  0  0  0  0  0  0
   -4.4992    1.7696   39.1469 P   0  0  0  0  0  0  0  0  0  0  0  0
   -5.0717    1.6492   37.8712 O   0  0  0  0  0  0  0  0  0  0  0  0
   -3.3276    1.0063   39.5246 O   0  0  0  0  0  0  0  0  0  0  0  0
   -5.4191    1.9171   40.2305 O   0  0  0  0  0  0  0  0  0  0  0  0
   -2.7318    0.9303   38.7629 H   0  0  0  0  0  0  0  0  0  0  0  0
   -6.1861    2.4325   39.9355 H   0  0  0  0  0  0  0  0  0  0  0  0
   -1.4881    3.2083   40.5468 O   0  0  0  0  0  0  0  0  0  0  0  0
   -2.0641    3.6100   41.8841 P   0  0  0  0  0  0  0  0  0  0  0  0
   -0.8735    3.9859   42.6807 O   0  0  0  0  0  0  0  0  0  0  0  0
   -2.9794    4.7305   41.5552 O   0  0  0  0  0  0  0  0  0  0  0  0
   -2.7100    2.4064   42.3218 O   0  0  0  0  0  0  0  0  0  0  0  0
   -0.4932    4.8051   42.3269 H   0  0  0  0  0  0  0  0  0  0  0  0
   -2.4605    5.4990   41.2703 H   0  0  0  0  0  0  0  0  0  0  0  0
    0.7736    4.5188   39.5751 O   0  0  0  0  0  0  0  0  0  0  0  0
    2.1993    4.0194   40.1706 P   0  0  0  0  0  0  0  0  0  0  0  0
    1.7435    3.1918   41.2887 O   0  0  0  0  0  0  0  0  0  0  0  0
    2.9205    3.3881   39.0994 O   0  0  0  0  0  0  0  0  0  0  0  0
    2.7598    5.2882   40.5471 O   0  0  0  0  0  0  0  0  0  0  0  0
    1.3817    2.3588   40.9479 H   0  0  0  0  0  0  0  0  0  0  0  0
    2.2384    5.6701   41.2705 H   0  0  0  0  0  0  0  0  0  0  0  0
  1 11  1  0  0  0
  1  2  1  0  0  0
  1  7  1  0  0  0
 11 12  1  0  0  0
  2  3  1  0  0  0
  2  4  1  0  0  0
  4 18  1  0  0  0
  4  5  1  0  0  0
 18 19  1  0  0  0
  5 25  1  0  0  0
  5  6  1  0  0  0
 25 26  1  0  0  0
  6 32  1  0  0  0
  6  7  1  0  0  0
 32 33  1  0  0  0
  7  8  1  0  0  0
 12 13  2  0  0  0
 12 14  1  0  0  0
 12 15  1  0  0  0
 19 20  2  0  0  0
 19 21  1  0  0  0
 19 22  1  0  0  0
 26 27  1  0  0  0
 26 28  1  0  0  0
 26 29  2  0  0  0
 33 34  1  0  0  0
 33 35  2  0  0  0
 33 36  1  0  0  0
  3  9  1  0  0  0
  8 10  1  0  0  0
 14 16  1  0  0  0
 15 17  1  0  0  0
 21 23  1  0  0  0
 22 24  1  0  0  0
 27 30  1  0  0  0
 28 31  1  0  0  0
 34 37  1  0  0  0
 36 38  1  0  0  0
M  END
> <minimizedAffinity>
-7.03385

$$$$
1B55_4IP_A_171


 38 38  0  0  0  0  0  0  0  0999 V2000
   -1.0978    3.6634   41.0853 C   0  0  0  0  0  0  0  0  0  0  0  0
   -0.2003    4.7403   40.5557 C   0  0  0  0  0  0  0  0  0  0  0  0
   -0.8756    6.0014   40.2944 O   0  0  0  0  0  0  0  0  0  0  0  0
    0.3622    4.1448   39.3220 C   0  0  0  0  0  0  0  0  0  0  0  0
   -0.7492    3.8670   38.2579 C   0  0  0  0  0  0  0  0  0  0  0  0
   -1.6103    2.7903   38.7647 C   0  0  0  0  0  0  0  0  0  0  0  0
   -2.1892    3.1963   40.1109 C   0  0  0  0  0  0  0  0  0  0  0  0
   -2.6876    2.0199   40.6575 O   0  0  0  0  0  0  0  0  0  0  0  0
   -1.5818    5.8614   39.6444 H   0  0  0  0  0  0  0  0  0  0  0  0
   -1.9696    1.3732   40.7424 H   0  0  0  0  0  0  0  0  0  0  0  0
   -1.6479    3.7776   42.4848 O   0  0  0  0  0  0  0  0  0  0  0  0
   -1.1402    2.9255   43.8109 P   0  0  0  0  0  0  0  0  0  0  0  0
   -1.1113    3.8152   44.9747 O   0  0  0  0  0  0  0  0  0  0  0  0
    0.2145    2.3795   43.5337 O   0  0  0  0  0  0  0  0  0  0  0  0
   -2.2369    1.9094   43.7025 O   0  0  0  0  0  0  0  0  0  0  0  0
    0.8723    3.0870   43.6211 H   0  0  0  0  0  0  0  0  0  0  0  0
   -3.0888    2.3314   43.8948 H   0  0  0  0  0  0  0  0  0  0  0  0
    1.4253    4.9362   38.8590 O   0  0  0  0  0  0  0  0  0  0  0  0
    2.8684    4.4034   38.7626 P   0  0  0  0  0  0  0  0  0  0  0  0
    3.4275    5.0923   39.8501 O   0  0  0  0  0  0  0  0  0  0  0  0
    2.6072    2.9801   38.8232 O   0  0  0  0  0  0  0  0  0  0  0  0
    3.3150    4.8151   37.4691 O   0  0  0  0  0  0  0  0  0  0  0  0
    2.3075    2.7440   39.7151 H   0  0  0  0  0  0  0  0  0  0  0  0
    3.4777    5.7714   37.4724 H   0  0  0  0  0  0  0  0  0  0  0  0
   -0.1291    3.3499   37.0930 O   0  0  0  0  0  0  0  0  0  0  0  0
   -0.0786    4.0229   35.7417 P   0  0  0  0  0  0  0  0  0  0  0  0
   -1.5010    4.1065   35.3375 O   0  0  0  0  0  0  0  0  0  0  0  0
    0.5739    5.3266   36.0176 O   0  0  0  0  0  0  0  0  0  0  0  0
    0.7023    3.1053   34.9632 O   0  0  0  0  0  0  0  0  0  0  0  0
   -1.9618    4.7431   35.9061 H   0  0  0  0  0  0  0  0  0  0  0  0
   -0.0215    5.8807   36.5461 H   0  0  0  0  0  0  0  0  0  0  0  0
   -2.7218    2.6194   37.8151 O   0  0  0  0  0  0  0  0  0  0  0  0
   -3.2807    1.2887   37.0712 P   0  0  0  0  0  0  0  0  0  0  0  0
   -3.0333    0.2836   38.1061 O   0  0  0  0  0  0  0  0  0  0  0  0
   -4.6387    1.5486   36.6781 O   0  0  0  0  0  0  0  0  0  0  0  0
   -2.3774    1.2408   35.9542 O   0  0  0  0  0  0  0  0  0  0  0  0
   -3.6837    0.3860   38.8184 H   0  0  0  0  0  0  0  0  0  0  0  0
   -1.4785    1.0635   36.2727 H   0  0  0  0  0  0  0  0  0  0  0  0
  1 11  1  0  0  0
  1  2  1  0  0  0
  1  7  1  0  0  0
 11 12  1  0  0  0
  2  3  1  0  0  0
  2  4  1  0  0  0
  4 18  1  0  0  0
  4  5  1  0  0  0
 18 19  1  0  0  0
  5 25  1  0  0  0
  5  6  1  0  0  0
 25 26  1  0  0  0
  6 32  1  0  0  0
  6  7  1  0  0  0
 32 33  1  0  0  0
  7  8  1  0  0  0
 12 13  2  0  0  0
 12 14  1  0  0  0
 12 15  1  0  0  0
 19 20  2  0  0  0
 19 21  1  0  0  0
 19 22  1  0  0  0
 26 27  1  0  0  0
 26 28  1  0  0  0
 26 29  2  0  0  0
 33 34  1  0  0  0
 33 35  2  0  0  0
 33 36  1  0  0  0
  3  9  1  0  0  0
  8 10  1  0  0  0
 14 16  1  0  0  0
 15 17  1  0  0  0
 21 23  1  0  0  0
 22 24  1  0  0  0
 27 30  1  0  0  0
 28 31  1  0  0  0
 34 37  1  0  0  0
 36 38  1  0  0  0
M  END
> <minimizedAffinity>
-6.98934

$$$$
1B55_4IP_A_171


 38 38  0  0  0  0  0  0  0  0999 V2000
    2.7945    1.0875   36.7247 C   0  0  0  0  0  0  0  0  0  0  0  0
    2.7753    2.3610   35.9353 C   0  0  0  0  0  0  0  0  0  0  0  0
    3.8501    3.2824   36.2676 O   0  0  0  0  0  0  0  0  0  0  0  0
    1.4417    2.9316   36.2335 C   0  0  0  0  0  0  0  0  0  0  0  0
    1.2951    3.2925   37.7477 C   0  0  0  0  0  0  0  0  0  0  0  0
    1.2835    2.0419   38.5180 C   0  0  0  0  0  0  0  0  0  0  0  0
    2.5556    1.2593   38.2321 C   0  0  0  0  0  0  0  0  0  0  0  0
    2.3052   -0.0211   38.7105 O   0  0  0  0  0  0  0  0  0  0  0  0
    3.7950    3.5181   37.2070 H   0  0  0  0  0  0  0  0  0  0  0  0
    1.5323   -0.3908   38.2557 H   0  0  0  0  0  0  0  0  0  0  0  0
    3.8816    0.0735   36.4709 O   0  0  0  0  0  0  0  0  0  0  0  0
    4.6422   -0.2086   35.0273 P   0  0  0  0  0  0  0  0  0  0  0  0
    3.6535   -0.1780   33.9463 O   0  0  0  0  0  0  0  0  0  0  0  0
    5.3073   -1.5365   35.0930 O   0  0  0  0  0  0  0  0  0  0  0  0
    5.5825    0.9485   35.1821 O   0  0  0  0  0  0  0  0  0  0  0  0
    4.6439   -2.2360   34.9861 H   0  0  0  0  0  0  0  0  0  0  0  0
    5.0844    1.7792   35.1295 H   0  0  0  0  0  0  0  0  0  0  0  0
    1.1763    3.9937   35.3546 O   0  0  0  0  0  0  0  0  0  0  0  0
    0.0013    3.9644   34.3573 P   0  0  0  0  0  0  0  0  0  0  0  0
    0.6427    4.5391   33.2491 O   0  0  0  0  0  0  0  0  0  0  0  0
   -0.3172    2.5520   34.3976 O   0  0  0  0  0  0  0  0  0  0  0  0
   -1.0102    4.7632   34.9743 O   0  0  0  0  0  0  0  0  0  0  0  0
    0.3927    2.0481   33.9699 H   0  0  0  0  0  0  0  0  0  0  0  0
   -0.7581    5.6986   34.9255 H   0  0  0  0  0  0  0  0  0  0  0  0
    0.0193    3.8783   37.9430 O   0  0  0  0  0  0  0  0  0  0  0  0
   -0.2467    5.2803   38.4385 P   0  0  0  0  0  0  0  0  0  0  0  0
    0.5080    5.3523   39.7107 O   0  0  0  0  0  0  0  0  0  0  0  0
    0.2713    6.1464   37.3507 O   0  0  0  0  0  0  0  0  0  0  0  0
   -1.6723    5.2916   38.5974 O   0  0  0  0  0  0  0  0  0  0  0  0
    1.4596    5.3400   39.5233 H   0  0  0  0  0  0  0  0  0  0  0  0
    1.2382    6.0775   37.3153 H   0  0  0  0  0  0  0  0  0  0  0  0
    1.2679    2.3945   39.9469 O   0  0  0  0  0  0  0  0  0  0  0  0
    0.2062    2.0184   41.1165 P   0  0  0  0  0  0  0  0  0  0  0  0
    0.1037    0.5708   40.9251 O   0  0  0  0  0  0  0  0  0  0  0  0
    0.7360    2.5102   42.3589 O   0  0  0  0  0  0  0  0  0  0  0  0
   -0.9304    2.7703   40.6597 O   0  0  0  0  0  0  0  0  0  0  0  0
    0.9078    0.1428   41.2586 H   0  0  0  0  0  0  0  0  0  0  0  0
   -1.2480    2.3991   39.8216 H   0  0  0  0  0  0  0  0  0  0  0  0
  1 11  1  0  0  0
  1  2  1  0  0  0
  1  7  1  0  0  0
 11 12  1  0  0  0
  2  3  1  0  0  0
  2  4  1  0  0  0
  4 18  1  0  0  0
  4  5  1  0  0  0
 18 19  1  0  0  0
  5 25  1  0  0  0
  5  6  1  0  0  0
 25 26  1  0  0  0
  6 32  1  0  0  0
  6  7  1  0  0  0
 32 33  1  0  0  0
  7  8  1  0  0  0
 12 13  2  0  0  0
 12 14  1  0  0  0
 12 15  1  0  0  0
 19 20  2  0  0  0
 19 21  1  0  0  0
 19 22  1  0  0  0
 26 27  1  0  0  0
 26 28  1  0  0  0
 26 29  2  0  0  0
 33 34  1  0  0  0
 33 35  2  0  0  0
 33 36  1  0  0  0
  3  9  1  0  0  0
  8 10  1  0  0  0
 14 16  1  0  0  0
 15 17  1  0  0  0
 21 23  1  0  0  0
 22 24  1  0  0  0
 27 30  1  0  0  0
 28 31  1  0  0  0
 34 37  1  0  0  0
 36 38  1  0  0  0
M  END
> <minimizedAffinity>
-6.79459

$$$$
1B55_4IP_A_171


 38 38  0  0  0  0  0  0  0  0999 V2000
   -1.0651    3.1037   36.8157 C   0  0  0  0  0  0  0  0  0  0  0  0
    0.2250    2.6273   37.4108 C   0  0  0  0  0  0  0  0  0  0  0  0
    0.3552    1.1800   37.4665 O   0  0  0  0  0  0  0  0  0  0  0  0
    0.2288    3.2381   38.7599 C   0  0  0  0  0  0  0  0  0  0  0  0
   -0.9449    2.6977   39.6402 C   0  0  0  0  0  0  0  0  0  0  0  0
   -2.2074    3.1902   39.0735 C   0  0  0  0  0  0  0  0  0  0  0  0
   -2.3202    2.7436   37.6244 C   0  0  0  0  0  0  0  0  0  0  0  0
   -3.3374    3.5227   37.0862 O   0  0  0  0  0  0  0  0  0  0  0  0
   -0.3675    0.8105   37.9975 H   0  0  0  0  0  0  0  0  0  0  0  0
   -3.1040    4.4607   37.1680 H   0  0  0  0  0  0  0  0  0  0  0  0
   -1.3134    2.9211   35.3394 O   0  0  0  0  0  0  0  0  0  0  0  0
   -0.4282    3.5837   34.1066 P   0  0  0  0  0  0  0  0  0  0  0  0
    0.8120    2.8217   33.9388 O   0  0  0  0  0  0  0  0  0  0  0  0
   -0.1321    5.0010   34.4439 O   0  0  0  0  0  0  0  0  0  0  0  0
   -1.5233    3.4172   33.0967 O   0  0  0  0  0  0  0  0  0  0  0  0
    0.5823    5.0349   35.0992 H   0  0  0  0  0  0  0  0  0  0  0  0
   -1.6633    2.4729   32.9244 H   0  0  0  0  0  0  0  0  0  0  0  0
    1.5007    3.0975   39.3373 O   0  0  0  0  0  0  0  0  0  0  0  0
    2.5364    4.2391   39.3379 P   0  0  0  0  0  0  0  0  0  0  0  0
    1.7419    5.2536   38.7818 O   0  0  0  0  0  0  0  0  0  0  0  0
    2.8938    4.2429   40.7415 O   0  0  0  0  0  0  0  0  0  0  0  0
    3.5987    3.7574   38.5122 O   0  0  0  0  0  0  0  0  0  0  0  0
    2.1476    4.5756   41.2643 H   0  0  0  0  0  0  0  0  0  0  0  0
    3.3183    3.7715   37.5838 H   0  0  0  0  0  0  0  0  0  0  0  0
   -0.8429    3.2858   40.9257 O   0  0  0  0  0  0  0  0  0  0  0  0
   -0.4719    2.5689   42.2025 P   0  0  0  0  0  0  0  0  0  0  0  0
    0.9710    2.2798   42.0364 O   0  0  0  0  0  0  0  0  0  0  0  0
   -0.7979    3.5485   43.2682 O   0  0  0  0  0  0  0  0  0  0  0  0
   -1.3136    1.4079   42.1663 O   0  0  0  0  0  0  0  0  0  0  0  0
    1.4731    3.1090   42.0716 H   0  0  0  0  0  0  0  0  0  0  0  0
   -0.1826    4.2968   43.2187 H   0  0  0  0  0  0  0  0  0  0  0  0
   -3.3097    2.5792   39.8338 O   0  0  0  0  0  0  0  0  0  0  0  0
   -4.4296    3.2531   40.7972 P   0  0  0  0  0  0  0  0  0  0  0  0
   -4.2154    2.4883   42.0267 O   0  0  0  0  0  0  0  0  0  0  0  0
   -4.1879    4.6698   40.8197 O   0  0  0  0  0  0  0  0  0  0  0  0
   -5.6169    2.9025   40.0667 O   0  0  0  0  0  0  0  0  0  0  0  0
   -3.3976    2.7865   42.4547 H   0  0  0  0  0  0  0  0  0  0  0  0
   -5.7335    1.9396   40.0821 H   0  0  0  0  0  0  0  0  0  0  0  0
  1 11  1  0  0  0
  1  2  1  0  0  0
  1  7  1  0  0  0
 11 12  1  0  0  0
  2  3  1  0  0  0
  2  4  1  0  0  0
  4 18  1  0  0  0
  4  5  1  0  0  0
 18 19  1  0  0  0
  5 25  1  0  0  0
  5  6  1  0  0  0
 25 26  1  0  0  0
  6 32  1  0  0  0
  6  7  1  0  0  0
 32 33  1  0  0  0
  7  8  1  0  0  0
 12 13  2  0  0  0
 12 14  1  0  0  0
 12 15  1  0  0  0
 19 20  2  0  0  0
 19 21  1  0  0  0
 19 22  1  0  0  0
 26 27  1  0  0  0
 26 28  1  0  0  0
 26 29  2  0  0  0
 33 34  1  0  0  0
 33 35  2  0  0  0
 33 36  1  0  0  0
  3  9  1  0  0  0
  8 10  1  0  0  0
 14 16  1  0  0  0
 15 17  1  0  0  0
 21 23  1  0  0  0
 22 24  1  0  0  0
 27 30  1  0  0  0
 28 31  1  0  0  0
 34 37  1  0  0  0
 36 38  1  0  0  0
M  END
> <minimizedAffinity>
-6.74970

$$$$
1B55_4IP_A_171


 38 38  0  0  0  0  0  0  0  0999 V2000
   -0.1432    4.4684   39.0109 C   0  0  0  0  0  0  0  0  0  0  0  0
   -0.8379    3.5015   39.9208 C   0  0  0  0  0  0  0  0  0  0  0  0
   -0.1575    2.2241   40.0617 O   0  0  0  0  0  0  0  0  0  0  0  0
   -2.1778    3.3531   39.3080 C   0  0  0  0  0  0  0  0  0  0  0  0
   -2.0925    2.7108   37.8851 C   0  0  0  0  0  0  0  0  0  0  0  0
   -1.4385    3.6715   36.9868 C   0  0  0  0  0  0  0  0  0  0  0  0
   -0.0687    4.0308   37.5406 C   0  0  0  0  0  0  0  0  0  0  0  0
    0.3153    5.1679   36.8402 O   0  0  0  0  0  0  0  0  0  0  0  0
   -0.0771    1.8029   39.1916 H   0  0  0  0  0  0  0  0  0  0  0  0
   -0.3379    5.8709   36.9818 H   0  0  0  0  0  0  0  0  0  0  0  0
    1.1588    5.0927   39.4464 O   0  0  0  0  0  0  0  0  0  0  0  0
    2.6665    4.4254   39.2922 P   0  0  0  0  0  0  0  0  0  0  0  0
    3.1726    4.6825   37.9413 O   0  0  0  0  0  0  0  0  0  0  0  0
    2.5667    2.9641   39.5462 O   0  0  0  0  0  0  0  0  0  0  0  0
    3.2374    5.2024   40.4399 O   0  0  0  0  0  0  0  0  0  0  0  0
    2.1913    2.5253   38.7668 H   0  0  0  0  0  0  0  0  0  0  0  0
    3.2737    6.1434   40.2071 H   0  0  0  0  0  0  0  0  0  0  0  0
   -3.0315    2.6824   40.1981 O   0  0  0  0  0  0  0  0  0  0  0  0
   -4.1988    3.3913   40.9128 P   0  0  0  0  0  0  0  0  0  0  0  0
   -5.2318    2.5031   40.5751 O   0  0  0  0  0  0  0  0  0  0  0  0
   -3.6620    3.4501   42.2567 O   0  0  0  0  0  0  0  0  0  0  0  0
   -4.2617    4.6808   40.3003 O   0  0  0  0  0  0  0  0  0  0  0  0
   -3.6368    2.5569   42.6342 H   0  0  0  0  0  0  0  0  0  0  0  0
   -4.6256    4.5962   39.4051 H   0  0  0  0  0  0  0  0  0  0  0  0
   -3.4109    2.5538   37.3890 O   0  0  0  0  0  0  0  0  0  0  0  0
   -4.1076    1.2405   37.1212 P   0  0  0  0  0  0  0  0  0  0  0  0
   -3.2683    0.6035   36.0805 O   0  0  0  0  0  0  0  0  0  0  0  0
   -4.1000    0.5586   38.4390 O   0  0  0  0  0  0  0  0  0  0  0  0
   -5.4002    1.6592   36.6613 O   0  0  0  0  0  0  0  0  0  0  0  0
   -2.4147    0.3489   36.4645 H   0  0  0  0  0  0  0  0  0  0  0  0
   -3.1909    0.3118   38.6702 H   0  0  0  0  0  0  0  0  0  0  0  0
   -1.2532    3.0135   35.6833 O   0  0  0  0  0  0  0  0  0  0  0  0
   -0.6473    3.5833   34.2888 P   0  0  0  0  0  0  0  0  0  0  0  0
    0.7586    3.2035   34.4366 O   0  0  0  0  0  0  0  0  0  0  0  0
   -1.4059    3.0013   33.2155 O   0  0  0  0  0  0  0  0  0  0  0  0
   -0.9165    4.9842   34.4648 O   0  0  0  0  0  0  0  0  0  0  0  0
    0.8509    2.2472   34.3030 H   0  0  0  0  0  0  0  0  0  0  0  0
   -0.3816    5.3266   35.1980 H   0  0  0  0  0  0  0  0  0  0  0  0
  1 11  1  0  0  0
  1  2  1  0  0  0
  1  7  1  0  0  0
 11 12  1  0  0  0
  2  3  1  0  0  0
  2  4  1  0  0  0
  4 18  1  0  0  0
  4  5  1  0  0  0
 18 19  1  0  0  0
  5 25  1  0  0  0
  5  6  1  0  0  0
 25 26  1  0  0  0
  6 32  1  0  0  0
  6  7  1  0  0  0
 32 33  1  0  0  0
  7  8  1  0  0  0
 12 13  2  0  0  0
 12 14  1  0  0  0
 12 15  1  0  0  0
 19 20  2  0  0  0
 19 21  1  0  0  0
 19 22  1  0  0  0
 26 27  1  0  0  0
 26 28  1  0  0  0
 26 29  2  0  0  0
 33 34  1  0  0  0
 33 35  2  0  0  0
 33 36  1  0  0  0
  3  9  1  0  0  0
  8 10  1  0  0  0
 14 16  1  0  0  0
 15 17  1  0  0  0
 21 23  1  0  0  0
 22 24  1  0  0  0
 27 30  1  0  0  0
 28 31  1  0  0  0
 34 37  1  0  0  0
 36 38  1  0  0  0
M  END
> <minimizedAffinity>
-6.71316

$$$$
