6DJ1_AB1_B_201
  RCSB PDB10131806213D
Coordinates from PDB:6DJ1:B:201 Model:1 without hydrogens
 46 49  0  0  0  0            999 V2000
    5.1690   16.3660   63.7490   C 0  0  0  0  0  0  0  0  0  0  0  0
    6.9050   17.8280   62.7300   C 0  0  0  0  0  0  0  0  0  0  0  0
    7.9290   16.8830   63.2380   N 0  0  0  0  0  0  0  0  0  0  0  0
    7.6160   15.8750   64.0460   C 0  0  0  0  0  0  0  0  0  0  0  0
    6.2810   15.6640   64.3580   N 0  0  0  0  0  0  0  0  0  0  0  0
   14.9030   20.5570   61.6730   C 0  0  0  0  0  0  0  0  0  0  0  0
   16.1800   21.0410   61.5330   C 0  0  0  0  0  0  0  0  0  0  0  0
   16.5140   22.0890   60.6710   C 0  0  0  0  0  0  0  0  0  0  0  0
   15.5240   22.7110   59.9030   C 0  0  0  0  0  0  0  0  0  0  0  0
   14.2320   22.2350   60.0340   C 0  0  0  0  0  0  0  0  0  0  0  0
   13.9370   21.1300   60.8370   C 0  0  0  0  0  0  0  0  0  0  0  0
    8.4780   15.0970   64.5340   O 0  0  0  0  0  0  0  0  0  0  0  0
    9.3570   17.0790   62.8830   C 0  0  0  0  0  0  0  0  0  0  0  0
    9.8930   18.2830   63.6240   C 0  0  0  0  0  0  0  0  0  0  0  0
   10.6460   18.0430   64.7140   N 0  0  0  0  0  0  0  0  0  0  0  0
   11.1440   19.0920   65.6120   C 0  0  0  0  0  0  0  0  0  0  0  0
    9.5600   17.1780   61.3780   C 0  0  0  0  0  0  0  0  0  0  0  0
   11.0550   17.3980   61.1040   C 0  0  0  0  0  0  0  0  0  0  0  0
    9.1070   15.8860   60.6920   C 0  0  0  0  0  0  0  0  0  0  0  0
    9.5800   19.4040   63.1950   O 0  0  0  0  0  0  0  0  0  0  0  0
    7.2070   20.9410   66.8420   C 0  0  0  0  0  0  0  0  0  0  0  0
    6.2710   19.9210   66.7520   C 0  0  0  0  0  0  0  0  0  0  0  0
    6.7020   18.6020   66.7220   C 0  0  0  0  0  0  0  0  0  0  0  0
    8.0770   18.3380   66.8010   C 0  0  0  0  0  0  0  0  0  0  0  0
    9.0270   19.3410   66.8460   C 0  0  0  0  0  0  0  0  0  0  0  0
    8.5670   20.6610   66.9080   C 0  0  0  0  0  0  0  0  0  0  0  0
   10.3790   19.0760   66.9460   C 0  0  0  0  0  0  0  0  0  0  0  0
   12.6250   18.8120   65.8670   C 0  0  0  0  0  0  0  0  0  0  0  0
   13.4830   18.5890   64.6170   C 0  0  0  0  0  0  0  0  0  0  0  0
   13.7460   19.7990   63.7270   C 0  0  0  0  0  0  0  0  0  0  0  0
   14.4420   20.8770   64.4590   N 0  0  0  0  0  0  0  0  0  0  0  0
   13.8710   22.0720   64.6950   C 0  0  0  0  0  0  0  0  0  0  0  0
   14.8000   23.1450   65.2660   C 0  0  0  0  0  0  0  0  0  0  0  0
   16.0380   22.5870   65.7550   O 0  0  0  0  0  0  0  0  0  0  0  0
   16.8770   23.5730   66.1050   C 0  0  0  0  0  0  0  0  0  0  0  0
   14.7790   18.0320   64.9890   O 0  0  0  0  0  0  0  0  0  0  0  0
   14.5960   19.4570   62.4960   C 0  0  0  0  0  0  0  0  0  0  0  0
   12.6920   22.3170   64.4620   O 0  0  0  0  0  0  0  0  0  0  0  0
   16.8070   24.1500   67.3650   C 0  0  0  0  0  0  0  0  0  0  0  0
   17.7090   25.1670   67.6510   C 0  0  0  0  0  0  0  0  0  0  0  0
   18.6280   25.6400   66.7020   C 0  0  0  0  0  0  0  0  0  0  0  0
   18.6870   25.0210   65.4470   C 0  0  0  0  0  0  0  0  0  0  0  0
   17.8450   23.9250   65.1900   C 0  0  0  0  0  0  0  0  0  0  0  0
   17.8190   23.3160   63.9240   C 0  0  0  0  0  0  0  0  0  0  0  0
   15.8580   23.7900   68.3460   C 0  0  0  0  0  0  0  0  0  0  0  0
    5.6050   17.1050   62.4870   C 0  0  0  0  0  0  0  0  0  0  0  0
  1  5  1  0  0  0  0
  1 46  1  0  0  0  0
  2  3  1  0  0  0  0
  2 46  1  0  0  0  0
  3  4  1  0  0  0  0
  3 13  1  0  0  0  0
  4  5  1  0  0  0  0
  4 12  2  0  0  0  0
  6  7  2  0  0  0  0
  6 11  1  0  0  0  0
  6 37  1  0  0  0  0
  7  8  1  0  0  0  0
  8  9  2  0  0  0  0
  9 10  1  0  0  0  0
 10 11  2  0  0  0  0
 13 14  1  0  0  0  0
 13 17  1  0  0  0  0
 14 15  1  0  0  0  0
 14 20  2  0  0  0  0
 15 16  1  0  0  0  0
 16 27  1  0  0  0  0
 16 28  1  0  0  0  0
 17 18  1  0  0  0  0
 17 19  1  0  0  0  0
 21 22  2  0  0  0  0
 21 26  1  0  0  0  0
 22 23  1  0  0  0  0
 23 24  2  0  0  0  0
 24 25  1  0  0  0  0
 25 26  2  0  0  0  0
 25 27  1  0  0  0  0
 28 29  1  0  0  0  0
 29 30  1  0  0  0  0
 29 36  1  0  0  0  0
 30 31  1  0  0  0  0
 30 37  1  0  0  0  0
 31 32  1  0  0  0  0
 32 33  1  0  0  0  0
 32 38  2  0  0  0  0
 33 34  1  0  0  0  0
 34 35  1  0  0  0  0
 35 39  2  0  0  0  0
 35 43  1  0  0  0  0
 39 40  1  0  0  0  0
 39 45  1  0  0  0  0
 40 41  2  0  0  0  0
 41 42  1  0  0  0  0
 42 43  2  0  0  0  0
 43 44  1  0  0  0  0
A    1
C1
A    2
C2
A    3
N1
A    4
C3
A    5
N2
A    6
C4
A    7
C5
A    8
C6
A    9
C7
A   10
C8
A   11
C9
A   12
O1
A   13
C10
A   14
C11
A   15
N3
A   16
C12
A   17
C13
A   18
C14
A   19
C15
A   20
O2
A   21
C16
A   22
C17
A   23
C18
A   24
C19
A   25
C20
A   26
C21
A   27
C22
A   28
C23
A   29
C24
A   30
C25
A   31
N4
A   32
C26
A   33
C27
A   34
O3
A   35
C28
A   36
O4
A   37
C29
A   38
O5
A   39
C30
A   40
C31
A   41
C32
A   42
C33
A   43
C34
A   44
C35
A   45
C36
A   46
C37
M  END
>  <InstanceId>
6DJ1_AB1_B_201

>  <ChemCompId>
AB1

>  <PdbId>
6DJ1

>  <ChainId>
B

>  <ResidueNumber>
201

>  <InsertionCode>


>  <Model>
1

>  <AltIds>


>  <MissingHeavyAtoms>
0

>  <ObservedFormula>
C37 N4 O5

>  <Name>
N-{1-BENZYL-4-[2-(2,6-DIMETHYL-PHENOXY)-ACETYLAMINO]-3-HYDROXY-5-PHENYL-PENTYL}-3-METHYL-2-(2-OXO-TETRAHYDRO-PYRIMIDIN-1-YL)-BUTYRAMIDE

>  <SystematicName>
(2S)-N-[(2S,4S,5S)-5-[2-(2,6-dimethylphenoxy)ethanoylamino]-4-hydroxy-1,6-diphenyl-hexan-2-yl]-3-methyl-2-(2-oxo-1,3-diazinan-1-yl)butanamide

>  <Synonyms>
ABT-378, LOPINAVIR

>  <Type>
NON-POLYMER

>  <Formula>
C37 H48 N4 O5

>  <MolecularWeight>
628.801

>  <ModifiedDate>
2011-06-04

>  <Parent>


>  <OneLetterCode>


>  <SubcomponentList>


>  <AmbiguousFlag>
N

>  <InChI>
InChI=1S/C37H48N4O5/c1-25(2)34(41-20-12-19-38-37(41)45)36(44)39-30(21-28-15-7-5-8-16-28)23-32(42)31(22-29-17-9-6-10-18-29)40-33(43)24-46-35-26(3)13-11-14-27(35)4/h5-11,13-18,25,30-32,34,42H,12,19-24H2,1-4H3,(H,38,45)(H,39,44)(H,40,43)/t30-,31-,32-,34-/m0/s1

>  <InChIKey>
KJHKTHWMRKYKJE-SUGCFTRWSA-N

>  <SMILES>
Cc1cccc(c1OCC(=O)N[C@@H](Cc2ccccc2)[C@H](C[C@H](Cc3ccccc3)NC(=O)[C@H](C(C)C)N4CCCNC4=O)O)C

$$$$
