6DJ1_AB1_B_201


 50 53  0  0  0  0  0  0  0  0999 V2000
   12.1838   19.2571   65.8412 C   0  0  0  0  0  0  0  0  0  0  0  0
   12.9750   18.8916   64.5807 C   0  0  0  0  0  0  0  0  0  0  0  0
   14.0362   17.9460   64.9091 O   0  0  0  0  0  0  0  0  0  0  0  0
   14.6832   18.3752   65.4905 H   0  0  0  0  0  0  0  0  0  0  0  0
   13.6112   20.0369   63.8003 C   0  0  0  0  0  0  0  0  0  0  0  0
   14.1530   21.0775   64.6981 N   0  0  0  0  0  0  0  0  0  0  0  0
   13.5482   22.2669   64.8693 C   0  0  0  0  0  0  0  0  0  0  0  0
   12.4369   22.5319   64.4229 O   0  0  0  0  0  0  0  0  0  0  0  0
   14.9866   20.8940   65.1887 H   0  0  0  0  0  0  0  0  0  0  0  0
   14.3498   23.3070   65.6541 C   0  0  0  0  0  0  0  0  0  0  0  0
   15.5492   22.7470   66.2294 O   0  0  0  0  0  0  0  0  0  0  0  0
   16.5325   23.6588   66.2134 C   0  0  0  0  0  0  0  0  0  0  0  0
   17.3341   23.8179   65.0920 C   0  0  0  0  0  0  0  0  0  0  0  0
   18.3325   24.7818   65.1540 C   0  0  0  0  0  0  0  0  0  0  0  0
   18.5693   25.5395   66.3110 C   0  0  0  0  0  0  0  0  0  0  0  0
   17.7281   25.3693   67.4178 C   0  0  0  0  0  0  0  0  0  0  0  0
   16.6540   24.4674   67.3223 C   0  0  0  0  0  0  0  0  0  0  0  0
   15.8255   24.2119   68.4280 C   0  0  0  0  0  0  0  0  0  0  0  0
   17.2157   23.0390   63.9207 C   0  0  0  0  0  0  0  0  0  0  0  0
   14.7574   19.5719   62.8922 C   0  0  0  0  0  0  0  0  0  0  0  0
   14.8268   20.2341   61.6519 C   0  0  0  0  0  0  0  0  0  0  0  0
   15.9973   20.3588   60.9457 C   0  0  0  0  0  0  0  0  0  0  0  0
   16.0733   20.9544   59.6838 C   0  0  0  0  0  0  0  0  0  0  0  0
   14.9229   21.4728   59.0800 C   0  0  0  0  0  0  0  0  0  0  0  0
   13.7357   21.3556   59.7800 C   0  0  0  0  0  0  0  0  0  0  0  0
   13.6698   20.6794   61.0012 C   0  0  0  0  0  0  0  0  0  0  0  0
   10.6620   19.2157   65.7028 C   0  0  0  0  0  0  0  0  0  0  0  0
    9.5651   18.4692   63.6025 C   0  0  0  0  0  0  0  0  0  0  0  0
   10.3406   18.2189   64.6742 N   0  0  0  0  0  0  0  0  0  0  0  0
    9.0816   19.5714   63.3026 O   0  0  0  0  0  0  0  0  0  0  0  0
   10.7143   17.3135   64.7740 H   0  0  0  0  0  0  0  0  0  0  0  0
    9.2298   17.2954   62.7104 C   0  0  0  0  0  0  0  0  0  0  0  0
    5.1357   15.9662   63.2293 C   0  0  0  0  0  0  0  0  0  0  0  0
    6.7301   17.5655   62.1855 C   0  0  0  0  0  0  0  0  0  0  0  0
    7.8184   16.8961   62.9387 N   0  0  0  0  0  0  0  0  0  0  0  0
    7.5699   15.9659   63.8551 C   0  0  0  0  0  0  0  0  0  0  0  0
    6.2575   15.5629   64.0534 N   0  0  0  0  0  0  0  0  0  0  0  0
    8.4753   15.4276   64.5457 O   0  0  0  0  0  0  0  0  0  0  0  0
    5.6073   16.5953   61.9214 C   0  0  0  0  0  0  0  0  0  0  0  0
    6.0748   14.9588   64.8090 H   0  0  0  0  0  0  0  0  0  0  0  0
    9.5104   17.5760   61.2412 C   0  0  0  0  0  0  0  0  0  0  0  0
   10.9384   18.1273   61.1172 C   0  0  0  0  0  0  0  0  0  0  0  0
    9.3944   16.2886   60.4201 C   0  0  0  0  0  0  0  0  0  0  0  0
   10.0318   18.8299   67.0515 C   0  0  0  0  0  0  0  0  0  0  0  0
    6.5060   17.8004   67.2949 C   0  0  0  0  0  0  0  0  0  0  0  0
    5.8368   18.9968   67.0820 C   0  0  0  0  0  0  0  0  0  0  0  0
    6.5676   20.1556   66.8594 C   0  0  0  0  0  0  0  0  0  0  0  0
    7.9677   20.0787   66.8396 C   0  0  0  0  0  0  0  0  0  0  0  0
    8.6532   18.9056   67.0938 C   0  0  0  0  0  0  0  0  0  0  0  0
    7.8950   17.7450   67.2831 C   0  0  0  0  0  0  0  0  0  0  0  0
 33 37  1  0  0  0
 33 39  1  0  0  0
 34 35  1  0  0  0
 34 39  1  0  0  0
 35 36  1  0  0  0
 35 32  1  0  0  0
 36 37  1  0  0  0
 36 38  2  0  0  0
 21 22  2  0  0  0
 21 26  1  0  0  0
 21 20  1  0  0  0
 22 23  1  0  0  0
 23 24  2  0  0  0
 24 25  1  0  0  0
 25 26  2  0  0  0
 32 28  1  0  0  0
 32 41  1  0  0  0
 28 29  1  0  0  0
 28 30  2  0  0  0
 29 27  1  0  0  0
 27 44  1  0  0  0
 27  1  1  0  0  0
 41 42  1  0  0  0
 41 43  1  0  0  0
 45 46  2  0  0  0
 45 50  1  0  0  0
 46 47  1  0  0  0
 47 48  2  0  0  0
 48 49  1  0  0  0
 49 50  2  0  0  0
 49 44  1  0  0  0
  1  2  1  0  0  0
  2  5  1  0  0  0
  2  3  1  0  0  0
  5  6  1  0  0  0
  5 20  1  0  0  0
  6  7  1  0  0  0
  7 10  1  0  0  0
  7  8  2  0  0  0
 10 11  1  0  0  0
 11 12  1  0  0  0
 12 13  2  0  0  0
 12 17  1  0  0  0
 13 14  1  0  0  0
 13 19  1  0  0  0
 14 15  2  0  0  0
 15 16  1  0  0  0
 16 17  2  0  0  0
 17 18  1  0  0  0
 37 40  1  0  0  0
 29 31  1  0  0  0
  6  9  1  0  0  0
  3  4  1  0  0  0
M  END
> <minimizedAffinity>
-11.53009

$$$$
6DJ1_AB1_B_201


 50 53  0  0  0  0  0  0  0  0999 V2000
   12.1852   19.2384   65.7510 C   0  0  0  0  0  0  0  0  0  0  0  0
   12.9584   18.8081   64.4998 C   0  0  0  0  0  0  0  0  0  0  0  0
   14.0817   17.9546   64.8712 O   0  0  0  0  0  0  0  0  0  0  0  0
   14.7198   18.4679   65.3910 H   0  0  0  0  0  0  0  0  0  0  0  0
   13.5040   19.9141   63.6028 C   0  0  0  0  0  0  0  0  0  0  0  0
   14.1722   20.9745   64.3847 N   0  0  0  0  0  0  0  0  0  0  0  0
   13.5920   22.1635   64.6282 C   0  0  0  0  0  0  0  0  0  0  0  0
   12.4220   22.4140   64.3586 O   0  0  0  0  0  0  0  0  0  0  0  0
   15.0744   20.8049   64.7404 H   0  0  0  0  0  0  0  0  0  0  0  0
   14.4989   23.2227   65.2575 C   0  0  0  0  0  0  0  0  0  0  0  0
   15.6955   22.6466   65.8227 O   0  0  0  0  0  0  0  0  0  0  0  0
   16.5996   23.6091   66.0566 C   0  0  0  0  0  0  0  0  0  0  0  0
   16.6253   24.2778   67.2722 C   0  0  0  0  0  0  0  0  0  0  0  0
   17.5904   25.2632   67.4369 C   0  0  0  0  0  0  0  0  0  0  0  0
   18.4800   25.6174   66.4112 C   0  0  0  0  0  0  0  0  0  0  0  0
   18.4416   24.9078   65.2043 C   0  0  0  0  0  0  0  0  0  0  0  0
   17.5339   23.8426   65.0713 C   0  0  0  0  0  0  0  0  0  0  0  0
   17.4106   23.1467   63.8569 C   0  0  0  0  0  0  0  0  0  0  0  0
   15.7131   24.0401   68.3228 C   0  0  0  0  0  0  0  0  0  0  0  0
   14.5161   19.3971   62.5717 C   0  0  0  0  0  0  0  0  0  0  0  0
   14.8201   20.3081   61.5425 C   0  0  0  0  0  0  0  0  0  0  0  0
   16.1017   20.5199   61.0984 C   0  0  0  0  0  0  0  0  0  0  0  0
   16.4153   21.3703   60.0347 C   0  0  0  0  0  0  0  0  0  0  0  0
   15.4018   22.0687   59.3699 C   0  0  0  0  0  0  0  0  0  0  0  0
   14.1052   21.8665   59.8068 C   0  0  0  0  0  0  0  0  0  0  0  0
   13.8078   20.9458   60.8152 C   0  0  0  0  0  0  0  0  0  0  0  0
   10.6615   19.2046   65.6317 C   0  0  0  0  0  0  0  0  0  0  0  0
    9.5071   18.4381   63.5698 C   0  0  0  0  0  0  0  0  0  0  0  0
   10.3217   18.2015   64.6153 N   0  0  0  0  0  0  0  0  0  0  0  0
    8.9966   19.5322   63.2852 O   0  0  0  0  0  0  0  0  0  0  0  0
   10.7127   17.3022   64.7034 H   0  0  0  0  0  0  0  0  0  0  0  0
    9.1608   17.2581   62.6903 C   0  0  0  0  0  0  0  0  0  0  0  0
    5.0651   15.9502   63.2499 C   0  0  0  0  0  0  0  0  0  0  0  0
    6.6619   17.5114   62.1533 C   0  0  0  0  0  0  0  0  0  0  0  0
    7.7488   16.8678   62.9306 N   0  0  0  0  0  0  0  0  0  0  0  0
    7.4986   15.9702   63.8785 C   0  0  0  0  0  0  0  0  0  0  0  0
    6.1856   15.5751   64.0889 N   0  0  0  0  0  0  0  0  0  0  0  0
    8.4027   15.4555   64.5885 O   0  0  0  0  0  0  0  0  0  0  0  0
    5.5388   16.5333   61.9215 C   0  0  0  0  0  0  0  0  0  0  0  0
    6.0016   14.9978   64.8648 H   0  0  0  0  0  0  0  0  0  0  0  0
    9.4340   17.5240   61.2170 C   0  0  0  0  0  0  0  0  0  0  0  0
   10.8524   18.0974   61.0829 C   0  0  0  0  0  0  0  0  0  0  0  0
    9.3381   16.2242   60.4131 C   0  0  0  0  0  0  0  0  0  0  0  0
   10.0460   18.8333   66.9912 C   0  0  0  0  0  0  0  0  0  0  0  0
    6.4975   17.9225   67.3512 C   0  0  0  0  0  0  0  0  0  0  0  0
    5.8596   19.1303   67.1082 C   0  0  0  0  0  0  0  0  0  0  0  0
    6.6195   20.2569   66.8259 C   0  0  0  0  0  0  0  0  0  0  0  0
    8.0158   20.1362   66.7781 C   0  0  0  0  0  0  0  0  0  0  0  0
    8.6716   18.9529   67.0611 C   0  0  0  0  0  0  0  0  0  0  0  0
    7.8835   17.8240   67.3108 C   0  0  0  0  0  0  0  0  0  0  0  0
 33 37  1  0  0  0
 33 39  1  0  0  0
 34 35  1  0  0  0
 34 39  1  0  0  0
 35 36  1  0  0  0
 35 32  1  0  0  0
 36 37  1  0  0  0
 36 38  2  0  0  0
 21 22  2  0  0  0
 21 26  1  0  0  0
 21 20  1  0  0  0
 22 23  1  0  0  0
 23 24  2  0  0  0
 24 25  1  0  0  0
 25 26  2  0  0  0
 32 28  1  0  0  0
 32 41  1  0  0  0
 28 29  1  0  0  0
 28 30  2  0  0  0
 29 27  1  0  0  0
 27 44  1  0  0  0
 27  1  1  0  0  0
 41 42  1  0  0  0
 41 43  1  0  0  0
 45 46  2  0  0  0
 45 50  1  0  0  0
 46 47  1  0  0  0
 47 48  2  0  0  0
 48 49  1  0  0  0
 49 50  2  0  0  0
 49 44  1  0  0  0
  1  2  1  0  0  0
  2  5  1  0  0  0
  2  3  1  0  0  0
  5  6  1  0  0  0
  5 20  1  0  0  0
  6  7  1  0  0  0
  7 10  1  0  0  0
  7  8  2  0  0  0
 10 11  1  0  0  0
 11 12  1  0  0  0
 12 13  2  0  0  0
 12 17  1  0  0  0
 13 14  1  0  0  0
 13 19  1  0  0  0
 14 15  2  0  0  0
 15 16  1  0  0  0
 16 17  2  0  0  0
 17 18  1  0  0  0
 37 40  1  0  0  0
 29 31  1  0  0  0
  6  9  1  0  0  0
  3  4  1  0  0  0
M  END
> <minimizedAffinity>
-11.48400

$$$$
6DJ1_AB1_B_201


 50 53  0  0  0  0  0  0  0  0999 V2000
   12.9108   22.2263   65.3420 C   0  0  0  0  0  0  0  0  0  0  0  0
   12.7274   20.7848   65.8286 C   0  0  0  0  0  0  0  0  0  0  0  0
   13.8336   19.9533   65.3671 O   0  0  0  0  0  0  0  0  0  0  0  0
   13.8099   19.8917   64.3993 H   0  0  0  0  0  0  0  0  0  0  0  0
   11.4334   20.0774   65.4408 C   0  0  0  0  0  0  0  0  0  0  0  0
   11.6123   19.2210   64.2505 N   0  0  0  0  0  0  0  0  0  0  0  0
   11.4739   19.6914   62.9977 C   0  0  0  0  0  0  0  0  0  0  0  0
   11.3390   20.8812   62.7322 O   0  0  0  0  0  0  0  0  0  0  0  0
   11.8411   18.2720   64.3785 H   0  0  0  0  0  0  0  0  0  0  0  0
   11.4733   18.6333   61.8928 C   0  0  0  0  0  0  0  0  0  0  0  0
   10.2197   18.5951   61.1784 O   0  0  0  0  0  0  0  0  0  0  0  0
    9.4732   17.5720   61.6196 C   0  0  0  0  0  0  0  0  0  0  0  0
    8.4823   17.7749   62.5694 C   0  0  0  0  0  0  0  0  0  0  0  0
    7.7535   16.6647   62.9770 C   0  0  0  0  0  0  0  0  0  0  0  0
    8.0256   15.3745   62.4973 C   0  0  0  0  0  0  0  0  0  0  0  0
    9.0180   15.2078   61.5231 C   0  0  0  0  0  0  0  0  0  0  0  0
    9.6876   16.3432   61.0345 C   0  0  0  0  0  0  0  0  0  0  0  0
   10.7372   16.2194   60.1086 C   0  0  0  0  0  0  0  0  0  0  0  0
    8.2026   19.0246   63.1632 C   0  0  0  0  0  0  0  0  0  0  0  0
   10.8813   19.1910   66.5652 C   0  0  0  0  0  0  0  0  0  0  0  0
    9.4959   19.3154   66.7816 C   0  0  0  0  0  0  0  0  0  0  0  0
    8.8522   20.5278   66.7678 C   0  0  0  0  0  0  0  0  0  0  0  0
    7.4692   20.6648   66.9149 C   0  0  0  0  0  0  0  0  0  0  0  0
    6.6659   19.5346   67.0995 C   0  0  0  0  0  0  0  0  0  0  0  0
    7.3003   18.3057   67.1167 C   0  0  0  0  0  0  0  0  0  0  0  0
    8.6727   18.1872   66.8813 C   0  0  0  0  0  0  0  0  0  0  0  0
   14.3463   22.6364   65.0133 C   0  0  0  0  0  0  0  0  0  0  0  0
   15.8320   22.1288   63.0881 C   0  0  0  0  0  0  0  0  0  0  0  0
   14.6010   22.2654   63.6161 N   0  0  0  0  0  0  0  0  0  0  0  0
   16.9000   22.2259   63.7114 O   0  0  0  0  0  0  0  0  0  0  0  0
   13.8258   22.1071   63.0303 H   0  0  0  0  0  0  0  0  0  0  0  0
   15.9145   21.8690   61.6009 C   0  0  0  0  0  0  0  0  0  0  0  0
   18.4423   24.7646   59.5950 C   0  0  0  0  0  0  0  0  0  0  0  0
   18.1759   23.0695   61.3964 C   0  0  0  0  0  0  0  0  0  0  0  0
   16.7645   22.9097   60.9698 N   0  0  0  0  0  0  0  0  0  0  0  0
   16.2115   23.7035   60.0582 C   0  0  0  0  0  0  0  0  0  0  0  0
   17.0054   24.6579   59.4395 N   0  0  0  0  0  0  0  0  0  0  0  0
   14.9996   23.6211   59.7248 O   0  0  0  0  0  0  0  0  0  0  0  0
   19.0255   23.5056   60.2303 C   0  0  0  0  0  0  0  0  0  0  0  0
   16.5602   25.3105   58.8519 H   0  0  0  0  0  0  0  0  0  0  0  0
   16.4016   20.4641   61.2768 C   0  0  0  0  0  0  0  0  0  0  0  0
   15.4840   19.4573   61.9859 C   0  0  0  0  0  0  0  0  0  0  0  0
   16.3495   20.2161   59.7665 C   0  0  0  0  0  0  0  0  0  0  0  0
   14.5079   24.1527   65.2129 C   0  0  0  0  0  0  0  0  0  0  0  0
   17.7184   25.4137   66.4986 C   0  0  0  0  0  0  0  0  0  0  0  0
   17.5950   25.1906   67.8623 C   0  0  0  0  0  0  0  0  0  0  0  0
   16.4307   24.6190   68.3562 C   0  0  0  0  0  0  0  0  0  0  0  0
   15.4155   24.2667   67.4552 C   0  0  0  0  0  0  0  0  0  0  0  0
   15.5010   24.5215   66.0994 C   0  0  0  0  0  0  0  0  0  0  0  0
   16.6969   25.0683   65.6213 C   0  0  0  0  0  0  0  0  0  0  0  0
 33 37  1  0  0  0
 33 39  1  0  0  0
 34 35  1  0  0  0
 34 39  1  0  0  0
 35 36  1  0  0  0
 35 32  1  0  0  0
 36 37  1  0  0  0
 36 38  2  0  0  0
 21 22  2  0  0  0
 21 26  1  0  0  0
 21 20  1  0  0  0
 22 23  1  0  0  0
 23 24  2  0  0  0
 24 25  1  0  0  0
 25 26  2  0  0  0
 32 28  1  0  0  0
 32 41  1  0  0  0
 28 29  1  0  0  0
 28 30  2  0  0  0
 29 27  1  0  0  0
 27 44  1  0  0  0
 27  1  1  0  0  0
 41 42  1  0  0  0
 41 43  1  0  0  0
 45 46  2  0  0  0
 45 50  1  0  0  0
 46 47  1  0  0  0
 47 48  2  0  0  0
 48 49  1  0  0  0
 49 50  2  0  0  0
 49 44  1  0  0  0
  1  2  1  0  0  0
  2  5  1  0  0  0
  2  3  1  0  0  0
  5  6  1  0  0  0
  5 20  1  0  0  0
  6  7  1  0  0  0
  7 10  1  0  0  0
  7  8  2  0  0  0
 10 11  1  0  0  0
 11 12  1  0  0  0
 12 13  2  0  0  0
 12 17  1  0  0  0
 13 14  1  0  0  0
 13 19  1  0  0  0
 14 15  2  0  0  0
 15 16  1  0  0  0
 16 17  2  0  0  0
 17 18  1  0  0  0
 37 40  1  0  0  0
 29 31  1  0  0  0
  6  9  1  0  0  0
  3  4  1  0  0  0
M  END
> <minimizedAffinity>
-10.31915

$$$$
6DJ1_AB1_B_201


 50 53  0  0  0  0  0  0  0  0999 V2000
   12.5373   19.6666   61.4690 C   0  0  0  0  0  0  0  0  0  0  0  0
   13.9920   19.5416   61.9344 C   0  0  0  0  0  0  0  0  0  0  0  0
   14.0392   19.1579   63.3411 O   0  0  0  0  0  0  0  0  0  0  0  0
   13.6672   19.8710   63.8834 H   0  0  0  0  0  0  0  0  0  0  0  0
   14.8854   20.7660   61.7663 C   0  0  0  0  0  0  0  0  0  0  0  0
   15.1417   21.4389   63.0562 N   0  0  0  0  0  0  0  0  0  0  0  0
   14.2115   22.1888   63.6743 C   0  0  0  0  0  0  0  0  0  0  0  0
   13.0431   22.2569   63.3072 O   0  0  0  0  0  0  0  0  0  0  0  0
   16.0248   21.3348   63.4786 H   0  0  0  0  0  0  0  0  0  0  0  0
   14.7057   22.9903   64.8800 C   0  0  0  0  0  0  0  0  0  0  0  0
   15.9740   22.5065   65.3705 O   0  0  0  0  0  0  0  0  0  0  0  0
   16.6589   23.5116   65.9356 C   0  0  0  0  0  0  0  0  0  0  0  0
   16.3104   23.9899   67.1907 C   0  0  0  0  0  0  0  0  0  0  0  0
   17.0670   25.0341   67.7072 C   0  0  0  0  0  0  0  0  0  0  0  0
   18.1131   25.6281   66.9848 C   0  0  0  0  0  0  0  0  0  0  0  0
   18.4529   25.1070   65.7299 C   0  0  0  0  0  0  0  0  0  0  0  0
   17.7552   23.9854   65.2487 C   0  0  0  0  0  0  0  0  0  0  0  0
   18.0131   23.4701   63.9672 C   0  0  0  0  0  0  0  0  0  0  0  0
   15.2208   23.5043   67.9454 C   0  0  0  0  0  0  0  0  0  0  0  0
   16.2478   20.4263   61.1470 C   0  0  0  0  0  0  0  0  0  0  0  0
   16.9842   21.5417   60.7053 C   0  0  0  0  0  0  0  0  0  0  0  0
   16.3912   22.6356   60.1254 C   0  0  0  0  0  0  0  0  0  0  0  0
   17.0974   23.7786   59.7410 C   0  0  0  0  0  0  0  0  0  0  0  0
   18.4819   23.8466   59.9290 C   0  0  0  0  0  0  0  0  0  0  0  0
   19.0939   22.7515   60.5113 C   0  0  0  0  0  0  0  0  0  0  0  0
   18.3551   21.6559   60.9660 C   0  0  0  0  0  0  0  0  0  0  0  0
   11.5731   18.6170   62.0215 C   0  0  0  0  0  0  0  0  0  0  0  0
   10.7893   19.1570   64.3163 C   0  0  0  0  0  0  0  0  0  0  0  0
   10.6900   19.2920   62.9804 N   0  0  0  0  0  0  0  0  0  0  0  0
   11.6654   18.5136   64.9140 O   0  0  0  0  0  0  0  0  0  0  0  0
    9.9831   19.8782   62.6255 H   0  0  0  0  0  0  0  0  0  0  0  0
    9.7188   19.8199   65.1533 C   0  0  0  0  0  0  0  0  0  0  0  0
    6.6836   17.0078   66.4483 C   0  0  0  0  0  0  0  0  0  0  0  0
    8.9068   18.0556   66.8340 C   0  0  0  0  0  0  0  0  0  0  0  0
    8.7207   18.8013   65.5655 N   0  0  0  0  0  0  0  0  0  0  0  0
    7.6990   18.5583   64.7507 C   0  0  0  0  0  0  0  0  0  0  0  0
    6.7438   17.6315   65.1416 N   0  0  0  0  0  0  0  0  0  0  0  0
    7.5551   19.1394   63.6426 O   0  0  0  0  0  0  0  0  0  0  0  0
    7.5692   17.7398   67.4527 C   0  0  0  0  0  0  0  0  0  0  0  0
    6.0567   17.3790   64.4833 H   0  0  0  0  0  0  0  0  0  0  0  0
   10.2892   20.5722   66.3469 C   0  0  0  0  0  0  0  0  0  0  0  0
   11.4330   21.4699   65.8524 C   0  0  0  0  0  0  0  0  0  0  0  0
    9.2091   21.4435   66.9945 C   0  0  0  0  0  0  0  0  0  0  0  0
   10.7598   18.0059   60.8682 C   0  0  0  0  0  0  0  0  0  0  0  0
    8.4376   15.6653   62.5051 C   0  0  0  0  0  0  0  0  0  0  0  0
    7.2158   16.0405   61.9656 C   0  0  0  0  0  0  0  0  0  0  0  0
    7.1665   17.0844   61.0522 C   0  0  0  0  0  0  0  0  0  0  0  0
    8.3617   17.7207   60.6874 C   0  0  0  0  0  0  0  0  0  0  0  0
    9.5821   17.3914   61.2468 C   0  0  0  0  0  0  0  0  0  0  0  0
    9.6112   16.3149   62.1403 C   0  0  0  0  0  0  0  0  0  0  0  0
 33 37  1  0  0  0
 33 39  1  0  0  0
 34 35  1  0  0  0
 34 39  1  0  0  0
 35 36  1  0  0  0
 35 32  1  0  0  0
 36 37  1  0  0  0
 36 38  2  0  0  0
 21 22  2  0  0  0
 21 26  1  0  0  0
 21 20  1  0  0  0
 22 23  1  0  0  0
 23 24  2  0  0  0
 24 25  1  0  0  0
 25 26  2  0  0  0
 32 28  1  0  0  0
 32 41  1  0  0  0
 28 29  1  0  0  0
 28 30  2  0  0  0
 29 27  1  0  0  0
 27 44  1  0  0  0
 27  1  1  0  0  0
 41 42  1  0  0  0
 41 43  1  0  0  0
 45 46  2  0  0  0
 45 50  1  0  0  0
 46 47  1  0  0  0
 47 48  2  0  0  0
 48 49  1  0  0  0
 49 50  2  0  0  0
 49 44  1  0  0  0
  1  2  1  0  0  0
  2  5  1  0  0  0
  2  3  1  0  0  0
  5  6  1  0  0  0
  5 20  1  0  0  0
  6  7  1  0  0  0
  7 10  1  0  0  0
  7  8  2  0  0  0
 10 11  1  0  0  0
 11 12  1  0  0  0
 12 13  2  0  0  0
 12 17  1  0  0  0
 13 14  1  0  0  0
 13 19  1  0  0  0
 14 15  2  0  0  0
 15 16  1  0  0  0
 16 17  2  0  0  0
 17 18  1  0  0  0
 37 40  1  0  0  0
 29 31  1  0  0  0
  6  9  1  0  0  0
  3  4  1  0  0  0
M  END
> <minimizedAffinity>
-10.26681

$$$$
6DJ1_AB1_B_201


 50 53  0  0  0  0  0  0  0  0999 V2000
   12.5581   19.8369   65.4117 C   0  0  0  0  0  0  0  0  0  0  0  0
   13.1937   20.3126   64.1010 C   0  0  0  0  0  0  0  0  0  0  0  0
   13.8079   19.1887   63.4026 O   0  0  0  0  0  0  0  0  0  0  0  0
   14.5496   18.8485   63.9270 H   0  0  0  0  0  0  0  0  0  0  0  0
   14.2405   21.4175   64.1945 C   0  0  0  0  0  0  0  0  0  0  0  0
   14.4897   22.0490   62.8825 N   0  0  0  0  0  0  0  0  0  0  0  0
   15.4626   21.6282   62.0542 C   0  0  0  0  0  0  0  0  0  0  0  0
   16.1178   20.6084   62.2420 O   0  0  0  0  0  0  0  0  0  0  0  0
   13.9236   22.8049   62.6044 H   0  0  0  0  0  0  0  0  0  0  0  0
   15.7301   22.5237   60.8430 C   0  0  0  0  0  0  0  0  0  0  0  0
   17.1322   22.5744   60.5044 O   0  0  0  0  0  0  0  0  0  0  0  0
   17.6434   23.7647   60.8515 C   0  0  0  0  0  0  0  0  0  0  0  0
   18.4458   23.8912   61.9764 C   0  0  0  0  0  0  0  0  0  0  0  0
   18.9355   25.1575   62.2706 C   0  0  0  0  0  0  0  0  0  0  0  0
   18.6038   26.2843   61.5031 C   0  0  0  0  0  0  0  0  0  0  0  0
   17.8093   26.1181   60.3616 C   0  0  0  0  0  0  0  0  0  0  0  0
   17.3962   24.8228   60.0044 C   0  0  0  0  0  0  0  0  0  0  0  0
   16.5420   24.6142   58.9084 C   0  0  0  0  0  0  0  0  0  0  0  0
   18.7575   22.8248   62.8472 C   0  0  0  0  0  0  0  0  0  0  0  0
   13.8421   22.5315   65.1719 C   0  0  0  0  0  0  0  0  0  0  0  0
   14.9118   23.0724   65.9100 C   0  0  0  0  0  0  0  0  0  0  0  0
   16.1023   23.4329   65.3291 C   0  0  0  0  0  0  0  0  0  0  0  0
   17.1503   24.0316   66.0334 C   0  0  0  0  0  0  0  0  0  0  0  0
   17.0242   24.2827   67.4037 C   0  0  0  0  0  0  0  0  0  0  0  0
   15.8307   23.9240   68.0035 C   0  0  0  0  0  0  0  0  0  0  0  0
   14.7654   23.4062   67.2619 C   0  0  0  0  0  0  0  0  0  0  0  0
   11.0369   19.6868   65.3935 C   0  0  0  0  0  0  0  0  0  0  0  0
    9.8072   18.6170   63.5187 C   0  0  0  0  0  0  0  0  0  0  0  0
   10.7165   18.5592   64.5100 N   0  0  0  0  0  0  0  0  0  0  0  0
    9.1773   19.6287   63.1745 O   0  0  0  0  0  0  0  0  0  0  0  0
   11.1948   17.7103   64.6506 H   0  0  0  0  0  0  0  0  0  0  0  0
    9.5069   17.3276   62.7885 C   0  0  0  0  0  0  0  0  0  0  0  0
    5.3670   16.1216   63.2403 C   0  0  0  0  0  0  0  0  0  0  0  0
    7.0276   17.6579   62.2050 C   0  0  0  0  0  0  0  0  0  0  0  0
    8.0803   16.9716   62.9926 N   0  0  0  0  0  0  0  0  0  0  0  0
    7.7864   16.0646   63.9188 C   0  0  0  0  0  0  0  0  0  0  0  0
    6.4592   15.7016   64.0951 N   0  0  0  0  0  0  0  0  0  0  0  0
    8.6614   15.5133   64.6378 O   0  0  0  0  0  0  0  0  0  0  0  0
    5.8838   16.7148   61.9326 C   0  0  0  0  0  0  0  0  0  0  0  0
    6.2436   15.1160   64.8566 H   0  0  0  0  0  0  0  0  0  0  0  0
    9.8712   17.3907   61.3122 C   0  0  0  0  0  0  0  0  0  0  0  0
   11.3126   17.9064   61.1903 C   0  0  0  0  0  0  0  0  0  0  0  0
    9.7788   15.9992   60.6795 C   0  0  0  0  0  0  0  0  0  0  0  0
   10.5276   19.4230   66.8205 C   0  0  0  0  0  0  0  0  0  0  0  0
    6.8906   19.9869   66.8880 C   0  0  0  0  0  0  0  0  0  0  0  0
    6.4058   18.7290   67.2154 C   0  0  0  0  0  0  0  0  0  0  0  0
    7.2989   17.6848   67.4112 C   0  0  0  0  0  0  0  0  0  0  0  0
    8.6727   17.9380   67.2880 C   0  0  0  0  0  0  0  0  0  0  0  0
    9.1728   19.1726   66.9190 C   0  0  0  0  0  0  0  0  0  0  0  0
    8.2554   20.2170   66.7590 C   0  0  0  0  0  0  0  0  0  0  0  0
 33 37  1  0  0  0
 33 39  1  0  0  0
 34 35  1  0  0  0
 34 39  1  0  0  0
 35 36  1  0  0  0
 35 32  1  0  0  0
 36 37  1  0  0  0
 36 38  2  0  0  0
 21 22  2  0  0  0
 21 26  1  0  0  0
 21 20  1  0  0  0
 22 23  1  0  0  0
 23 24  2  0  0  0
 24 25  1  0  0  0
 25 26  2  0  0  0
 32 28  1  0  0  0
 32 41  1  0  0  0
 28 29  1  0  0  0
 28 30  2  0  0  0
 29 27  1  0  0  0
 27 44  1  0  0  0
 27  1  1  0  0  0
 41 42  1  0  0  0
 41 43  1  0  0  0
 45 46  2  0  0  0
 45 50  1  0  0  0
 46 47  1  0  0  0
 47 48  2  0  0  0
 48 49  1  0  0  0
 49 50  2  0  0  0
 49 44  1  0  0  0
  1  2  1  0  0  0
  2  5  1  0  0  0
  2  3  1  0  0  0
  5  6  1  0  0  0
  5 20  1  0  0  0
  6  7  1  0  0  0
  7 10  1  0  0  0
  7  8  2  0  0  0
 10 11  1  0  0  0
 11 12  1  0  0  0
 12 13  2  0  0  0
 12 17  1  0  0  0
 13 14  1  0  0  0
 13 19  1  0  0  0
 14 15  2  0  0  0
 15 16  1  0  0  0
 16 17  2  0  0  0
 17 18  1  0  0  0
 37 40  1  0  0  0
 29 31  1  0  0  0
  6  9  1  0  0  0
  3  4  1  0  0  0
M  END
> <minimizedAffinity>
-10.21747

$$$$
6DJ1_AB1_B_201


 50 53  0  0  0  0  0  0  0  0999 V2000
   12.7366   21.9594   64.8939 C   0  0  0  0  0  0  0  0  0  0  0  0
   12.4832   20.6423   65.6351 C   0  0  0  0  0  0  0  0  0  0  0  0
   13.5301   19.6770   65.3184 O   0  0  0  0  0  0  0  0  0  0  0  0
   13.4814   19.4440   64.3780 H   0  0  0  0  0  0  0  0  0  0  0  0
   11.1430   19.9550   65.3968 C   0  0  0  0  0  0  0  0  0  0  0  0
   11.1771   19.0863   64.2024 N   0  0  0  0  0  0  0  0  0  0  0  0
   10.9186   19.5508   62.9667 C   0  0  0  0  0  0  0  0  0  0  0  0
   10.7830   20.7415   62.7055 O   0  0  0  0  0  0  0  0  0  0  0  0
   11.3969   18.1332   64.3148 H   0  0  0  0  0  0  0  0  0  0  0  0
   10.7787   18.4852   61.8779 C   0  0  0  0  0  0  0  0  0  0  0  0
    9.4270   18.3913   61.3807 O   0  0  0  0  0  0  0  0  0  0  0  0
    8.7914   17.3708   61.9748 C   0  0  0  0  0  0  0  0  0  0  0  0
    9.0183   16.0626   61.5715 C   0  0  0  0  0  0  0  0  0  0  0  0
    8.3201   15.0613   62.2345 C   0  0  0  0  0  0  0  0  0  0  0  0
    7.3825   15.3434   63.2396 C   0  0  0  0  0  0  0  0  0  0  0  0
    7.1934   16.6729   63.6376 C   0  0  0  0  0  0  0  0  0  0  0  0
    7.9723   17.6784   63.0390 C   0  0  0  0  0  0  0  0  0  0  0  0
    7.7701   19.0324   63.3554 C   0  0  0  0  0  0  0  0  0  0  0  0
    9.8806   15.7014   60.5139 C   0  0  0  0  0  0  0  0  0  0  0  0
   10.7015   19.0873   66.5830 C   0  0  0  0  0  0  0  0  0  0  0  0
    9.3162   19.0987   66.8327 C   0  0  0  0  0  0  0  0  0  0  0  0
    8.5555   20.2364   66.7247 C   0  0  0  0  0  0  0  0  0  0  0  0
    7.1698   20.2537   66.9042 C   0  0  0  0  0  0  0  0  0  0  0  0
    6.4867   19.0752   67.2226 C   0  0  0  0  0  0  0  0  0  0  0  0
    7.2398   17.9206   67.3358 C   0  0  0  0  0  0  0  0  0  0  0  0
    8.6111   17.9119   67.0671 C   0  0  0  0  0  0  0  0  0  0  0  0
   14.1396   22.5464   65.0481 C   0  0  0  0  0  0  0  0  0  0  0  0
   15.2184   21.7610   62.9526 C   0  0  0  0  0  0  0  0  0  0  0  0
   14.6841   22.7456   63.6995 N   0  0  0  0  0  0  0  0  0  0  0  0
   15.2610   20.5609   63.2632 O   0  0  0  0  0  0  0  0  0  0  0  0
   14.6569   23.6530   63.3185 H   0  0  0  0  0  0  0  0  0  0  0  0
   15.8500   22.1634   61.6391 C   0  0  0  0  0  0  0  0  0  0  0  0
   20.1029   21.3231   61.5753 C   0  0  0  0  0  0  0  0  0  0  0  0
   17.8196   20.7714   60.7560 C   0  0  0  0  0  0  0  0  0  0  0  0
   17.2935   21.8183   61.6654 N   0  0  0  0  0  0  0  0  0  0  0  0
   18.0713   22.4398   62.5462 C   0  0  0  0  0  0  0  0  0  0  0  0
   19.4273   22.1477   62.5570 N   0  0  0  0  0  0  0  0  0  0  0  0
   17.6324   23.2895   63.3659 O   0  0  0  0  0  0  0  0  0  0  0  0
   19.2307   21.1026   60.3427 C   0  0  0  0  0  0  0  0  0  0  0  0
   19.9703   22.5284   63.2846 H   0  0  0  0  0  0  0  0  0  0  0  0
   15.1421   21.5553   60.4370 C   0  0  0  0  0  0  0  0  0  0  0  0
   13.7379   21.1129   60.8740 C   0  0  0  0  0  0  0  0  0  0  0  0
   15.0179   22.5871   59.3123 C   0  0  0  0  0  0  0  0  0  0  0  0
   14.0594   23.8819   65.8063 C   0  0  0  0  0  0  0  0  0  0  0  0
   16.4567   24.4775   68.5356 C   0  0  0  0  0  0  0  0  0  0  0  0
   17.5153   25.0773   67.8691 C   0  0  0  0  0  0  0  0  0  0  0  0
   17.4297   25.2807   66.4988 C   0  0  0  0  0  0  0  0  0  0  0  0
   16.2626   24.8871   65.8284 C   0  0  0  0  0  0  0  0  0  0  0  0
   15.2163   24.2479   66.4665 C   0  0  0  0  0  0  0  0  0  0  0  0
   15.3118   24.0833   67.8528 C   0  0  0  0  0  0  0  0  0  0  0  0
 33 37  1  0  0  0
 33 39  1  0  0  0
 34 35  1  0  0  0
 34 39  1  0  0  0
 35 36  1  0  0  0
 35 32  1  0  0  0
 36 37  1  0  0  0
 36 38  2  0  0  0
 21 22  2  0  0  0
 21 26  1  0  0  0
 21 20  1  0  0  0
 22 23  1  0  0  0
 23 24  2  0  0  0
 24 25  1  0  0  0
 25 26  2  0  0  0
 32 28  1  0  0  0
 32 41  1  0  0  0
 28 29  1  0  0  0
 28 30  2  0  0  0
 29 27  1  0  0  0
 27 44  1  0  0  0
 27  1  1  0  0  0
 41 42  1  0  0  0
 41 43  1  0  0  0
 45 46  2  0  0  0
 45 50  1  0  0  0
 46 47  1  0  0  0
 47 48  2  0  0  0
 48 49  1  0  0  0
 49 50  2  0  0  0
 49 44  1  0  0  0
  1  2  1  0  0  0
  2  5  1  0  0  0
  2  3  1  0  0  0
  5  6  1  0  0  0
  5 20  1  0  0  0
  6  7  1  0  0  0
  7 10  1  0  0  0
  7  8  2  0  0  0
 10 11  1  0  0  0
 11 12  1  0  0  0
 12 13  2  0  0  0
 12 17  1  0  0  0
 13 14  1  0  0  0
 13 19  1  0  0  0
 14 15  2  0  0  0
 15 16  1  0  0  0
 16 17  2  0  0  0
 17 18  1  0  0  0
 37 40  1  0  0  0
 29 31  1  0  0  0
  6  9  1  0  0  0
  3  4  1  0  0  0
M  END
> <minimizedAffinity>
-9.85201

$$$$
6DJ1_AB1_B_201


 50 53  0  0  0  0  0  0  0  0999 V2000
   10.2321   19.1968   65.1445 C   0  0  0  0  0  0  0  0  0  0  0  0
   11.7567   19.0430   65.1266 C   0  0  0  0  0  0  0  0  0  0  0  0
   12.3083   19.3432   66.4434 O   0  0  0  0  0  0  0  0  0  0  0  0
   12.1573   20.2785   66.6516 H   0  0  0  0  0  0  0  0  0  0  0  0
   12.5294   19.8751   64.1088 C   0  0  0  0  0  0  0  0  0  0  0  0
   13.3606   20.9070   64.7621 N   0  0  0  0  0  0  0  0  0  0  0  0
   13.0028   22.2033   64.7977 C   0  0  0  0  0  0  0  0  0  0  0  0
   11.9062   22.6134   64.4323 O   0  0  0  0  0  0  0  0  0  0  0  0
   14.2067   20.6363   65.1865 H   0  0  0  0  0  0  0  0  0  0  0  0
   14.0722   23.1682   65.3133 C   0  0  0  0  0  0  0  0  0  0  0  0
   15.3010   22.4886   65.6472 O   0  0  0  0  0  0  0  0  0  0  0  0
   16.2559   23.3856   65.9342 C   0  0  0  0  0  0  0  0  0  0  0  0
   16.2903   24.0137   67.1710 C   0  0  0  0  0  0  0  0  0  0  0  0
   17.3092   24.9319   67.3911 C   0  0  0  0  0  0  0  0  0  0  0  0
   18.2456   25.2616   66.3994 C   0  0  0  0  0  0  0  0  0  0  0  0
   18.1957   24.5932   65.1696 C   0  0  0  0  0  0  0  0  0  0  0  0
   17.2284   23.5909   64.9801 C   0  0  0  0  0  0  0  0  0  0  0  0
   17.0948   22.9416   63.7412 C   0  0  0  0  0  0  0  0  0  0  0  0
   15.3378   23.8008   68.1908 C   0  0  0  0  0  0  0  0  0  0  0  0
   13.4580   19.0262   63.2302 C   0  0  0  0  0  0  0  0  0  0  0  0
   14.0309   19.7173   62.1459 C   0  0  0  0  0  0  0  0  0  0  0  0
   13.2956   20.5221   61.3115 C   0  0  0  0  0  0  0  0  0  0  0  0
   13.8574   21.2671   60.2712 C   0  0  0  0  0  0  0  0  0  0  0  0
   15.2336   21.2084   60.0273 C   0  0  0  0  0  0  0  0  0  0  0  0
   15.9878   20.4008   60.8592 C   0  0  0  0  0  0  0  0  0  0  0  0
   15.4166   19.7333   61.9459 C   0  0  0  0  0  0  0  0  0  0  0  0
    9.4631   18.2800   64.1932 C   0  0  0  0  0  0  0  0  0  0  0  0
    7.2087   17.4494   64.8252 C   0  0  0  0  0  0  0  0  0  0  0  0
    8.0329   18.4545   64.4740 N   0  0  0  0  0  0  0  0  0  0  0  0
    7.5484   16.2733   65.0251 O   0  0  0  0  0  0  0  0  0  0  0  0
    7.6539   19.3601   64.4012 H   0  0  0  0  0  0  0  0  0  0  0  0
    5.7390   17.7811   64.9515 C   0  0  0  0  0  0  0  0  0  0  0  0
    3.3056   15.3223   62.3381 C   0  0  0  0  0  0  0  0  0  0  0  0
    4.0241   15.8930   64.6505 C   0  0  0  0  0  0  0  0  0  0  0  0
    4.9579   16.8843   64.0632 N   0  0  0  0  0  0  0  0  0  0  0  0
    5.1554   16.9728   62.7517 C   0  0  0  0  0  0  0  0  0  0  0  0
    4.4072   16.1617   61.9113 N   0  0  0  0  0  0  0  0  0  0  0  0
    5.9862   17.7677   62.2376 O   0  0  0  0  0  0  0  0  0  0  0  0
    2.8378   15.6941   63.7423 C   0  0  0  0  0  0  0  0  0  0  0  0
    4.6416   16.1558   60.9551 H   0  0  0  0  0  0  0  0  0  0  0  0
    5.2466   17.7254   66.3904 C   0  0  0  0  0  0  0  0  0  0  0  0
    6.4224   18.0634   67.3186 C   0  0  0  0  0  0  0  0  0  0  0  0
    4.1230   18.7425   66.6100 C   0  0  0  0  0  0  0  0  0  0  0  0
    9.7835   18.6613   62.7382 C   0  0  0  0  0  0  0  0  0  0  0  0
   11.0368   16.6281   59.9371 C   0  0  0  0  0  0  0  0  0  0  0  0
   10.2672   15.4787   60.0429 C   0  0  0  0  0  0  0  0  0  0  0  0
    9.3262   15.3803   61.0584 C   0  0  0  0  0  0  0  0  0  0  0  0
    9.1692   16.4584   61.9414 C   0  0  0  0  0  0  0  0  0  0  0  0
    9.9566   17.5927   61.8801 C   0  0  0  0  0  0  0  0  0  0  0  0
   10.8753   17.6824   60.8285 C   0  0  0  0  0  0  0  0  0  0  0  0
 33 37  1  0  0  0
 33 39  1  0  0  0
 34 35  1  0  0  0
 34 39  1  0  0  0
 35 36  1  0  0  0
 35 32  1  0  0  0
 36 37  1  0  0  0
 36 38  2  0  0  0
 21 22  2  0  0  0
 21 26  1  0  0  0
 21 20  1  0  0  0
 22 23  1  0  0  0
 23 24  2  0  0  0
 24 25  1  0  0  0
 25 26  2  0  0  0
 32 28  1  0  0  0
 32 41  1  0  0  0
 28 29  1  0  0  0
 28 30  2  0  0  0
 29 27  1  0  0  0
 27 44  1  0  0  0
 27  1  1  0  0  0
 41 42  1  0  0  0
 41 43  1  0  0  0
 45 46  2  0  0  0
 45 50  1  0  0  0
 46 47  1  0  0  0
 47 48  2  0  0  0
 48 49  1  0  0  0
 49 50  2  0  0  0
 49 44  1  0  0  0
  1  2  1  0  0  0
  2  5  1  0  0  0
  2  3  1  0  0  0
  5  6  1  0  0  0
  5 20  1  0  0  0
  6  7  1  0  0  0
  7 10  1  0  0  0
  7  8  2  0  0  0
 10 11  1  0  0  0
 11 12  1  0  0  0
 12 13  2  0  0  0
 12 17  1  0  0  0
 13 14  1  0  0  0
 13 19  1  0  0  0
 14 15  2  0  0  0
 15 16  1  0  0  0
 16 17  2  0  0  0
 17 18  1  0  0  0
 37 40  1  0  0  0
 29 31  1  0  0  0
  6  9  1  0  0  0
  3  4  1  0  0  0
M  END
> <minimizedAffinity>
-9.53275

$$$$
6DJ1_AB1_B_201


 50 53  0  0  0  0  0  0  0  0999 V2000
   14.4515   20.7734   64.8301 C   0  0  0  0  0  0  0  0  0  0  0  0
   13.2967   21.1170   65.7771 C   0  0  0  0  0  0  0  0  0  0  0  0
   13.6364   20.7365   67.1438 O   0  0  0  0  0  0  0  0  0  0  0  0
   13.7219   19.7718   67.1991 H   0  0  0  0  0  0  0  0  0  0  0  0
   11.9329   20.5120   65.4617 C   0  0  0  0  0  0  0  0  0  0  0  0
   11.9940   19.5961   64.3042 N   0  0  0  0  0  0  0  0  0  0  0  0
   11.6339   19.9767   63.0652 C   0  0  0  0  0  0  0  0  0  0  0  0
   11.3723   21.1361   62.7621 O   0  0  0  0  0  0  0  0  0  0  0  0
   12.3094   18.6741   64.4446 H   0  0  0  0  0  0  0  0  0  0  0  0
   11.5458   18.8535   62.0302 C   0  0  0  0  0  0  0  0  0  0  0  0
   10.2650   18.8271   61.3655 O   0  0  0  0  0  0  0  0  0  0  0  0
    9.5988   17.7126   61.7011 C   0  0  0  0  0  0  0  0  0  0  0  0
    9.8959   16.4994   61.0966 C   0  0  0  0  0  0  0  0  0  0  0  0
    9.1603   15.3911   61.4968 C   0  0  0  0  0  0  0  0  0  0  0  0
    8.1217   15.4825   62.4359 C   0  0  0  0  0  0  0  0  0  0  0  0
    7.8622   16.7178   63.0429 C   0  0  0  0  0  0  0  0  0  0  0  0
    8.6717   17.8192   62.7146 C   0  0  0  0  0  0  0  0  0  0  0  0
    8.4066   19.0932   63.2447 C   0  0  0  0  0  0  0  0  0  0  0  0
   10.8667   16.3392   60.0844 C   0  0  0  0  0  0  0  0  0  0  0  0
   11.3462   19.7238   66.6404 C   0  0  0  0  0  0  0  0  0  0  0  0
    9.9429   19.7758   66.7384 C   0  0  0  0  0  0  0  0  0  0  0  0
    9.1705   18.6504   66.8848 C   0  0  0  0  0  0  0  0  0  0  0  0
    7.7832   18.6870   67.0496 C   0  0  0  0  0  0  0  0  0  0  0  0
    7.1080   19.9121   67.0597 C   0  0  0  0  0  0  0  0  0  0  0  0
    7.8727   21.0551   66.9122 C   0  0  0  0  0  0  0  0  0  0  0  0
    9.2669   20.9981   66.8357 C   0  0  0  0  0  0  0  0  0  0  0  0
   15.3566   21.9415   64.4389 C   0  0  0  0  0  0  0  0  0  0  0  0
   16.3997   22.4535   62.2431 C   0  0  0  0  0  0  0  0  0  0  0  0
   15.3505   22.0316   62.9738 N   0  0  0  0  0  0  0  0  0  0  0  0
   17.5177   22.7518   62.6901 O   0  0  0  0  0  0  0  0  0  0  0  0
   14.5305   21.7678   62.4971 H   0  0  0  0  0  0  0  0  0  0  0  0
   16.1804   22.6082   60.7552 C   0  0  0  0  0  0  0  0  0  0  0  0
   19.0928   25.5143   59.3875 C   0  0  0  0  0  0  0  0  0  0  0  0
   16.7081   24.9268   59.7845 C   0  0  0  0  0  0  0  0  0  0  0  0
   17.1620   23.5823   60.2156 N   0  0  0  0  0  0  0  0  0  0  0  0
   18.4284   23.1962   60.0963 C   0  0  0  0  0  0  0  0  0  0  0  0
   19.3592   24.1094   59.6232 N   0  0  0  0  0  0  0  0  0  0  0  0
   18.8223   22.0397   60.4026 O   0  0  0  0  0  0  0  0  0  0  0  0
   17.7856   25.9479   60.0450 C   0  0  0  0  0  0  0  0  0  0  0  0
   20.2671   23.7791   59.4337 H   0  0  0  0  0  0  0  0  0  0  0  0
   16.2311   21.2803   60.0135 C   0  0  0  0  0  0  0  0  0  0  0  0
   16.0132   20.1491   61.0291 C   0  0  0  0  0  0  0  0  0  0  0  0
   15.1312   21.2207   58.9496 C   0  0  0  0  0  0  0  0  0  0  0  0
   14.8234   23.2400   65.0671 C   0  0  0  0  0  0  0  0  0  0  0  0
   16.1451   24.4362   68.2878 C   0  0  0  0  0  0  0  0  0  0  0  0
   17.2956   25.1075   67.9004 C   0  0  0  0  0  0  0  0  0  0  0  0
   17.6344   25.1578   66.5554 C   0  0  0  0  0  0  0  0  0  0  0  0
   16.7901   24.5397   65.6218 C   0  0  0  0  0  0  0  0  0  0  0  0
   15.6641   23.8284   65.9918 C   0  0  0  0  0  0  0  0  0  0  0  0
   15.3257   23.8194   67.3494 C   0  0  0  0  0  0  0  0  0  0  0  0
 33 37  1  0  0  0
 33 39  1  0  0  0
 34 35  1  0  0  0
 34 39  1  0  0  0
 35 36  1  0  0  0
 35 32  1  0  0  0
 36 37  1  0  0  0
 36 38  2  0  0  0
 21 22  2  0  0  0
 21 26  1  0  0  0
 21 20  1  0  0  0
 22 23  1  0  0  0
 23 24  2  0  0  0
 24 25  1  0  0  0
 25 26  2  0  0  0
 32 28  1  0  0  0
 32 41  1  0  0  0
 28 29  1  0  0  0
 28 30  2  0  0  0
 29 27  1  0  0  0
 27 44  1  0  0  0
 27  1  1  0  0  0
 41 42  1  0  0  0
 41 43  1  0  0  0
 45 46  2  0  0  0
 45 50  1  0  0  0
 46 47  1  0  0  0
 47 48  2  0  0  0
 48 49  1  0  0  0
 49 50  2  0  0  0
 49 44  1  0  0  0
  1  2  1  0  0  0
  2  5  1  0  0  0
  2  3  1  0  0  0
  5  6  1  0  0  0
  5 20  1  0  0  0
  6  7  1  0  0  0
  7 10  1  0  0  0
  7  8  2  0  0  0
 10 11  1  0  0  0
 11 12  1  0  0  0
 12 13  2  0  0  0
 12 17  1  0  0  0
 13 14  1  0  0  0
 13 19  1  0  0  0
 14 15  2  0  0  0
 15 16  1  0  0  0
 16 17  2  0  0  0
 17 18  1  0  0  0
 37 40  1  0  0  0
 29 31  1  0  0  0
  6  9  1  0  0  0
  3  4  1  0  0  0
M  END
> <minimizedAffinity>
-9.31538

$$$$
6DJ1_AB1_B_201


 50 53  0  0  0  0  0  0  0  0999 V2000
   14.5220   19.2766   64.8507 C   0  0  0  0  0  0  0  0  0  0  0  0
   13.1569   18.6396   64.5690 C   0  0  0  0  0  0  0  0  0  0  0  0
   13.0564   18.2665   63.1623 O   0  0  0  0  0  0  0  0  0  0  0  0
   13.0732   19.0662   62.6136 H   0  0  0  0  0  0  0  0  0  0  0  0
   11.9196   19.4626   64.9113 C   0  0  0  0  0  0  0  0  0  0  0  0
   10.7325   19.0062   64.1599 N   0  0  0  0  0  0  0  0  0  0  0  0
   10.0047   19.8356   63.3904 C   0  0  0  0  0  0  0  0  0  0  0  0
   10.3410   20.9856   63.1281 O   0  0  0  0  0  0  0  0  0  0  0  0
   10.4643   18.0611   64.2245 H   0  0  0  0  0  0  0  0  0  0  0  0
    8.6895   19.2601   62.8618 C   0  0  0  0  0  0  0  0  0  0  0  0
    8.7816   17.8429   62.6044 O   0  0  0  0  0  0  0  0  0  0  0  0
    7.5808   17.2693   62.7707 C   0  0  0  0  0  0  0  0  0  0  0  0
    7.3488   16.4039   63.8303 C   0  0  0  0  0  0  0  0  0  0  0  0
    6.0797   15.8485   63.9331 C   0  0  0  0  0  0  0  0  0  0  0  0
    5.0746   16.1001   62.9869 C   0  0  0  0  0  0  0  0  0  0  0  0
    5.3350   16.9953   61.9418 C   0  0  0  0  0  0  0  0  0  0  0  0
    6.5848   17.6370   61.8926 C   0  0  0  0  0  0  0  0  0  0  0  0
    6.9171   18.4894   60.8262 C   0  0  0  0  0  0  0  0  0  0  0  0
    8.3294   16.0336   64.7757 C   0  0  0  0  0  0  0  0  0  0  0  0
   11.5662   19.4107   66.4037 C   0  0  0  0  0  0  0  0  0  0  0  0
   10.2338   19.7534   66.7017 C   0  0  0  0  0  0  0  0  0  0  0  0
    9.7925   21.0531   66.7227 C   0  0  0  0  0  0  0  0  0  0  0  0
    8.4605   21.4084   66.9515 C   0  0  0  0  0  0  0  0  0  0  0  0
    7.4991   20.4199   67.1869 C   0  0  0  0  0  0  0  0  0  0  0  0
    7.9288   19.1053   67.1699 C   0  0  0  0  0  0  0  0  0  0  0  0
    9.2482   18.7706   66.8535 C   0  0  0  0  0  0  0  0  0  0  0  0
   14.8696   20.4995   64.0019 C   0  0  0  0  0  0  0  0  0  0  0  0
   15.5618   22.6712   64.9898 C   0  0  0  0  0  0  0  0  0  0  0  0
   15.7571   21.3524   64.8016 N   0  0  0  0  0  0  0  0  0  0  0  0
   14.5882   23.3226   64.5817 O   0  0  0  0  0  0  0  0  0  0  0  0
   16.5418   20.9355   65.2255 H   0  0  0  0  0  0  0  0  0  0  0  0
   16.6416   23.4244   65.7332 C   0  0  0  0  0  0  0  0  0  0  0  0
   19.0562   25.8526   63.0740 C   0  0  0  0  0  0  0  0  0  0  0  0
   17.1302   25.6972   64.6412 C   0  0  0  0  0  0  0  0  0  0  0  0
   17.4148   24.2473   64.7695 N   0  0  0  0  0  0  0  0  0  0  0  0
   18.3224   23.6394   64.0121 C   0  0  0  0  0  0  0  0  0  0  0  0
   19.0725   24.4047   63.1314 N   0  0  0  0  0  0  0  0  0  0  0  0
   18.5377   22.3995   64.0655 O   0  0  0  0  0  0  0  0  0  0  0  0
   18.3952   26.4485   64.3137 C   0  0  0  0  0  0  0  0  0  0  0  0
   19.6587   23.9295   62.4991 H   0  0  0  0  0  0  0  0  0  0  0  0
   16.0910   24.2597   66.8800 C   0  0  0  0  0  0  0  0  0  0  0  0
   15.1577   23.3750   67.7195 C   0  0  0  0  0  0  0  0  0  0  0  0
   17.2321   24.7699   67.7648 C   0  0  0  0  0  0  0  0  0  0  0  0
   15.5679   20.0477   62.7083 C   0  0  0  0  0  0  0  0  0  0  0  0
   16.2706   22.6914   60.2450 C   0  0  0  0  0  0  0  0  0  0  0  0
   15.0926   22.7298   59.5133 C   0  0  0  0  0  0  0  0  0  0  0  0
   14.0583   21.8646   59.8421 C   0  0  0  0  0  0  0  0  0  0  0  0
   14.2297   20.9847   60.9205 C   0  0  0  0  0  0  0  0  0  0  0  0
   15.4113   20.9003   61.6328 C   0  0  0  0  0  0  0  0  0  0  0  0
   16.4272   21.8045   61.3040 C   0  0  0  0  0  0  0  0  0  0  0  0
 33 37  1  0  0  0
 33 39  1  0  0  0
 34 35  1  0  0  0
 34 39  1  0  0  0
 35 36  1  0  0  0
 35 32  1  0  0  0
 36 37  1  0  0  0
 36 38  2  0  0  0
 21 22  2  0  0  0
 21 26  1  0  0  0
 21 20  1  0  0  0
 22 23  1  0  0  0
 23 24  2  0  0  0
 24 25  1  0  0  0
 25 26  2  0  0  0
 32 28  1  0  0  0
 32 41  1  0  0  0
 28 29  1  0  0  0
 28 30  2  0  0  0
 29 27  1  0  0  0
 27 44  1  0  0  0
 27  1  1  0  0  0
 41 42  1  0  0  0
 41 43  1  0  0  0
 45 46  2  0  0  0
 45 50  1  0  0  0
 46 47  1  0  0  0
 47 48  2  0  0  0
 48 49  1  0  0  0
 49 50  2  0  0  0
 49 44  1  0  0  0
  1  2  1  0  0  0
  2  5  1  0  0  0
  2  3  1  0  0  0
  5  6  1  0  0  0
  5 20  1  0  0  0
  6  7  1  0  0  0
  7 10  1  0  0  0
  7  8  2  0  0  0
 10 11  1  0  0  0
 11 12  1  0  0  0
 12 13  2  0  0  0
 12 17  1  0  0  0
 13 14  1  0  0  0
 13 19  1  0  0  0
 14 15  2  0  0  0
 15 16  1  0  0  0
 16 17  2  0  0  0
 17 18  1  0  0  0
 37 40  1  0  0  0
 29 31  1  0  0  0
  6  9  1  0  0  0
  3  4  1  0  0  0
M  END
> <minimizedAffinity>
-9.07048

$$$$
6DJ1_AB1_B_201


 50 53  0  0  0  0  0  0  0  0999 V2000
   14.1215   20.8003   64.3472 C   0  0  0  0  0  0  0  0  0  0  0  0
   13.0966   20.4898   63.2511 C   0  0  0  0  0  0  0  0  0  0  0  0
   11.9889   21.4370   63.3150 O   0  0  0  0  0  0  0  0  0  0  0  0
   11.5054   21.3134   64.1468 H   0  0  0  0  0  0  0  0  0  0  0  0
   12.4965   19.0880   63.2346 C   0  0  0  0  0  0  0  0  0  0  0  0
   11.2313   19.0243   63.9946 N   0  0  0  0  0  0  0  0  0  0  0  0
   11.1956   18.7529   65.3117 C   0  0  0  0  0  0  0  0  0  0  0  0
   12.1970   18.6850   66.0166 O   0  0  0  0  0  0  0  0  0  0  0  0
   10.3840   19.1862   63.5202 H   0  0  0  0  0  0  0  0  0  0  0  0
    9.8034   18.5066   65.8962 C   0  0  0  0  0  0  0  0  0  0  0  0
    8.7705   19.1690   65.1363 O   0  0  0  0  0  0  0  0  0  0  0  0
    7.5877   19.0273   65.7524 C   0  0  0  0  0  0  0  0  0  0  0  0
    6.7943   17.9136   65.5168 C   0  0  0  0  0  0  0  0  0  0  0  0
    5.5821   17.8407   66.1914 C   0  0  0  0  0  0  0  0  0  0  0  0
    5.1373   18.8641   67.0422 C   0  0  0  0  0  0  0  0  0  0  0  0
    5.9722   19.9642   67.2749 C   0  0  0  0  0  0  0  0  0  0  0  0
    7.2424   19.9923   66.6731 C   0  0  0  0  0  0  0  0  0  0  0  0
    8.0868   21.1055   66.8210 C   0  0  0  0  0  0  0  0  0  0  0  0
    7.1302   16.8823   64.6134 C   0  0  0  0  0  0  0  0  0  0  0  0
   12.2051   18.5836   61.8149 C   0  0  0  0  0  0  0  0  0  0  0  0
   10.9296   18.0122   61.6473 C   0  0  0  0  0  0  0  0  0  0  0  0
    9.7721   18.7394   61.7736 C   0  0  0  0  0  0  0  0  0  0  0  0
    8.5009   18.2054   61.5465 C   0  0  0  0  0  0  0  0  0  0  0  0
    8.3567   16.8627   61.1815 C   0  0  0  0  0  0  0  0  0  0  0  0
    9.5140   16.1166   61.0512 C   0  0  0  0  0  0  0  0  0  0  0  0
   10.7778   16.6944   61.1991 C   0  0  0  0  0  0  0  0  0  0  0  0
   14.9982   22.0289   64.1048 C   0  0  0  0  0  0  0  0  0  0  0  0
   16.0843   22.4341   61.9076 C   0  0  0  0  0  0  0  0  0  0  0  0
   14.9775   22.3069   62.6636 N   0  0  0  0  0  0  0  0  0  0  0  0
   17.2495   22.2682   62.2994 O   0  0  0  0  0  0  0  0  0  0  0  0
   14.1024   22.4064   62.2238 H   0  0  0  0  0  0  0  0  0  0  0  0
   15.8861   22.8486   60.4672 C   0  0  0  0  0  0  0  0  0  0  0  0
   18.9532   25.6284   59.1774 C   0  0  0  0  0  0  0  0  0  0  0  0
   18.3505   23.5717   60.4407 C   0  0  0  0  0  0  0  0  0  0  0  0
   16.9324   23.8333   60.0939 N   0  0  0  0  0  0  0  0  0  0  0  0
   16.5521   24.9537   59.4883 C   0  0  0  0  0  0  0  0  0  0  0  0
   17.5252   25.8656   59.1068 N   0  0  0  0  0  0  0  0  0  0  0  0
   15.3468   25.2201   59.2375 O   0  0  0  0  0  0  0  0  0  0  0  0
   19.2590   24.1478   59.3850 C   0  0  0  0  0  0  0  0  0  0  0  0
   17.2239   26.7375   58.7629 H   0  0  0  0  0  0  0  0  0  0  0  0
   15.8562   21.6625   59.5141 C   0  0  0  0  0  0  0  0  0  0  0  0
   16.3391   20.4181   60.2736 C   0  0  0  0  0  0  0  0  0  0  0  0
   14.4317   21.4214   59.0064 C   0  0  0  0  0  0  0  0  0  0  0  0
   14.4429   23.2233   64.8985 C   0  0  0  0  0  0  0  0  0  0  0  0
   17.4180   24.7108   66.4755 C   0  0  0  0  0  0  0  0  0  0  0  0
   17.0924   24.6567   67.8230 C   0  0  0  0  0  0  0  0  0  0  0  0
   15.8699   24.1237   68.2073 C   0  0  0  0  0  0  0  0  0  0  0  0
   15.0031   23.6377   67.2178 C   0  0  0  0  0  0  0  0  0  0  0  0
   15.2899   23.7233   65.8684 C   0  0  0  0  0  0  0  0  0  0  0  0
   16.5414   24.2345   65.5074 C   0  0  0  0  0  0  0  0  0  0  0  0
 33 37  1  0  0  0
 33 39  1  0  0  0
 34 35  1  0  0  0
 34 39  1  0  0  0
 35 36  1  0  0  0
 35 32  1  0  0  0
 36 37  1  0  0  0
 36 38  2  0  0  0
 21 22  2  0  0  0
 21 26  1  0  0  0
 21 20  1  0  0  0
 22 23  1  0  0  0
 23 24  2  0  0  0
 24 25  1  0  0  0
 25 26  2  0  0  0
 32 28  1  0  0  0
 32 41  1  0  0  0
 28 29  1  0  0  0
 28 30  2  0  0  0
 29 27  1  0  0  0
 27 44  1  0  0  0
 27  1  1  0  0  0
 41 42  1  0  0  0
 41 43  1  0  0  0
 45 46  2  0  0  0
 45 50  1  0  0  0
 46 47  1  0  0  0
 47 48  2  0  0  0
 48 49  1  0  0  0
 49 50  2  0  0  0
 49 44  1  0  0  0
  1  2  1  0  0  0
  2  5  1  0  0  0
  2  3  1  0  0  0
  5  6  1  0  0  0
  5 20  1  0  0  0
  6  7  1  0  0  0
  7 10  1  0  0  0
  7  8  2  0  0  0
 10 11  1  0  0  0
 11 12  1  0  0  0
 12 13  2  0  0  0
 12 17  1  0  0  0
 13 14  1  0  0  0
 13 19  1  0  0  0
 14 15  2  0  0  0
 15 16  1  0  0  0
 16 17  2  0  0  0
 17 18  1  0  0  0
 37 40  1  0  0  0
 29 31  1  0  0  0
  6  9  1  0  0  0
  3  4  1  0  0  0
M  END
> <minimizedAffinity>
-9.00373

$$$$
