5I3W_68L_A_406
  RCSB PDB12061718063D
Coordinates from PDB:5I3W:A:406 Model:1 without hydrogens
 35 40  0  0  0  0            999 V2000
   64.3920   52.7440   12.6740   C 0  0  0  0  0  0  0  0  0  0  0  0
   63.1140   52.8630   13.3620   O 0  0  0  0  0  0  0  0  0  0  0  0
   61.9980   52.6290   12.4880   C 0  0  0  0  0  0  0  0  0  0  0  0
   62.1440   51.3350   11.6790   C 0  0  0  0  0  0  0  0  0  0  0  0
   63.4610   51.0790   11.2680   C 0  0  0  0  0  0  0  0  0  0  0  0
   64.6000   51.7230   11.7310   C 0  0  0  0  0  0  0  0  0  0  0  0
   65.9050   51.4180   11.2850   C 0  0  0  0  0  0  0  0  0  0  0  0
   66.1720   50.4270   10.3330   C 0  0  0  0  0  0  0  0  0  0  0  0
   66.9440   52.1300   11.7760   N 0  0  0  0  0  0  0  0  0  0  0  0
   68.2020   51.9150   11.4080   C 0  0  0  0  0  0  0  0  0  0  0  0
   68.5250   50.9420   10.4700   C 0  0  0  0  0  0  0  0  0  0  0  0
   69.8300   50.7840   10.1540   O 0  0  0  0  0  0  0  0  0  0  0  0
   67.4860   50.1760    9.9260   C 0  0  0  0  0  0  0  0  0  0  0  0
   67.7700   49.1160    8.8780   C 0  0  0  0  0  0  0  0  0  0  0  0
   67.3840   47.6970    9.3140   C 0  0  0  0  0  0  0  0  0  0  0  0
   66.6610   47.1400    8.1850   O 0  0  0  0  0  0  0  0  0  0  0  0
   66.3470   48.1760    7.3370   C 0  0  0  0  0  0  0  0  0  0  0  0
   66.9030   49.3250    7.6870   N 0  0  0  0  0  0  0  0  0  0  0  0
   65.5330   48.0390    6.2900   N 0  0  0  0  0  0  0  0  0  0  0  0
   69.2220   49.1900    8.4460   C 0  0  0  0  0  0  0  0  0  0  0  0
   69.6140   48.4220    7.3670   C 0  0  0  0  0  0  0  0  0  0  0  0
   70.1590   49.9940    9.1050   C 0  0  0  0  0  0  0  0  0  0  0  0
   71.4720   50.0020    8.6540   C 0  0  0  0  0  0  0  0  0  0  0  0
   71.8610   49.2170    7.5640   C 0  0  0  0  0  0  0  0  0  0  0  0
   70.9170   48.4020    6.9190   C 0  0  0  0  0  0  0  0  0  0  0  0
   71.1650   47.6380    5.8370   N 0  0  0  0  0  0  0  0  0  0  0  0
   72.3510   47.2560    5.3440   C 0  0  0  0  0  0  0  0  0  0  0  0
   73.4390   47.4540    5.8630   O 0  0  0  0  0  0  0  0  0  0  0  0
   72.2320   46.4750    4.0460   C 0  0  0  0  0  0  0  0  0  0  0  0
   73.1170   45.4610    3.6860   C 0  0  0  0  0  0  0  0  0  0  0  0
   72.9270   44.7890    2.4760   C 0  0  0  0  0  0  0  0  0  0  0  0
   71.8490   45.1520    1.6680   C 0  0  0  0  0  0  0  0  0  0  0  0
   71.5190   44.3880    0.1430  Cl 0  0  0  0  0  0  0  0  0  0  0  0
   71.0060   46.1650    2.0890   C 0  0  0  0  0  0  0  0  0  0  0  0
   71.2010   46.7880    3.2380   N 0  0  0  0  0  0  0  0  0  0  0  0
 33 32  1  0  0  0  0
 32 34  2  0  0  0  0
 32 31  1  0  0  0  0
 34 35  1  0  0  0  0
 31 30  2  0  0  0  0
 35 29  2  0  0  0  0
 30 29  1  0  0  0  0
 29 27  1  0  0  0  0
 27 26  1  0  0  0  0
 27 28  2  0  0  0  0
 26 25  1  0  0  0  0
 19 17  1  0  0  0  0
 25 21  2  0  0  0  0
 25 24  1  0  0  0  0
 17 18  2  0  0  0  0
 17 16  1  0  0  0  0
 21 20  1  0  0  0  0
 24 23  2  0  0  0  0
 18 14  1  0  0  0  0
 16 15  1  0  0  0  0
 20 14  1  0  0  0  0
 20 22  2  0  0  0  0
 23 22  1  0  0  0  0
 14 15  1  0  0  0  0
 14 13  1  0  0  0  0
 22 12  1  0  0  0  0
 13  8  2  0  0  0  0
 13 11  1  0  0  0  0
 12 11  1  0  0  0  0
  8  7  1  0  0  0  0
 11 10  2  0  0  0  0
  5  4  1  0  0  0  0
  5  6  2  0  0  0  0
  7  6  1  0  0  0  0
  7  9  2  0  0  0  0
 10  9  1  0  0  0  0
  4  3  1  0  0  0  0
  6  1  1  0  0  0  0
  3  2  1  0  0  0  0
  1  2  1  0  0  0  0
A    1
C16
A    2
O3
A    3
C17
A    4
C18
A    5
C19
A    6
C15
A    7
C11
A    8
C12
A    9
N1
A   10
C10
A   11
C7
A   12
O1
A   13
C8
A   14
C9
A   15
C13
A   16
O2
A   17
C14
A   18
N3
A   19
N4
A   20
C5
A   21
C6
A   22
C4
A   23
C3
A   24
C2
A   25
C1
A   26
N2
A   27
C20
A   28
O4
A   29
C21
A   30
C25
A   31
C24
A   32
C23
A   33
CL1
A   34
C22
A   35
N5
M  END
>  <InstanceId>
5I3W_68L_A_406

>  <ChemCompId>
68L

>  <PdbId>
5I3W

>  <ChainId>
A

>  <ResidueNumber>
406

>  <InsertionCode>


>  <Model>
1

>  <AltIds>


>  <MissingHeavyAtoms>
0

>  <ObservedFormula>
C25 N5 O4 Cl

>  <Name>
N-[(5S)-2'-amino-3-(5,6-dihydro-2H-pyran-3-yl)-5'H-spiro[1-benzopyrano[2,3-c]pyridine-5,4'-[1,3]oxazol]-7-yl]-5-chloropyridine-2-carboxamide

>  <SystematicName>
~{N}-[(4~{S})-2-azanyl-3'-(3,6-dihydro-2~{H}-pyran-5-yl)spiro[5~{H}-1,3-oxazole-4,5'-chromeno[2,3-c]pyridine]-7'-yl]-5-chloranyl-pyridine-2-carboxamide

>  <Synonyms>


>  <Type>
NON-POLYMER

>  <Formula>
C25 H20 Cl N5 O4

>  <MolecularWeight>
489.91

>  <ModifiedDate>
2016-03-25

>  <Parent>


>  <OneLetterCode>


>  <SubcomponentList>


>  <AmbiguousFlag>
N

>  <InChI>
InChI=1S/C25H20ClN5O4/c26-15-3-5-19(28-10-15)23(32)30-16-4-6-21-17(8-16)25(13-34-24(27)31-25)18-9-20(29-11-22(18)35-21)14-2-1-7-33-12-14/h2-6,8-11H,1,7,12-13H2,(H2,27,31)(H,30,32)/t25-/m0/s1

>  <InChIKey>
ZXMNKHTXDORUCR-VWLOTQADSA-N

>  <SMILES>
c1cc2c(cc1NC(=O)c3ccc(cn3)Cl)[C@@]4(COC(=N4)N)c5cc(ncc5O2)C6=CCCOC6

$$$$
