2P7Z_OHT_A_201


 30 32  0  0  0  0  0  0  0  0999 V2000
   49.2364  -29.5805  -97.7780 C   0  0  0  0  0  0  0  0  0  0  0  0
   48.8374  -29.0820  -96.5198 C   0  0  0  0  0  0  0  0  0  0  0  0
   48.2986  -27.6609  -96.2736 C   0  0  0  0  0  0  0  0  0  0  0  0
   49.0172  -26.7348  -95.4429 C   0  0  0  0  0  0  0  0  0  0  0  0
   48.5026  -25.4244  -95.1961 C   0  0  0  0  0  0  0  0  0  0  0  0
   47.2668  -25.0291  -95.7792 C   0  0  0  0  0  0  0  0  0  0  0  0
   46.7992  -23.7725  -95.5207 O   0  0  0  0  0  0  0  0  0  0  0  0
   46.5420  -25.9163  -96.6026 C   0  0  0  0  0  0  0  0  0  0  0  0
   47.0525  -27.2239  -96.8453 C   0  0  0  0  0  0  0  0  0  0  0  0
   47.2907  -23.1934  -94.9720 H   0  0  0  0  0  0  0  0  0  0  0  0
   49.5941  -30.9757  -98.0050 C   0  0  0  0  0  0  0  0  0  0  0  0
   50.9519  -31.3262  -98.2035 C   0  0  0  0  0  0  0  0  0  0  0  0
   51.2989  -32.6761  -98.4287 C   0  0  0  0  0  0  0  0  0  0  0  0
   50.2892  -33.6831  -98.4592 C   0  0  0  0  0  0  0  0  0  0  0  0
   48.9347  -33.3448  -98.2649 C   0  0  0  0  0  0  0  0  0  0  0  0
   48.5838  -31.9930  -98.0375 C   0  0  0  0  0  0  0  0  0  0  0  0
   48.9079  -29.9645  -95.3200 C   0  0  0  0  0  0  0  0  0  0  0  0
   50.1458  -30.3571  -94.7050 C   0  0  0  0  0  0  0  0  0  0  0  0
   50.1421  -31.1229  -93.5017 C   0  0  0  0  0  0  0  0  0  0  0  0
   48.9022  -31.5067  -92.9011 C   0  0  0  0  0  0  0  0  0  0  0  0
   47.6864  -31.1180  -93.5310 C   0  0  0  0  0  0  0  0  0  0  0  0
   47.6815  -30.3543  -94.7226 C   0  0  0  0  0  0  0  0  0  0  0  0
   48.9401  -32.2359  -91.8019 O   0  0  0  0  0  0  0  0  0  0  0  0
   49.9644  -32.1299  -90.7972 C   0  0  0  0  0  0  0  0  0  0  0  0
   50.5010  -33.5602  -90.5675 C   0  0  0  0  0  0  0  0  0  0  0  0
   50.1216  -34.1916  -89.2697 N   0  0  0  0  0  0  0  0  0  0  0  0
   51.1200  -33.8401  -88.2327 C   0  0  0  0  0  0  0  0  0  0  0  0
   48.7710  -33.7880  -88.7961 C   0  0  0  0  0  0  0  0  0  0  0  0
   48.5554  -29.2192 -100.3060 C   0  0  0  0  0  0  0  0  0  0  0  0
   49.3910  -28.7491  -99.1033 C   0  0  0  0  0  0  0  0  0  0  0  0
 29 30  1  0  0  0
 30  1  1  0  0  0
  1 11  1  0  0  0
  1  2  2  0  0  0
 11 12  1  0  0  0
 11 16  2  0  0  0
 12 13  2  0  0  0
 13 14  1  0  0  0
 14 15  2  0  0  0
 15 16  1  0  0  0
  2  3  1  0  0  0
  2 17  1  0  0  0
  3  4  1  0  0  0
  3  9  2  0  0  0
  4  5  2  0  0  0
  5  6  1  0  0  0
  6  7  1  0  0  0
  6  8  2  0  0  0
  8  9  1  0  0  0
 17 18  2  0  0  0
 17 22  1  0  0  0
 18 19  1  0  0  0
 19 20  2  0  0  0
 20 23  1  0  0  0
 20 21  1  0  0  0
 23 24  1  0  0  0
 24 25  1  0  0  0
 25 26  1  0  0  0
 26 27  1  0  0  0
 26 28  1  0  0  0
 21 22  2  0  0  0
  7 10  1  0  0  0
M  END
> <minimizedAffinity>
-10.33021

$$$$
2P7Z_OHT_A_201


 30 32  0  0  0  0  0  0  0  0999 V2000
   48.8717  -29.0075  -96.9981 C   0  0  0  0  0  0  0  0  0  0  0  0
   49.0312  -30.2953  -96.4442 C   0  0  0  0  0  0  0  0  0  0  0  0
   49.3924  -31.5555  -97.2517 C   0  0  0  0  0  0  0  0  0  0  0  0
   48.3793  -32.4986  -97.6367 C   0  0  0  0  0  0  0  0  0  0  0  0
   48.7206  -33.6800  -98.3651 C   0  0  0  0  0  0  0  0  0  0  0  0
   50.0770  -33.9268  -98.7157 C   0  0  0  0  0  0  0  0  0  0  0  0
   50.3719  -35.0666  -99.4073 O   0  0  0  0  0  0  0  0  0  0  0  0
   51.0919  -33.0159  -98.3544 C   0  0  0  0  0  0  0  0  0  0  0  0
   50.7526  -31.8404  -97.6247 C   0  0  0  0  0  0  0  0  0  0  0  0
   49.6881  -35.6631  -99.6410 H   0  0  0  0  0  0  0  0  0  0  0  0
   48.6835  -27.8097  -96.1881 C   0  0  0  0  0  0  0  0  0  0  0  0
   47.3874  -27.2560  -96.0492 C   0  0  0  0  0  0  0  0  0  0  0  0
   47.2048  -26.0932  -95.2695 C   0  0  0  0  0  0  0  0  0  0  0  0
   48.3182  -25.4759  -94.6263 C   0  0  0  0  0  0  0  0  0  0  0  0
   49.6127  -26.0176  -94.7598 C   0  0  0  0  0  0  0  0  0  0  0  0
   49.7988  -27.1838  -95.5393 C   0  0  0  0  0  0  0  0  0  0  0  0
   48.8660  -30.4928  -94.9755 C   0  0  0  0  0  0  0  0  0  0  0  0
   47.5833  -30.5800  -94.3338 C   0  0  0  0  0  0  0  0  0  0  0  0
   47.4926  -30.8672  -92.9396 C   0  0  0  0  0  0  0  0  0  0  0  0
   48.6819  -31.0680  -92.1711 C   0  0  0  0  0  0  0  0  0  0  0  0
   49.9436  -30.9665  -92.8220 C   0  0  0  0  0  0  0  0  0  0  0  0
   50.0421  -30.6865  -94.2059 C   0  0  0  0  0  0  0  0  0  0  0  0
   48.5576  -31.3070  -90.8792 O   0  0  0  0  0  0  0  0  0  0  0  0
   47.4692  -32.0447  -90.2953 C   0  0  0  0  0  0  0  0  0  0  0  0
   48.1025  -33.0506  -89.3087 C   0  0  0  0  0  0  0  0  0  0  0  0
   47.1413  -33.9038  -88.5504 N   0  0  0  0  0  0  0  0  0  0  0  0
   47.2804  -33.6434  -87.0984 C   0  0  0  0  0  0  0  0  0  0  0  0
   45.7252  -33.6833  -88.9471 C   0  0  0  0  0  0  0  0  0  0  0  0
   50.1995  -28.5694  -99.2409 C   0  0  0  0  0  0  0  0  0  0  0  0
   48.8387  -28.6490  -98.5285 C   0  0  0  0  0  0  0  0  0  0  0  0
 29 30  1  0  0  0
 30  1  1  0  0  0
  1 11  1  0  0  0
  1  2  2  0  0  0
 11 12  1  0  0  0
 11 16  2  0  0  0
 12 13  2  0  0  0
 13 14  1  0  0  0
 14 15  2  0  0  0
 15 16  1  0  0  0
  2  3  1  0  0  0
  2 17  1  0  0  0
  3  4  1  0  0  0
  3  9  2  0  0  0
  4  5  2  0  0  0
  5  6  1  0  0  0
  6  7  1  0  0  0
  6  8  2  0  0  0
  8  9  1  0  0  0
 17 18  2  0  0  0
 17 22  1  0  0  0
 18 19  1  0  0  0
 19 20  2  0  0  0
 20 23  1  0  0  0
 20 21  1  0  0  0
 23 24  1  0  0  0
 24 25  1  0  0  0
 25 26  1  0  0  0
 26 27  1  0  0  0
 26 28  1  0  0  0
 21 22  2  0  0  0
  7 10  1  0  0  0
M  END
> <minimizedAffinity>
-8.69116

$$$$
