4ZWX_5KZ_A_304


 40 40  0  0  0  0  0  0  0  0999 V2000
    0.5092    7.7981   83.0466 C   0  0  0  0  0  0  0  0  0  0  0  0
    1.4082    7.2668   81.9850 C   0  0  0  0  0  0  0  0  0  0  0  0
    1.3344    5.8117   81.7245 C   0  0  0  0  0  0  0  0  0  0  0  0
    0.2814    4.9514   82.3949 C   0  0  0  0  0  0  0  0  0  0  0  0
   -0.5937    5.6822   83.4501 C   0  0  0  0  0  0  0  0  0  0  0  0
    0.3227    6.7568   84.0324 O   0  0  0  0  0  0  0  0  0  0  0  0
    1.4871    9.0212   83.9326 S   0  0  0  0  0  0  0  0  0  0  0  0
    0.7645    9.1128   85.3959 O   0  0  0  0  0  0  0  0  0  0  0  0
    3.0655    8.5335   83.9416 O   0  0  0  0  0  0  0  0  0  0  0  0
    1.3055   10.5108   83.0658 N   0  0  0  0  0  0  0  0  0  0  0  0
    1.5182   11.3019   83.6735 H   0  0  0  0  0  0  0  0  0  0  0  0
   -0.1087   10.5640   82.6295 C   0  0  0  0  0  0  0  0  0  0  0  0
   -0.1652   11.3744   81.3046 C   0  0  0  0  0  0  0  0  0  0  0  0
   -1.1023   10.6452   80.2957 C   0  0  0  0  0  0  0  0  0  0  0  0
   -1.3120   11.5201   79.0461 C   0  0  0  0  0  0  0  0  0  0  0  0
   -2.6164   11.1485   78.3018 C   0  0  0  0  0  0  0  0  0  0  0  0
   -2.2045   10.6414   77.0479 O   0  0  0  0  0  0  0  0  0  0  0  0
   -2.6338    9.0721   76.7064 S   0  0  0  0  0  0  0  0  0  0  0  0
   -1.3166    8.5372   77.0698 O   0  0  0  0  0  0  0  0  0  0  0  0
   -3.2653    9.3334   75.2450 O   0  0  0  0  0  0  0  0  0  0  0  0
   -3.8550    8.7063   77.8326 N   0  0  0  0  0  0  0  0  0  0  0  0
   -3.4357    8.5449   78.7484 H   0  0  0  0  0  0  0  0  0  0  0  0
   -4.3528    7.8677   77.5340 H   0  0  0  0  0  0  0  0  0  0  0  0
   -0.5901    4.2245   81.5155 O   0  0  0  0  0  0  0  0  0  0  0  0
   -0.1876    2.8815   81.3623 C   0  0  0  0  0  0  0  0  0  0  0  0
    0.4804    2.3710   82.2063 O   0  0  0  0  0  0  0  0  0  0  0  0
   -0.6264    2.0919   80.1135 C   0  0  0  0  0  0  0  0  0  0  0  0
    1.7625    5.4780   80.3198 O   0  0  0  0  0  0  0  0  0  0  0  0
    1.0983    5.5797   79.0672 C   0  0  0  0  0  0  0  0  0  0  0  0
   -0.0430    5.3228   78.8649 O   0  0  0  0  0  0  0  0  0  0  0  0
    1.9888    6.0872   77.9116 C   0  0  0  0  0  0  0  0  0  0  0  0
    1.2906    8.0872   80.7719 O   0  0  0  0  0  0  0  0  0  0  0  0
    2.4675    9.7702   79.3028 C   0  0  0  0  0  0  0  0  0  0  0  0
    2.5145    8.6652   80.3719 C   0  0  0  0  0  0  0  0  0  0  0  0
    3.5463    8.2979   80.8417 O   0  0  0  0  0  0  0  0  0  0  0  0
   -0.9149    4.7763   84.4850 C   0  0  0  0  0  0  0  0  0  0  0  0
    0.3209    4.2444   84.9517 O   0  0  0  0  0  0  0  0  0  0  0  0
    0.1518    3.1075   85.7712 C   0  0  0  0  0  0  0  0  0  0  0  0
    0.8414    2.1396   85.6698 O   0  0  0  0  0  0  0  0  0  0  0  0
   -0.9658    3.1662   86.8076 C   0  0  0  0  0  0  0  0  0  0  0  0
 27 25  1  0  0  0
 30 29  2  0  0  0
 25 24  1  0  0  0
 25 26  2  0  0  0
 24  4  1  0  0  0
 31 29  1  0  0  0
 29 28  1  0  0  0
 36  5  1  0  0  0
 36 37  1  0  0  0
  5  4  1  0  0  0
  5  6  1  0  0  0
  4  3  1  0  0  0
 40 38  1  0  0  0
 28  3  1  0  0  0
  3  2  1  0  0  0
 32  2  1  0  0  0
 32 34  1  0  0  0
 37 38  1  0  0  0
 38 39  2  0  0  0
  1  6  1  0  0  0
  1  2  1  0  0  0
  1  7  1  0  0  0
 33 34  1  0  0  0
 12 13  1  0  0  0
 12 10  1  0  0  0
 34 35  2  0  0  0
 13 14  1  0  0  0
 10  7  1  0  0  0
  7  9  2  0  0  0
  7  8  2  0  0  0
 14 15  1  0  0  0
 15 16  1  0  0  0
 17 16  1  0  0  0
 17 18  1  0  0  0
 21 18  1  0  0  0
 19 18  2  0  0  0
 18 20  2  0  0  0
 10 11  1  0  0  0
 21 22  1  0  0  0
 21 23  1  0  0  0
M  END
> <minimizedAffinity>
-6.35373

$$$$
4ZWX_5KZ_A_304


 40 40  0  0  0  0  0  0  0  0999 V2000
    2.2898    6.2814   80.4312 C   0  0  0  0  0  0  0  0  0  0  0  0
    1.0196    7.0109   80.1630 C   0  0  0  0  0  0  0  0  0  0  0  0
    0.8272    7.5171   78.7856 C   0  0  0  0  0  0  0  0  0  0  0  0
    1.8029    7.1630   77.6806 C   0  0  0  0  0  0  0  0  0  0  0  0
    3.0551    6.3650   78.1370 C   0  0  0  0  0  0  0  0  0  0  0  0
    3.3100    6.8343   79.5682 O   0  0  0  0  0  0  0  0  0  0  0  0
    2.8123    6.8176   82.0673 S   0  0  0  0  0  0  0  0  0  0  0  0
    2.5453    5.5096   83.0103 O   0  0  0  0  0  0  0  0  0  0  0  0
    4.3800    7.3319   81.9818 O   0  0  0  0  0  0  0  0  0  0  0  0
    1.7585    8.1192   82.5130 N   0  0  0  0  0  0  0  0  0  0  0  0
    2.2653    9.0043   82.5020 H   0  0  0  0  0  0  0  0  0  0  0  0
    1.2849    7.8154   83.8829 C   0  0  0  0  0  0  0  0  0  0  0  0
   -0.2580    7.6385   83.8219 C   0  0  0  0  0  0  0  0  0  0  0  0
   -0.7152    6.7108   84.9873 C   0  0  0  0  0  0  0  0  0  0  0  0
   -1.4912    5.5051   84.4260 C   0  0  0  0  0  0  0  0  0  0  0  0
   -1.4781    4.3104   85.4089 C   0  0  0  0  0  0  0  0  0  0  0  0
   -0.9706    3.2178   84.6687 O   0  0  0  0  0  0  0  0  0  0  0  0
   -0.0211    2.1364   85.5010 S   0  0  0  0  0  0  0  0  0  0  0  0
    0.9116    3.1713   85.9616 O   0  0  0  0  0  0  0  0  0  0  0  0
    0.1555    1.0504   84.3211 O   0  0  0  0  0  0  0  0  0  0  0  0
   -1.0329    1.5325   86.7278 N   0  0  0  0  0  0  0  0  0  0  0  0
   -1.1315    2.2330   87.4627 H   0  0  0  0  0  0  0  0  0  0  0  0
   -0.6235    0.6843   87.1193 H   0  0  0  0  0  0  0  0  0  0  0  0
    1.2432    6.5025   76.5352 O   0  0  0  0  0  0  0  0  0  0  0  0
    1.1546    7.3611   75.4198 C   0  0  0  0  0  0  0  0  0  0  0  0
    0.2865    8.1758   75.3761 O   0  0  0  0  0  0  0  0  0  0  0  0
    2.1867    7.2410   74.2815 C   0  0  0  0  0  0  0  0  0  0  0  0
   -0.6332    7.6654   78.4489 O   0  0  0  0  0  0  0  0  0  0  0  0
   -1.6239    8.5919   78.8737 C   0  0  0  0  0  0  0  0  0  0  0  0
   -2.7379    8.3223   79.1833 O   0  0  0  0  0  0  0  0  0  0  0  0
   -1.1439   10.0590   78.9297 C   0  0  0  0  0  0  0  0  0  0  0  0
   -0.1205    6.2340   80.6678 O   0  0  0  0  0  0  0  0  0  0  0  0
   -0.0160    3.8307   81.4354 C   0  0  0  0  0  0  0  0  0  0  0  0
   -0.0683    4.8713   80.3038 C   0  0  0  0  0  0  0  0  0  0  0  0
   -0.0542    4.5449   79.1576 O   0  0  0  0  0  0  0  0  0  0  0  0
    4.1594    6.7555   77.3477 C   0  0  0  0  0  0  0  0  0  0  0  0
    4.4754    5.6413   76.5190 O   0  0  0  0  0  0  0  0  0  0  0  0
    5.8649    5.4165   76.4120 C   0  0  0  0  0  0  0  0  0  0  0  0
    6.3247    4.3275   76.2532 O   0  0  0  0  0  0  0  0  0  0  0  0
    6.7697    6.6406   76.5099 C   0  0  0  0  0  0  0  0  0  0  0  0
 27 25  1  0  0  0
 30 29  2  0  0  0
 25 24  1  0  0  0
 25 26  2  0  0  0
 24  4  1  0  0  0
 31 29  1  0  0  0
 29 28  1  0  0  0
 36  5  1  0  0  0
 36 37  1  0  0  0
  5  4  1  0  0  0
  5  6  1  0  0  0
  4  3  1  0  0  0
 40 38  1  0  0  0
 28  3  1  0  0  0
  3  2  1  0  0  0
 32  2  1  0  0  0
 32 34  1  0  0  0
 37 38  1  0  0  0
 38 39  2  0  0  0
  1  6  1  0  0  0
  1  2  1  0  0  0
  1  7  1  0  0  0
 33 34  1  0  0  0
 12 13  1  0  0  0
 12 10  1  0  0  0
 34 35  2  0  0  0
 13 14  1  0  0  0
 10  7  1  0  0  0
  7  9  2  0  0  0
  7  8  2  0  0  0
 14 15  1  0  0  0
 15 16  1  0  0  0
 17 16  1  0  0  0
 17 18  1  0  0  0
 21 18  1  0  0  0
 19 18  2  0  0  0
 18 20  2  0  0  0
 10 11  1  0  0  0
 21 22  1  0  0  0
 21 23  1  0  0  0
M  END
> <minimizedAffinity>
-6.28282

$$$$
4ZWX_5KZ_A_304


 40 40  0  0  0  0  0  0  0  0999 V2000
    2.2925    6.4440   80.9550 C   0  0  0  0  0  0  0  0  0  0  0  0
    1.2525    7.1732   80.1777 C   0  0  0  0  0  0  0  0  0  0  0  0
    1.6059    7.5456   78.7895 C   0  0  0  0  0  0  0  0  0  0  0  0
    2.8952    7.0615   78.1557 C   0  0  0  0  0  0  0  0  0  0  0  0
    3.8458    6.2830   79.1063 C   0  0  0  0  0  0  0  0  0  0  0  0
    3.5875    6.8849   80.4864 O   0  0  0  0  0  0  0  0  0  0  0  0
    2.2120    7.1264   82.6179 S   0  0  0  0  0  0  0  0  0  0  0  0
    2.2233    5.8066   83.5821 O   0  0  0  0  0  0  0  0  0  0  0  0
    3.4721    8.1749   82.8228 O   0  0  0  0  0  0  0  0  0  0  0  0
    0.6941    7.9548   82.7316 N   0  0  0  0  0  0  0  0  0  0  0  0
    0.8407    8.9642   82.7266 H   0  0  0  0  0  0  0  0  0  0  0  0
    0.0879    7.5301   84.0143 C   0  0  0  0  0  0  0  0  0  0  0  0
   -1.3395    6.9962   83.7094 C   0  0  0  0  0  0  0  0  0  0  0  0
   -1.4713    5.5420   84.2534 C   0  0  0  0  0  0  0  0  0  0  0  0
   -1.6984    5.5688   85.7761 C   0  0  0  0  0  0  0  0  0  0  0  0
   -1.4430    4.1835   86.4155 C   0  0  0  0  0  0  0  0  0  0  0  0
   -1.3601    3.2773   85.3333 O   0  0  0  0  0  0  0  0  0  0  0  0
   -0.1059    2.1870   85.3746 S   0  0  0  0  0  0  0  0  0  0  0  0
   -0.8851    1.1808   86.1050 O   0  0  0  0  0  0  0  0  0  0  0  0
    1.0354    3.1902   85.9169 O   0  0  0  0  0  0  0  0  0  0  0  0
    0.1696    1.7877   83.7442 N   0  0  0  0  0  0  0  0  0  0  0  0
   -0.5615    1.1540   83.4212 H   0  0  0  0  0  0  0  0  0  0  0  0
    1.0780    1.3326   83.6545 H   0  0  0  0  0  0  0  0  0  0  0  0
    2.7548    6.3047   76.9437 O   0  0  0  0  0  0  0  0  0  0  0  0
    3.2109    7.0201   75.8171 C   0  0  0  0  0  0  0  0  0  0  0  0
    2.6877    8.0503   75.5270 O   0  0  0  0  0  0  0  0  0  0  0  0
    4.3845    6.4658   74.9860 C   0  0  0  0  0  0  0  0  0  0  0  0
    0.3804    7.6945   77.9269 O   0  0  0  0  0  0  0  0  0  0  0  0
   -0.3873    8.8271   77.5422 C   0  0  0  0  0  0  0  0  0  0  0  0
   -1.3405    8.8107   76.8347 O   0  0  0  0  0  0  0  0  0  0  0  0
    0.1033   10.1641   78.1404 C   0  0  0  0  0  0  0  0  0  0  0  0
   -0.0363    6.4770   80.2889 O   0  0  0  0  0  0  0  0  0  0  0  0
    0.1068    4.1377   81.2287 C   0  0  0  0  0  0  0  0  0  0  0  0
    0.0556    5.0936   80.0246 C   0  0  0  0  0  0  0  0  0  0  0  0
    0.1026    4.6870   78.9052 O   0  0  0  0  0  0  0  0  0  0  0  0
    5.1827    6.5676   78.7505 C   0  0  0  0  0  0  0  0  0  0  0  0
    5.6990    5.3851   78.1480 O   0  0  0  0  0  0  0  0  0  0  0  0
    7.0092    5.0808   78.5763 C   0  0  0  0  0  0  0  0  0  0  0  0
    7.4605    5.5013   79.5971 O   0  0  0  0  0  0  0  0  0  0  0  0
    7.8385    4.1794   77.6673 C   0  0  0  0  0  0  0  0  0  0  0  0
 27 25  1  0  0  0
 30 29  2  0  0  0
 25 24  1  0  0  0
 25 26  2  0  0  0
 24  4  1  0  0  0
 31 29  1  0  0  0
 29 28  1  0  0  0
 36  5  1  0  0  0
 36 37  1  0  0  0
  5  4  1  0  0  0
  5  6  1  0  0  0
  4  3  1  0  0  0
 40 38  1  0  0  0
 28  3  1  0  0  0
  3  2  1  0  0  0
 32  2  1  0  0  0
 32 34  1  0  0  0
 37 38  1  0  0  0
 38 39  2  0  0  0
  1  6  1  0  0  0
  1  2  1  0  0  0
  1  7  1  0  0  0
 33 34  1  0  0  0
 12 13  1  0  0  0
 12 10  1  0  0  0
 34 35  2  0  0  0
 13 14  1  0  0  0
 10  7  1  0  0  0
  7  9  2  0  0  0
  7  8  2  0  0  0
 14 15  1  0  0  0
 15 16  1  0  0  0
 17 16  1  0  0  0
 17 18  1  0  0  0
 21 18  1  0  0  0
 19 18  2  0  0  0
 18 20  2  0  0  0
 10 11  1  0  0  0
 21 22  1  0  0  0
 21 23  1  0  0  0
M  END
> <minimizedAffinity>
-6.26227

$$$$
4ZWX_5KZ_A_304


 40 40  0  0  0  0  0  0  0  0999 V2000
    1.4061    6.6562   81.8201 C   0  0  0  0  0  0  0  0  0  0  0  0
    0.9009    5.4653   82.5576 C   0  0  0  0  0  0  0  0  0  0  0  0
    0.5014    5.6816   83.9662 C   0  0  0  0  0  0  0  0  0  0  0  0
    0.4604    7.0757   84.5605 C   0  0  0  0  0  0  0  0  0  0  0  0
    0.9912    8.2038   83.6337 C   0  0  0  0  0  0  0  0  0  0  0  0
    2.0571    7.5262   82.7743 O   0  0  0  0  0  0  0  0  0  0  0  0
    2.7775    6.0542   80.8229 S   0  0  0  0  0  0  0  0  0  0  0  0
    3.7429    7.3626   80.6569 O   0  0  0  0  0  0  0  0  0  0  0  0
    3.4562    4.7542   81.5835 O   0  0  0  0  0  0  0  0  0  0  0  0
    2.1029    5.5932   79.2946 N   0  0  0  0  0  0  0  0  0  0  0  0
    2.8383    5.2683   78.6669 H   0  0  0  0  0  0  0  0  0  0  0  0
    1.4584    6.8082   78.7453 C   0  0  0  0  0  0  0  0  0  0  0  0
    2.2226    7.2056   77.4516 C   0  0  0  0  0  0  0  0  0  0  0  0
    2.8769    5.9351   76.8306 C   0  0  0  0  0  0  0  0  0  0  0  0
    4.3214    6.2460   76.3974 C   0  0  0  0  0  0  0  0  0  0  0  0
    5.1385    6.8792   77.5485 C   0  0  0  0  0  0  0  0  0  0  0  0
    5.5438    5.7973   78.3637 O   0  0  0  0  0  0  0  0  0  0  0  0
    6.8877    6.0459   79.3100 S   0  0  0  0  0  0  0  0  0  0  0  0
    6.9519    7.4789   79.0008 O   0  0  0  0  0  0  0  0  0  0  0  0
    7.7840    4.8333   78.7362 O   0  0  0  0  0  0  0  0  0  0  0  0
    6.3655    5.7107   80.8938 N   0  0  0  0  0  0  0  0  0  0  0  0
    5.8015    6.4880   81.2375 H   0  0  0  0  0  0  0  0  0  0  0  0
    7.1763    5.5848   81.4997 H   0  0  0  0  0  0  0  0  0  0  0  0
   -0.8040    7.4939   85.0968 O   0  0  0  0  0  0  0  0  0  0  0  0
   -1.6817    7.9480   84.0905 C   0  0  0  0  0  0  0  0  0  0  0  0
   -2.0637    7.1848   83.2593 O   0  0  0  0  0  0  0  0  0  0  0  0
   -2.1424    9.4187   84.0875 C   0  0  0  0  0  0  0  0  0  0  0  0
   -0.5175    4.6675   84.4150 O   0  0  0  0  0  0  0  0  0  0  0  0
   -0.4750    3.6360   85.3920 C   0  0  0  0  0  0  0  0  0  0  0  0
    0.4987    3.0564   85.7463 O   0  0  0  0  0  0  0  0  0  0  0  0
   -1.8442    3.2950   86.0204 C   0  0  0  0  0  0  0  0  0  0  0  0
   -0.1198    4.7759   81.7570 O   0  0  0  0  0  0  0  0  0  0  0  0
   -0.5706    2.6905   80.4064 C   0  0  0  0  0  0  0  0  0  0  0  0
    0.1676    3.4099   81.5482 C   0  0  0  0  0  0  0  0  0  0  0  0
    0.9480    2.8364   82.2429 O   0  0  0  0  0  0  0  0  0  0  0  0
    1.6290    9.1844   84.4252 C   0  0  0  0  0  0  0  0  0  0  0  0
    2.2245   10.1077   83.5192 O   0  0  0  0  0  0  0  0  0  0  0  0
    3.3124   10.8057   84.0866 C   0  0  0  0  0  0  0  0  0  0  0  0
    3.7261   10.5634   85.1788 O   0  0  0  0  0  0  0  0  0  0  0  0
    3.9477   11.8999   83.2347 C   0  0  0  0  0  0  0  0  0  0  0  0
 27 25  1  0  0  0
 30 29  2  0  0  0
 25 24  1  0  0  0
 25 26  2  0  0  0
 24  4  1  0  0  0
 31 29  1  0  0  0
 29 28  1  0  0  0
 36  5  1  0  0  0
 36 37  1  0  0  0
  5  4  1  0  0  0
  5  6  1  0  0  0
  4  3  1  0  0  0
 40 38  1  0  0  0
 28  3  1  0  0  0
  3  2  1  0  0  0
 32  2  1  0  0  0
 32 34  1  0  0  0
 37 38  1  0  0  0
 38 39  2  0  0  0
  1  6  1  0  0  0
  1  2  1  0  0  0
  1  7  1  0  0  0
 33 34  1  0  0  0
 12 13  1  0  0  0
 12 10  1  0  0  0
 34 35  2  0  0  0
 13 14  1  0  0  0
 10  7  1  0  0  0
  7  9  2  0  0  0
  7  8  2  0  0  0
 14 15  1  0  0  0
 15 16  1  0  0  0
 17 16  1  0  0  0
 17 18  1  0  0  0
 21 18  1  0  0  0
 19 18  2  0  0  0
 18 20  2  0  0  0
 10 11  1  0  0  0
 21 22  1  0  0  0
 21 23  1  0  0  0
M  END
> <minimizedAffinity>
-5.89985

$$$$
4ZWX_5KZ_A_304


 40 40  0  0  0  0  0  0  0  0999 V2000
    0.6519    8.3652   83.2041 C   0  0  0  0  0  0  0  0  0  0  0  0
    0.8610    7.9796   81.7811 C   0  0  0  0  0  0  0  0  0  0  0  0
    0.8712    6.5296   81.4846 C   0  0  0  0  0  0  0  0  0  0  0  0
    0.5238    5.5121   82.5534 C   0  0  0  0  0  0  0  0  0  0  0  0
    0.3007    6.0982   83.9747 C   0  0  0  0  0  0  0  0  0  0  0  0
    1.2130    7.3221   84.0338 O   0  0  0  0  0  0  0  0  0  0  0  0
    1.7635    9.7505   83.4920 S   0  0  0  0  0  0  0  0  0  0  0  0
    0.7876   11.0586   83.4036 O   0  0  0  0  0  0  0  0  0  0  0  0
    2.5301    9.5242   84.9379 O   0  0  0  0  0  0  0  0  0  0  0  0
    2.8990    9.7440   82.1829 N   0  0  0  0  0  0  0  0  0  0  0  0
    2.6480    9.0287   81.5004 H   0  0  0  0  0  0  0  0  0  0  0  0
    4.2184    9.4408   82.7832 C   0  0  0  0  0  0  0  0  0  0  0  0
    5.2318    9.2399   81.6222 C   0  0  0  0  0  0  0  0  0  0  0  0
    5.7257    7.7621   81.6213 C   0  0  0  0  0  0  0  0  0  0  0  0
    6.0245    7.3085   80.1805 C   0  0  0  0  0  0  0  0  0  0  0  0
    7.5093    6.9115   80.0036 C   0  0  0  0  0  0  0  0  0  0  0  0
    7.4892    5.6219   79.4242 O   0  0  0  0  0  0  0  0  0  0  0  0
    8.3055    5.4427   77.9872 S   0  0  0  0  0  0  0  0  0  0  0  0
    8.7743    4.0921   78.3177 O   0  0  0  0  0  0  0  0  0  0  0  0
    9.1086    6.8416   78.0184 O   0  0  0  0  0  0  0  0  0  0  0  0
    7.0909    5.4729   76.7968 N   0  0  0  0  0  0  0  0  0  0  0  0
    6.5959    4.5811   76.7934 H   0  0  0  0  0  0  0  0  0  0  0  0
    7.5148    5.6300   75.8824 H   0  0  0  0  0  0  0  0  0  0  0  0
   -0.5718    4.6340   82.2535 O   0  0  0  0  0  0  0  0  0  0  0  0
   -0.1318    3.3856   81.7667 C   0  0  0  0  0  0  0  0  0  0  0  0
    0.6335    2.7418   82.4142 O   0  0  0  0  0  0  0  0  0  0  0  0
   -0.6550    2.8680   80.4126 C   0  0  0  0  0  0  0  0  0  0  0  0
    0.4747    6.2531   80.0583 O   0  0  0  0  0  0  0  0  0  0  0  0
    1.2289    5.8972   78.9072 C   0  0  0  0  0  0  0  0  0  0  0  0
    0.8259    5.2759   77.9793 O   0  0  0  0  0  0  0  0  0  0  0  0
    2.6880    6.4040   78.9181 C   0  0  0  0  0  0  0  0  0  0  0  0
   -0.0422    8.7497   80.9154 O   0  0  0  0  0  0  0  0  0  0  0  0
   -0.0382   11.0878   79.9618 C   0  0  0  0  0  0  0  0  0  0  0  0
    0.6282    9.7115   80.1296 C   0  0  0  0  0  0  0  0  0  0  0  0
    1.6688    9.4566   79.6076 O   0  0  0  0  0  0  0  0  0  0  0  0
    0.7600    5.1663   84.9314 C   0  0  0  0  0  0  0  0  0  0  0  0
   -0.3993    4.5411   85.4727 O   0  0  0  0  0  0  0  0  0  0  0  0
   -0.1241    3.2790   86.0420 C   0  0  0  0  0  0  0  0  0  0  0  0
    0.8770    2.6762   85.8037 O   0  0  0  0  0  0  0  0  0  0  0  0
   -1.1747    2.7071   86.9885 C   0  0  0  0  0  0  0  0  0  0  0  0
 27 25  1  0  0  0
 30 29  2  0  0  0
 25 24  1  0  0  0
 25 26  2  0  0  0
 24  4  1  0  0  0
 31 29  1  0  0  0
 29 28  1  0  0  0
 36  5  1  0  0  0
 36 37  1  0  0  0
  5  4  1  0  0  0
  5  6  1  0  0  0
  4  3  1  0  0  0
 40 38  1  0  0  0
 28  3  1  0  0  0
  3  2  1  0  0  0
 32  2  1  0  0  0
 32 34  1  0  0  0
 37 38  1  0  0  0
 38 39  2  0  0  0
  1  6  1  0  0  0
  1  2  1  0  0  0
  1  7  1  0  0  0
 33 34  1  0  0  0
 12 13  1  0  0  0
 12 10  1  0  0  0
 34 35  2  0  0  0
 13 14  1  0  0  0
 10  7  1  0  0  0
  7  9  2  0  0  0
  7  8  2  0  0  0
 14 15  1  0  0  0
 15 16  1  0  0  0
 17 16  1  0  0  0
 17 18  1  0  0  0
 21 18  1  0  0  0
 19 18  2  0  0  0
 18 20  2  0  0  0
 10 11  1  0  0  0
 21 22  1  0  0  0
 21 23  1  0  0  0
M  END
> <minimizedAffinity>
-5.84295

$$$$
4ZWX_5KZ_A_304


 40 40  0  0  0  0  0  0  0  0999 V2000
    2.5719    7.8378   80.1773 C   0  0  0  0  0  0  0  0  0  0  0  0
    1.7750    6.5810   80.1241 C   0  0  0  0  0  0  0  0  0  0  0  0
    0.3057    6.7342   80.0338 C   0  0  0  0  0  0  0  0  0  0  0  0
   -0.3263    8.0988   79.8423 C   0  0  0  0  0  0  0  0  0  0  0  0
    0.6625    9.2961   79.8881 C   0  0  0  0  0  0  0  0  0  0  0  0
    1.7704    8.8440   80.8377 O   0  0  0  0  0  0  0  0  0  0  0  0
    3.8833    7.5219   81.3680 S   0  0  0  0  0  0  0  0  0  0  0  0
    5.1620    7.1059   80.4389 O   0  0  0  0  0  0  0  0  0  0  0  0
    4.0852    8.8677   82.3047 O   0  0  0  0  0  0  0  0  0  0  0  0
    3.3583    6.1759   82.3251 N   0  0  0  0  0  0  0  0  0  0  0  0
    2.6641    5.6290   81.8158 H   0  0  0  0  0  0  0  0  0  0  0  0
    2.7599    6.7510   83.5517 C   0  0  0  0  0  0  0  0  0  0  0  0
    1.5781    5.8352   83.9760 C   0  0  0  0  0  0  0  0  0  0  0  0
    0.4356    6.7126   84.5699 C   0  0  0  0  0  0  0  0  0  0  0  0
   -0.9334    6.1574   84.1360 C   0  0  0  0  0  0  0  0  0  0  0  0
   -1.0624    4.6479   84.4497 C   0  0  0  0  0  0  0  0  0  0  0  0
   -1.6176    4.5780   85.7482 O   0  0  0  0  0  0  0  0  0  0  0  0
   -1.0763    3.3423   86.7196 S   0  0  0  0  0  0  0  0  0  0  0  0
   -1.4625    4.0263   87.9591 O   0  0  0  0  0  0  0  0  0  0  0  0
    0.3849    3.1704   86.0575 O   0  0  0  0  0  0  0  0  0  0  0  0
   -2.0731    2.0207   86.3285 N   0  0  0  0  0  0  0  0  0  0  0  0
   -2.9904    2.1485   86.7559 H   0  0  0  0  0  0  0  0  0  0  0  0
   -1.6512    1.1610   86.6797 H   0  0  0  0  0  0  0  0  0  0  0  0
   -1.1589    8.2491   78.6823 O   0  0  0  0  0  0  0  0  0  0  0  0
   -2.4876    8.5769   79.0232 C   0  0  0  0  0  0  0  0  0  0  0  0
   -2.8571    8.4291   80.1461 O   0  0  0  0  0  0  0  0  0  0  0  0
   -3.4371    9.1314   77.9431 C   0  0  0  0  0  0  0  0  0  0  0  0
   -0.3376    5.5356   79.3877 O   0  0  0  0  0  0  0  0  0  0  0  0
   -0.6290    4.2302   79.8688 C   0  0  0  0  0  0  0  0  0  0  0  0
   -1.3051    3.4237   79.3193 O   0  0  0  0  0  0  0  0  0  0  0  0
    0.0317    3.8862   81.2220 C   0  0  0  0  0  0  0  0  0  0  0  0
    2.3343    5.6755   79.1113 O   0  0  0  0  0  0  0  0  0  0  0  0
    3.9030    6.5228   77.3232 C   0  0  0  0  0  0  0  0  0  0  0  0
    2.4760    6.2802   77.8439 C   0  0  0  0  0  0  0  0  0  0  0  0
    1.5195    6.5996   77.2087 O   0  0  0  0  0  0  0  0  0  0  0  0
    0.0123   10.4046   80.4742 C   0  0  0  0  0  0  0  0  0  0  0  0
    1.0060   11.1109   81.2099 O   0  0  0  0  0  0  0  0  0  0  0  0
    0.6427   11.3196   82.5580 C   0  0  0  0  0  0  0  0  0  0  0  0
    0.0085   10.5225   83.1785 O   0  0  0  0  0  0  0  0  0  0  0  0
    1.0998   12.6257   83.1997 C   0  0  0  0  0  0  0  0  0  0  0  0
 27 25  1  0  0  0
 30 29  2  0  0  0
 25 24  1  0  0  0
 25 26  2  0  0  0
 24  4  1  0  0  0
 31 29  1  0  0  0
 29 28  1  0  0  0
 36  5  1  0  0  0
 36 37  1  0  0  0
  5  4  1  0  0  0
  5  6  1  0  0  0
  4  3  1  0  0  0
 40 38  1  0  0  0
 28  3  1  0  0  0
  3  2  1  0  0  0
 32  2  1  0  0  0
 32 34  1  0  0  0
 37 38  1  0  0  0
 38 39  2  0  0  0
  1  6  1  0  0  0
  1  2  1  0  0  0
  1  7  1  0  0  0
 33 34  1  0  0  0
 12 13  1  0  0  0
 12 10  1  0  0  0
 34 35  2  0  0  0
 13 14  1  0  0  0
 10  7  1  0  0  0
  7  9  2  0  0  0
  7  8  2  0  0  0
 14 15  1  0  0  0
 15 16  1  0  0  0
 17 16  1  0  0  0
 17 18  1  0  0  0
 21 18  1  0  0  0
 19 18  2  0  0  0
 18 20  2  0  0  0
 10 11  1  0  0  0
 21 22  1  0  0  0
 21 23  1  0  0  0
M  END
> <minimizedAffinity>
-5.81453

$$$$
4ZWX_5KZ_A_304


 40 40  0  0  0  0  0  0  0  0999 V2000
    1.2471    6.5714   81.6979 C   0  0  0  0  0  0  0  0  0  0  0  0
    0.8589    5.4436   82.5894 C   0  0  0  0  0  0  0  0  0  0  0  0
    0.6461    5.7732   84.0165 C   0  0  0  0  0  0  0  0  0  0  0  0
    0.6662    7.2110   84.4968 C   0  0  0  0  0  0  0  0  0  0  0  0
    1.0557    8.2609   83.4200 C   0  0  0  0  0  0  0  0  0  0  0  0
    2.0073    7.5175   82.4843 O   0  0  0  0  0  0  0  0  0  0  0  0
    2.4824    5.8928   80.5795 S   0  0  0  0  0  0  0  0  0  0  0  0
    3.1268    4.6474   81.4192 O   0  0  0  0  0  0  0  0  0  0  0  0
    1.7465    5.4930   79.1555 O   0  0  0  0  0  0  0  0  0  0  0  0
    3.6590    7.1420   80.3375 N   0  0  0  0  0  0  0  0  0  0  0  0
    3.6202    7.4834   79.3771 H   0  0  0  0  0  0  0  0  0  0  0  0
    4.9773    6.5248   80.6104 C   0  0  0  0  0  0  0  0  0  0  0  0
    5.9194    6.8778   79.4258 C   0  0  0  0  0  0  0  0  0  0  0  0
    5.8988    5.7150   78.3888 C   0  0  0  0  0  0  0  0  0  0  0  0
    7.1413    5.7963   77.4830 C   0  0  0  0  0  0  0  0  0  0  0  0
    8.3249    4.9870   78.0640 C   0  0  0  0  0  0  0  0  0  0  0  0
    7.9171    3.6340   78.0160 O   0  0  0  0  0  0  0  0  0  0  0  0
    8.9578    2.5727   77.2714 S   0  0  0  0  0  0  0  0  0  0  0  0
   10.1304    3.0704   77.9999 O   0  0  0  0  0  0  0  0  0  0  0  0
    8.5022    2.8543   75.7496 O   0  0  0  0  0  0  0  0  0  0  0  0
    8.4388    1.0347   77.7798 N   0  0  0  0  0  0  0  0  0  0  0  0
    8.7363    0.8765   78.7426 H   0  0  0  0  0  0  0  0  0  0  0  0
    8.8474    0.3213   77.1762 H   0  0  0  0  0  0  0  0  0  0  0  0
   -0.5216    7.6691   85.1606 O   0  0  0  0  0  0  0  0  0  0  0  0
   -1.5319    8.0334   84.2464 C   0  0  0  0  0  0  0  0  0  0  0  0
   -1.9840    7.2090   83.5149 O   0  0  0  0  0  0  0  0  0  0  0  0
   -2.0435    9.4869   84.2150 C   0  0  0  0  0  0  0  0  0  0  0  0
   -0.2917    4.7971   84.6766 O   0  0  0  0  0  0  0  0  0  0  0  0
   -0.0962    3.8148   85.6851 C   0  0  0  0  0  0  0  0  0  0  0  0
    0.8375    3.0867   85.7720 O   0  0  0  0  0  0  0  0  0  0  0  0
   -1.2244    3.7474   86.7381 C   0  0  0  0  0  0  0  0  0  0  0  0
   -0.2498    4.6893   81.9893 O   0  0  0  0  0  0  0  0  0  0  0  0
   -0.4989    2.7296   80.4165 C   0  0  0  0  0  0  0  0  0  0  0  0
    0.0841    3.3493   81.6981 C   0  0  0  0  0  0  0  0  0  0  0  0
    0.7849    2.7212   82.4295 O   0  0  0  0  0  0  0  0  0  0  0  0
    1.7799    9.3039   84.0385 C   0  0  0  0  0  0  0  0  0  0  0  0
    3.1556    8.9479   83.9463 O   0  0  0  0  0  0  0  0  0  0  0  0
    3.9301    9.9260   83.2858 C   0  0  0  0  0  0  0  0  0  0  0  0
    4.5027    9.7030   82.2635 O   0  0  0  0  0  0  0  0  0  0  0  0
    4.0076   11.3009   83.9417 C   0  0  0  0  0  0  0  0  0  0  0  0
 27 25  1  0  0  0
 30 29  2  0  0  0
 25 24  1  0  0  0
 25 26  2  0  0  0
 24  4  1  0  0  0
 31 29  1  0  0  0
 29 28  1  0  0  0
 36  5  1  0  0  0
 36 37  1  0  0  0
  5  4  1  0  0  0
  5  6  1  0  0  0
  4  3  1  0  0  0
 40 38  1  0  0  0
 28  3  1  0  0  0
  3  2  1  0  0  0
 32  2  1  0  0  0
 32 34  1  0  0  0
 37 38  1  0  0  0
 38 39  2  0  0  0
  1  6  1  0  0  0
  1  2  1  0  0  0
  1  7  1  0  0  0
 33 34  1  0  0  0
 12 13  1  0  0  0
 12 10  1  0  0  0
 34 35  2  0  0  0
 13 14  1  0  0  0
 10  7  1  0  0  0
  7  9  2  0  0  0
  7  8  2  0  0  0
 14 15  1  0  0  0
 15 16  1  0  0  0
 17 16  1  0  0  0
 17 18  1  0  0  0
 21 18  1  0  0  0
 19 18  2  0  0  0
 18 20  2  0  0  0
 10 11  1  0  0  0
 21 22  1  0  0  0
 21 23  1  0  0  0
M  END
> <minimizedAffinity>
-5.79932

$$$$
4ZWX_5KZ_A_304


 40 40  0  0  0  0  0  0  0  0999 V2000
    1.2529    6.6843   81.6320 C   0  0  0  0  0  0  0  0  0  0  0  0
    0.8811    5.5396   82.5088 C   0  0  0  0  0  0  0  0  0  0  0  0
    0.6828    5.8441   83.9436 C   0  0  0  0  0  0  0  0  0  0  0  0
    0.7006    7.2738   84.4476 C   0  0  0  0  0  0  0  0  0  0  0  0
    1.0720    8.3437   83.3842 C   0  0  0  0  0  0  0  0  0  0  0  0
    2.0168    7.6214   82.4254 O   0  0  0  0  0  0  0  0  0  0  0  0
    2.4790    6.0315   80.4884 S   0  0  0  0  0  0  0  0  0  0  0  0
    3.2566    4.8887   81.3607 O   0  0  0  0  0  0  0  0  0  0  0  0
    1.7057    5.4946   79.1308 O   0  0  0  0  0  0  0  0  0  0  0  0
    3.5443    7.3460   80.1137 N   0  0  0  0  0  0  0  0  0  0  0  0
    3.3903    7.6645   79.1570 H   0  0  0  0  0  0  0  0  0  0  0  0
    4.9196    6.8177   80.2642 C   0  0  0  0  0  0  0  0  0  0  0  0
    5.4056    6.3569   78.8618 C   0  0  0  0  0  0  0  0  0  0  0  0
    6.3629    5.1382   79.0246 C   0  0  0  0  0  0  0  0  0  0  0  0
    7.4761    5.1985   77.9625 C   0  0  0  0  0  0  0  0  0  0  0  0
    8.7637    5.8485   78.5218 C   0  0  0  0  0  0  0  0  0  0  0  0
    8.5419    5.9920   79.9108 O   0  0  0  0  0  0  0  0  0  0  0  0
    9.6931    6.8375   80.7613 S   0  0  0  0  0  0  0  0  0  0  0  0
    9.3151    6.2373   82.0458 O   0  0  0  0  0  0  0  0  0  0  0  0
    9.3590    8.3044   80.1786 O   0  0  0  0  0  0  0  0  0  0  0  0
   11.1776    6.2724   80.1528 N   0  0  0  0  0  0  0  0  0  0  0  0
   11.3699    5.3454   80.5325 H   0  0  0  0  0  0  0  0  0  0  0  0
   11.9229    6.9130   80.4257 H   0  0  0  0  0  0  0  0  0  0  0  0
   -0.4820    7.7141   85.1324 O   0  0  0  0  0  0  0  0  0  0  0  0
   -1.5170    8.0537   84.2366 C   0  0  0  0  0  0  0  0  0  0  0  0
   -1.9900    7.2093   83.5419 O   0  0  0  0  0  0  0  0  0  0  0  0
   -2.0282    9.5065   84.1778 C   0  0  0  0  0  0  0  0  0  0  0  0
   -0.2420    4.8519   84.5978 O   0  0  0  0  0  0  0  0  0  0  0  0
   -0.0493    3.9102   85.6449 C   0  0  0  0  0  0  0  0  0  0  0  0
    0.8839    3.1859   85.7628 O   0  0  0  0  0  0  0  0  0  0  0  0
   -1.1801    3.8848   86.6969 C   0  0  0  0  0  0  0  0  0  0  0  0
   -0.2303    4.7892   81.9088 O   0  0  0  0  0  0  0  0  0  0  0  0
   -0.5857    2.7751   80.4278 C   0  0  0  0  0  0  0  0  0  0  0  0
    0.0923    3.4424   81.6367 C   0  0  0  0  0  0  0  0  0  0  0  0
    0.8558    2.8447   82.3297 O   0  0  0  0  0  0  0  0  0  0  0  0
    1.7975    9.3803   84.0118 C   0  0  0  0  0  0  0  0  0  0  0  0
    2.2916   10.2141   82.9685 O   0  0  0  0  0  0  0  0  0  0  0  0
    2.3204   11.5791   83.3271 C   0  0  0  0  0  0  0  0  0  0  0  0
    3.3234   12.1289   83.6651 O   0  0  0  0  0  0  0  0  0  0  0  0
    0.9970   12.3351   83.2651 C   0  0  0  0  0  0  0  0  0  0  0  0
 27 25  1  0  0  0
 30 29  2  0  0  0
 25 24  1  0  0  0
 25 26  2  0  0  0
 24  4  1  0  0  0
 31 29  1  0  0  0
 29 28  1  0  0  0
 36  5  1  0  0  0
 36 37  1  0  0  0
  5  4  1  0  0  0
  5  6  1  0  0  0
  4  3  1  0  0  0
 40 38  1  0  0  0
 28  3  1  0  0  0
  3  2  1  0  0  0
 32  2  1  0  0  0
 32 34  1  0  0  0
 37 38  1  0  0  0
 38 39  2  0  0  0
  1  6  1  0  0  0
  1  2  1  0  0  0
  1  7  1  0  0  0
 33 34  1  0  0  0
 12 13  1  0  0  0
 12 10  1  0  0  0
 34 35  2  0  0  0
 13 14  1  0  0  0
 10  7  1  0  0  0
  7  9  2  0  0  0
  7  8  2  0  0  0
 14 15  1  0  0  0
 15 16  1  0  0  0
 17 16  1  0  0  0
 17 18  1  0  0  0
 21 18  1  0  0  0
 19 18  2  0  0  0
 18 20  2  0  0  0
 10 11  1  0  0  0
 21 22  1  0  0  0
 21 23  1  0  0  0
M  END
> <minimizedAffinity>
-5.78356

$$$$
4ZWX_5KZ_A_304


 40 40  0  0  0  0  0  0  0  0999 V2000
    2.4520    6.2333   82.2097 C   0  0  0  0  0  0  0  0  0  0  0  0
    1.6136    7.1095   81.3454 C   0  0  0  0  0  0  0  0  0  0  0  0
    0.1490    6.9137   81.4301 C   0  0  0  0  0  0  0  0  0  0  0  0
   -0.4555    5.9831   82.4631 C   0  0  0  0  0  0  0  0  0  0  0  0
    0.5708    5.1744   83.3033 C   0  0  0  0  0  0  0  0  0  0  0  0
    1.7610    4.9728   82.3671 O   0  0  0  0  0  0  0  0  0  0  0  0
    3.8751    5.7894   81.2022 S   0  0  0  0  0  0  0  0  0  0  0  0
    4.2154    4.2579   81.6609 O   0  0  0  0  0  0  0  0  0  0  0  0
    3.4819    5.9905   79.6103 O   0  0  0  0  0  0  0  0  0  0  0  0
    5.1532    6.8651   81.6637 N   0  0  0  0  0  0  0  0  0  0  0  0
    4.7679    7.7295   82.0442 H   0  0  0  0  0  0  0  0  0  0  0  0
    5.9221    7.1449   80.4294 C   0  0  0  0  0  0  0  0  0  0  0  0
    7.1265    6.1635   80.3893 C   0  0  0  0  0  0  0  0  0  0  0  0
    7.6030    5.9947   78.9154 C   0  0  0  0  0  0  0  0  0  0  0  0
    7.0338    4.6915   78.3249 C   0  0  0  0  0  0  0  0  0  0  0  0
    7.9983    4.0650   77.2902 C   0  0  0  0  0  0  0  0  0  0  0  0
    9.1686    4.8571   77.3366 O   0  0  0  0  0  0  0  0  0  0  0  0
   10.6032    4.0468   77.5579 S   0  0  0  0  0  0  0  0  0  0  0  0
   10.9796    4.8481   78.7281 O   0  0  0  0  0  0  0  0  0  0  0  0
   11.1397    4.1375   76.0391 O   0  0  0  0  0  0  0  0  0  0  0  0
   10.1423    2.4544   77.9388 N   0  0  0  0  0  0  0  0  0  0  0  0
    9.8068    2.4186   78.9014 H   0  0  0  0  0  0  0  0  0  0  0  0
   10.9454    1.8341   77.8354 H   0  0  0  0  0  0  0  0  0  0  0  0
   -1.4050    6.5744   83.3632 O   0  0  0  0  0  0  0  0  0  0  0  0
   -0.8401    7.6280   84.1115 C   0  0  0  0  0  0  0  0  0  0  0  0
    0.1473    7.4297   84.7479 O   0  0  0  0  0  0  0  0  0  0  0  0
   -1.5000    9.0206   84.0858 C   0  0  0  0  0  0  0  0  0  0  0  0
   -0.5999    8.1627   81.0469 O   0  0  0  0  0  0  0  0  0  0  0  0
   -1.2781    8.5451   79.8578 C   0  0  0  0  0  0  0  0  0  0  0  0
   -1.7361    7.8034   79.0518 O   0  0  0  0  0  0  0  0  0  0  0  0
   -1.4108   10.0715   79.6611 C   0  0  0  0  0  0  0  0  0  0  0  0
    2.0286    8.5103   81.4996 O   0  0  0  0  0  0  0  0  0  0  0  0
    3.7011   10.0734   80.4340 C   0  0  0  0  0  0  0  0  0  0  0  0
    2.5403    9.0717   80.3100 C   0  0  0  0  0  0  0  0  0  0  0  0
    2.0775    8.7841   79.2500 O   0  0  0  0  0  0  0  0  0  0  0  0
    0.0252    3.9043   83.5935 C   0  0  0  0  0  0  0  0  0  0  0  0
   -0.4408    3.9644   84.9378 O   0  0  0  0  0  0  0  0  0  0  0  0
   -0.2235    2.7627   85.6457 C   0  0  0  0  0  0  0  0  0  0  0  0
    0.8318    2.2070   85.6507 O   0  0  0  0  0  0  0  0  0  0  0  0
   -1.4106    2.1932   86.4159 C   0  0  0  0  0  0  0  0  0  0  0  0
 27 25  1  0  0  0
 30 29  2  0  0  0
 25 24  1  0  0  0
 25 26  2  0  0  0
 24  4  1  0  0  0
 31 29  1  0  0  0
 29 28  1  0  0  0
 36  5  1  0  0  0
 36 37  1  0  0  0
  5  4  1  0  0  0
  5  6  1  0  0  0
  4  3  1  0  0  0
 40 38  1  0  0  0
 28  3  1  0  0  0
  3  2  1  0  0  0
 32  2  1  0  0  0
 32 34  1  0  0  0
 37 38  1  0  0  0
 38 39  2  0  0  0
  1  6  1  0  0  0
  1  2  1  0  0  0
  1  7  1  0  0  0
 33 34  1  0  0  0
 12 13  1  0  0  0
 12 10  1  0  0  0
 34 35  2  0  0  0
 13 14  1  0  0  0
 10  7  1  0  0  0
  7  9  2  0  0  0
  7  8  2  0  0  0
 14 15  1  0  0  0
 15 16  1  0  0  0
 17 16  1  0  0  0
 17 18  1  0  0  0
 21 18  1  0  0  0
 19 18  2  0  0  0
 18 20  2  0  0  0
 10 11  1  0  0  0
 21 22  1  0  0  0
 21 23  1  0  0  0
M  END
> <minimizedAffinity>
-5.75007

$$$$
4ZWX_5KZ_A_304


 40 40  0  0  0  0  0  0  0  0999 V2000
    1.2875    6.6186   81.7166 C   0  0  0  0  0  0  0  0  0  0  0  0
    0.8651    5.4708   82.5661 C   0  0  0  0  0  0  0  0  0  0  0  0
    0.5664    5.7734   83.9838 C   0  0  0  0  0  0  0  0  0  0  0  0
    0.5387    7.2030   84.4875 C   0  0  0  0  0  0  0  0  0  0  0  0
    0.9741    8.2760   83.4519 C   0  0  0  0  0  0  0  0  0  0  0  0
    1.9880    7.5612   82.5604 O   0  0  0  0  0  0  0  0  0  0  0  0
    2.5941    5.9754   80.6600 S   0  0  0  0  0  0  0  0  0  0  0  0
    3.4860    7.2956   80.2950 O   0  0  0  0  0  0  0  0  0  0  0  0
    3.3889    4.7747   81.4700 O   0  0  0  0  0  0  0  0  0  0  0  0
    1.8132    5.3532   79.2436 N   0  0  0  0  0  0  0  0  0  0  0  0
    2.4791    4.8336   78.6718 H   0  0  0  0  0  0  0  0  0  0  0  0
    1.3076    6.5306   78.5010 C   0  0  0  0  0  0  0  0  0  0  0  0
    2.0654    6.5966   77.1457 C   0  0  0  0  0  0  0  0  0  0  0  0
    1.7453    7.9503   76.4435 C   0  0  0  0  0  0  0  0  0  0  0  0
    0.4570    8.5554   77.0307 C   0  0  0  0  0  0  0  0  0  0  0  0
    0.7093    9.9564   77.6366 C   0  0  0  0  0  0  0  0  0  0  0  0
   -0.3271   10.1530   78.5781 O   0  0  0  0  0  0  0  0  0  0  0  0
    0.1393   10.3637   80.1598 S   0  0  0  0  0  0  0  0  0  0  0  0
   -0.8430    9.4017   80.6723 O   0  0  0  0  0  0  0  0  0  0  0  0
    0.1020   11.9765   80.1836 O   0  0  0  0  0  0  0  0  0  0  0  0
    1.7427    9.7984   80.2134 N   0  0  0  0  0  0  0  0  0  0  0  0
    1.7443    8.7785   80.1975 H   0  0  0  0  0  0  0  0  0  0  0  0
    2.1902   10.1257   81.0696 H   0  0  0  0  0  0  0  0  0  0  0  0
   -0.6914    7.6340   85.0894 O   0  0  0  0  0  0  0  0  0  0  0  0
   -1.6432    8.0270   84.1257 C   0  0  0  0  0  0  0  0  0  0  0  0
   -2.0516    7.2244   83.3456 O   0  0  0  0  0  0  0  0  0  0  0  0
   -2.1489    9.4827   84.1030 C   0  0  0  0  0  0  0  0  0  0  0  0
   -0.3935    4.7739   84.5733 O   0  0  0  0  0  0  0  0  0  0  0  0
   -0.2099    3.6789   85.4607 C   0  0  0  0  0  0  0  0  0  0  0  0
    0.8327    3.1952   85.7585 O   0  0  0  0  0  0  0  0  0  0  0  0
   -1.5168    3.1233   86.0683 C   0  0  0  0  0  0  0  0  0  0  0  0
   -0.1967    4.7121   81.8914 O   0  0  0  0  0  0  0  0  0  0  0  0
   -0.5394    2.6520   80.4721 C   0  0  0  0  0  0  0  0  0  0  0  0
    0.1530    3.3671   81.6448 C   0  0  0  0  0  0  0  0  0  0  0  0
    0.9497    2.8070   82.3318 O   0  0  0  0  0  0  0  0  0  0  0  0
    1.6469    9.3179   84.1276 C   0  0  0  0  0  0  0  0  0  0  0  0
    2.2467   10.1280   83.1217 O   0  0  0  0  0  0  0  0  0  0  0  0
    2.4922   11.4480   83.5575 C   0  0  0  0  0  0  0  0  0  0  0  0
    3.5361   11.7805   84.0292 O   0  0  0  0  0  0  0  0  0  0  0  0
    1.3515   12.4483   83.3997 C   0  0  0  0  0  0  0  0  0  0  0  0
 27 25  1  0  0  0
 30 29  2  0  0  0
 25 24  1  0  0  0
 25 26  2  0  0  0
 24  4  1  0  0  0
 31 29  1  0  0  0
 29 28  1  0  0  0
 36  5  1  0  0  0
 36 37  1  0  0  0
  5  4  1  0  0  0
  5  6  1  0  0  0
  4  3  1  0  0  0
 40 38  1  0  0  0
 28  3  1  0  0  0
  3  2  1  0  0  0
 32  2  1  0  0  0
 32 34  1  0  0  0
 37 38  1  0  0  0
 38 39  2  0  0  0
  1  6  1  0  0  0
  1  2  1  0  0  0
  1  7  1  0  0  0
 33 34  1  0  0  0
 12 13  1  0  0  0
 12 10  1  0  0  0
 34 35  2  0  0  0
 13 14  1  0  0  0
 10  7  1  0  0  0
  7  9  2  0  0  0
  7  8  2  0  0  0
 14 15  1  0  0  0
 15 16  1  0  0  0
 17 16  1  0  0  0
 17 18  1  0  0  0
 21 18  1  0  0  0
 19 18  2  0  0  0
 18 20  2  0  0  0
 10 11  1  0  0  0
 21 22  1  0  0  0
 21 23  1  0  0  0
M  END
> <minimizedAffinity>
-5.73751

$$$$
