1BN1_AL5_A_555


 24 25  0  0  0  0  0  0  0  0999 V2000
   -4.5068    4.8351   13.7314 S   0  0  0  0  0  0  0  0  0  0  0  0
   -5.7812    5.2705   13.2636 O   0  0  0  0  0  0  0  0  0  0  0  0
   -4.0627    5.9203   14.5447 O   0  0  0  0  0  0  0  0  0  0  0  0
   -5.6775    2.0071   16.4040 C   0  0  0  0  0  0  0  0  0  0  0  0
   -4.3697    1.6621   16.1273 C   0  0  0  0  0  0  0  0  0  0  0  0
   -3.8192    2.5207   15.2005 C   0  0  0  0  0  0  0  0  0  0  0  0
   -4.7233    3.4917   14.8032 C   0  0  0  0  0  0  0  0  0  0  0  0
   -6.2645    3.3853   15.5315 S   0  0  0  0  0  0  0  0  0  0  0  0
   -7.9581    1.1827   17.0223 O   0  0  0  0  0  0  0  0  0  0  0  0
   -6.6048    1.9230   18.7923 O   0  0  0  0  0  0  0  0  0  0  0  0
   -5.9707   -0.2486   17.7017 N   0  0  0  0  0  0  0  0  0  0  0  0
   -6.6359    1.1765   17.5859 S   0  0  0  0  0  0  0  0  0  0  0  0
   -6.0293   -0.7253   16.8019 H   0  0  0  0  0  0  0  0  0  0  0  0
   -6.4608   -0.7961   18.4091 H   0  0  0  0  0  0  0  0  0  0  0  0
   -3.5443    4.5084   12.6446 N   0  0  0  0  0  0  0  0  0  0  0  0
   -3.1348    5.3787   12.3053 H   0  0  0  0  0  0  0  0  0  0  0  0
   -4.1491    3.8105   11.5106 C   0  0  0  0  0  0  0  0  0  0  0  0
   -3.8318    2.3306   11.4915 C   0  0  0  0  0  0  0  0  0  0  0  0
   -2.5125    1.8595   11.3763 C   0  0  0  0  0  0  0  0  0  0  0  0
   -2.2655    0.4858   11.3663 C   0  0  0  0  0  0  0  0  0  0  0  0
   -3.3317   -0.4230   11.4660 C   0  0  0  0  0  0  0  0  0  0  0  0
   -4.6355    0.0509   11.5781 C   0  0  0  0  0  0  0  0  0  0  0  0
   -4.8826    1.4203   11.5919 C   0  0  0  0  0  0  0  0  0  0  0  0
   -3.0952   -1.9486   11.4339 C   0  0  0  0  0  0  0  0  0  0  0  0
  4 12  1  0  0  0
  4  5  2  0  0  0
  4  8  1  0  0  0
 17 18  1  0  0  0
 17 15  1  0  0  0
 18 19  2  0  0  0
 18 23  1  0  0  0
 19 20  1  0  0  0
 20 21  2  0  0  0
 21 22  1  0  0  0
 21 24  1  0  0  0
 22 23  2  0  0  0
  9 12  2  0  0  0
 10 12  2  0  0  0
 11 12  1  0  0  0
  5  6  1  0  0  0
  6  7  2  0  0  0
  7  8  1  0  0  0
  7  1  1  0  0  0
  1  2  2  0  0  0
  1  3  2  0  0  0
  1 15  1  0  0  0
 11 13  1  0  0  0
 11 14  1  0  0  0
 15 16  1  0  0  0
M  END
> <minimizedAffinity>
-7.85091

$$$$
1BN1_AL5_A_555


 24 25  0  0  0  0  0  0  0  0999 V2000
   -4.4758    5.6487   12.8815 S   0  0  0  0  0  0  0  0  0  0  0  0
   -5.5919    6.1003   12.1181 O   0  0  0  0  0  0  0  0  0  0  0  0
   -4.1172    6.7930   13.6551 O   0  0  0  0  0  0  0  0  0  0  0  0
   -5.0354    2.5539   15.4542 C   0  0  0  0  0  0  0  0  0  0  0  0
   -6.2930    3.1140   15.3513 C   0  0  0  0  0  0  0  0  0  0  0  0
   -6.2763    4.2130   14.5198 C   0  0  0  0  0  0  0  0  0  0  0  0
   -5.0089    4.4529   14.0154 C   0  0  0  0  0  0  0  0  0  0  0  0
   -3.8036    3.3631   14.5415 S   0  0  0  0  0  0  0  0  0  0  0  0
   -3.3151    1.1768   16.6406 O   0  0  0  0  0  0  0  0  0  0  0  0
   -5.0180   -0.0080   15.5411 O   0  0  0  0  0  0  0  0  0  0  0  0
   -5.6561    1.2333   17.6290 N   0  0  0  0  0  0  0  0  0  0  0  0
   -4.7239    1.1108   16.3630 S   0  0  0  0  0  0  0  0  0  0  0  0
   -5.3884    2.0555   18.1700 H   0  0  0  0  0  0  0  0  0  0  0  0
   -5.5563    0.3987   18.2068 H   0  0  0  0  0  0  0  0  0  0  0  0
   -3.3451    5.1435   12.0565 N   0  0  0  0  0  0  0  0  0  0  0  0
   -2.7851    5.9411   11.7555 H   0  0  0  0  0  0  0  0  0  0  0  0
   -3.7665    4.4016   10.8687 C   0  0  0  0  0  0  0  0  0  0  0  0
   -3.5834    2.9059   11.0118 C   0  0  0  0  0  0  0  0  0  0  0  0
   -2.3072    2.3171   11.0373 C   0  0  0  0  0  0  0  0  0  0  0  0
   -2.1849    0.9335   11.1744 C   0  0  0  0  0  0  0  0  0  0  0  0
   -3.3329    0.1314   11.2814 C   0  0  0  0  0  0  0  0  0  0  0  0
   -4.5932    0.7214   11.2535 C   0  0  0  0  0  0  0  0  0  0  0  0
   -4.7161    2.1011   11.1207 C   0  0  0  0  0  0  0  0  0  0  0  0
   -3.2334   -1.4041   11.4100 C   0  0  0  0  0  0  0  0  0  0  0  0
  4 12  1  0  0  0
  4  5  2  0  0  0
  4  8  1  0  0  0
 17 18  1  0  0  0
 17 15  1  0  0  0
 18 19  2  0  0  0
 18 23  1  0  0  0
 19 20  1  0  0  0
 20 21  2  0  0  0
 21 22  1  0  0  0
 21 24  1  0  0  0
 22 23  2  0  0  0
  9 12  2  0  0  0
 10 12  2  0  0  0
 11 12  1  0  0  0
  5  6  1  0  0  0
  6  7  2  0  0  0
  7  8  1  0  0  0
  7  1  1  0  0  0
  1  2  2  0  0  0
  1  3  2  0  0  0
  1 15  1  0  0  0
 11 13  1  0  0  0
 11 14  1  0  0  0
 15 16  1  0  0  0
M  END
> <minimizedAffinity>
-7.47782

$$$$
1BN1_AL5_A_555


 24 25  0  0  0  0  0  0  0  0999 V2000
   -3.7644    2.7218   12.9081 S   0  0  0  0  0  0  0  0  0  0  0  0
   -3.4434    1.3795   12.5505 O   0  0  0  0  0  0  0  0  0  0  0  0
   -4.5664    3.1735   11.8176 O   0  0  0  0  0  0  0  0  0  0  0  0
   -5.9705    1.9768   16.2380 C   0  0  0  0  0  0  0  0  0  0  0  0
   -6.4145    3.2198   15.8332 C   0  0  0  0  0  0  0  0  0  0  0  0
   -5.7385    3.6423   14.7089 C   0  0  0  0  0  0  0  0  0  0  0  0
   -4.8044    2.7080   14.2931 C   0  0  0  0  0  0  0  0  0  0  0  0
   -4.7120    1.3005   15.2562 S   0  0  0  0  0  0  0  0  0  0  0  0
   -8.0557    1.0075   17.2258 O   0  0  0  0  0  0  0  0  0  0  0  0
   -6.5118    1.9172   18.7429 O   0  0  0  0  0  0  0  0  0  0  0  0
   -5.8787   -0.2417   17.6267 N   0  0  0  0  0  0  0  0  0  0  0  0
   -6.6666    1.1234   17.5768 S   0  0  0  0  0  0  0  0  0  0  0  0
   -6.0356   -0.7566   16.7603 H   0  0  0  0  0  0  0  0  0  0  0  0
   -6.2091   -0.7963   18.4164 H   0  0  0  0  0  0  0  0  0  0  0  0
   -2.5750    3.5867   13.1353 N   0  0  0  0  0  0  0  0  0  0  0  0
   -2.5350    3.8248   14.1263 H   0  0  0  0  0  0  0  0  0  0  0  0
   -2.5921    4.8285   12.3630 C   0  0  0  0  0  0  0  0  0  0  0  0
   -2.2994    6.0512   13.2058 C   0  0  0  0  0  0  0  0  0  0  0  0
   -1.1995    6.8853   12.9404 C   0  0  0  0  0  0  0  0  0  0  0  0
   -0.9692    8.0047   13.7417 C   0  0  0  0  0  0  0  0  0  0  0  0
   -1.8305    8.2944   14.8126 C   0  0  0  0  0  0  0  0  0  0  0  0
   -2.9166    7.4630   15.0703 C   0  0  0  0  0  0  0  0  0  0  0  0
   -3.1492    6.3488   14.2698 C   0  0  0  0  0  0  0  0  0  0  0  0
   -1.5906    9.5110   15.7327 C   0  0  0  0  0  0  0  0  0  0  0  0
  4 12  1  0  0  0
  4  5  2  0  0  0
  4  8  1  0  0  0
 17 18  1  0  0  0
 17 15  1  0  0  0
 18 19  2  0  0  0
 18 23  1  0  0  0
 19 20  1  0  0  0
 20 21  2  0  0  0
 21 22  1  0  0  0
 21 24  1  0  0  0
 22 23  2  0  0  0
  9 12  2  0  0  0
 10 12  2  0  0  0
 11 12  1  0  0  0
  5  6  1  0  0  0
  6  7  2  0  0  0
  7  8  1  0  0  0
  7  1  1  0  0  0
  1  2  2  0  0  0
  1  3  2  0  0  0
  1 15  1  0  0  0
 11 13  1  0  0  0
 11 14  1  0  0  0
 15 16  1  0  0  0
M  END
> <minimizedAffinity>
-7.07478

$$$$
1BN1_AL5_A_555


 24 25  0  0  0  0  0  0  0  0999 V2000
   -4.8987    5.5253   12.8133 S   0  0  0  0  0  0  0  0  0  0  0  0
   -4.9868    4.9469   11.5132 O   0  0  0  0  0  0  0  0  0  0  0  0
   -6.0159    6.4119   12.8591 O   0  0  0  0  0  0  0  0  0  0  0  0
   -5.0731    2.2808   15.2532 C   0  0  0  0  0  0  0  0  0  0  0  0
   -6.1643    3.0315   15.6428 C   0  0  0  0  0  0  0  0  0  0  0  0
   -6.2410    4.2017   14.9189 C   0  0  0  0  0  0  0  0  0  0  0  0
   -5.2086    4.3036   14.0013 C   0  0  0  0  0  0  0  0  0  0  0  0
   -4.1133    2.9930   13.9975 S   0  0  0  0  0  0  0  0  0  0  0  0
   -3.4609    0.8871   16.5654 O   0  0  0  0  0  0  0  0  0  0  0  0
   -4.6169   -0.2075   14.8397 O   0  0  0  0  0  0  0  0  0  0  0  0
   -5.9395    0.4204   16.8802 N   0  0  0  0  0  0  0  0  0  0  0  0
   -4.7297    0.7146   15.9123 S   0  0  0  0  0  0  0  0  0  0  0  0
   -5.9584    1.1192   17.6229 H   0  0  0  0  0  0  0  0  0  0  0  0
   -5.8299   -0.5076   17.2891 H   0  0  0  0  0  0  0  0  0  0  0  0
   -3.6101    6.2208   13.0783 N   0  0  0  0  0  0  0  0  0  0  0  0
   -2.8481    5.5719   12.8817 H   0  0  0  0  0  0  0  0  0  0  0  0
   -3.4678    6.6958   14.4541 C   0  0  0  0  0  0  0  0  0  0  0  0
   -2.3477    7.7005   14.6183 C   0  0  0  0  0  0  0  0  0  0  0  0
   -1.3042    7.8029   13.6821 C   0  0  0  0  0  0  0  0  0  0  0  0
   -0.2932    8.7464   13.8716 C   0  0  0  0  0  0  0  0  0  0  0  0
   -0.3154    9.5874   14.9962 C   0  0  0  0  0  0  0  0  0  0  0  0
   -1.3510    9.4790   15.9198 C   0  0  0  0  0  0  0  0  0  0  0  0
   -2.3614    8.5412   15.7300 C   0  0  0  0  0  0  0  0  0  0  0  0
    0.8000   10.6251   15.2480 C   0  0  0  0  0  0  0  0  0  0  0  0
  4 12  1  0  0  0
  4  5  2  0  0  0
  4  8  1  0  0  0
 17 18  1  0  0  0
 17 15  1  0  0  0
 18 19  2  0  0  0
 18 23  1  0  0  0
 19 20  1  0  0  0
 20 21  2  0  0  0
 21 22  1  0  0  0
 21 24  1  0  0  0
 22 23  2  0  0  0
  9 12  2  0  0  0
 10 12  2  0  0  0
 11 12  1  0  0  0
  5  6  1  0  0  0
  6  7  2  0  0  0
  7  8  1  0  0  0
  7  1  1  0  0  0
  1  2  2  0  0  0
  1  3  2  0  0  0
  1 15  1  0  0  0
 11 13  1  0  0  0
 11 14  1  0  0  0
 15 16  1  0  0  0
M  END
> <minimizedAffinity>
-7.03220

$$$$
1BN1_AL5_A_555


 24 25  0  0  0  0  0  0  0  0999 V2000
   -3.6168    5.1153   12.2843 S   0  0  0  0  0  0  0  0  0  0  0  0
   -2.6376    6.0527   11.8425 O   0  0  0  0  0  0  0  0  0  0  0  0
   -4.7553    5.4199   11.4797 O   0  0  0  0  0  0  0  0  0  0  0  0
   -3.1869    1.1983   11.2931 C   0  0  0  0  0  0  0  0  0  0  0  0
   -1.8853    1.6513   11.3737 C   0  0  0  0  0  0  0  0  0  0  0  0
   -1.8491    2.9940   11.6823 C   0  0  0  0  0  0  0  0  0  0  0  0
   -3.1222    3.5192   11.8284 C   0  0  0  0  0  0  0  0  0  0  0  0
   -4.3951    2.4064   11.5863 S   0  0  0  0  0  0  0  0  0  0  0  0
   -4.6645   -0.7256   11.9082 O   0  0  0  0  0  0  0  0  0  0  0  0
   -2.4545   -1.2581   11.3207 O   0  0  0  0  0  0  0  0  0  0  0  0
   -3.9782   -0.5079    9.4706 N   0  0  0  0  0  0  0  0  0  0  0  0
   -3.5844   -0.4629   10.9970 S   0  0  0  0  0  0  0  0  0  0  0  0
   -4.7941    0.0836    9.3125 H   0  0  0  0  0  0  0  0  0  0  0  0
   -4.1973   -1.4677    9.2041 H   0  0  0  0  0  0  0  0  0  0  0  0
   -3.9129    5.1930   13.7405 N   0  0  0  0  0  0  0  0  0  0  0  0
   -3.5114    6.0571   14.1047 H   0  0  0  0  0  0  0  0  0  0  0  0
   -3.3752    4.0734   14.5127 C   0  0  0  0  0  0  0  0  0  0  0  0
   -4.4450    3.2999   15.2531 C   0  0  0  0  0  0  0  0  0  0  0  0
   -5.7753    3.7503   15.3116 C   0  0  0  0  0  0  0  0  0  0  0  0
   -6.7302    3.0032   16.0029 C   0  0  0  0  0  0  0  0  0  0  0  0
   -6.3627    1.8079   16.6422 C   0  0  0  0  0  0  0  0  0  0  0  0
   -5.0432    1.3691   16.5814 C   0  0  0  0  0  0  0  0  0  0  0  0
   -4.0911    2.1113   15.8893 C   0  0  0  0  0  0  0  0  0  0  0  0
   -7.3890    0.9702   17.4354 C   0  0  0  0  0  0  0  0  0  0  0  0
  4 12  1  0  0  0
  4  5  2  0  0  0
  4  8  1  0  0  0
 17 18  1  0  0  0
 17 15  1  0  0  0
 18 19  2  0  0  0
 18 23  1  0  0  0
 19 20  1  0  0  0
 20 21  2  0  0  0
 21 22  1  0  0  0
 21 24  1  0  0  0
 22 23  2  0  0  0
  9 12  2  0  0  0
 10 12  2  0  0  0
 11 12  1  0  0  0
  5  6  1  0  0  0
  6  7  2  0  0  0
  7  8  1  0  0  0
  7  1  1  0  0  0
  1  2  2  0  0  0
  1  3  2  0  0  0
  1 15  1  0  0  0
 11 13  1  0  0  0
 11 14  1  0  0  0
 15 16  1  0  0  0
M  END
> <minimizedAffinity>
-6.87468

$$$$
1BN1_AL5_A_555


 24 25  0  0  0  0  0  0  0  0999 V2000
   -2.4137    5.6752   11.2595 S   0  0  0  0  0  0  0  0  0  0  0  0
   -1.1407    6.1667   11.6725 O   0  0  0  0  0  0  0  0  0  0  0  0
   -2.5012    6.0841    9.8951 O   0  0  0  0  0  0  0  0  0  0  0  0
   -3.0755    1.6665   11.2139 C   0  0  0  0  0  0  0  0  0  0  0  0
   -1.7092    1.7618   11.3871 C   0  0  0  0  0  0  0  0  0  0  0  0
   -1.3050    3.0794   11.3998 C   0  0  0  0  0  0  0  0  0  0  0  0
   -2.3751    3.9437   11.2382 C   0  0  0  0  0  0  0  0  0  0  0  0
   -3.8949    3.1860   11.0562 S   0  0  0  0  0  0  0  0  0  0  0  0
   -4.5966    0.1477   12.4957 O   0  0  0  0  0  0  0  0  0  0  0  0
   -2.9609   -0.8940   11.1721 O   0  0  0  0  0  0  0  0  0  0  0  0
   -4.8658    0.2158    9.9692 N   0  0  0  0  0  0  0  0  0  0  0  0
   -3.9185    0.1516   11.2283 S   0  0  0  0  0  0  0  0  0  0  0  0
   -5.5245    0.9869   10.0782 H   0  0  0  0  0  0  0  0  0  0  0  0
   -5.3799   -0.6612    9.8855 H   0  0  0  0  0  0  0  0  0  0  0  0
   -3.5497    6.1794   12.0779 N   0  0  0  0  0  0  0  0  0  0  0  0
   -3.7373    7.1448   11.8074 H   0  0  0  0  0  0  0  0  0  0  0  0
   -3.3006    6.1442   13.5185 C   0  0  0  0  0  0  0  0  0  0  0  0
   -4.1397    5.1094   14.2370 C   0  0  0  0  0  0  0  0  0  0  0  0
   -5.5256    5.2711   14.4075 C   0  0  0  0  0  0  0  0  0  0  0  0
   -6.2611    4.2896   15.0737 C   0  0  0  0  0  0  0  0  0  0  0  0
   -5.6183    3.1466   15.5766 C   0  0  0  0  0  0  0  0  0  0  0  0
   -4.2454    2.9943   15.4056 C   0  0  0  0  0  0  0  0  0  0  0  0
   -3.5118    3.9704   14.7382 C   0  0  0  0  0  0  0  0  0  0  0  0
   -6.3983    2.0538   16.3393 C   0  0  0  0  0  0  0  0  0  0  0  0
  4 12  1  0  0  0
  4  5  2  0  0  0
  4  8  1  0  0  0
 17 18  1  0  0  0
 17 15  1  0  0  0
 18 19  2  0  0  0
 18 23  1  0  0  0
 19 20  1  0  0  0
 20 21  2  0  0  0
 21 22  1  0  0  0
 21 24  1  0  0  0
 22 23  2  0  0  0
  9 12  2  0  0  0
 10 12  2  0  0  0
 11 12  1  0  0  0
  5  6  1  0  0  0
  6  7  2  0  0  0
  7  8  1  0  0  0
  7  1  1  0  0  0
  1  2  2  0  0  0
  1  3  2  0  0  0
  1 15  1  0  0  0
 11 13  1  0  0  0
 11 14  1  0  0  0
 15 16  1  0  0  0
M  END
> <minimizedAffinity>
-6.64581

$$$$
1BN1_AL5_A_555


 24 25  0  0  0  0  0  0  0  0999 V2000
   -4.0833    3.3560   12.6136 S   0  0  0  0  0  0  0  0  0  0  0  0
   -2.7023    3.2651   12.9560 O   0  0  0  0  0  0  0  0  0  0  0  0
   -4.3112    2.1810   11.8366 O   0  0  0  0  0  0  0  0  0  0  0  0
   -6.0155    2.2398   16.0093 C   0  0  0  0  0  0  0  0  0  0  0  0
   -6.6015    3.4488   15.6921 C   0  0  0  0  0  0  0  0  0  0  0  0
   -6.0344    3.9887   14.5579 C   0  0  0  0  0  0  0  0  0  0  0  0
   -5.0377    3.1737   14.0475 C   0  0  0  0  0  0  0  0  0  0  0  0
   -4.7535    1.7399   14.9310 S   0  0  0  0  0  0  0  0  0  0  0  0
   -7.9567    1.0969   17.0999 O   0  0  0  0  0  0  0  0  0  0  0  0
   -6.3247    1.9769   18.5404 O   0  0  0  0  0  0  0  0  0  0  0  0
   -5.6979   -0.0628   17.2159 N   0  0  0  0  0  0  0  0  0  0  0  0
   -6.5482    1.2598   17.3364 S   0  0  0  0  0  0  0  0  0  0  0  0
   -5.9090   -0.5232   16.3305 H   0  0  0  0  0  0  0  0  0  0  0  0
   -5.9300   -0.6877   17.9879 H   0  0  0  0  0  0  0  0  0  0  0  0
   -4.4428    4.6004   11.8810 N   0  0  0  0  0  0  0  0  0  0  0  0
   -4.1447    4.4998   10.9107 H   0  0  0  0  0  0  0  0  0  0  0  0
   -3.8264    5.8076   12.4301 C   0  0  0  0  0  0  0  0  0  0  0  0
   -4.4888    7.0800   11.9470 C   0  0  0  0  0  0  0  0  0  0  0  0
   -3.7450    8.1335   11.3878 C   0  0  0  0  0  0  0  0  0  0  0  0
   -4.3978    9.2878   10.9522 C   0  0  0  0  0  0  0  0  0  0  0  0
   -5.7923    9.3987   11.0766 C   0  0  0  0  0  0  0  0  0  0  0  0
   -6.5219    8.3520   11.6329 C   0  0  0  0  0  0  0  0  0  0  0  0
   -5.8725    7.1993   12.0641 C   0  0  0  0  0  0  0  0  0  0  0  0
   -6.5424   10.6712   10.6268 C   0  0  0  0  0  0  0  0  0  0  0  0
  4 12  1  0  0  0
  4  5  2  0  0  0
  4  8  1  0  0  0
 17 18  1  0  0  0
 17 15  1  0  0  0
 18 19  2  0  0  0
 18 23  1  0  0  0
 19 20  1  0  0  0
 20 21  2  0  0  0
 21 22  1  0  0  0
 21 24  1  0  0  0
 22 23  2  0  0  0
  9 12  2  0  0  0
 10 12  2  0  0  0
 11 12  1  0  0  0
  5  6  1  0  0  0
  6  7  2  0  0  0
  7  8  1  0  0  0
  7  1  1  0  0  0
  1  2  2  0  0  0
  1  3  2  0  0  0
  1 15  1  0  0  0
 11 13  1  0  0  0
 11 14  1  0  0  0
 15 16  1  0  0  0
M  END
> <minimizedAffinity>
-6.55471

$$$$
1BN1_AL5_A_555


 24 25  0  0  0  0  0  0  0  0999 V2000
   -4.0230    4.0956   13.1900 S   0  0  0  0  0  0  0  0  0  0  0  0
   -2.8430    3.2982   13.1258 O   0  0  0  0  0  0  0  0  0  0  0  0
   -4.7201    3.7548   11.9923 O   0  0  0  0  0  0  0  0  0  0  0  0
   -5.9340    2.1616   16.2096 C   0  0  0  0  0  0  0  0  0  0  0  0
   -6.6971    3.2972   16.0253 C   0  0  0  0  0  0  0  0  0  0  0  0
   -6.1641    4.0935   15.0347 C   0  0  0  0  0  0  0  0  0  0  0  0
   -5.0153    3.5386   14.4958 C   0  0  0  0  0  0  0  0  0  0  0  0
   -4.5442    2.0461   15.1798 S   0  0  0  0  0  0  0  0  0  0  0  0
   -5.6523   -0.2403   16.8537 O   0  0  0  0  0  0  0  0  0  0  0  0
   -7.7698    0.6982   17.2388 O   0  0  0  0  0  0  0  0  0  0  0  0
   -5.8972    1.4554   18.7312 N   0  0  0  0  0  0  0  0  0  0  0  0
   -6.3697    0.9112   17.3285 S   0  0  0  0  0  0  0  0  0  0  0  0
   -4.8854    1.5841   18.7227 H   0  0  0  0  0  0  0  0  0  0  0  0
   -6.1486    0.7854   19.4581 H   0  0  0  0  0  0  0  0  0  0  0  0
   -3.7593    5.5562   13.2980 N   0  0  0  0  0  0  0  0  0  0  0  0
   -3.3862    5.8824   12.4064 H   0  0  0  0  0  0  0  0  0  0  0  0
   -2.8084    5.9079   14.3520 C   0  0  0  0  0  0  0  0  0  0  0  0
   -2.4473    7.3778   14.3541 C   0  0  0  0  0  0  0  0  0  0  0  0
   -2.4560    8.1422   13.1744 C   0  0  0  0  0  0  0  0  0  0  0  0
   -2.1192    9.4958   13.2232 C   0  0  0  0  0  0  0  0  0  0  0  0
   -1.7680   10.0914   14.4457 C   0  0  0  0  0  0  0  0  0  0  0  0
   -1.7600    9.3277   15.6093 C   0  0  0  0  0  0  0  0  0  0  0  0
   -2.0992    7.9790   15.5624 C   0  0  0  0  0  0  0  0  0  0  0  0
   -1.3671   11.5801   14.5306 C   0  0  0  0  0  0  0  0  0  0  0  0
  4 12  1  0  0  0
  4  5  2  0  0  0
  4  8  1  0  0  0
 17 18  1  0  0  0
 17 15  1  0  0  0
 18 19  2  0  0  0
 18 23  1  0  0  0
 19 20  1  0  0  0
 20 21  2  0  0  0
 21 22  1  0  0  0
 21 24  1  0  0  0
 22 23  2  0  0  0
  9 12  2  0  0  0
 10 12  2  0  0  0
 11 12  1  0  0  0
  5  6  1  0  0  0
  6  7  2  0  0  0
  7  8  1  0  0  0
  7  1  1  0  0  0
  1  2  2  0  0  0
  1  3  2  0  0  0
  1 15  1  0  0  0
 11 13  1  0  0  0
 11 14  1  0  0  0
 15 16  1  0  0  0
M  END
> <minimizedAffinity>
-6.55241

$$$$
1BN1_AL5_A_555


 24 25  0  0  0  0  0  0  0  0999 V2000
   -3.6260    2.4217   11.4867 S   0  0  0  0  0  0  0  0  0  0  0  0
   -4.2263    1.7511   10.3811 O   0  0  0  0  0  0  0  0  0  0  0  0
   -3.0631    1.3586   12.2545 O   0  0  0  0  0  0  0  0  0  0  0  0
   -0.0724    4.1828   10.6033 C   0  0  0  0  0  0  0  0  0  0  0  0
   -0.9970    5.0094    9.9969 C   0  0  0  0  0  0  0  0  0  0  0  0
   -2.2776    4.5343   10.1805 C   0  0  0  0  0  0  0  0  0  0  0  0
   -2.2872    3.3642   10.9214 C   0  0  0  0  0  0  0  0  0  0  0  0
   -0.7485    2.8029   11.4056 S   0  0  0  0  0  0  0  0  0  0  0  0
    1.7025    5.8885   10.1519 O   0  0  0  0  0  0  0  0  0  0  0  0
    2.2776    3.6520    9.7275 O   0  0  0  0  0  0  0  0  0  0  0  0
    2.0476    4.3345   12.1334 N   0  0  0  0  0  0  0  0  0  0  0  0
    1.6251    4.5342   10.6273 S   0  0  0  0  0  0  0  0  0  0  0  0
    1.5416    4.9987   12.7194 H   0  0  0  0  0  0  0  0  0  0  0  0
    3.0508    4.4923   12.2289 H   0  0  0  0  0  0  0  0  0  0  0  0
   -4.5751    3.2523   12.2765 N   0  0  0  0  0  0  0  0  0  0  0  0
   -4.7544    4.1139   11.7608 H   0  0  0  0  0  0  0  0  0  0  0  0
   -4.0836    3.6055   13.6078 C   0  0  0  0  0  0  0  0  0  0  0  0
   -4.8976    2.9824   14.7215 C   0  0  0  0  0  0  0  0  0  0  0  0
   -6.0995    3.5578   15.1689 C   0  0  0  0  0  0  0  0  0  0  0  0
   -6.8199    2.9472   16.1967 C   0  0  0  0  0  0  0  0  0  0  0  0
   -6.3433    1.7645   16.7855 C   0  0  0  0  0  0  0  0  0  0  0  0
   -5.1515    1.2015   16.3384 C   0  0  0  0  0  0  0  0  0  0  0  0
   -4.4344    1.8075   15.3113 C   0  0  0  0  0  0  0  0  0  0  0  0
   -7.1032    1.0769   17.9405 C   0  0  0  0  0  0  0  0  0  0  0  0
  4 12  1  0  0  0
  4  5  2  0  0  0
  4  8  1  0  0  0
 17 18  1  0  0  0
 17 15  1  0  0  0
 18 19  2  0  0  0
 18 23  1  0  0  0
 19 20  1  0  0  0
 20 21  2  0  0  0
 21 22  1  0  0  0
 21 24  1  0  0  0
 22 23  2  0  0  0
  9 12  2  0  0  0
 10 12  2  0  0  0
 11 12  1  0  0  0
  5  6  1  0  0  0
  6  7  2  0  0  0
  7  8  1  0  0  0
  7  1  1  0  0  0
  1  2  2  0  0  0
  1  3  2  0  0  0
  1 15  1  0  0  0
 11 13  1  0  0  0
 11 14  1  0  0  0
 15 16  1  0  0  0
M  END
> <minimizedAffinity>
-6.51299

$$$$
1BN1_AL5_A_555


 24 25  0  0  0  0  0  0  0  0999 V2000
   -5.2876    4.5272   14.3556 S   0  0  0  0  0  0  0  0  0  0  0  0
   -6.2219    5.1060   13.4474 O   0  0  0  0  0  0  0  0  0  0  0  0
   -6.0780    4.2429   15.5093 O   0  0  0  0  0  0  0  0  0  0  0  0
   -4.0762    1.2760   12.2409 C   0  0  0  0  0  0  0  0  0  0  0  0
   -4.3063    0.7672   13.5034 C   0  0  0  0  0  0  0  0  0  0  0  0
   -4.7074    1.7613   14.3697 C   0  0  0  0  0  0  0  0  0  0  0  0
   -4.7716    2.9929   13.7394 C   0  0  0  0  0  0  0  0  0  0  0  0
   -4.3389    2.9826   12.0872 S   0  0  0  0  0  0  0  0  0  0  0  0
   -2.4511    0.9084   10.3734 O   0  0  0  0  0  0  0  0  0  0  0  0
   -4.6826    0.3201    9.9409 O   0  0  0  0  0  0  0  0  0  0  0  0
   -3.4006   -1.1502   11.5227 N   0  0  0  0  0  0  0  0  0  0  0  0
   -3.6328    0.2776   10.8947 S   0  0  0  0  0  0  0  0  0  0  0  0
   -2.6355   -1.1054   12.1956 H   0  0  0  0  0  0  0  0  0  0  0  0
   -3.1650   -1.8125   10.7836 H   0  0  0  0  0  0  0  0  0  0  0  0
   -4.1250    5.4029   14.6650 N   0  0  0  0  0  0  0  0  0  0  0  0
   -4.3104    5.8847   15.5446 H   0  0  0  0  0  0  0  0  0  0  0  0
   -3.8527    6.4073   13.6375 C   0  0  0  0  0  0  0  0  0  0  0  0
   -2.9679    7.5317   14.1316 C   0  0  0  0  0  0  0  0  0  0  0  0
   -2.4087    8.4733   13.2504 C   0  0  0  0  0  0  0  0  0  0  0  0
   -1.6010    9.4960   13.7503 C   0  0  0  0  0  0  0  0  0  0  0  0
   -1.3438    9.5815   15.1284 C   0  0  0  0  0  0  0  0  0  0  0  0
   -1.8996    8.6445   15.9946 C   0  0  0  0  0  0  0  0  0  0  0  0
   -2.7079    7.6266   15.4977 C   0  0  0  0  0  0  0  0  0  0  0  0
   -0.4356   10.6860   15.7112 C   0  0  0  0  0  0  0  0  0  0  0  0
  4 12  1  0  0  0
  4  5  2  0  0  0
  4  8  1  0  0  0
 17 18  1  0  0  0
 17 15  1  0  0  0
 18 19  2  0  0  0
 18 23  1  0  0  0
 19 20  1  0  0  0
 20 21  2  0  0  0
 21 22  1  0  0  0
 21 24  1  0  0  0
 22 23  2  0  0  0
  9 12  2  0  0  0
 10 12  2  0  0  0
 11 12  1  0  0  0
  5  6  1  0  0  0
  6  7  2  0  0  0
  7  8  1  0  0  0
  7  1  1  0  0  0
  1  2  2  0  0  0
  1  3  2  0  0  0
  1 15  1  0  0  0
 11 13  1  0  0  0
 11 14  1  0  0  0
 15 16  1  0  0  0
M  END
> <minimizedAffinity>
-6.46371

$$$$
