1BN1_AL5_A_555
  RCSB PDB12061702053D
Coordinates from PDB:1BN1:A:555 Model:1 without hydrogens
 21 22  0  0  0  0            999 V2000
   -5.2620    1.9170   15.8680   C 0  0  0  0  0  0  0  0  0  0  0  0
   -2.5330    6.0160   13.9960   C 0  0  0  0  0  0  0  0  0  0  0  0
   -2.0730    7.4580   14.0060   C 0  0  0  0  0  0  0  0  0  0  0  0
   -2.0590    8.2370   12.8360   C 0  0  0  0  0  0  0  0  0  0  0  0
   -1.6300    9.5640   12.8920   C 0  0  0  0  0  0  0  0  0  0  0  0
   -1.2090   10.1180   14.1120   C 0  0  0  0  0  0  0  0  0  0  0  0
   -1.2240    9.3400   15.2660   C 0  0  0  0  0  0  0  0  0  0  0  0
   -1.6550    8.0180   15.2120   C 0  0  0  0  0  0  0  0  0  0  0  0
   -0.7060   11.5750   14.2040   C 0  0  0  0  0  0  0  0  0  0  0  0
   -7.3420    0.8980   16.8160   O 0  0  0  0  0  0  0  0  0  0  0  0
   -5.4520    0.8900   18.2090   O 0  0  0  0  0  0  0  0  0  0  0  0
   -5.4260   -0.6700   16.2410   N 0  0  0  0  0  0  0  0  0  0  0  0
   -5.9230    0.6800   16.8870   S 0  0  0  0  0  0  0  0  0  0  0  0
   -3.9450    1.9180   15.4540   C 0  0  0  0  0  0  0  0  0  0  0  0
   -3.6630    3.0440   14.7110   C 0  0  0  0  0  0  0  0  0  0  0  0
   -4.7720    3.8640   14.5850   C 0  0  0  0  0  0  0  0  0  0  0  0
   -6.1860    3.2900   15.3520   S 0  0  0  0  0  0  0  0  0  0  0  0
   -4.9240    5.4130   13.8250   S 0  0  0  0  0  0  0  0  0  0  0  0
   -6.0860    5.4170   12.9990   O 0  0  0  0  0  0  0  0  0  0  0  0
   -5.2530    6.3320   14.8660   O 0  0  0  0  0  0  0  0  0  0  0  0
   -3.6740    5.7880   13.1100   N 0  0  0  0  0  0  0  0  0  0  0  0
  1 13  1  0  0  0  0
  1 14  2  0  0  0  0
  1 17  1  0  0  0  0
  2  3  1  0  0  0  0
  2 21  1  0  0  0  0
  3  4  2  0  0  0  0
  3  8  1  0  0  0  0
  4  5  1  0  0  0  0
  5  6  2  0  0  0  0
  6  7  1  0  0  0  0
  6  9  1  0  0  0  0
  7  8  2  0  0  0  0
 10 13  2  0  0  0  0
 11 13  2  0  0  0  0
 12 13  1  0  0  0  0
 14 15  1  0  0  0  0
 15 16  2  0  0  0  0
 16 17  1  0  0  0  0
 16 18  1  0  0  0  0
 18 19  2  0  0  0  0
 18 20  2  0  0  0  0
 18 21  1  0  0  0  0
A    1
C3
A    2
C9
A    3
C10
A    4
C11
A    5
C12
A    6
C13
A    7
C14
A    8
C15
A    9
C16
A   10
O2A
A   11
O1A
A   12
N21
A   13
S1
A   14
C4
A   15
C5
A   16
C6
A   17
S2
A   18
S7
A   19
O3B
A   20
O4B
A   21
N8
M  END
>  <InstanceId>
1BN1_AL5_A_555

>  <ChemCompId>
AL5

>  <PdbId>
1BN1

>  <ChainId>
A

>  <ResidueNumber>
555

>  <InsertionCode>


>  <Model>
1

>  <AltIds>


>  <MissingHeavyAtoms>
0

>  <ObservedFormula>
C12 N2 O4 S3

>  <Name>
THIOPHENE-2,5-DISULFONIC ACID 2-AMIDE-5-(4-METHYL-BENZYLAMIDE)

>  <SystematicName>
N-[(4-methylphenyl)methyl]thiophene-2,5-disulfonamide

>  <Synonyms>
AL5917

>  <Type>
NON-POLYMER

>  <Formula>
C12 H14 N2 O4 S3

>  <MolecularWeight>
346.446

>  <ModifiedDate>
2011-06-04

>  <Parent>


>  <OneLetterCode>


>  <SubcomponentList>


>  <AmbiguousFlag>
N

>  <InChI>
InChI=1S/C12H14N2O4S3/c1-9-2-4-10(5-3-9)8-14-21(17,18)12-7-6-11(19-12)20(13,15)16/h2-7,14H,8H2,1H3,(H2,13,15,16)

>  <InChIKey>
GUNRMHMEAWSZQE-UHFFFAOYSA-N

>  <SMILES>
Cc1ccc(cc1)CNS(=O)(=O)c2ccc(s2)S(=O)(=O)N

$$$$
