3QDD_94M_A_999


 24 26  0  0  0  0  0  0  0  0999 V2000
    1.9118   34.3533   25.1656 N   0  0  0  0  0  0  0  0  0  0  0  0
    1.4405   33.8957   24.0200 C   0  0  0  0  0  0  0  0  0  0  0  0
    2.3095   33.3308   23.2200 N   0  0  0  0  0  0  0  0  0  0  0  0
    0.1609   33.9951   23.6497 N   0  0  0  0  0  0  0  0  0  0  0  0
   -0.7257   34.5836   24.4817 C   0  0  0  0  0  0  0  0  0  0  0  0
   -0.2832   35.0596   25.7360 C   0  0  0  0  0  0  0  0  0  0  0  0
    1.0555   34.9284   26.0255 C   0  0  0  0  0  0  0  0  0  0  0  0
    1.7179   35.5127   27.5424 Cl  0  0  0  0  0  0  0  0  0  0  0  0
   -1.3616   35.6356   26.3362 N   0  0  0  0  0  0  0  0  0  0  0  0
   -2.4326   35.4385   25.5649 C   0  0  0  0  0  0  0  0  0  0  0  0
   -2.0307   34.8267   24.4396 N   0  0  0  0  0  0  0  0  0  0  0  0
    3.2530   33.2568   23.4914 H   0  0  0  0  0  0  0  0  0  0  0  0
    2.0195   32.9800   22.3470 H   0  0  0  0  0  0  0  0  0  0  0  0
   -2.9154   34.4477   23.3227 C   0  0  0  0  0  0  0  0  0  0  0  0
   -7.2445   30.9569   24.9623 C   0  0  0  0  0  0  0  0  0  0  0  0
   -2.3318   31.5294   24.3146 C   0  0  0  0  0  0  0  0  0  0  0  0
   -6.2752   33.1286   24.1063 C   0  0  0  0  0  0  0  0  0  0  0  0
   -5.2439   33.9243   23.7429 N   0  0  0  0  0  0  0  0  0  0  0  0
   -6.0720   31.8362   24.5848 C   0  0  0  0  0  0  0  0  0  0  0  0
   -3.7334   32.1431   24.2406 C   0  0  0  0  0  0  0  0  0  0  0  0
   -3.9859   33.4743   23.7955 C   0  0  0  0  0  0  0  0  0  0  0  0
   -4.7889   31.3286   24.6012 C   0  0  0  0  0  0  0  0  0  0  0  0
   -4.4381   29.7976   26.4410 C   0  0  0  0  0  0  0  0  0  0  0  0
   -4.5663   30.0521   25.0496 O   0  0  0  0  0  0  0  0  0  0  0  0
  1  2  2  0  0  0
  1  7  1  0  0  0
  2  3  1  0  0  0
  2  4  1  0  0  0
  4  5  2  0  0  0
  5  6  1  0  0  0
  5 11  1  0  0  0
  6  7  2  0  0  0
  6  9  1  0  0  0
  7  8  1  0  0  0
  9 10  2  0  0  0
 10 11  1  0  0  0
 11 14  1  0  0  0
 23 24  1  0  0  0
 15 19  1  0  0  0
 16 20  1  0  0  0
 17 18  2  0  0  0
 17 19  1  0  0  0
 14 21  1  0  0  0
 18 21  1  0  0  0
 24 22  1  0  0  0
 19 22  2  0  0  0
 20 21  2  0  0  0
 20 22  1  0  0  0
  3 12  1  0  0  0
  3 13  1  0  0  0
M  END
> <minimizedAffinity>
-8.75880

$$$$
3QDD_94M_A_999


 24 26  0  0  0  0  0  0  0  0999 V2000
    1.1179   35.9984   25.4478 N   0  0  0  0  0  0  0  0  0  0  0  0
    0.9858   35.0502   24.5381 C   0  0  0  0  0  0  0  0  0  0  0  0
    2.0893   34.4625   24.1491 N   0  0  0  0  0  0  0  0  0  0  0  0
   -0.1846   34.6883   24.0058 N   0  0  0  0  0  0  0  0  0  0  0  0
   -1.3159   35.3046   24.4121 C   0  0  0  0  0  0  0  0  0  0  0  0
   -1.2377   36.3024   25.4091 C   0  0  0  0  0  0  0  0  0  0  0  0
    0.0123   36.6204   25.8884 C   0  0  0  0  0  0  0  0  0  0  0  0
    0.2278   37.8660   27.1063 Cl  0  0  0  0  0  0  0  0  0  0  0  0
   -2.5026   36.7749   25.5870 N   0  0  0  0  0  0  0  0  0  0  0  0
   -3.3359   36.0507   24.8374 C   0  0  0  0  0  0  0  0  0  0  0  0
   -2.6051   35.1863   24.1156 N   0  0  0  0  0  0  0  0  0  0  0  0
    2.9528   34.7281   24.5404 H   0  0  0  0  0  0  0  0  0  0  0  0
    2.0555   33.7551   23.4653 H   0  0  0  0  0  0  0  0  0  0  0  0
   -3.1546   34.2176   23.1495 C   0  0  0  0  0  0  0  0  0  0  0  0
   -4.4964   29.3144   25.9376 C   0  0  0  0  0  0  0  0  0  0  0  0
   -6.1086   33.6315   24.0282 C   0  0  0  0  0  0  0  0  0  0  0  0
   -2.9138   30.9185   24.7928 C   0  0  0  0  0  0  0  0  0  0  0  0
   -2.6333   32.0648   24.1322 N   0  0  0  0  0  0  0  0  0  0  0  0
   -4.2120   30.5920   25.1779 C   0  0  0  0  0  0  0  0  0  0  0  0
   -4.9378   32.6740   24.2721 C   0  0  0  0  0  0  0  0  0  0  0  0
   -3.6000   32.9476   23.8608 C   0  0  0  0  0  0  0  0  0  0  0  0
   -5.2203   31.5078   24.9560 C   0  0  0  0  0  0  0  0  0  0  0  0
   -7.3633   30.4934   24.4759 C   0  0  0  0  0  0  0  0  0  0  0  0
   -6.5029   31.2170   25.3438 O   0  0  0  0  0  0  0  0  0  0  0  0
  1  2  2  0  0  0
  1  7  1  0  0  0
  2  3  1  0  0  0
  2  4  1  0  0  0
  4  5  2  0  0  0
  5  6  1  0  0  0
  5 11  1  0  0  0
  6  7  2  0  0  0
  6  9  1  0  0  0
  7  8  1  0  0  0
  9 10  2  0  0  0
 10 11  1  0  0  0
 11 14  1  0  0  0
 23 24  1  0  0  0
 15 19  1  0  0  0
 16 20  1  0  0  0
 17 18  2  0  0  0
 17 19  1  0  0  0
 14 21  1  0  0  0
 18 21  1  0  0  0
 24 22  1  0  0  0
 19 22  2  0  0  0
 20 21  2  0  0  0
 20 22  1  0  0  0
  3 12  1  0  0  0
  3 13  1  0  0  0
M  END
> <minimizedAffinity>
-8.58047

$$$$
3QDD_94M_A_999


 24 26  0  0  0  0  0  0  0  0999 V2000
   -0.4054   38.8617   24.7648 N   0  0  0  0  0  0  0  0  0  0  0  0
   -0.9021   38.3562   23.6505 C   0  0  0  0  0  0  0  0  0  0  0  0
   -1.2749   39.2186   22.7385 N   0  0  0  0  0  0  0  0  0  0  0  0
   -1.0488   37.0472   23.4285 N   0  0  0  0  0  0  0  0  0  0  0  0
   -0.6643   36.1671   24.3785 C   0  0  0  0  0  0  0  0  0  0  0  0
   -0.0933   36.6512   25.5764 C   0  0  0  0  0  0  0  0  0  0  0  0
    0.0040   38.0158   25.7240 C   0  0  0  0  0  0  0  0  0  0  0  0
    0.6697   38.7258   27.1848 Cl  0  0  0  0  0  0  0  0  0  0  0  0
    0.1541   35.5630   26.3572 N   0  0  0  0  0  0  0  0  0  0  0  0
   -0.1361   34.4640   25.6584 C   0  0  0  0  0  0  0  0  0  0  0  0
   -0.6523   34.8428   24.4784 N   0  0  0  0  0  0  0  0  0  0  0  0
   -1.1675   40.1837   22.9005 H   0  0  0  0  0  0  0  0  0  0  0  0
   -1.6626   38.9019   21.8908 H   0  0  0  0  0  0  0  0  0  0  0  0
   -1.1146   33.9212   23.4244 C   0  0  0  0  0  0  0  0  0  0  0  0
   -6.5132   32.1183   24.5287 C   0  0  0  0  0  0  0  0  0  0  0  0
   -1.6565   30.9883   24.3970 C   0  0  0  0  0  0  0  0  0  0  0  0
   -4.7845   33.8247   23.8301 C   0  0  0  0  0  0  0  0  0  0  0  0
   -3.5133   34.2208   23.5931 N   0  0  0  0  0  0  0  0  0  0  0  0
   -5.0803   32.5451   24.2941 C   0  0  0  0  0  0  0  0  0  0  0  0
   -2.7530   32.0392   24.1966 C   0  0  0  0  0  0  0  0  0  0  0  0
   -2.4938   33.3724   23.7618 C   0  0  0  0  0  0  0  0  0  0  0  0
   -4.0528   31.6336   24.4279 C   0  0  0  0  0  0  0  0  0  0  0  0
   -4.4885   30.1047   26.2512 C   0  0  0  0  0  0  0  0  0  0  0  0
   -4.3220   30.3620   24.8644 O   0  0  0  0  0  0  0  0  0  0  0  0
  1  2  2  0  0  0
  1  7  1  0  0  0
  2  3  1  0  0  0
  2  4  1  0  0  0
  4  5  2  0  0  0
  5  6  1  0  0  0
  5 11  1  0  0  0
  6  7  2  0  0  0
  6  9  1  0  0  0
  7  8  1  0  0  0
  9 10  2  0  0  0
 10 11  1  0  0  0
 11 14  1  0  0  0
 23 24  1  0  0  0
 15 19  1  0  0  0
 16 20  1  0  0  0
 17 18  2  0  0  0
 17 19  1  0  0  0
 14 21  1  0  0  0
 18 21  1  0  0  0
 24 22  1  0  0  0
 19 22  2  0  0  0
 20 21  2  0  0  0
 20 22  1  0  0  0
  3 12  1  0  0  0
  3 13  1  0  0  0
M  END
> <minimizedAffinity>
-8.33636

$$$$
3QDD_94M_A_999


 24 26  0  0  0  0  0  0  0  0999 V2000
   -0.9044   38.6249   24.9617 N   0  0  0  0  0  0  0  0  0  0  0  0
   -1.4809   38.1311   23.8811 C   0  0  0  0  0  0  0  0  0  0  0  0
   -2.0847   38.9925   23.1013 N   0  0  0  0  0  0  0  0  0  0  0  0
   -1.4864   36.8324   23.5687 N   0  0  0  0  0  0  0  0  0  0  0  0
   -0.8637   35.9526   24.3829 C   0  0  0  0  0  0  0  0  0  0  0  0
   -0.1999   36.4299   25.5349 C   0  0  0  0  0  0  0  0  0  0  0  0
   -0.2604   37.7816   25.7849 C   0  0  0  0  0  0  0  0  0  0  0  0
    0.5036   38.4776   27.2038 Cl  0  0  0  0  0  0  0  0  0  0  0  0
    0.2917   35.3368   26.1818 N   0  0  0  0  0  0  0  0  0  0  0  0
    0.0521   34.2576   25.4345 C   0  0  0  0  0  0  0  0  0  0  0  0
   -0.6669   34.6393   24.3670 N   0  0  0  0  0  0  0  0  0  0  0  0
   -2.0815   39.9501   23.3301 H   0  0  0  0  0  0  0  0  0  0  0  0
   -2.5417   38.6827   22.2863 H   0  0  0  0  0  0  0  0  0  0  0  0
   -1.1475   33.7354   23.3060 C   0  0  0  0  0  0  0  0  0  0  0  0
   -4.6334   29.6857   25.5563 C   0  0  0  0  0  0  0  0  0  0  0  0
   -4.1571   34.3736   23.9196 C   0  0  0  0  0  0  0  0  0  0  0  0
   -2.4306   30.5516   24.6697 C   0  0  0  0  0  0  0  0  0  0  0  0
   -1.6449   31.5124   24.1325 N   0  0  0  0  0  0  0  0  0  0  0  0
   -3.7811   30.7694   24.9323 C   0  0  0  0  0  0  0  0  0  0  0  0
   -3.5059   33.0082   24.1617 C   0  0  0  0  0  0  0  0  0  0  0  0
   -2.1383   32.7272   23.8711 C   0  0  0  0  0  0  0  0  0  0  0  0
   -4.3038   32.0288   24.7201 C   0  0  0  0  0  0  0  0  0  0  0  0
   -6.5991   32.1378   23.9640 C   0  0  0  0  0  0  0  0  0  0  0  0
   -5.6259   32.2726   24.9896 O   0  0  0  0  0  0  0  0  0  0  0  0
  1  2  2  0  0  0
  1  7  1  0  0  0
  2  3  1  0  0  0
  2  4  1  0  0  0
  4  5  2  0  0  0
  5  6  1  0  0  0
  5 11  1  0  0  0
  6  7  2  0  0  0
  6  9  1  0  0  0
  7  8  1  0  0  0
  9 10  2  0  0  0
 10 11  1  0  0  0
 11 14  1  0  0  0
 23 24  1  0  0  0
 15 19  1  0  0  0
 16 20  1  0  0  0
 17 18  2  0  0  0
 17 19  1  0  0  0
 14 21  1  0  0  0
 18 21  1  0  0  0
 24 22  1  0  0  0
 19 22  2  0  0  0
 20 21  2  0  0  0
 20 22  1  0  0  0
  3 12  1  0  0  0
  3 13  1  0  0  0
M  END
> <minimizedAffinity>
-8.11896

$$$$
3QDD_94M_A_999


 24 26  0  0  0  0  0  0  0  0999 V2000
   -7.4557   33.1253   24.2346 N   0  0  0  0  0  0  0  0  0  0  0  0
   -6.8763   34.2065   23.7457 C   0  0  0  0  0  0  0  0  0  0  0  0
   -7.6720   35.1957   23.4249 N   0  0  0  0  0  0  0  0  0  0  0  0
   -5.5591   34.3237   23.5572 N   0  0  0  0  0  0  0  0  0  0  0  0
   -4.7486   33.2949   23.8882 C   0  0  0  0  0  0  0  0  0  0  0  0
   -5.3111   32.1266   24.4487 C   0  0  0  0  0  0  0  0  0  0  0  0
   -6.6791   32.0895   24.5914 C   0  0  0  0  0  0  0  0  0  0  0  0
   -7.4853   30.6755   25.2487 Cl  0  0  0  0  0  0  0  0  0  0  0  0
   -4.2839   31.2528   24.6391 N   0  0  0  0  0  0  0  0  0  0  0  0
   -3.1410   31.8660   24.3256 C   0  0  0  0  0  0  0  0  0  0  0  0
   -3.4376   33.0860   23.8504 N   0  0  0  0  0  0  0  0  0  0  0  0
   -8.6431   35.1110   23.5631 H   0  0  0  0  0  0  0  0  0  0  0  0
   -7.2992   36.0242   23.0455 H   0  0  0  0  0  0  0  0  0  0  0  0
   -2.4477   34.0721   23.3795 C   0  0  0  0  0  0  0  0  0  0  0  0
    1.5776   35.1263   27.4169 C   0  0  0  0  0  0  0  0  0  0  0  0
   -2.7985   36.4355   25.4124 C   0  0  0  0  0  0  0  0  0  0  0  0
    0.5945   33.8593   25.4633 C   0  0  0  0  0  0  0  0  0  0  0  0
   -0.3675   33.6294   24.5410 N   0  0  0  0  0  0  0  0  0  0  0  0
    0.4759   34.8737   26.4105 C   0  0  0  0  0  0  0  0  0  0  0  0
   -1.6009   35.4802   25.4099 C   0  0  0  0  0  0  0  0  0  0  0  0
   -1.4560   34.4038   24.4857 C   0  0  0  0  0  0  0  0  0  0  0  0
   -0.6123   35.7199   26.3442 C   0  0  0  0  0  0  0  0  0  0  0  0
   -0.1424   38.0006   26.9998 C   0  0  0  0  0  0  0  0  0  0  0  0
   -0.7409   36.7378   27.2538 O   0  0  0  0  0  0  0  0  0  0  0  0
  1  2  2  0  0  0
  1  7  1  0  0  0
  2  3  1  0  0  0
  2  4  1  0  0  0
  4  5  2  0  0  0
  5  6  1  0  0  0
  5 11  1  0  0  0
  6  7  2  0  0  0
  6  9  1  0  0  0
  7  8  1  0  0  0
  9 10  2  0  0  0
 10 11  1  0  0  0
 11 14  1  0  0  0
 23 24  1  0  0  0
 15 19  1  0  0  0
 16 20  1  0  0  0
 17 18  2  0  0  0
 17 19  1  0  0  0
 14 21  1  0  0  0
 18 21  1  0  0  0
 24 22  1  0  0  0
 19 22  2  0  0  0
 20 21  2  0  0  0
 20 22  1  0  0  0
  3 12  1  0  0  0
  3 13  1  0  0  0
M  END
> <minimizedAffinity>
-8.00903

$$$$
3QDD_94M_A_999


 24 26  0  0  0  0  0  0  0  0999 V2000
   -4.1019   38.8673   22.6041 N   0  0  0  0  0  0  0  0  0  0  0  0
   -4.0318   37.8299   21.7901 C   0  0  0  0  0  0  0  0  0  0  0  0
   -4.3502   38.0519   20.5395 N   0  0  0  0  0  0  0  0  0  0  0  0
   -3.6763   36.6024   22.1787 N   0  0  0  0  0  0  0  0  0  0  0  0
   -3.3539   36.3846   23.4723 C   0  0  0  0  0  0  0  0  0  0  0  0
   -3.3773   37.4664   24.3804 C   0  0  0  0  0  0  0  0  0  0  0  0
   -3.7711   38.6917   23.8938 C   0  0  0  0  0  0  0  0  0  0  0  0
   -3.8650   40.0971   24.9413 Cl  0  0  0  0  0  0  0  0  0  0  0  0
   -3.0576   36.9562   25.6020 N   0  0  0  0  0  0  0  0  0  0  0  0
   -2.7460   35.6670   25.4556 C   0  0  0  0  0  0  0  0  0  0  0  0
   -2.9537   35.3296   24.1729 N   0  0  0  0  0  0  0  0  0  0  0  0
   -4.6125   38.9560   20.2514 H   0  0  0  0  0  0  0  0  0  0  0  0
   -4.3273   37.3147   19.8874 H   0  0  0  0  0  0  0  0  0  0  0  0
   -2.7397   33.9844   23.6086 C   0  0  0  0  0  0  0  0  0  0  0  0
   -7.2713   30.6462   25.0003 C   0  0  0  0  0  0  0  0  0  0  0  0
   -2.3166   31.0275   24.5676 C   0  0  0  0  0  0  0  0  0  0  0  0
   -6.1800   32.7908   24.2271 C   0  0  0  0  0  0  0  0  0  0  0  0
   -5.1030   33.5498   23.9220 N   0  0  0  0  0  0  0  0  0  0  0  0
   -6.0495   31.4831   24.6886 C   0  0  0  0  0  0  0  0  0  0  0  0
   -3.6879   31.6996   24.4475 C   0  0  0  0  0  0  0  0  0  0  0  0
   -3.8676   33.0476   24.0180 C   0  0  0  0  0  0  0  0  0  0  0  0
   -4.7897   30.9229   24.7484 C   0  0  0  0  0  0  0  0  0  0  0  0
   -4.1951   29.3696   26.5050 C   0  0  0  0  0  0  0  0  0  0  0  0
   -4.6379   29.6307   25.1810 O   0  0  0  0  0  0  0  0  0  0  0  0
  1  2  2  0  0  0
  1  7  1  0  0  0
  2  3  1  0  0  0
  2  4  1  0  0  0
  4  5  2  0  0  0
  5  6  1  0  0  0
  5 11  1  0  0  0
  6  7  2  0  0  0
  6  9  1  0  0  0
  7  8  1  0  0  0
  9 10  2  0  0  0
 10 11  1  0  0  0
 11 14  1  0  0  0
 23 24  1  0  0  0
 15 19  1  0  0  0
 16 20  1  0  0  0
 17 18  2  0  0  0
 17 19  1  0  0  0
 14 21  1  0  0  0
 18 21  1  0  0  0
 24 22  1  0  0  0
 19 22  2  0  0  0
 20 21  2  0  0  0
 20 22  1  0  0  0
  3 12  1  0  0  0
  3 13  1  0  0  0
M  END
> <minimizedAffinity>
-7.95292

$$$$
3QDD_94M_A_999


 24 26  0  0  0  0  0  0  0  0999 V2000
   -5.3934   31.9113   24.6221 N   0  0  0  0  0  0  0  0  0  0  0  0
   -5.0975   33.1227   24.1878 C   0  0  0  0  0  0  0  0  0  0  0  0
   -6.1045   33.9455   24.0343 N   0  0  0  0  0  0  0  0  0  0  0  0
   -3.8581   33.5254   23.8943 N   0  0  0  0  0  0  0  0  0  0  0  0
   -2.8276   32.6664   24.0528 C   0  0  0  0  0  0  0  0  0  0  0  0
   -3.0821   31.3682   24.5484 C   0  0  0  0  0  0  0  0  0  0  0  0
   -4.3918   31.0364   24.8086 C   0  0  0  0  0  0  0  0  0  0  0  0
   -4.8241   29.4407   25.3986 Cl  0  0  0  0  0  0  0  0  0  0  0  0
   -1.8866   30.7159   24.5627 N   0  0  0  0  0  0  0  0  0  0  0  0
   -0.9295   31.5753   24.2078 C   0  0  0  0  0  0  0  0  0  0  0  0
   -1.5130   32.7386   23.8785 N   0  0  0  0  0  0  0  0  0  0  0  0
   -7.0186   33.6503   24.2501 H   0  0  0  0  0  0  0  0  0  0  0  0
   -5.9475   34.8592   23.7031 H   0  0  0  0  0  0  0  0  0  0  0  0
   -0.7964   33.9414   23.4163 C   0  0  0  0  0  0  0  0  0  0  0  0
   -0.0022   37.6076   27.8371 C   0  0  0  0  0  0  0  0  0  0  0  0
   -2.2278   36.7325   23.4596 C   0  0  0  0  0  0  0  0  0  0  0  0
    0.3561   35.4385   26.5901 C   0  0  0  0  0  0  0  0  0  0  0  0
    0.1413   34.5988   25.5519 N   0  0  0  0  0  0  0  0  0  0  0  0
   -0.2780   36.6756   26.6770 C   0  0  0  0  0  0  0  0  0  0  0  0
   -1.3049   36.2274   24.5731 C   0  0  0  0  0  0  0  0  0  0  0  0
   -0.6658   34.9528   24.5464 C   0  0  0  0  0  0  0  0  0  0  0  0
   -1.0758   37.0877   25.6291 C   0  0  0  0  0  0  0  0  0  0  0  0
   -2.9638   38.4391   26.3081 C   0  0  0  0  0  0  0  0  0  0  0  0
   -1.6950   38.3098   25.6831 O   0  0  0  0  0  0  0  0  0  0  0  0
  1  2  2  0  0  0
  1  7  1  0  0  0
  2  3  1  0  0  0
  2  4  1  0  0  0
  4  5  2  0  0  0
  5  6  1  0  0  0
  5 11  1  0  0  0
  6  7  2  0  0  0
  6  9  1  0  0  0
  7  8  1  0  0  0
  9 10  2  0  0  0
 10 11  1  0  0  0
 11 14  1  0  0  0
 23 24  1  0  0  0
 15 19  1  0  0  0
 16 20  1  0  0  0
 17 18  2  0  0  0
 17 19  1  0  0  0
 14 21  1  0  0  0
 18 21  1  0  0  0
 24 22  1  0  0  0
 19 22  2  0  0  0
 20 21  2  0  0  0
 20 22  1  0  0  0
  3 12  1  0  0  0
  3 13  1  0  0  0
M  END
> <minimizedAffinity>
-7.93643

$$$$
3QDD_94M_A_999


 24 26  0  0  0  0  0  0  0  0999 V2000
    0.7319   35.8624   27.4001 N   0  0  0  0  0  0  0  0  0  0  0  0
   -0.5261   36.0208   27.0311 C   0  0  0  0  0  0  0  0  0  0  0  0
   -1.2574   36.8021   27.7855 N   0  0  0  0  0  0  0  0  0  0  0  0
   -1.0690   35.4260   25.9654 N   0  0  0  0  0  0  0  0  0  0  0  0
   -0.3056   34.6189   25.1968 C   0  0  0  0  0  0  0  0  0  0  0  0
    1.0569   34.4413   25.5246 C   0  0  0  0  0  0  0  0  0  0  0  0
    1.5251   35.0812   26.6492 C   0  0  0  0  0  0  0  0  0  0  0  0
    3.1937   34.9056   27.1653 Cl  0  0  0  0  0  0  0  0  0  0  0  0
    1.5626   33.5564   24.6211 N   0  0  0  0  0  0  0  0  0  0  0  0
    0.6167   33.2815   23.7209 C   0  0  0  0  0  0  0  0  0  0  0  0
   -0.5107   33.9075   24.0942 N   0  0  0  0  0  0  0  0  0  0  0  0
   -0.8589   37.2413   28.5713 H   0  0  0  0  0  0  0  0  0  0  0  0
   -2.2059   36.9504   27.5670 H   0  0  0  0  0  0  0  0  0  0  0  0
   -1.7924   33.8424   23.3683 C   0  0  0  0  0  0  0  0  0  0  0  0
   -4.8797   29.5234   25.6985 C   0  0  0  0  0  0  0  0  0  0  0  0
   -4.8483   34.2051   23.9773 C   0  0  0  0  0  0  0  0  0  0  0  0
   -2.7688   30.5769   24.7916 C   0  0  0  0  0  0  0  0  0  0  0  0
   -2.0775   31.5976   24.2356 N   0  0  0  0  0  0  0  0  0  0  0  0
   -4.1337   30.6712   25.0534 C   0  0  0  0  0  0  0  0  0  0  0  0
   -4.0712   32.9118   24.2422 C   0  0  0  0  0  0  0  0  0  0  0  0
   -2.6833   32.7557   23.9536 C   0  0  0  0  0  0  0  0  0  0  0  0
   -4.7729   31.8718   24.8198 C   0  0  0  0  0  0  0  0  0  0  0  0
   -7.0651   31.3137   24.2849 C   0  0  0  0  0  0  0  0  0  0  0  0
   -6.1119   31.9947   25.0879 O   0  0  0  0  0  0  0  0  0  0  0  0
  1  2  2  0  0  0
  1  7  1  0  0  0
  2  3  1  0  0  0
  2  4  1  0  0  0
  4  5  2  0  0  0
  5  6  1  0  0  0
  5 11  1  0  0  0
  6  7  2  0  0  0
  6  9  1  0  0  0
  7  8  1  0  0  0
  9 10  2  0  0  0
 10 11  1  0  0  0
 11 14  1  0  0  0
 23 24  1  0  0  0
 15 19  1  0  0  0
 16 20  1  0  0  0
 17 18  2  0  0  0
 17 19  1  0  0  0
 14 21  1  0  0  0
 18 21  1  0  0  0
 24 22  1  0  0  0
 19 22  2  0  0  0
 20 21  2  0  0  0
 20 22  1  0  0  0
  3 12  1  0  0  0
  3 13  1  0  0  0
M  END
> <minimizedAffinity>
-7.65287

$$$$
3QDD_94M_A_999


 24 26  0  0  0  0  0  0  0  0999 V2000
   -5.8480   30.4880   25.6022 N   0  0  0  0  0  0  0  0  0  0  0  0
   -4.6188   30.7308   25.1850 C   0  0  0  0  0  0  0  0  0  0  0  0
   -3.7115   29.8435   25.5073 N   0  0  0  0  0  0  0  0  0  0  0  0
   -4.2716   31.8140   24.4847 N   0  0  0  0  0  0  0  0  0  0  0  0
   -5.2157   32.7245   24.1615 C   0  0  0  0  0  0  0  0  0  0  0  0
   -6.5544   32.4980   24.5517 C   0  0  0  0  0  0  0  0  0  0  0  0
   -6.8159   31.3627   25.2838 C   0  0  0  0  0  0  0  0  0  0  0  0
   -8.4385   30.9986   25.8458 Cl  0  0  0  0  0  0  0  0  0  0  0  0
   -7.2689   33.5813   24.1384 N   0  0  0  0  0  0  0  0  0  0  0  0
   -6.4611   34.3817   23.4401 C   0  0  0  0  0  0  0  0  0  0  0  0
   -5.2221   33.8668   23.4840 N   0  0  0  0  0  0  0  0  0  0  0  0
   -3.9657   29.0446   26.0234 H   0  0  0  0  0  0  0  0  0  0  0  0
   -2.7750   29.9753   25.2336 H   0  0  0  0  0  0  0  0  0  0  0  0
   -4.0360   34.4658   22.8451 C   0  0  0  0  0  0  0  0  0  0  0  0
   -0.4182   36.1954   27.0326 C   0  0  0  0  0  0  0  0  0  0  0  0
   -1.1719   33.2126   23.1062 C   0  0  0  0  0  0  0  0  0  0  0  0
   -2.5973   36.2318   25.7526 C   0  0  0  0  0  0  0  0  0  0  0  0
   -3.4143   35.8179   24.7576 N   0  0  0  0  0  0  0  0  0  0  0  0
   -1.3045   35.7336   25.8961 C   0  0  0  0  0  0  0  0  0  0  0  0
   -1.7128   34.3095   24.0287 C   0  0  0  0  0  0  0  0  0  0  0  0
   -3.0140   34.8777   23.8954 C   0  0  0  0  0  0  0  0  0  0  0  0
   -0.8839   34.7261   25.0520 C   0  0  0  0  0  0  0  0  0  0  0  0
    1.4650   34.7809   24.4761 C   0  0  0  0  0  0  0  0  0  0  0  0
    0.3776   34.2061   25.1865 O   0  0  0  0  0  0  0  0  0  0  0  0
  1  2  2  0  0  0
  1  7  1  0  0  0
  2  3  1  0  0  0
  2  4  1  0  0  0
  4  5  2  0  0  0
  5  6  1  0  0  0
  5 11  1  0  0  0
  6  7  2  0  0  0
  6  9  1  0  0  0
  7  8  1  0  0  0
  9 10  2  0  0  0
 10 11  1  0  0  0
 11 14  1  0  0  0
 23 24  1  0  0  0
 15 19  1  0  0  0
 16 20  1  0  0  0
 17 18  2  0  0  0
 17 19  1  0  0  0
 14 21  1  0  0  0
 18 21  1  0  0  0
 24 22  1  0  0  0
 19 22  2  0  0  0
 20 21  2  0  0  0
 20 22  1  0  0  0
  3 12  1  0  0  0
  3 13  1  0  0  0
M  END
> <minimizedAffinity>
-7.61242

$$$$
3QDD_94M_A_999


 24 26  0  0  0  0  0  0  0  0999 V2000
    2.4378   33.4350   23.5827 N   0  0  0  0  0  0  0  0  0  0  0  0
    1.9923   33.9907   24.6947 C   0  0  0  0  0  0  0  0  0  0  0  0
    2.8989   34.3327   25.5753 N   0  0  0  0  0  0  0  0  0  0  0  0
    0.6988   34.1977   24.9561 N   0  0  0  0  0  0  0  0  0  0  0  0
   -0.2278   33.8370   24.0417 C   0  0  0  0  0  0  0  0  0  0  0  0
    0.1946   33.2702   22.8186 C   0  0  0  0  0  0  0  0  0  0  0  0
    1.5461   33.0801   22.6433 C   0  0  0  0  0  0  0  0  0  0  0  0
    2.1781   32.3562   21.1744 Cl  0  0  0  0  0  0  0  0  0  0  0  0
   -0.9343   32.9670   22.1197 N   0  0  0  0  0  0  0  0  0  0  0  0
   -1.9899   33.4123   22.8039 C   0  0  0  0  0  0  0  0  0  0  0  0
   -1.5520   33.9105   23.9710 N   0  0  0  0  0  0  0  0  0  0  0  0
    3.8527   34.1808   25.3842 H   0  0  0  0  0  0  0  0  0  0  0  0
    2.6269   34.7418   26.4285 H   0  0  0  0  0  0  0  0  0  0  0  0
   -2.4137   34.4880   25.0188 C   0  0  0  0  0  0  0  0  0  0  0  0
   -7.8339   35.1282   23.0624 C   0  0  0  0  0  0  0  0  0  0  0  0
   -4.3216   32.0126   24.7473 C   0  0  0  0  0  0  0  0  0  0  0  0
   -5.5431   35.9645   23.7270 C   0  0  0  0  0  0  0  0  0  0  0  0
   -4.2883   35.7863   24.1989 N   0  0  0  0  0  0  0  0  0  0  0  0
   -6.4429   34.9070   23.6162 C   0  0  0  0  0  0  0  0  0  0  0  0
   -4.7301   33.4487   24.4048 C   0  0  0  0  0  0  0  0  0  0  0  0
   -3.8565   34.5678   24.5400 C   0  0  0  0  0  0  0  0  0  0  0  0
   -6.0077   33.6314   23.9127 C   0  0  0  0  0  0  0  0  0  0  0  0
   -7.4473   31.9880   24.9514 C   0  0  0  0  0  0  0  0  0  0  0  0
   -6.8695   32.5718   23.7927 O   0  0  0  0  0  0  0  0  0  0  0  0
  1  2  2  0  0  0
  1  7  1  0  0  0
  2  3  1  0  0  0
  2  4  1  0  0  0
  4  5  2  0  0  0
  5  6  1  0  0  0
  5 11  1  0  0  0
  6  7  2  0  0  0
  6  9  1  0  0  0
  7  8  1  0  0  0
  9 10  2  0  0  0
 10 11  1  0  0  0
 11 14  1  0  0  0
 23 24  1  0  0  0
 15 19  1  0  0  0
 16 20  1  0  0  0
 17 18  2  0  0  0
 17 19  1  0  0  0
 14 21  1  0  0  0
 18 21  1  0  0  0
 24 22  1  0  0  0
 19 22  2  0  0  0
 20 21  2  0  0  0
 20 22  1  0  0  0
  3 12  1  0  0  0
  3 13  1  0  0  0
M  END
> <minimizedAffinity>
-7.46677

$$$$
