1PME_SB2_A_1001
  RCSB PDB12061703403D
Coordinates from PDB:1PME:A:1001 Model:1 without hydrogens
 27 30  0  0  0  0            999 V2000
   -8.3020   18.2160   43.9820   O 0  0  0  0  0  0  0  0  0  0  0  0
   -7.1180   16.0940   45.3480   C 0  0  0  0  0  0  0  0  0  0  0  0
   -8.2360   16.7430   44.1980   S 0  0  0  0  0  0  0  0  0  0  0  0
  -10.5340   15.5730   41.1320   C 0  0  0  0  0  0  0  0  0  0  0  0
   -9.5200   16.1780   41.8690   C 0  0  0  0  0  0  0  0  0  0  0  0
   -9.3690   15.9000   43.2120   C 0  0  0  0  0  0  0  0  0  0  0  0
  -10.2160   14.9850   43.7800   C 0  0  0  0  0  0  0  0  0  0  0  0
  -11.2350   14.3990   43.0680   C 0  0  0  0  0  0  0  0  0  0  0  0
  -11.4170   14.6840   41.7310   C 0  0  0  0  0  0  0  0  0  0  0  0
  -18.2890   11.3480   41.2940   N 0  0  0  0  0  0  0  0  0  0  0  0
  -17.2620   10.6060   40.8780   C 0  0  0  0  0  0  0  0  0  0  0  0
  -15.9960   11.0900   40.5670   C 0  0  0  0  0  0  0  0  0  0  0  0
  -15.7510   12.4420   40.6940   C 0  0  0  0  0  0  0  0  0  0  0  0
  -16.8120   13.2360   41.1220   C 0  0  0  0  0  0  0  0  0  0  0  0
  -18.0460   12.6460   41.4050   C 0  0  0  0  0  0  0  0  0  0  0  0
  -13.7810   13.9180   41.3640   N 0  0  0  0  0  0  0  0  0  0  0  0
  -12.5420   14.0610   40.9510   C 0  0  0  0  0  0  0  0  0  0  0  0
  -12.3530   13.5720   39.7460   N 0  0  0  0  0  0  0  0  0  0  0  0
  -13.5270   12.7880   39.4470   C 0  0  0  0  0  0  0  0  0  0  0  0
  -14.4120   13.0090   40.4400   C 0  0  0  0  0  0  0  0  0  0  0  0
  -14.6220   11.8850   37.3820   C 0  0  0  0  0  0  0  0  0  0  0  0
  -14.6710   10.9760   36.3520   C 0  0  0  0  0  0  0  0  0  0  0  0
  -13.6740   10.0510   36.2350   C 0  0  0  0  0  0  0  0  0  0  0  0
  -12.6080   10.0390   37.1000   C 0  0  0  0  0  0  0  0  0  0  0  0
  -12.5730   10.9480   38.1180   C 0  0  0  0  0  0  0  0  0  0  0  0
  -13.5780   11.8760   38.2880   C 0  0  0  0  0  0  0  0  0  0  0  0
  -13.8960    9.0150   35.4600   F 0  0  0  0  0  0  0  0  0  0  0  0
  1  3  2  0  0  0  0
  2  3  1  0  0  0  0
  3  6  1  0  0  0  0
  4  5  2  0  0  0  0
  4  9  1  0  0  0  0
  5  6  1  0  0  0  0
  6  7  2  0  0  0  0
  7  8  1  0  0  0  0
  8  9  2  0  0  0  0
  9 17  1  0  0  0  0
 10 11  2  0  0  0  0
 10 15  1  0  0  0  0
 11 12  1  0  0  0  0
 12 13  2  0  0  0  0
 13 14  1  0  0  0  0
 13 20  1  0  0  0  0
 14 15  2  0  0  0  0
 16 17  1  0  0  0  0
 16 20  1  0  0  0  0
 17 18  2  0  0  0  0
 18 19  1  0  0  0  0
 19 20  2  0  0  0  0
 19 26  1  0  0  0  0
 21 22  2  0  0  0  0
 21 26  1  0  0  0  0
 22 23  1  0  0  0  0
 23 24  2  0  0  0  0
 23 27  1  0  0  0  0
 24 25  1  0  0  0  0
 25 26  2  0  0  0  0
A    1
O2
A    2
C1
A    3
S1
A    4
CA1
A    5
CA2
A    6
CA3
A    7
CA4
A    8
CA5
A    9
CA6
A   10
NB1
A   11
CB2
A   12
CB3
A   13
CB4
A   14
CB5
A   15
CB6
A   16
NC1
A   17
CC2
A   18
NC3
A   19
CC4
A   20
CC5
A   21
CD1
A   22
CD2
A   23
CD3
A   24
CD4
A   25
CD5
A   26
CD6
A   27
FD3
M  END
>  <InstanceId>
1PME_SB2_A_1001

>  <ChemCompId>
SB2

>  <PdbId>
1PME

>  <ChainId>
A

>  <ResidueNumber>
1001

>  <InsertionCode>


>  <Model>
1

>  <AltIds>


>  <MissingHeavyAtoms>
0

>  <ObservedFormula>
C21 N3 O S F

>  <Name>
4-[5-(4-FLUORO-PHENYL)-2-(4-METHANESULFINYL-PHENYL)-3H-IMIDAZOL-4-YL]-PYRIDINE

>  <SystematicName>
4-[5-(4-fluorophenyl)-2-[4-[(S)-methylsulfinyl]phenyl]-3H-imidazol-4-yl]pyridine

>  <Synonyms>


>  <Type>
NON-POLYMER

>  <Formula>
C21 H16 F N3 O S

>  <MolecularWeight>
377.435

>  <ModifiedDate>
2012-01-05

>  <Parent>


>  <OneLetterCode>


>  <SubcomponentList>


>  <AmbiguousFlag>
N

>  <InChI>
InChI=1S/C21H16FN3OS/c1-27(26)18-8-4-16(5-9-18)21-24-19(14-2-6-17(22)7-3-14)20(25-21)15-10-12-23-13-11-15/h2-13H,1H3,(H,24,25)/t27-/m0/s1

>  <InChIKey>
CDMGBJANTYXAIV-MHZLTWQESA-N

>  <SMILES>
C[S@](=O)c1ccc(cc1)c2[nH]c(c(n2)c3ccc(cc3)F)c4ccncc4

$$$$
