3ML5_AZM_A_264


 16 16  0  0  0  0  0  0  0  0999 V2000
   -3.2480   -0.3343   23.2542 C   0  0  0  0  0  0  0  0  0  0  0  0
   -2.9091   -1.4696   21.2338 C   0  0  0  0  0  0  0  0  0  0  0  0
   -3.8815   -1.9896   21.9404 N   0  0  0  0  0  0  0  0  0  0  0  0
   -4.0738   -1.3204   23.1205 N   0  0  0  0  0  0  0  0  0  0  0  0
   -2.1322   -0.0987   21.9610 S   0  0  0  0  0  0  0  0  0  0  0  0
   -4.2570    1.9030   24.3876 N   0  0  0  0  0  0  0  0  0  0  0  0
   -3.8247   -0.0818   25.7329 O   0  0  0  0  0  0  0  0  0  0  0  0
   -1.9413    1.2445   24.7961 O   0  0  0  0  0  0  0  0  0  0  0  0
   -3.2654    0.7192   24.6878 S   0  0  0  0  0  0  0  0  0  0  0  0
   -5.2066    1.5393   24.3081 H   0  0  0  0  0  0  0  0  0  0  0  0
   -3.9918    2.3552   23.5126 H   0  0  0  0  0  0  0  0  0  0  0  0
   -1.6278   -2.9980   19.7831 C   0  0  0  0  0  0  0  0  0  0  0  0
   -1.3576   -3.2847   18.3427 C   0  0  0  0  0  0  0  0  0  0  0  0
   -2.5719   -2.0028   20.0096 N   0  0  0  0  0  0  0  0  0  0  0  0
   -1.0779   -3.5729   20.7018 O   0  0  0  0  0  0  0  0  0  0  0  0
   -3.0430   -1.6464   19.2220 H   0  0  0  0  0  0  0  0  0  0  0  0
  1  4  2  0  0  0
  1  9  1  0  0  0
  1  5  1  0  0  0
  2  3  2  0  0  0
  2 14  1  0  0  0
  2  5  1  0  0  0
 12 13  1  0  0  0
 12 14  1  0  0  0
 12 15  2  0  0  0
  6  9  1  0  0  0
  3  4  1  0  0  0
  7  9  2  0  0  0
  8  9  2  0  0  0
  6 10  1  0  0  0
  6 11  1  0  0  0
 14 16  1  0  0  0
M  END
> <minimizedAffinity>
-6.43519

$$$$
3ML5_AZM_A_264


 16 16  0  0  0  0  0  0  0  0999 V2000
   -2.5022   -0.6519   21.6587 C   0  0  0  0  0  0  0  0  0  0  0  0
   -2.1100   -2.3786   20.1257 C   0  0  0  0  0  0  0  0  0  0  0  0
   -1.0680   -2.1374   20.8815 N   0  0  0  0  0  0  0  0  0  0  0  0
   -1.3050   -1.1263   21.7755 N   0  0  0  0  0  0  0  0  0  0  0  0
   -3.4898   -1.3755   20.4446 S   0  0  0  0  0  0  0  0  0  0  0  0
   -4.5604    1.0058   22.2284 N   0  0  0  0  0  0  0  0  0  0  0  0
   -3.1589    0.1114   24.0095 O   0  0  0  0  0  0  0  0  0  0  0  0
   -2.2542    1.7875   22.4108 O   0  0  0  0  0  0  0  0  0  0  0  0
   -3.0958    0.6682   22.6932 S   0  0  0  0  0  0  0  0  0  0  0  0
   -5.1709    0.2127   22.4253 H   0  0  0  0  0  0  0  0  0  0  0  0
   -4.5636    1.1967   21.2264 H   0  0  0  0  0  0  0  0  0  0  0  0
   -1.6687   -3.2106   17.8463 C   0  0  0  0  0  0  0  0  0  0  0  0
   -1.8568   -4.4198   16.9905 C   0  0  0  0  0  0  0  0  0  0  0  0
   -2.0657   -3.3687   19.1694 N   0  0  0  0  0  0  0  0  0  0  0  0
   -1.2101   -2.1605   17.4419 O   0  0  0  0  0  0  0  0  0  0  0  0
   -2.3405   -4.2720   19.4485 H   0  0  0  0  0  0  0  0  0  0  0  0
  1  4  2  0  0  0
  1  9  1  0  0  0
  1  5  1  0  0  0
  2  3  2  0  0  0
  2 14  1  0  0  0
  2  5  1  0  0  0
 12 13  1  0  0  0
 12 14  1  0  0  0
 12 15  2  0  0  0
  6  9  1  0  0  0
  3  4  1  0  0  0
  7  9  2  0  0  0
  8  9  2  0  0  0
  6 10  1  0  0  0
  6 11  1  0  0  0
 14 16  1  0  0  0
M  END
> <minimizedAffinity>
-6.17670

$$$$
3ML5_AZM_A_264


 16 16  0  0  0  0  0  0  0  0999 V2000
   -2.3406   -3.0815   19.5642 C   0  0  0  0  0  0  0  0  0  0  0  0
   -4.1343   -2.5970   20.9902 C   0  0  0  0  0  0  0  0  0  0  0  0
   -3.4500   -3.6408   21.3873 N   0  0  0  0  0  0  0  0  0  0  0  0
   -2.4027   -3.9179   20.5483 N   0  0  0  0  0  0  0  0  0  0  0  0
   -3.5505   -1.8533   19.5350 S   0  0  0  0  0  0  0  0  0  0  0  0
   -1.4073   -2.1105   17.2201 N   0  0  0  0  0  0  0  0  0  0  0  0
    0.1328   -2.8078   18.9746 O   0  0  0  0  0  0  0  0  0  0  0  0
   -1.2184   -4.4895   17.7376 O   0  0  0  0  0  0  0  0  0  0  0  0
   -1.0779   -3.1905   18.3155 S   0  0  0  0  0  0  0  0  0  0  0  0
   -1.3102   -1.1780   17.6219 H   0  0  0  0  0  0  0  0  0  0  0  0
   -2.3639   -2.2408   16.8909 H   0  0  0  0  0  0  0  0  0  0  0  0
   -5.1922   -1.6306   22.9975 C   0  0  0  0  0  0  0  0  0  0  0  0
   -6.5352   -1.3714   23.5966 C   0  0  0  0  0  0  0  0  0  0  0  0
   -5.2224   -2.1587   21.7117 N   0  0  0  0  0  0  0  0  0  0  0  0
   -4.1427   -1.4087   23.5686 O   0  0  0  0  0  0  0  0  0  0  0  0
   -6.1031   -2.2255   21.2768 H   0  0  0  0  0  0  0  0  0  0  0  0
  1  4  2  0  0  0
  1  9  1  0  0  0
  1  5  1  0  0  0
  2  3  2  0  0  0
  2 14  1  0  0  0
  2  5  1  0  0  0
 12 13  1  0  0  0
 12 14  1  0  0  0
 12 15  2  0  0  0
  6  9  1  0  0  0
  3  4  1  0  0  0
  7  9  2  0  0  0
  8  9  2  0  0  0
  6 10  1  0  0  0
  6 11  1  0  0  0
 14 16  1  0  0  0
M  END
> <minimizedAffinity>
-5.92609

$$$$
3ML5_AZM_A_264


 16 16  0  0  0  0  0  0  0  0999 V2000
   -4.6159   -1.4620   22.6910 C   0  0  0  0  0  0  0  0  0  0  0  0
   -3.2023   -1.8132   20.8568 C   0  0  0  0  0  0  0  0  0  0  0  0
   -2.6488   -1.0617   21.7756 N   0  0  0  0  0  0  0  0  0  0  0  0
   -3.4815   -0.8608   22.8451 N   0  0  0  0  0  0  0  0  0  0  0  0
   -4.8126   -2.3462   21.2238 S   0  0  0  0  0  0  0  0  0  0  0  0
   -5.9493   -2.7855   24.6349 N   0  0  0  0  0  0  0  0  0  0  0  0
   -5.4431   -0.4140   24.8721 O   0  0  0  0  0  0  0  0  0  0  0  0
   -7.1144   -1.1883   23.2014 O   0  0  0  0  0  0  0  0  0  0  0  0
   -5.8969   -1.3835   23.9231 S   0  0  0  0  0  0  0  0  0  0  0  0
   -5.0841   -2.9358   25.1538 H   0  0  0  0  0  0  0  0  0  0  0  0
   -6.0573   -3.5187   23.9342 H   0  0  0  0  0  0  0  0  0  0  0  0
   -1.5069   -3.0850   19.5957 C   0  0  0  0  0  0  0  0  0  0  0  0
   -0.8317   -3.1244   18.2643 C   0  0  0  0  0  0  0  0  0  0  0  0
   -2.5142   -2.1332   19.7075 N   0  0  0  0  0  0  0  0  0  0  0  0
   -1.2159   -3.8140   20.5234 O   0  0  0  0  0  0  0  0  0  0  0  0
   -2.7581   -1.6426   18.8896 H   0  0  0  0  0  0  0  0  0  0  0  0
  1  4  2  0  0  0
  1  9  1  0  0  0
  1  5  1  0  0  0
  2  3  2  0  0  0
  2 14  1  0  0  0
  2  5  1  0  0  0
 12 13  1  0  0  0
 12 14  1  0  0  0
 12 15  2  0  0  0
  6  9  1  0  0  0
  3  4  1  0  0  0
  7  9  2  0  0  0
  8  9  2  0  0  0
  6 10  1  0  0  0
  6 11  1  0  0  0
 14 16  1  0  0  0
M  END
> <minimizedAffinity>
-5.86521

$$$$
3ML5_AZM_A_264


 16 16  0  0  0  0  0  0  0  0999 V2000
   -2.5040   -2.2880   18.9349 C   0  0  0  0  0  0  0  0  0  0  0  0
   -3.5412   -1.3605   20.8190 C   0  0  0  0  0  0  0  0  0  0  0  0
   -4.3147   -1.3369   19.7623 N   0  0  0  0  0  0  0  0  0  0  0  0
   -3.7012   -1.8810   18.6645 N   0  0  0  0  0  0  0  0  0  0  0  0
   -1.9735   -2.0580   20.5593 S   0  0  0  0  0  0  0  0  0  0  0  0
   -0.1745   -3.5646   18.4332 N   0  0  0  0  0  0  0  0  0  0  0  0
   -2.2065   -4.1763   17.2362 O   0  0  0  0  0  0  0  0  0  0  0  0
   -1.0985   -1.9913   16.8102 O   0  0  0  0  0  0  0  0  0  0  0  0
   -1.4670   -3.0441   17.7029 S   0  0  0  0  0  0  0  0  0  0  0  0
   -0.4258   -4.3174   19.0739 H   0  0  0  0  0  0  0  0  0  0  0  0
    0.2511   -2.8000   18.9573 H   0  0  0  0  0  0  0  0  0  0  0  0
   -3.7685    0.4205   22.5098 C   0  0  0  0  0  0  0  0  0  0  0  0
   -4.2410    0.6462   23.9083 C   0  0  0  0  0  0  0  0  0  0  0  0
   -3.9877   -0.8634   22.0233 N   0  0  0  0  0  0  0  0  0  0  0  0
   -3.2305    1.2735   21.8317 O   0  0  0  0  0  0  0  0  0  0  0  0
   -4.5103   -1.4736   22.5923 H   0  0  0  0  0  0  0  0  0  0  0  0
  1  4  2  0  0  0
  1  9  1  0  0  0
  1  5  1  0  0  0
  2  3  2  0  0  0
  2 14  1  0  0  0
  2  5  1  0  0  0
 12 13  1  0  0  0
 12 14  1  0  0  0
 12 15  2  0  0  0
  6  9  1  0  0  0
  3  4  1  0  0  0
  7  9  2  0  0  0
  8  9  2  0  0  0
  6 10  1  0  0  0
  6 11  1  0  0  0
 14 16  1  0  0  0
M  END
> <minimizedAffinity>
-5.77263

$$$$
3ML5_AZM_A_264


 16 16  0  0  0  0  0  0  0  0999 V2000
   -1.9895   -1.3294   21.3794 C   0  0  0  0  0  0  0  0  0  0  0  0
   -2.8967    0.1929   22.9108 C   0  0  0  0  0  0  0  0  0  0  0  0
   -1.5900    0.1361   22.9795 N   0  0  0  0  0  0  0  0  0  0  0  0
   -1.0668   -0.7563   22.0810 N   0  0  0  0  0  0  0  0  0  0  0  0
   -3.6106   -0.8555   21.7264 S   0  0  0  0  0  0  0  0  0  0  0  0
   -1.9724   -3.9486   20.7102 N   0  0  0  0  0  0  0  0  0  0  0  0
   -2.5022   -2.2475   19.0482 O   0  0  0  0  0  0  0  0  0  0  0  0
   -0.1922   -2.4633   19.9434 O   0  0  0  0  0  0  0  0  0  0  0  0
   -1.6073   -2.5338   20.1270 S   0  0  0  0  0  0  0  0  0  0  0  0
   -2.9815   -4.0105   20.8455 H   0  0  0  0  0  0  0  0  0  0  0  0
   -1.5007   -4.0796   21.6050 H   0  0  0  0  0  0  0  0  0  0  0  0
   -4.0386    0.7570   25.0227 C   0  0  0  0  0  0  0  0  0  0  0  0
   -4.9098    1.8055   25.6324 C   0  0  0  0  0  0  0  0  0  0  0  0
   -3.6037    1.0418   23.7332 N   0  0  0  0  0  0  0  0  0  0  0  0
   -3.7230   -0.2720   25.5869 O   0  0  0  0  0  0  0  0  0  0  0  0
   -3.8212    1.9326   23.3749 H   0  0  0  0  0  0  0  0  0  0  0  0
  1  4  2  0  0  0
  1  9  1  0  0  0
  1  5  1  0  0  0
  2  3  2  0  0  0
  2 14  1  0  0  0
  2  5  1  0  0  0
 12 13  1  0  0  0
 12 14  1  0  0  0
 12 15  2  0  0  0
  6  9  1  0  0  0
  3  4  1  0  0  0
  7  9  2  0  0  0
  8  9  2  0  0  0
  6 10  1  0  0  0
  6 11  1  0  0  0
 14 16  1  0  0  0
M  END
> <minimizedAffinity>
-5.76375

$$$$
3ML5_AZM_A_264


 16 16  0  0  0  0  0  0  0  0999 V2000
   -2.8351    0.7525   22.9541 C   0  0  0  0  0  0  0  0  0  0  0  0
   -4.7594   -0.5413   22.6249 C   0  0  0  0  0  0  0  0  0  0  0  0
   -4.4235    0.1332   21.5537 N   0  0  0  0  0  0  0  0  0  0  0  0
   -3.2972    0.8874   21.7540 N   0  0  0  0  0  0  0  0  0  0  0  0
   -3.7145   -0.3082   23.9907 S   0  0  0  0  0  0  0  0  0  0  0  0
   -1.4447    3.0708   22.9241 N   0  0  0  0  0  0  0  0  0  0  0  0
   -1.4966    1.6816   24.9251 O   0  0  0  0  0  0  0  0  0  0  0  0
   -0.2769    0.9264   22.8940 O   0  0  0  0  0  0  0  0  0  0  0  0
   -1.3750    1.6091   23.5016 S   0  0  0  0  0  0  0  0  0  0  0  0
   -2.2260    3.5682   23.3514 H   0  0  0  0  0  0  0  0  0  0  0  0
   -1.5786    3.0312   21.9137 H   0  0  0  0  0  0  0  0  0  0  0  0
   -5.8473   -2.7530   22.5373 C   0  0  0  0  0  0  0  0  0  0  0  0
   -7.1930   -3.3850   22.3973 C   0  0  0  0  0  0  0  0  0  0  0  0
   -5.8633   -1.3649   22.6147 N   0  0  0  0  0  0  0  0  0  0  0  0
   -4.8069   -3.3797   22.5799 O   0  0  0  0  0  0  0  0  0  0  0  0
   -6.7452   -0.9305   22.6672 H   0  0  0  0  0  0  0  0  0  0  0  0
  1  4  2  0  0  0
  1  9  1  0  0  0
  1  5  1  0  0  0
  2  3  2  0  0  0
  2 14  1  0  0  0
  2  5  1  0  0  0
 12 13  1  0  0  0
 12 14  1  0  0  0
 12 15  2  0  0  0
  6  9  1  0  0  0
  3  4  1  0  0  0
  7  9  2  0  0  0
  8  9  2  0  0  0
  6 10  1  0  0  0
  6 11  1  0  0  0
 14 16  1  0  0  0
M  END
> <minimizedAffinity>
-5.67094

$$$$
3ML5_AZM_A_264


 16 16  0  0  0  0  0  0  0  0999 V2000
   -2.5125   -1.6401   21.3264 C   0  0  0  0  0  0  0  0  0  0  0  0
   -3.8926   -0.4231   22.7754 C   0  0  0  0  0  0  0  0  0  0  0  0
   -2.6355   -0.0678   22.8692 N   0  0  0  0  0  0  0  0  0  0  0  0
   -1.8346   -0.7839   22.0187 N   0  0  0  0  0  0  0  0  0  0  0  0
   -4.2102   -1.6826   21.6247 S   0  0  0  0  0  0  0  0  0  0  0  0
   -0.1939   -2.4107   20.1694 N   0  0  0  0  0  0  0  0  0  0  0  0
   -1.9516   -4.0349   20.6262 O   0  0  0  0  0  0  0  0  0  0  0  0
   -2.2546   -2.3074   18.8634 O   0  0  0  0  0  0  0  0  0  0  0  0
   -1.7381   -2.7090   20.1334 S   0  0  0  0  0  0  0  0  0  0  0  0
    0.1861   -2.6938   21.0727 H   0  0  0  0  0  0  0  0  0  0  0  0
   -0.0371   -1.4122   20.0324 H   0  0  0  0  0  0  0  0  0  0  0  0
   -5.6956    1.2195   23.1410 C   0  0  0  0  0  0  0  0  0  0  0  0
   -6.5411    1.7994   24.2268 C   0  0  0  0  0  0  0  0  0  0  0  0
   -4.8523    0.1919   23.5484 N   0  0  0  0  0  0  0  0  0  0  0  0
   -5.7223    1.5996   21.9871 O   0  0  0  0  0  0  0  0  0  0  0  0
   -4.9503   -0.1256   24.4752 H   0  0  0  0  0  0  0  0  0  0  0  0
  1  4  2  0  0  0
  1  9  1  0  0  0
  1  5  1  0  0  0
  2  3  2  0  0  0
  2 14  1  0  0  0
  2  5  1  0  0  0
 12 13  1  0  0  0
 12 14  1  0  0  0
 12 15  2  0  0  0
  6  9  1  0  0  0
  3  4  1  0  0  0
  7  9  2  0  0  0
  8  9  2  0  0  0
  6 10  1  0  0  0
  6 11  1  0  0  0
 14 16  1  0  0  0
M  END
> <minimizedAffinity>
-5.64780

$$$$
3ML5_AZM_A_264


 16 16  0  0  0  0  0  0  0  0999 V2000
   -3.4475   -1.8648   20.2163 C   0  0  0  0  0  0  0  0  0  0  0  0
   -5.6927   -1.2860   20.5473 C   0  0  0  0  0  0  0  0  0  0  0  0
   -5.2857   -1.0264   19.3298 N   0  0  0  0  0  0  0  0  0  0  0  0
   -3.9717   -1.3676   19.1439 N   0  0  0  0  0  0  0  0  0  0  0  0
   -4.4876   -1.9779   21.5868 S   0  0  0  0  0  0  0  0  0  0  0  0
   -1.7556   -3.9154   20.7071 N   0  0  0  0  0  0  0  0  0  0  0  0
   -1.2915   -2.3254   18.9203 O   0  0  0  0  0  0  0  0  0  0  0  0
   -1.1362   -1.6297   21.3027 O   0  0  0  0  0  0  0  0  0  0  0  0
   -1.7529   -2.4035   20.2722 S   0  0  0  0  0  0  0  0  0  0  0  0
   -2.1941   -4.4781   19.9781 H   0  0  0  0  0  0  0  0  0  0  0  0
   -2.2788   -4.0181   21.5767 H   0  0  0  0  0  0  0  0  0  0  0  0
   -7.4756    0.2046   21.3732 C   0  0  0  0  0  0  0  0  0  0  0  0
   -8.8902    0.1760   21.8508 C   0  0  0  0  0  0  0  0  0  0  0  0
   -6.9905   -1.0180   20.9225 N   0  0  0  0  0  0  0  0  0  0  0  0
   -6.7826    1.2029   21.3710 O   0  0  0  0  0  0  0  0  0  0  0  0
   -7.6342   -1.7608   20.8664 H   0  0  0  0  0  0  0  0  0  0  0  0
  1  4  2  0  0  0
  1  9  1  0  0  0
  1  5  1  0  0  0
  2  3  2  0  0  0
  2 14  1  0  0  0
  2  5  1  0  0  0
 12 13  1  0  0  0
 12 14  1  0  0  0
 12 15  2  0  0  0
  6  9  1  0  0  0
  3  4  1  0  0  0
  7  9  2  0  0  0
  8  9  2  0  0  0
  6 10  1  0  0  0
  6 11  1  0  0  0
 14 16  1  0  0  0
M  END
> <minimizedAffinity>
-5.58743

$$$$
3ML5_AZM_A_264


 16 16  0  0  0  0  0  0  0  0999 V2000
   -3.1932   -0.3319   23.6043 C   0  0  0  0  0  0  0  0  0  0  0  0
   -4.8150   -1.7916   24.4556 C   0  0  0  0  0  0  0  0  0  0  0  0
   -3.7716   -1.6936   25.2411 N   0  0  0  0  0  0  0  0  0  0  0  0
   -2.8275   -0.8382   24.7366 N   0  0  0  0  0  0  0  0  0  0  0  0
   -4.7317   -0.8348   23.0102 S   0  0  0  0  0  0  0  0  0  0  0  0
   -1.8249    1.9978   23.6972 N   0  0  0  0  0  0  0  0  0  0  0  0
   -0.9635    0.1034   22.4301 O   0  0  0  0  0  0  0  0  0  0  0  0
   -2.9870    1.3251   21.6576 O   0  0  0  0  0  0  0  0  0  0  0  0
   -2.1693    0.8189   22.7141 S   0  0  0  0  0  0  0  0  0  0  0  0
   -1.2407    1.6477   24.4565 H   0  0  0  0  0  0  0  0  0  0  0  0
   -2.6876    2.3829   24.0818 H   0  0  0  0  0  0  0  0  0  0  0  0
   -7.0165   -2.2054   25.4875 C   0  0  0  0  0  0  0  0  0  0  0  0
   -7.9403   -3.3197   25.8547 C   0  0  0  0  0  0  0  0  0  0  0  0
   -5.8750   -2.6010   24.7992 N   0  0  0  0  0  0  0  0  0  0  0  0
   -7.2222   -1.0389   25.7592 O   0  0  0  0  0  0  0  0  0  0  0  0
   -5.8194   -3.5471   24.5328 H   0  0  0  0  0  0  0  0  0  0  0  0
  1  4  2  0  0  0
  1  9  1  0  0  0
  1  5  1  0  0  0
  2  3  2  0  0  0
  2 14  1  0  0  0
  2  5  1  0  0  0
 12 13  1  0  0  0
 12 14  1  0  0  0
 12 15  2  0  0  0
  6  9  1  0  0  0
  3  4  1  0  0  0
  7  9  2  0  0  0
  8  9  2  0  0  0
  6 10  1  0  0  0
  6 11  1  0  0  0
 14 16  1  0  0  0
M  END
> <minimizedAffinity>
-5.53348

$$$$
