3ZC5_W9Z_A_2345


 27 31  0  0  0  0  0  0  0  0999 V2000
   18.5762   83.9210    6.3046 N   0  0  0  0  0  0  0  0  0  0  0  0
   18.6849   83.5472    5.0549 N   0  0  0  0  0  0  0  0  0  0  0  0
   18.7750   85.1396    6.9104 C   0  0  0  0  0  0  0  0  0  0  0  0
   18.1680   83.7799    8.4403 N   0  0  0  0  0  0  0  0  0  0  0  0
   18.3986   82.2437    4.7583 C   0  0  0  0  0  0  0  0  0  0  0  0
   18.5093   85.0026    8.1735 N   0  0  0  0  0  0  0  0  0  0  0  0
   18.0103   81.3037    5.7780 C   0  0  0  0  0  0  0  0  0  0  0  0
   17.9032   81.7381    7.1332 C   0  0  0  0  0  0  0  0  0  0  0  0
   18.1957   83.0984    7.3519 C   0  0  0  0  0  0  0  0  0  0  0  0
   19.1503   81.7870    1.1911 N   0  0  0  0  0  0  0  0  0  0  0  0
   18.1897   80.9292    1.3549 N   0  0  0  0  0  0  0  0  0  0  0  0
   18.4762   81.8347    3.3270 C   0  0  0  0  0  0  0  0  0  0  0  0
   19.3877   82.3716    2.3147 C   0  0  0  0  0  0  0  0  0  0  0  0
   17.7089   80.8905    2.6612 C   0  0  0  0  0  0  0  0  0  0  0  0
   17.6599   80.0852    0.2846 C   0  0  0  0  0  0  0  0  0  0  0  0
   19.2207   86.4436    6.2364 C   0  0  0  0  0  0  0  0  0  0  0  0
   19.2606   87.6119    7.2477 C   0  0  0  0  0  0  0  0  0  0  0  0
   23.5575   85.9323    5.1181 C   0  0  0  0  0  0  0  0  0  0  0  0
   24.8966   85.8054    4.8620 N   0  0  0  0  0  0  0  0  0  0  0  0
   23.1466   86.0862    6.4647 C   0  0  0  0  0  0  0  0  0  0  0  0
   21.7708   86.2357    6.7980 C   0  0  0  0  0  0  0  0  0  0  0  0
   20.7254   86.2393    5.7946 C   0  0  0  0  0  0  0  0  0  0  0  0
   21.1275   86.0744    4.4215 C   0  0  0  0  0  0  0  0  0  0  0  0
   22.5367   85.9195    4.0779 C   0  0  0  0  0  0  0  0  0  0  0  0
   22.9837   85.7590    2.7281 C   0  0  0  0  0  0  0  0  0  0  0  0
   24.3853   85.6243    2.4622 C   0  0  0  0  0  0  0  0  0  0  0  0
   25.2992   85.6566    3.5620 C   0  0  0  0  0  0  0  0  0  0  0  0
 24 18  2  0  0  0
 19 18  1  0  0  0
 18 20  1  0  0  0
 27 19  2  0  0  0
 20 21  2  0  0  0
  2  1  1  0  0  0
  1  3  1  0  0  0
  1  9  1  0  0  0
 22 21  1  0  0  0
  5  2  2  0  0  0
 23 22  2  0  0  0
 22 16  1  0  0  0
 10 11  1  0  0  0
 10 13  2  0  0  0
 16  3  1  0  0  0
 16 17  1  0  0  0
 15 11  1  0  0  0
 11 14  1  0  0  0
  3  6  2  0  0  0
  9  4  2  0  0  0
  6  4  1  0  0  0
 12  5  1  0  0  0
  5  7  1  0  0  0
 13 12  1  0  0  0
 14 12  2  0  0  0
  7  8  2  0  0  0
  8  9  1  0  0  0
 24 23  1  0  0  0
 25 24  1  0  0  0
 26 25  2  0  0  0
 26 27  1  0  0  0
M  END
> <minimizedAffinity>
-12.06398

$$$$
