3JUK_UPG_A_282
  RCSB PDB12061709203D
Coordinates from PDB:3JUK:A:282 Model:1 without hydrogens
 36 38  0  0  0  0            999 V2000
   59.8830   37.3130   55.8530   N 0  0  0  0  0  0  0  0  0  0  0  0
   60.0270   35.9090   55.8450   C 0  0  0  0  0  0  0  0  0  0  0  0
   58.9470   35.1800   55.7630   N 0  0  0  0  0  0  0  0  0  0  0  0
   57.7510   35.7550   55.6910   C 0  0  0  0  0  0  0  0  0  0  0  0
   57.5660   37.1390   55.6940   C 0  0  0  0  0  0  0  0  0  0  0  0
   58.6930   37.9180   55.7790   C 0  0  0  0  0  0  0  0  0  0  0  0
   61.1240   35.3810   55.9130   O 0  0  0  0  0  0  0  0  0  0  0  0
   56.8260   35.0180   55.6260   O 0  0  0  0  0  0  0  0  0  0  0  0
   61.1090   38.0900   55.9560   C 0  0  0  0  0  0  0  0  0  0  0  0
   61.4600   38.9410   54.7670   C 0  0  0  0  0  0  0  0  0  0  0  0
   62.0420   38.2270   53.6990   O 0  0  0  0  0  0  0  0  0  0  0  0
   62.2830   40.0280   55.4130   C 0  0  0  0  0  0  0  0  0  0  0  0
   61.6470   40.1290   56.7700   C 0  0  0  0  0  0  0  0  0  0  0  0
   60.9720   38.9540   57.0280   O 0  0  0  0  0  0  0  0  0  0  0  0
   63.6250   39.7020   55.7030   O 0  0  0  0  0  0  0  0  0  0  0  0
   60.7940   41.3470   56.9160   C 0  0  0  0  0  0  0  0  0  0  0  0
   59.7890   41.2690   55.9860   O 0  0  0  0  0  0  0  0  0  0  0  0
   59.1270   42.4940   55.4580   P 0  0  0  0  0  0  0  0  0  0  0  0
   58.1110   42.1740   54.6250   O 0  0  0  0  0  0  0  0  0  0  0  0
   60.0190   43.2530   54.7040   O 0  0  0  0  0  0  0  0  0  0  0  0
   58.5840   43.2500   56.7260   O 0  0  0  0  0  0  0  0  0  0  0  0
   58.3510   44.7670   56.9630   P 0  0  0  0  0  0  0  0  0  0  0  0
   59.4360   45.4950   56.4440   O 0  0  0  0  0  0  0  0  0  0  0  0
   57.1150   45.1620   56.4230   O 0  0  0  0  0  0  0  0  0  0  0  0
   58.4190   44.9440   58.5010   O 0  0  0  0  0  0  0  0  0  0  0  0
   59.4460   44.5490   59.3830   C 0  0  0  0  0  0  0  0  0  0  0  0
   58.9140   44.5760   60.8140   C 0  0  0  0  0  0  0  0  0  0  0  0
   58.5940   46.0040   61.2670   C 0  0  0  0  0  0  0  0  0  0  0  0
   59.8270   46.8920   61.0280   C 0  0  0  0  0  0  0  0  0  0  0  0
   60.3030   46.7340   59.5660   C 0  0  0  0  0  0  0  0  0  0  0  0
   61.5400   47.5690   59.3110   C 0  0  0  0  0  0  0  0  0  0  0  0
   57.7850   43.7550   60.8160   O 0  0  0  0  0  0  0  0  0  0  0  0
   58.1260   46.0440   62.5680   O 0  0  0  0  0  0  0  0  0  0  0  0
   59.6920   48.2650   61.3650   O 0  0  0  0  0  0  0  0  0  0  0  0
   60.5830   45.3810   59.3070   O 0  0  0  0  0  0  0  0  0  0  0  0
   62.3290   47.0600   58.3380   O 0  0  0  0  0  0  0  0  0  0  0  0
  1  2  1  0  0  0  0
  1  6  1  0  0  0  0
  1  9  1  0  0  0  0
  2  3  1  0  0  0  0
  2  7  2  0  0  0  0
  3  4  1  0  0  0  0
  4  5  1  0  0  0  0
  4  8  2  0  0  0  0
  5  6  2  0  0  0  0
  9 10  1  0  0  0  0
  9 14  1  0  0  0  0
 10 11  1  0  0  0  0
 10 12  1  0  0  0  0
 12 13  1  0  0  0  0
 12 15  1  0  0  0  0
 13 14  1  0  0  0  0
 13 16  1  0  0  0  0
 16 17  1  0  0  0  0
 17 18  1  0  0  0  0
 18 19  2  0  0  0  0
 18 20  1  0  0  0  0
 18 21  1  0  0  0  0
 21 22  1  0  0  0  0
 22 23  2  0  0  0  0
 22 24  1  0  0  0  0
 22 25  1  0  0  0  0
 25 26  1  0  0  0  0
 26 27  1  0  0  0  0
 26 35  1  0  0  0  0
 27 28  1  0  0  0  0
 27 32  1  0  0  0  0
 28 29  1  0  0  0  0
 28 33  1  0  0  0  0
 29 30  1  0  0  0  0
 29 34  1  0  0  0  0
 30 31  1  0  0  0  0
 30 35  1  0  0  0  0
 31 36  1  0  0  0  0
A    1
N1
A    2
C2
A    3
N3
A    4
C4
A    5
C5
A    6
C6
A    7
O2
A    8
O4
A    9
C1C
A   10
C2C
A   11
O2C
A   12
C3C
A   13
C4C
A   14
O4C
A   15
O3C
A   16
C5C
A   17
O5C
A   18
PA
A   19
O1A
A   20
O2A
A   21
O3A
A   22
PB
A   23
O1B
A   24
O2B
A   25
O3B
A   26
C1'
A   27
C2'
A   28
C3'
A   29
C4'
A   30
C5'
A   31
C6'
A   32
O2'
A   33
O3'
A   34
O4'
A   35
O5'
A   36
O6'
M  END
>  <InstanceId>
3JUK_UPG_A_282

>  <ChemCompId>
UPG

>  <PdbId>
3JUK

>  <ChainId>
A

>  <ResidueNumber>
282

>  <InsertionCode>


>  <Model>
1

>  <AltIds>


>  <MissingHeavyAtoms>
0

>  <ObservedFormula>
C15 N2 O17 P2

>  <Name>
URIDINE-5'-DIPHOSPHATE-GLUCOSE

>  <SystematicName>
[[(2R,3S,4R,5R)-5-[2,4-bis(oxidanylidene)pyrimidin-1-yl]-3,4-bis(oxidanyl)oxolan-2-yl]methoxy-oxidanyl-phosphoryl] [(2R,3R,4S,5S,6R)-6-(hydroxymethyl)-3,4,5-tris(oxidanyl)oxan-2-yl] hydrogen phosphate

>  <Synonyms>
URIDINE-5'-MONOPHOSPHATE GLUCOPYRANOSYL-MONOPHOSPHATE ESTER

>  <Type>
NON-POLYMER

>  <Formula>
C15 H24 N2 O17 P2

>  <MolecularWeight>
566.302

>  <ModifiedDate>
2013-05-07

>  <Parent>


>  <OneLetterCode>


>  <SubcomponentList>


>  <AmbiguousFlag>
N

>  <InChI>
InChI=1S/C15H24N2O17P2/c18-3-5-8(20)10(22)12(24)14(32-5)33-36(28,29)34-35(26,27)30-4-6-9(21)11(23)13(31-6)17-2-1-7(19)16-15(17)25/h1-2,5-6,8-14,18,20-24H,3-4H2,(H,26,27)(H,28,29)(H,16,19,25)/t5-,6-,8-,9-,10+,11-,12-,13-,14-/m1/s1

>  <InChIKey>
HSCJRCZFDFQWRP-JZMIEXBBSA-N

>  <SMILES>
C1=CN(C(=O)NC1=O)[C@H]2[C@@H]([C@@H]([C@H](O2)CO[P@](=O)(O)O[P@](=O)(O)O[C@@H]3[C@@H]([C@H]([C@@H]([C@H](O3)CO)O)O)O)O)O

$$$$
