3JUK_UPG_A_282


 45 47  0  0  0  0  0  0  0  0999 V2000
   59.3086   42.5166   55.2080 P   0  0  0  0  0  0  0  0  0  0  0  0
   58.5045   41.6520   54.5488 O   0  0  0  0  0  0  0  0  0  0  0  0
   59.4571   43.6196   54.3704 O   0  0  0  0  0  0  0  0  0  0  0  0
   59.8367   43.3345   53.5245 H   0  0  0  0  0  0  0  0  0  0  0  0
   60.6291   41.8956   55.5048 O   0  0  0  0  0  0  0  0  0  0  0  0
   61.0122   41.6172   56.7919 C   0  0  0  0  0  0  0  0  0  0  0  0
   61.4187   38.3106   56.0640 C   0  0  0  0  0  0  0  0  0  0  0  0
   61.7937   39.0875   54.8323 C   0  0  0  0  0  0  0  0  0  0  0  0
   62.4241   38.3159   53.8341 O   0  0  0  0  0  0  0  0  0  0  0  0
   62.5746   40.2317   55.4298 C   0  0  0  0  0  0  0  0  0  0  0  0
   61.8917   40.4099   56.7558 C   0  0  0  0  0  0  0  0  0  0  0  0
   61.2301   39.2412   57.0704 O   0  0  0  0  0  0  0  0  0  0  0  0
   63.9118   39.9534   55.7842 O   0  0  0  0  0  0  0  0  0  0  0  0
   63.2231   37.9049   54.1995 H   0  0  0  0  0  0  0  0  0  0  0  0
   63.9315   39.2275   56.4273 H   0  0  0  0  0  0  0  0  0  0  0  0
   60.2112   37.5035   55.9741 N   0  0  0  0  0  0  0  0  0  0  0  0
   60.3922   36.1048   55.9206 C   0  0  0  0  0  0  0  0  0  0  0  0
   59.3300   35.3491   55.8489 N   0  0  0  0  0  0  0  0  0  0  0  0
   58.1175   35.8928   55.8288 C   0  0  0  0  0  0  0  0  0  0  0  0
   57.8960   37.2706   55.8779 C   0  0  0  0  0  0  0  0  0  0  0  0
   59.0039   38.0775   55.9528 C   0  0  0  0  0  0  0  0  0  0  0  0
   61.5044   35.6054   55.9409 O   0  0  0  0  0  0  0  0  0  0  0  0
   57.2109   35.1329   55.7693 O   0  0  0  0  0  0  0  0  0  0  0  0
   59.4278   34.3702   55.8094 H   0  0  0  0  0  0  0  0  0  0  0  0
   58.6970   42.8789   56.6112 O   0  0  0  0  0  0  0  0  0  0  0  0
   57.9065   44.1367   57.0636 P   0  0  0  0  0  0  0  0  0  0  0  0
   56.9086   44.4291   56.1174 O   0  0  0  0  0  0  0  0  0  0  0  0
   57.3977   43.9540   58.3609 O   0  0  0  0  0  0  0  0  0  0  0  0
   56.7668   43.2173   58.3600 H   0  0  0  0  0  0  0  0  0  0  0  0
   58.9267   45.2999   56.9764 O   0  0  0  0  0  0  0  0  0  0  0  0
   58.7358   46.6580   57.3048 C   0  0  0  0  0  0  0  0  0  0  0  0
   59.8879   47.4783   56.7291 C   0  0  0  0  0  0  0  0  0  0  0  0
   61.2161   47.1367   57.4118 C   0  0  0  0  0  0  0  0  0  0  0  0
   61.0419   47.2629   58.9349 C   0  0  0  0  0  0  0  0  0  0  0  0
   59.8149   46.4380   59.3855 C   0  0  0  0  0  0  0  0  0  0  0  0
   59.9087   47.1982   55.3617 O   0  0  0  0  0  0  0  0  0  0  0  0
   62.2658   47.8849   56.9102 O   0  0  0  0  0  0  0  0  0  0  0  0
   62.1762   46.9477   59.7291 O   0  0  0  0  0  0  0  0  0  0  0  0
   58.6725   46.8811   58.6966 O   0  0  0  0  0  0  0  0  0  0  0  0
   60.0353   46.2457   55.2287 H   0  0  0  0  0  0  0  0  0  0  0  0
   62.0976   48.8265   57.0711 H   0  0  0  0  0  0  0  0  0  0  0  0
   62.3868   46.0057   59.6327 H   0  0  0  0  0  0  0  0  0  0  0  0
   59.5956   46.5734   60.8775 C   0  0  0  0  0  0  0  0  0  0  0  0
   59.5464   47.8604   61.2890 O   0  0  0  0  0  0  0  0  0  0  0  0
   60.3928   48.2938   61.0973 H   0  0  0  0  0  0  0  0  0  0  0  0
 16 17  1  0  0  0
 16 21  1  0  0  0
 16  7  1  0  0  0
 17 18  1  0  0  0
 17 22  2  0  0  0
 18 19  1  0  0  0
 19 20  1  0  0  0
 19 23  2  0  0  0
 20 21  2  0  0  0
  7  8  1  0  0  0
  7 12  1  0  0  0
  8  9  1  0  0  0
  8 10  1  0  0  0
 10 11  1  0  0  0
 10 13  1  0  0  0
 11 12  1  0  0  0
 11  6  1  0  0  0
  6  5  1  0  0  0
  5  1  1  0  0  0
  1  2  2  0  0  0
  1  3  1  0  0  0
  1 25  1  0  0  0
 25 26  1  0  0  0
 26 27  2  0  0  0
 26 28  1  0  0  0
 26 30  1  0  0  0
 30 31  1  0  0  0
 31 32  1  0  0  0
 31 39  1  0  0  0
 32 33  1  0  0  0
 32 36  1  0  0  0
 33 34  1  0  0  0
 33 37  1  0  0  0
 34 35  1  0  0  0
 34 38  1  0  0  0
 35 43  1  0  0  0
 35 39  1  0  0  0
 43 44  1  0  0  0
 18 24  1  0  0  0
  9 14  1  0  0  0
 13 15  1  0  0  0
  3  4  1  0  0  0
 28 29  1  0  0  0
 36 40  1  0  0  0
 37 41  1  0  0  0
 38 42  1  0  0  0
 44 45  1  0  0  0
M  END
> <minimizedAffinity>
-11.65084

$$$$
3JUK_UPG_A_282


 45 47  0  0  0  0  0  0  0  0999 V2000
   58.9770   42.2811   55.8893 P   0  0  0  0  0  0  0  0  0  0  0  0
   58.0078   41.5050   55.3538 O   0  0  0  0  0  0  0  0  0  0  0  0
   59.6068   42.9067   54.8159 O   0  0  0  0  0  0  0  0  0  0  0  0
   59.9629   42.2348   54.2137 H   0  0  0  0  0  0  0  0  0  0  0  0
   59.9466   41.4615   56.6676 O   0  0  0  0  0  0  0  0  0  0  0  0
   61.2717   41.8071   56.7437 C   0  0  0  0  0  0  0  0  0  0  0  0
   61.5565   38.4205   56.4627 C   0  0  0  0  0  0  0  0  0  0  0  0
   62.1900   39.0240   55.2397 C   0  0  0  0  0  0  0  0  0  0  0  0
   62.9234   38.1069   54.4585 O   0  0  0  0  0  0  0  0  0  0  0  0
   62.9386   40.1893   55.8380 C   0  0  0  0  0  0  0  0  0  0  0  0
   62.0553   40.5600   56.9950 C   0  0  0  0  0  0  0  0  0  0  0  0
   61.2674   39.4732   57.3128 O   0  0  0  0  0  0  0  0  0  0  0  0
   64.1727   39.8860   56.4514 O   0  0  0  0  0  0  0  0  0  0  0  0
   63.6171   37.7015   55.0020 H   0  0  0  0  0  0  0  0  0  0  0  0
   64.0307   39.2422   57.1628 H   0  0  0  0  0  0  0  0  0  0  0  0
   60.3268   37.6724   56.2489 N   0  0  0  0  0  0  0  0  0  0  0  0
   60.4668   36.2904   55.9990 C   0  0  0  0  0  0  0  0  0  0  0  0
   59.3836   35.5860   55.8117 N   0  0  0  0  0  0  0  0  0  0  0  0
   58.1881   36.1648   55.8587 C   0  0  0  0  0  0  0  0  0  0  0  0
   58.0070   37.5279   56.1010 C   0  0  0  0  0  0  0  0  0  0  0  0
   59.1374   38.2811   56.2991 C   0  0  0  0  0  0  0  0  0  0  0  0
   61.5633   35.7586   55.9576 O   0  0  0  0  0  0  0  0  0  0  0  0
   57.2602   35.4496   55.6843 O   0  0  0  0  0  0  0  0  0  0  0  0
   59.4527   34.6201   55.6344 H   0  0  0  0  0  0  0  0  0  0  0  0
   58.3641   43.2925   56.9265 O   0  0  0  0  0  0  0  0  0  0  0  0
   57.4286   43.0377   58.1396 P   0  0  0  0  0  0  0  0  0  0  0  0
   56.1381   43.5110   57.8444 O   0  0  0  0  0  0  0  0  0  0  0  0
   57.4478   41.6780   58.4948 O   0  0  0  0  0  0  0  0  0  0  0  0
   57.0993   41.1473   57.7614 H   0  0  0  0  0  0  0  0  0  0  0  0
   57.9716   43.9594   59.2608 O   0  0  0  0  0  0  0  0  0  0  0  0
   59.0830   43.7513   60.1035 C   0  0  0  0  0  0  0  0  0  0  0  0
   58.7430   44.2402   61.5095 C   0  0  0  0  0  0  0  0  0  0  0  0
   58.5568   45.7604   61.5453 C   0  0  0  0  0  0  0  0  0  0  0  0
   59.7916   46.4298   60.9184 C   0  0  0  0  0  0  0  0  0  0  0  0
   60.0656   45.8118   59.5284 C   0  0  0  0  0  0  0  0  0  0  0  0
   57.5838   43.5565   61.8803 O   0  0  0  0  0  0  0  0  0  0  0  0
   58.2639   46.2183   62.8172 O   0  0  0  0  0  0  0  0  0  0  0  0
   59.7709   47.8477   60.8407 O   0  0  0  0  0  0  0  0  0  0  0  0
   60.2411   44.4232   59.6583 O   0  0  0  0  0  0  0  0  0  0  0  0
   56.8770   43.7498   61.2447 H   0  0  0  0  0  0  0  0  0  0  0  0
   58.9992   46.0080   63.4139 H   0  0  0  0  0  0  0  0  0  0  0  0
   59.0667   48.1281   60.2354 H   0  0  0  0  0  0  0  0  0  0  0  0
   61.2997   46.4257   58.9018 C   0  0  0  0  0  0  0  0  0  0  0  0
   62.2183   46.8131   59.8153 O   0  0  0  0  0  0  0  0  0  0  0  0
   61.8359   47.4950   60.3893 H   0  0  0  0  0  0  0  0  0  0  0  0
 16 17  1  0  0  0
 16 21  1  0  0  0
 16  7  1  0  0  0
 17 18  1  0  0  0
 17 22  2  0  0  0
 18 19  1  0  0  0
 19 20  1  0  0  0
 19 23  2  0  0  0
 20 21  2  0  0  0
  7  8  1  0  0  0
  7 12  1  0  0  0
  8  9  1  0  0  0
  8 10  1  0  0  0
 10 11  1  0  0  0
 10 13  1  0  0  0
 11 12  1  0  0  0
 11  6  1  0  0  0
  6  5  1  0  0  0
  5  1  1  0  0  0
  1  2  2  0  0  0
  1  3  1  0  0  0
  1 25  1  0  0  0
 25 26  1  0  0  0
 26 27  2  0  0  0
 26 28  1  0  0  0
 26 30  1  0  0  0
 30 31  1  0  0  0
 31 32  1  0  0  0
 31 39  1  0  0  0
 32 33  1  0  0  0
 32 36  1  0  0  0
 33 34  1  0  0  0
 33 37  1  0  0  0
 34 35  1  0  0  0
 34 38  1  0  0  0
 35 43  1  0  0  0
 35 39  1  0  0  0
 43 44  1  0  0  0
 18 24  1  0  0  0
  9 14  1  0  0  0
 13 15  1  0  0  0
  3  4  1  0  0  0
 28 29  1  0  0  0
 36 40  1  0  0  0
 37 41  1  0  0  0
 38 42  1  0  0  0
 44 45  1  0  0  0
M  END
> <minimizedAffinity>
-11.36364

$$$$
3JUK_UPG_A_282


 45 47  0  0  0  0  0  0  0  0999 V2000
   57.0730   42.5293   57.9991 P   0  0  0  0  0  0  0  0  0  0  0  0
   56.4436   43.6796   57.6685 O   0  0  0  0  0  0  0  0  0  0  0  0
   56.1840   41.8215   58.8047 O   0  0  0  0  0  0  0  0  0  0  0  0
   55.9575   42.3549   59.5826 H   0  0  0  0  0  0  0  0  0  0  0  0
   58.3418   42.8067   58.7277 O   0  0  0  0  0  0  0  0  0  0  0  0
   58.3360   43.3510   59.9865 C   0  0  0  0  0  0  0  0  0  0  0  0
   60.2016   46.0550   59.0718 C   0  0  0  0  0  0  0  0  0  0  0  0
   59.3301   46.4827   60.2201 C   0  0  0  0  0  0  0  0  0  0  0  0
   59.6671   47.7405   60.7619 O   0  0  0  0  0  0  0  0  0  0  0  0
   59.4252   45.2815   61.1280 C   0  0  0  0  0  0  0  0  0  0  0  0
   59.5819   44.1614   60.1395 C   0  0  0  0  0  0  0  0  0  0  0  0
   60.0431   44.6859   58.9499 O   0  0  0  0  0  0  0  0  0  0  0  0
   60.5920   45.1891   61.9162 O   0  0  0  0  0  0  0  0  0  0  0  0
   60.5906   47.7280   61.0584 H   0  0  0  0  0  0  0  0  0  0  0  0
   61.3716   45.1736   61.3392 H   0  0  0  0  0  0  0  0  0  0  0  0
   59.9037   46.6529   57.7791 N   0  0  0  0  0  0  0  0  0  0  0  0
   60.9357   47.4089   57.1829 C   0  0  0  0  0  0  0  0  0  0  0  0
   60.7065   47.9524   56.0182 N   0  0  0  0  0  0  0  0  0  0  0  0
   59.5310   47.7902   55.4197 C   0  0  0  0  0  0  0  0  0  0  0  0
   58.4844   47.0523   55.9763 C   0  0  0  0  0  0  0  0  0  0  0  0
   58.7111   46.4757   57.2012 C   0  0  0  0  0  0  0  0  0  0  0  0
   62.0150   47.5563   57.7308 O   0  0  0  0  0  0  0  0  0  0  0  0
   59.4123   48.3123   54.3631 O   0  0  0  0  0  0  0  0  0  0  0  0
   61.4088   48.4857   55.5805 H   0  0  0  0  0  0  0  0  0  0  0  0
   57.5018   41.7433   56.7059 O   0  0  0  0  0  0  0  0  0  0  0  0
   57.2802   40.2555   56.3197 P   0  0  0  0  0  0  0  0  0  0  0  0
   56.7840   39.5513   57.4307 O   0  0  0  0  0  0  0  0  0  0  0  0
   56.4463   40.1621   55.1922 O   0  0  0  0  0  0  0  0  0  0  0  0
   55.5724   40.5249   55.4054 H   0  0  0  0  0  0  0  0  0  0  0  0
   58.7022   39.6953   56.0636 O   0  0  0  0  0  0  0  0  0  0  0  0
   59.7485   39.5063   56.9900 C   0  0  0  0  0  0  0  0  0  0  0  0
   60.9380   40.3735   56.5845 C   0  0  0  0  0  0  0  0  0  0  0  0
   61.5519   39.9017   55.2627 C   0  0  0  0  0  0  0  0  0  0  0  0
   61.8635   38.3989   55.3649 C   0  0  0  0  0  0  0  0  0  0  0  0
   60.6026   37.6399   55.8373 C   0  0  0  0  0  0  0  0  0  0  0  0
   60.4482   41.6783   56.5042 O   0  0  0  0  0  0  0  0  0  0  0  0
   62.6410   40.6695   54.8920 O   0  0  0  0  0  0  0  0  0  0  0  0
   62.4118   37.7868   54.2066 O   0  0  0  0  0  0  0  0  0  0  0  0
   60.1735   38.1633   57.0693 O   0  0  0  0  0  0  0  0  0  0  0  0
   59.7300   41.7145   55.8532 H   0  0  0  0  0  0  0  0  0  0  0  0
   63.3327   40.5974   55.5682 H   0  0  0  0  0  0  0  0  0  0  0  0
   61.7568   37.8035   53.4913 H   0  0  0  0  0  0  0  0  0  0  0  0
   60.8899   36.1605   55.9835 C   0  0  0  0  0  0  0  0  0  0  0  0
   59.8430   35.3819   55.6286 O   0  0  0  0  0  0  0  0  0  0  0  0
   59.0880   35.5717   56.2074 H   0  0  0  0  0  0  0  0  0  0  0  0
 16 17  1  0  0  0
 16 21  1  0  0  0
 16  7  1  0  0  0
 17 18  1  0  0  0
 17 22  2  0  0  0
 18 19  1  0  0  0
 19 20  1  0  0  0
 19 23  2  0  0  0
 20 21  2  0  0  0
  7  8  1  0  0  0
  7 12  1  0  0  0
  8  9  1  0  0  0
  8 10  1  0  0  0
 10 11  1  0  0  0
 10 13  1  0  0  0
 11 12  1  0  0  0
 11  6  1  0  0  0
  6  5  1  0  0  0
  5  1  1  0  0  0
  1  2  2  0  0  0
  1  3  1  0  0  0
  1 25  1  0  0  0
 25 26  1  0  0  0
 26 27  2  0  0  0
 26 28  1  0  0  0
 26 30  1  0  0  0
 30 31  1  0  0  0
 31 32  1  0  0  0
 31 39  1  0  0  0
 32 33  1  0  0  0
 32 36  1  0  0  0
 33 34  1  0  0  0
 33 37  1  0  0  0
 34 35  1  0  0  0
 34 38  1  0  0  0
 35 43  1  0  0  0
 35 39  1  0  0  0
 43 44  1  0  0  0
 18 24  1  0  0  0
  9 14  1  0  0  0
 13 15  1  0  0  0
  3  4  1  0  0  0
 28 29  1  0  0  0
 36 40  1  0  0  0
 37 41  1  0  0  0
 38 42  1  0  0  0
 44 45  1  0  0  0
M  END
> <minimizedAffinity>
-11.11363

$$$$
3JUK_UPG_A_282


 45 47  0  0  0  0  0  0  0  0999 V2000
   57.0503   42.6829   58.6162 P   0  0  0  0  0  0  0  0  0  0  0  0
   57.0485   43.8742   57.9764 O   0  0  0  0  0  0  0  0  0  0  0  0
   55.7513   42.4940   59.0824 O   0  0  0  0  0  0  0  0  0  0  0  0
   55.5084   43.2274   59.6689 H   0  0  0  0  0  0  0  0  0  0  0  0
   58.0224   42.6855   59.7442 O   0  0  0  0  0  0  0  0  0  0  0  0
   57.6998   43.2289   60.9615 C   0  0  0  0  0  0  0  0  0  0  0  0
   59.9767   45.7444   60.6199 C   0  0  0  0  0  0  0  0  0  0  0  0
   58.8383   46.2823   61.4421 C   0  0  0  0  0  0  0  0  0  0  0  0
   59.1010   47.5310   62.0428 O   0  0  0  0  0  0  0  0  0  0  0  0
   58.5524   45.1139   62.3527 C   0  0  0  0  0  0  0  0  0  0  0  0
   58.9051   43.9472   61.4750 C   0  0  0  0  0  0  0  0  0  0  0  0
   59.7470   44.3877   60.4751 O   0  0  0  0  0  0  0  0  0  0  0  0
   59.4140   44.9638   63.4601 O   0  0  0  0  0  0  0  0  0  0  0  0
   59.8871   47.4596   62.6065 H   0  0  0  0  0  0  0  0  0  0  0  0
   60.3273   44.8660   63.1483 H   0  0  0  0  0  0  0  0  0  0  0  0
   60.1353   46.3120   59.2895 N   0  0  0  0  0  0  0  0  0  0  0  0
   61.4504   46.6461   58.9009 C   0  0  0  0  0  0  0  0  0  0  0  0
   61.6311   47.1493   57.7098 N   0  0  0  0  0  0  0  0  0  0  0  0
   60.5984   47.3357   56.8944 C   0  0  0  0  0  0  0  0  0  0  0  0
   59.2831   47.0205   57.2411 C   0  0  0  0  0  0  0  0  0  0  0  0
   59.0780   46.4913   58.4910 C   0  0  0  0  0  0  0  0  0  0  0  0
   62.3984   46.4734   59.6480 O   0  0  0  0  0  0  0  0  0  0  0  0
   60.8547   47.7905   55.8311 O   0  0  0  0  0  0  0  0  0  0  0  0
   62.5382   47.3921   57.4139 H   0  0  0  0  0  0  0  0  0  0  0  0
   57.5379   41.5394   57.6524 O   0  0  0  0  0  0  0  0  0  0  0  0
   58.9097   41.3374   56.9532 P   0  0  0  0  0  0  0  0  0  0  0  0
   58.9037   41.9936   55.7098 O   0  0  0  0  0  0  0  0  0  0  0  0
   59.9538   41.7607   57.7934 O   0  0  0  0  0  0  0  0  0  0  0  0
   59.8676   42.7120   57.9620 H   0  0  0  0  0  0  0  0  0  0  0  0
   58.9730   39.8226   56.6324 O   0  0  0  0  0  0  0  0  0  0  0  0
   58.7781   39.1818   55.3914 C   0  0  0  0  0  0  0  0  0  0  0  0
   58.0696   37.8491   55.6227 C   0  0  0  0  0  0  0  0  0  0  0  0
   58.9602   36.8654   56.3881 C   0  0  0  0  0  0  0  0  0  0  0  0
   60.3138   36.7514   55.6665 C   0  0  0  0  0  0  0  0  0  0  0  0
   60.9001   38.1635   55.4401 C   0  0  0  0  0  0  0  0  0  0  0  0
   56.8996   38.1558   56.3196 O   0  0  0  0  0  0  0  0  0  0  0  0
   58.3357   35.6479   56.5903 O   0  0  0  0  0  0  0  0  0  0  0  0
   61.2791   35.8985   56.2646 O   0  0  0  0  0  0  0  0  0  0  0  0
   59.9866   38.9388   54.7049 O   0  0  0  0  0  0  0  0  0  0  0  0
   57.1260   38.5993   57.1521 H   0  0  0  0  0  0  0  0  0  0  0  0
   58.1348   35.2412   55.7329 H   0  0  0  0  0  0  0  0  0  0  0  0
   61.5443   36.2626   57.1236 H   0  0  0  0  0  0  0  0  0  0  0  0
   62.2170   38.0852   54.6970 C   0  0  0  0  0  0  0  0  0  0  0  0
   63.1749   38.8724   55.2364 O   0  0  0  0  0  0  0  0  0  0  0  0
   62.8929   39.7996   55.1946 H   0  0  0  0  0  0  0  0  0  0  0  0
 16 17  1  0  0  0
 16 21  1  0  0  0
 16  7  1  0  0  0
 17 18  1  0  0  0
 17 22  2  0  0  0
 18 19  1  0  0  0
 19 20  1  0  0  0
 19 23  2  0  0  0
 20 21  2  0  0  0
  7  8  1  0  0  0
  7 12  1  0  0  0
  8  9  1  0  0  0
  8 10  1  0  0  0
 10 11  1  0  0  0
 10 13  1  0  0  0
 11 12  1  0  0  0
 11  6  1  0  0  0
  6  5  1  0  0  0
  5  1  1  0  0  0
  1  2  2  0  0  0
  1  3  1  0  0  0
  1 25  1  0  0  0
 25 26  1  0  0  0
 26 27  2  0  0  0
 26 28  1  0  0  0
 26 30  1  0  0  0
 30 31  1  0  0  0
 31 32  1  0  0  0
 31 39  1  0  0  0
 32 33  1  0  0  0
 32 36  1  0  0  0
 33 34  1  0  0  0
 33 37  1  0  0  0
 34 35  1  0  0  0
 34 38  1  0  0  0
 35 43  1  0  0  0
 35 39  1  0  0  0
 43 44  1  0  0  0
 18 24  1  0  0  0
  9 14  1  0  0  0
 13 15  1  0  0  0
  3  4  1  0  0  0
 28 29  1  0  0  0
 36 40  1  0  0  0
 37 41  1  0  0  0
 38 42  1  0  0  0
 44 45  1  0  0  0
M  END
> <minimizedAffinity>
-11.00223

$$$$
3JUK_UPG_A_282


 45 47  0  0  0  0  0  0  0  0999 V2000
   55.7819   41.8468   57.8917 P   0  0  0  0  0  0  0  0  0  0  0  0
   55.6606   40.5165   58.1021 O   0  0  0  0  0  0  0  0  0  0  0  0
   54.5933   42.4178   58.3405 O   0  0  0  0  0  0  0  0  0  0  0  0
   53.8466   42.0340   57.8547 H   0  0  0  0  0  0  0  0  0  0  0  0
   55.9981   42.1402   56.4478 O   0  0  0  0  0  0  0  0  0  0  0  0
   56.4297   41.1694   55.5804 C   0  0  0  0  0  0  0  0  0  0  0  0
   59.5682   40.2678   54.5977 C   0  0  0  0  0  0  0  0  0  0  0  0
   58.7023   40.2788   53.3685 C   0  0  0  0  0  0  0  0  0  0  0  0
   59.4183   40.1707   52.1582 O   0  0  0  0  0  0  0  0  0  0  0  0
   57.8881   41.5294   53.5906 C   0  0  0  0  0  0  0  0  0  0  0  0
   57.7838   41.5657   55.0886 C   0  0  0  0  0  0  0  0  0  0  0  0
   58.8035   40.8031   55.6191 O   0  0  0  0  0  0  0  0  0  0  0  0
   58.5244   42.7491   53.2763 O   0  0  0  0  0  0  0  0  0  0  0  0
   60.0590   40.8964   52.0956 H   0  0  0  0  0  0  0  0  0  0  0  0
   59.3332   42.8373   53.8044 H   0  0  0  0  0  0  0  0  0  0  0  0
   60.0466   38.9658   55.0374 N   0  0  0  0  0  0  0  0  0  0  0  0
   61.4220   38.7066   54.8548 C   0  0  0  0  0  0  0  0  0  0  0  0
   61.8878   37.5515   55.2464 N   0  0  0  0  0  0  0  0  0  0  0  0
   61.0804   36.6534   55.8012 C   0  0  0  0  0  0  0  0  0  0  0  0
   59.7150   36.8700   55.9976 C   0  0  0  0  0  0  0  0  0  0  0  0
   59.2112   38.0800   55.5899 C   0  0  0  0  0  0  0  0  0  0  0  0
   62.1635   39.5310   54.3476 O   0  0  0  0  0  0  0  0  0  0  0  0
   61.5886   35.6361   56.1326 O   0  0  0  0  0  0  0  0  0  0  0  0
   62.8432   37.3444   55.1299 H   0  0  0  0  0  0  0  0  0  0  0  0
   57.0566   42.4074   58.6231 O   0  0  0  0  0  0  0  0  0  0  0  0
   57.9834   43.5959   58.2487 P   0  0  0  0  0  0  0  0  0  0  0  0
   59.2309   43.1034   57.8272 O   0  0  0  0  0  0  0  0  0  0  0  0
   57.3636   44.4162   57.2904 O   0  0  0  0  0  0  0  0  0  0  0  0
   57.2211   43.9101   56.4752 H   0  0  0  0  0  0  0  0  0  0  0  0
   58.2482   44.3304   59.5873 O   0  0  0  0  0  0  0  0  0  0  0  0
   59.3024   44.1295   60.5023 C   0  0  0  0  0  0  0  0  0  0  0  0
   58.7920   44.3885   61.9179 C   0  0  0  0  0  0  0  0  0  0  0  0
   58.4276   45.8623   62.1223 C   0  0  0  0  0  0  0  0  0  0  0  0
   59.6238   46.7350   61.7059 C   0  0  0  0  0  0  0  0  0  0  0  0
   60.0825   46.3399   60.2838 C   0  0  0  0  0  0  0  0  0  0  0  0
   57.6936   43.5438   62.0870 O   0  0  0  0  0  0  0  0  0  0  0  0
   57.9786   46.1135   63.4062 O   0  0  0  0  0  0  0  0  0  0  0  0
   59.4445   48.1406   61.8016 O   0  0  0  0  0  0  0  0  0  0  0  0
   60.4072   44.9724   60.2582 O   0  0  0  0  0  0  0  0  0  0  0  0
   57.0244   43.7448   61.4142 H   0  0  0  0  0  0  0  0  0  0  0  0
   58.6813   45.9039   64.0412 H   0  0  0  0  0  0  0  0  0  0  0  0
   58.7652   48.4237   61.1697 H   0  0  0  0  0  0  0  0  0  0  0  0
   61.2844   47.1577   59.8607 C   0  0  0  0  0  0  0  0  0  0  0  0
   62.2319   46.4206   59.2385 O   0  0  0  0  0  0  0  0  0  0  0  0
   62.5643   45.7416   59.8464 H   0  0  0  0  0  0  0  0  0  0  0  0
 16 17  1  0  0  0
 16 21  1  0  0  0
 16  7  1  0  0  0
 17 18  1  0  0  0
 17 22  2  0  0  0
 18 19  1  0  0  0
 19 20  1  0  0  0
 19 23  2  0  0  0
 20 21  2  0  0  0
  7  8  1  0  0  0
  7 12  1  0  0  0
  8  9  1  0  0  0
  8 10  1  0  0  0
 10 11  1  0  0  0
 10 13  1  0  0  0
 11 12  1  0  0  0
 11  6  1  0  0  0
  6  5  1  0  0  0
  5  1  1  0  0  0
  1  2  2  0  0  0
  1  3  1  0  0  0
  1 25  1  0  0  0
 25 26  1  0  0  0
 26 27  2  0  0  0
 26 28  1  0  0  0
 26 30  1  0  0  0
 30 31  1  0  0  0
 31 32  1  0  0  0
 31 39  1  0  0  0
 32 33  1  0  0  0
 32 36  1  0  0  0
 33 34  1  0  0  0
 33 37  1  0  0  0
 34 35  1  0  0  0
 34 38  1  0  0  0
 35 43  1  0  0  0
 35 39  1  0  0  0
 43 44  1  0  0  0
 18 24  1  0  0  0
  9 14  1  0  0  0
 13 15  1  0  0  0
  3  4  1  0  0  0
 28 29  1  0  0  0
 36 40  1  0  0  0
 37 41  1  0  0  0
 38 42  1  0  0  0
 44 45  1  0  0  0
M  END
> <minimizedAffinity>
-10.80106

$$$$
3JUK_UPG_A_282


 45 47  0  0  0  0  0  0  0  0999 V2000
   58.2082   45.0591   53.5195 P   0  0  0  0  0  0  0  0  0  0  0  0
   57.1149   45.2813   52.7555 O   0  0  0  0  0  0  0  0  0  0  0  0
   59.2873   45.5794   52.8087 O   0  0  0  0  0  0  0  0  0  0  0  0
   59.3460   45.1426   51.9445 H   0  0  0  0  0  0  0  0  0  0  0  0
   58.3939   43.6035   53.7733 O   0  0  0  0  0  0  0  0  0  0  0  0
   58.1938   43.0664   55.0193 C   0  0  0  0  0  0  0  0  0  0  0  0
   57.5974   39.7263   55.3608 C   0  0  0  0  0  0  0  0  0  0  0  0
   57.1787   40.3873   56.6449 C   0  0  0  0  0  0  0  0  0  0  0  0
   56.4526   39.5479   57.5151 O   0  0  0  0  0  0  0  0  0  0  0  0
   56.4884   41.6259   56.1294 C   0  0  0  0  0  0  0  0  0  0  0  0
   57.2618   41.9078   54.8730 C   0  0  0  0  0  0  0  0  0  0  0  0
   57.8905   40.7467   54.4736 O   0  0  0  0  0  0  0  0  0  0  0  0
   55.1656   41.4539   55.6688 O   0  0  0  0  0  0  0  0  0  0  0  0
   55.6614   39.2183   57.0610 H   0  0  0  0  0  0  0  0  0  0  0  0
   55.1554   40.8015   54.9511 H   0  0  0  0  0  0  0  0  0  0  0  0
   58.7602   38.8545   55.4341 N   0  0  0  0  0  0  0  0  0  0  0  0
   58.5151   37.5062   55.7717 C   0  0  0  0  0  0  0  0  0  0  0  0
   59.5345   36.6931   55.8376 N   0  0  0  0  0  0  0  0  0  0  0  0
   60.7636   37.1338   55.5902 C   0  0  0  0  0  0  0  0  0  0  0  0
   61.0483   38.4591   55.2553 C   0  0  0  0  0  0  0  0  0  0  0  0
   59.9860   39.3255   55.1831 C   0  0  0  0  0  0  0  0  0  0  0  0
   57.3873   37.1010   55.9968 O   0  0  0  0  0  0  0  0  0  0  0  0
   61.6273   36.3268   55.6662 O   0  0  0  0  0  0  0  0  0  0  0  0
   59.3917   35.7477   56.0719 H   0  0  0  0  0  0  0  0  0  0  0  0
   58.0292   45.7074   54.9414 O   0  0  0  0  0  0  0  0  0  0  0  0
   58.3005   47.1595   55.4204 P   0  0  0  0  0  0  0  0  0  0  0  0
   59.5144   47.6140   54.8758 O   0  0  0  0  0  0  0  0  0  0  0  0
   57.2113   47.9899   55.1052 O   0  0  0  0  0  0  0  0  0  0  0  0
   57.1052   48.0324   54.1420 H   0  0  0  0  0  0  0  0  0  0  0  0
   58.5406   47.0363   56.9463 O   0  0  0  0  0  0  0  0  0  0  0  0
   58.5915   45.8669   57.7328 C   0  0  0  0  0  0  0  0  0  0  0  0
   58.4308   46.2459   59.2032 C   0  0  0  0  0  0  0  0  0  0  0  0
   59.6275   47.0587   59.7074 C   0  0  0  0  0  0  0  0  0  0  0  0
   60.9225   46.2945   59.3834 C   0  0  0  0  0  0  0  0  0  0  0  0
   60.9402   45.9184   57.8844 C   0  0  0  0  0  0  0  0  0  0  0  0
   57.2344   46.9607   59.2837 O   0  0  0  0  0  0  0  0  0  0  0  0
   59.5018   47.3950   61.0432 O   0  0  0  0  0  0  0  0  0  0  0  0
   62.1389   46.9259   59.7556 O   0  0  0  0  0  0  0  0  0  0  0  0
   59.8000   45.1553   57.5782 O   0  0  0  0  0  0  0  0  0  0  0  0
   57.2840   47.7399   58.7081 H   0  0  0  0  0  0  0  0  0  0  0  0
   59.4620   46.5865   61.5777 H   0  0  0  0  0  0  0  0  0  0  0  0
   62.2542   47.7371   59.2364 H   0  0  0  0  0  0  0  0  0  0  0  0
   62.1877   45.1312   57.5432 C   0  0  0  0  0  0  0  0  0  0  0  0
   61.9289   44.0211   56.8158 O   0  0  0  0  0  0  0  0  0  0  0  0
   61.3612   43.4241   57.3279 H   0  0  0  0  0  0  0  0  0  0  0  0
 16 17  1  0  0  0
 16 21  1  0  0  0
 16  7  1  0  0  0
 17 18  1  0  0  0
 17 22  2  0  0  0
 18 19  1  0  0  0
 19 20  1  0  0  0
 19 23  2  0  0  0
 20 21  2  0  0  0
  7  8  1  0  0  0
  7 12  1  0  0  0
  8  9  1  0  0  0
  8 10  1  0  0  0
 10 11  1  0  0  0
 10 13  1  0  0  0
 11 12  1  0  0  0
 11  6  1  0  0  0
  6  5  1  0  0  0
  5  1  1  0  0  0
  1  2  2  0  0  0
  1  3  1  0  0  0
  1 25  1  0  0  0
 25 26  1  0  0  0
 26 27  2  0  0  0
 26 28  1  0  0  0
 26 30  1  0  0  0
 30 31  1  0  0  0
 31 32  1  0  0  0
 31 39  1  0  0  0
 32 33  1  0  0  0
 32 36  1  0  0  0
 33 34  1  0  0  0
 33 37  1  0  0  0
 34 35  1  0  0  0
 34 38  1  0  0  0
 35 43  1  0  0  0
 35 39  1  0  0  0
 43 44  1  0  0  0
 18 24  1  0  0  0
  9 14  1  0  0  0
 13 15  1  0  0  0
  3  4  1  0  0  0
 28 29  1  0  0  0
 36 40  1  0  0  0
 37 41  1  0  0  0
 38 42  1  0  0  0
 44 45  1  0  0  0
M  END
> <minimizedAffinity>
-10.71134

$$$$
3JUK_UPG_A_282


 45 47  0  0  0  0  0  0  0  0999 V2000
   58.9525   47.9778   53.5311 P   0  0  0  0  0  0  0  0  0  0  0  0
   59.8385   48.6127   52.7309 O   0  0  0  0  0  0  0  0  0  0  0  0
   57.6896   48.3848   53.1070 O   0  0  0  0  0  0  0  0  0  0  0  0
   57.6216   49.3500   53.1740 H   0  0  0  0  0  0  0  0  0  0  0  0
   59.1723   48.3368   54.9596 O   0  0  0  0  0  0  0  0  0  0  0  0
   59.1185   47.3884   55.9488 C   0  0  0  0  0  0  0  0  0  0  0  0
   60.8634   46.5046   58.7423 C   0  0  0  0  0  0  0  0  0  0  0  0
   61.5101   45.8115   57.5750 C   0  0  0  0  0  0  0  0  0  0  0  0
   62.7517   45.2137   57.8755 O   0  0  0  0  0  0  0  0  0  0  0  0
   61.4930   46.9042   56.5348 C   0  0  0  0  0  0  0  0  0  0  0  0
   60.2424   47.6532   56.8971 C   0  0  0  0  0  0  0  0  0  0  0  0
   59.9274   47.3740   58.2107 O   0  0  0  0  0  0  0  0  0  0  0  0
   62.5045   47.8821   56.6442 O   0  0  0  0  0  0  0  0  0  0  0  0
   63.3611   45.8874   58.2156 H   0  0  0  0  0  0  0  0  0  0  0  0
   62.4458   48.3124   57.5115 H   0  0  0  0  0  0  0  0  0  0  0  0
   60.1803   45.6498   59.7015 N   0  0  0  0  0  0  0  0  0  0  0  0
   60.6679   45.6757   61.0258 C   0  0  0  0  0  0  0  0  0  0  0  0
   60.0730   44.9279   61.9154 N   0  0  0  0  0  0  0  0  0  0  0  0
   59.0374   44.1688   61.5722 C   0  0  0  0  0  0  0  0  0  0  0  0
   58.5264   44.1133   60.2740 C   0  0  0  0  0  0  0  0  0  0  0  0
   59.1427   44.8939   59.3280 C   0  0  0  0  0  0  0  0  0  0  0  0
   61.6167   46.3734   61.3415 O   0  0  0  0  0  0  0  0  0  0  0  0
   58.5547   43.5281   62.4437 O   0  0  0  0  0  0  0  0  0  0  0  0
   60.3934   44.9263   62.8463 H   0  0  0  0  0  0  0  0  0  0  0  0
   59.1610   46.4204   53.4592 O   0  0  0  0  0  0  0  0  0  0  0  0
   58.3373   45.3339   52.7156 P   0  0  0  0  0  0  0  0  0  0  0  0
   56.9756   45.6832   52.7337 O   0  0  0  0  0  0  0  0  0  0  0  0
   58.8391   45.1437   51.4166 O   0  0  0  0  0  0  0  0  0  0  0  0
   58.7377   45.9632   50.9076 H   0  0  0  0  0  0  0  0  0  0  0  0
   58.4614   44.0670   53.5993 O   0  0  0  0  0  0  0  0  0  0  0  0
   58.4608   43.9779   55.0067 C   0  0  0  0  0  0  0  0  0  0  0  0
   59.3450   42.8087   55.4341 C   0  0  0  0  0  0  0  0  0  0  0  0
   58.7495   41.4661   54.9985 C   0  0  0  0  0  0  0  0  0  0  0  0
   57.2956   41.3805   55.4932 C   0  0  0  0  0  0  0  0  0  0  0  0
   56.5224   42.6427   55.0482 C   0  0  0  0  0  0  0  0  0  0  0  0
   60.5941   43.0453   54.8574 O   0  0  0  0  0  0  0  0  0  0  0  0
   59.5333   40.3972   55.3938 O   0  0  0  0  0  0  0  0  0  0  0  0
   56.5779   40.2053   55.1458 O   0  0  0  0  0  0  0  0  0  0  0  0
   57.1695   43.7885   55.5427 O   0  0  0  0  0  0  0  0  0  0  0  0
   60.5001   43.0998   53.8935 H   0  0  0  0  0  0  0  0  0  0  0  0
   59.5932   40.3807   56.3618 H   0  0  0  0  0  0  0  0  0  0  0  0
   56.4606   40.1706   54.1836 H   0  0  0  0  0  0  0  0  0  0  0  0
   55.0957   42.6042   55.5536 C   0  0  0  0  0  0  0  0  0  0  0  0
   54.3325   41.6917   54.9109 O   0  0  0  0  0  0  0  0  0  0  0  0
   54.2821   41.9180   53.9691 H   0  0  0  0  0  0  0  0  0  0  0  0
 16 17  1  0  0  0
 16 21  1  0  0  0
 16  7  1  0  0  0
 17 18  1  0  0  0
 17 22  2  0  0  0
 18 19  1  0  0  0
 19 20  1  0  0  0
 19 23  2  0  0  0
 20 21  2  0  0  0
  7  8  1  0  0  0
  7 12  1  0  0  0
  8  9  1  0  0  0
  8 10  1  0  0  0
 10 11  1  0  0  0
 10 13  1  0  0  0
 11 12  1  0  0  0
 11  6  1  0  0  0
  6  5  1  0  0  0
  5  1  1  0  0  0
  1  2  2  0  0  0
  1  3  1  0  0  0
  1 25  1  0  0  0
 25 26  1  0  0  0
 26 27  2  0  0  0
 26 28  1  0  0  0
 26 30  1  0  0  0
 30 31  1  0  0  0
 31 32  1  0  0  0
 31 39  1  0  0  0
 32 33  1  0  0  0
 32 36  1  0  0  0
 33 34  1  0  0  0
 33 37  1  0  0  0
 34 35  1  0  0  0
 34 38  1  0  0  0
 35 43  1  0  0  0
 35 39  1  0  0  0
 43 44  1  0  0  0
 18 24  1  0  0  0
  9 14  1  0  0  0
 13 15  1  0  0  0
  3  4  1  0  0  0
 28 29  1  0  0  0
 36 40  1  0  0  0
 37 41  1  0  0  0
 38 42  1  0  0  0
 44 45  1  0  0  0
M  END
> <minimizedAffinity>
-10.68023

$$$$
3JUK_UPG_A_282


 45 47  0  0  0  0  0  0  0  0999 V2000
   55.9588   42.4705   57.8470 P   0  0  0  0  0  0  0  0  0  0  0  0
   56.3432   41.2980   58.4002 O   0  0  0  0  0  0  0  0  0  0  0  0
   54.7212   42.7745   58.4093 O   0  0  0  0  0  0  0  0  0  0  0  0
   54.0963   42.0564   58.2232 H   0  0  0  0  0  0  0  0  0  0  0  0
   55.8527   42.3516   56.3664 O   0  0  0  0  0  0  0  0  0  0  0  0
   56.3730   41.2721   55.6994 C   0  0  0  0  0  0  0  0  0  0  0  0
   59.4678   40.3949   54.5673 C   0  0  0  0  0  0  0  0  0  0  0  0
   58.5404   40.3828   53.3837 C   0  0  0  0  0  0  0  0  0  0  0  0
   59.1952   40.2695   52.1397 O   0  0  0  0  0  0  0  0  0  0  0  0
   57.7240   41.6266   53.6341 C   0  0  0  0  0  0  0  0  0  0  0  0
   57.6956   41.6780   55.1350 C   0  0  0  0  0  0  0  0  0  0  0  0
   58.7499   40.9328   55.6207 O   0  0  0  0  0  0  0  0  0  0  0  0
   58.3291   42.8498   53.2752 O   0  0  0  0  0  0  0  0  0  0  0  0
   59.8232   41.0015   52.0370 H   0  0  0  0  0  0  0  0  0  0  0  0
   59.1627   42.9528   53.7604 H   0  0  0  0  0  0  0  0  0  0  0  0
   59.9832   39.1032   54.9954 N   0  0  0  0  0  0  0  0  0  0  0  0
   61.3637   38.8816   54.8028 C   0  0  0  0  0  0  0  0  0  0  0  0
   61.8623   37.7367   55.1839 N   0  0  0  0  0  0  0  0  0  0  0  0
   61.0824   36.8141   55.7376 C   0  0  0  0  0  0  0  0  0  0  0  0
   59.7131   36.9932   55.9437 C   0  0  0  0  0  0  0  0  0  0  0  0
   59.1749   38.1921   55.5471 C   0  0  0  0  0  0  0  0  0  0  0  0
   62.0800   39.7286   54.2965 O   0  0  0  0  0  0  0  0  0  0  0  0
   61.6193   35.8084   56.0592 O   0  0  0  0  0  0  0  0  0  0  0  0
   62.8221   37.5558   55.0602 H   0  0  0  0  0  0  0  0  0  0  0  0
   57.0449   43.5807   58.0961 O   0  0  0  0  0  0  0  0  0  0  0  0
   58.5021   43.4556   58.6183 P   0  0  0  0  0  0  0  0  0  0  0  0
   58.5048   43.5247   60.0225 O   0  0  0  0  0  0  0  0  0  0  0  0
   59.0996   42.2834   58.1242 O   0  0  0  0  0  0  0  0  0  0  0  0
   58.6193   41.5099   58.4588 H   0  0  0  0  0  0  0  0  0  0  0  0
   59.2114   44.7438   58.1294 O   0  0  0  0  0  0  0  0  0  0  0  0
   58.7874   46.0818   58.2652 C   0  0  0  0  0  0  0  0  0  0  0  0
   59.6838   46.9792   57.4151 C   0  0  0  0  0  0  0  0  0  0  0  0
   61.1181   47.0105   57.9523 C   0  0  0  0  0  0  0  0  0  0  0  0
   61.0840   47.3747   59.4463 C   0  0  0  0  0  0  0  0  0  0  0  0
   60.1025   46.4369   60.1853 C   0  0  0  0  0  0  0  0  0  0  0  0
   59.6158   46.4664   56.1185 O   0  0  0  0  0  0  0  0  0  0  0  0
   61.9371   47.8330   57.1999 O   0  0  0  0  0  0  0  0  0  0  0  0
   62.3360   47.4167   60.1154 O   0  0  0  0  0  0  0  0  0  0  0  0
   58.8280   46.5361   59.6005 O   0  0  0  0  0  0  0  0  0  0  0  0
   59.9163   45.5442   56.1193 H   0  0  0  0  0  0  0  0  0  0  0  0
   61.6010   48.7423   57.2338 H   0  0  0  0  0  0  0  0  0  0  0  0
   62.7202   46.5263   60.1388 H   0  0  0  0  0  0  0  0  0  0  0  0
   60.0194   46.7963   61.6538 C   0  0  0  0  0  0  0  0  0  0  0  0
   59.2372   47.8737   61.8900 O   0  0  0  0  0  0  0  0  0  0  0  0
   59.6094   48.6483   61.4403 H   0  0  0  0  0  0  0  0  0  0  0  0
 16 17  1  0  0  0
 16 21  1  0  0  0
 16  7  1  0  0  0
 17 18  1  0  0  0
 17 22  2  0  0  0
 18 19  1  0  0  0
 19 20  1  0  0  0
 19 23  2  0  0  0
 20 21  2  0  0  0
  7  8  1  0  0  0
  7 12  1  0  0  0
  8  9  1  0  0  0
  8 10  1  0  0  0
 10 11  1  0  0  0
 10 13  1  0  0  0
 11 12  1  0  0  0
 11  6  1  0  0  0
  6  5  1  0  0  0
  5  1  1  0  0  0
  1  2  2  0  0  0
  1  3  1  0  0  0
  1 25  1  0  0  0
 25 26  1  0  0  0
 26 27  2  0  0  0
 26 28  1  0  0  0
 26 30  1  0  0  0
 30 31  1  0  0  0
 31 32  1  0  0  0
 31 39  1  0  0  0
 32 33  1  0  0  0
 32 36  1  0  0  0
 33 34  1  0  0  0
 33 37  1  0  0  0
 34 35  1  0  0  0
 34 38  1  0  0  0
 35 43  1  0  0  0
 35 39  1  0  0  0
 43 44  1  0  0  0
 18 24  1  0  0  0
  9 14  1  0  0  0
 13 15  1  0  0  0
  3  4  1  0  0  0
 28 29  1  0  0  0
 36 40  1  0  0  0
 37 41  1  0  0  0
 38 42  1  0  0  0
 44 45  1  0  0  0
M  END
> <minimizedAffinity>
-10.57634

$$$$
3JUK_UPG_A_282


 45 47  0  0  0  0  0  0  0  0999 V2000
   55.7660   41.4956   54.4422 P   0  0  0  0  0  0  0  0  0  0  0  0
   55.8423   42.5901   53.6518 O   0  0  0  0  0  0  0  0  0  0  0  0
   54.5829   40.8491   54.0920 O   0  0  0  0  0  0  0  0  0  0  0  0
   53.8342   41.4517   54.2229 H   0  0  0  0  0  0  0  0  0  0  0  0
   55.7544   41.8777   55.8815 O   0  0  0  0  0  0  0  0  0  0  0  0
   56.9198   42.0166   56.5911 C   0  0  0  0  0  0  0  0  0  0  0  0
   58.4135   44.7697   57.9394 C   0  0  0  0  0  0  0  0  0  0  0  0
   59.4939   43.9492   57.2907 C   0  0  0  0  0  0  0  0  0  0  0  0
   60.7355   44.6101   57.1869 O   0  0  0  0  0  0  0  0  0  0  0  0
   58.8168   43.5266   56.0104 C   0  0  0  0  0  0  0  0  0  0  0  0
   57.3808   43.4298   56.4402 C   0  0  0  0  0  0  0  0  0  0  0  0
   57.2113   44.1855   57.5816 O   0  0  0  0  0  0  0  0  0  0  0  0
   58.7861   44.4873   54.9773 O   0  0  0  0  0  0  0  0  0  0  0  0
   60.6232   45.4322   56.6844 H   0  0  0  0  0  0  0  0  0  0  0  0
   58.3318   45.2849   55.2909 H   0  0  0  0  0  0  0  0  0  0  0  0
   58.4515   44.8526   59.3917 N   0  0  0  0  0  0  0  0  0  0  0  0
   58.3512   46.1447   59.9507 C   0  0  0  0  0  0  0  0  0  0  0  0
   58.3725   46.2559   61.2514 N   0  0  0  0  0  0  0  0  0  0  0  0
   58.4846   45.1756   62.0173 C   0  0  0  0  0  0  0  0  0  0  0  0
   58.5882   43.8812   61.5040 C   0  0  0  0  0  0  0  0  0  0  0  0
   58.5680   43.7493   60.1378 C   0  0  0  0  0  0  0  0  0  0  0  0
   58.2464   47.1360   59.2484 O   0  0  0  0  0  0  0  0  0  0  0  0
   58.4889   45.3685   63.1859 O   0  0  0  0  0  0  0  0  0  0  0  0
   58.3051   47.1457   61.6674 H   0  0  0  0  0  0  0  0  0  0  0  0
   57.0434   40.5953   54.2635 O   0  0  0  0  0  0  0  0  0  0  0  0
   58.2129   40.7082   53.2480 P   0  0  0  0  0  0  0  0  0  0  0  0
   57.9845   39.8346   52.1704 O   0  0  0  0  0  0  0  0  0  0  0  0
   58.3843   42.0440   52.8463 O   0  0  0  0  0  0  0  0  0  0  0  0
   57.5874   42.3474   52.3840 H   0  0  0  0  0  0  0  0  0  0  0  0
   59.4459   40.1431   53.9975 O   0  0  0  0  0  0  0  0  0  0  0  0
   59.7103   40.1567   55.3827 C   0  0  0  0  0  0  0  0  0  0  0  0
   61.2151   40.2927   55.6032 C   0  0  0  0  0  0  0  0  0  0  0  0
   61.9683   39.0510   55.1156 C   0  0  0  0  0  0  0  0  0  0  0  0
   61.3400   37.8019   55.7566 C   0  0  0  0  0  0  0  0  0  0  0  0
   59.8134   37.8085   55.5149 C   0  0  0  0  0  0  0  0  0  0  0  0
   61.5976   41.4467   54.9172 O   0  0  0  0  0  0  0  0  0  0  0  0
   63.3317   39.1548   55.3244 O   0  0  0  0  0  0  0  0  0  0  0  0
   61.9004   36.5510   55.3848 O   0  0  0  0  0  0  0  0  0  0  0  0
   59.2604   38.9906   56.0373 O   0  0  0  0  0  0  0  0  0  0  0  0
   61.3722   41.3544   53.9782 H   0  0  0  0  0  0  0  0  0  0  0  0
   63.5078   39.2391   56.2745 H   0  0  0  0  0  0  0  0  0  0  0  0
   61.7376   36.3911   54.4421 H   0  0  0  0  0  0  0  0  0  0  0  0
   59.1613   36.6081   56.1678 C   0  0  0  0  0  0  0  0  0  0  0  0
   59.4070   35.4518   55.5112 O   0  0  0  0  0  0  0  0  0  0  0  0
   59.0425   35.5058   54.6139 H   0  0  0  0  0  0  0  0  0  0  0  0
 16 17  1  0  0  0
 16 21  1  0  0  0
 16  7  1  0  0  0
 17 18  1  0  0  0
 17 22  2  0  0  0
 18 19  1  0  0  0
 19 20  1  0  0  0
 19 23  2  0  0  0
 20 21  2  0  0  0
  7  8  1  0  0  0
  7 12  1  0  0  0
  8  9  1  0  0  0
  8 10  1  0  0  0
 10 11  1  0  0  0
 10 13  1  0  0  0
 11 12  1  0  0  0
 11  6  1  0  0  0
  6  5  1  0  0  0
  5  1  1  0  0  0
  1  2  2  0  0  0
  1  3  1  0  0  0
  1 25  1  0  0  0
 25 26  1  0  0  0
 26 27  2  0  0  0
 26 28  1  0  0  0
 26 30  1  0  0  0
 30 31  1  0  0  0
 31 32  1  0  0  0
 31 39  1  0  0  0
 32 33  1  0  0  0
 32 36  1  0  0  0
 33 34  1  0  0  0
 33 37  1  0  0  0
 34 35  1  0  0  0
 34 38  1  0  0  0
 35 43  1  0  0  0
 35 39  1  0  0  0
 43 44  1  0  0  0
 18 24  1  0  0  0
  9 14  1  0  0  0
 13 15  1  0  0  0
  3  4  1  0  0  0
 28 29  1  0  0  0
 36 40  1  0  0  0
 37 41  1  0  0  0
 38 42  1  0  0  0
 44 45  1  0  0  0
M  END
> <minimizedAffinity>
-10.56844

$$$$
3JUK_UPG_A_282


 45 47  0  0  0  0  0  0  0  0999 V2000
   58.0125   45.0674   53.5116 P   0  0  0  0  0  0  0  0  0  0  0  0
   57.3423   45.0801   52.3372 O   0  0  0  0  0  0  0  0  0  0  0  0
   59.3601   44.9353   53.1847 O   0  0  0  0  0  0  0  0  0  0  0  0
   59.4911   44.1196   52.6763 H   0  0  0  0  0  0  0  0  0  0  0  0
   57.5626   43.9365   54.3696 O   0  0  0  0  0  0  0  0  0  0  0  0
   58.2933   42.7797   54.4644 C   0  0  0  0  0  0  0  0  0  0  0  0
   57.6477   39.5253   55.2524 C   0  0  0  0  0  0  0  0  0  0  0  0
   57.2978   40.3535   56.4577 C   0  0  0  0  0  0  0  0  0  0  0  0
   56.5940   39.6490   57.4564 O   0  0  0  0  0  0  0  0  0  0  0  0
   56.6100   41.5336   55.8170 C   0  0  0  0  0  0  0  0  0  0  0  0
   57.3336   41.6352   54.5047 C   0  0  0  0  0  0  0  0  0  0  0  0
   57.9218   40.4179   54.2313 O   0  0  0  0  0  0  0  0  0  0  0  0
   55.2655   41.3375   55.4361 O   0  0  0  0  0  0  0  0  0  0  0  0
   55.7776   39.2842   57.0803 H   0  0  0  0  0  0  0  0  0  0  0  0
   55.2116   40.6000   54.8083 H   0  0  0  0  0  0  0  0  0  0  0  0
   58.7955   38.6414   55.3890 N   0  0  0  0  0  0  0  0  0  0  0  0
   58.5216   37.3081   55.7623 C   0  0  0  0  0  0  0  0  0  0  0  0
   59.5271   36.4844   55.8852 N   0  0  0  0  0  0  0  0  0  0  0  0
   60.7692   36.9008   55.6612 C   0  0  0  0  0  0  0  0  0  0  0  0
   61.0822   38.2107   55.2925 C   0  0  0  0  0  0  0  0  0  0  0  0
   60.0348   39.0879   55.1602 C   0  0  0  0  0  0  0  0  0  0  0  0
   57.3820   36.9251   55.9660 O   0  0  0  0  0  0  0  0  0  0  0  0
   61.6189   36.0856   55.7893 O   0  0  0  0  0  0  0  0  0  0  0  0
   59.3642   35.5490   56.1455 H   0  0  0  0  0  0  0  0  0  0  0  0
   57.6979   46.3665   54.3408 O   0  0  0  0  0  0  0  0  0  0  0  0
   58.5436   47.6531   54.5441 P   0  0  0  0  0  0  0  0  0  0  0  0
   59.1765   47.9942   53.3360 O   0  0  0  0  0  0  0  0  0  0  0  0
   57.7432   48.6882   55.0571 O   0  0  0  0  0  0  0  0  0  0  0  0
   57.0519   48.9112   54.4143 H   0  0  0  0  0  0  0  0  0  0  0  0
   59.6780   47.2340   55.5131 O   0  0  0  0  0  0  0  0  0  0  0  0
   59.7439   47.4078   56.9110 C   0  0  0  0  0  0  0  0  0  0  0  0
   61.1698   47.1318   57.3825 C   0  0  0  0  0  0  0  0  0  0  0  0
   61.5478   45.6592   57.1949 C   0  0  0  0  0  0  0  0  0  0  0  0
   60.4749   44.7795   57.8590 C   0  0  0  0  0  0  0  0  0  0  0  0
   59.0767   45.1924   57.3455 C   0  0  0  0  0  0  0  0  0  0  0  0
   61.9879   47.9863   56.6414 O   0  0  0  0  0  0  0  0  0  0  0  0
   62.8323   45.3924   57.6333 O   0  0  0  0  0  0  0  0  0  0  0  0
   60.6533   43.3748   57.7507 O   0  0  0  0  0  0  0  0  0  0  0  0
   58.8630   46.5562   57.6106 O   0  0  0  0  0  0  0  0  0  0  0  0
   61.8734   47.8040   55.6956 H   0  0  0  0  0  0  0  0  0  0  0  0
   62.8964   45.5836   58.5821 H   0  0  0  0  0  0  0  0  0  0  0  0
   60.5768   43.1099   56.8208 H   0  0  0  0  0  0  0  0  0  0  0  0
   57.9953   44.3676   58.0110 C   0  0  0  0  0  0  0  0  0  0  0  0
   58.1239   44.3155   59.3560 O   0  0  0  0  0  0  0  0  0  0  0  0
   58.9674   43.8943   59.5841 H   0  0  0  0  0  0  0  0  0  0  0  0
 16 17  1  0  0  0
 16 21  1  0  0  0
 16  7  1  0  0  0
 17 18  1  0  0  0
 17 22  2  0  0  0
 18 19  1  0  0  0
 19 20  1  0  0  0
 19 23  2  0  0  0
 20 21  2  0  0  0
  7  8  1  0  0  0
  7 12  1  0  0  0
  8  9  1  0  0  0
  8 10  1  0  0  0
 10 11  1  0  0  0
 10 13  1  0  0  0
 11 12  1  0  0  0
 11  6  1  0  0  0
  6  5  1  0  0  0
  5  1  1  0  0  0
  1  2  2  0  0  0
  1  3  1  0  0  0
  1 25  1  0  0  0
 25 26  1  0  0  0
 26 27  2  0  0  0
 26 28  1  0  0  0
 26 30  1  0  0  0
 30 31  1  0  0  0
 31 32  1  0  0  0
 31 39  1  0  0  0
 32 33  1  0  0  0
 32 36  1  0  0  0
 33 34  1  0  0  0
 33 37  1  0  0  0
 34 35  1  0  0  0
 34 38  1  0  0  0
 35 43  1  0  0  0
 35 39  1  0  0  0
 43 44  1  0  0  0
 18 24  1  0  0  0
  9 14  1  0  0  0
 13 15  1  0  0  0
  3  4  1  0  0  0
 28 29  1  0  0  0
 36 40  1  0  0  0
 37 41  1  0  0  0
 38 42  1  0  0  0
 44 45  1  0  0  0
M  END
> <minimizedAffinity>
-10.40436

$$$$
