3DGO_ATP_A_82
  RCSB PDB12061708193D
Coordinates from PDB:3DGO:A:82 Model:1 without hydrogens
 31 33  0  0  0  0            999 V2000
  -24.5410   10.2270  -17.4600   P 0  0  0  0  0  0  0  0  0  0  0  0
  -24.2040    9.9670  -18.9220   O 0  0  0  0  0  0  0  0  0  0  0  0
  -25.8070    9.5150  -17.0000   O 0  0  0  0  0  0  0  0  0  0  0  0
  -23.3600   10.1910  -16.4730   O 0  0  0  0  0  0  0  0  0  0  0  0
  -23.9830   13.0730  -17.7870   P 0  0  0  0  0  0  0  0  0  0  0  0
  -22.6920   12.4170  -18.3050   O 0  0  0  0  0  0  0  0  0  0  0  0
  -24.0030   13.9840  -16.5660   O 0  0  0  0  0  0  0  0  0  0  0  0
  -24.9830   11.8090  -17.4580   O 0  0  0  0  0  0  0  0  0  0  0  0
  -25.5880   12.9030  -20.0670   P 0  0  0  0  0  0  0  0  0  0  0  0
  -26.8160   12.5210  -19.2410   O 0  0  0  0  0  0  0  0  0  0  0  0
  -24.7710   11.7890  -20.7670   O 0  0  0  0  0  0  0  0  0  0  0  0
  -24.6680   13.8120  -19.0690   O 0  0  0  0  0  0  0  0  0  0  0  0
  -26.0010   13.9390  -21.2410   O 0  0  0  0  0  0  0  0  0  0  0  0
  -25.4300   13.8760  -22.5460   C 0  0  0  0  0  0  0  0  0  0  0  0
  -25.1940   15.3450  -22.7780   C 0  0  0  0  0  0  0  0  0  0  0  0
  -26.4130   15.9610  -22.3530   O 0  0  0  0  0  0  0  0  0  0  0  0
  -24.1020   15.8210  -21.8430   C 0  0  0  0  0  0  0  0  0  0  0  0
  -23.3870   16.8630  -22.5000   O 0  0  0  0  0  0  0  0  0  0  0  0
  -24.8500   16.4910  -20.7480   C 0  0  0  0  0  0  0  0  0  0  0  0
  -24.0700   17.6140  -20.3730   O 0  0  0  0  0  0  0  0  0  0  0  0
  -26.0660   16.9940  -21.4950   C 0  0  0  0  0  0  0  0  0  0  0  0
  -27.1460   17.2810  -20.5920   N 0  0  0  0  0  0  0  0  0  0  0  0
  -27.7430   16.4510  -19.7290   C 0  0  0  0  0  0  0  0  0  0  0  0
  -28.7010   17.1400  -19.0200   N 0  0  0  0  0  0  0  0  0  0  0  0
  -28.7070   18.4230  -19.4270   C 0  0  0  0  0  0  0  0  0  0  0  0
  -29.4430   19.6370  -19.0930   C 0  0  0  0  0  0  0  0  0  0  0  0
  -30.4120   19.6120  -18.1420   N 0  0  0  0  0  0  0  0  0  0  0  0
  -29.1320   20.7840  -19.7490   N 0  0  0  0  0  0  0  0  0  0  0  0
  -28.1980   20.7670  -20.6910   C 0  0  0  0  0  0  0  0  0  0  0  0
  -27.4850   19.6830  -21.0640   N 0  0  0  0  0  0  0  0  0  0  0  0
  -27.6840   18.5080  -20.4580   C 0  0  0  0  0  0  0  0  0  0  0  0
  1  2  2  0  0  0  0
  1  3  1  0  0  0  0
  1  4  1  0  0  0  0
  1  8  1  0  0  0  0
  5  6  2  0  0  0  0
  5  7  1  0  0  0  0
  5  8  1  0  0  0  0
  5 12  1  0  0  0  0
  9 10  2  0  0  0  0
  9 11  1  0  0  0  0
  9 12  1  0  0  0  0
  9 13  1  0  0  0  0
 13 14  1  0  0  0  0
 14 15  1  0  0  0  0
 15 16  1  0  0  0  0
 15 17  1  0  0  0  0
 16 21  1  0  0  0  0
 17 18  1  0  0  0  0
 17 19  1  0  0  0  0
 19 20  1  0  0  0  0
 19 21  1  0  0  0  0
 21 22  1  0  0  0  0
 22 23  1  0  0  0  0
 22 31  1  0  0  0  0
 23 24  2  0  0  0  0
 24 25  1  0  0  0  0
 25 26  1  0  0  0  0
 25 31  2  0  0  0  0
 26 27  1  0  0  0  0
 26 28  2  0  0  0  0
 28 29  1  0  0  0  0
 29 30  2  0  0  0  0
 30 31  1  0  0  0  0
A    1
PG
A    2
O1G
A    3
O2G
A    4
O3G
A    5
PB
A    6
O1B
A    7
O2B
A    8
O3B
A    9
PA
A   10
O1A
A   11
O2A
A   12
O3A
A   13
O5'
A   14
C5'
A   15
C4'
A   16
O4'
A   17
C3'
A   18
O3'
A   19
C2'
A   20
O2'
A   21
C1'
A   22
N9
A   23
C8
A   24
N7
A   25
C5
A   26
C6
A   27
N6
A   28
N1
A   29
C2
A   30
N3
A   31
C4
M  END
>  <InstanceId>
3DGO_ATP_A_82

>  <ChemCompId>
ATP

>  <PdbId>
3DGO

>  <ChainId>
A

>  <ResidueNumber>
82

>  <InsertionCode>


>  <Model>
1

>  <AltIds>


>  <MissingHeavyAtoms>
0

>  <ObservedFormula>
C10 N5 O13 P3

>  <Name>
ADENOSINE-5'-TRIPHOSPHATE

>  <SystematicName>
[[(2R,3S,4R,5R)-5-(6-aminopurin-9-yl)-3,4-dihydroxy-oxolan-2-yl]methoxy-hydroxy-phosphoryl] phosphono hydrogen phosphate

>  <Synonyms>


>  <Type>
NON-POLYMER

>  <Formula>
C10 H16 N5 O13 P3

>  <MolecularWeight>
507.181

>  <ModifiedDate>
2011-06-04

>  <Parent>


>  <OneLetterCode>


>  <SubcomponentList>


>  <AmbiguousFlag>
N

>  <InChI>
InChI=1S/C10H16N5O13P3/c11-8-5-9(13-2-12-8)15(3-14-5)10-7(17)6(16)4(26-10)1-25-30(21,22)28-31(23,24)27-29(18,19)20/h2-4,6-7,10,16-17H,1H2,(H,21,22)(H,23,24)(H2,11,12,13)(H2,18,19,20)/t4-,6-,7-,10-/m1/s1

>  <InChIKey>
ZKHQWZAMYRWXGA-KQYNXXCUSA-N

>  <SMILES>
c1nc(c2c(n1)n(cn2)[C@H]3[C@@H]([C@@H]([C@H](O3)CO[P@@](=O)(O)O[P@](=O)(O)OP(=O)(O)O)O)O)N

$$$$
