3DGO_ATP_A_82


 39 41  0  0  0  0  0  0  0  0999 V2000
  -24.4375   15.0632  -21.8760 C   0  0  0  0  0  0  0  0  0  0  0  0
  -25.8213   15.2001  -21.5406 O   0  0  0  0  0  0  0  0  0  0  0  0
  -23.6992   16.2022  -21.2045 C   0  0  0  0  0  0  0  0  0  0  0  0
  -23.4687   17.2112  -22.1829 O   0  0  0  0  0  0  0  0  0  0  0  0
  -24.7123   16.7768  -20.2821 C   0  0  0  0  0  0  0  0  0  0  0  0
  -24.5062   18.1794  -20.3011 O   0  0  0  0  0  0  0  0  0  0  0  0
  -25.9901   16.4812  -21.0367 C   0  0  0  0  0  0  0  0  0  0  0  0
  -24.3128   17.4723  -22.5832 H   0  0  0  0  0  0  0  0  0  0  0  0
  -24.5219   18.4961  -21.2178 H   0  0  0  0  0  0  0  0  0  0  0  0
  -27.1301   16.5312  -20.1637 N   0  0  0  0  0  0  0  0  0  0  0  0
  -27.6788   15.5311  -19.4645 C   0  0  0  0  0  0  0  0  0  0  0  0
  -28.7286   16.0170  -18.7182 N   0  0  0  0  0  0  0  0  0  0  0  0
  -28.8431   17.3405  -18.9353 C   0  0  0  0  0  0  0  0  0  0  0  0
  -29.7078   18.4193  -18.4712 C   0  0  0  0  0  0  0  0  0  0  0  0
  -30.7089   18.1650  -17.5896 N   0  0  0  0  0  0  0  0  0  0  0  0
  -29.4832   19.6747  -18.9361 N   0  0  0  0  0  0  0  0  0  0  0  0
  -28.5132   19.8831  -19.8168 C   0  0  0  0  0  0  0  0  0  0  0  0
  -27.6825   18.9360  -20.3019 N   0  0  0  0  0  0  0  0  0  0  0  0
  -27.7908   17.6706  -19.8842 C   0  0  0  0  0  0  0  0  0  0  0  0
  -30.8565   17.2479  -17.2635 H   0  0  0  0  0  0  0  0  0  0  0  0
  -31.2870   18.8978  -17.2765 H   0  0  0  0  0  0  0  0  0  0  0  0
  -24.0331   13.7672  -21.2246 C   0  0  0  0  0  0  0  0  0  0  0  0
  -22.8416   14.2008  -20.5723 O   0  0  0  0  0  0  0  0  0  0  0  0
  -22.4658   13.7408  -19.0659 P   0  0  0  0  0  0  0  0  0  0  0  0
  -20.9496   13.6279  -18.9088 O   0  0  0  0  0  0  0  0  0  0  0  0
  -23.2538   14.6939  -18.1336 O   0  0  0  0  0  0  0  0  0  0  0  0
  -23.0691   14.4673  -17.2087 H   0  0  0  0  0  0  0  0  0  0  0  0
  -23.0182   12.2052  -18.9921 O   0  0  0  0  0  0  0  0  0  0  0  0
  -23.0497   11.4805  -17.5317 P   0  0  0  0  0  0  0  0  0  0  0  0
  -22.3356   10.1293  -17.7039 O   0  0  0  0  0  0  0  0  0  0  0  0
  -22.6762   12.4672  -16.4326 O   0  0  0  0  0  0  0  0  0  0  0  0
  -22.7006   12.0183  -15.5731 H   0  0  0  0  0  0  0  0  0  0  0  0
  -24.6298   11.0842  -17.3030 O   0  0  0  0  0  0  0  0  0  0  0  0
  -25.8974   12.1163  -17.4646 P   0  0  0  0  0  0  0  0  0  0  0  0
  -25.4077   13.3739  -16.7594 O   0  0  0  0  0  0  0  0  0  0  0  0
  -27.0178   11.4057  -16.7156 O   0  0  0  0  0  0  0  0  0  0  0  0
  -26.0754   12.2178  -18.9905 O   0  0  0  0  0  0  0  0  0  0  0  0
  -27.8240   11.9438  -16.7534 H   0  0  0  0  0  0  0  0  0  0  0  0
  -26.8129   12.8151  -19.1909 H   0  0  0  0  0  0  0  0  0  0  0  0
 34 35  2  0  0  0
 34 36  1  0  0  0
 34 37  1  0  0  0
 34 33  1  0  0  0
 29 30  2  0  0  0
 29 31  1  0  0  0
 29 33  1  0  0  0
 29 28  1  0  0  0
 24 25  2  0  0  0
 24 26  1  0  0  0
 24 28  1  0  0  0
 24 23  1  0  0  0
 23 22  1  0  0  0
 22  1  1  0  0  0
  1  2  1  0  0  0
  1  3  1  0  0  0
  2  7  1  0  0  0
  3  4  1  0  0  0
  3  5  1  0  0  0
  5  6  1  0  0  0
  5  7  1  0  0  0
  7 10  1  0  0  0
 10 11  1  0  0  0
 10 19  1  0  0  0
 11 12  2  0  0  0
 12 13  1  0  0  0
 13 14  1  0  0  0
 13 19  2  0  0  0
 14 15  1  0  0  0
 14 16  2  0  0  0
 16 17  1  0  0  0
 17 18  2  0  0  0
 18 19  1  0  0  0
 36 38  1  0  0  0
 37 39  1  0  0  0
 31 32  1  0  0  0
 26 27  1  0  0  0
  4  8  1  0  0  0
  6  9  1  0  0  0
 15 20  1  0  0  0
 15 21  1  0  0  0
M  END
> <minimizedAffinity>
-6.30411

$$$$
3DGO_ATP_A_82


 39 41  0  0  0  0  0  0  0  0999 V2000
  -25.0840   15.1939  -22.1482 C   0  0  0  0  0  0  0  0  0  0  0  0
  -26.3805   15.6891  -21.8019 O   0  0  0  0  0  0  0  0  0  0  0  0
  -24.0765   15.9509  -21.3086 C   0  0  0  0  0  0  0  0  0  0  0  0
  -23.5102   16.9742  -22.1215 O   0  0  0  0  0  0  0  0  0  0  0  0
  -24.9190   16.6638  -20.3140 C   0  0  0  0  0  0  0  0  0  0  0  0
  -24.3072   17.9279  -20.1191 O   0  0  0  0  0  0  0  0  0  0  0  0
  -26.1882   16.8757  -21.1101 C   0  0  0  0  0  0  0  0  0  0  0  0
  -24.2188   17.5305  -22.4812 H   0  0  0  0  0  0  0  0  0  0  0  0
  -24.1835   18.3629  -20.9772 H   0  0  0  0  0  0  0  0  0  0  0  0
  -27.3043   17.1388  -20.2445 N   0  0  0  0  0  0  0  0  0  0  0  0
  -27.9286   16.2889  -19.4212 C   0  0  0  0  0  0  0  0  0  0  0  0
  -28.9180   16.9584  -18.7370 N   0  0  0  0  0  0  0  0  0  0  0  0
  -28.9169   18.2489  -19.1196 C   0  0  0  0  0  0  0  0  0  0  0  0
  -29.6734   19.4518  -18.7914 C   0  0  0  0  0  0  0  0  0  0  0  0
  -30.6783   19.4027  -17.8794 N   0  0  0  0  0  0  0  0  0  0  0  0
  -29.3450   20.6130  -19.4130 N   0  0  0  0  0  0  0  0  0  0  0  0
  -28.3751   20.6197  -20.3182 C   0  0  0  0  0  0  0  0  0  0  0  0
  -27.6409   19.5474  -20.6837 N   0  0  0  0  0  0  0  0  0  0  0  0
  -27.8553   18.3598  -20.1082 C   0  0  0  0  0  0  0  0  0  0  0  0
  -30.9021   18.5512  -17.4389 H   0  0  0  0  0  0  0  0  0  0  0  0
  -31.1831   20.2187  -17.6588 H   0  0  0  0  0  0  0  0  0  0  0  0
  -25.1129   13.7568  -21.6993 C   0  0  0  0  0  0  0  0  0  0  0  0
  -23.7906   13.6537  -21.1759 O   0  0  0  0  0  0  0  0  0  0  0  0
  -23.0998   12.2257  -20.8507 P   0  0  0  0  0  0  0  0  0  0  0  0
  -23.7757   11.5721  -19.6457 O   0  0  0  0  0  0  0  0  0  0  0  0
  -23.0626   11.4673  -22.2005 O   0  0  0  0  0  0  0  0  0  0  0  0
  -22.6561   10.5962  -22.0708 H   0  0  0  0  0  0  0  0  0  0  0  0
  -21.6073   12.6390  -20.3309 O   0  0  0  0  0  0  0  0  0  0  0  0
  -21.4997   13.5508  -18.9833 P   0  0  0  0  0  0  0  0  0  0  0  0
  -20.2434   14.4221  -19.1499 O   0  0  0  0  0  0  0  0  0  0  0  0
  -22.8580   14.1374  -18.6199 O   0  0  0  0  0  0  0  0  0  0  0  0
  -22.7736   14.6755  -17.8173 H   0  0  0  0  0  0  0  0  0  0  0  0
  -21.1054   12.4838  -17.7950 O   0  0  0  0  0  0  0  0  0  0  0  0
  -19.5974   11.8973  -17.5117 P   0  0  0  0  0  0  0  0  0  0  0  0
  -19.8566   10.7199  -16.5816 O   0  0  0  0  0  0  0  0  0  0  0  0
  -18.8980   13.0631  -16.8239 O   0  0  0  0  0  0  0  0  0  0  0  0
  -19.0849   11.5505  -18.9214 O   0  0  0  0  0  0  0  0  0  0  0  0
  -17.9852   12.8129  -16.6118 H   0  0  0  0  0  0  0  0  0  0  0  0
  -18.1862   11.1906  -18.8592 H   0  0  0  0  0  0  0  0  0  0  0  0
 34 35  2  0  0  0
 34 36  1  0  0  0
 34 37  1  0  0  0
 34 33  1  0  0  0
 29 30  2  0  0  0
 29 31  1  0  0  0
 29 33  1  0  0  0
 29 28  1  0  0  0
 24 25  2  0  0  0
 24 26  1  0  0  0
 24 28  1  0  0  0
 24 23  1  0  0  0
 23 22  1  0  0  0
 22  1  1  0  0  0
  1  2  1  0  0  0
  1  3  1  0  0  0
  2  7  1  0  0  0
  3  4  1  0  0  0
  3  5  1  0  0  0
  5  6  1  0  0  0
  5  7  1  0  0  0
  7 10  1  0  0  0
 10 11  1  0  0  0
 10 19  1  0  0  0
 11 12  2  0  0  0
 12 13  1  0  0  0
 13 14  1  0  0  0
 13 19  2  0  0  0
 14 15  1  0  0  0
 14 16  2  0  0  0
 16 17  1  0  0  0
 17 18  2  0  0  0
 18 19  1  0  0  0
 36 38  1  0  0  0
 37 39  1  0  0  0
 31 32  1  0  0  0
 26 27  1  0  0  0
  4  8  1  0  0  0
  6  9  1  0  0  0
 15 20  1  0  0  0
 15 21  1  0  0  0
M  END
> <minimizedAffinity>
-6.19724

$$$$
3DGO_ATP_A_82


 39 41  0  0  0  0  0  0  0  0999 V2000
  -25.1975   15.4680  -22.6061 C   0  0  0  0  0  0  0  0  0  0  0  0
  -26.4295   16.0602  -22.1849 O   0  0  0  0  0  0  0  0  0  0  0  0
  -24.1315   15.9050  -21.6233 C   0  0  0  0  0  0  0  0  0  0  0  0
  -23.4048   16.9779  -22.2145 O   0  0  0  0  0  0  0  0  0  0  0  0
  -24.9098   16.5226  -20.5186 C   0  0  0  0  0  0  0  0  0  0  0  0
  -24.1445   17.6301  -20.0739 O   0  0  0  0  0  0  0  0  0  0  0  0
  -26.1088   17.0547  -21.2729 C   0  0  0  0  0  0  0  0  0  0  0  0
  -24.0196   17.6845  -22.4669 H   0  0  0  0  0  0  0  0  0  0  0  0
  -23.9320   18.2005  -20.8292 H   0  0  0  0  0  0  0  0  0  0  0  0
  -27.2125   17.2971  -20.3855 N   0  0  0  0  0  0  0  0  0  0  0  0
  -27.8026   16.4367  -19.5479 C   0  0  0  0  0  0  0  0  0  0  0  0
  -28.7916   17.0876  -18.8455 N   0  0  0  0  0  0  0  0  0  0  0  0
  -28.8247   18.3768  -19.2310 C   0  0  0  0  0  0  0  0  0  0  0  0
  -29.5992   19.5648  -18.8905 C   0  0  0  0  0  0  0  0  0  0  0  0
  -30.5844   19.4976  -17.9584 N   0  0  0  0  0  0  0  0  0  0  0  0
  -29.3073   20.7309  -19.5212 N   0  0  0  0  0  0  0  0  0  0  0  0
  -28.3561   20.7550  -20.4457 C   0  0  0  0  0  0  0  0  0  0  0  0
  -27.6075   19.6970  -20.8234 N   0  0  0  0  0  0  0  0  0  0  0  0
  -27.7857   18.5069  -20.2411 C   0  0  0  0  0  0  0  0  0  0  0  0
  -30.7817   18.6429  -17.5114 H   0  0  0  0  0  0  0  0  0  0  0  0
  -31.1013   20.3036  -17.7295 H   0  0  0  0  0  0  0  0  0  0  0  0
  -25.4327   13.9893  -22.4464 C   0  0  0  0  0  0  0  0  0  0  0  0
  -26.7853   14.0198  -21.9963 O   0  0  0  0  0  0  0  0  0  0  0  0
  -27.7950   12.7722  -22.2111 P   0  0  0  0  0  0  0  0  0  0  0  0
  -28.7359   13.0476  -23.3837 O   0  0  0  0  0  0  0  0  0  0  0  0
  -26.8948   11.5124  -22.2435 O   0  0  0  0  0  0  0  0  0  0  0  0
  -27.4459   10.7244  -22.3708 H   0  0  0  0  0  0  0  0  0  0  0  0
  -28.7434   12.8220  -20.8819 O   0  0  0  0  0  0  0  0  0  0  0  0
  -28.1165   12.2673  -19.4825 P   0  0  0  0  0  0  0  0  0  0  0  0
  -28.7687   10.8977  -19.2293 O   0  0  0  0  0  0  0  0  0  0  0  0
  -26.6070   12.4714  -19.4501 O   0  0  0  0  0  0  0  0  0  0  0  0
  -26.2533   12.1359  -18.6115 H   0  0  0  0  0  0  0  0  0  0  0  0
  -28.7573   13.2477  -18.3274 O   0  0  0  0  0  0  0  0  0  0  0  0
  -30.3574   13.3818  -17.9811 P   0  0  0  0  0  0  0  0  0  0  0  0
  -30.5017   12.5639  -16.7048 O   0  0  0  0  0  0  0  0  0  0  0  0
  -31.0264   12.7350  -19.1874 O   0  0  0  0  0  0  0  0  0  0  0  0
  -30.5603   14.9015  -17.8415 O   0  0  0  0  0  0  0  0  0  0  0  0
  -31.9897   12.7646  -19.0774 H   0  0  0  0  0  0  0  0  0  0  0  0
  -31.4897   15.0859  -17.6336 H   0  0  0  0  0  0  0  0  0  0  0  0
 34 35  2  0  0  0
 34 36  1  0  0  0
 34 37  1  0  0  0
 34 33  1  0  0  0
 29 30  2  0  0  0
 29 31  1  0  0  0
 29 33  1  0  0  0
 29 28  1  0  0  0
 24 25  2  0  0  0
 24 26  1  0  0  0
 24 28  1  0  0  0
 24 23  1  0  0  0
 23 22  1  0  0  0
 22  1  1  0  0  0
  1  2  1  0  0  0
  1  3  1  0  0  0
  2  7  1  0  0  0
  3  4  1  0  0  0
  3  5  1  0  0  0
  5  6  1  0  0  0
  5  7  1  0  0  0
  7 10  1  0  0  0
 10 11  1  0  0  0
 10 19  1  0  0  0
 11 12  2  0  0  0
 12 13  1  0  0  0
 13 14  1  0  0  0
 13 19  2  0  0  0
 14 15  1  0  0  0
 14 16  2  0  0  0
 16 17  1  0  0  0
 17 18  2  0  0  0
 18 19  1  0  0  0
 36 38  1  0  0  0
 37 39  1  0  0  0
 31 32  1  0  0  0
 26 27  1  0  0  0
  4  8  1  0  0  0
  6  9  1  0  0  0
 15 20  1  0  0  0
 15 21  1  0  0  0
M  END
> <minimizedAffinity>
-6.10082

$$$$
3DGO_ATP_A_82


 39 41  0  0  0  0  0  0  0  0999 V2000
  -25.2247   16.2118  -23.2844 C   0  0  0  0  0  0  0  0  0  0  0  0
  -26.3885   16.7984  -22.6949 O   0  0  0  0  0  0  0  0  0  0  0  0
  -24.1395   16.2114  -22.2282 C   0  0  0  0  0  0  0  0  0  0  0  0
  -23.2770   17.3150  -22.4868 O   0  0  0  0  0  0  0  0  0  0  0  0
  -24.8669   16.5679  -20.9827 C   0  0  0  0  0  0  0  0  0  0  0  0
  -23.9878   17.3970  -20.2412 O   0  0  0  0  0  0  0  0  0  0  0  0
  -25.9758   17.4370  -21.5349 C   0  0  0  0  0  0  0  0  0  0  0  0
  -23.7978   18.1329  -22.5144 H   0  0  0  0  0  0  0  0  0  0  0  0
  -23.6908   18.1334  -20.7984 H   0  0  0  0  0  0  0  0  0  0  0  0
  -27.0649   17.5401  -20.6037 N   0  0  0  0  0  0  0  0  0  0  0  0
  -27.5685   16.5851  -19.8134 C   0  0  0  0  0  0  0  0  0  0  0  0
  -28.5769   17.1154  -19.0408 N   0  0  0  0  0  0  0  0  0  0  0  0
  -28.7098   18.4225  -19.3333 C   0  0  0  0  0  0  0  0  0  0  0  0
  -29.5523   19.5272  -18.8894 C   0  0  0  0  0  0  0  0  0  0  0  0
  -30.5008   19.3273  -17.9384 N   0  0  0  0  0  0  0  0  0  0  0  0
  -29.3603   20.7513  -19.4438 N   0  0  0  0  0  0  0  0  0  0  0  0
  -28.4425   20.9054  -20.3893 C   0  0  0  0  0  0  0  0  0  0  0  0
  -27.6359   19.9308  -20.8605 N   0  0  0  0  0  0  0  0  0  0  0  0
  -27.7144   18.6939  -20.3590 C   0  0  0  0  0  0  0  0  0  0  0  0
  -30.6253   18.4322  -17.5478 H   0  0  0  0  0  0  0  0  0  0  0  0
  -31.0640   20.0775  -17.6396 H   0  0  0  0  0  0  0  0  0  0  0  0
  -25.6364   14.7903  -23.5625 C   0  0  0  0  0  0  0  0  0  0  0  0
  -24.5653   14.1102  -22.9121 O   0  0  0  0  0  0  0  0  0  0  0  0
  -24.7133   12.5949  -22.3604 P   0  0  0  0  0  0  0  0  0  0  0  0
  -25.0890   11.6498  -23.5013 O   0  0  0  0  0  0  0  0  0  0  0  0
  -23.4239   12.3233  -21.5467 O   0  0  0  0  0  0  0  0  0  0  0  0
  -23.4524   11.4230  -21.1867 H   0  0  0  0  0  0  0  0  0  0  0  0
  -26.0410   12.6676  -21.4114 O   0  0  0  0  0  0  0  0  0  0  0  0
  -25.8244   12.5826  -19.7975 P   0  0  0  0  0  0  0  0  0  0  0  0
  -27.1527   13.0226  -19.1592 O   0  0  0  0  0  0  0  0  0  0  0  0
  -25.1256   11.2839  -19.4154 O   0  0  0  0  0  0  0  0  0  0  0  0
  -25.0060   11.2519  -18.4533 H   0  0  0  0  0  0  0  0  0  0  0  0
  -24.7796   13.8068  -19.4575 O   0  0  0  0  0  0  0  0  0  0  0  0
  -23.6637   13.7915  -18.2522 P   0  0  0  0  0  0  0  0  0  0  0  0
  -23.1769   15.2339  -18.2174 O   0  0  0  0  0  0  0  0  0  0  0  0
  -22.6132   12.8157  -18.7676 O   0  0  0  0  0  0  0  0  0  0  0  0
  -24.4722   13.3169  -17.0310 O   0  0  0  0  0  0  0  0  0  0  0  0
  -21.8989   12.7359  -18.1163 H   0  0  0  0  0  0  0  0  0  0  0  0
  -23.8913   13.2746  -16.2553 H   0  0  0  0  0  0  0  0  0  0  0  0
 34 35  2  0  0  0
 34 36  1  0  0  0
 34 37  1  0  0  0
 34 33  1  0  0  0
 29 30  2  0  0  0
 29 31  1  0  0  0
 29 33  1  0  0  0
 29 28  1  0  0  0
 24 25  2  0  0  0
 24 26  1  0  0  0
 24 28  1  0  0  0
 24 23  1  0  0  0
 23 22  1  0  0  0
 22  1  1  0  0  0
  1  2  1  0  0  0
  1  3  1  0  0  0
  2  7  1  0  0  0
  3  4  1  0  0  0
  3  5  1  0  0  0
  5  6  1  0  0  0
  5  7  1  0  0  0
  7 10  1  0  0  0
 10 11  1  0  0  0
 10 19  1  0  0  0
 11 12  2  0  0  0
 12 13  1  0  0  0
 13 14  1  0  0  0
 13 19  2  0  0  0
 14 15  1  0  0  0
 14 16  2  0  0  0
 16 17  1  0  0  0
 17 18  2  0  0  0
 18 19  1  0  0  0
 36 38  1  0  0  0
 37 39  1  0  0  0
 31 32  1  0  0  0
 26 27  1  0  0  0
  4  8  1  0  0  0
  6  9  1  0  0  0
 15 20  1  0  0  0
 15 21  1  0  0  0
M  END
> <minimizedAffinity>
-6.07610

$$$$
3DGO_ATP_A_82


 39 41  0  0  0  0  0  0  0  0999 V2000
  -24.5476   15.0700  -22.1534 C   0  0  0  0  0  0  0  0  0  0  0  0
  -24.9720   16.1291  -21.2907 O   0  0  0  0  0  0  0  0  0  0  0  0
  -25.7235   14.1305  -22.3210 C   0  0  0  0  0  0  0  0  0  0  0  0
  -25.5243   13.0208  -21.4506 O   0  0  0  0  0  0  0  0  0  0  0  0
  -26.8593   14.8878  -21.7346 C   0  0  0  0  0  0  0  0  0  0  0  0
  -27.6654   13.9293  -21.0700 O   0  0  0  0  0  0  0  0  0  0  0  0
  -26.1460   15.7094  -20.6831 C   0  0  0  0  0  0  0  0  0  0  0  0
  -25.4028   13.3398  -20.5427 H   0  0  0  0  0  0  0  0  0  0  0  0
  -27.1181   13.4179  -20.4538 H   0  0  0  0  0  0  0  0  0  0  0  0
  -26.9376   16.8405  -20.2851 N   0  0  0  0  0  0  0  0  0  0  0  0
  -26.8628   18.0989  -20.7332 C   0  0  0  0  0  0  0  0  0  0  0  0
  -27.8343   18.8601  -20.1234 N   0  0  0  0  0  0  0  0  0  0  0  0
  -28.5417   18.0773  -19.2875 C   0  0  0  0  0  0  0  0  0  0  0  0
  -29.6699   18.2455  -18.3787 C   0  0  0  0  0  0  0  0  0  0  0  0
  -30.2577   19.4608  -18.2325 N   0  0  0  0  0  0  0  0  0  0  0  0
  -30.1161   17.1622  -17.6930 N   0  0  0  0  0  0  0  0  0  0  0  0
  -29.5019   15.9956  -17.8399 C   0  0  0  0  0  0  0  0  0  0  0  0
  -28.4465   15.7654  -18.6497 N   0  0  0  0  0  0  0  0  0  0  0  0
  -27.9480   16.7538  -19.3994 C   0  0  0  0  0  0  0  0  0  0  0  0
  -29.9201   20.2350  -18.7383 H   0  0  0  0  0  0  0  0  0  0  0  0
  -31.0216   19.5677  -17.6206 H   0  0  0  0  0  0  0  0  0  0  0  0
  -24.2800   15.7570  -23.4664 C   0  0  0  0  0  0  0  0  0  0  0  0
  -23.4476   16.8184  -23.0041 O   0  0  0  0  0  0  0  0  0  0  0  0
  -22.3433   17.5258  -23.9539 P   0  0  0  0  0  0  0  0  0  0  0  0
  -21.5298   16.4682  -24.6995 O   0  0  0  0  0  0  0  0  0  0  0  0
  -23.1183   18.5941  -24.7643 O   0  0  0  0  0  0  0  0  0  0  0  0
  -22.5061   19.0569  -25.3576 H   0  0  0  0  0  0  0  0  0  0  0  0
  -21.3010   18.1927  -22.8874 O   0  0  0  0  0  0  0  0  0  0  0  0
  -20.2279   19.2810  -23.4560 P   0  0  0  0  0  0  0  0  0  0  0  0
  -19.4500   19.7997  -22.2349 O   0  0  0  0  0  0  0  0  0  0  0  0
  -19.5315   18.7501  -24.7027 O   0  0  0  0  0  0  0  0  0  0  0  0
  -18.8984   19.4104  -25.0253 H   0  0  0  0  0  0  0  0  0  0  0  0
  -21.1494   20.5587  -23.9295 O   0  0  0  0  0  0  0  0  0  0  0  0
  -20.7038   21.6891  -25.0348 P   0  0  0  0  0  0  0  0  0  0  0  0
  -20.8541   20.9520  -26.3587 O   0  0  0  0  0  0  0  0  0  0  0  0
  -19.2529   21.9757  -24.6687 O   0  0  0  0  0  0  0  0  0  0  0  0
  -21.6951   22.8392  -24.7804 O   0  0  0  0  0  0  0  0  0  0  0  0
  -18.8924   22.6427  -25.2738 H   0  0  0  0  0  0  0  0  0  0  0  0
  -21.5105   23.5670  -25.3944 H   0  0  0  0  0  0  0  0  0  0  0  0
 34 35  2  0  0  0
 34 36  1  0  0  0
 34 37  1  0  0  0
 34 33  1  0  0  0
 29 30  2  0  0  0
 29 31  1  0  0  0
 29 33  1  0  0  0
 29 28  1  0  0  0
 24 25  2  0  0  0
 24 26  1  0  0  0
 24 28  1  0  0  0
 24 23  1  0  0  0
 23 22  1  0  0  0
 22  1  1  0  0  0
  1  2  1  0  0  0
  1  3  1  0  0  0
  2  7  1  0  0  0
  3  4  1  0  0  0
  3  5  1  0  0  0
  5  6  1  0  0  0
  5  7  1  0  0  0
  7 10  1  0  0  0
 10 11  1  0  0  0
 10 19  1  0  0  0
 11 12  2  0  0  0
 12 13  1  0  0  0
 13 14  1  0  0  0
 13 19  2  0  0  0
 14 15  1  0  0  0
 14 16  2  0  0  0
 16 17  1  0  0  0
 17 18  2  0  0  0
 18 19  1  0  0  0
 36 38  1  0  0  0
 37 39  1  0  0  0
 31 32  1  0  0  0
 26 27  1  0  0  0
  4  8  1  0  0  0
  6  9  1  0  0  0
 15 20  1  0  0  0
 15 21  1  0  0  0
M  END
> <minimizedAffinity>
-5.93995

$$$$
3DGO_ATP_A_82


 39 41  0  0  0  0  0  0  0  0999 V2000
  -25.0089   14.8092  -21.8626 C   0  0  0  0  0  0  0  0  0  0  0  0
  -26.3136   15.3167  -21.5691 O   0  0  0  0  0  0  0  0  0  0  0  0
  -24.0124   15.6895  -21.1378 C   0  0  0  0  0  0  0  0  0  0  0  0
  -23.4759   16.6117  -22.0814 O   0  0  0  0  0  0  0  0  0  0  0  0
  -24.8633   16.5061  -20.2342 C   0  0  0  0  0  0  0  0  0  0  0  0
  -24.2790   17.7977  -20.2098 O   0  0  0  0  0  0  0  0  0  0  0  0
  -26.1431   16.5864  -21.0375 C   0  0  0  0  0  0  0  0  0  0  0  0
  -24.1997   17.1017  -22.5020 H   0  0  0  0  0  0  0  0  0  0  0  0
  -24.1718   18.1213  -21.1179 H   0  0  0  0  0  0  0  0  0  0  0  0
  -27.2582   16.9346  -20.2012 N   0  0  0  0  0  0  0  0  0  0  0  0
  -27.9328   16.1477  -19.3552 C   0  0  0  0  0  0  0  0  0  0  0  0
  -28.9000   16.8884  -18.7141 N   0  0  0  0  0  0  0  0  0  0  0  0
  -28.8340   18.1611  -19.1473 C   0  0  0  0  0  0  0  0  0  0  0  0
  -29.5390   19.4094  -18.8793 C   0  0  0  0  0  0  0  0  0  0  0  0
  -30.5581   19.4428  -17.9825 N   0  0  0  0  0  0  0  0  0  0  0  0
  -29.1486   20.5285  -19.5409 N   0  0  0  0  0  0  0  0  0  0  0  0
  -28.1665   20.4547  -20.4298 C   0  0  0  0  0  0  0  0  0  0  0  0
  -27.4773   19.3363  -20.7407 N   0  0  0  0  0  0  0  0  0  0  0  0
  -27.7544   18.1838  -20.1223 C   0  0  0  0  0  0  0  0  0  0  0  0
  -30.8272   18.6207  -17.5123 H   0  0  0  0  0  0  0  0  0  0  0  0
  -31.0279   20.2890  -17.8024 H   0  0  0  0  0  0  0  0  0  0  0  0
  -25.0017   13.4416  -21.2325 C   0  0  0  0  0  0  0  0  0  0  0  0
  -26.4034   13.1803  -21.2360 O   0  0  0  0  0  0  0  0  0  0  0  0
  -27.0770   12.0696  -20.2692 P   0  0  0  0  0  0  0  0  0  0  0  0
  -28.5526   11.8845  -20.6222 O   0  0  0  0  0  0  0  0  0  0  0  0
  -26.1281   10.8467  -20.3201 O   0  0  0  0  0  0  0  0  0  0  0  0
  -26.4800   10.1406  -19.7558 H   0  0  0  0  0  0  0  0  0  0  0  0
  -27.0758   12.7943  -18.8051 O   0  0  0  0  0  0  0  0  0  0  0  0
  -26.2164   12.0899  -17.6117 P   0  0  0  0  0  0  0  0  0  0  0  0
  -26.1181   13.1266  -16.4799 O   0  0  0  0  0  0  0  0  0  0  0  0
  -26.6949   10.6633  -17.3731 O   0  0  0  0  0  0  0  0  0  0  0  0
  -26.1726   10.2619  -16.6610 H   0  0  0  0  0  0  0  0  0  0  0  0
  -24.6876   11.9886  -18.2103 O   0  0  0  0  0  0  0  0  0  0  0  0
  -23.3975   11.3613  -17.4102 P   0  0  0  0  0  0  0  0  0  0  0  0
  -22.8549   12.5590  -16.6422 O   0  0  0  0  0  0  0  0  0  0  0  0
  -22.4804   10.9062  -18.5385 O   0  0  0  0  0  0  0  0  0  0  0  0
  -24.0218   10.2368  -16.5641 O   0  0  0  0  0  0  0  0  0  0  0  0
  -21.6761   10.5145  -18.1635 H   0  0  0  0  0  0  0  0  0  0  0  0
  -23.3282    9.7985  -16.0466 H   0  0  0  0  0  0  0  0  0  0  0  0
 34 35  2  0  0  0
 34 36  1  0  0  0
 34 37  1  0  0  0
 34 33  1  0  0  0
 29 30  2  0  0  0
 29 31  1  0  0  0
 29 33  1  0  0  0
 29 28  1  0  0  0
 24 25  2  0  0  0
 24 26  1  0  0  0
 24 28  1  0  0  0
 24 23  1  0  0  0
 23 22  1  0  0  0
 22  1  1  0  0  0
  1  2  1  0  0  0
  1  3  1  0  0  0
  2  7  1  0  0  0
  3  4  1  0  0  0
  3  5  1  0  0  0
  5  6  1  0  0  0
  5  7  1  0  0  0
  7 10  1  0  0  0
 10 11  1  0  0  0
 10 19  1  0  0  0
 11 12  2  0  0  0
 12 13  1  0  0  0
 13 14  1  0  0  0
 13 19  2  0  0  0
 14 15  1  0  0  0
 14 16  2  0  0  0
 16 17  1  0  0  0
 17 18  2  0  0  0
 18 19  1  0  0  0
 36 38  1  0  0  0
 37 39  1  0  0  0
 31 32  1  0  0  0
 26 27  1  0  0  0
  4  8  1  0  0  0
  6  9  1  0  0  0
 15 20  1  0  0  0
 15 21  1  0  0  0
M  END
> <minimizedAffinity>
-5.84521

$$$$
3DGO_ATP_A_82


 39 41  0  0  0  0  0  0  0  0999 V2000
  -24.2512   14.9799  -20.7264 C   0  0  0  0  0  0  0  0  0  0  0  0
  -25.5418   15.2554  -20.1745 O   0  0  0  0  0  0  0  0  0  0  0  0
  -23.9454   16.0800  -21.7211 C   0  0  0  0  0  0  0  0  0  0  0  0
  -24.2162   15.5776  -23.0260 O   0  0  0  0  0  0  0  0  0  0  0  0
  -25.0067   17.0870  -21.4624 C   0  0  0  0  0  0  0  0  0  0  0  0
  -25.3578   17.6180  -22.7293 O   0  0  0  0  0  0  0  0  0  0  0  0
  -26.1398   16.1988  -20.9967 C   0  0  0  0  0  0  0  0  0  0  0  0
  -25.1304   15.2557  -23.0652 H   0  0  0  0  0  0  0  0  0  0  0  0
  -25.5829   16.8927  -23.3327 H   0  0  0  0  0  0  0  0  0  0  0  0
  -27.1210   16.9521  -20.2659 N   0  0  0  0  0  0  0  0  0  0  0  0
  -27.3536   18.2688  -20.3126 C   0  0  0  0  0  0  0  0  0  0  0  0
  -28.4138   18.5755  -19.4898 N   0  0  0  0  0  0  0  0  0  0  0  0
  -28.8679   17.4426  -18.9221 C   0  0  0  0  0  0  0  0  0  0  0  0
  -29.9296   17.0755  -17.9920 C   0  0  0  0  0  0  0  0  0  0  0  0
  -30.7506   18.0271  -17.4778 N   0  0  0  0  0  0  0  0  0  0  0  0
  -30.0771   15.7672  -17.6614 N   0  0  0  0  0  0  0  0  0  0  0  0
  -29.2409   14.8670  -18.1617 C   0  0  0  0  0  0  0  0  0  0  0  0
  -28.2289   15.1310  -19.0154 N   0  0  0  0  0  0  0  0  0  0  0  0
  -28.0152   16.3819  -19.4363 C   0  0  0  0  0  0  0  0  0  0  0  0
  -30.6282   18.9710  -17.7293 H   0  0  0  0  0  0  0  0  0  0  0  0
  -31.4682   17.7731  -16.8535 H   0  0  0  0  0  0  0  0  0  0  0  0
  -23.3190   15.1107  -19.5511 C   0  0  0  0  0  0  0  0  0  0  0  0
  -23.3169   13.7554  -19.1083 O   0  0  0  0  0  0  0  0  0  0  0  0
  -22.0399   12.7815  -19.3152 P   0  0  0  0  0  0  0  0  0  0  0  0
  -21.6392   12.7387  -20.7896 O   0  0  0  0  0  0  0  0  0  0  0  0
  -20.9992   13.2345  -18.2615 O   0  0  0  0  0  0  0  0  0  0  0  0
  -20.2039   12.6842  -18.3352 H   0  0  0  0  0  0  0  0  0  0  0  0
  -22.6420   11.2974  -18.9931 O   0  0  0  0  0  0  0  0  0  0  0  0
  -23.5987   11.1358  -17.6826 P   0  0  0  0  0  0  0  0  0  0  0  0
  -23.4165    9.6903  -17.1898 O   0  0  0  0  0  0  0  0  0  0  0  0
  -23.4535   12.3381  -16.7581 O   0  0  0  0  0  0  0  0  0  0  0  0
  -24.0293   12.2236  -15.9859 H   0  0  0  0  0  0  0  0  0  0  0  0
  -25.1295   11.1755  -18.2833 O   0  0  0  0  0  0  0  0  0  0  0  0
  -26.3721   12.0441  -17.6512 P   0  0  0  0  0  0  0  0  0  0  0  0
  -26.4375   11.5515  -16.2118 O   0  0  0  0  0  0  0  0  0  0  0  0
  -27.5638   11.6023  -18.4915 O   0  0  0  0  0  0  0  0  0  0  0  0
  -25.9192   13.5018  -17.8512 O   0  0  0  0  0  0  0  0  0  0  0  0
  -28.3608   12.0666  -18.1915 H   0  0  0  0  0  0  0  0  0  0  0  0
  -26.5978   14.1017  -17.5039 H   0  0  0  0  0  0  0  0  0  0  0  0
 34 35  2  0  0  0
 34 36  1  0  0  0
 34 37  1  0  0  0
 34 33  1  0  0  0
 29 30  2  0  0  0
 29 31  1  0  0  0
 29 33  1  0  0  0
 29 28  1  0  0  0
 24 25  2  0  0  0
 24 26  1  0  0  0
 24 28  1  0  0  0
 24 23  1  0  0  0
 23 22  1  0  0  0
 22  1  1  0  0  0
  1  2  1  0  0  0
  1  3  1  0  0  0
  2  7  1  0  0  0
  3  4  1  0  0  0
  3  5  1  0  0  0
  5  6  1  0  0  0
  5  7  1  0  0  0
  7 10  1  0  0  0
 10 11  1  0  0  0
 10 19  1  0  0  0
 11 12  2  0  0  0
 12 13  1  0  0  0
 13 14  1  0  0  0
 13 19  2  0  0  0
 14 15  1  0  0  0
 14 16  2  0  0  0
 16 17  1  0  0  0
 17 18  2  0  0  0
 18 19  1  0  0  0
 36 38  1  0  0  0
 37 39  1  0  0  0
 31 32  1  0  0  0
 26 27  1  0  0  0
  4  8  1  0  0  0
  6  9  1  0  0  0
 15 20  1  0  0  0
 15 21  1  0  0  0
M  END
> <minimizedAffinity>
-5.75418

$$$$
3DGO_ATP_A_82


 39 41  0  0  0  0  0  0  0  0999 V2000
  -25.0730   15.2409  -22.3106 C   0  0  0  0  0  0  0  0  0  0  0  0
  -26.3502   15.7731  -21.9480 O   0  0  0  0  0  0  0  0  0  0  0  0
  -24.0450   15.8884  -21.4066 C   0  0  0  0  0  0  0  0  0  0  0  0
  -23.4174   16.9369  -22.1384 O   0  0  0  0  0  0  0  0  0  0  0  0
  -24.8695   16.5709  -20.3761 C   0  0  0  0  0  0  0  0  0  0  0  0
  -24.2020   17.7874  -20.0852 O   0  0  0  0  0  0  0  0  0  0  0  0
  -26.1137   16.8984  -21.1725 C   0  0  0  0  0  0  0  0  0  0  0  0
  -24.0927   17.5504  -22.4678 H   0  0  0  0  0  0  0  0  0  0  0  0
  -24.0433   18.2742  -20.9090 H   0  0  0  0  0  0  0  0  0  0  0  0
  -27.2305   17.1548  -20.3057 N   0  0  0  0  0  0  0  0  0  0  0  0
  -27.8527   16.2994  -19.4864 C   0  0  0  0  0  0  0  0  0  0  0  0
  -28.8438   16.9633  -18.7992 N   0  0  0  0  0  0  0  0  0  0  0  0
  -28.8459   18.2556  -19.1759 C   0  0  0  0  0  0  0  0  0  0  0  0
  -29.6055   19.4550  -18.8423 C   0  0  0  0  0  0  0  0  0  0  0  0
  -30.6103   19.3993  -17.9306 N   0  0  0  0  0  0  0  0  0  0  0  0
  -29.2800   20.6199  -19.4585 N   0  0  0  0  0  0  0  0  0  0  0  0
  -28.3101   20.6332  -20.3636 C   0  0  0  0  0  0  0  0  0  0  0  0
  -27.5732   19.5644  -20.7340 N   0  0  0  0  0  0  0  0  0  0  0  0
  -27.7846   18.3737  -20.1640 C   0  0  0  0  0  0  0  0  0  0  0  0
  -30.8320   18.5452  -17.4940 H   0  0  0  0  0  0  0  0  0  0  0  0
  -31.1172   20.2129  -17.7063 H   0  0  0  0  0  0  0  0  0  0  0  0
  -25.1774   13.7793  -21.9635 C   0  0  0  0  0  0  0  0  0  0  0  0
  -23.8641   13.5718  -21.4484 O   0  0  0  0  0  0  0  0  0  0  0  0
  -23.6012   12.8872  -20.0047 P   0  0  0  0  0  0  0  0  0  0  0  0
  -22.3335   13.4585  -19.3701 O   0  0  0  0  0  0  0  0  0  0  0  0
  -24.9450   12.9994  -19.2429 O   0  0  0  0  0  0  0  0  0  0  0  0
  -24.8515   12.6032  -18.3625 H   0  0  0  0  0  0  0  0  0  0  0  0
  -23.2304   11.3417  -20.3826 O   0  0  0  0  0  0  0  0  0  0  0  0
  -23.9280   10.1585  -19.5039 P   0  0  0  0  0  0  0  0  0  0  0  0
  -25.4280   10.1960  -19.8419 O   0  0  0  0  0  0  0  0  0  0  0  0
  -23.1063    8.8776  -19.5768 O   0  0  0  0  0  0  0  0  0  0  0  0
  -23.5367    8.1869  -19.0488 H   0  0  0  0  0  0  0  0  0  0  0  0
  -23.8430   10.6945  -17.9511 O   0  0  0  0  0  0  0  0  0  0  0  0
  -22.4575   10.8810  -17.0887 P   0  0  0  0  0  0  0  0  0  0  0  0
  -22.5739    9.8062  -16.0163 O   0  0  0  0  0  0  0  0  0  0  0  0
  -22.5829   12.2956  -16.5368 O   0  0  0  0  0  0  0  0  0  0  0  0
  -21.3561   10.6724  -18.1440 O   0  0  0  0  0  0  0  0  0  0  0  0
  -21.8002   12.5052  -16.0037 H   0  0  0  0  0  0  0  0  0  0  0  0
  -20.4858   10.7643  -17.7255 H   0  0  0  0  0  0  0  0  0  0  0  0
 34 35  2  0  0  0
 34 36  1  0  0  0
 34 37  1  0  0  0
 34 33  1  0  0  0
 29 30  2  0  0  0
 29 31  1  0  0  0
 29 33  1  0  0  0
 29 28  1  0  0  0
 24 25  2  0  0  0
 24 26  1  0  0  0
 24 28  1  0  0  0
 24 23  1  0  0  0
 23 22  1  0  0  0
 22  1  1  0  0  0
  1  2  1  0  0  0
  1  3  1  0  0  0
  2  7  1  0  0  0
  3  4  1  0  0  0
  3  5  1  0  0  0
  5  6  1  0  0  0
  5  7  1  0  0  0
  7 10  1  0  0  0
 10 11  1  0  0  0
 10 19  1  0  0  0
 11 12  2  0  0  0
 12 13  1  0  0  0
 13 14  1  0  0  0
 13 19  2  0  0  0
 14 15  1  0  0  0
 14 16  2  0  0  0
 16 17  1  0  0  0
 17 18  2  0  0  0
 18 19  1  0  0  0
 36 38  1  0  0  0
 37 39  1  0  0  0
 31 32  1  0  0  0
 26 27  1  0  0  0
  4  8  1  0  0  0
  6  9  1  0  0  0
 15 20  1  0  0  0
 15 21  1  0  0  0
M  END
> <minimizedAffinity>
-5.65296

$$$$
3DGO_ATP_A_82


 39 41  0  0  0  0  0  0  0  0999 V2000
  -25.0916   15.4223  -22.4833 C   0  0  0  0  0  0  0  0  0  0  0  0
  -26.1719   14.9121  -21.6968 O   0  0  0  0  0  0  0  0  0  0  0  0
  -24.7227   16.7758  -21.9130 C   0  0  0  0  0  0  0  0  0  0  0  0
  -25.3209   17.7742  -22.7339 O   0  0  0  0  0  0  0  0  0  0  0  0
  -25.4692   16.8270  -20.6294 C   0  0  0  0  0  0  0  0  0  0  0  0
  -25.9053   18.1683  -20.4849 O   0  0  0  0  0  0  0  0  0  0  0  0
  -26.6751   15.9760  -20.9629 C   0  0  0  0  0  0  0  0  0  0  0  0
  -26.2768   17.6183  -22.7881 H   0  0  0  0  0  0  0  0  0  0  0  0
  -26.3886   18.4387  -21.2813 H   0  0  0  0  0  0  0  0  0  0  0  0
  -27.3203   15.5024  -19.7697 N   0  0  0  0  0  0  0  0  0  0  0  0
  -27.1393   14.3352  -19.1413 C   0  0  0  0  0  0  0  0  0  0  0  0
  -27.9206   14.2997  -18.0084 N   0  0  0  0  0  0  0  0  0  0  0  0
  -28.5972   15.4590  -17.9081 C   0  0  0  0  0  0  0  0  0  0  0  0
  -29.5533   16.0508  -16.9792 C   0  0  0  0  0  0  0  0  0  0  0  0
  -29.9638   15.3599  -15.8845 N   0  0  0  0  0  0  0  0  0  0  0  0
  -30.0135   17.3022  -17.2334 N   0  0  0  0  0  0  0  0  0  0  0  0
  -29.6117   17.9384  -18.3261 C   0  0  0  0  0  0  0  0  0  0  0  0
  -28.7418   17.4525  -19.2370 N   0  0  0  0  0  0  0  0  0  0  0  0
  -28.1979   16.2431  -19.0667 C   0  0  0  0  0  0  0  0  0  0  0  0
  -29.6189   14.4532  -15.7168 H   0  0  0  0  0  0  0  0  0  0  0  0
  -30.6062   15.7658  -15.2587 H   0  0  0  0  0  0  0  0  0  0  0  0
  -23.9652   14.4580  -22.2212 C   0  0  0  0  0  0  0  0  0  0  0  0
  -22.9129   15.1469  -22.8928 O   0  0  0  0  0  0  0  0  0  0  0  0
  -21.3896   15.1425  -22.3435 P   0  0  0  0  0  0  0  0  0  0  0  0
  -21.3689   14.8643  -20.8407 O   0  0  0  0  0  0  0  0  0  0  0  0
  -20.6088   14.2046  -23.2971 O   0  0  0  0  0  0  0  0  0  0  0  0
  -19.6809   14.1597  -23.0182 H   0  0  0  0  0  0  0  0  0  0  0  0
  -20.9299   16.7027  -22.4953 O   0  0  0  0  0  0  0  0  0  0  0  0
  -21.1760   17.4286  -23.9345 P   0  0  0  0  0  0  0  0  0  0  0  0
  -20.6836   16.4417  -25.0064 O   0  0  0  0  0  0  0  0  0  0  0  0
  -22.5581   18.0676  -23.9862 O   0  0  0  0  0  0  0  0  0  0  0  0
  -22.6854   18.4935  -24.8484 H   0  0  0  0  0  0  0  0  0  0  0  0
  -20.0798   18.6546  -23.9698 O   0  0  0  0  0  0  0  0  0  0  0  0
  -20.1525   19.9609  -24.9629 P   0  0  0  0  0  0  0  0  0  0  0  0
  -21.0895   20.9042  -24.2207 O   0  0  0  0  0  0  0  0  0  0  0  0
  -20.7609   19.3909  -26.2381 O   0  0  0  0  0  0  0  0  0  0  0  0
  -18.6821   20.4053  -25.0668 O   0  0  0  0  0  0  0  0  0  0  0  0
  -20.8468   20.0960  -26.8986 H   0  0  0  0  0  0  0  0  0  0  0  0
  -18.6195   21.1839  -25.6421 H   0  0  0  0  0  0  0  0  0  0  0  0
 34 35  2  0  0  0
 34 36  1  0  0  0
 34 37  1  0  0  0
 34 33  1  0  0  0
 29 30  2  0  0  0
 29 31  1  0  0  0
 29 33  1  0  0  0
 29 28  1  0  0  0
 24 25  2  0  0  0
 24 26  1  0  0  0
 24 28  1  0  0  0
 24 23  1  0  0  0
 23 22  1  0  0  0
 22  1  1  0  0  0
  1  2  1  0  0  0
  1  3  1  0  0  0
  2  7  1  0  0  0
  3  4  1  0  0  0
  3  5  1  0  0  0
  5  6  1  0  0  0
  5  7  1  0  0  0
  7 10  1  0  0  0
 10 11  1  0  0  0
 10 19  1  0  0  0
 11 12  2  0  0  0
 12 13  1  0  0  0
 13 14  1  0  0  0
 13 19  2  0  0  0
 14 15  1  0  0  0
 14 16  2  0  0  0
 16 17  1  0  0  0
 17 18  2  0  0  0
 18 19  1  0  0  0
 36 38  1  0  0  0
 37 39  1  0  0  0
 31 32  1  0  0  0
 26 27  1  0  0  0
  4  8  1  0  0  0
  6  9  1  0  0  0
 15 20  1  0  0  0
 15 21  1  0  0  0
M  END
> <minimizedAffinity>
-5.55377

$$$$
3DGO_ATP_A_82


 39 41  0  0  0  0  0  0  0  0999 V2000
  -24.8051   13.9889  -21.6320 C   0  0  0  0  0  0  0  0  0  0  0  0
  -25.0062   15.2895  -21.0715 O   0  0  0  0  0  0  0  0  0  0  0  0
  -26.1429   13.2795  -21.6087 C   0  0  0  0  0  0  0  0  0  0  0  0
  -26.1536   12.4028  -20.4863 O   0  0  0  0  0  0  0  0  0  0  0  0
  -27.1035   14.3608  -21.2688 C   0  0  0  0  0  0  0  0  0  0  0  0
  -28.0732   13.7687  -20.4207 O   0  0  0  0  0  0  0  0  0  0  0  0
  -26.2327   15.2654  -20.4243 C   0  0  0  0  0  0  0  0  0  0  0  0
  -25.9626   12.9073  -19.6801 H   0  0  0  0  0  0  0  0  0  0  0  0
  -27.6289   13.3310  -19.6778 H   0  0  0  0  0  0  0  0  0  0  0  0
  -26.7851   16.5893  -20.3456 N   0  0  0  0  0  0  0  0  0  0  0  0
  -26.4347   17.6729  -21.0478 C   0  0  0  0  0  0  0  0  0  0  0  0
  -27.2473   18.7275  -20.6973 N   0  0  0  0  0  0  0  0  0  0  0  0
  -28.1305   18.3093  -19.7717 C   0  0  0  0  0  0  0  0  0  0  0  0
  -29.2299   18.8970  -19.0146 C   0  0  0  0  0  0  0  0  0  0  0  0
  -29.5568   20.2042  -19.1826 N   0  0  0  0  0  0  0  0  0  0  0  0
  -29.9151   18.1072  -18.1490 N   0  0  0  0  0  0  0  0  0  0  0  0
  -29.5521   16.8411  -17.9900 C   0  0  0  0  0  0  0  0  0  0  0  0
  -28.5403   16.2311  -18.6432 N   0  0  0  0  0  0  0  0  0  0  0  0
  -27.8214   16.9056  -19.5464 C   0  0  0  0  0  0  0  0  0  0  0  0
  -29.0482   20.7615  -19.8151 H   0  0  0  0  0  0  0  0  0  0  0  0
  -30.3024   20.5947  -18.6719 H   0  0  0  0  0  0  0  0  0  0  0  0
  -24.4235   14.2655  -23.0622 C   0  0  0  0  0  0  0  0  0  0  0  0
  -23.6669   15.4588  -22.8707 O   0  0  0  0  0  0  0  0  0  0  0  0
  -22.0736   15.5253  -23.1520 P   0  0  0  0  0  0  0  0  0  0  0  0
  -21.3696   16.2936  -22.0339 O   0  0  0  0  0  0  0  0  0  0  0  0
  -21.6457   14.0678  -23.4537 O   0  0  0  0  0  0  0  0  0  0  0  0
  -20.6927   14.0410  -23.6322 H   0  0  0  0  0  0  0  0  0  0  0  0
  -21.9631   16.4883  -24.4669 O   0  0  0  0  0  0  0  0  0  0  0  0
  -23.0218   17.7220  -24.5938 P   0  0  0  0  0  0  0  0  0  0  0  0
  -23.9108   17.4058  -25.8083 O   0  0  0  0  0  0  0  0  0  0  0  0
  -23.5993   18.0786  -23.2298 O   0  0  0  0  0  0  0  0  0  0  0  0
  -24.2256   18.8131  -23.3258 H   0  0  0  0  0  0  0  0  0  0  0  0
  -22.1070   19.0013  -25.0760 O   0  0  0  0  0  0  0  0  0  0  0  0
  -20.7675   19.5524  -24.3013 P   0  0  0  0  0  0  0  0  0  0  0  0
  -19.6318   18.8738  -25.0552 O   0  0  0  0  0  0  0  0  0  0  0  0
  -20.9472   19.0237  -22.8838 O   0  0  0  0  0  0  0  0  0  0  0  0
  -20.8727   21.0800  -24.4614 O   0  0  0  0  0  0  0  0  0  0  0  0
  -20.1947   19.3002  -22.3377 H   0  0  0  0  0  0  0  0  0  0  0  0
  -20.1142   21.5034  -24.0297 H   0  0  0  0  0  0  0  0  0  0  0  0
 34 35  2  0  0  0
 34 36  1  0  0  0
 34 37  1  0  0  0
 34 33  1  0  0  0
 29 30  2  0  0  0
 29 31  1  0  0  0
 29 33  1  0  0  0
 29 28  1  0  0  0
 24 25  2  0  0  0
 24 26  1  0  0  0
 24 28  1  0  0  0
 24 23  1  0  0  0
 23 22  1  0  0  0
 22  1  1  0  0  0
  1  2  1  0  0  0
  1  3  1  0  0  0
  2  7  1  0  0  0
  3  4  1  0  0  0
  3  5  1  0  0  0
  5  6  1  0  0  0
  5  7  1  0  0  0
  7 10  1  0  0  0
 10 11  1  0  0  0
 10 19  1  0  0  0
 11 12  2  0  0  0
 12 13  1  0  0  0
 13 14  1  0  0  0
 13 19  2  0  0  0
 14 15  1  0  0  0
 14 16  2  0  0  0
 16 17  1  0  0  0
 17 18  2  0  0  0
 18 19  1  0  0  0
 36 38  1  0  0  0
 37 39  1  0  0  0
 31 32  1  0  0  0
 26 27  1  0  0  0
  4  8  1  0  0  0
  6  9  1  0  0  0
 15 20  1  0  0  0
 15 21  1  0  0  0
M  END
> <minimizedAffinity>
-5.50747

$$$$
