4KIF_PPY_A_501


 13 13  0  0  0  0  0  0  0  0999 V2000
   11.6107  101.4757  158.6967 C   0  0  0  0  0  0  0  0  0  0  0  0
   12.8431  100.6679  158.3630 C   0  0  0  0  0  0  0  0  0  0  0  0
   12.8182   99.9965  157.1358 C   0  0  0  0  0  0  0  0  0  0  0  0
   13.9014   99.2156  156.7137 C   0  0  0  0  0  0  0  0  0  0  0  0
   15.0296   99.1132  157.5165 C   0  0  0  0  0  0  0  0  0  0  0  0
   15.0649   99.7773  158.7373 C   0  0  0  0  0  0  0  0  0  0  0  0
   13.9839  100.5440  159.1681 C   0  0  0  0  0  0  0  0  0  0  0  0
   10.7348  101.1616  159.8885 C   0  0  0  0  0  0  0  0  0  0  0  0
   10.7435  100.1180  160.4690 O   0  0  0  0  0  0  0  0  0  0  0  0
    9.8650  102.2580  160.3222 C   0  0  0  0  0  0  0  0  0  0  0  0
    8.6379  102.4017  160.0395 O   0  0  0  0  0  0  0  0  0  0  0  0
   10.4201  103.0964  161.0299 O   0  0  0  0  0  0  0  0  0  0  0  0
   11.3269  103.0009  161.2457 H   0  0  0  0  0  0  0  0  0  0  0  0
 10 11  2  0  0  0
 10 12  1  0  0  0
 10  8  1  0  0  0
  8  9  2  0  0  0
  8  1  1  0  0  0
  1  2  1  0  0  0
  2  3  2  0  0  0
  2  7  1  0  0  0
  3  4  1  0  0  0
  4  5  2  0  0  0
  5  6  1  0  0  0
  6  7  2  0  0  0
 12 13  1  0  0  0
M  END
> <minimizedAffinity>
-6.65868

$$$$
4KIF_PPY_A_501


 13 13  0  0  0  0  0  0  0  0999 V2000
   11.1086  101.0560  158.5221 C   0  0  0  0  0  0  0  0  0  0  0  0
   12.4862  100.4726  158.3107 C   0  0  0  0  0  0  0  0  0  0  0  0
   13.3660  100.5785  159.3934 C   0  0  0  0  0  0  0  0  0  0  0  0
   14.6708  100.0751  159.3202 C   0  0  0  0  0  0  0  0  0  0  0  0
   15.1008   99.4453  158.1599 C   0  0  0  0  0  0  0  0  0  0  0  0
   14.2340   99.3338  157.0787 C   0  0  0  0  0  0  0  0  0  0  0  0
   12.9395   99.8457  157.1417 C   0  0  0  0  0  0  0  0  0  0  0  0
   10.8947  102.4605  159.0397 C   0  0  0  0  0  0  0  0  0  0  0  0
   11.4082  103.4317  158.5715 O   0  0  0  0  0  0  0  0  0  0  0  0
    9.9681  102.5684  160.1694 C   0  0  0  0  0  0  0  0  0  0  0  0
    8.7411  102.2509  160.1690 O   0  0  0  0  0  0  0  0  0  0  0  0
   10.4729  103.0122  161.1990 O   0  0  0  0  0  0  0  0  0  0  0  0
   11.3790  103.2503  161.2116 H   0  0  0  0  0  0  0  0  0  0  0  0
 10 11  2  0  0  0
 10 12  1  0  0  0
 10  8  1  0  0  0
  8  9  2  0  0  0
  8  1  1  0  0  0
  1  2  1  0  0  0
  2  3  2  0  0  0
  2  7  1  0  0  0
  3  4  1  0  0  0
  4  5  2  0  0  0
  5  6  1  0  0  0
  6  7  2  0  0  0
 12 13  1  0  0  0
M  END
> <minimizedAffinity>
-6.57375

$$$$
4KIF_PPY_A_501


 13 13  0  0  0  0  0  0  0  0999 V2000
   10.8694  101.6092  158.2915 C   0  0  0  0  0  0  0  0  0  0  0  0
   12.1151  101.1348  159.0026 C   0  0  0  0  0  0  0  0  0  0  0  0
   13.3294  101.5724  158.4628 C   0  0  0  0  0  0  0  0  0  0  0  0
   14.5532  101.2006  159.0333 C   0  0  0  0  0  0  0  0  0  0  0  0
   14.5682  100.3951  160.1642 C   0  0  0  0  0  0  0  0  0  0  0  0
   13.3671   99.9559  160.7091 C   0  0  0  0  0  0  0  0  0  0  0  0
   12.1474  100.3114  160.1366 C   0  0  0  0  0  0  0  0  0  0  0  0
   10.1040  102.8371  158.7308 C   0  0  0  0  0  0  0  0  0  0  0  0
    9.9000  103.7840  158.0324 O   0  0  0  0  0  0  0  0  0  0  0  0
    9.5857  102.7850  160.1002 C   0  0  0  0  0  0  0  0  0  0  0  0
   10.1910  103.1607  161.1485 O   0  0  0  0  0  0  0  0  0  0  0  0
    8.4482  102.3279  160.1951 O   0  0  0  0  0  0  0  0  0  0  0  0
    7.9907  102.0469  159.4272 H   0  0  0  0  0  0  0  0  0  0  0  0
 10 11  2  0  0  0
 10 12  1  0  0  0
 10  8  1  0  0  0
  8  9  2  0  0  0
  8  1  1  0  0  0
  1  2  1  0  0  0
  2  3  2  0  0  0
  2  7  1  0  0  0
  3  4  1  0  0  0
  4  5  2  0  0  0
  5  6  1  0  0  0
  6  7  2  0  0  0
 12 13  1  0  0  0
M  END
> <minimizedAffinity>
-5.75098

$$$$
4KIF_PPY_A_501


 13 13  0  0  0  0  0  0  0  0999 V2000
   12.8297  100.1765  158.6457 C   0  0  0  0  0  0  0  0  0  0  0  0
   11.8621  101.2591  159.0634 C   0  0  0  0  0  0  0  0  0  0  0  0
   10.7694  100.8380  159.8290 C   0  0  0  0  0  0  0  0  0  0  0  0
    9.8037  101.7478  160.2772 C   0  0  0  0  0  0  0  0  0  0  0  0
    9.9348  103.0960  159.9720 C   0  0  0  0  0  0  0  0  0  0  0  0
   11.0175  103.5248  159.2128 C   0  0  0  0  0  0  0  0  0  0  0  0
   11.9734  102.6214  158.7526 C   0  0  0  0  0  0  0  0  0  0  0  0
   13.0787   99.8285  157.1954 C   0  0  0  0  0  0  0  0  0  0  0  0
   12.2837   99.9974  156.3205 O   0  0  0  0  0  0  0  0  0  0  0  0
   14.4069   99.2791  156.9110 C   0  0  0  0  0  0  0  0  0  0  0  0
   15.3668   99.1689  157.7312 O   0  0  0  0  0  0  0  0  0  0  0  0
   14.5605   98.8973  155.7524 O   0  0  0  0  0  0  0  0  0  0  0  0
   13.8581   98.9736  155.1369 H   0  0  0  0  0  0  0  0  0  0  0  0
 10 11  2  0  0  0
 10 12  1  0  0  0
 10  8  1  0  0  0
  8  9  2  0  0  0
  8  1  1  0  0  0
  1  2  1  0  0  0
  2  3  2  0  0  0
  2  7  1  0  0  0
  3  4  1  0  0  0
  4  5  2  0  0  0
  5  6  1  0  0  0
  6  7  2  0  0  0
 12 13  1  0  0  0
M  END
> <minimizedAffinity>
-5.63262

$$$$
4KIF_PPY_A_501


 13 13  0  0  0  0  0  0  0  0999 V2000
   10.2977  101.2967  159.8727 C   0  0  0  0  0  0  0  0  0  0  0  0
   11.5771  100.8675  159.1930 C   0  0  0  0  0  0  0  0  0  0  0  0
   12.6322  100.5198  160.0434 C   0  0  0  0  0  0  0  0  0  0  0  0
   13.8687  100.1049  159.5334 C   0  0  0  0  0  0  0  0  0  0  0  0
   14.0529  100.0210  158.1597 C   0  0  0  0  0  0  0  0  0  0  0  0
   13.0104  100.3633  157.3061 C   0  0  0  0  0  0  0  0  0  0  0  0
   11.7828  100.7903  157.8086 C   0  0  0  0  0  0  0  0  0  0  0  0
    9.9745  102.7480  160.1480 C   0  0  0  0  0  0  0  0  0  0  0  0
   10.4269  103.3731  161.0594 O   0  0  0  0  0  0  0  0  0  0  0  0
    9.0651  103.3723  159.1837 C   0  0  0  0  0  0  0  0  0  0  0  0
    8.0427  104.0698  159.4565 O   0  0  0  0  0  0  0  0  0  0  0  0
    9.3620  103.1771  158.0066 O   0  0  0  0  0  0  0  0  0  0  0  0
   10.1156  102.6630  157.7925 H   0  0  0  0  0  0  0  0  0  0  0  0
 10 11  2  0  0  0
 10 12  1  0  0  0
 10  8  1  0  0  0
  8  9  2  0  0  0
  8  1  1  0  0  0
  1  2  1  0  0  0
  2  3  2  0  0  0
  2  7  1  0  0  0
  3  4  1  0  0  0
  4  5  2  0  0  0
  5  6  1  0  0  0
  6  7  2  0  0  0
 12 13  1  0  0  0
M  END
> <minimizedAffinity>
-5.59238

$$$$
4KIF_PPY_A_501


 13 13  0  0  0  0  0  0  0  0999 V2000
   11.8230  101.0280  158.6122 C   0  0  0  0  0  0  0  0  0  0  0  0
   11.3395  102.3704  159.1094 C   0  0  0  0  0  0  0  0  0  0  0  0
   11.6483  103.4681  158.2988 C   0  0  0  0  0  0  0  0  0  0  0  0
   11.2541  104.7647  158.6519 C   0  0  0  0  0  0  0  0  0  0  0  0
   10.5307  104.9696  159.8192 C   0  0  0  0  0  0  0  0  0  0  0  0
   10.2178  103.8853  160.6311 C   0  0  0  0  0  0  0  0  0  0  0  0
   10.6201  102.5952  160.2912 C   0  0  0  0  0  0  0  0  0  0  0  0
   13.2650  100.7763  158.2332 C   0  0  0  0  0  0  0  0  0  0  0  0
   14.1995  101.2630  158.7953 O   0  0  0  0  0  0  0  0  0  0  0  0
   13.4574   99.8477  157.1164 C   0  0  0  0  0  0  0  0  0  0  0  0
   14.4813   99.1326  156.9003 O   0  0  0  0  0  0  0  0  0  0  0  0
   12.5069   99.7855  156.3388 O   0  0  0  0  0  0  0  0  0  0  0  0
   11.7445  100.3094  156.4880 H   0  0  0  0  0  0  0  0  0  0  0  0
 10 11  2  0  0  0
 10 12  1  0  0  0
 10  8  1  0  0  0
  8  9  2  0  0  0
  8  1  1  0  0  0
  1  2  1  0  0  0
  2  3  2  0  0  0
  2  7  1  0  0  0
  3  4  1  0  0  0
  4  5  2  0  0  0
  5  6  1  0  0  0
  6  7  2  0  0  0
 12 13  1  0  0  0
M  END
> <minimizedAffinity>
-4.65804

$$$$
4KIF_PPY_A_501


 13 13  0  0  0  0  0  0  0  0999 V2000
   11.2225  101.1224  158.7480 C   0  0  0  0  0  0  0  0  0  0  0  0
   10.8760  102.5285  159.1792 C   0  0  0  0  0  0  0  0  0  0  0  0
   11.4416  103.5566  158.4174 C   0  0  0  0  0  0  0  0  0  0  0  0
   11.1949  104.9021  158.7174 C   0  0  0  0  0  0  0  0  0  0  0  0
   10.3630  105.2284  159.7801 C   0  0  0  0  0  0  0  0  0  0  0  0
    9.7951  104.2142  160.5427 C   0  0  0  0  0  0  0  0  0  0  0  0
   10.0490  102.8742  160.2568 C   0  0  0  0  0  0  0  0  0  0  0  0
   12.6454  100.6831  158.4864 C   0  0  0  0  0  0  0  0  0  0  0  0
   13.0656  100.3815  157.4100 O   0  0  0  0  0  0  0  0  0  0  0  0
   13.5162  100.6749  159.6647 C   0  0  0  0  0  0  0  0  0  0  0  0
   13.1757  100.3813  160.8497 O   0  0  0  0  0  0  0  0  0  0  0  0
   14.6832  100.9867  159.4353 O   0  0  0  0  0  0  0  0  0  0  0  0
   14.9469  101.2058  158.5632 H   0  0  0  0  0  0  0  0  0  0  0  0
 10 11  2  0  0  0
 10 12  1  0  0  0
 10  8  1  0  0  0
  8  9  2  0  0  0
  8  1  1  0  0  0
  1  2  1  0  0  0
  2  3  2  0  0  0
  2  7  1  0  0  0
  3  4  1  0  0  0
  4  5  2  0  0  0
  5  6  1  0  0  0
  6  7  2  0  0  0
 12 13  1  0  0  0
M  END
> <minimizedAffinity>
-4.53013

$$$$
4KIF_PPY_A_501


 13 13  0  0  0  0  0  0  0  0999 V2000
   10.8529  101.2529  159.1325 C   0  0  0  0  0  0  0  0  0  0  0  0
   10.7325  102.7548  159.2443 C   0  0  0  0  0  0  0  0  0  0  0  0
    9.8157  103.2242  160.1911 C   0  0  0  0  0  0  0  0  0  0  0  0
    9.6146  104.5960  160.3887 C   0  0  0  0  0  0  0  0  0  0  0  0
   10.3459  105.5124  159.6448 C   0  0  0  0  0  0  0  0  0  0  0  0
   11.2602  105.0563  158.7022 C   0  0  0  0  0  0  0  0  0  0  0  0
   11.4535  103.6924  158.4920 C   0  0  0  0  0  0  0  0  0  0  0  0
   12.1285  100.5153  159.4717 C   0  0  0  0  0  0  0  0  0  0  0  0
   12.4568  100.2214  160.5816 O   0  0  0  0  0  0  0  0  0  0  0  0
   12.9533  100.1447  158.3188 C   0  0  0  0  0  0  0  0  0  0  0  0
   12.7189  100.4245  157.1051 O   0  0  0  0  0  0  0  0  0  0  0  0
   13.9630   99.5030  158.6026 O   0  0  0  0  0  0  0  0  0  0  0  0
   14.1470   99.2901  159.4964 H   0  0  0  0  0  0  0  0  0  0  0  0
 10 11  2  0  0  0
 10 12  1  0  0  0
 10  8  1  0  0  0
  8  9  2  0  0  0
  8  1  1  0  0  0
  1  2  1  0  0  0
  2  3  2  0  0  0
  2  7  1  0  0  0
  3  4  1  0  0  0
  4  5  2  0  0  0
  5  6  1  0  0  0
  6  7  2  0  0  0
 12 13  1  0  0  0
M  END
> <minimizedAffinity>
-4.49699

$$$$
4KIF_PPY_A_501


 13 13  0  0  0  0  0  0  0  0999 V2000
   11.4403  102.5744  159.8451 C   0  0  0  0  0  0  0  0  0  0  0  0
   10.7484  103.9162  159.7856 C   0  0  0  0  0  0  0  0  0  0  0  0
   11.1801  104.7804  158.7736 C   0  0  0  0  0  0  0  0  0  0  0  0
   10.6152  106.0521  158.6154 C   0  0  0  0  0  0  0  0  0  0  0  0
    9.5976  106.4632  159.4659 C   0  0  0  0  0  0  0  0  0  0  0  0
    9.1605  105.6115  160.4740 C   0  0  0  0  0  0  0  0  0  0  0  0
    9.7293  104.3509  160.6443 C   0  0  0  0  0  0  0  0  0  0  0  0
   11.2829  101.5332  158.7599 C   0  0  0  0  0  0  0  0  0  0  0  0
   10.2456  101.0142  158.4758 O   0  0  0  0  0  0  0  0  0  0  0  0
   12.5128  101.2069  158.0336 C   0  0  0  0  0  0  0  0  0  0  0  0
   13.6981  101.4317  158.4220 O   0  0  0  0  0  0  0  0  0  0  0  0
   12.3306  100.6601  156.9474 O   0  0  0  0  0  0  0  0  0  0  0  0
   11.4590  100.4887  156.6495 H   0  0  0  0  0  0  0  0  0  0  0  0
 10 11  2  0  0  0
 10 12  1  0  0  0
 10  8  1  0  0  0
  8  9  2  0  0  0
  8  1  1  0  0  0
  1  2  1  0  0  0
  2  3  2  0  0  0
  2  7  1  0  0  0
  3  4  1  0  0  0
  4  5  2  0  0  0
  5  6  1  0  0  0
  6  7  2  0  0  0
 12 13  1  0  0  0
M  END
> <minimizedAffinity>
-4.38472

$$$$
4KIF_PPY_A_501


 13 13  0  0  0  0  0  0  0  0999 V2000
    9.0563  104.2357  158.5383 C   0  0  0  0  0  0  0  0  0  0  0  0
    9.9478  103.0995  158.9824 C   0  0  0  0  0  0  0  0  0  0  0  0
   11.2471  103.1054  158.4636 C   0  0  0  0  0  0  0  0  0  0  0  0
   12.1679  102.1057  158.8013 C   0  0  0  0  0  0  0  0  0  0  0  0
   11.7954  101.0954  159.6779 C   0  0  0  0  0  0  0  0  0  0  0  0
   10.5071  101.0810  160.1999 C   0  0  0  0  0  0  0  0  0  0  0  0
    9.5829  102.0656  159.8558 C   0  0  0  0  0  0  0  0  0  0  0  0
    7.7957  104.6144  159.2825 C   0  0  0  0  0  0  0  0  0  0  0  0
    7.7459  105.4529  160.1313 O   0  0  0  0  0  0  0  0  0  0  0  0
    6.5923  103.8882  158.8690 C   0  0  0  0  0  0  0  0  0  0  0  0
    6.5022  103.0667  157.9081 O   0  0  0  0  0  0  0  0  0  0  0  0
    5.5966  104.1270  159.5498 O   0  0  0  0  0  0  0  0  0  0  0  0
    5.6508  104.7324  160.2629 H   0  0  0  0  0  0  0  0  0  0  0  0
 10 11  2  0  0  0
 10 12  1  0  0  0
 10  8  1  0  0  0
  8  9  2  0  0  0
  8  1  1  0  0  0
  1  2  1  0  0  0
  2  3  2  0  0  0
  2  7  1  0  0  0
  3  4  1  0  0  0
  4  5  2  0  0  0
  5  6  1  0  0  0
  6  7  2  0  0  0
 12 13  1  0  0  0
M  END
> <minimizedAffinity>
-4.16414

$$$$
