1EX8_A4P_A_171


 60 64  0  0  0  0  0  0  0  0999 V2000
    4.8878   20.4914   23.7182 P   0  0  0  0  0  0  0  0  0  0  0  0
    5.6617   21.4517   22.8512 O   0  0  0  0  0  0  0  0  0  0  0  0
    5.3573   20.2394   25.1255 O   0  0  0  0  0  0  0  0  0  0  0  0
    6.5743   21.1373   22.7553 H   0  0  0  0  0  0  0  0  0  0  0  0
    4.5855   19.0763   22.9333 O   0  0  0  0  0  0  0  0  0  0  0  0
    3.4758   18.1259   23.4227 P   0  0  0  0  0  0  0  0  0  0  0  0
    3.1326   18.2464   24.8651 O   0  0  0  0  0  0  0  0  0  0  0  0
    2.2948   18.3291   22.4995 O   0  0  0  0  0  0  0  0  0  0  0  0
    2.4295   17.6149   25.0840 H   0  0  0  0  0  0  0  0  0  0  0  0
    4.1360   16.6706   23.3090 O   0  0  0  0  0  0  0  0  0  0  0  0
    3.3378   15.4575   23.6855 C   0  0  0  0  0  0  0  0  0  0  0  0
    1.2285   14.7577   20.8690 C   0  0  0  0  0  0  0  0  0  0  0  0
    2.9089   14.8199   22.4142 C   0  0  0  0  0  0  0  0  0  0  0  0
    1.4993   15.0667   22.2088 O   0  0  0  0  0  0  0  0  0  0  0  0
    3.5221   15.3260   21.1682 C   0  0  0  0  0  0  0  0  0  0  0  0
    4.8142   14.8204   20.9544 O   0  0  0  0  0  0  0  0  0  0  0  0
    2.5263   14.9214   20.0901 C   0  0  0  0  0  0  0  0  0  0  0  0
    2.9068   13.6640   19.4697 O   0  0  0  0  0  0  0  0  0  0  0  0
    4.7807   13.8516   20.9197 H   0  0  0  0  0  0  0  0  0  0  0  0
    2.9803   12.9768   20.1504 H   0  0  0  0  0  0  0  0  0  0  0  0
    0.0670   15.5672   20.4049 N   0  0  0  0  0  0  0  0  0  0  0  0
   -0.2594   15.5420   19.0170 C   0  0  0  0  0  0  0  0  0  0  0  0
   -1.2234   16.3477   18.6521 N   0  0  0  0  0  0  0  0  0  0  0  0
   -1.5670   16.9554   19.8894 C   0  0  0  0  0  0  0  0  0  0  0  0
   -2.5811   17.9395   20.0927 C   0  0  0  0  0  0  0  0  0  0  0  0
   -3.3593   18.4597   19.2450 N   0  0  0  0  0  0  0  0  0  0  0  0
   -2.7412   18.4129   21.4758 N   0  0  0  0  0  0  0  0  0  0  0  0
   -1.9514   17.9027   22.4124 C   0  0  0  0  0  0  0  0  0  0  0  0
   -0.9447   16.9444   22.2920 N   0  0  0  0  0  0  0  0  0  0  0  0
   -0.7978   16.4944   20.9548 C   0  0  0  0  0  0  0  0  0  0  0  0
   -3.3082   18.1901   18.2995 H   0  0  0  0  0  0  0  0  0  0  0  0
   -4.0169   19.1347   19.5296 H   0  0  0  0  0  0  0  0  0  0  0  0
    3.3872   21.1605   23.7787 O   0  0  0  0  0  0  0  0  0  0  0  0
    2.8289   22.0347   22.7284 P   0  0  0  0  0  0  0  0  0  0  0  0
    3.2110   23.4961   22.9787 O   0  0  0  0  0  0  0  0  0  0  0  0
    1.3552   21.7823   22.7004 O   0  0  0  0  0  0  0  0  0  0  0  0
    2.8080   23.7983   23.8077 H   0  0  0  0  0  0  0  0  0  0  0  0
    3.5165   21.6187   21.3729 O   0  0  0  0  0  0  0  0  0  0  0  0
    3.5750   22.5647   20.0709 P   0  0  0  0  0  0  0  0  0  0  0  0
    2.1624   23.0987   19.9715 O   0  0  0  0  0  0  0  0  0  0  0  0
    3.7683   21.5982   18.9219 O   0  0  0  0  0  0  0  0  0  0  0  0
    1.5361   22.3580   19.9702 H   0  0  0  0  0  0  0  0  0  0  0  0
    4.6787   23.5761   20.0860 O   0  0  0  0  0  0  0  0  0  0  0  0
    5.9672   23.1185   19.8437 C   0  0  0  0  0  0  0  0  0  0  0  0
    8.3425   26.7572   16.2087 N   0  0  0  0  0  0  0  0  0  0  0  0
    8.5472   26.4768   14.9306 C   0  0  0  0  0  0  0  0  0  0  0  0
    9.0956   27.3112   14.0808 N   0  0  0  0  0  0  0  0  0  0  0  0
    8.1446   25.2015   14.4758 N   0  0  0  0  0  0  0  0  0  0  0  0
    7.5539   24.2045   15.2300 C   0  0  0  0  0  0  0  0  0  0  0  0
    7.2582   23.1062   14.6337 O   0  0  0  0  0  0  0  0  0  0  0  0
    6.7425   23.6216   17.5425 N   0  0  0  0  0  0  0  0  0  0  0  0
    6.5791   24.0216   18.8507 C   0  0  0  0  0  0  0  0  0  0  0  0
    7.0074   25.3891   19.3556 C   0  0  0  0  0  0  0  0  0  0  0  0
    7.5551   26.1463   18.3824 N   0  0  0  0  0  0  0  0  0  0  0  0
    7.7713   25.8727   17.0697 C   0  0  0  0  0  0  0  0  0  0  0  0
    7.3345   24.5253   16.6312 C   0  0  0  0  0  0  0  0  0  0  0  0
    9.3816   28.2038   14.3822 H   0  0  0  0  0  0  0  0  0  0  0  0
    9.2214   27.0452   13.1413 H   0  0  0  0  0  0  0  0  0  0  0  0
    8.3005   25.0021   13.5243 H   0  0  0  0  0  0  0  0  0  0  0  0
    7.8449   27.0420   18.6704 H   0  0  0  0  0  0  0  0  0  0  0  0
 21 22  1  0  0  0
 21 12  1  0  0  0
 21 30  1  0  0  0
 22 23  2  0  0  0
 23 24  1  0  0  0
 24 25  1  0  0  0
 24 30  2  0  0  0
 25 26  1  0  0  0
 25 27  2  0  0  0
 27 28  1  0  0  0
 12 14  1  0  0  0
 12 17  1  0  0  0
 28 29  2  0  0  0
 29 30  1  0  0  0
 10 11  1  0  0  0
 10  6  1  0  0  0
 11 13  1  0  0  0
 13 14  1  0  0  0
 13 15  1  0  0  0
 15 16  1  0  0  0
 15 17  1  0  0  0
 17 18  1  0  0  0
  6  7  1  0  0  0
  6  8  2  0  0  0
  6  5  1  0  0  0
  5  1  1  0  0  0
  1  2  1  0  0  0
  1  3  2  0  0  0
  1 33  1  0  0  0
 33 34  1  0  0  0
 34 35  1  0  0  0
 34 36  2  0  0  0
 34 38  1  0  0  0
 38 39  1  0  0  0
 39 40  1  0  0  0
 39 41  2  0  0  0
 39 43  1  0  0  0
 43 44  1  0  0  0
 45 46  2  0  0  0
 45 55  1  0  0  0
 46 47  1  0  0  0
 46 48  1  0  0  0
 48 49  1  0  0  0
 49 50  2  0  0  0
 49 56  1  0  0  0
 51 52  2  0  0  0
 51 56  1  0  0  0
 52 44  1  0  0  0
 52 53  1  0  0  0
 53 54  1  0  0  0
 54 55  1  0  0  0
 55 56  2  0  0  0
 26 31  1  0  0  0
 26 32  1  0  0  0
 16 19  1  0  0  0
 18 20  1  0  0  0
  7  9  1  0  0  0
  2  4  1  0  0  0
 35 37  1  0  0  0
 40 42  1  0  0  0
 47 57  1  0  0  0
 47 58  1  0  0  0
 48 59  1  0  0  0
 54 60  1  0  0  0
M  END
> <minimizedAffinity>
-12.28685

$$$$
1EX8_A4P_A_171


 60 64  0  0  0  0  0  0  0  0999 V2000
    2.2639   19.6506   24.0904 P   0  0  0  0  0  0  0  0  0  0  0  0
    1.9778   19.3660   22.6379 O   0  0  0  0  0  0  0  0  0  0  0  0
    2.6619   18.5130   24.9915 O   0  0  0  0  0  0  0  0  0  0  0  0
    1.2485   18.7300   22.5706 H   0  0  0  0  0  0  0  0  0  0  0  0
    1.0737   20.5587   24.7751 O   0  0  0  0  0  0  0  0  0  0  0  0
    0.2003   21.4909   23.9136 P   0  0  0  0  0  0  0  0  0  0  0  0
   -0.6156   22.4740   24.6757 O   0  0  0  0  0  0  0  0  0  0  0  0
    1.1211   22.1269   22.8957 O   0  0  0  0  0  0  0  0  0  0  0  0
   -1.1304   23.0155   24.0572 H   0  0  0  0  0  0  0  0  0  0  0  0
   -0.8902   20.5107   23.2680 O   0  0  0  0  0  0  0  0  0  0  0  0
   -1.2501   20.6463   21.8180 C   0  0  0  0  0  0  0  0  0  0  0  0
   -1.4615   17.3488   20.4202 C   0  0  0  0  0  0  0  0  0  0  0  0
   -1.8782   19.3620   21.4144 C   0  0  0  0  0  0  0  0  0  0  0  0
   -1.0021   18.6706   20.4956 O   0  0  0  0  0  0  0  0  0  0  0  0
   -2.1044   18.3610   22.4782 C   0  0  0  0  0  0  0  0  0  0  0  0
   -3.2397   18.6410   23.2551 O   0  0  0  0  0  0  0  0  0  0  0  0
   -2.1997   17.0461   21.7168 C   0  0  0  0  0  0  0  0  0  0  0  0
   -3.5832   16.6977   21.4425 O   0  0  0  0  0  0  0  0  0  0  0  0
   -4.0222   18.6771   22.6829 H   0  0  0  0  0  0  0  0  0  0  0  0
   -4.0058   17.4171   20.9478 H   0  0  0  0  0  0  0  0  0  0  0  0
   -0.3211   16.4528   20.0788 N   0  0  0  0  0  0  0  0  0  0  0  0
   -0.3664   15.7479   18.8400 C   0  0  0  0  0  0  0  0  0  0  0  0
    0.6111   14.9018   18.6394 N   0  0  0  0  0  0  0  0  0  0  0  0
    1.3659   15.0541   19.8332 C   0  0  0  0  0  0  0  0  0  0  0  0
    2.5684   14.3597   20.1650 C   0  0  0  0  0  0  0  0  0  0  0  0
    3.1928   13.4935   19.4908 N   0  0  0  0  0  0  0  0  0  0  0  0
    3.1602   14.6975   21.4682 N   0  0  0  0  0  0  0  0  0  0  0  0
    2.5490   15.6021   22.2229 C   0  0  0  0  0  0  0  0  0  0  0  0
    1.3794   16.3187   21.9687 N   0  0  0  0  0  0  0  0  0  0  0  0
    0.8163   15.9859   20.7100 C   0  0  0  0  0  0  0  0  0  0  0  0
    2.8541   13.2186   18.6082 H   0  0  0  0  0  0  0  0  0  0  0  0
    4.0183   13.0930   19.8479 H   0  0  0  0  0  0  0  0  0  0  0  0
    3.5044   20.7280   24.0283 O   0  0  0  0  0  0  0  0  0  0  0  0
    4.9206   20.3490   23.8559 P   0  0  0  0  0  0  0  0  0  0  0  0
    5.0418   19.0585   23.0406 O   0  0  0  0  0  0  0  0  0  0  0  0
    5.5111   20.2657   25.2272 O   0  0  0  0  0  0  0  0  0  0  0  0
    4.6362   18.3267   23.5314 H   0  0  0  0  0  0  0  0  0  0  0  0
    5.5977   21.4846   22.9986 O   0  0  0  0  0  0  0  0  0  0  0  0
    4.8301   22.3253   21.8594 P   0  0  0  0  0  0  0  0  0  0  0  0
    3.9819   23.2907   22.6588 O   0  0  0  0  0  0  0  0  0  0  0  0
    3.8891   21.3197   21.2308 O   0  0  0  0  0  0  0  0  0  0  0  0
    3.4475   22.7969   23.3002 H   0  0  0  0  0  0  0  0  0  0  0  0
    5.7243   22.9183   20.8153 O   0  0  0  0  0  0  0  0  0  0  0  0
    5.4915   22.5565   19.4950 C   0  0  0  0  0  0  0  0  0  0  0  0
    8.0067   26.5721   16.3895 N   0  0  0  0  0  0  0  0  0  0  0  0
    8.4074   26.3802   15.1418 C   0  0  0  0  0  0  0  0  0  0  0  0
    8.9900   27.3022   14.4141 N   0  0  0  0  0  0  0  0  0  0  0  0
    8.1850   25.1031   14.5803 N   0  0  0  0  0  0  0  0  0  0  0  0
    7.5881   24.0211   15.2006 C   0  0  0  0  0  0  0  0  0  0  0  0
    7.4749   22.9368   14.5218 O   0  0  0  0  0  0  0  0  0  0  0  0
    6.5247   23.2472   17.3491 N   0  0  0  0  0  0  0  0  0  0  0  0
    6.1502   23.5599   18.6375 C   0  0  0  0  0  0  0  0  0  0  0  0
    6.3829   24.9280   19.2561 C   0  0  0  0  0  0  0  0  0  0  0  0
    6.9884   25.7799   18.4029 N   0  0  0  0  0  0  0  0  0  0  0  0
    7.4045   25.5977   17.1229 C   0  0  0  0  0  0  0  0  0  0  0  0
    7.1526   24.2452   16.5697 C   0  0  0  0  0  0  0  0  0  0  0  0
    9.1520   28.1972   14.7909 H   0  0  0  0  0  0  0  0  0  0  0  0
    9.2655   27.0995   13.4909 H   0  0  0  0  0  0  0  0  0  0  0  0
    8.4859   24.9699   13.6525 H   0  0  0  0  0  0  0  0  0  0  0  0
    7.1558   26.6791   18.7671 H   0  0  0  0  0  0  0  0  0  0  0  0
 21 22  1  0  0  0
 21 12  1  0  0  0
 21 30  1  0  0  0
 22 23  2  0  0  0
 23 24  1  0  0  0
 24 25  1  0  0  0
 24 30  2  0  0  0
 25 26  1  0  0  0
 25 27  2  0  0  0
 27 28  1  0  0  0
 12 14  1  0  0  0
 12 17  1  0  0  0
 28 29  2  0  0  0
 29 30  1  0  0  0
 10 11  1  0  0  0
 10  6  1  0  0  0
 11 13  1  0  0  0
 13 14  1  0  0  0
 13 15  1  0  0  0
 15 16  1  0  0  0
 15 17  1  0  0  0
 17 18  1  0  0  0
  6  7  1  0  0  0
  6  8  2  0  0  0
  6  5  1  0  0  0
  5  1  1  0  0  0
  1  2  1  0  0  0
  1  3  2  0  0  0
  1 33  1  0  0  0
 33 34  1  0  0  0
 34 35  1  0  0  0
 34 36  2  0  0  0
 34 38  1  0  0  0
 38 39  1  0  0  0
 39 40  1  0  0  0
 39 41  2  0  0  0
 39 43  1  0  0  0
 43 44  1  0  0  0
 45 46  2  0  0  0
 45 55  1  0  0  0
 46 47  1  0  0  0
 46 48  1  0  0  0
 48 49  1  0  0  0
 49 50  2  0  0  0
 49 56  1  0  0  0
 51 52  2  0  0  0
 51 56  1  0  0  0
 52 44  1  0  0  0
 52 53  1  0  0  0
 53 54  1  0  0  0
 54 55  1  0  0  0
 55 56  2  0  0  0
 26 31  1  0  0  0
 26 32  1  0  0  0
 16 19  1  0  0  0
 18 20  1  0  0  0
  7  9  1  0  0  0
  2  4  1  0  0  0
 35 37  1  0  0  0
 40 42  1  0  0  0
 47 57  1  0  0  0
 47 58  1  0  0  0
 48 59  1  0  0  0
 54 60  1  0  0  0
M  END
> <minimizedAffinity>
-11.92472

$$$$
1EX8_A4P_A_171


 60 64  0  0  0  0  0  0  0  0999 V2000
    4.9244   20.3620   23.6966 P   0  0  0  0  0  0  0  0  0  0  0  0
    5.3503   20.0137   22.2930 O   0  0  0  0  0  0  0  0  0  0  0  0
    5.8555   21.1671   24.5622 O   0  0  0  0  0  0  0  0  0  0  0  0
    6.1702   19.4962   22.3229 H   0  0  0  0  0  0  0  0  0  0  0  0
    4.3602   19.0423   24.5030 O   0  0  0  0  0  0  0  0  0  0  0  0
    3.5460   17.9596   23.7689 P   0  0  0  0  0  0  0  0  0  0  0  0
    2.6743   18.4604   22.6724 O   0  0  0  0  0  0  0  0  0  0  0  0
    4.5338   16.9039   23.3238 O   0  0  0  0  0  0  0  0  0  0  0  0
    2.2023   17.7154   22.2687 H   0  0  0  0  0  0  0  0  0  0  0  0
    2.5078   17.4418   24.8738 O   0  0  0  0  0  0  0  0  0  0  0  0
    1.3037   18.2699   25.2127 C   0  0  0  0  0  0  0  0  0  0  0  0
   -1.4736   16.7609   23.5152 C   0  0  0  0  0  0  0  0  0  0  0  0
    0.1190   17.3937   25.0247 C   0  0  0  0  0  0  0  0  0  0  0  0
   -0.5931   17.8032   23.8352 O   0  0  0  0  0  0  0  0  0  0  0  0
    0.3763   15.9583   24.7830 C   0  0  0  0  0  0  0  0  0  0  0  0
    0.6764   15.2545   25.9601 O   0  0  0  0  0  0  0  0  0  0  0  0
   -0.8950   15.4783   24.0966 C   0  0  0  0  0  0  0  0  0  0  0  0
   -1.8191   14.8938   25.0532 O   0  0  0  0  0  0  0  0  0  0  0  0
   -0.0592   15.3431   26.5862 H   0  0  0  0  0  0  0  0  0  0  0  0
   -2.0216   15.5428   25.7451 H   0  0  0  0  0  0  0  0  0  0  0  0
   -1.7303   16.7699   22.0477 N   0  0  0  0  0  0  0  0  0  0  0  0
   -3.0057   17.2142   21.5902 C   0  0  0  0  0  0  0  0  0  0  0  0
   -3.2093   17.1062   20.3023 N   0  0  0  0  0  0  0  0  0  0  0  0
   -1.9769   16.5489   19.8675 C   0  0  0  0  0  0  0  0  0  0  0  0
   -1.6307   16.2133   18.5238 C   0  0  0  0  0  0  0  0  0  0  0  0
   -2.3229   16.3364   17.4747 N   0  0  0  0  0  0  0  0  0  0  0  0
   -0.2868   15.6467   18.3347 N   0  0  0  0  0  0  0  0  0  0  0  0
    0.4885   15.4930   19.4009 C   0  0  0  0  0  0  0  0  0  0  0  0
    0.2224   15.7956   20.7365 N   0  0  0  0  0  0  0  0  0  0  0  0
   -1.0757   16.3411   20.9085 C   0  0  0  0  0  0  0  0  0  0  0  0
   -3.2328   16.7088   17.5262 H   0  0  0  0  0  0  0  0  0  0  0  0
   -1.9527   16.0599   16.6054 H   0  0  0  0  0  0  0  0  0  0  0  0
    3.5428   21.2242   23.4705 O   0  0  0  0  0  0  0  0  0  0  0  0
    3.4334   22.3890   22.5703 P   0  0  0  0  0  0  0  0  0  0  0  0
    4.7085   23.2353   22.6200 O   0  0  0  0  0  0  0  0  0  0  0  0
    2.1938   23.1237   22.9701 O   0  0  0  0  0  0  0  0  0  0  0  0
    4.8162   23.6056   23.5100 H   0  0  0  0  0  0  0  0  0  0  0  0
    3.3280   21.8253   21.1026 O   0  0  0  0  0  0  0  0  0  0  0  0
    3.6499   22.6929   19.7844 P   0  0  0  0  0  0  0  0  0  0  0  0
    3.4149   24.1153   20.2446 O   0  0  0  0  0  0  0  0  0  0  0  0
    2.5286   22.3419   18.8298 O   0  0  0  0  0  0  0  0  0  0  0  0
    2.5292   24.1871   20.6337 H   0  0  0  0  0  0  0  0  0  0  0  0
    4.9755   22.3982   19.1544 O   0  0  0  0  0  0  0  0  0  0  0  0
    6.1002   22.9665   19.7381 C   0  0  0  0  0  0  0  0  0  0  0  0
    8.3200   26.7793   16.1842 N   0  0  0  0  0  0  0  0  0  0  0  0
    8.5311   26.5372   14.8994 C   0  0  0  0  0  0  0  0  0  0  0  0
    9.0438   27.4121   14.0682 N   0  0  0  0  0  0  0  0  0  0  0  0
    8.1768   25.2583   14.4155 N   0  0  0  0  0  0  0  0  0  0  0  0
    7.6279   24.2216   15.1475 C   0  0  0  0  0  0  0  0  0  0  0  0
    7.3731   23.1269   14.5261 O   0  0  0  0  0  0  0  0  0  0  0  0
    6.8475   23.5533   17.4475 N   0  0  0  0  0  0  0  0  0  0  0  0
    6.6731   23.9157   18.7651 C   0  0  0  0  0  0  0  0  0  0  0  0
    7.0497   25.2866   19.3013 C   0  0  0  0  0  0  0  0  0  0  0  0
    7.5643   26.0872   18.3448 N   0  0  0  0  0  0  0  0  0  0  0  0
    7.7865   25.8533   17.0255 C   0  0  0  0  0  0  0  0  0  0  0  0
    7.4009   24.5006   16.5564 C   0  0  0  0  0  0  0  0  0  0  0  0
    9.2959   28.3078   14.3899 H   0  0  0  0  0  0  0  0  0  0  0  0
    9.1767   27.1734   13.1224 H   0  0  0  0  0  0  0  0  0  0  0  0
    8.3371   25.0876   13.4593 H   0  0  0  0  0  0  0  0  0  0  0  0
    7.8201   26.9865   18.6532 H   0  0  0  0  0  0  0  0  0  0  0  0
 21 22  1  0  0  0
 21 12  1  0  0  0
 21 30  1  0  0  0
 22 23  2  0  0  0
 23 24  1  0  0  0
 24 25  1  0  0  0
 24 30  2  0  0  0
 25 26  1  0  0  0
 25 27  2  0  0  0
 27 28  1  0  0  0
 12 14  1  0  0  0
 12 17  1  0  0  0
 28 29  2  0  0  0
 29 30  1  0  0  0
 10 11  1  0  0  0
 10  6  1  0  0  0
 11 13  1  0  0  0
 13 14  1  0  0  0
 13 15  1  0  0  0
 15 16  1  0  0  0
 15 17  1  0  0  0
 17 18  1  0  0  0
  6  7  1  0  0  0
  6  8  2  0  0  0
  6  5  1  0  0  0
  5  1  1  0  0  0
  1  2  1  0  0  0
  1  3  2  0  0  0
  1 33  1  0  0  0
 33 34  1  0  0  0
 34 35  1  0  0  0
 34 36  2  0  0  0
 34 38  1  0  0  0
 38 39  1  0  0  0
 39 40  1  0  0  0
 39 41  2  0  0  0
 39 43  1  0  0  0
 43 44  1  0  0  0
 45 46  2  0  0  0
 45 55  1  0  0  0
 46 47  1  0  0  0
 46 48  1  0  0  0
 48 49  1  0  0  0
 49 50  2  0  0  0
 49 56  1  0  0  0
 51 52  2  0  0  0
 51 56  1  0  0  0
 52 44  1  0  0  0
 52 53  1  0  0  0
 53 54  1  0  0  0
 54 55  1  0  0  0
 55 56  2  0  0  0
 26 31  1  0  0  0
 26 32  1  0  0  0
 16 19  1  0  0  0
 18 20  1  0  0  0
  7  9  1  0  0  0
  2  4  1  0  0  0
 35 37  1  0  0  0
 40 42  1  0  0  0
 47 57  1  0  0  0
 47 58  1  0  0  0
 48 59  1  0  0  0
 54 60  1  0  0  0
M  END
> <minimizedAffinity>
-11.90324

$$$$
1EX8_A4P_A_171


 60 64  0  0  0  0  0  0  0  0999 V2000
    1.0824   18.5583   21.9240 P   0  0  0  0  0  0  0  0  0  0  0  0
    0.1926   17.6374   22.7195 O   0  0  0  0  0  0  0  0  0  0  0  0
    1.5881   18.1032   20.5817 O   0  0  0  0  0  0  0  0  0  0  0  0
    0.6637   16.8090   22.9004 H   0  0  0  0  0  0  0  0  0  0  0  0
    2.3072   19.1608   22.8442 O   0  0  0  0  0  0  0  0  0  0  0  0
    3.0316   18.2701   23.8718 P   0  0  0  0  0  0  0  0  0  0  0  0
    4.3675   18.7622   24.3029 O   0  0  0  0  0  0  0  0  0  0  0  0
    2.0655   18.0575   25.0163 O   0  0  0  0  0  0  0  0  0  0  0  0
    4.7479   18.1436   24.9459 H   0  0  0  0  0  0  0  0  0  0  0  0
    3.3641   16.9318   23.0561 O   0  0  0  0  0  0  0  0  0  0  0  0
    2.7929   15.6205   23.5086 C   0  0  0  0  0  0  0  0  0  0  0  0
    1.2860   14.3726   20.5014 C   0  0  0  0  0  0  0  0  0  0  0  0
    2.6424   14.7806   22.2927 C   0  0  0  0  0  0  0  0  0  0  0  0
    1.2854   14.8855   21.8055 O   0  0  0  0  0  0  0  0  0  0  0  0
    3.4510   15.1545   21.1133 C   0  0  0  0  0  0  0  0  0  0  0  0
    4.7845   14.7264   21.2111 O   0  0  0  0  0  0  0  0  0  0  0  0
    2.6964   14.5270   19.9495 C   0  0  0  0  0  0  0  0  0  0  0  0
    3.2500   13.2291   19.6039 O   0  0  0  0  0  0  0  0  0  0  0  0
    4.8077   13.7626   21.3180 H   0  0  0  0  0  0  0  0  0  0  0  0
    3.2301   12.6513   20.3828 H   0  0  0  0  0  0  0  0  0  0  0  0
    0.1919   15.0164   19.7215 N   0  0  0  0  0  0  0  0  0  0  0  0
    0.3258   15.0840   18.3034 C   0  0  0  0  0  0  0  0  0  0  0  0
   -0.6150   15.7472   17.6815 N   0  0  0  0  0  0  0  0  0  0  0  0
   -1.4392   16.1516   18.7656 C   0  0  0  0  0  0  0  0  0  0  0  0
   -2.6385   16.9204   18.6720 C   0  0  0  0  0  0  0  0  0  0  0  0
   -3.2000   17.3873   17.6417 N   0  0  0  0  0  0  0  0  0  0  0  0
   -3.3113   17.2091   19.9475 N   0  0  0  0  0  0  0  0  0  0  0  0
   -2.7687   16.7445   21.0660 C   0  0  0  0  0  0  0  0  0  0  0  0
   -1.6071   15.9910   21.2366 N   0  0  0  0  0  0  0  0  0  0  0  0
   -0.9656   15.7180   20.0012 C   0  0  0  0  0  0  0  0  0  0  0  0
   -2.8050   17.2328   16.7532 H   0  0  0  0  0  0  0  0  0  0  0  0
   -4.0326   17.9056   17.7269 H   0  0  0  0  0  0  0  0  0  0  0  0
    0.1478   19.8934   21.7062 O   0  0  0  0  0  0  0  0  0  0  0  0
   -0.6479   20.5288   22.7749 P   0  0  0  0  0  0  0  0  0  0  0  0
   -0.2458   19.9837   24.1482 O   0  0  0  0  0  0  0  0  0  0  0  0
   -2.0854   20.3104   22.4254 O   0  0  0  0  0  0  0  0  0  0  0  0
   -0.4575   19.0383   24.1954 H   0  0  0  0  0  0  0  0  0  0  0  0
   -0.2751   22.0598   22.7750 O   0  0  0  0  0  0  0  0  0  0  0  0
    1.2258   22.6164   22.9526 P   0  0  0  0  0  0  0  0  0  0  0  0
    1.7536   21.8121   24.1209 O   0  0  0  0  0  0  0  0  0  0  0  0
    1.0364   24.0375   23.4386 O   0  0  0  0  0  0  0  0  0  0  0  0
    1.1443   21.8939   24.8713 H   0  0  0  0  0  0  0  0  0  0  0  0
    2.0458   22.6041   21.7001 O   0  0  0  0  0  0  0  0  0  0  0  0
    3.4156   22.7902   21.8321 C   0  0  0  0  0  0  0  0  0  0  0  0
    5.4717   22.3555   16.5710 N   0  0  0  0  0  0  0  0  0  0  0  0
    6.7082   22.6996   16.2443 C   0  0  0  0  0  0  0  0  0  0  0  0
    7.1943   22.6029   15.0304 N   0  0  0  0  0  0  0  0  0  0  0  0
    7.5354   23.1962   17.2761 N   0  0  0  0  0  0  0  0  0  0  0  0
    7.1884   23.3635   18.6040 C   0  0  0  0  0  0  0  0  0  0  0  0
    8.0839   23.8321   19.3964 O   0  0  0  0  0  0  0  0  0  0  0  0
    5.3103   23.0881   20.2600 N   0  0  0  0  0  0  0  0  0  0  0  0
    4.0073   22.7003   20.4839 C   0  0  0  0  0  0  0  0  0  0  0  0
    3.1047   22.1650   19.3851 C   0  0  0  0  0  0  0  0  0  0  0  0
    3.7268   22.1174   18.1887 N   0  0  0  0  0  0  0  0  0  0  0  0
    4.9920   22.4661   17.8389 C   0  0  0  0  0  0  0  0  0  0  0  0
    5.8284   22.9817   18.9494 C   0  0  0  0  0  0  0  0  0  0  0  0
    6.6305   22.2587   14.3004 H   0  0  0  0  0  0  0  0  0  0  0  0
    8.1230   22.8745   14.8490 H   0  0  0  0  0  0  0  0  0  0  0  0
    8.4528   23.4491   17.0238 H   0  0  0  0  0  0  0  0  0  0  0  0
    3.1742   21.7742   17.4497 H   0  0  0  0  0  0  0  0  0  0  0  0
 21 22  1  0  0  0
 21 12  1  0  0  0
 21 30  1  0  0  0
 22 23  2  0  0  0
 23 24  1  0  0  0
 24 25  1  0  0  0
 24 30  2  0  0  0
 25 26  1  0  0  0
 25 27  2  0  0  0
 27 28  1  0  0  0
 12 14  1  0  0  0
 12 17  1  0  0  0
 28 29  2  0  0  0
 29 30  1  0  0  0
 10 11  1  0  0  0
 10  6  1  0  0  0
 11 13  1  0  0  0
 13 14  1  0  0  0
 13 15  1  0  0  0
 15 16  1  0  0  0
 15 17  1  0  0  0
 17 18  1  0  0  0
  6  7  1  0  0  0
  6  8  2  0  0  0
  6  5  1  0  0  0
  5  1  1  0  0  0
  1  2  1  0  0  0
  1  3  2  0  0  0
  1 33  1  0  0  0
 33 34  1  0  0  0
 34 35  1  0  0  0
 34 36  2  0  0  0
 34 38  1  0  0  0
 38 39  1  0  0  0
 39 40  1  0  0  0
 39 41  2  0  0  0
 39 43  1  0  0  0
 43 44  1  0  0  0
 45 46  2  0  0  0
 45 55  1  0  0  0
 46 47  1  0  0  0
 46 48  1  0  0  0
 48 49  1  0  0  0
 49 50  2  0  0  0
 49 56  1  0  0  0
 51 52  2  0  0  0
 51 56  1  0  0  0
 52 44  1  0  0  0
 52 53  1  0  0  0
 53 54  1  0  0  0
 54 55  1  0  0  0
 55 56  2  0  0  0
 26 31  1  0  0  0
 26 32  1  0  0  0
 16 19  1  0  0  0
 18 20  1  0  0  0
  7  9  1  0  0  0
  2  4  1  0  0  0
 35 37  1  0  0  0
 40 42  1  0  0  0
 47 57  1  0  0  0
 47 58  1  0  0  0
 48 59  1  0  0  0
 54 60  1  0  0  0
M  END
> <minimizedAffinity>
-11.84149

$$$$
1EX8_A4P_A_171


 60 64  0  0  0  0  0  0  0  0999 V2000
    0.4685   18.1146   24.1338 P   0  0  0  0  0  0  0  0  0  0  0  0
    0.5209   19.2800   25.0888 O   0  0  0  0  0  0  0  0  0  0  0  0
    0.2237   16.7343   24.6811 O   0  0  0  0  0  0  0  0  0  0  0  0
    1.2329   19.1390   25.7322 H   0  0  0  0  0  0  0  0  0  0  0  0
    1.7486   18.1220   23.0989 O   0  0  0  0  0  0  0  0  0  0  0  0
    3.1766   17.8522   23.6108 P   0  0  0  0  0  0  0  0  0  0  0  0
    3.2835   16.8009   24.6578 O   0  0  0  0  0  0  0  0  0  0  0  0
    4.0289   17.5815   22.3907 O   0  0  0  0  0  0  0  0  0  0  0  0
    4.2120   16.6983   24.9193 H   0  0  0  0  0  0  0  0  0  0  0  0
    3.5710   19.1995   24.3828 O   0  0  0  0  0  0  0  0  0  0  0  0
    4.7934   19.9653   23.9706 C   0  0  0  0  0  0  0  0  0  0  0  0
    4.3084   22.7087   21.7101 C   0  0  0  0  0  0  0  0  0  0  0  0
    4.3241   21.2950   23.5036 C   0  0  0  0  0  0  0  0  0  0  0  0
    5.0158   21.6431   22.2827 O   0  0  0  0  0  0  0  0  0  0  0  0
    2.8999   21.4104   23.1255 C   0  0  0  0  0  0  0  0  0  0  0  0
    2.0509   21.5312   24.2372 O   0  0  0  0  0  0  0  0  0  0  0  0
    2.8715   22.6233   22.2060 C   0  0  0  0  0  0  0  0  0  0  0  0
    2.5154   23.8275   22.9366 O   0  0  0  0  0  0  0  0  0  0  0  0
    2.3051   22.3112   24.7548 H   0  0  0  0  0  0  0  0  0  0  0  0
    3.1403   23.9594   23.6666 H   0  0  0  0  0  0  0  0  0  0  0  0
    4.5051   22.6897   20.2334 N   0  0  0  0  0  0  0  0  0  0  0  0
    3.4446   22.1937   19.4193 C   0  0  0  0  0  0  0  0  0  0  0  0
    3.7108   22.1075   18.1413 N   0  0  0  0  0  0  0  0  0  0  0  0
    5.0491   22.5825   18.0990 C   0  0  0  0  0  0  0  0  0  0  0  0
    5.8624   22.7095   16.9326 C   0  0  0  0  0  0  0  0  0  0  0  0
    5.5739   22.4355   15.7340 N   0  0  0  0  0  0  0  0  0  0  0  0
    7.2201   23.2285   17.1561 N   0  0  0  0  0  0  0  0  0  0  0  0
    7.5821   23.5348   18.3956 C   0  0  0  0  0  0  0  0  0  0  0  0
    6.8485   23.4390   19.5784 N   0  0  0  0  0  0  0  0  0  0  0  0
    5.5409   22.9375   19.3525 C   0  0  0  0  0  0  0  0  0  0  0  0
    4.6820   22.0837   15.5104 H   0  0  0  0  0  0  0  0  0  0  0  0
    6.2409   22.5738   15.0232 H   0  0  0  0  0  0  0  0  0  0  0  0
   -0.7707   18.5056   23.1264 O   0  0  0  0  0  0  0  0  0  0  0  0
   -0.7803   19.6937   22.2503 P   0  0  0  0  0  0  0  0  0  0  0  0
    0.2809   19.5681   21.1536 O   0  0  0  0  0  0  0  0  0  0  0  0
   -0.6049   20.8827   23.1400 O   0  0  0  0  0  0  0  0  0  0  0  0
    1.1627   19.5517   21.5573 H   0  0  0  0  0  0  0  0  0  0  0  0
   -2.1769   19.7136   21.5208 O   0  0  0  0  0  0  0  0  0  0  0  0
   -2.6074   18.6602   20.3811 P   0  0  0  0  0  0  0  0  0  0  0  0
   -3.5216   19.4735   19.4905 O   0  0  0  0  0  0  0  0  0  0  0  0
   -3.4742   17.6586   21.1141 O   0  0  0  0  0  0  0  0  0  0  0  0
   -4.2214   19.8768   20.0276 H   0  0  0  0  0  0  0  0  0  0  0  0
   -1.4627   17.9623   19.7149 O   0  0  0  0  0  0  0  0  0  0  0  0
   -1.5632   16.5874   19.5481 C   0  0  0  0  0  0  0  0  0  0  0  0
    2.3319   14.1278   22.8458 N   0  0  0  0  0  0  0  0  0  0  0  0
    3.6184   14.0772   22.5353 C   0  0  0  0  0  0  0  0  0  0  0  0
    4.5281   13.5110   23.2910 N   0  0  0  0  0  0  0  0  0  0  0  0
    4.0137   14.6732   21.3171 N   0  0  0  0  0  0  0  0  0  0  0  0
    3.1925   15.3098   20.4048 C   0  0  0  0  0  0  0  0  0  0  0  0
    3.7413   15.7914   19.3483 O   0  0  0  0  0  0  0  0  0  0  0  0
    0.8068   15.9709   19.9391 N   0  0  0  0  0  0  0  0  0  0  0  0
   -0.5039   15.9632   20.3632 C   0  0  0  0  0  0  0  0  0  0  0  0
   -0.9453   15.3259   21.6700 C   0  0  0  0  0  0  0  0  0  0  0  0
    0.0860   14.7813   22.3485 N   0  0  0  0  0  0  0  0  0  0  0  0
    1.4082   14.7217   22.0433 C   0  0  0  0  0  0  0  0  0  0  0  0
    1.7828   15.3587   20.7578 C   0  0  0  0  0  0  0  0  0  0  0  0
    4.2687   13.0914   24.1430 H   0  0  0  0  0  0  0  0  0  0  0  0
    5.4705   13.5056   23.0065 H   0  0  0  0  0  0  0  0  0  0  0  0
    4.9718   14.6309   21.0949 H   0  0  0  0  0  0  0  0  0  0  0  0
   -0.1597   14.3586   23.2030 H   0  0  0  0  0  0  0  0  0  0  0  0
 21 22  1  0  0  0
 21 12  1  0  0  0
 21 30  1  0  0  0
 22 23  2  0  0  0
 23 24  1  0  0  0
 24 25  1  0  0  0
 24 30  2  0  0  0
 25 26  1  0  0  0
 25 27  2  0  0  0
 27 28  1  0  0  0
 12 14  1  0  0  0
 12 17  1  0  0  0
 28 29  2  0  0  0
 29 30  1  0  0  0
 10 11  1  0  0  0
 10  6  1  0  0  0
 11 13  1  0  0  0
 13 14  1  0  0  0
 13 15  1  0  0  0
 15 16  1  0  0  0
 15 17  1  0  0  0
 17 18  1  0  0  0
  6  7  1  0  0  0
  6  8  2  0  0  0
  6  5  1  0  0  0
  5  1  1  0  0  0
  1  2  1  0  0  0
  1  3  2  0  0  0
  1 33  1  0  0  0
 33 34  1  0  0  0
 34 35  1  0  0  0
 34 36  2  0  0  0
 34 38  1  0  0  0
 38 39  1  0  0  0
 39 40  1  0  0  0
 39 41  2  0  0  0
 39 43  1  0  0  0
 43 44  1  0  0  0
 45 46  2  0  0  0
 45 55  1  0  0  0
 46 47  1  0  0  0
 46 48  1  0  0  0
 48 49  1  0  0  0
 49 50  2  0  0  0
 49 56  1  0  0  0
 51 52  2  0  0  0
 51 56  1  0  0  0
 52 44  1  0  0  0
 52 53  1  0  0  0
 53 54  1  0  0  0
 54 55  1  0  0  0
 55 56  2  0  0  0
 26 31  1  0  0  0
 26 32  1  0  0  0
 16 19  1  0  0  0
 18 20  1  0  0  0
  7  9  1  0  0  0
  2  4  1  0  0  0
 35 37  1  0  0  0
 40 42  1  0  0  0
 47 57  1  0  0  0
 47 58  1  0  0  0
 48 59  1  0  0  0
 54 60  1  0  0  0
M  END
> <minimizedAffinity>
-11.59469

$$$$
1EX8_A4P_A_171


 60 64  0  0  0  0  0  0  0  0999 V2000
    1.4535   19.7233   25.9186 P   0  0  0  0  0  0  0  0  0  0  0  0
    0.2014   18.9029   25.7401 O   0  0  0  0  0  0  0  0  0  0  0  0
    1.8328   20.1830   27.3004 O   0  0  0  0  0  0  0  0  0  0  0  0
   -0.5646   19.4102   26.0512 H   0  0  0  0  0  0  0  0  0  0  0  0
    1.5209   20.9671   24.8423 O   0  0  0  0  0  0  0  0  0  0  0  0
    0.2423   21.4841   24.1554 P   0  0  0  0  0  0  0  0  0  0  0  0
   -0.9543   21.5737   25.0345 O   0  0  0  0  0  0  0  0  0  0  0  0
    0.6073   22.7942   23.4930 O   0  0  0  0  0  0  0  0  0  0  0  0
   -1.7078   21.9062   24.5222 H   0  0  0  0  0  0  0  0  0  0  0  0
   -0.1345   20.3234   23.1172 O   0  0  0  0  0  0  0  0  0  0  0  0
   -0.9620   20.6438   21.9076 C   0  0  0  0  0  0  0  0  0  0  0  0
   -1.3155   17.3693   20.4846 C   0  0  0  0  0  0  0  0  0  0  0  0
   -1.6406   19.3832   21.5113 C   0  0  0  0  0  0  0  0  0  0  0  0
   -0.8146   18.6760   20.5586 O   0  0  0  0  0  0  0  0  0  0  0  0
   -1.8635   18.3779   22.5716 C   0  0  0  0  0  0  0  0  0  0  0  0
   -2.9653   18.6831   23.3865 O   0  0  0  0  0  0  0  0  0  0  0  0
   -2.0219   17.0747   21.8007 C   0  0  0  0  0  0  0  0  0  0  0  0
   -3.4230   16.7705   21.5665 O   0  0  0  0  0  0  0  0  0  0  0  0
   -3.7637   18.7485   22.8396 H   0  0  0  0  0  0  0  0  0  0  0  0
   -3.8390   17.5074   21.0924 H   0  0  0  0  0  0  0  0  0  0  0  0
   -0.2138   16.4437   20.0988 N   0  0  0  0  0  0  0  0  0  0  0  0
   -0.3246   15.7443   18.8610 C   0  0  0  0  0  0  0  0  0  0  0  0
    0.6211   14.8724   18.6220 N   0  0  0  0  0  0  0  0  0  0  0  0
    1.4239   15.0001   19.7871 C   0  0  0  0  0  0  0  0  0  0  0  0
    2.6184   14.2721   20.0721 C   0  0  0  0  0  0  0  0  0  0  0  0
    3.1932   13.3913   19.3731 N   0  0  0  0  0  0  0  0  0  0  0  0
    3.2675   14.5892   21.3530 N   0  0  0  0  0  0  0  0  0  0  0  0
    2.7100   15.5077   22.1321 C   0  0  0  0  0  0  0  0  0  0  0  0
    1.5518   16.2569   21.9235 N   0  0  0  0  0  0  0  0  0  0  0  0
    0.9332   15.9438   20.6859 C   0  0  0  0  0  0  0  0  0  0  0  0
    2.8144   13.1287   18.5032 H   0  0  0  0  0  0  0  0  0  0  0  0
    4.0201   12.9672   19.6981 H   0  0  0  0  0  0  0  0  0  0  0  0
    2.6386   18.7343   25.3522 O   0  0  0  0  0  0  0  0  0  0  0  0
    3.4402   19.0124   24.1443 P   0  0  0  0  0  0  0  0  0  0  0  0
    2.5404   19.1319   22.9112 O   0  0  0  0  0  0  0  0  0  0  0  0
    4.4657   17.9278   24.0524 O   0  0  0  0  0  0  0  0  0  0  0  0
    2.1070   18.2805   22.7435 H   0  0  0  0  0  0  0  0  0  0  0  0
    4.1051   20.4260   24.3512 O   0  0  0  0  0  0  0  0  0  0  0  0
    5.2704   21.0145   23.4082 P   0  0  0  0  0  0  0  0  0  0  0  0
    5.4974   19.9011   22.4085 O   0  0  0  0  0  0  0  0  0  0  0  0
    6.4860   21.0595   24.3094 O   0  0  0  0  0  0  0  0  0  0  0  0
    5.6679   19.0717   22.8816 H   0  0  0  0  0  0  0  0  0  0  0  0
    4.9910   22.3753   22.8500 O   0  0  0  0  0  0  0  0  0  0  0  0
    3.9135   22.5007   21.9830 C   0  0  0  0  0  0  0  0  0  0  0  0
    5.7806   22.7017   16.6379 N   0  0  0  0  0  0  0  0  0  0  0  0
    6.9563   23.2082   16.2984 C   0  0  0  0  0  0  0  0  0  0  0  0
    7.3983   23.2595   15.0650 N   0  0  0  0  0  0  0  0  0  0  0  0
    7.7661   23.7166   17.3382 N   0  0  0  0  0  0  0  0  0  0  0  0
    7.4592   23.7426   18.6861 C   0  0  0  0  0  0  0  0  0  0  0  0
    8.3298   24.2490   19.4828 O   0  0  0  0  0  0  0  0  0  0  0  0
    5.6951   23.1305   20.3770 N   0  0  0  0  0  0  0  0  0  0  0  0
    4.4540   22.5809   20.6127 C   0  0  0  0  0  0  0  0  0  0  0  0
    3.5707   22.0306   19.5056 C   0  0  0  0  0  0  0  0  0  0  0  0
    4.1430   22.1446   18.2891 N   0  0  0  0  0  0  0  0  0  0  0  0
    5.3457   22.6608   17.9260 C   0  0  0  0  0  0  0  0  0  0  0  0
    6.1660   23.1832   19.0454 C   0  0  0  0  0  0  0  0  0  0  0  0
    6.8458   22.9093   14.3292 H   0  0  0  0  0  0  0  0  0  0  0  0
    8.2826   23.6481   14.8748 H   0  0  0  0  0  0  0  0  0  0  0  0
    8.6382   24.0908   17.0763 H   0  0  0  0  0  0  0  0  0  0  0  0
    3.6012   21.7975   17.5441 H   0  0  0  0  0  0  0  0  0  0  0  0
 21 22  1  0  0  0
 21 12  1  0  0  0
 21 30  1  0  0  0
 22 23  2  0  0  0
 23 24  1  0  0  0
 24 25  1  0  0  0
 24 30  2  0  0  0
 25 26  1  0  0  0
 25 27  2  0  0  0
 27 28  1  0  0  0
 12 14  1  0  0  0
 12 17  1  0  0  0
 28 29  2  0  0  0
 29 30  1  0  0  0
 10 11  1  0  0  0
 10  6  1  0  0  0
 11 13  1  0  0  0
 13 14  1  0  0  0
 13 15  1  0  0  0
 15 16  1  0  0  0
 15 17  1  0  0  0
 17 18  1  0  0  0
  6  7  1  0  0  0
  6  8  2  0  0  0
  6  5  1  0  0  0
  5  1  1  0  0  0
  1  2  1  0  0  0
  1  3  2  0  0  0
  1 33  1  0  0  0
 33 34  1  0  0  0
 34 35  1  0  0  0
 34 36  2  0  0  0
 34 38  1  0  0  0
 38 39  1  0  0  0
 39 40  1  0  0  0
 39 41  2  0  0  0
 39 43  1  0  0  0
 43 44  1  0  0  0
 45 46  2  0  0  0
 45 55  1  0  0  0
 46 47  1  0  0  0
 46 48  1  0  0  0
 48 49  1  0  0  0
 49 50  2  0  0  0
 49 56  1  0  0  0
 51 52  2  0  0  0
 51 56  1  0  0  0
 52 44  1  0  0  0
 52 53  1  0  0  0
 53 54  1  0  0  0
 54 55  1  0  0  0
 55 56  2  0  0  0
 26 31  1  0  0  0
 26 32  1  0  0  0
 16 19  1  0  0  0
 18 20  1  0  0  0
  7  9  1  0  0  0
  2  4  1  0  0  0
 35 37  1  0  0  0
 40 42  1  0  0  0
 47 57  1  0  0  0
 47 58  1  0  0  0
 48 59  1  0  0  0
 54 60  1  0  0  0
M  END
> <minimizedAffinity>
-11.59147

$$$$
1EX8_A4P_A_171


 60 64  0  0  0  0  0  0  0  0999 V2000
    3.6003   18.5390   24.0131 P   0  0  0  0  0  0  0  0  0  0  0  0
    2.8908   18.3762   22.6929 O   0  0  0  0  0  0  0  0  0  0  0  0
    3.2108   19.6796   24.9141 O   0  0  0  0  0  0  0  0  0  0  0  0
    3.0219   19.1727   22.1550 H   0  0  0  0  0  0  0  0  0  0  0  0
    5.2349   18.4571   23.8359 O   0  0  0  0  0  0  0  0  0  0  0  0
    6.1071   19.7188   23.9824 P   0  0  0  0  0  0  0  0  0  0  0  0
    5.8869   20.4967   25.2310 O   0  0  0  0  0  0  0  0  0  0  0  0
    7.5409   19.2778   23.7878 O   0  0  0  0  0  0  0  0  0  0  0  0
    6.4741   21.2688   25.2388 H   0  0  0  0  0  0  0  0  0  0  0  0
    5.5734   20.6932   22.8280 O   0  0  0  0  0  0  0  0  0  0  0  0
    5.5530   22.1762   23.0533 C   0  0  0  0  0  0  0  0  0  0  0  0
    4.3886   23.5150   19.9351 C   0  0  0  0  0  0  0  0  0  0  0  0
    4.5893   22.7414   22.0743 C   0  0  0  0  0  0  0  0  0  0  0  0
    5.3175   23.3155   20.9653 O   0  0  0  0  0  0  0  0  0  0  0  0
    3.6678   21.7928   21.4141 C   0  0  0  0  0  0  0  0  0  0  0  0
    2.5846   21.4305   22.2306 O   0  0  0  0  0  0  0  0  0  0  0  0
    3.2527   22.5232   20.1446 C   0  0  0  0  0  0  0  0  0  0  0  0
    1.9948   23.2257   20.3307 O   0  0  0  0  0  0  0  0  0  0  0  0
    2.0912   22.2259   22.4849 H   0  0  0  0  0  0  0  0  0  0  0  0
    2.0758   23.8420   21.0754 H   0  0  0  0  0  0  0  0  0  0  0  0
    5.0919   23.4541   18.6231 N   0  0  0  0  0  0  0  0  0  0  0  0
    4.8618   22.3214   17.7878 C   0  0  0  0  0  0  0  0  0  0  0  0
    5.5808   22.2735   16.6959 N   0  0  0  0  0  0  0  0  0  0  0  0
    6.3476   23.4640   16.8103 C   0  0  0  0  0  0  0  0  0  0  0  0
    7.3222   23.9322   15.8780 C   0  0  0  0  0  0  0  0  0  0  0  0
    7.6955   23.4050   14.7929 N   0  0  0  0  0  0  0  0  0  0  0  0
    7.9818   25.1991   16.2283 N   0  0  0  0  0  0  0  0  0  0  0  0
    7.6312   25.8014   17.3577 C   0  0  0  0  0  0  0  0  0  0  0  0
    6.6937   25.4086   18.3132 N   0  0  0  0  0  0  0  0  0  0  0  0
    6.0634   24.1859   17.9666 C   0  0  0  0  0  0  0  0  0  0  0  0
    7.2965   22.5556   14.4954 H   0  0  0  0  0  0  0  0  0  0  0  0
    8.3856   23.8434   14.2445 H   0  0  0  0  0  0  0  0  0  0  0  0
    3.2830   17.1256   24.7907 O   0  0  0  0  0  0  0  0  0  0  0  0
    2.8977   15.8749   24.1078 P   0  0  0  0  0  0  0  0  0  0  0  0
    1.4236   15.9135   23.6953 O   0  0  0  0  0  0  0  0  0  0  0  0
    3.2454   14.7557   25.0366 O   0  0  0  0  0  0  0  0  0  0  0  0
    0.8669   15.9571   24.4885 H   0  0  0  0  0  0  0  0  0  0  0  0
    3.7335   15.8051   22.7738 O   0  0  0  0  0  0  0  0  0  0  0  0
    3.6327   14.5950   21.7158 P   0  0  0  0  0  0  0  0  0  0  0  0
    4.6114   13.5787   22.2634 O   0  0  0  0  0  0  0  0  0  0  0  0
    4.2395   15.1614   20.4498 O   0  0  0  0  0  0  0  0  0  0  0  0
    5.4752   13.9998   22.3948 H   0  0  0  0  0  0  0  0  0  0  0  0
    2.2397   14.1150   21.4508 O   0  0  0  0  0  0  0  0  0  0  0  0
    1.6393   14.5205   20.2660 C   0  0  0  0  0  0  0  0  0  0  0  0
   -2.7736   17.8003   21.6314 N   0  0  0  0  0  0  0  0  0  0  0  0
   -2.6868   19.1151   21.7651 C   0  0  0  0  0  0  0  0  0  0  0  0
   -3.7014   19.8835   22.0804 N   0  0  0  0  0  0  0  0  0  0  0  0
   -1.4211   19.7047   21.5513 N   0  0  0  0  0  0  0  0  0  0  0  0
   -0.2512   19.0492   21.2144 C   0  0  0  0  0  0  0  0  0  0  0  0
    0.8055   19.7628   21.0618 O   0  0  0  0  0  0  0  0  0  0  0  0
    0.7370   16.7833   20.7299 N   0  0  0  0  0  0  0  0  0  0  0  0
    0.5294   15.4259   20.6186 C   0  0  0  0  0  0  0  0  0  0  0  0
   -0.8252   14.7763   20.8460 C   0  0  0  0  0  0  0  0  0  0  0  0
   -1.7786   15.6769   21.1629 N   0  0  0  0  0  0  0  0  0  0  0  0
   -1.7047   17.0258   21.3035 C   0  0  0  0  0  0  0  0  0  0  0  0
   -0.3604   17.6064   21.0703 C   0  0  0  0  0  0  0  0  0  0  0  0
   -4.5899   19.4878   22.2325 H   0  0  0  0  0  0  0  0  0  0  0  0
   -3.5746   20.8561   22.1649 H   0  0  0  0  0  0  0  0  0  0  0  0
   -1.3663   20.6825   21.6527 H   0  0  0  0  0  0  0  0  0  0  0  0
   -2.6726   15.2944   21.3170 H   0  0  0  0  0  0  0  0  0  0  0  0
 21 22  1  0  0  0
 21 12  1  0  0  0
 21 30  1  0  0  0
 22 23  2  0  0  0
 23 24  1  0  0  0
 24 25  1  0  0  0
 24 30  2  0  0  0
 25 26  1  0  0  0
 25 27  2  0  0  0
 27 28  1  0  0  0
 12 14  1  0  0  0
 12 17  1  0  0  0
 28 29  2  0  0  0
 29 30  1  0  0  0
 10 11  1  0  0  0
 10  6  1  0  0  0
 11 13  1  0  0  0
 13 14  1  0  0  0
 13 15  1  0  0  0
 15 16  1  0  0  0
 15 17  1  0  0  0
 17 18  1  0  0  0
  6  7  1  0  0  0
  6  8  2  0  0  0
  6  5  1  0  0  0
  5  1  1  0  0  0
  1  2  1  0  0  0
  1  3  2  0  0  0
  1 33  1  0  0  0
 33 34  1  0  0  0
 34 35  1  0  0  0
 34 36  2  0  0  0
 34 38  1  0  0  0
 38 39  1  0  0  0
 39 40  1  0  0  0
 39 41  2  0  0  0
 39 43  1  0  0  0
 43 44  1  0  0  0
 45 46  2  0  0  0
 45 55  1  0  0  0
 46 47  1  0  0  0
 46 48  1  0  0  0
 48 49  1  0  0  0
 49 50  2  0  0  0
 49 56  1  0  0  0
 51 52  2  0  0  0
 51 56  1  0  0  0
 52 44  1  0  0  0
 52 53  1  0  0  0
 53 54  1  0  0  0
 54 55  1  0  0  0
 55 56  2  0  0  0
 26 31  1  0  0  0
 26 32  1  0  0  0
 16 19  1  0  0  0
 18 20  1  0  0  0
  7  9  1  0  0  0
  2  4  1  0  0  0
 35 37  1  0  0  0
 40 42  1  0  0  0
 47 57  1  0  0  0
 47 58  1  0  0  0
 48 59  1  0  0  0
 54 60  1  0  0  0
M  END
> <minimizedAffinity>
-11.51173

$$$$
1EX8_A4P_A_171


 60 64  0  0  0  0  0  0  0  0999 V2000
    0.7273   20.8805   22.5811 P   0  0  0  0  0  0  0  0  0  0  0  0
    0.9066   20.1875   21.2543 O   0  0  0  0  0  0  0  0  0  0  0  0
    1.0964   20.1472   23.8423 O   0  0  0  0  0  0  0  0  0  0  0  0
    0.3706   19.3792   21.2367 H   0  0  0  0  0  0  0  0  0  0  0  0
   -0.7645   21.5647   22.7099 O   0  0  0  0  0  0  0  0  0  0  0  0
   -2.0262   20.6873   22.8213 P   0  0  0  0  0  0  0  0  0  0  0  0
   -1.8616   19.4439   23.6211 O   0  0  0  0  0  0  0  0  0  0  0  0
   -3.1352   21.5869   23.3205 O   0  0  0  0  0  0  0  0  0  0  0  0
   -2.7002   18.9567   23.6376 H   0  0  0  0  0  0  0  0  0  0  0  0
   -2.2571   20.1519   21.3290 O   0  0  0  0  0  0  0  0  0  0  0  0
   -2.9089   18.8191   21.1068 C   0  0  0  0  0  0  0  0  0  0  0  0
   -0.1495   16.8815   19.8809 C   0  0  0  0  0  0  0  0  0  0  0  0
   -2.0693   18.0953   20.1180 C   0  0  0  0  0  0  0  0  0  0  0  0
   -0.7667   17.8432   20.6921 O   0  0  0  0  0  0  0  0  0  0  0  0
   -2.5214   16.7484   19.7104 C   0  0  0  0  0  0  0  0  0  0  0  0
   -3.5568   16.7866   18.7629 O   0  0  0  0  0  0  0  0  0  0  0  0
   -1.2514   16.0862   19.1946 C   0  0  0  0  0  0  0  0  0  0  0  0
   -1.1430   16.2119   17.7513 O   0  0  0  0  0  0  0  0  0  0  0  0
   -3.2585   17.2715   17.9775 H   0  0  0  0  0  0  0  0  0  0  0  0
   -1.1702   17.1499   17.5055 H   0  0  0  0  0  0  0  0  0  0  0  0
    0.8231   16.1029   20.6981 N   0  0  0  0  0  0  0  0  0  0  0  0
    0.6461   14.6910   20.7908 C   0  0  0  0  0  0  0  0  0  0  0  0
    1.4680   14.0739   21.6003 N   0  0  0  0  0  0  0  0  0  0  0  0
    2.2532   15.1549   22.0833 C   0  0  0  0  0  0  0  0  0  0  0  0
    3.3290   15.0643   23.0174 C   0  0  0  0  0  0  0  0  0  0  0  0
    3.7933   14.0399   23.5917 N   0  0  0  0  0  0  0  0  0  0  0  0
    3.9854   16.3354   23.3584 N   0  0  0  0  0  0  0  0  0  0  0  0
    3.5416   17.4476   22.7862 C   0  0  0  0  0  0  0  0  0  0  0  0
    2.5028   17.6150   21.8702 N   0  0  0  0  0  0  0  0  0  0  0  0
    1.8762   16.3838   21.5479 C   0  0  0  0  0  0  0  0  0  0  0  0
    3.4024   13.1546   23.4109 H   0  0  0  0  0  0  0  0  0  0  0  0
    4.5461   14.1265   24.2202 H   0  0  0  0  0  0  0  0  0  0  0  0
    1.6873   22.2087   22.4477 O   0  0  0  0  0  0  0  0  0  0  0  0
    3.1005   22.1679   22.0232 P   0  0  0  0  0  0  0  0  0  0  0  0
    3.8123   20.9517   22.6222 O   0  0  0  0  0  0  0  0  0  0  0  0
    3.7012   23.4817   22.4093 O   0  0  0  0  0  0  0  0  0  0  0  0
    3.8348   21.0337   23.5885 H   0  0  0  0  0  0  0  0  0  0  0  0
    3.1038   21.9631   20.4608 O   0  0  0  0  0  0  0  0  0  0  0  0
    4.0428   22.7943   19.4503 P   0  0  0  0  0  0  0  0  0  0  0  0
    3.6739   24.2323   19.7443 O   0  0  0  0  0  0  0  0  0  0  0  0
    3.4918   22.4638   18.0796 O   0  0  0  0  0  0  0  0  0  0  0  0
    2.7130   24.3415   19.6692 H   0  0  0  0  0  0  0  0  0  0  0  0
    5.4963   22.4430   19.5208 O   0  0  0  0  0  0  0  0  0  0  0  0
    6.3496   23.3704   20.1042 C   0  0  0  0  0  0  0  0  0  0  0  0
    8.4263   26.8303   16.1277 N   0  0  0  0  0  0  0  0  0  0  0  0
    8.5393   26.4866   14.8537 C   0  0  0  0  0  0  0  0  0  0  0  0
    9.0181   27.2792   13.9254 N   0  0  0  0  0  0  0  0  0  0  0  0
    8.1142   25.1885   14.4938 N   0  0  0  0  0  0  0  0  0  0  0  0
    7.5876   24.2285   15.3382 C   0  0  0  0  0  0  0  0  0  0  0  0
    7.2574   23.1004   14.8208 O   0  0  0  0  0  0  0  0  0  0  0  0
    6.9513   23.7598   17.7301 N   0  0  0  0  0  0  0  0  0  0  0  0
    6.8807   24.2246   19.0251 C   0  0  0  0  0  0  0  0  0  0  0  0
    7.3345   25.6174   19.4284 C   0  0  0  0  0  0  0  0  0  0  0  0
    7.8040   26.3267   18.3810 N   0  0  0  0  0  0  0  0  0  0  0  0
    7.9260   25.9882   17.0713 C   0  0  0  0  0  0  0  0  0  0  0  0
    7.4685   24.6187   16.7339 C   0  0  0  0  0  0  0  0  0  0  0  0
    9.3186   28.1869   14.1601 H   0  0  0  0  0  0  0  0  0  0  0  0
    9.0770   26.9667   12.9937 H   0  0  0  0  0  0  0  0  0  0  0  0
    8.2018   24.9420   13.5447 H   0  0  0  0  0  0  0  0  0  0  0  0
    8.1074   27.2368   18.6019 H   0  0  0  0  0  0  0  0  0  0  0  0
 21 22  1  0  0  0
 21 12  1  0  0  0
 21 30  1  0  0  0
 22 23  2  0  0  0
 23 24  1  0  0  0
 24 25  1  0  0  0
 24 30  2  0  0  0
 25 26  1  0  0  0
 25 27  2  0  0  0
 27 28  1  0  0  0
 12 14  1  0  0  0
 12 17  1  0  0  0
 28 29  2  0  0  0
 29 30  1  0  0  0
 10 11  1  0  0  0
 10  6  1  0  0  0
 11 13  1  0  0  0
 13 14  1  0  0  0
 13 15  1  0  0  0
 15 16  1  0  0  0
 15 17  1  0  0  0
 17 18  1  0  0  0
  6  7  1  0  0  0
  6  8  2  0  0  0
  6  5  1  0  0  0
  5  1  1  0  0  0
  1  2  1  0  0  0
  1  3  2  0  0  0
  1 33  1  0  0  0
 33 34  1  0  0  0
 34 35  1  0  0  0
 34 36  2  0  0  0
 34 38  1  0  0  0
 38 39  1  0  0  0
 39 40  1  0  0  0
 39 41  2  0  0  0
 39 43  1  0  0  0
 43 44  1  0  0  0
 45 46  2  0  0  0
 45 55  1  0  0  0
 46 47  1  0  0  0
 46 48  1  0  0  0
 48 49  1  0  0  0
 49 50  2  0  0  0
 49 56  1  0  0  0
 51 52  2  0  0  0
 51 56  1  0  0  0
 52 44  1  0  0  0
 52 53  1  0  0  0
 53 54  1  0  0  0
 54 55  1  0  0  0
 55 56  2  0  0  0
 26 31  1  0  0  0
 26 32  1  0  0  0
 16 19  1  0  0  0
 18 20  1  0  0  0
  7  9  1  0  0  0
  2  4  1  0  0  0
 35 37  1  0  0  0
 40 42  1  0  0  0
 47 57  1  0  0  0
 47 58  1  0  0  0
 48 59  1  0  0  0
 54 60  1  0  0  0
M  END
> <minimizedAffinity>
-11.42334

$$$$
1EX8_A4P_A_171


 60 64  0  0  0  0  0  0  0  0999 V2000
    2.4262   16.8352   21.4781 P   0  0  0  0  0  0  0  0  0  0  0  0
    1.6388   16.0994   22.5324 O   0  0  0  0  0  0  0  0  0  0  0  0
    1.7923   18.0091   20.7818 O   0  0  0  0  0  0  0  0  0  0  0  0
    0.8256   15.7449   22.1400 H   0  0  0  0  0  0  0  0  0  0  0  0
    3.1014   15.7978   20.3928 O   0  0  0  0  0  0  0  0  0  0  0  0
    2.7635   14.2949   20.4248 P   0  0  0  0  0  0  0  0  0  0  0  0
    3.3239   13.4980   19.3006 O   0  0  0  0  0  0  0  0  0  0  0  0
    3.1738   13.7889   21.7901 O   0  0  0  0  0  0  0  0  0  0  0  0
    3.0629   12.5692   19.4011 H   0  0  0  0  0  0  0  0  0  0  0  0
    1.1821   14.2492   20.1723 O   0  0  0  0  0  0  0  0  0  0  0  0
    0.6105   14.8284   18.9120 C   0  0  0  0  0  0  0  0  0  0  0  0
   -1.8676   16.5892   20.8173 C   0  0  0  0  0  0  0  0  0  0  0  0
   -0.7300   15.3649   19.2609 C   0  0  0  0  0  0  0  0  0  0  0  0
   -0.7277   15.7932   20.6417 O   0  0  0  0  0  0  0  0  0  0  0  0
   -1.1799   16.5725   18.5370 C   0  0  0  0  0  0  0  0  0  0  0  0
   -1.6594   16.2864   17.2488 O   0  0  0  0  0  0  0  0  0  0  0  0
   -2.2348   17.1690   19.4583 C   0  0  0  0  0  0  0  0  0  0  0  0
   -3.5696   16.7459   19.0710 O   0  0  0  0  0  0  0  0  0  0  0  0
   -2.3982   15.6608   17.3104 H   0  0  0  0  0  0  0  0  0  0  0  0
   -3.6148   15.7769   19.0725 H   0  0  0  0  0  0  0  0  0  0  0  0
   -1.6177   17.5675   21.9128 N   0  0  0  0  0  0  0  0  0  0  0  0
   -1.7132   18.9574   21.6089 C   0  0  0  0  0  0  0  0  0  0  0  0
   -1.3864   19.7688   22.5818 N   0  0  0  0  0  0  0  0  0  0  0  0
   -1.0484   18.8516   23.6128 C   0  0  0  0  0  0  0  0  0  0  0  0
   -0.6104   19.1869   24.9295 C   0  0  0  0  0  0  0  0  0  0  0  0
   -0.4366   20.3299   25.4378 N   0  0  0  0  0  0  0  0  0  0  0  0
   -0.3213   18.0482   25.8140 N   0  0  0  0  0  0  0  0  0  0  0  0
   -0.4855   16.8210   25.3362 C   0  0  0  0  0  0  0  0  0  0  0  0
   -0.9074   16.4162   24.0696 N   0  0  0  0  0  0  0  0  0  0  0  0
   -1.1835   17.5213   23.2241 C   0  0  0  0  0  0  0  0  0  0  0  0
   -0.6108   21.1380   24.9032 H   0  0  0  0  0  0  0  0  0  0  0  0
   -0.1269   20.4127   26.3686 H   0  0  0  0  0  0  0  0  0  0  0  0
    3.7513   17.3641   22.2951 O   0  0  0  0  0  0  0  0  0  0  0  0
    3.7021   18.0027   23.6251 P   0  0  0  0  0  0  0  0  0  0  0  0
    5.0217   18.7153   23.9343 O   0  0  0  0  0  0  0  0  0  0  0  0
    3.3412   16.9295   24.6019 O   0  0  0  0  0  0  0  0  0  0  0  0
    5.7370   18.0623   23.9873 H   0  0  0  0  0  0  0  0  0  0  0  0
    2.5953   19.1221   23.5551 O   0  0  0  0  0  0  0  0  0  0  0  0
    2.9118   20.7000   23.6176 P   0  0  0  0  0  0  0  0  0  0  0  0
    3.1947   20.9348   25.0857 O   0  0  0  0  0  0  0  0  0  0  0  0
    1.5821   21.3548   23.3093 O   0  0  0  0  0  0  0  0  0  0  0  0
    2.4564   20.5957   25.6156 H   0  0  0  0  0  0  0  0  0  0  0  0
    3.9531   21.1644   22.6475 O   0  0  0  0  0  0  0  0  0  0  0  0
    3.9008   22.4913   22.2413 C   0  0  0  0  0  0  0  0  0  0  0  0
    5.5381   22.6171   16.8192 N   0  0  0  0  0  0  0  0  0  0  0  0
    6.7275   23.0504   16.4301 C   0  0  0  0  0  0  0  0  0  0  0  0
    7.1168   23.0836   15.1785 N   0  0  0  0  0  0  0  0  0  0  0  0
    7.6136   23.4975   17.4353 N   0  0  0  0  0  0  0  0  0  0  0  0
    7.3690   23.5318   18.7958 C   0  0  0  0  0  0  0  0  0  0  0  0
    8.3048   23.9751   19.5554 O   0  0  0  0  0  0  0  0  0  0  0  0
    5.6461   23.0195   20.5606 N   0  0  0  0  0  0  0  0  0  0  0  0
    4.3840   22.5482   20.8487 C   0  0  0  0  0  0  0  0  0  0  0  0
    3.4191   22.0646   19.7793 C   0  0  0  0  0  0  0  0  0  0  0  0
    3.9430   22.1519   18.5390 N   0  0  0  0  0  0  0  0  0  0  0  0
    5.1590   22.5934   18.1252 C   0  0  0  0  0  0  0  0  0  0  0  0
    6.0598   23.0531   19.2095 C   0  0  0  0  0  0  0  0  0  0  0  0
    6.5110   22.7754   14.4662 H   0  0  0  0  0  0  0  0  0  0  0  0
    8.0148   23.4166   14.9509 H   0  0  0  0  0  0  0  0  0  0  0  0
    8.4954   23.8175   17.1367 H   0  0  0  0  0  0  0  0  0  0  0  0
    3.3475   21.8462   17.8171 H   0  0  0  0  0  0  0  0  0  0  0  0
 21 22  1  0  0  0
 21 12  1  0  0  0
 21 30  1  0  0  0
 22 23  2  0  0  0
 23 24  1  0  0  0
 24 25  1  0  0  0
 24 30  2  0  0  0
 25 26  1  0  0  0
 25 27  2  0  0  0
 27 28  1  0  0  0
 12 14  1  0  0  0
 12 17  1  0  0  0
 28 29  2  0  0  0
 29 30  1  0  0  0
 10 11  1  0  0  0
 10  6  1  0  0  0
 11 13  1  0  0  0
 13 14  1  0  0  0
 13 15  1  0  0  0
 15 16  1  0  0  0
 15 17  1  0  0  0
 17 18  1  0  0  0
  6  7  1  0  0  0
  6  8  2  0  0  0
  6  5  1  0  0  0
  5  1  1  0  0  0
  1  2  1  0  0  0
  1  3  2  0  0  0
  1 33  1  0  0  0
 33 34  1  0  0  0
 34 35  1  0  0  0
 34 36  2  0  0  0
 34 38  1  0  0  0
 38 39  1  0  0  0
 39 40  1  0  0  0
 39 41  2  0  0  0
 39 43  1  0  0  0
 43 44  1  0  0  0
 45 46  2  0  0  0
 45 55  1  0  0  0
 46 47  1  0  0  0
 46 48  1  0  0  0
 48 49  1  0  0  0
 49 50  2  0  0  0
 49 56  1  0  0  0
 51 52  2  0  0  0
 51 56  1  0  0  0
 52 44  1  0  0  0
 52 53  1  0  0  0
 53 54  1  0  0  0
 54 55  1  0  0  0
 55 56  2  0  0  0
 26 31  1  0  0  0
 26 32  1  0  0  0
 16 19  1  0  0  0
 18 20  1  0  0  0
  7  9  1  0  0  0
  2  4  1  0  0  0
 35 37  1  0  0  0
 40 42  1  0  0  0
 47 57  1  0  0  0
 47 58  1  0  0  0
 48 59  1  0  0  0
 54 60  1  0  0  0
M  END
> <minimizedAffinity>
-11.33804

$$$$
1EX8_A4P_A_171


 60 64  0  0  0  0  0  0  0  0999 V2000
    3.2266   16.8805   21.8664 P   0  0  0  0  0  0  0  0  0  0  0  0
    3.8416   17.4605   20.6182 O   0  0  0  0  0  0  0  0  0  0  0  0
    4.1311   16.3603   22.9507 O   0  0  0  0  0  0  0  0  0  0  0  0
    4.3872   16.7866   20.1833 H   0  0  0  0  0  0  0  0  0  0  0  0
    2.0448   15.7915   21.5091 O   0  0  0  0  0  0  0  0  0  0  0  0
    2.2552   14.7339   20.4086 P   0  0  0  0  0  0  0  0  0  0  0  0
    3.0456   15.1929   19.2350 O   0  0  0  0  0  0  0  0  0  0  0  0
    2.8330   13.5122   21.0883 O   0  0  0  0  0  0  0  0  0  0  0  0
    3.1277   14.4672   18.5966 H   0  0  0  0  0  0  0  0  0  0  0  0
    0.7870   14.5012   19.8110 O   0  0  0  0  0  0  0  0  0  0  0  0
   -0.4033   14.5295   20.7235 C   0  0  0  0  0  0  0  0  0  0  0  0
   -2.8794   17.0780   20.2272 C   0  0  0  0  0  0  0  0  0  0  0  0
   -1.4597   15.3013   20.0198 C   0  0  0  0  0  0  0  0  0  0  0  0
   -2.1520   16.1401   20.9722 O   0  0  0  0  0  0  0  0  0  0  0  0
   -1.0156   16.2625   18.9885 C   0  0  0  0  0  0  0  0  0  0  0  0
   -0.6948   15.6425   17.7704 O   0  0  0  0  0  0  0  0  0  0  0  0
   -2.1797   17.2380   18.8846 C   0  0  0  0  0  0  0  0  0  0  0  0
   -3.0749   16.8730   17.8002 O   0  0  0  0  0  0  0  0  0  0  0  0
   -1.4682   15.1589   17.4402 H   0  0  0  0  0  0  0  0  0  0  0  0
   -3.3924   15.9663   17.9343 H   0  0  0  0  0  0  0  0  0  0  0  0
   -3.0563   18.3159   21.0372 N   0  0  0  0  0  0  0  0  0  0  0  0
   -2.5589   19.5432   20.5084 C   0  0  0  0  0  0  0  0  0  0  0  0
   -2.6526   20.5768   21.3050 N   0  0  0  0  0  0  0  0  0  0  0  0
   -3.2588   19.9961   22.4510 C   0  0  0  0  0  0  0  0  0  0  0  0
   -3.6037   20.6756   23.6583 C   0  0  0  0  0  0  0  0  0  0  0  0
   -3.4477   21.8938   23.9520 N   0  0  0  0  0  0  0  0  0  0  0  0
   -4.2236   19.8453   24.7019 N   0  0  0  0  0  0  0  0  0  0  0  0
   -4.4139   18.5559   24.4516 C   0  0  0  0  0  0  0  0  0  0  0  0
   -4.1058   17.8247   23.3042 N   0  0  0  0  0  0  0  0  0  0  0  0
   -3.5083   18.6340   22.3039 C   0  0  0  0  0  0  0  0  0  0  0  0
   -3.0388   22.5088   23.3009 H   0  0  0  0  0  0  0  0  0  0  0  0
   -3.7348   22.2287   24.8322 H   0  0  0  0  0  0  0  0  0  0  0  0
    2.3483   18.1313   22.4725 O   0  0  0  0  0  0  0  0  0  0  0  0
    1.0334   18.5490   21.9474 P   0  0  0  0  0  0  0  0  0  0  0  0
   -0.0558   17.5539   22.3572 O   0  0  0  0  0  0  0  0  0  0  0  0
    1.1939   18.7081   20.4692 O   0  0  0  0  0  0  0  0  0  0  0  0
    0.1235   16.6922   21.9495 H   0  0  0  0  0  0  0  0  0  0  0  0
    0.6751   19.9161   22.6444 O   0  0  0  0  0  0  0  0  0  0  0  0
    1.7198   21.1276   22.8306 P   0  0  0  0  0  0  0  0  0  0  0  0
    2.8166   20.5084   23.6698 O   0  0  0  0  0  0  0  0  0  0  0  0
    0.9858   22.1143   23.7135 O   0  0  0  0  0  0  0  0  0  0  0  0
    2.4297   20.1123   24.4663 H   0  0  0  0  0  0  0  0  0  0  0  0
    2.1389   21.7890   21.5547 O   0  0  0  0  0  0  0  0  0  0  0  0
    3.2083   22.6728   21.6151 C   0  0  0  0  0  0  0  0  0  0  0  0
    5.6506   22.3877   16.5112 N   0  0  0  0  0  0  0  0  0  0  0  0
    6.8866   22.7999   16.2740 C   0  0  0  0  0  0  0  0  0  0  0  0
    7.4616   22.7384   15.0972 N   0  0  0  0  0  0  0  0  0  0  0  0
    7.6110   23.3326   17.3635 N   0  0  0  0  0  0  0  0  0  0  0  0
    7.1628   23.4713   18.6642 C   0  0  0  0  0  0  0  0  0  0  0  0
    7.9736   23.9813   19.5196 O   0  0  0  0  0  0  0  0  0  0  0  0
    5.1902   23.0833   20.1821 N   0  0  0  0  0  0  0  0  0  0  0  0
    3.8976   22.6247   20.3118 C   0  0  0  0  0  0  0  0  0  0  0  0
    3.1049   22.0499   19.1500 C   0  0  0  0  0  0  0  0  0  0  0  0
    3.8114   22.0445   18.0005 N   0  0  0  0  0  0  0  0  0  0  0  0
    5.0775   22.4631   17.7424 C   0  0  0  0  0  0  0  0  0  0  0  0
    5.8045   23.0146   18.9111 C   0  0  0  0  0  0  0  0  0  0  0  0
    6.9700   22.3699   14.3279 H   0  0  0  0  0  0  0  0  0  0  0  0
    8.3847   23.0607   14.9830 H   0  0  0  0  0  0  0  0  0  0  0  0
    8.5289   23.6361   17.1778 H   0  0  0  0  0  0  0  0  0  0  0  0
    3.3316   21.6777   17.2230 H   0  0  0  0  0  0  0  0  0  0  0  0
 21 22  1  0  0  0
 21 12  1  0  0  0
 21 30  1  0  0  0
 22 23  2  0  0  0
 23 24  1  0  0  0
 24 25  1  0  0  0
 24 30  2  0  0  0
 25 26  1  0  0  0
 25 27  2  0  0  0
 27 28  1  0  0  0
 12 14  1  0  0  0
 12 17  1  0  0  0
 28 29  2  0  0  0
 29 30  1  0  0  0
 10 11  1  0  0  0
 10  6  1  0  0  0
 11 13  1  0  0  0
 13 14  1  0  0  0
 13 15  1  0  0  0
 15 16  1  0  0  0
 15 17  1  0  0  0
 17 18  1  0  0  0
  6  7  1  0  0  0
  6  8  2  0  0  0
  6  5  1  0  0  0
  5  1  1  0  0  0
  1  2  1  0  0  0
  1  3  2  0  0  0
  1 33  1  0  0  0
 33 34  1  0  0  0
 34 35  1  0  0  0
 34 36  2  0  0  0
 34 38  1  0  0  0
 38 39  1  0  0  0
 39 40  1  0  0  0
 39 41  2  0  0  0
 39 43  1  0  0  0
 43 44  1  0  0  0
 45 46  2  0  0  0
 45 55  1  0  0  0
 46 47  1  0  0  0
 46 48  1  0  0  0
 48 49  1  0  0  0
 49 50  2  0  0  0
 49 56  1  0  0  0
 51 52  2  0  0  0
 51 56  1  0  0  0
 52 44  1  0  0  0
 52 53  1  0  0  0
 53 54  1  0  0  0
 54 55  1  0  0  0
 55 56  2  0  0  0
 26 31  1  0  0  0
 26 32  1  0  0  0
 16 19  1  0  0  0
 18 20  1  0  0  0
  7  9  1  0  0  0
  2  4  1  0  0  0
 35 37  1  0  0  0
 40 42  1  0  0  0
 47 57  1  0  0  0
 47 58  1  0  0  0
 48 59  1  0  0  0
 54 60  1  0  0  0
M  END
> <minimizedAffinity>
-11.27830

$$$$
