3D0B_SNX_A_233


 31 34  0  0  0  0  0  0  0  0999 V2000
   -0.5370  -12.0100  -23.7915 C   0  0  0  0  0  0  0  0  0  0  0  0
    0.1087  -13.0780  -23.1748 C   0  0  0  0  0  0  0  0  0  0  0  0
    1.4978  -13.2024  -23.2778 C   0  0  0  0  0  0  0  0  0  0  0  0
    0.2541  -11.0369  -24.5834 C   0  0  0  0  0  0  0  0  0  0  0  0
    1.6375  -11.2387  -24.6383 C   0  0  0  0  0  0  0  0  0  0  0  0
    2.2993  -12.2937  -23.9952 C   0  0  0  0  0  0  0  0  0  0  0  0
    3.6237  -12.4266  -24.1712 N   0  0  0  0  0  0  0  0  0  0  0  0
    4.2625  -13.5440  -24.5912 C   0  0  0  0  0  0  0  0  0  0  0  0
    3.8679  -14.7900  -25.0742 C   0  0  0  0  0  0  0  0  0  0  0  0
    4.8769  -15.6875  -25.4647 C   0  0  0  0  0  0  0  0  0  0  0  0
    6.2394  -15.3760  -25.3898 C   0  0  0  0  0  0  0  0  0  0  0  0
    6.6986  -14.1454  -24.9197 C   0  0  0  0  0  0  0  0  0  0  0  0
    4.4063  -11.4109  -23.7435 C   0  0  0  0  0  0  0  0  0  0  0  0
    4.0912  -10.0362  -23.1979 C   0  0  0  0  0  0  0  0  0  0  0  0
    5.3672   -9.3682  -22.6594 C   0  0  0  0  0  0  0  0  0  0  0  0
    6.6563   -9.5815  -23.4518 C   0  0  0  0  0  0  0  0  0  0  0  0
    6.9694  -11.0413  -23.6844 C   0  0  0  0  0  0  0  0  0  0  0  0
    8.0995  -11.4881  -23.6177 O   0  0  0  0  0  0  0  0  0  0  0  0
    5.7735  -11.8692  -23.9743 C   0  0  0  0  0  0  0  0  0  0  0  0
    5.7246  -13.2352  -24.5201 C   0  0  0  0  0  0  0  0  0  0  0  0
   -2.6075  -11.4654  -24.7157 O   0  0  0  0  0  0  0  0  0  0  0  0
   -2.0299  -11.8922  -23.7236 C   0  0  0  0  0  0  0  0  0  0  0  0
   -2.6887  -12.3428  -22.6550 N   0  0  0  0  0  0  0  0  0  0  0  0
   -3.6691  -12.2646  -22.6122 H   0  0  0  0  0  0  0  0  0  0  0  0
   -2.1945  -12.7535  -21.9092 H   0  0  0  0  0  0  0  0  0  0  0  0
   -0.3490   -9.9829  -25.2182 N   0  0  0  0  0  0  0  0  0  0  0  0
   -0.9140   -9.3707  -24.6936 H   0  0  0  0  0  0  0  0  0  0  0  0
   -0.1800   -9.7386  -26.6505 C   0  0  0  0  0  0  0  0  0  0  0  0
    0.1133   -8.2731  -26.9716 C   0  0  0  0  0  0  0  0  0  0  0  0
   -0.1290   -7.4866  -25.8019 O   0  0  0  0  0  0  0  0  0  0  0  0
   -0.1321   -6.0803  -26.0333 C   0  0  0  0  0  0  0  0  0  0  0  0
 21 22  2  0  0  0
 22 23  1  0  0  0
 22  1  1  0  0  0
  1  2  2  0  0  0
  1  4  1  0  0  0
  2  3  1  0  0  0
  3  6  2  0  0  0
  4 26  1  0  0  0
  4  5  2  0  0  0
 26 28  1  0  0  0
 28 29  1  0  0  0
 29 30  1  0  0  0
 30 31  1  0  0  0
  5  6  1  0  0  0
  6  7  1  0  0  0
  7  8  1  0  0  0
  7 13  1  0  0  0
  8  9  2  0  0  0
  8 20  1  0  0  0
  9 10  1  0  0  0
 10 11  2  0  0  0
 11 12  1  0  0  0
 12 20  2  0  0  0
 13 14  1  0  0  0
 13 19  2  0  0  0
 14 15  1  0  0  0
 15 16  1  0  0  0
 16 17  1  0  0  0
 17 18  2  0  0  0
 17 19  1  0  0  0
 19 20  1  0  0  0
 23 24  1  0  0  0
 23 25  1  0  0  0
 26 27  1  0  0  0
M  END
> <minimizedAffinity>
-11.66105

$$$$
3D0B_SNX_A_233


 31 34  0  0  0  0  0  0  0  0999 V2000
   -0.4226  -11.9394  -23.7659 C   0  0  0  0  0  0  0  0  0  0  0  0
    0.2131  -12.9372  -23.0322 C   0  0  0  0  0  0  0  0  0  0  0  0
    1.6082  -13.0312  -23.0516 C   0  0  0  0  0  0  0  0  0  0  0  0
    0.3878  -11.0106  -24.5908 C   0  0  0  0  0  0  0  0  0  0  0  0
    1.7764  -11.1781  -24.5564 C   0  0  0  0  0  0  0  0  0  0  0  0
    2.4264  -12.1603  -23.7966 C   0  0  0  0  0  0  0  0  0  0  0  0
    3.7612  -12.2702  -23.8914 N   0  0  0  0  0  0  0  0  0  0  0  0
    4.6628  -11.3084  -23.5835 C   0  0  0  0  0  0  0  0  0  0  0  0
    4.6046  -10.0444  -22.9999 C   0  0  0  0  0  0  0  0  0  0  0  0
    5.8171   -9.3611  -22.8018 C   0  0  0  0  0  0  0  0  0  0  0  0
    7.0582   -9.8994  -23.1608 C   0  0  0  0  0  0  0  0  0  0  0  0
    7.1840  -11.1602  -23.7445 C   0  0  0  0  0  0  0  0  0  0  0  0
    4.2459  -13.3786  -24.4944 C   0  0  0  0  0  0  0  0  0  0  0  0
    3.5846  -14.6420  -24.9976 C   0  0  0  0  0  0  0  0  0  0  0  0
    4.5864  -15.4876  -25.8012 C   0  0  0  0  0  0  0  0  0  0  0  0
    6.0228  -15.5498  -25.2835 C   0  0  0  0  0  0  0  0  0  0  0  0
    6.6363  -14.1834  -25.0843 C   0  0  0  0  0  0  0  0  0  0  0  0
    7.7935  -13.9365  -25.3693 O   0  0  0  0  0  0  0  0  0  0  0  0
    5.6920  -13.1796  -24.5364 C   0  0  0  0  0  0  0  0  0  0  0  0
    6.0012  -11.8615  -23.9590 C   0  0  0  0  0  0  0  0  0  0  0  0
   -2.4495  -11.4843  -24.8253 O   0  0  0  0  0  0  0  0  0  0  0  0
   -1.9193  -11.8578  -23.7864 C   0  0  0  0  0  0  0  0  0  0  0  0
   -2.6270  -12.2840  -22.7393 N   0  0  0  0  0  0  0  0  0  0  0  0
   -3.6099  -12.2296  -22.7545 H   0  0  0  0  0  0  0  0  0  0  0  0
   -2.1665  -12.6530  -21.9512 H   0  0  0  0  0  0  0  0  0  0  0  0
   -0.2040  -10.0272  -25.3392 N   0  0  0  0  0  0  0  0  0  0  0  0
   -1.1347  -10.1493  -25.6362 H   0  0  0  0  0  0  0  0  0  0  0  0
    0.5030   -8.8016  -25.7107 C   0  0  0  0  0  0  0  0  0  0  0  0
    0.2644   -7.6575  -24.7255 C   0  0  0  0  0  0  0  0  0  0  0  0
   -0.4499   -6.6140  -25.3936 O   0  0  0  0  0  0  0  0  0  0  0  0
   -0.2128   -6.5492  -26.7974 C   0  0  0  0  0  0  0  0  0  0  0  0
 21 22  2  0  0  0
 22 23  1  0  0  0
 22  1  1  0  0  0
  1  2  2  0  0  0
  1  4  1  0  0  0
  2  3  1  0  0  0
  3  6  2  0  0  0
  4 26  1  0  0  0
  4  5  2  0  0  0
 26 28  1  0  0  0
 28 29  1  0  0  0
 29 30  1  0  0  0
 30 31  1  0  0  0
  5  6  1  0  0  0
  6  7  1  0  0  0
  7  8  1  0  0  0
  7 13  1  0  0  0
  8  9  2  0  0  0
  8 20  1  0  0  0
  9 10  1  0  0  0
 10 11  2  0  0  0
 11 12  1  0  0  0
 12 20  2  0  0  0
 13 14  1  0  0  0
 13 19  2  0  0  0
 14 15  1  0  0  0
 15 16  1  0  0  0
 16 17  1  0  0  0
 17 18  2  0  0  0
 17 19  1  0  0  0
 19 20  1  0  0  0
 23 24  1  0  0  0
 23 25  1  0  0  0
 26 27  1  0  0  0
M  END
> <minimizedAffinity>
-11.45382

$$$$
3D0B_SNX_A_233


 31 34  0  0  0  0  0  0  0  0999 V2000
    6.0248  -10.3792  -23.2998 C   0  0  0  0  0  0  0  0  0  0  0  0
    5.1500   -9.3233  -23.0599 C   0  0  0  0  0  0  0  0  0  0  0  0
    3.8384   -9.3853  -23.5411 C   0  0  0  0  0  0  0  0  0  0  0  0
    5.5647  -11.5421  -24.0972 C   0  0  0  0  0  0  0  0  0  0  0  0
    4.2391  -11.5208  -24.5441 C   0  0  0  0  0  0  0  0  0  0  0  0
    3.3426  -10.4760  -24.2811 C   0  0  0  0  0  0  0  0  0  0  0  0
    2.1125  -10.5320  -24.8163 N   0  0  0  0  0  0  0  0  0  0  0  0
    1.6502   -9.7634  -25.8304 C   0  0  0  0  0  0  0  0  0  0  0  0
    2.2083   -8.8312  -26.7027 C   0  0  0  0  0  0  0  0  0  0  0  0
    1.3710   -8.2737  -27.6846 C   0  0  0  0  0  0  0  0  0  0  0  0
    0.0212   -8.6200  -27.8157 C   0  0  0  0  0  0  0  0  0  0  0  0
   -0.5955   -9.5489  -26.9772 C   0  0  0  0  0  0  0  0  0  0  0  0
    1.2033  -11.3110  -24.1889 C   0  0  0  0  0  0  0  0  0  0  0  0
    1.3097  -12.2786  -23.0317 C   0  0  0  0  0  0  0  0  0  0  0  0
   -0.0889  -12.7340  -22.5837 C   0  0  0  0  0  0  0  0  0  0  0  0
   -1.1260  -12.9863  -23.6774 C   0  0  0  0  0  0  0  0  0  0  0  0
   -1.3057  -11.8047  -24.6020 C   0  0  0  0  0  0  0  0  0  0  0  0
   -2.3953  -11.4588  -25.0195 O   0  0  0  0  0  0  0  0  0  0  0  0
   -0.0400  -11.1029  -24.9260 C   0  0  0  0  0  0  0  0  0  0  0  0
    0.2051  -10.1163  -25.9904 C   0  0  0  0  0  0  0  0  0  0  0  0
    8.3154  -10.7097  -23.5853 O   0  0  0  0  0  0  0  0  0  0  0  0
    7.4449  -10.3026  -22.8260 C   0  0  0  0  0  0  0  0  0  0  0  0
    7.7322   -9.7109  -21.6657 N   0  0  0  0  0  0  0  0  0  0  0  0
    8.6655   -9.6616  -21.3561 H   0  0  0  0  0  0  0  0  0  0  0  0
    7.0110   -9.3235  -21.1189 H   0  0  0  0  0  0  0  0  0  0  0  0
    6.4026  -12.5920  -24.3678 N   0  0  0  0  0  0  0  0  0  0  0  0
    7.3743  -12.4616  -24.2780 H   0  0  0  0  0  0  0  0  0  0  0  0
    5.8993  -13.9003  -24.7859 C   0  0  0  0  0  0  0  0  0  0  0  0
    6.7295  -14.5244  -25.9074 C   0  0  0  0  0  0  0  0  0  0  0  0
    5.9949  -15.6121  -26.4754 O   0  0  0  0  0  0  0  0  0  0  0  0
    4.7419  -15.8641  -25.8447 C   0  0  0  0  0  0  0  0  0  0  0  0
 21 22  2  0  0  0
 22 23  1  0  0  0
 22  1  1  0  0  0
  1  2  2  0  0  0
  1  4  1  0  0  0
  2  3  1  0  0  0
  3  6  2  0  0  0
  4 26  1  0  0  0
  4  5  2  0  0  0
 26 28  1  0  0  0
 28 29  1  0  0  0
 29 30  1  0  0  0
 30 31  1  0  0  0
  5  6  1  0  0  0
  6  7  1  0  0  0
  7  8  1  0  0  0
  7 13  1  0  0  0
  8  9  2  0  0  0
  8 20  1  0  0  0
  9 10  1  0  0  0
 10 11  2  0  0  0
 11 12  1  0  0  0
 12 20  2  0  0  0
 13 14  1  0  0  0
 13 19  2  0  0  0
 14 15  1  0  0  0
 15 16  1  0  0  0
 16 17  1  0  0  0
 17 18  2  0  0  0
 17 19  1  0  0  0
 19 20  1  0  0  0
 23 24  1  0  0  0
 23 25  1  0  0  0
 26 27  1  0  0  0
M  END
> <minimizedAffinity>
-9.81767

$$$$
3D0B_SNX_A_233


 31 34  0  0  0  0  0  0  0  0999 V2000
    0.3982  -11.4219  -24.5725 C   0  0  0  0  0  0  0  0  0  0  0  0
    0.9205  -12.3147  -23.6408 C   0  0  0  0  0  0  0  0  0  0  0  0
    2.3021  -12.3700  -23.4310 C   0  0  0  0  0  0  0  0  0  0  0  0
    1.3188  -10.5660  -25.3597 C   0  0  0  0  0  0  0  0  0  0  0  0
    2.6861  -10.6886  -25.0900 C   0  0  0  0  0  0  0  0  0  0  0  0
    3.2183  -11.5627  -24.1322 C   0  0  0  0  0  0  0  0  0  0  0  0
    4.5523  -11.6439  -24.0042 N   0  0  0  0  0  0  0  0  0  0  0  0
    5.3878  -10.6189  -23.7140 C   0  0  0  0  0  0  0  0  0  0  0  0
    5.2301   -9.2838  -23.3477 C   0  0  0  0  0  0  0  0  0  0  0  0
    6.3917   -8.5408  -23.0744 C   0  0  0  0  0  0  0  0  0  0  0  0
    7.6777   -9.0880  -23.1527 C   0  0  0  0  0  0  0  0  0  0  0  0
    7.9021  -10.4179  -23.5092 C   0  0  0  0  0  0  0  0  0  0  0  0
    5.1333  -12.8148  -24.3482 C   0  0  0  0  0  0  0  0  0  0  0  0
    4.5679  -14.1597  -24.7459 C   0  0  0  0  0  0  0  0  0  0  0  0
    5.6888  -15.0851  -25.2474 C   0  0  0  0  0  0  0  0  0  0  0  0
    7.0276  -15.0236  -24.5133 C   0  0  0  0  0  0  0  0  0  0  0  0
    7.5924  -13.6242  -24.4355 C   0  0  0  0  0  0  0  0  0  0  0  0
    8.7779  -13.3871  -24.5751 O   0  0  0  0  0  0  0  0  0  0  0  0
    6.5668  -12.5793  -24.1992 C   0  0  0  0  0  0  0  0  0  0  0  0
    6.7725  -11.1801  -23.7912 C   0  0  0  0  0  0  0  0  0  0  0  0
   -1.4614  -11.7460  -25.9416 O   0  0  0  0  0  0  0  0  0  0  0  0
   -1.0771  -11.3861  -24.8357 C   0  0  0  0  0  0  0  0  0  0  0  0
   -1.9247  -11.0752  -23.8540 N   0  0  0  0  0  0  0  0  0  0  0  0
   -2.8933  -11.0522  -24.0287 H   0  0  0  0  0  0  0  0  0  0  0  0
   -1.5817  -10.8687  -22.9545 H   0  0  0  0  0  0  0  0  0  0  0  0
    0.8422   -9.6877  -26.2972 N   0  0  0  0  0  0  0  0  0  0  0  0
   -0.0659   -9.8182  -26.6545 H   0  0  0  0  0  0  0  0  0  0  0  0
    1.6398   -8.5623  -26.7842 C   0  0  0  0  0  0  0  0  0  0  0  0
    0.8036   -7.3076  -27.0357 C   0  0  0  0  0  0  0  0  0  0  0  0
    1.5233   -6.4420  -27.9178 O   0  0  0  0  0  0  0  0  0  0  0  0
    2.5193   -5.6500  -27.2760 C   0  0  0  0  0  0  0  0  0  0  0  0
 21 22  2  0  0  0
 22 23  1  0  0  0
 22  1  1  0  0  0
  1  2  2  0  0  0
  1  4  1  0  0  0
  2  3  1  0  0  0
  3  6  2  0  0  0
  4 26  1  0  0  0
  4  5  2  0  0  0
 26 28  1  0  0  0
 28 29  1  0  0  0
 29 30  1  0  0  0
 30 31  1  0  0  0
  5  6  1  0  0  0
  6  7  1  0  0  0
  7  8  1  0  0  0
  7 13  1  0  0  0
  8  9  2  0  0  0
  8 20  1  0  0  0
  9 10  1  0  0  0
 10 11  2  0  0  0
 11 12  1  0  0  0
 12 20  2  0  0  0
 13 14  1  0  0  0
 13 19  2  0  0  0
 14 15  1  0  0  0
 15 16  1  0  0  0
 16 17  1  0  0  0
 17 18  2  0  0  0
 17 19  1  0  0  0
 19 20  1  0  0  0
 23 24  1  0  0  0
 23 25  1  0  0  0
 26 27  1  0  0  0
M  END
> <minimizedAffinity>
-9.77881

$$$$
3D0B_SNX_A_233


 31 34  0  0  0  0  0  0  0  0999 V2000
    0.0988  -11.2580  -24.9387 C   0  0  0  0  0  0  0  0  0  0  0  0
    1.0548  -10.4343  -25.5266 C   0  0  0  0  0  0  0  0  0  0  0  0
    2.4114  -10.6462  -25.2612 C   0  0  0  0  0  0  0  0  0  0  0  0
    0.5302  -12.3279  -24.0065 C   0  0  0  0  0  0  0  0  0  0  0  0
    1.9059  -12.4675  -23.7935 C   0  0  0  0  0  0  0  0  0  0  0  0
    2.8769  -11.6625  -24.4049 C   0  0  0  0  0  0  0  0  0  0  0  0
    4.1658  -11.8444  -24.0755 N   0  0  0  0  0  0  0  0  0  0  0  0
    4.9447  -10.9697  -23.3966 C   0  0  0  0  0  0  0  0  0  0  0  0
    4.7356   -9.7606  -22.7364 C   0  0  0  0  0  0  0  0  0  0  0  0
    5.8360   -9.1720  -22.0893 C   0  0  0  0  0  0  0  0  0  0  0  0
    7.1104   -9.7509  -22.0826 C   0  0  0  0  0  0  0  0  0  0  0  0
    7.3834  -10.9609  -22.7209 C   0  0  0  0  0  0  0  0  0  0  0  0
    4.7887  -12.9229  -24.6006 C   0  0  0  0  0  0  0  0  0  0  0  0
    4.2919  -14.0950  -25.4168 C   0  0  0  0  0  0  0  0  0  0  0  0
    5.4763  -14.9259  -25.9373 C   0  0  0  0  0  0  0  0  0  0  0  0
    6.6626  -15.1202  -24.9938 C   0  0  0  0  0  0  0  0  0  0  0  0
    7.2165  -13.8162  -24.4685 C   0  0  0  0  0  0  0  0  0  0  0  0
    8.4099  -13.6158  -24.3386 O   0  0  0  0  0  0  0  0  0  0  0  0
    6.1744  -12.8090  -24.1539 C   0  0  0  0  0  0  0  0  0  0  0  0
    6.3159  -11.5677  -23.3757 C   0  0  0  0  0  0  0  0  0  0  0  0
   -1.7744  -11.1653  -26.3245 O   0  0  0  0  0  0  0  0  0  0  0  0
   -1.3596  -11.0113  -25.1824 C   0  0  0  0  0  0  0  0  0  0  0  0
   -2.1727  -10.7422  -24.1600 N   0  0  0  0  0  0  0  0  0  0  0  0
   -3.1302  -10.5805  -24.3219 H   0  0  0  0  0  0  0  0  0  0  0  0
   -1.8153  -10.7053  -23.2433 H   0  0  0  0  0  0  0  0  0  0  0  0
   -0.3831  -13.1469  -23.3963 N   0  0  0  0  0  0  0  0  0  0  0  0
   -0.9286  -13.7497  -23.9516 H   0  0  0  0  0  0  0  0  0  0  0  0
   -0.5734  -13.1542  -21.9459 C   0  0  0  0  0  0  0  0  0  0  0  0
   -2.0465  -13.1021  -21.5408 C   0  0  0  0  0  0  0  0  0  0  0  0
   -2.8532  -13.2327  -22.7145 O   0  0  0  0  0  0  0  0  0  0  0  0
   -3.6674  -14.4021  -22.7372 C   0  0  0  0  0  0  0  0  0  0  0  0
 21 22  2  0  0  0
 22 23  1  0  0  0
 22  1  1  0  0  0
  1  2  2  0  0  0
  1  4  1  0  0  0
  2  3  1  0  0  0
  3  6  2  0  0  0
  4 26  1  0  0  0
  4  5  2  0  0  0
 26 28  1  0  0  0
 28 29  1  0  0  0
 29 30  1  0  0  0
 30 31  1  0  0  0
  5  6  1  0  0  0
  6  7  1  0  0  0
  7  8  1  0  0  0
  7 13  1  0  0  0
  8  9  2  0  0  0
  8 20  1  0  0  0
  9 10  1  0  0  0
 10 11  2  0  0  0
 11 12  1  0  0  0
 12 20  2  0  0  0
 13 14  1  0  0  0
 13 19  2  0  0  0
 14 15  1  0  0  0
 15 16  1  0  0  0
 16 17  1  0  0  0
 17 18  2  0  0  0
 17 19  1  0  0  0
 19 20  1  0  0  0
 23 24  1  0  0  0
 23 25  1  0  0  0
 26 27  1  0  0  0
M  END
> <minimizedAffinity>
-9.75539

$$$$
3D0B_SNX_A_233


 31 34  0  0  0  0  0  0  0  0999 V2000
    4.0875   -7.5352  -22.0435 C   0  0  0  0  0  0  0  0  0  0  0  0
    4.6837   -8.5736  -21.3335 C   0  0  0  0  0  0  0  0  0  0  0  0
    4.7168   -9.8599  -21.8813 C   0  0  0  0  0  0  0  0  0  0  0  0
    3.4600   -7.8151  -23.3580 C   0  0  0  0  0  0  0  0  0  0  0  0
    3.5342   -9.1302  -23.8296 C   0  0  0  0  0  0  0  0  0  0  0  0
    4.1592  -10.1751  -23.1354 C   0  0  0  0  0  0  0  0  0  0  0  0
    4.1125  -11.4126  -23.6543 N   0  0  0  0  0  0  0  0  0  0  0  0
    3.0204  -12.2106  -23.7121 C   0  0  0  0  0  0  0  0  0  0  0  0
    1.6648  -12.0589  -23.4277 C   0  0  0  0  0  0  0  0  0  0  0  0
    0.8190  -13.1530  -23.6801 C   0  0  0  0  0  0  0  0  0  0  0  0
    1.2836  -14.3661  -24.2015 C   0  0  0  0  0  0  0  0  0  0  0  0
    2.6271  -14.5795  -24.5108 C   0  0  0  0  0  0  0  0  0  0  0  0
    5.2890  -11.9762  -24.0082 C   0  0  0  0  0  0  0  0  0  0  0  0
    6.7027  -11.4426  -24.0666 C   0  0  0  0  0  0  0  0  0  0  0  0
    7.6962  -12.5855  -24.3334 C   0  0  0  0  0  0  0  0  0  0  0  0
    7.2649  -13.6716  -25.3181 C   0  0  0  0  0  0  0  0  0  0  0  0
    5.9365  -14.2966  -24.9603 C   0  0  0  0  0  0  0  0  0  0  0  0
    5.7214  -15.4891  -25.0733 O   0  0  0  0  0  0  0  0  0  0  0  0
    4.9416  -13.3270  -24.4410 C   0  0  0  0  0  0  0  0  0  0  0  0
    3.4923  -13.5170  -24.2679 C   0  0  0  0  0  0  0  0  0  0  0  0
    4.5741   -5.2547  -22.0417 O   0  0  0  0  0  0  0  0  0  0  0  0
    4.0083   -6.1629  -21.4457 C   0  0  0  0  0  0  0  0  0  0  0  0
    3.2551   -5.9455  -20.3666 N   0  0  0  0  0  0  0  0  0  0  0  0
    3.2043   -5.0435  -19.9754 H   0  0  0  0  0  0  0  0  0  0  0  0
    2.7500   -6.6870  -19.9614 H   0  0  0  0  0  0  0  0  0  0  0  0
    2.8492   -6.8219  -24.0776 N   0  0  0  0  0  0  0  0  0  0  0  0
    3.3862   -6.2929  -24.7108 H   0  0  0  0  0  0  0  0  0  0  0  0
    1.4244   -6.5225  -23.9348 C   0  0  0  0  0  0  0  0  0  0  0  0
    0.5503   -7.3255  -24.8979 C   0  0  0  0  0  0  0  0  0  0  0  0
   -0.5257   -6.4965  -25.3456 O   0  0  0  0  0  0  0  0  0  0  0  0
   -0.1458   -5.5121  -26.3037 C   0  0  0  0  0  0  0  0  0  0  0  0
 21 22  2  0  0  0
 22 23  1  0  0  0
 22  1  1  0  0  0
  1  2  2  0  0  0
  1  4  1  0  0  0
  2  3  1  0  0  0
  3  6  2  0  0  0
  4 26  1  0  0  0
  4  5  2  0  0  0
 26 28  1  0  0  0
 28 29  1  0  0  0
 29 30  1  0  0  0
 30 31  1  0  0  0
  5  6  1  0  0  0
  6  7  1  0  0  0
  7  8  1  0  0  0
  7 13  1  0  0  0
  8  9  2  0  0  0
  8 20  1  0  0  0
  9 10  1  0  0  0
 10 11  2  0  0  0
 11 12  1  0  0  0
 12 20  2  0  0  0
 13 14  1  0  0  0
 13 19  2  0  0  0
 14 15  1  0  0  0
 15 16  1  0  0  0
 16 17  1  0  0  0
 17 18  2  0  0  0
 17 19  1  0  0  0
 19 20  1  0  0  0
 23 24  1  0  0  0
 23 25  1  0  0  0
 26 27  1  0  0  0
M  END
> <minimizedAffinity>
-9.56049

$$$$
3D0B_SNX_A_233


 31 34  0  0  0  0  0  0  0  0999 V2000
    5.9880  -10.4104  -23.3197 C   0  0  0  0  0  0  0  0  0  0  0  0
    5.1593   -9.3165  -23.0859 C   0  0  0  0  0  0  0  0  0  0  0  0
    3.8222   -9.3589  -23.4933 C   0  0  0  0  0  0  0  0  0  0  0  0
    5.4508  -11.5943  -24.0336 C   0  0  0  0  0  0  0  0  0  0  0  0
    4.1040  -11.5514  -24.4101 C   0  0  0  0  0  0  0  0  0  0  0  0
    3.2547  -10.4668  -24.1516 C   0  0  0  0  0  0  0  0  0  0  0  0
    1.9961  -10.5083  -24.6175 N   0  0  0  0  0  0  0  0  0  0  0  0
    1.0098  -11.3228  -24.1741 C   0  0  0  0  0  0  0  0  0  0  0  0
    0.8658  -12.2241  -23.1213 C   0  0  0  0  0  0  0  0  0  0  0  0
   -0.3811  -12.8550  -22.9686 C   0  0  0  0  0  0  0  0  0  0  0  0
   -1.4642  -12.6098  -23.8206 C   0  0  0  0  0  0  0  0  0  0  0  0
   -1.3855  -11.7165  -24.8893 C   0  0  0  0  0  0  0  0  0  0  0  0
    1.7278   -9.7888  -25.7299 C   0  0  0  0  0  0  0  0  0  0  0  0
    2.5447   -8.7997  -26.5306 C   0  0  0  0  0  0  0  0  0  0  0  0
    1.8202   -8.4411  -27.8386 C   0  0  0  0  0  0  0  0  0  0  0  0
    0.3019   -8.2805  -27.7759 C   0  0  0  0  0  0  0  0  0  0  0  0
   -0.3934   -9.4850  -27.1852 C   0  0  0  0  0  0  0  0  0  0  0  0
   -1.4445   -9.9153  -27.6227 O   0  0  0  0  0  0  0  0  0  0  0  0
    0.3364  -10.0973  -26.0485 C   0  0  0  0  0  0  0  0  0  0  0  0
   -0.1623  -11.0784  -25.0712 C   0  0  0  0  0  0  0  0  0  0  0  0
    8.2474  -10.8419  -23.7025 O   0  0  0  0  0  0  0  0  0  0  0  0
    7.4335  -10.3574  -22.9261 C   0  0  0  0  0  0  0  0  0  0  0  0
    7.8029   -9.7070  -21.8218 N   0  0  0  0  0  0  0  0  0  0  0  0
    8.7526   -9.6732  -21.5649 H   0  0  0  0  0  0  0  0  0  0  0  0
    7.1257   -9.2606  -21.2637 H   0  0  0  0  0  0  0  0  0  0  0  0
    6.2411  -12.6823  -24.2964 N   0  0  0  0  0  0  0  0  0  0  0  0
    7.2084  -12.6218  -24.1231 H   0  0  0  0  0  0  0  0  0  0  0  0
    5.6934  -13.9310  -24.8261 C   0  0  0  0  0  0  0  0  0  0  0  0
    6.7764  -14.9466  -25.1898 C   0  0  0  0  0  0  0  0  0  0  0  0
    7.8386  -14.8503  -24.2369 O   0  0  0  0  0  0  0  0  0  0  0  0
    9.1420  -14.8399  -24.8132 C   0  0  0  0  0  0  0  0  0  0  0  0
 21 22  2  0  0  0
 22 23  1  0  0  0
 22  1  1  0  0  0
  1  2  2  0  0  0
  1  4  1  0  0  0
  2  3  1  0  0  0
  3  6  2  0  0  0
  4 26  1  0  0  0
  4  5  2  0  0  0
 26 28  1  0  0  0
 28 29  1  0  0  0
 29 30  1  0  0  0
 30 31  1  0  0  0
  5  6  1  0  0  0
  6  7  1  0  0  0
  7  8  1  0  0  0
  7 13  1  0  0  0
  8  9  2  0  0  0
  8 20  1  0  0  0
  9 10  1  0  0  0
 10 11  2  0  0  0
 11 12  1  0  0  0
 12 20  2  0  0  0
 13 14  1  0  0  0
 13 19  2  0  0  0
 14 15  1  0  0  0
 15 16  1  0  0  0
 16 17  1  0  0  0
 17 18  2  0  0  0
 17 19  1  0  0  0
 19 20  1  0  0  0
 23 24  1  0  0  0
 23 25  1  0  0  0
 26 27  1  0  0  0
M  END
> <minimizedAffinity>
-9.51136

$$$$
3D0B_SNX_A_233


 31 34  0  0  0  0  0  0  0  0999 V2000
    3.9685   -7.4166  -22.1080 C   0  0  0  0  0  0  0  0  0  0  0  0
    4.4484   -8.3895  -21.2355 C   0  0  0  0  0  0  0  0  0  0  0  0
    4.7003   -9.6817  -21.7072 C   0  0  0  0  0  0  0  0  0  0  0  0
    3.6938   -7.7742  -23.5210 C   0  0  0  0  0  0  0  0  0  0  0  0
    3.9693   -9.0902  -23.9078 C   0  0  0  0  0  0  0  0  0  0  0  0
    4.4813  -10.0677  -23.0436 C   0  0  0  0  0  0  0  0  0  0  0  0
    4.6456  -11.3167  -23.5081 N   0  0  0  0  0  0  0  0  0  0  0  0
    5.8126  -11.8653  -23.9206 C   0  0  0  0  0  0  0  0  0  0  0  0
    7.1502  -11.4752  -23.9110 C   0  0  0  0  0  0  0  0  0  0  0  0
    8.0991  -12.3873  -24.4048 C   0  0  0  0  0  0  0  0  0  0  0  0
    7.7523  -13.6523  -24.8933 C   0  0  0  0  0  0  0  0  0  0  0  0
    6.4326  -14.1034  -24.9258 C   0  0  0  0  0  0  0  0  0  0  0  0
    3.5271  -12.0413  -23.7337 C   0  0  0  0  0  0  0  0  0  0  0  0
    2.0654  -11.7840  -23.4441 C   0  0  0  0  0  0  0  0  0  0  0  0
    1.1897  -12.8563  -24.1132 C   0  0  0  0  0  0  0  0  0  0  0  0
    1.7129  -14.2921  -24.1044 C   0  0  0  0  0  0  0  0  0  0  0  0
    3.1043  -14.4149  -24.6808 C   0  0  0  0  0  0  0  0  0  0  0  0
    3.4385  -15.3419  -25.3952 O   0  0  0  0  0  0  0  0  0  0  0  0
    4.0035  -13.2943  -24.3131 C   0  0  0  0  0  0  0  0  0  0  0  0
    5.4674  -13.2220  -24.4483 C   0  0  0  0  0  0  0  0  0  0  0  0
    4.4091   -5.1338  -21.9292 O   0  0  0  0  0  0  0  0  0  0  0  0
    3.6541   -6.0410  -21.6021 C   0  0  0  0  0  0  0  0  0  0  0  0
    2.5319   -5.8207  -20.9157 N   0  0  0  0  0  0  0  0  0  0  0  0
    2.3271   -4.9166  -20.5843 H   0  0  0  0  0  0  0  0  0  0  0  0
    1.9085   -6.5623  -20.7405 H   0  0  0  0  0  0  0  0  0  0  0  0
    3.2051   -6.8477  -24.4043 N   0  0  0  0  0  0  0  0  0  0  0  0
    3.7492   -6.0539  -24.6120 H   0  0  0  0  0  0  0  0  0  0  0  0
    1.9008   -7.0005  -25.0486 C   0  0  0  0  0  0  0  0  0  0  0  0
    0.8002   -7.4097  -24.0698 C   0  0  0  0  0  0  0  0  0  0  0  0
    0.2506   -8.6615  -24.4897 O   0  0  0  0  0  0  0  0  0  0  0  0
    0.6187   -9.0478  -25.8112 C   0  0  0  0  0  0  0  0  0  0  0  0
 21 22  2  0  0  0
 22 23  1  0  0  0
 22  1  1  0  0  0
  1  2  2  0  0  0
  1  4  1  0  0  0
  2  3  1  0  0  0
  3  6  2  0  0  0
  4 26  1  0  0  0
  4  5  2  0  0  0
 26 28  1  0  0  0
 28 29  1  0  0  0
 29 30  1  0  0  0
 30 31  1  0  0  0
  5  6  1  0  0  0
  6  7  1  0  0  0
  7  8  1  0  0  0
  7 13  1  0  0  0
  8  9  2  0  0  0
  8 20  1  0  0  0
  9 10  1  0  0  0
 10 11  2  0  0  0
 11 12  1  0  0  0
 12 20  2  0  0  0
 13 14  1  0  0  0
 13 19  2  0  0  0
 14 15  1  0  0  0
 15 16  1  0  0  0
 16 17  1  0  0  0
 17 18  2  0  0  0
 17 19  1  0  0  0
 19 20  1  0  0  0
 23 24  1  0  0  0
 23 25  1  0  0  0
 26 27  1  0  0  0
M  END
> <minimizedAffinity>
-9.37543

$$$$
3D0B_SNX_A_233


 31 34  0  0  0  0  0  0  0  0999 V2000
    5.6706  -10.3118  -23.1767 C   0  0  0  0  0  0  0  0  0  0  0  0
    5.2784  -11.4100  -23.9371 C   0  0  0  0  0  0  0  0  0  0  0  0
    3.9996  -11.4420  -24.5023 C   0  0  0  0  0  0  0  0  0  0  0  0
    4.7114   -9.2047  -22.9436 C   0  0  0  0  0  0  0  0  0  0  0  0
    3.4519   -9.3197  -23.5417 C   0  0  0  0  0  0  0  0  0  0  0  0
    3.0594  -10.4072  -24.3340 C   0  0  0  0  0  0  0  0  0  0  0  0
    1.8021  -10.4422  -24.8037 N   0  0  0  0  0  0  0  0  0  0  0  0
    0.8007  -11.2262  -24.3395 C   0  0  0  0  0  0  0  0  0  0  0  0
    0.6379  -12.0921  -23.2601 C   0  0  0  0  0  0  0  0  0  0  0  0
   -0.6200  -12.6973  -23.0933 C   0  0  0  0  0  0  0  0  0  0  0  0
   -1.6957  -12.4607  -23.9570 C   0  0  0  0  0  0  0  0  0  0  0  0
   -1.5982  -11.6022  -25.0524 C   0  0  0  0  0  0  0  0  0  0  0  0
    1.5499   -9.7531  -25.9388 C   0  0  0  0  0  0  0  0  0  0  0  0
    2.3861   -8.8028  -26.7661 C   0  0  0  0  0  0  0  0  0  0  0  0
    1.6726   -8.4729  -28.0876 C   0  0  0  0  0  0  0  0  0  0  0  0
    0.1569   -8.2853  -28.0363 C   0  0  0  0  0  0  0  0  0  0  0  0
   -0.5606   -9.4594  -27.4116 C   0  0  0  0  0  0  0  0  0  0  0  0
   -1.6170   -9.8856  -27.8401 O   0  0  0  0  0  0  0  0  0  0  0  0
    0.1548  -10.0482  -26.2536 C   0  0  0  0  0  0  0  0  0  0  0  0
   -0.3638  -10.9904  -25.2487 C   0  0  0  0  0  0  0  0  0  0  0  0
    7.0678  -10.0856  -21.3235 O   0  0  0  0  0  0  0  0  0  0  0  0
    7.0230  -10.2880  -22.5306 C   0  0  0  0  0  0  0  0  0  0  0  0
    8.1103  -10.5861  -23.2431 N   0  0  0  0  0  0  0  0  0  0  0  0
    8.9978  -10.5700  -22.8171 H   0  0  0  0  0  0  0  0  0  0  0  0
    8.0255  -10.8223  -24.1951 H   0  0  0  0  0  0  0  0  0  0  0  0
    5.0563   -8.1159  -22.1867 N   0  0  0  0  0  0  0  0  0  0  0  0
    5.4881   -8.2597  -21.3137 H   0  0  0  0  0  0  0  0  0  0  0  0
    4.8032   -6.7465  -22.6345 C   0  0  0  0  0  0  0  0  0  0  0  0
    5.5246   -6.4060  -23.9384 C   0  0  0  0  0  0  0  0  0  0  0  0
    6.9276   -6.3098  -23.6785 O   0  0  0  0  0  0  0  0  0  0  0  0
    7.7318   -7.1665  -24.4850 C   0  0  0  0  0  0  0  0  0  0  0  0
 21 22  2  0  0  0
 22 23  1  0  0  0
 22  1  1  0  0  0
  1  2  2  0  0  0
  1  4  1  0  0  0
  2  3  1  0  0  0
  3  6  2  0  0  0
  4 26  1  0  0  0
  4  5  2  0  0  0
 26 28  1  0  0  0
 28 29  1  0  0  0
 29 30  1  0  0  0
 30 31  1  0  0  0
  5  6  1  0  0  0
  6  7  1  0  0  0
  7  8  1  0  0  0
  7 13  1  0  0  0
  8  9  2  0  0  0
  8 20  1  0  0  0
  9 10  1  0  0  0
 10 11  2  0  0  0
 11 12  1  0  0  0
 12 20  2  0  0  0
 13 14  1  0  0  0
 13 19  2  0  0  0
 14 15  1  0  0  0
 15 16  1  0  0  0
 16 17  1  0  0  0
 17 18  2  0  0  0
 17 19  1  0  0  0
 19 20  1  0  0  0
 23 24  1  0  0  0
 23 25  1  0  0  0
 26 27  1  0  0  0
M  END
> <minimizedAffinity>
-9.11698

$$$$
3D0B_SNX_A_233


 31 34  0  0  0  0  0  0  0  0999 V2000
    5.9207  -10.5284  -23.3309 C   0  0  0  0  0  0  0  0  0  0  0  0
    5.4662  -11.6777  -23.9716 C   0  0  0  0  0  0  0  0  0  0  0  0
    4.1853  -11.6993  -24.5326 C   0  0  0  0  0  0  0  0  0  0  0  0
    5.0243   -9.3521  -23.2180 C   0  0  0  0  0  0  0  0  0  0  0  0
    3.7580   -9.4606  -23.8029 C   0  0  0  0  0  0  0  0  0  0  0  0
    3.3037  -10.6027  -24.4764 C   0  0  0  0  0  0  0  0  0  0  0  0
    2.0444  -10.6184  -24.9421 N   0  0  0  0  0  0  0  0  0  0  0  0
    1.5534   -9.8397  -25.9347 C   0  0  0  0  0  0  0  0  0  0  0  0
    2.0942   -8.9327  -26.8437 C   0  0  0  0  0  0  0  0  0  0  0  0
    1.2234   -8.3516  -27.7819 C   0  0  0  0  0  0  0  0  0  0  0  0
   -0.1429   -8.6510  -27.8352 C   0  0  0  0  0  0  0  0  0  0  0  0
   -0.7439   -9.5529  -26.9568 C   0  0  0  0  0  0  0  0  0  0  0  0
    1.1451  -11.3614  -24.2593 C   0  0  0  0  0  0  0  0  0  0  0  0
    1.2821  -12.3256  -23.1024 C   0  0  0  0  0  0  0  0  0  0  0  0
   -0.1045  -12.7290  -22.5742 C   0  0  0  0  0  0  0  0  0  0  0  0
   -1.2090  -12.9508  -23.6066 C   0  0  0  0  0  0  0  0  0  0  0  0
   -1.3987  -11.7689  -24.5288 C   0  0  0  0  0  0  0  0  0  0  0  0
   -2.4971  -11.3872  -24.8878 O   0  0  0  0  0  0  0  0  0  0  0  0
   -0.1293  -11.1138  -24.9278 C   0  0  0  0  0  0  0  0  0  0  0  0
    0.0903  -10.1425  -26.0117 C   0  0  0  0  0  0  0  0  0  0  0  0
    7.3239  -10.3081  -21.4815 O   0  0  0  0  0  0  0  0  0  0  0  0
    7.2750  -10.5104  -22.6884 C   0  0  0  0  0  0  0  0  0  0  0  0
    8.3591  -10.8133  -23.4039 N   0  0  0  0  0  0  0  0  0  0  0  0
    9.2477  -10.8010  -22.9803 H   0  0  0  0  0  0  0  0  0  0  0  0
    8.2707  -11.0492  -24.3556 H   0  0  0  0  0  0  0  0  0  0  0  0
    5.4311   -8.2099  -22.5798 N   0  0  0  0  0  0  0  0  0  0  0  0
    6.0897   -8.2796  -21.8515 H   0  0  0  0  0  0  0  0  0  0  0  0
    4.9177   -6.8900  -22.9464 C   0  0  0  0  0  0  0  0  0  0  0  0
    5.6628   -6.2714  -24.1291 C   0  0  0  0  0  0  0  0  0  0  0  0
    4.7734   -6.1952  -25.2465 O   0  0  0  0  0  0  0  0  0  0  0  0
    3.4144   -5.9469  -24.8964 C   0  0  0  0  0  0  0  0  0  0  0  0
 21 22  2  0  0  0
 22 23  1  0  0  0
 22  1  1  0  0  0
  1  2  2  0  0  0
  1  4  1  0  0  0
  2  3  1  0  0  0
  3  6  2  0  0  0
  4 26  1  0  0  0
  4  5  2  0  0  0
 26 28  1  0  0  0
 28 29  1  0  0  0
 29 30  1  0  0  0
 30 31  1  0  0  0
  5  6  1  0  0  0
  6  7  1  0  0  0
  7  8  1  0  0  0
  7 13  1  0  0  0
  8  9  2  0  0  0
  8 20  1  0  0  0
  9 10  1  0  0  0
 10 11  2  0  0  0
 11 12  1  0  0  0
 12 20  2  0  0  0
 13 14  1  0  0  0
 13 19  2  0  0  0
 14 15  1  0  0  0
 15 16  1  0  0  0
 16 17  1  0  0  0
 17 18  2  0  0  0
 17 19  1  0  0  0
 19 20  1  0  0  0
 23 24  1  0  0  0
 23 25  1  0  0  0
 26 27  1  0  0  0
M  END
> <minimizedAffinity>
-9.10713

$$$$
