4AVI_XNS_A_201


 28 28  0  0  0  0  0  0  0  0999 V2000
   13.1555  -62.5442   22.7438 C   0  0  0  0  0  0  0  0  0  0  0  0
   12.0213  -62.1288   21.8311 C   0  0  0  0  0  0  0  0  0  0  0  0
   11.7232  -60.7495   21.9632 O   0  0  0  0  0  0  0  0  0  0  0  0
   12.4563  -62.3051   20.3806 C   0  0  0  0  0  0  0  0  0  0  0  0
   11.4157  -61.8527   19.4947 O   0  0  0  0  0  0  0  0  0  0  0  0
   13.6658  -61.4074   20.1858 C   0  0  0  0  0  0  0  0  0  0  0  0
   14.1386  -61.6186   18.8493 O   0  0  0  0  0  0  0  0  0  0  0  0
   14.7670  -61.7963   21.1147 C   0  0  0  0  0  0  0  0  0  0  0  0
   14.3172  -61.6744   22.4785 O   0  0  0  0  0  0  0  0  0  0  0  0
   12.5028  -60.2256   21.7211 H   0  0  0  0  0  0  0  0  0  0  0  0
   11.2169  -60.9213   19.6785 H   0  0  0  0  0  0  0  0  0  0  0  0
   14.3750  -62.5522   18.7336 H   0  0  0  0  0  0  0  0  0  0  0  0
   15.9931  -60.9209   20.8661 C   0  0  0  0  0  0  0  0  0  0  0  0
   15.6238  -59.5471   20.8917 O   0  0  0  0  0  0  0  0  0  0  0  0
   14.9675  -59.3757   20.1983 H   0  0  0  0  0  0  0  0  0  0  0  0
   13.3690  -63.9789   22.5306 O   0  0  0  0  0  0  0  0  0  0  0  0
   13.8510  -64.8390   23.5700 C   0  0  0  0  0  0  0  0  0  0  0  0
   14.4371  -66.1212   22.9033 C   0  0  0  0  0  0  0  0  0  0  0  0
   15.1152  -65.7784   21.5667 C   0  0  0  0  0  0  0  0  0  0  0  0
   16.5702  -65.2910   21.6921 C   0  0  0  0  0  0  0  0  0  0  0  0
   17.4728  -66.5435   21.7573 C   0  0  0  0  0  0  0  0  0  0  0  0
   18.8730  -66.2409   22.3058 C   0  0  0  0  0  0  0  0  0  0  0  0
   19.8473  -65.6713   21.2573 C   0  0  0  0  0  0  0  0  0  0  0  0
   19.6856  -66.5192   19.9766 C   0  0  0  0  0  0  0  0  0  0  0  0
   20.3549  -68.8616   20.0697 O   0  0  0  0  0  0  0  0  0  0  0  0
   20.6907  -67.6942   19.8647 C   0  0  0  0  0  0  0  0  0  0  0  0
   21.9573  -67.3282   19.4925 O   0  0  0  0  0  0  0  0  0  0  0  0
   22.9238  -67.7401   20.4671 C   0  0  0  0  0  0  0  0  0  0  0  0
 24 26  1  0  0  0
 24 23  1  0  0  0
 25 26  2  0  0  0
 26 27  1  0  0  0
 27 28  1  0  0  0
 23 22  1  0  0  0
 22 21  1  0  0  0
 21 20  1  0  0  0
 20 19  1  0  0  0
 19 18  1  0  0  0
 18 17  1  0  0  0
 17 16  1  0  0  0
 16  1  1  0  0  0
  1  2  1  0  0  0
  1  9  1  0  0  0
  2  3  1  0  0  0
  2  4  1  0  0  0
  4  5  1  0  0  0
  4  6  1  0  0  0
  6  7  1  0  0  0
  6  8  1  0  0  0
  8  9  1  0  0  0
  8 13  1  0  0  0
 13 14  1  0  0  0
  3 10  1  0  0  0
  5 11  1  0  0  0
  7 12  1  0  0  0
 14 15  1  0  0  0
M  END
> <minimizedAffinity>
-7.12161

$$$$
4AVI_XNS_A_201


 28 28  0  0  0  0  0  0  0  0999 V2000
   13.1964  -62.4255   22.6075 C   0  0  0  0  0  0  0  0  0  0  0  0
   12.1236  -62.1124   21.5862 C   0  0  0  0  0  0  0  0  0  0  0  0
   11.7879  -60.7354   21.5871 O   0  0  0  0  0  0  0  0  0  0  0  0
   12.6674  -62.3888   20.1890 C   0  0  0  0  0  0  0  0  0  0  0  0
   11.6852  -62.0342   19.1980 O   0  0  0  0  0  0  0  0  0  0  0  0
   13.8688  -61.4770   20.0105 C   0  0  0  0  0  0  0  0  0  0  0  0
   14.4426  -61.7783   18.7321 O   0  0  0  0  0  0  0  0  0  0  0  0
   14.9069  -61.7633   21.0436 C   0  0  0  0  0  0  0  0  0  0  0  0
   14.3559  -61.5482   22.3579 O   0  0  0  0  0  0  0  0  0  0  0  0
   12.5720  -60.2112   21.3605 H   0  0  0  0  0  0  0  0  0  0  0  0
   11.4540  -61.0969   19.2928 H   0  0  0  0  0  0  0  0  0  0  0  0
   14.7063  -62.7115   18.7079 H   0  0  0  0  0  0  0  0  0  0  0  0
   16.1294  -60.8776   20.8146 C   0  0  0  0  0  0  0  0  0  0  0  0
   15.7882  -59.5126   21.0271 O   0  0  0  0  0  0  0  0  0  0  0  0
   15.0897  -59.2535   20.4060 H   0  0  0  0  0  0  0  0  0  0  0  0
   13.4549  -63.8662   22.5243 O   0  0  0  0  0  0  0  0  0  0  0  0
   14.3286  -64.5365   23.4408 C   0  0  0  0  0  0  0  0  0  0  0  0
   14.8619  -65.8261   22.7447 C   0  0  0  0  0  0  0  0  0  0  0  0
   15.8482  -65.4698   21.6204 C   0  0  0  0  0  0  0  0  0  0  0  0
   17.0485  -66.4256   21.4935 C   0  0  0  0  0  0  0  0  0  0  0  0
   17.8293  -66.3659   22.8255 C   0  0  0  0  0  0  0  0  0  0  0  0
   19.3501  -66.3708   22.6253 C   0  0  0  0  0  0  0  0  0  0  0  0
   19.7943  -66.0372   21.1885 C   0  0  0  0  0  0  0  0  0  0  0  0
   21.1299  -66.7726   20.9419 C   0  0  0  0  0  0  0  0  0  0  0  0
   22.8306  -67.0861   22.6602 O   0  0  0  0  0  0  0  0  0  0  0  0
   22.2846  -66.3151   21.8697 C   0  0  0  0  0  0  0  0  0  0  0  0
   22.6590  -65.0068   21.7121 O   0  0  0  0  0  0  0  0  0  0  0  0
   24.0508  -64.8270   22.0024 C   0  0  0  0  0  0  0  0  0  0  0  0
 24 26  1  0  0  0
 24 23  1  0  0  0
 25 26  2  0  0  0
 26 27  1  0  0  0
 27 28  1  0  0  0
 23 22  1  0  0  0
 22 21  1  0  0  0
 21 20  1  0  0  0
 20 19  1  0  0  0
 19 18  1  0  0  0
 18 17  1  0  0  0
 17 16  1  0  0  0
 16  1  1  0  0  0
  1  2  1  0  0  0
  1  9  1  0  0  0
  2  3  1  0  0  0
  2  4  1  0  0  0
  4  5  1  0  0  0
  4  6  1  0  0  0
  6  7  1  0  0  0
  6  8  1  0  0  0
  8  9  1  0  0  0
  8 13  1  0  0  0
 13 14  1  0  0  0
  3 10  1  0  0  0
  5 11  1  0  0  0
  7 12  1  0  0  0
 14 15  1  0  0  0
M  END
> <minimizedAffinity>
-7.08482

$$$$
4AVI_XNS_A_201


 28 28  0  0  0  0  0  0  0  0999 V2000
   13.3289  -62.7247   22.7009 C   0  0  0  0  0  0  0  0  0  0  0  0
   12.1406  -62.2403   21.8976 C   0  0  0  0  0  0  0  0  0  0  0  0
   11.8556  -60.8765   22.1577 O   0  0  0  0  0  0  0  0  0  0  0  0
   12.4829  -62.2996   20.4131 C   0  0  0  0  0  0  0  0  0  0  0  0
   11.3898  -61.7802   19.6334 O   0  0  0  0  0  0  0  0  0  0  0  0
   13.6803  -61.3867   20.2145 C   0  0  0  0  0  0  0  0  0  0  0  0
   14.0673  -61.4898   18.8383 O   0  0  0  0  0  0  0  0  0  0  0  0
   14.8367  -61.8461   21.0383 C   0  0  0  0  0  0  0  0  0  0  0  0
   14.4741  -61.8341   22.4331 O   0  0  0  0  0  0  0  0  0  0  0  0
   12.6199  -60.3333   21.9093 H   0  0  0  0  0  0  0  0  0  0  0  0
   11.2057  -60.8667   19.9030 H   0  0  0  0  0  0  0  0  0  0  0  0
   14.2932  -62.4107   18.6340 H   0  0  0  0  0  0  0  0  0  0  0  0
   16.0473  -60.9512   20.7833 C   0  0  0  0  0  0  0  0  0  0  0  0
   15.6604  -59.5829   20.8335 O   0  0  0  0  0  0  0  0  0  0  0  0
   14.9915  -59.4108   20.1524 H   0  0  0  0  0  0  0  0  0  0  0  0
   13.5242  -64.1374   22.3611 O   0  0  0  0  0  0  0  0  0  0  0  0
   14.5573  -64.9283   22.9609 C   0  0  0  0  0  0  0  0  0  0  0  0
   15.4741  -65.4701   21.8215 C   0  0  0  0  0  0  0  0  0  0  0  0
   16.8323  -65.9209   22.3836 C   0  0  0  0  0  0  0  0  0  0  0  0
   17.8004  -66.4985   21.3350 C   0  0  0  0  0  0  0  0  0  0  0  0
   19.1553  -65.7765   21.5101 C   0  0  0  0  0  0  0  0  0  0  0  0
   20.2208  -66.6608   22.1701 C   0  0  0  0  0  0  0  0  0  0  0  0
   21.6656  -66.3047   21.7716 C   0  0  0  0  0  0  0  0  0  0  0  0
   22.1824  -67.4435   20.8654 C   0  0  0  0  0  0  0  0  0  0  0  0
   21.0671  -67.0703   18.7299 O   0  0  0  0  0  0  0  0  0  0  0  0
   21.2253  -67.8100   19.7022 C   0  0  0  0  0  0  0  0  0  0  0  0
   20.6056  -69.0246   19.8342 O   0  0  0  0  0  0  0  0  0  0  0  0
   21.1929  -70.0035   18.9679 C   0  0  0  0  0  0  0  0  0  0  0  0
 24 26  1  0  0  0
 24 23  1  0  0  0
 25 26  2  0  0  0
 26 27  1  0  0  0
 27 28  1  0  0  0
 23 22  1  0  0  0
 22 21  1  0  0  0
 21 20  1  0  0  0
 20 19  1  0  0  0
 19 18  1  0  0  0
 18 17  1  0  0  0
 17 16  1  0  0  0
 16  1  1  0  0  0
  1  2  1  0  0  0
  1  9  1  0  0  0
  2  3  1  0  0  0
  2  4  1  0  0  0
  4  5  1  0  0  0
  4  6  1  0  0  0
  6  7  1  0  0  0
  6  8  1  0  0  0
  8  9  1  0  0  0
  8 13  1  0  0  0
 13 14  1  0  0  0
  3 10  1  0  0  0
  5 11  1  0  0  0
  7 12  1  0  0  0
 14 15  1  0  0  0
M  END
> <minimizedAffinity>
-6.78013

$$$$
4AVI_XNS_A_201


 28 28  0  0  0  0  0  0  0  0999 V2000
   13.2075  -62.5793   22.6542 C   0  0  0  0  0  0  0  0  0  0  0  0
   11.9550  -62.0734   21.9705 C   0  0  0  0  0  0  0  0  0  0  0  0
   11.7416  -60.6955   22.2250 O   0  0  0  0  0  0  0  0  0  0  0  0
   12.1334  -62.1765   20.4600 C   0  0  0  0  0  0  0  0  0  0  0  0
   10.9792  -61.6383   19.7887 O   0  0  0  0  0  0  0  0  0  0  0  0
   13.3299  -61.3085   20.1113 C   0  0  0  0  0  0  0  0  0  0  0  0
   13.5631  -61.4545   18.7047 O   0  0  0  0  0  0  0  0  0  0  0  0
   14.5537  -61.7878   20.8181 C   0  0  0  0  0  0  0  0  0  0  0  0
   14.3439  -61.7333   22.2429 O   0  0  0  0  0  0  0  0  0  0  0  0
   12.4910  -60.1836   21.8826 H   0  0  0  0  0  0  0  0  0  0  0  0
   10.8533  -60.7136   20.0531 H   0  0  0  0  0  0  0  0  0  0  0  0
   13.7373  -62.3867   18.5009 H   0  0  0  0  0  0  0  0  0  0  0  0
   15.7566  -60.9395   20.4125 C   0  0  0  0  0  0  0  0  0  0  0  0
   15.6203  -59.6217   20.9317 O   0  0  0  0  0  0  0  0  0  0  0  0
   14.8138  -59.2162   20.5767 H   0  0  0  0  0  0  0  0  0  0  0  0
   13.3217  -64.0048   22.3314 O   0  0  0  0  0  0  0  0  0  0  0  0
   14.3344  -64.8369   22.9096 C   0  0  0  0  0  0  0  0  0  0  0  0
   15.0204  -65.6342   21.7581 C   0  0  0  0  0  0  0  0  0  0  0  0
   16.5417  -65.4122   21.7733 C   0  0  0  0  0  0  0  0  0  0  0  0
   17.3715  -66.6766   22.0618 C   0  0  0  0  0  0  0  0  0  0  0  0
   18.7662  -66.2145   22.5401 C   0  0  0  0  0  0  0  0  0  0  0  0
   19.7471  -65.9856   21.3832 C   0  0  0  0  0  0  0  0  0  0  0  0
   21.2263  -65.9548   21.8123 C   0  0  0  0  0  0  0  0  0  0  0  0
   21.3449  -66.7985   23.1005 C   0  0  0  0  0  0  0  0  0  0  0  0
   21.1288  -69.1809   22.6305 O   0  0  0  0  0  0  0  0  0  0  0  0
   21.8808  -68.2347   22.8689 C   0  0  0  0  0  0  0  0  0  0  0  0
   23.2448  -68.3500   22.9205 O   0  0  0  0  0  0  0  0  0  0  0  0
   23.7823  -67.6492   24.0491 C   0  0  0  0  0  0  0  0  0  0  0  0
 24 26  1  0  0  0
 24 23  1  0  0  0
 25 26  2  0  0  0
 26 27  1  0  0  0
 27 28  1  0  0  0
 23 22  1  0  0  0
 22 21  1  0  0  0
 21 20  1  0  0  0
 20 19  1  0  0  0
 19 18  1  0  0  0
 18 17  1  0  0  0
 17 16  1  0  0  0
 16  1  1  0  0  0
  1  2  1  0  0  0
  1  9  1  0  0  0
  2  3  1  0  0  0
  2  4  1  0  0  0
  4  5  1  0  0  0
  4  6  1  0  0  0
  6  7  1  0  0  0
  6  8  1  0  0  0
  8  9  1  0  0  0
  8 13  1  0  0  0
 13 14  1  0  0  0
  3 10  1  0  0  0
  5 11  1  0  0  0
  7 12  1  0  0  0
 14 15  1  0  0  0
M  END
> <minimizedAffinity>
-6.52123

$$$$
4AVI_XNS_A_201


 28 28  0  0  0  0  0  0  0  0999 V2000
   13.1281  -62.4754   22.6373 C   0  0  0  0  0  0  0  0  0  0  0  0
   12.0722  -62.1176   21.6131 C   0  0  0  0  0  0  0  0  0  0  0  0
   11.7668  -60.7338   21.6397 O   0  0  0  0  0  0  0  0  0  0  0  0
   12.6229  -62.3772   20.2154 C   0  0  0  0  0  0  0  0  0  0  0  0
   11.6581  -61.9805   19.2232 O   0  0  0  0  0  0  0  0  0  0  0  0
   13.8457  -61.4887   20.0668 C   0  0  0  0  0  0  0  0  0  0  0  0
   14.4247  -61.7764   18.7876 O   0  0  0  0  0  0  0  0  0  0  0  0
   14.8675  -61.8192   21.1029 C   0  0  0  0  0  0  0  0  0  0  0  0
   14.3089  -61.6191   22.4164 O   0  0  0  0  0  0  0  0  0  0  0  0
   12.5644  -60.2226   21.4311 H   0  0  0  0  0  0  0  0  0  0  0  0
   11.4467  -61.0405   19.3354 H   0  0  0  0  0  0  0  0  0  0  0  0
   14.6681  -62.7144   18.7463 H   0  0  0  0  0  0  0  0  0  0  0  0
   16.1112  -60.9563   20.9034 C   0  0  0  0  0  0  0  0  0  0  0  0
   15.7414  -59.5864   20.7975 O   0  0  0  0  0  0  0  0  0  0  0  0
   15.1502  -59.4689   20.0374 H   0  0  0  0  0  0  0  0  0  0  0  0
   13.3556  -63.9194   22.5265 O   0  0  0  0  0  0  0  0  0  0  0  0
   13.5892  -64.7431   23.6752 C   0  0  0  0  0  0  0  0  0  0  0  0
   14.8903  -65.5654   23.4238 C   0  0  0  0  0  0  0  0  0  0  0  0
   15.1901  -65.6635   21.9190 C   0  0  0  0  0  0  0  0  0  0  0  0
   16.6114  -65.2278   21.5185 C   0  0  0  0  0  0  0  0  0  0  0  0
   17.5752  -66.3643   21.9271 C   0  0  0  0  0  0  0  0  0  0  0  0
   19.0465  -65.9304   21.9167 C   0  0  0  0  0  0  0  0  0  0  0  0
   20.0312  -67.0436   22.3221 C   0  0  0  0  0  0  0  0  0  0  0  0
   19.8925  -68.1761   21.2812 C   0  0  0  0  0  0  0  0  0  0  0  0
   20.5976  -70.1864   22.4665 O   0  0  0  0  0  0  0  0  0  0  0  0
   19.6855  -69.5824   21.9002 C   0  0  0  0  0  0  0  0  0  0  0  0
   18.4106  -70.0718   21.7913 O   0  0  0  0  0  0  0  0  0  0  0  0
   18.3870  -71.4964   21.9454 C   0  0  0  0  0  0  0  0  0  0  0  0
 24 26  1  0  0  0
 24 23  1  0  0  0
 25 26  2  0  0  0
 26 27  1  0  0  0
 27 28  1  0  0  0
 23 22  1  0  0  0
 22 21  1  0  0  0
 21 20  1  0  0  0
 20 19  1  0  0  0
 19 18  1  0  0  0
 18 17  1  0  0  0
 17 16  1  0  0  0
 16  1  1  0  0  0
  1  2  1  0  0  0
  1  9  1  0  0  0
  2  3  1  0  0  0
  2  4  1  0  0  0
  4  5  1  0  0  0
  4  6  1  0  0  0
  6  7  1  0  0  0
  6  8  1  0  0  0
  8  9  1  0  0  0
  8 13  1  0  0  0
 13 14  1  0  0  0
  3 10  1  0  0  0
  5 11  1  0  0  0
  7 12  1  0  0  0
 14 15  1  0  0  0
M  END
> <minimizedAffinity>
-6.35698

$$$$
4AVI_XNS_A_201


 28 28  0  0  0  0  0  0  0  0999 V2000
   14.1552  -63.0277   22.6454 C   0  0  0  0  0  0  0  0  0  0  0  0
   12.7460  -62.6199   22.2710 C   0  0  0  0  0  0  0  0  0  0  0  0
   12.4245  -61.3334   22.7715 O   0  0  0  0  0  0  0  0  0  0  0  0
   12.6481  -62.4934   20.7549 C   0  0  0  0  0  0  0  0  0  0  0  0
   11.3333  -62.0415   20.3812 O   0  0  0  0  0  0  0  0  0  0  0  0
   13.6478  -61.4239   20.3505 C   0  0  0  0  0  0  0  0  0  0  0  0
   13.6278  -61.3455   18.9195 O   0  0  0  0  0  0  0  0  0  0  0  0
   15.0301  -61.8129   20.7562 C   0  0  0  0  0  0  0  0  0  0  0  0
   15.0871  -61.9801   22.1866 O   0  0  0  0  0  0  0  0  0  0  0  0
   13.0311  -60.6782   22.3925 H   0  0  0  0  0  0  0  0  0  0  0  0
   11.1520  -61.1881   20.8053 H   0  0  0  0  0  0  0  0  0  0  0  0
   13.8684  -62.2074   18.5450 H   0  0  0  0  0  0  0  0  0  0  0  0
   16.0277  -60.7542   20.2922 C   0  0  0  0  0  0  0  0  0  0  0  0
   15.6727  -59.4838   20.8256 O   0  0  0  0  0  0  0  0  0  0  0  0
   14.7863  -59.2395   20.5165 H   0  0  0  0  0  0  0  0  0  0  0  0
   14.3727  -64.3660   22.0876 O   0  0  0  0  0  0  0  0  0  0  0  0
   14.5082  -65.5242   22.9199 C   0  0  0  0  0  0  0  0  0  0  0  0
   16.0137  -65.9305   22.9413 C   0  0  0  0  0  0  0  0  0  0  0  0
   16.3541  -66.8222   21.7359 C   0  0  0  0  0  0  0  0  0  0  0  0
   15.7231  -68.2259   21.7782 C   0  0  0  0  0  0  0  0  0  0  0  0
   16.0703  -68.8472   23.1497 C   0  0  0  0  0  0  0  0  0  0  0  0
   17.3374  -69.7108   23.1088 C   0  0  0  0  0  0  0  0  0  0  0  0
   18.5411  -69.0930   23.8454 C   0  0  0  0  0  0  0  0  0  0  0  0
   19.7525  -69.1787   22.8911 C   0  0  0  0  0  0  0  0  0  0  0  0
   19.7002  -68.3165   20.6113 O   0  0  0  0  0  0  0  0  0  0  0  0
   19.7893  -68.0644   21.8139 C   0  0  0  0  0  0  0  0  0  0  0  0
   19.8957  -66.7926   22.3118 O   0  0  0  0  0  0  0  0  0  0  0  0
   21.0246  -66.1095   21.7526 C   0  0  0  0  0  0  0  0  0  0  0  0
 24 26  1  0  0  0
 24 23  1  0  0  0
 25 26  2  0  0  0
 26 27  1  0  0  0
 27 28  1  0  0  0
 23 22  1  0  0  0
 22 21  1  0  0  0
 21 20  1  0  0  0
 20 19  1  0  0  0
 19 18  1  0  0  0
 18 17  1  0  0  0
 17 16  1  0  0  0
 16  1  1  0  0  0
  1  2  1  0  0  0
  1  9  1  0  0  0
  2  3  1  0  0  0
  2  4  1  0  0  0
  4  5  1  0  0  0
  4  6  1  0  0  0
  6  7  1  0  0  0
  6  8  1  0  0  0
  8  9  1  0  0  0
  8 13  1  0  0  0
 13 14  1  0  0  0
  3 10  1  0  0  0
  5 11  1  0  0  0
  7 12  1  0  0  0
 14 15  1  0  0  0
M  END
> <minimizedAffinity>
-5.68119

$$$$
4AVI_XNS_A_201


 28 28  0  0  0  0  0  0  0  0999 V2000
   13.4639  -62.7196   22.6007 C   0  0  0  0  0  0  0  0  0  0  0  0
   12.3085  -62.3257   21.7053 C   0  0  0  0  0  0  0  0  0  0  0  0
   11.9277  -60.9756   21.9080 O   0  0  0  0  0  0  0  0  0  0  0  0
   12.7561  -62.3990   20.2498 C   0  0  0  0  0  0  0  0  0  0  0  0
   11.6918  -61.9639   19.3835 O   0  0  0  0  0  0  0  0  0  0  0  0
   13.9097  -61.4213   20.1084 C   0  0  0  0  0  0  0  0  0  0  0  0
   14.3969  -61.5332   18.7650 O   0  0  0  0  0  0  0  0  0  0  0  0
   15.0306  -61.7917   21.0213 C   0  0  0  0  0  0  0  0  0  0  0  0
   14.5716  -61.7689   22.3873 O   0  0  0  0  0  0  0  0  0  0  0  0
   12.6748  -60.3938   21.6975 H   0  0  0  0  0  0  0  0  0  0  0  0
   11.4369  -61.0571   19.6148 H   0  0  0  0  0  0  0  0  0  0  0  0
   14.6893  -62.4435   18.6019 H   0  0  0  0  0  0  0  0  0  0  0  0
   16.2022  -60.8325   20.8250 C   0  0  0  0  0  0  0  0  0  0  0  0
   15.7315  -59.4903   20.7875 O   0  0  0  0  0  0  0  0  0  0  0  0
   15.1108  -59.3858   20.0494 H   0  0  0  0  0  0  0  0  0  0  0  0
   13.7638  -64.1257   22.3137 O   0  0  0  0  0  0  0  0  0  0  0  0
   14.9449  -64.7680   22.8087 C   0  0  0  0  0  0  0  0  0  0  0  0
   15.6553  -65.4649   21.6079 C   0  0  0  0  0  0  0  0  0  0  0  0
   17.1267  -65.7599   21.9426 C   0  0  0  0  0  0  0  0  0  0  0  0
   17.3360  -66.8624   22.9966 C   0  0  0  0  0  0  0  0  0  0  0  0
   17.5950  -68.1834   22.2379 C   0  0  0  0  0  0  0  0  0  0  0  0
   16.3305  -69.0370   22.0790 C   0  0  0  0  0  0  0  0  0  0  0  0
   16.5192  -70.5155   22.4684 C   0  0  0  0  0  0  0  0  0  0  0  0
   16.1238  -70.6494   23.9553 C   0  0  0  0  0  0  0  0  0  0  0  0
   15.7178  -73.0198   24.3548 O   0  0  0  0  0  0  0  0  0  0  0  0
   16.4320  -72.0392   24.5691 C   0  0  0  0  0  0  0  0  0  0  0  0
   17.5684  -72.0865   25.3327 O   0  0  0  0  0  0  0  0  0  0  0  0
   18.6140  -72.8019   24.6629 C   0  0  0  0  0  0  0  0  0  0  0  0
 24 26  1  0  0  0
 24 23  1  0  0  0
 25 26  2  0  0  0
 26 27  1  0  0  0
 27 28  1  0  0  0
 23 22  1  0  0  0
 22 21  1  0  0  0
 21 20  1  0  0  0
 20 19  1  0  0  0
 19 18  1  0  0  0
 18 17  1  0  0  0
 17 16  1  0  0  0
 16  1  1  0  0  0
  1  2  1  0  0  0
  1  9  1  0  0  0
  2  3  1  0  0  0
  2  4  1  0  0  0
  4  5  1  0  0  0
  4  6  1  0  0  0
  6  7  1  0  0  0
  6  8  1  0  0  0
  8  9  1  0  0  0
  8 13  1  0  0  0
 13 14  1  0  0  0
  3 10  1  0  0  0
  5 11  1  0  0  0
  7 12  1  0  0  0
 14 15  1  0  0  0
M  END
> <minimizedAffinity>
-5.59581

$$$$
4AVI_XNS_A_201


 28 28  0  0  0  0  0  0  0  0999 V2000
   14.5180  -64.6151   20.7836 C   0  0  0  0  0  0  0  0  0  0  0  0
   14.3755  -63.2411   20.1641 C   0  0  0  0  0  0  0  0  0  0  0  0
   13.2750  -63.1818   19.2728 O   0  0  0  0  0  0  0  0  0  0  0  0
   14.0562  -62.2295   21.2590 C   0  0  0  0  0  0  0  0  0  0  0  0
   13.8507  -60.9265   20.6826 O   0  0  0  0  0  0  0  0  0  0  0  0
   12.7488  -62.6794   21.8875 C   0  0  0  0  0  0  0  0  0  0  0  0
   12.4712  -61.7853   22.9728 O   0  0  0  0  0  0  0  0  0  0  0  0
   12.8834  -64.0499   22.4624 C   0  0  0  0  0  0  0  0  0  0  0  0
   13.2386  -64.9804   21.4207 O   0  0  0  0  0  0  0  0  0  0  0  0
   12.4564  -63.3729   19.7568 H   0  0  0  0  0  0  0  0  0  0  0  0
   13.1271  -60.9685   20.0380 H   0  0  0  0  0  0  0  0  0  0  0  0
   13.1973  -61.8210   23.6149 H   0  0  0  0  0  0  0  0  0  0  0  0
   11.5783  -64.4627   23.1388 C   0  0  0  0  0  0  0  0  0  0  0  0
   10.4685  -64.0291   22.3610 O   0  0  0  0  0  0  0  0  0  0  0  0
   10.4895  -63.0628   22.2782 H   0  0  0  0  0  0  0  0  0  0  0  0
   15.6828  -64.5619   21.6723 O   0  0  0  0  0  0  0  0  0  0  0  0
   16.1507  -65.7146   22.3829 C   0  0  0  0  0  0  0  0  0  0  0  0
   17.2886  -66.3713   21.5426 C   0  0  0  0  0  0  0  0  0  0  0  0
   18.6654  -66.0547   22.1492 C   0  0  0  0  0  0  0  0  0  0  0  0
   19.7783  -65.8002   21.1161 C   0  0  0  0  0  0  0  0  0  0  0  0
   21.1292  -66.0658   21.8177 C   0  0  0  0  0  0  0  0  0  0  0  0
   22.0058  -67.0717   21.0609 C   0  0  0  0  0  0  0  0  0  0  0  0
   21.2803  -68.3782   20.6866 C   0  0  0  0  0  0  0  0  0  0  0  0
   21.1500  -69.2136   21.9790 C   0  0  0  0  0  0  0  0  0  0  0  0
   18.7900  -69.6027   21.5071 O   0  0  0  0  0  0  0  0  0  0  0  0
   19.6907  -69.5855   22.3474 C   0  0  0  0  0  0  0  0  0  0  0  0
   19.5014  -69.9189   23.6626 O   0  0  0  0  0  0  0  0  0  0  0  0
   20.2125  -69.0279   24.5310 C   0  0  0  0  0  0  0  0  0  0  0  0
 24 26  1  0  0  0
 24 23  1  0  0  0
 25 26  2  0  0  0
 26 27  1  0  0  0
 27 28  1  0  0  0
 23 22  1  0  0  0
 22 21  1  0  0  0
 21 20  1  0  0  0
 20 19  1  0  0  0
 19 18  1  0  0  0
 18 17  1  0  0  0
 17 16  1  0  0  0
 16  1  1  0  0  0
  1  2  1  0  0  0
  1  9  1  0  0  0
  2  3  1  0  0  0
  2  4  1  0  0  0
  4  5  1  0  0  0
  4  6  1  0  0  0
  6  7  1  0  0  0
  6  8  1  0  0  0
  8  9  1  0  0  0
  8 13  1  0  0  0
 13 14  1  0  0  0
  3 10  1  0  0  0
  5 11  1  0  0  0
  7 12  1  0  0  0
 14 15  1  0  0  0
M  END
> <minimizedAffinity>
-5.23913

$$$$
4AVI_XNS_A_201


 28 28  0  0  0  0  0  0  0  0999 V2000
   12.2148  -64.6859   22.7793 C   0  0  0  0  0  0  0  0  0  0  0  0
   13.4808  -64.8376   21.9630 C   0  0  0  0  0  0  0  0  0  0  0  0
   13.1961  -65.1766   20.6165 O   0  0  0  0  0  0  0  0  0  0  0  0
   14.1947  -63.4925   21.8927 C   0  0  0  0  0  0  0  0  0  0  0  0
   15.3676  -63.5988   21.0647 O   0  0  0  0  0  0  0  0  0  0  0  0
   13.2288  -62.5312   21.2221 C   0  0  0  0  0  0  0  0  0  0  0  0
   13.8514  -61.2402   21.2177 O   0  0  0  0  0  0  0  0  0  0  0  0
   11.9671  -62.4149   22.0104 C   0  0  0  0  0  0  0  0  0  0  0  0
   11.3367  -63.7071   22.1107 O   0  0  0  0  0  0  0  0  0  0  0  0
   12.6668  -64.4722   20.2107 H   0  0  0  0  0  0  0  0  0  0  0  0
   15.1110  -63.8936   20.1769 H   0  0  0  0  0  0  0  0  0  0  0  0
   14.0375  -60.9678   22.1299 H   0  0  0  0  0  0  0  0  0  0  0  0
   11.0320  -61.4030   21.3525 C   0  0  0  0  0  0  0  0  0  0  0  0
   11.0539  -61.5671   19.9393 O   0  0  0  0  0  0  0  0  0  0  0  0
   11.9554  -61.4239   19.6110 H   0  0  0  0  0  0  0  0  0  0  0  0
   12.6276  -64.3467   24.1446 O   0  0  0  0  0  0  0  0  0  0  0  0
   12.6766  -65.3253   25.1898 C   0  0  0  0  0  0  0  0  0  0  0  0
   14.0760  -65.2341   25.8721 C   0  0  0  0  0  0  0  0  0  0  0  0
   15.1899  -65.6137   24.8827 C   0  0  0  0  0  0  0  0  0  0  0  0
   16.2614  -66.5594   25.4555 C   0  0  0  0  0  0  0  0  0  0  0  0
   17.2896  -66.8258   24.3332 C   0  0  0  0  0  0  0  0  0  0  0  0
   16.7407  -66.5122   22.9356 C   0  0  0  0  0  0  0  0  0  0  0  0
   17.7949  -65.9594   21.9577 C   0  0  0  0  0  0  0  0  0  0  0  0
   19.1655  -66.5141   22.4036 C   0  0  0  0  0  0  0  0  0  0  0  0
   19.6919  -67.9955   20.5402 O   0  0  0  0  0  0  0  0  0  0  0  0
   19.5390  -67.8725   21.7564 C   0  0  0  0  0  0  0  0  0  0  0  0
   19.7124  -68.8999   22.6458 O   0  0  0  0  0  0  0  0  0  0  0  0
   18.8945  -70.0258   22.3036 C   0  0  0  0  0  0  0  0  0  0  0  0
 24 26  1  0  0  0
 24 23  1  0  0  0
 25 26  2  0  0  0
 26 27  1  0  0  0
 27 28  1  0  0  0
 23 22  1  0  0  0
 22 21  1  0  0  0
 21 20  1  0  0  0
 20 19  1  0  0  0
 19 18  1  0  0  0
 18 17  1  0  0  0
 17 16  1  0  0  0
 16  1  1  0  0  0
  1  2  1  0  0  0
  1  9  1  0  0  0
  2  3  1  0  0  0
  2  4  1  0  0  0
  4  5  1  0  0  0
  4  6  1  0  0  0
  6  7  1  0  0  0
  6  8  1  0  0  0
  8  9  1  0  0  0
  8 13  1  0  0  0
 13 14  1  0  0  0
  3 10  1  0  0  0
  5 11  1  0  0  0
  7 12  1  0  0  0
 14 15  1  0  0  0
M  END
> <minimizedAffinity>
-5.21653

$$$$
4AVI_XNS_A_201


 28 28  0  0  0  0  0  0  0  0999 V2000
   14.5963  -65.9040   22.6205 C   0  0  0  0  0  0  0  0  0  0  0  0
   13.9871  -65.9172   21.2345 C   0  0  0  0  0  0  0  0  0  0  0  0
   12.5767  -65.7864   21.2829 O   0  0  0  0  0  0  0  0  0  0  0  0
   14.4741  -64.6960   20.4626 C   0  0  0  0  0  0  0  0  0  0  0  0
   13.8542  -64.6535   19.1640 O   0  0  0  0  0  0  0  0  0  0  0  0
   14.0095  -63.4817   21.2477 C   0  0  0  0  0  0  0  0  0  0  0  0
   14.5257  -62.3233   20.5799 O   0  0  0  0  0  0  0  0  0  0  0  0
   14.5817  -63.4936   22.6259 C   0  0  0  0  0  0  0  0  0  0  0  0
   14.1532  -64.6824   23.3189 O   0  0  0  0  0  0  0  0  0  0  0  0
   12.3444  -64.9413   21.6985 H   0  0  0  0  0  0  0  0  0  0  0  0
   12.8900  -64.6277   19.2667 H   0  0  0  0  0  0  0  0  0  0  0  0
   15.4941  -62.3708   20.5519 H   0  0  0  0  0  0  0  0  0  0  0  0
   14.1503  -62.2385   23.3809 C   0  0  0  0  0  0  0  0  0  0  0  0
   12.8710  -61.8126   22.9265 O   0  0  0  0  0  0  0  0  0  0  0  0
   12.9150  -61.6114   21.9786 H   0  0  0  0  0  0  0  0  0  0  0  0
   16.0447  -66.0532   22.4496 O   0  0  0  0  0  0  0  0  0  0  0  0
   16.6525  -67.3229   22.1835 C   0  0  0  0  0  0  0  0  0  0  0  0
   17.8961  -67.0823   21.2737 C   0  0  0  0  0  0  0  0  0  0  0  0
   18.7267  -65.8958   21.7897 C   0  0  0  0  0  0  0  0  0  0  0  0
   20.1275  -65.7728   21.1627 C   0  0  0  0  0  0  0  0  0  0  0  0
   21.1564  -66.1392   22.2556 C   0  0  0  0  0  0  0  0  0  0  0  0
   22.5490  -66.4387   21.6864 C   0  0  0  0  0  0  0  0  0  0  0  0
   22.5724  -67.5851   20.6576 C   0  0  0  0  0  0  0  0  0  0  0  0
   22.1154  -68.8652   21.3911 C   0  0  0  0  0  0  0  0  0  0  0  0
   20.4715  -69.3331   19.6527 O   0  0  0  0  0  0  0  0  0  0  0  0
   20.8121  -69.4866   20.8266 C   0  0  0  0  0  0  0  0  0  0  0  0
   20.1010  -70.2360   21.7262 O   0  0  0  0  0  0  0  0  0  0  0  0
   20.0650  -69.6056   23.0127 C   0  0  0  0  0  0  0  0  0  0  0  0
 24 26  1  0  0  0
 24 23  1  0  0  0
 25 26  2  0  0  0
 26 27  1  0  0  0
 27 28  1  0  0  0
 23 22  1  0  0  0
 22 21  1  0  0  0
 21 20  1  0  0  0
 20 19  1  0  0  0
 19 18  1  0  0  0
 18 17  1  0  0  0
 17 16  1  0  0  0
 16  1  1  0  0  0
  1  2  1  0  0  0
  1  9  1  0  0  0
  2  3  1  0  0  0
  2  4  1  0  0  0
  4  5  1  0  0  0
  4  6  1  0  0  0
  6  7  1  0  0  0
  6  8  1  0  0  0
  8  9  1  0  0  0
  8 13  1  0  0  0
 13 14  1  0  0  0
  3 10  1  0  0  0
  5 11  1  0  0  0
  7 12  1  0  0  0
 14 15  1  0  0  0
M  END
> <minimizedAffinity>
-5.17980

$$$$
