1G2L_T87_A_1


 43 47  0  0  0  0  0  0  0  0999 V2000
    6.3926    7.4542   21.7582 N   0  0  0  0  0  0  0  0  0  0  0  0
    7.0365    8.5005   21.0843 C   0  0  0  0  0  0  0  0  0  0  0  0
    7.6212    8.2869   19.8072 N   0  0  0  0  0  0  0  0  0  0  0  0
    7.3002    6.9293   19.6708 C   0  0  0  0  0  0  0  0  0  0  0  0
    6.5608    6.4431   20.8498 C   0  0  0  0  0  0  0  0  0  0  0  0
    7.5986    6.0073   18.5708 C   0  0  0  0  0  0  0  0  0  0  0  0
    7.1720    4.6535   18.6604 C   0  0  0  0  0  0  0  0  0  0  0  0
    6.4324    4.1191   19.8219 C   0  0  0  0  0  0  0  0  0  0  0  0
    6.1224    5.0489   20.9297 C   0  0  0  0  0  0  0  0  0  0  0  0
    8.3663    9.2111   18.8777 C   0  0  0  0  0  0  0  0  0  0  0  0
    5.0236    1.9844   20.8102 C   0  0  0  0  0  0  0  0  0  0  0  0
    6.4606    1.8764   21.3017 C   0  0  0  0  0  0  0  0  0  0  0  0
    6.1695    2.5266   19.9387 C   0  0  0  0  0  0  0  0  0  0  0  0
    6.0389    1.9085   18.4679 C   0  0  0  0  0  0  0  0  0  0  0  0
    4.9312    2.0180   17.7650 N   0  0  0  0  0  0  0  0  0  0  0  0
    7.0736    0.6007   16.4708 N   0  0  0  0  0  0  0  0  0  0  0  0
    7.2620    1.2138   17.7636 C   0  0  0  0  0  0  0  0  0  0  0  0
    8.5873    1.1818   18.3557 C   0  0  0  0  0  0  0  0  0  0  0  0
    9.6669    0.5395   17.6426 C   0  0  0  0  0  0  0  0  0  0  0  0
    9.4646   -0.0738   16.3521 C   0  0  0  0  0  0  0  0  0  0  0  0
    8.1593   -0.0428   15.7604 C   0  0  0  0  0  0  0  0  0  0  0  0
    3.7018    2.6928   18.2695 O   0  0  0  0  0  0  0  0  0  0  0  0
    3.1263    3.5023   17.2304 C   0  0  0  0  0  0  0  0  0  0  0  0
    3.9855    4.7682   17.0122 C   0  0  0  0  0  0  0  0  0  0  0  0
    3.8613    5.7163   17.8081 O   0  0  0  0  0  0  0  0  0  0  0  0
    4.8678    4.8081   15.9326 O   0  0  0  0  0  0  0  0  0  0  0  0
    5.0713    5.2115   13.5350 C   0  0  0  0  0  0  0  0  0  0  0  0
    4.2485    4.5435   14.6534 C   0  0  0  0  0  0  0  0  0  0  0  0
    7.0949    9.8763   21.8021 C   0  0  0  0  0  0  0  0  0  0  0  0
    8.3394   10.1115   22.6135 N   0  0  0  0  0  0  0  0  0  0  0  0
    8.8469   10.9214   22.3771 H   0  0  0  0  0  0  0  0  0  0  0  0
    9.9785    7.6670   25.8986 C   0  0  0  0  0  0  0  0  0  0  0  0
   10.8479    8.5299   25.0866 C   0  0  0  0  0  0  0  0  0  0  0  0
   10.3339    9.3310   24.0200 C   0  0  0  0  0  0  0  0  0  0  0  0
    8.9083    9.3154   23.7021 C   0  0  0  0  0  0  0  0  0  0  0  0
    8.0135    8.4847   24.4781 C   0  0  0  0  0  0  0  0  0  0  0  0
    8.5333    7.6727   25.5572 C   0  0  0  0  0  0  0  0  0  0  0  0
    9.8896    5.8417   27.4890 N   0  0  0  0  0  0  0  0  0  0  0  0
   11.6577    7.1056   27.5641 N   0  0  0  0  0  0  0  0  0  0  0  0
   10.5158    6.8736   26.9374 C   0  0  0  0  0  0  0  0  0  0  0  0
   10.3232    5.3312   28.2105 H   0  0  0  0  0  0  0  0  0  0  0  0
   11.9588    6.4996   28.2792 H   0  0  0  0  0  0  0  0  0  0  0  0
   12.2064    7.8843   27.3153 H   0  0  0  0  0  0  0  0  0  0  0  0
 38 40  2  0  0  0
 39 40  1  0  0  0
 40 32  1  0  0  0
 32 33  2  0  0  0
 32 37  1  0  0  0
 33 34  1  0  0  0
 34 35  2  0  0  0
 35 36  1  0  0  0
 35 30  1  0  0  0
 36 37  2  0  0  0
 30 29  1  0  0  0
 29  2  1  0  0  0
  1  2  2  0  0  0
  1  5  1  0  0  0
  2  3  1  0  0  0
  3  4  1  0  0  0
  3 10  1  0  0  0
  4  5  2  0  0  0
  4  6  1  0  0  0
  5  9  1  0  0  0
  6  7  2  0  0  0
  7  8  1  0  0  0
  8  9  2  0  0  0
  8 13  1  0  0  0
 11 12  1  0  0  0
 11 13  1  0  0  0
 12 13  1  0  0  0
 13 14  1  0  0  0
 14 15  2  0  0  0
 14 17  1  0  0  0
 15 22  1  0  0  0
 16 17  2  0  0  0
 16 21  1  0  0  0
 17 18  1  0  0  0
 18 19  2  0  0  0
 19 20  1  0  0  0
 20 21  2  0  0  0
 22 23  1  0  0  0
 23 24  1  0  0  0
 24 25  2  0  0  0
 24 26  1  0  0  0
 26 28  1  0  0  0
 27 28  1  0  0  0
 38 41  1  0  0  0
 39 42  1  0  0  0
 39 43  1  0  0  0
 30 31  1  0  0  0
M  END
> <minimizedAffinity>
-9.75382

$$$$
1G2L_T87_A_1


 43 47  0  0  0  0  0  0  0  0999 V2000
    8.0151    7.1569   19.5879 N   0  0  0  0  0  0  0  0  0  0  0  0
    7.6241    8.4888   19.7789 C   0  0  0  0  0  0  0  0  0  0  0  0
    6.3683    8.9497   19.3003 N   0  0  0  0  0  0  0  0  0  0  0  0
    5.9216    7.7469   18.7361 C   0  0  0  0  0  0  0  0  0  0  0  0
    6.9207    6.6782   18.9179 C   0  0  0  0  0  0  0  0  0  0  0  0
    4.6676    7.4558   18.0349 C   0  0  0  0  0  0  0  0  0  0  0  0
    4.4356    6.1441   17.5363 C   0  0  0  0  0  0  0  0  0  0  0  0
    5.4071    5.0423   17.6904 C   0  0  0  0  0  0  0  0  0  0  0  0
    6.6697    5.3306   18.4048 C   0  0  0  0  0  0  0  0  0  0  0  0
    5.7077   10.3038   19.3595 C   0  0  0  0  0  0  0  0  0  0  0  0
    5.6712    3.4444   15.4778 C   0  0  0  0  0  0  0  0  0  0  0  0
    4.1868    3.6766   15.7241 C   0  0  0  0  0  0  0  0  0  0  0  0
    5.1596    3.6437   16.9148 C   0  0  0  0  0  0  0  0  0  0  0  0
    5.6907    2.4393   17.8256 C   0  0  0  0  0  0  0  0  0  0  0  0
    4.9782    1.9560   18.8216 N   0  0  0  0  0  0  0  0  0  0  0  0
    7.1255    0.7851   16.4205 N   0  0  0  0  0  0  0  0  0  0  0  0
    7.0563    1.7228   17.5153 C   0  0  0  0  0  0  0  0  0  0  0  0
    8.2641    1.9836   18.2777 C   0  0  0  0  0  0  0  0  0  0  0  0
    9.4866    1.2999   17.9245 C   0  0  0  0  0  0  0  0  0  0  0  0
    9.5418    0.3611   16.8300 C   0  0  0  0  0  0  0  0  0  0  0  0
    8.3536    0.1016   16.0711 C   0  0  0  0  0  0  0  0  0  0  0  0
    3.6420    2.4898   19.2102 O   0  0  0  0  0  0  0  0  0  0  0  0
    3.4841    2.4225   20.6373 C   0  0  0  0  0  0  0  0  0  0  0  0
    4.8055    2.8206   21.3327 C   0  0  0  0  0  0  0  0  0  0  0  0
    5.4306    1.9507   21.9655 O   0  0  0  0  0  0  0  0  0  0  0  0
    5.2523    4.1380   21.2311 O   0  0  0  0  0  0  0  0  0  0  0  0
    4.8589    6.4366   21.9484 C   0  0  0  0  0  0  0  0  0  0  0  0
    4.2210    5.1294   21.4399 C   0  0  0  0  0  0  0  0  0  0  0  0
    8.6255    9.4238   20.5099 C   0  0  0  0  0  0  0  0  0  0  0  0
    8.2712    9.7330   21.9386 N   0  0  0  0  0  0  0  0  0  0  0  0
    7.6125   10.4544   22.0603 H   0  0  0  0  0  0  0  0  0  0  0  0
    9.6742    7.8348   25.6647 C   0  0  0  0  0  0  0  0  0  0  0  0
   10.5580    8.7036   24.8749 C   0  0  0  0  0  0  0  0  0  0  0  0
   10.1196    9.3293   23.6666 C   0  0  0  0  0  0  0  0  0  0  0  0
    8.7601    9.1207   23.1750 C   0  0  0  0  0  0  0  0  0  0  0  0
    7.8530    8.2771   23.9224 C   0  0  0  0  0  0  0  0  0  0  0  0
    8.2964    7.6425   25.1449 C   0  0  0  0  0  0  0  0  0  0  0  0
   11.4107    7.1862   27.2244 N   0  0  0  0  0  0  0  0  0  0  0  0
    9.3961    6.5063   27.6812 N   0  0  0  0  0  0  0  0  0  0  0  0
   10.1386    7.2166   26.8475 C   0  0  0  0  0  0  0  0  0  0  0  0
   11.6651    6.7370   28.0627 H   0  0  0  0  0  0  0  0  0  0  0  0
    9.8019    6.1091   28.4854 H   0  0  0  0  0  0  0  0  0  0  0  0
    8.4379    6.3751   27.4972 H   0  0  0  0  0  0  0  0  0  0  0  0
 38 40  2  0  0  0
 39 40  1  0  0  0
 40 32  1  0  0  0
 32 33  2  0  0  0
 32 37  1  0  0  0
 33 34  1  0  0  0
 34 35  2  0  0  0
 35 36  1  0  0  0
 35 30  1  0  0  0
 36 37  2  0  0  0
 30 29  1  0  0  0
 29  2  1  0  0  0
  1  2  2  0  0  0
  1  5  1  0  0  0
  2  3  1  0  0  0
  3  4  1  0  0  0
  3 10  1  0  0  0
  4  5  2  0  0  0
  4  6  1  0  0  0
  5  9  1  0  0  0
  6  7  2  0  0  0
  7  8  1  0  0  0
  8  9  2  0  0  0
  8 13  1  0  0  0
 11 12  1  0  0  0
 11 13  1  0  0  0
 12 13  1  0  0  0
 13 14  1  0  0  0
 14 15  2  0  0  0
 14 17  1  0  0  0
 15 22  1  0  0  0
 16 17  2  0  0  0
 16 21  1  0  0  0
 17 18  1  0  0  0
 18 19  2  0  0  0
 19 20  1  0  0  0
 20 21  2  0  0  0
 22 23  1  0  0  0
 23 24  1  0  0  0
 24 25  2  0  0  0
 24 26  1  0  0  0
 26 28  1  0  0  0
 27 28  1  0  0  0
 38 41  1  0  0  0
 39 42  1  0  0  0
 39 43  1  0  0  0
 30 31  1  0  0  0
M  END
> <minimizedAffinity>
-9.18912

$$$$
1G2L_T87_A_1


 43 47  0  0  0  0  0  0  0  0999 V2000
    7.9365    7.2314   19.3711 N   0  0  0  0  0  0  0  0  0  0  0  0
    7.4391    8.3951   19.9726 C   0  0  0  0  0  0  0  0  0  0  0  0
    6.0421    8.6519   20.0056 N   0  0  0  0  0  0  0  0  0  0  0  0
    5.6161    7.4973   19.3346 C   0  0  0  0  0  0  0  0  0  0  0  0
    6.7650    6.6526   18.9609 C   0  0  0  0  0  0  0  0  0  0  0  0
    4.2579    7.0699   18.9860 C   0  0  0  0  0  0  0  0  0  0  0  0
    4.0697    5.8455   18.2874 C   0  0  0  0  0  0  0  0  0  0  0  0
    5.1886    4.9678   17.8884 C   0  0  0  0  0  0  0  0  0  0  0  0
    6.5597    5.3920   18.2461 C   0  0  0  0  0  0  0  0  0  0  0  0
    5.2465    9.8018   20.5695 C   0  0  0  0  0  0  0  0  0  0  0  0
    5.4240    3.6998   15.4686 C   0  0  0  0  0  0  0  0  0  0  0  0
    3.9450    3.9383   15.7403 C   0  0  0  0  0  0  0  0  0  0  0  0
    4.9067    3.7042   16.9174 C   0  0  0  0  0  0  0  0  0  0  0  0
    5.3951    2.3652   17.6460 C   0  0  0  0  0  0  0  0  0  0  0  0
    4.5877    1.6540   18.4046 N   0  0  0  0  0  0  0  0  0  0  0  0
    7.0673    0.8539   16.3464 N   0  0  0  0  0  0  0  0  0  0  0  0
    6.8430    1.7941   17.4180 C   0  0  0  0  0  0  0  0  0  0  0  0
    7.9756    2.1928   18.2342 C   0  0  0  0  0  0  0  0  0  0  0  0
    9.2801    1.6385   17.9556 C   0  0  0  0  0  0  0  0  0  0  0  0
    9.4905    0.6956   16.8836 C   0  0  0  0  0  0  0  0  0  0  0  0
    8.3771    0.3004   16.0718 C   0  0  0  0  0  0  0  0  0  0  0  0
    3.1720    2.0318   18.6773 O   0  0  0  0  0  0  0  0  0  0  0  0
    3.0369    2.4747   20.0381 C   0  0  0  0  0  0  0  0  0  0  0  0
    3.1063    1.2636   20.9955 C   0  0  0  0  0  0  0  0  0  0  0  0
    2.2020    0.4108   20.9427 O   0  0  0  0  0  0  0  0  0  0  0  0
    4.1752    1.1669   21.8863 O   0  0  0  0  0  0  0  0  0  0  0  0
    6.4445    1.9277   21.4131 C   0  0  0  0  0  0  0  0  0  0  0  0
    5.0385    2.3264   21.9013 C   0  0  0  0  0  0  0  0  0  0  0  0
    8.4768    9.3822   20.5727 C   0  0  0  0  0  0  0  0  0  0  0  0
    8.2386    9.7491   22.0119 N   0  0  0  0  0  0  0  0  0  0  0  0
    7.6915   10.5551   22.1538 H   0  0  0  0  0  0  0  0  0  0  0  0
    9.6994    7.8009   25.6896 C   0  0  0  0  0  0  0  0  0  0  0  0
    8.3103    7.6322   25.2405 C   0  0  0  0  0  0  0  0  0  0  0  0
    7.8202    8.2536   24.0500 C   0  0  0  0  0  0  0  0  0  0  0  0
    8.6994    9.0860   23.2328 C   0  0  0  0  0  0  0  0  0  0  0  0
   10.0764    9.2764   23.6332 C   0  0  0  0  0  0  0  0  0  0  0  0
   10.5728    8.6487   24.8388 C   0  0  0  0  0  0  0  0  0  0  0  0
   11.4239    7.1445   27.2593 N   0  0  0  0  0  0  0  0  0  0  0  0
    9.3998    6.4940   27.7171 N   0  0  0  0  0  0  0  0  0  0  0  0
   10.1531    7.1875   26.8790 C   0  0  0  0  0  0  0  0  0  0  0  0
   11.6707    6.6996   28.1021 H   0  0  0  0  0  0  0  0  0  0  0  0
    9.7987    6.0989   28.5258 H   0  0  0  0  0  0  0  0  0  0  0  0
    8.4405    6.3732   27.5320 H   0  0  0  0  0  0  0  0  0  0  0  0
 38 40  2  0  0  0
 39 40  1  0  0  0
 40 32  1  0  0  0
 32 33  2  0  0  0
 32 37  1  0  0  0
 33 34  1  0  0  0
 34 35  2  0  0  0
 35 36  1  0  0  0
 35 30  1  0  0  0
 36 37  2  0  0  0
 30 29  1  0  0  0
 29  2  1  0  0  0
  1  2  2  0  0  0
  1  5  1  0  0  0
  2  3  1  0  0  0
  3  4  1  0  0  0
  3 10  1  0  0  0
  4  5  2  0  0  0
  4  6  1  0  0  0
  5  9  1  0  0  0
  6  7  2  0  0  0
  7  8  1  0  0  0
  8  9  2  0  0  0
  8 13  1  0  0  0
 11 12  1  0  0  0
 11 13  1  0  0  0
 12 13  1  0  0  0
 13 14  1  0  0  0
 14 15  2  0  0  0
 14 17  1  0  0  0
 15 22  1  0  0  0
 16 17  2  0  0  0
 16 21  1  0  0  0
 17 18  1  0  0  0
 18 19  2  0  0  0
 19 20  1  0  0  0
 20 21  2  0  0  0
 22 23  1  0  0  0
 23 24  1  0  0  0
 24 25  2  0  0  0
 24 26  1  0  0  0
 26 28  1  0  0  0
 27 28  1  0  0  0
 38 41  1  0  0  0
 39 42  1  0  0  0
 39 43  1  0  0  0
 30 31  1  0  0  0
M  END
> <minimizedAffinity>
-9.12553

$$$$
1G2L_T87_A_1


 43 47  0  0  0  0  0  0  0  0999 V2000
    7.6179    7.3768   21.2828 N   0  0  0  0  0  0  0  0  0  0  0  0
    7.7064    8.4406   20.3750 C   0  0  0  0  0  0  0  0  0  0  0  0
    7.2581    8.2875   19.0356 N   0  0  0  0  0  0  0  0  0  0  0  0
    6.8381    6.9531   19.1221 C   0  0  0  0  0  0  0  0  0  0  0  0
    7.0589    6.4196   20.4785 C   0  0  0  0  0  0  0  0  0  0  0  0
    6.2513    6.0922   18.0908 C   0  0  0  0  0  0  0  0  0  0  0  0
    5.9067    4.7510   18.4151 C   0  0  0  0  0  0  0  0  0  0  0  0
    6.1122    4.1706   19.7576 C   0  0  0  0  0  0  0  0  0  0  0  0
    6.6963    5.0391   20.8027 C   0  0  0  0  0  0  0  0  0  0  0  0
    7.2399    9.2420   17.8685 C   0  0  0  0  0  0  0  0  0  0  0  0
    4.7679    2.0751   20.9067 C   0  0  0  0  0  0  0  0  0  0  0  0
    6.2127    2.0350   21.3854 C   0  0  0  0  0  0  0  0  0  0  0  0
    5.8899    2.5839   19.9854 C   0  0  0  0  0  0  0  0  0  0  0  0
    5.7577    1.8643   18.5617 C   0  0  0  0  0  0  0  0  0  0  0  0
    4.6066    1.7868   17.9276 N   0  0  0  0  0  0  0  0  0  0  0  0
    6.8685    0.7619   16.4832 N   0  0  0  0  0  0  0  0  0  0  0  0
    7.0192    1.2903   17.8177 C   0  0  0  0  0  0  0  0  0  0  0  0
    8.3427    1.2890   18.4147 C   0  0  0  0  0  0  0  0  0  0  0  0
    9.4581    0.7598   17.6646 C   0  0  0  0  0  0  0  0  0  0  0  0
    9.2934    0.2303   16.3323 C   0  0  0  0  0  0  0  0  0  0  0  0
    7.9900    0.2316   15.7358 C   0  0  0  0  0  0  0  0  0  0  0  0
    3.3300    2.3280   18.4740 O   0  0  0  0  0  0  0  0  0  0  0  0
    2.7705    3.2828   17.5566 C   0  0  0  0  0  0  0  0  0  0  0  0
    1.8213    4.2424   18.3090 C   0  0  0  0  0  0  0  0  0  0  0  0
    1.2204    5.1163   17.6585 O   0  0  0  0  0  0  0  0  0  0  0  0
    1.6708    4.1002   19.6883 O   0  0  0  0  0  0  0  0  0  0  0  0
    2.9994    5.7527   20.8952 C   0  0  0  0  0  0  0  0  0  0  0  0
    1.5941    5.3525   20.4065 C   0  0  0  0  0  0  0  0  0  0  0  0
    8.3277    9.7657   20.8939 C   0  0  0  0  0  0  0  0  0  0  0  0
    8.1676   10.0009   22.3709 N   0  0  0  0  0  0  0  0  0  0  0  0
    7.5822   10.7542   22.6142 H   0  0  0  0  0  0  0  0  0  0  0  0
    9.8559    7.7719   25.7820 C   0  0  0  0  0  0  0  0  0  0  0  0
   10.7099    8.5959   24.9152 C   0  0  0  0  0  0  0  0  0  0  0  0
   10.1798    9.3273   23.8071 C   0  0  0  0  0  0  0  0  0  0  0  0
    8.7526    9.2765   23.5003 C   0  0  0  0  0  0  0  0  0  0  0  0
    7.8726    8.4822   24.3295 C   0  0  0  0  0  0  0  0  0  0  0  0
    8.4086    7.7408   25.4506 C   0  0  0  0  0  0  0  0  0  0  0  0
    9.7490    6.1354   27.5651 N   0  0  0  0  0  0  0  0  0  0  0  0
   11.6111    7.2433   27.3784 N   0  0  0  0  0  0  0  0  0  0  0  0
   10.4090    7.0469   26.8616 C   0  0  0  0  0  0  0  0  0  0  0  0
   10.1965    5.6668   28.3063 H   0  0  0  0  0  0  0  0  0  0  0  0
   11.9187    6.6908   28.1330 H   0  0  0  0  0  0  0  0  0  0  0  0
   12.1979    7.9418   27.0084 H   0  0  0  0  0  0  0  0  0  0  0  0
 38 40  2  0  0  0
 39 40  1  0  0  0
 40 32  1  0  0  0
 32 33  2  0  0  0
 32 37  1  0  0  0
 33 34  1  0  0  0
 34 35  2  0  0  0
 35 36  1  0  0  0
 35 30  1  0  0  0
 36 37  2  0  0  0
 30 29  1  0  0  0
 29  2  1  0  0  0
  1  2  2  0  0  0
  1  5  1  0  0  0
  2  3  1  0  0  0
  3  4  1  0  0  0
  3 10  1  0  0  0
  4  5  2  0  0  0
  4  6  1  0  0  0
  5  9  1  0  0  0
  6  7  2  0  0  0
  7  8  1  0  0  0
  8  9  2  0  0  0
  8 13  1  0  0  0
 11 12  1  0  0  0
 11 13  1  0  0  0
 12 13  1  0  0  0
 13 14  1  0  0  0
 14 15  2  0  0  0
 14 17  1  0  0  0
 15 22  1  0  0  0
 16 17  2  0  0  0
 16 21  1  0  0  0
 17 18  1  0  0  0
 18 19  2  0  0  0
 19 20  1  0  0  0
 20 21  2  0  0  0
 22 23  1  0  0  0
 23 24  1  0  0  0
 24 25  2  0  0  0
 24 26  1  0  0  0
 26 28  1  0  0  0
 27 28  1  0  0  0
 38 41  1  0  0  0
 39 42  1  0  0  0
 39 43  1  0  0  0
 30 31  1  0  0  0
M  END
> <minimizedAffinity>
-9.09403

$$$$
1G2L_T87_A_1


 43 47  0  0  0  0  0  0  0  0999 V2000
    6.7609    4.9291   19.8082 N   0  0  0  0  0  0  0  0  0  0  0  0
    5.7217    4.3988   19.0322 C   0  0  0  0  0  0  0  0  0  0  0  0
    4.3903    4.8701   19.1868 N   0  0  0  0  0  0  0  0  0  0  0  0
    4.6342    5.8158   20.1923 C   0  0  0  0  0  0  0  0  0  0  0  0
    6.0630    5.8412   20.5544 C   0  0  0  0  0  0  0  0  0  0  0  0
    3.6968    6.7123   20.8753 C   0  0  0  0  0  0  0  0  0  0  0  0
    4.1814    7.5925   21.8820 C   0  0  0  0  0  0  0  0  0  0  0  0
    5.6020    7.6516   22.2818 C   0  0  0  0  0  0  0  0  0  0  0  0
    6.5518    6.7542   21.5887 C   0  0  0  0  0  0  0  0  0  0  0  0
    3.1032    4.4828   18.5036 C   0  0  0  0  0  0  0  0  0  0  0  0
    5.8758    7.9527   24.9935 C   0  0  0  0  0  0  0  0  0  0  0  0
    4.8979    9.0068   24.4927 C   0  0  0  0  0  0  0  0  0  0  0  0
    6.0334    8.5249   23.5742 C   0  0  0  0  0  0  0  0  0  0  0  0
    7.5397    9.0317   23.3842 C   0  0  0  0  0  0  0  0  0  0  0  0
    7.8694    9.8904   22.4422 N   0  0  0  0  0  0  0  0  0  0  0  0
    9.9809    9.2049   24.2676 N   0  0  0  0  0  0  0  0  0  0  0  0
    8.6804    8.5879   24.3723 C   0  0  0  0  0  0  0  0  0  0  0  0
    8.4714    7.5905   25.4065 C   0  0  0  0  0  0  0  0  0  0  0  0
    9.5618    7.2449   26.2886 C   0  0  0  0  0  0  0  0  0  0  0  0
   10.8590    7.8662   26.1709 C   0  0  0  0  0  0  0  0  0  0  0  0
   11.0710    8.8541   25.1541 C   0  0  0  0  0  0  0  0  0  0  0  0
    6.8958   10.4458   21.4600 O   0  0  0  0  0  0  0  0  0  0  0  0
    7.5848   10.8603   20.2685 C   0  0  0  0  0  0  0  0  0  0  0  0
    7.6859   12.4019   20.2280 C   0  0  0  0  0  0  0  0  0  0  0  0
    8.1177   12.9965   21.2319 O   0  0  0  0  0  0  0  0  0  0  0  0
    7.2891   13.0749   19.0725 O   0  0  0  0  0  0  0  0  0  0  0  0
    5.3548   12.4608   17.7184 C   0  0  0  0  0  0  0  0  0  0  0  0
    5.8585   13.2414   18.9476 C   0  0  0  0  0  0  0  0  0  0  0  0
    6.0904    3.2745   18.0265 C   0  0  0  0  0  0  0  0  0  0  0  0
    7.5592    2.9617   17.9416 N   0  0  0  0  0  0  0  0  0  0  0  0
    8.1572    3.6583   18.2973 H   0  0  0  0  0  0  0  0  0  0  0  0
    9.5270   -0.6147   16.2708 C   0  0  0  0  0  0  0  0  0  0  0  0
   10.1806    0.1987   17.3057 C   0  0  0  0  0  0  0  0  0  0  0  0
    9.5568    1.3591   17.8606 C   0  0  0  0  0  0  0  0  0  0  0  0
    8.2318    1.7758   17.4088 C   0  0  0  0  0  0  0  0  0  0  0  0
    7.5479    1.0026   16.3952 C   0  0  0  0  0  0  0  0  0  0  0  0
    8.1792   -0.1716   15.8323 C   0  0  0  0  0  0  0  0  0  0  0  0
   11.3977   -2.1393   16.0589 N   0  0  0  0  0  0  0  0  0  0  0  0
    9.6949   -2.5099   14.7579 N   0  0  0  0  0  0  0  0  0  0  0  0
   10.1732   -1.7485   15.7287 C   0  0  0  0  0  0  0  0  0  0  0  0
   11.7880   -2.9409   15.6413 H   0  0  0  0  0  0  0  0  0  0  0  0
   10.2129   -3.2839   14.4389 H   0  0  0  0  0  0  0  0  0  0  0  0
    8.8211   -2.3023   14.3547 H   0  0  0  0  0  0  0  0  0  0  0  0
 38 40  2  0  0  0
 39 40  1  0  0  0
 40 32  1  0  0  0
 32 33  2  0  0  0
 32 37  1  0  0  0
 33 34  1  0  0  0
 34 35  2  0  0  0
 35 36  1  0  0  0
 35 30  1  0  0  0
 36 37  2  0  0  0
 30 29  1  0  0  0
 29  2  1  0  0  0
  1  2  2  0  0  0
  1  5  1  0  0  0
  2  3  1  0  0  0
  3  4  1  0  0  0
  3 10  1  0  0  0
  4  5  2  0  0  0
  4  6  1  0  0  0
  5  9  1  0  0  0
  6  7  2  0  0  0
  7  8  1  0  0  0
  8  9  2  0  0  0
  8 13  1  0  0  0
 11 12  1  0  0  0
 11 13  1  0  0  0
 12 13  1  0  0  0
 13 14  1  0  0  0
 14 15  2  0  0  0
 14 17  1  0  0  0
 15 22  1  0  0  0
 16 17  2  0  0  0
 16 21  1  0  0  0
 17 18  1  0  0  0
 18 19  2  0  0  0
 19 20  1  0  0  0
 20 21  2  0  0  0
 22 23  1  0  0  0
 23 24  1  0  0  0
 24 25  2  0  0  0
 24 26  1  0  0  0
 26 28  1  0  0  0
 27 28  1  0  0  0
 38 41  1  0  0  0
 39 42  1  0  0  0
 39 43  1  0  0  0
 30 31  1  0  0  0
M  END
> <minimizedAffinity>
-8.86834

$$$$
1G2L_T87_A_1


 43 47  0  0  0  0  0  0  0  0999 V2000
    4.5782    4.7574   19.3195 N   0  0  0  0  0  0  0  0  0  0  0  0
    3.7248    4.2983   20.3318 C   0  0  0  0  0  0  0  0  0  0  0  0
    3.6554    4.9727   21.5804 N   0  0  0  0  0  0  0  0  0  0  0  0
    4.5899    5.9816   21.3089 C   0  0  0  0  0  0  0  0  0  0  0  0
    5.1347    5.8404   19.9464 C   0  0  0  0  0  0  0  0  0  0  0  0
    5.0537    7.0770   22.1656 C   0  0  0  0  0  0  0  0  0  0  0  0
    6.0275    7.9867   21.6686 C   0  0  0  0  0  0  0  0  0  0  0  0
    6.6053    7.8842   20.3132 C   0  0  0  0  0  0  0  0  0  0  0  0
    6.1332    6.7850   19.4433 C   0  0  0  0  0  0  0  0  0  0  0  0
    2.8471    4.7010   22.8238 C   0  0  0  0  0  0  0  0  0  0  0  0
    8.0478    9.2805   18.4455 C   0  0  0  0  0  0  0  0  0  0  0  0
    8.9412    8.1901   19.0208 C   0  0  0  0  0  0  0  0  0  0  0  0
    7.8546    8.8275   19.9030 C   0  0  0  0  0  0  0  0  0  0  0  0
    7.8713   10.1160   20.8526 C   0  0  0  0  0  0  0  0  0  0  0  0
    8.5393   10.1334   21.9869 N   0  0  0  0  0  0  0  0  0  0  0  0
    7.8562   12.7036   20.5815 N   0  0  0  0  0  0  0  0  0  0  0  0
    7.1557   11.4511   20.4284 C   0  0  0  0  0  0  0  0  0  0  0  0
    5.8174   11.4735   19.8659 C   0  0  0  0  0  0  0  0  0  0  0  0
    5.2301   12.7368   19.4840 C   0  0  0  0  0  0  0  0  0  0  0  0
    5.9395   13.9830   19.6461 C   0  0  0  0  0  0  0  0  0  0  0  0
    7.2624   13.9676   20.1978 C   0  0  0  0  0  0  0  0  0  0  0  0
    9.3108    8.9676   22.5035 O   0  0  0  0  0  0  0  0  0  0  0  0
    9.7005    9.2038   23.8668 C   0  0  0  0  0  0  0  0  0  0  0  0
    9.0422    8.1555   24.7919 C   0  0  0  0  0  0  0  0  0  0  0  0
    8.2440    7.3409   24.2949 O   0  0  0  0  0  0  0  0  0  0  0  0
    9.3610    8.1576   26.1498 O   0  0  0  0  0  0  0  0  0  0  0  0
   11.6035    7.3453   26.6638 C   0  0  0  0  0  0  0  0  0  0  0  0
   10.1048    6.9964   26.5838 C   0  0  0  0  0  0  0  0  0  0  0  0
    2.8887    3.0249   20.0309 C   0  0  0  0  0  0  0  0  0  0  0  0
    3.6996    1.7822   19.7846 N   0  0  0  0  0  0  0  0  0  0  0  0
    3.3149    0.9520   20.1479 H   0  0  0  0  0  0  0  0  0  0  0  0
    7.5021    1.3111   17.5997 C   0  0  0  0  0  0  0  0  0  0  0  0
    7.4839    1.5783   19.0447 C   0  0  0  0  0  0  0  0  0  0  0  0
    6.2613    1.7311   19.7696 C   0  0  0  0  0  0  0  0  0  0  0  0
    4.9755    1.6236   19.0851 C   0  0  0  0  0  0  0  0  0  0  0  0
    4.9444    1.3563   17.6636 C   0  0  0  0  0  0  0  0  0  0  0  0
    6.1816    1.2027   16.9290 C   0  0  0  0  0  0  0  0  0  0  0  0
    9.9085    1.5124   17.4067 N   0  0  0  0  0  0  0  0  0  0  0  0
    8.8516    0.8066   15.6420 N   0  0  0  0  0  0  0  0  0  0  0  0
    8.7257    1.1797   16.9052 C   0  0  0  0  0  0  0  0  0  0  0  0
   10.7231    1.3944   16.8665 H   0  0  0  0  0  0  0  0  0  0  0  0
    9.7456    0.7408   15.2349 H   0  0  0  0  0  0  0  0  0  0  0  0
    8.0513    0.5946   15.1092 H   0  0  0  0  0  0  0  0  0  0  0  0
 38 40  2  0  0  0
 39 40  1  0  0  0
 40 32  1  0  0  0
 32 33  2  0  0  0
 32 37  1  0  0  0
 33 34  1  0  0  0
 34 35  2  0  0  0
 35 36  1  0  0  0
 35 30  1  0  0  0
 36 37  2  0  0  0
 30 29  1  0  0  0
 29  2  1  0  0  0
  1  2  2  0  0  0
  1  5  1  0  0  0
  2  3  1  0  0  0
  3  4  1  0  0  0
  3 10  1  0  0  0
  4  5  2  0  0  0
  4  6  1  0  0  0
  5  9  1  0  0  0
  6  7  2  0  0  0
  7  8  1  0  0  0
  8  9  2  0  0  0
  8 13  1  0  0  0
 11 12  1  0  0  0
 11 13  1  0  0  0
 12 13  1  0  0  0
 13 14  1  0  0  0
 14 15  2  0  0  0
 14 17  1  0  0  0
 15 22  1  0  0  0
 16 17  2  0  0  0
 16 21  1  0  0  0
 17 18  1  0  0  0
 18 19  2  0  0  0
 19 20  1  0  0  0
 20 21  2  0  0  0
 22 23  1  0  0  0
 23 24  1  0  0  0
 24 25  2  0  0  0
 24 26  1  0  0  0
 26 28  1  0  0  0
 27 28  1  0  0  0
 38 41  1  0  0  0
 39 42  1  0  0  0
 39 43  1  0  0  0
 30 31  1  0  0  0
M  END
> <minimizedAffinity>
-8.79839

$$$$
1G2L_T87_A_1


 43 47  0  0  0  0  0  0  0  0999 V2000
    6.8650    6.9785   21.7015 N   0  0  0  0  0  0  0  0  0  0  0  0
    5.7629    7.2152   22.5339 C   0  0  0  0  0  0  0  0  0  0  0  0
    4.6494    6.3329   22.5282 N   0  0  0  0  0  0  0  0  0  0  0  0
    5.1207    5.4310   21.5642 C   0  0  0  0  0  0  0  0  0  0  0  0
    6.4536    5.8308   21.0777 C   0  0  0  0  0  0  0  0  0  0  0  0
    4.4824    4.2270   21.0238 C   0  0  0  0  0  0  0  0  0  0  0  0
    5.1595    3.4636   20.0331 C   0  0  0  0  0  0  0  0  0  0  0  0
    6.4932    3.8257   19.5118 C   0  0  0  0  0  0  0  0  0  0  0  0
    7.1435    5.0352   20.0612 C   0  0  0  0  0  0  0  0  0  0  0  0
    3.3537    6.3475   23.2992 C   0  0  0  0  0  0  0  0  0  0  0  0
    7.5721    1.5703   18.3859 C   0  0  0  0  0  0  0  0  0  0  0  0
    8.5990    2.6902   18.2885 C   0  0  0  0  0  0  0  0  0  0  0  0
    7.0991    3.0270   18.2415 C   0  0  0  0  0  0  0  0  0  0  0  0
    6.0636    3.1173   17.0242 C   0  0  0  0  0  0  0  0  0  0  0  0
    5.6482    4.2734   16.5508 N   0  0  0  0  0  0  0  0  0  0  0  0
    4.2560    1.2946   16.6005 N   0  0  0  0  0  0  0  0  0  0  0  0
    5.5607    1.8239   16.2836 C   0  0  0  0  0  0  0  0  0  0  0  0
    6.3523    1.1474   15.2718 C   0  0  0  0  0  0  0  0  0  0  0  0
    5.8181   -0.0268   14.6218 C   0  0  0  0  0  0  0  0  0  0  0  0
    4.5136   -0.5487   14.9508 C   0  0  0  0  0  0  0  0  0  0  0  0
    3.7255    0.1164   15.9464 C   0  0  0  0  0  0  0  0  0  0  0  0
    6.0723    5.5891   17.1080 O   0  0  0  0  0  0  0  0  0  0  0  0
    4.9438    6.4763   17.1814 C   0  0  0  0  0  0  0  0  0  0  0  0
    5.3427    7.7762   17.9157 C   0  0  0  0  0  0  0  0  0  0  0  0
    4.8430    8.0068   19.0315 O   0  0  0  0  0  0  0  0  0  0  0  0
    6.2451    8.6473   17.3054 O   0  0  0  0  0  0  0  0  0  0  0  0
    8.3128    8.3885   18.5744 C   0  0  0  0  0  0  0  0  0  0  0  0
    7.1341    9.3182   18.2272 C   0  0  0  0  0  0  0  0  0  0  0  0
    5.8118    8.4809   23.4323 C   0  0  0  0  0  0  0  0  0  0  0  0
    7.1589    9.1453   23.5124 N   0  0  0  0  0  0  0  0  0  0  0  0
    7.2378    9.9934   23.0187 H   0  0  0  0  0  0  0  0  0  0  0  0
   10.8525    7.9247   25.5912 C   0  0  0  0  0  0  0  0  0  0  0  0
    9.5433    7.3904   25.9913 C   0  0  0  0  0  0  0  0  0  0  0  0
    8.3363    7.7724   25.3274 C   0  0  0  0  0  0  0  0  0  0  0  0
    8.3699    8.7184   24.2150 C   0  0  0  0  0  0  0  0  0  0  0  0
    9.6371    9.2667   23.7830 C   0  0  0  0  0  0  0  0  0  0  0  0
   10.8591    8.8813   24.4554 C   0  0  0  0  0  0  0  0  0  0  0  0
   13.1882    7.2883   25.6821 N   0  0  0  0  0  0  0  0  0  0  0  0
   12.1108    7.2883   27.5712 N   0  0  0  0  0  0  0  0  0  0  0  0
   12.0283    7.5415   26.2751 C   0  0  0  0  0  0  0  0  0  0  0  0
   13.9693    7.0255   26.2207 H   0  0  0  0  0  0  0  0  0  0  0  0
   12.9730    7.0264   27.9677 H   0  0  0  0  0  0  0  0  0  0  0  0
   11.3100    7.3619   28.1391 H   0  0  0  0  0  0  0  0  0  0  0  0
 38 40  2  0  0  0
 39 40  1  0  0  0
 40 32  1  0  0  0
 32 33  2  0  0  0
 32 37  1  0  0  0
 33 34  1  0  0  0
 34 35  2  0  0  0
 35 36  1  0  0  0
 35 30  1  0  0  0
 36 37  2  0  0  0
 30 29  1  0  0  0
 29  2  1  0  0  0
  1  2  2  0  0  0
  1  5  1  0  0  0
  2  3  1  0  0  0
  3  4  1  0  0  0
  3 10  1  0  0  0
  4  5  2  0  0  0
  4  6  1  0  0  0
  5  9  1  0  0  0
  6  7  2  0  0  0
  7  8  1  0  0  0
  8  9  2  0  0  0
  8 13  1  0  0  0
 11 12  1  0  0  0
 11 13  1  0  0  0
 12 13  1  0  0  0
 13 14  1  0  0  0
 14 15  2  0  0  0
 14 17  1  0  0  0
 15 22  1  0  0  0
 16 17  2  0  0  0
 16 21  1  0  0  0
 17 18  1  0  0  0
 18 19  2  0  0  0
 19 20  1  0  0  0
 20 21  2  0  0  0
 22 23  1  0  0  0
 23 24  1  0  0  0
 24 25  2  0  0  0
 24 26  1  0  0  0
 26 28  1  0  0  0
 27 28  1  0  0  0
 38 41  1  0  0  0
 39 42  1  0  0  0
 39 43  1  0  0  0
 30 31  1  0  0  0
M  END
> <minimizedAffinity>
-8.68578

$$$$
1G2L_T87_A_1


 43 47  0  0  0  0  0  0  0  0999 V2000
    7.9538    7.2717   20.3114 N   0  0  0  0  0  0  0  0  0  0  0  0
    7.3609    8.4639   19.8745 C   0  0  0  0  0  0  0  0  0  0  0  0
    6.3756    8.4490   18.8510 N   0  0  0  0  0  0  0  0  0  0  0  0
    6.3554    7.0666   18.6204 C   0  0  0  0  0  0  0  0  0  0  0  0
    7.3075    6.3720   19.5061 C   0  0  0  0  0  0  0  0  0  0  0  0
    5.5560    6.2928   17.6658 C   0  0  0  0  0  0  0  0  0  0  0  0
    5.7146    4.8807   17.6065 C   0  0  0  0  0  0  0  0  0  0  0  0
    6.6575    4.1409   18.4699 C   0  0  0  0  0  0  0  0  0  0  0  0
    7.4595    4.9178   19.4399 C   0  0  0  0  0  0  0  0  0  0  0  0
    5.5927    9.5586   18.1959 C   0  0  0  0  0  0  0  0  0  0  0  0
    7.7131    1.7212   19.2111 C   0  0  0  0  0  0  0  0  0  0  0  0
    8.3841    2.1579   17.9161 C   0  0  0  0  0  0  0  0  0  0  0  0
    6.9288    2.5694   18.1952 C   0  0  0  0  0  0  0  0  0  0  0  0
    5.5363    1.8451   17.8809 C   0  0  0  0  0  0  0  0  0  0  0  0
    4.5777    1.7644   18.7797 N   0  0  0  0  0  0  0  0  0  0  0  0
    4.0350    0.4692   16.2616 N   0  0  0  0  0  0  0  0  0  0  0  0
    5.2205    1.2700   16.4512 C   0  0  0  0  0  0  0  0  0  0  0  0
    6.0679    1.5309   15.3015 C   0  0  0  0  0  0  0  0  0  0  0  0
    5.7057    0.9826   14.0151 C   0  0  0  0  0  0  0  0  0  0  0  0
    4.5196    0.1796   13.8394 C   0  0  0  0  0  0  0  0  0  0  0  0
    3.6768   -0.0789   14.9698 C   0  0  0  0  0  0  0  0  0  0  0  0
    4.7010    2.3060   20.1627 O   0  0  0  0  0  0  0  0  0  0  0  0
    3.4236    2.7833   20.6172 C   0  0  0  0  0  0  0  0  0  0  0  0
    3.5632    3.4004   22.0271 C   0  0  0  0  0  0  0  0  0  0  0  0
    3.8351    2.6495   22.9811 O   0  0  0  0  0  0  0  0  0  0  0  0
    3.3784    4.7739   22.1849 O   0  0  0  0  0  0  0  0  0  0  0  0
    4.4948    6.9132   21.8247 C   0  0  0  0  0  0  0  0  0  0  0  0
    4.0545    5.5789   21.1924 C   0  0  0  0  0  0  0  0  0  0  0  0
    7.8427    9.7811   20.5409 C   0  0  0  0  0  0  0  0  0  0  0  0
    7.5393    9.8919   22.0099 N   0  0  0  0  0  0  0  0  0  0  0  0
    6.8315   10.5349   22.2443 H   0  0  0  0  0  0  0  0  0  0  0  0
    9.4178    7.8192   25.4202 C   0  0  0  0  0  0  0  0  0  0  0  0
    8.0068    7.5932   25.0771 C   0  0  0  0  0  0  0  0  0  0  0  0
    7.3821    8.2538   23.9740 C   0  0  0  0  0  0  0  0  0  0  0  0
    8.1397    9.1860   23.1430 C   0  0  0  0  0  0  0  0  0  0  0  0
    9.5333    9.4359   23.4401 C   0  0  0  0  0  0  0  0  0  0  0  0
   10.1660    8.7684   24.5573 C   0  0  0  0  0  0  0  0  0  0  0  0
    9.3460    6.8098   27.6212 N   0  0  0  0  0  0  0  0  0  0  0  0
   11.2962    6.9063   26.6638 N   0  0  0  0  0  0  0  0  0  0  0  0
   10.0058    7.1643   26.5257 C   0  0  0  0  0  0  0  0  0  0  0  0
    9.8190    6.3553   28.3554 H   0  0  0  0  0  0  0  0  0  0  0  0
   11.6223    6.4438   27.4694 H   0  0  0  0  0  0  0  0  0  0  0  0
   11.9302    7.1767   25.9609 H   0  0  0  0  0  0  0  0  0  0  0  0
 38 40  2  0  0  0
 39 40  1  0  0  0
 40 32  1  0  0  0
 32 33  2  0  0  0
 32 37  1  0  0  0
 33 34  1  0  0  0
 34 35  2  0  0  0
 35 36  1  0  0  0
 35 30  1  0  0  0
 36 37  2  0  0  0
 30 29  1  0  0  0
 29  2  1  0  0  0
  1  2  2  0  0  0
  1  5  1  0  0  0
  2  3  1  0  0  0
  3  4  1  0  0  0
  3 10  1  0  0  0
  4  5  2  0  0  0
  4  6  1  0  0  0
  5  9  1  0  0  0
  6  7  2  0  0  0
  7  8  1  0  0  0
  8  9  2  0  0  0
  8 13  1  0  0  0
 11 12  1  0  0  0
 11 13  1  0  0  0
 12 13  1  0  0  0
 13 14  1  0  0  0
 14 15  2  0  0  0
 14 17  1  0  0  0
 15 22  1  0  0  0
 16 17  2  0  0  0
 16 21  1  0  0  0
 17 18  1  0  0  0
 18 19  2  0  0  0
 19 20  1  0  0  0
 20 21  2  0  0  0
 22 23  1  0  0  0
 23 24  1  0  0  0
 24 25  2  0  0  0
 24 26  1  0  0  0
 26 28  1  0  0  0
 27 28  1  0  0  0
 38 41  1  0  0  0
 39 42  1  0  0  0
 39 43  1  0  0  0
 30 31  1  0  0  0
M  END
> <minimizedAffinity>
-8.38252

$$$$
1G2L_T87_A_1


 43 47  0  0  0  0  0  0  0  0999 V2000
    7.8589    7.3705   21.0283 N   0  0  0  0  0  0  0  0  0  0  0  0
    7.6306    8.5692   20.3395 C   0  0  0  0  0  0  0  0  0  0  0  0
    6.7731    8.6007   19.2072 N   0  0  0  0  0  0  0  0  0  0  0  0
    6.4247    7.2431   19.1889 C   0  0  0  0  0  0  0  0  0  0  0  0
    7.0834    6.5168   20.2898 C   0  0  0  0  0  0  0  0  0  0  0  0
    5.5474    6.5186   18.2646 C   0  0  0  0  0  0  0  0  0  0  0  0
    5.3479    5.1218   18.4428 C   0  0  0  0  0  0  0  0  0  0  0  0
    5.9882    4.3504   19.5274 C   0  0  0  0  0  0  0  0  0  0  0  0
    6.8674    5.0800   20.4668 C   0  0  0  0  0  0  0  0  0  0  0  0
    6.3611    9.7257   18.2916 C   0  0  0  0  0  0  0  0  0  0  0  0
    6.4254    1.9183   20.7160 C   0  0  0  0  0  0  0  0  0  0  0  0
    7.1932    1.9519   19.4017 C   0  0  0  0  0  0  0  0  0  0  0  0
    5.8768    2.7359   19.5340 C   0  0  0  0  0  0  0  0  0  0  0  0
    4.3540    2.3155   19.2756 C   0  0  0  0  0  0  0  0  0  0  0  0
    3.8914    2.0942   18.0631 N   0  0  0  0  0  0  0  0  0  0  0  0
    2.8222    0.7429   20.6720 N   0  0  0  0  0  0  0  0  0  0  0  0
    3.3627    2.0659   20.4713 C   0  0  0  0  0  0  0  0  0  0  0  0
    2.9824    3.1148   21.4004 C   0  0  0  0  0  0  0  0  0  0  0  0
    2.0793    2.8075   22.4852 C   0  0  0  0  0  0  0  0  0  0  0  0
    1.5423    1.4813   22.6726 C   0  0  0  0  0  0  0  0  0  0  0  0
    1.9163    0.4404   21.7608 C   0  0  0  0  0  0  0  0  0  0  0  0
    4.7170    2.2363   16.8305 O   0  0  0  0  0  0  0  0  0  0  0  0
    5.1879    0.9464   16.4053 C   0  0  0  0  0  0  0  0  0  0  0  0
    6.6401    1.0597   15.8893 C   0  0  0  0  0  0  0  0  0  0  0  0
    6.9026    1.9263   15.0361 O   0  0  0  0  0  0  0  0  0  0  0  0
    7.6061    0.1887   16.3930 O   0  0  0  0  0  0  0  0  0  0  0  0
    9.7905    0.5719   17.4098 C   0  0  0  0  0  0  0  0  0  0  0  0
    8.9665    0.5862   16.1080 C   0  0  0  0  0  0  0  0  0  0  0  0
    8.3666    9.8352   20.8562 C   0  0  0  0  0  0  0  0  0  0  0  0
    8.2080   10.0994   22.3285 N   0  0  0  0  0  0  0  0  0  0  0  0
    7.6932   10.9071   22.5562 H   0  0  0  0  0  0  0  0  0  0  0  0
    9.7822    7.8384   25.7730 C   0  0  0  0  0  0  0  0  0  0  0  0
    8.3544    7.7999   25.4271 C   0  0  0  0  0  0  0  0  0  0  0  0
    7.8270    8.5239   24.3129 C   0  0  0  0  0  0  0  0  0  0  0  0
    8.7053    9.3343   23.4730 C   0  0  0  0  0  0  0  0  0  0  0  0
   10.1192    9.3981   23.7725 C   0  0  0  0  0  0  0  0  0  0  0  0
   10.6535    8.6665   24.9009 C   0  0  0  0  0  0  0  0  0  0  0  0
    9.5163    6.4113   27.7124 N   0  0  0  0  0  0  0  0  0  0  0  0
   11.5243    7.1495   27.3219 N   0  0  0  0  0  0  0  0  0  0  0  0
   10.2741    7.1251   26.8893 C   0  0  0  0  0  0  0  0  0  0  0  0
    9.9256    5.9381   28.4725 H   0  0  0  0  0  0  0  0  0  0  0  0
   11.7827    6.6201   28.1107 H   0  0  0  0  0  0  0  0  0  0  0  0
   12.1962    7.6970   26.8549 H   0  0  0  0  0  0  0  0  0  0  0  0
 38 40  2  0  0  0
 39 40  1  0  0  0
 40 32  1  0  0  0
 32 33  2  0  0  0
 32 37  1  0  0  0
 33 34  1  0  0  0
 34 35  2  0  0  0
 35 36  1  0  0  0
 35 30  1  0  0  0
 36 37  2  0  0  0
 30 29  1  0  0  0
 29  2  1  0  0  0
  1  2  2  0  0  0
  1  5  1  0  0  0
  2  3  1  0  0  0
  3  4  1  0  0  0
  3 10  1  0  0  0
  4  5  2  0  0  0
  4  6  1  0  0  0
  5  9  1  0  0  0
  6  7  2  0  0  0
  7  8  1  0  0  0
  8  9  2  0  0  0
  8 13  1  0  0  0
 11 12  1  0  0  0
 11 13  1  0  0  0
 12 13  1  0  0  0
 13 14  1  0  0  0
 14 15  2  0  0  0
 14 17  1  0  0  0
 15 22  1  0  0  0
 16 17  2  0  0  0
 16 21  1  0  0  0
 17 18  1  0  0  0
 18 19  2  0  0  0
 19 20  1  0  0  0
 20 21  2  0  0  0
 22 23  1  0  0  0
 23 24  1  0  0  0
 24 25  2  0  0  0
 24 26  1  0  0  0
 26 28  1  0  0  0
 27 28  1  0  0  0
 38 41  1  0  0  0
 39 42  1  0  0  0
 39 43  1  0  0  0
 30 31  1  0  0  0
M  END
> <minimizedAffinity>
-8.33184

$$$$
1G2L_T87_A_1


 43 47  0  0  0  0  0  0  0  0999 V2000
    7.0530    7.5000   20.8431 N   0  0  0  0  0  0  0  0  0  0  0  0
    6.4740    8.4258   21.7213 C   0  0  0  0  0  0  0  0  0  0  0  0
    5.3613    8.0614   22.5260 N   0  0  0  0  0  0  0  0  0  0  0  0
    5.2304    6.7361   22.0887 C   0  0  0  0  0  0  0  0  0  0  0  0
    6.2546    6.4125   21.0788 C   0  0  0  0  0  0  0  0  0  0  0  0
    4.2596    5.7139   22.4904 C   0  0  0  0  0  0  0  0  0  0  0  0
    4.3188    4.4235   21.8953 C   0  0  0  0  0  0  0  0  0  0  0  0
    5.3231    4.0533   20.8775 C   0  0  0  0  0  0  0  0  0  0  0  0
    6.3094    5.0798   20.4761 C   0  0  0  0  0  0  0  0  0  0  0  0
    4.5528    8.8407   23.5322 C   0  0  0  0  0  0  0  0  0  0  0  0
    3.8788    1.8385   20.1511 C   0  0  0  0  0  0  0  0  0  0  0  0
    5.0737    1.3796   20.9756 C   0  0  0  0  0  0  0  0  0  0  0  0
    5.1914    2.6394   20.1014 C   0  0  0  0  0  0  0  0  0  0  0  0
    5.6180    2.8405   18.5717 C   0  0  0  0  0  0  0  0  0  0  0  0
    4.9963    3.6929   17.7842 N   0  0  0  0  0  0  0  0  0  0  0  0
    6.8324    1.6962   16.5754 N   0  0  0  0  0  0  0  0  0  0  0  0
    6.8576    2.0859   17.9647 C   0  0  0  0  0  0  0  0  0  0  0  0
    8.0435    1.7815   18.7452 C   0  0  0  0  0  0  0  0  0  0  0  0
    9.1506    1.0999   18.1155 C   0  0  0  0  0  0  0  0  0  0  0  0
    9.1113    0.7116   16.7262 C   0  0  0  0  0  0  0  0  0  0  0  0
    7.9448    1.0122   15.9493 C   0  0  0  0  0  0  0  0  0  0  0  0
    3.8376    4.5213   18.2228 O   0  0  0  0  0  0  0  0  0  0  0  0
    3.5982    5.5713   17.2707 C   0  0  0  0  0  0  0  0  0  0  0  0
    3.0574    6.8251   17.9944 C   0  0  0  0  0  0  0  0  0  0  0  0
    1.8571    7.1211   17.8552 O   0  0  0  0  0  0  0  0  0  0  0  0
    3.9294    7.5832   18.7756 O   0  0  0  0  0  0  0  0  0  0  0  0
    5.7476    8.9137   17.8395 C   0  0  0  0  0  0  0  0  0  0  0  0
    4.2537    8.8755   18.2146 C   0  0  0  0  0  0  0  0  0  0  0  0
    7.0879    9.8518   21.7540 C   0  0  0  0  0  0  0  0  0  0  0  0
    8.4256    9.9466   22.4353 N   0  0  0  0  0  0  0  0  0  0  0  0
    9.0380   10.6220   22.0639 H   0  0  0  0  0  0  0  0  0  0  0  0
   10.0886    7.6926   25.8424 C   0  0  0  0  0  0  0  0  0  0  0  0
    8.6509    7.6610   25.5395 C   0  0  0  0  0  0  0  0  0  0  0  0
    8.0948    8.3828   24.4379 C   0  0  0  0  0  0  0  0  0  0  0  0
    8.9523    9.1840   23.5682 C   0  0  0  0  0  0  0  0  0  0  0  0
   10.3748    9.2407   23.8251 C   0  0  0  0  0  0  0  0  0  0  0  0
   10.9383    8.5112   24.9407 C   0  0  0  0  0  0  0  0  0  0  0  0
   11.7802    7.2394   27.5163 N   0  0  0  0  0  0  0  0  0  0  0  0
   10.0575    5.9122   27.4970 N   0  0  0  0  0  0  0  0  0  0  0  0
   10.6094    6.9816   26.9471 C   0  0  0  0  0  0  0  0  0  0  0  0
   12.0826    6.7034   28.2847 H   0  0  0  0  0  0  0  0  0  0  0  0
   10.4890    5.4766   28.2674 H   0  0  0  0  0  0  0  0  0  0  0  0
    9.2155    5.5520   27.1359 H   0  0  0  0  0  0  0  0  0  0  0  0
 38 40  2  0  0  0
 39 40  1  0  0  0
 40 32  1  0  0  0
 32 33  2  0  0  0
 32 37  1  0  0  0
 33 34  1  0  0  0
 34 35  2  0  0  0
 35 36  1  0  0  0
 35 30  1  0  0  0
 36 37  2  0  0  0
 30 29  1  0  0  0
 29  2  1  0  0  0
  1  2  2  0  0  0
  1  5  1  0  0  0
  2  3  1  0  0  0
  3  4  1  0  0  0
  3 10  1  0  0  0
  4  5  2  0  0  0
  4  6  1  0  0  0
  5  9  1  0  0  0
  6  7  2  0  0  0
  7  8  1  0  0  0
  8  9  2  0  0  0
  8 13  1  0  0  0
 11 12  1  0  0  0
 11 13  1  0  0  0
 12 13  1  0  0  0
 13 14  1  0  0  0
 14 15  2  0  0  0
 14 17  1  0  0  0
 15 22  1  0  0  0
 16 17  2  0  0  0
 16 21  1  0  0  0
 17 18  1  0  0  0
 18 19  2  0  0  0
 19 20  1  0  0  0
 20 21  2  0  0  0
 22 23  1  0  0  0
 23 24  1  0  0  0
 24 25  2  0  0  0
 24 26  1  0  0  0
 26 28  1  0  0  0
 27 28  1  0  0  0
 38 41  1  0  0  0
 39 42  1  0  0  0
 39 43  1  0  0  0
 30 31  1  0  0  0
M  END
> <minimizedAffinity>
-8.24748

$$$$
