1G2L_T87_A_1
  RCSB PDB12061702333D
Coordinates from PDB:1G2L:A:1 Model:1 without hydrogens
 39 43  0  0  0  0            999 V2000
    9.8050    6.1680   27.8830   N 0  0  0  0  0  0  0  0  0  0  0  0
   11.8030    6.9570   27.5440   N 0  0  0  0  0  0  0  0  0  0  0  0
   10.5600    6.9200   27.0920   C 0  0  0  0  0  0  0  0  0  0  0  0
   10.0700    7.6550   25.9890   C 0  0  0  0  0  0  0  0  0  0  0  0
    8.6340    7.6730   25.6770   C 0  0  0  0  0  0  0  0  0  0  0  0
    8.1090    8.4200   24.5770   C 0  0  0  0  0  0  0  0  0  0  0  0
    8.9980    9.1980   23.7180   C 0  0  0  0  0  0  0  0  0  0  0  0
   10.4200    9.2060   23.9840   C 0  0  0  0  0  0  0  0  0  0  0  0
   10.9520    8.4510   25.0980   C 0  0  0  0  0  0  0  0  0  0  0  0
    8.5040    9.9850   22.5870   N 0  0  0  0  0  0  0  0  0  0  0  0
    7.2940    9.7650   21.7210   C 0  0  0  0  0  0  0  0  0  0  0  0
    6.5370    7.3620   21.6010   N 0  0  0  0  0  0  0  0  0  0  0  0
    7.2580    8.3960   20.9890   C 0  0  0  0  0  0  0  0  0  0  0  0
    7.9360    8.1760   19.7600   N 0  0  0  0  0  0  0  0  0  0  0  0
    7.5930    6.8280   19.5870   C 0  0  0  0  0  0  0  0  0  0  0  0
    6.7510    6.3530   20.7000   C 0  0  0  0  0  0  0  0  0  0  0  0
    7.9540    5.9060   18.5060   C 0  0  0  0  0  0  0  0  0  0  0  0
    7.4880    4.5630   18.5500   C 0  0  0  0  0  0  0  0  0  0  0  0
    6.6460    4.0400   19.6450   C 0  0  0  0  0  0  0  0  0  0  0  0
    6.2730    4.9700   20.7330   C 0  0  0  0  0  0  0  0  0  0  0  0
    8.7750    9.0870   18.9000   C 0  0  0  0  0  0  0  0  0  0  0  0
    5.1230    1.9340   20.5190   C 0  0  0  0  0  0  0  0  0  0  0  0
    6.5230    1.7830   21.0980   C 0  0  0  0  0  0  0  0  0  0  0  0
    6.3350    2.4540   19.7270   C 0  0  0  0  0  0  0  0  0  0  0  0
    6.2810    1.8540   18.2440   C 0  0  0  0  0  0  0  0  0  0  0  0
    5.2320    2.0200   17.4660   N 0  0  0  0  0  0  0  0  0  0  0  0
    7.3590    0.4090   16.3680   N 0  0  0  0  0  0  0  0  0  0  0  0
    7.5180    1.1090   17.6200   C 0  0  0  0  0  0  0  0  0  0  0  0
    8.8280    1.1140   18.2460   C 0  0  0  0  0  0  0  0  0  0  0  0
    9.9220    0.4210   17.6060   C 0  0  0  0  0  0  0  0  0  0  0  0
    9.7490   -0.2790   16.3560   C 0  0  0  0  0  0  0  0  0  0  0  0
    8.4590   -0.2850   15.7310   C 0  0  0  0  0  0  0  0  0  0  0  0
    4.0020    2.7470   17.8900   O 0  0  0  0  0  0  0  0  0  0  0  0
    3.3470    3.3120   16.7420   C 0  0  0  0  0  0  0  0  0  0  0  0
    3.9830    4.6760   16.3910   C 0  0  0  0  0  0  0  0  0  0  0  0
    4.4680    4.8320   15.2560   O 0  0  0  0  0  0  0  0  0  0  0  0
    3.9950    5.6840   17.3550   O 0  0  0  0  0  0  0  0  0  0  0  0
    4.3250    8.0300   17.9380   C 0  0  0  0  0  0  0  0  0  0  0  0
    4.6150    6.9140   16.9160   C 0  0  0  0  0  0  0  0  0  0  0  0
  1  3  2  0  0  0  0
  2  3  1  0  0  0  0
  3  4  1  0  0  0  0
  4  5  2  0  0  0  0
  4  9  1  0  0  0  0
  5  6  1  0  0  0  0
  6  7  2  0  0  0  0
  7  8  1  0  0  0  0
  7 10  1  0  0  0  0
  8  9  2  0  0  0  0
 10 11  1  0  0  0  0
 11 13  1  0  0  0  0
 12 13  2  0  0  0  0
 12 16  1  0  0  0  0
 13 14  1  0  0  0  0
 14 15  1  0  0  0  0
 14 21  1  0  0  0  0
 15 16  2  0  0  0  0
 15 17  1  0  0  0  0
 16 20  1  0  0  0  0
 17 18  2  0  0  0  0
 18 19  1  0  0  0  0
 19 20  2  0  0  0  0
 19 24  1  0  0  0  0
 22 23  1  0  0  0  0
 22 24  1  0  0  0  0
 23 24  1  0  0  0  0
 24 25  1  0  0  0  0
 25 26  2  0  0  0  0
 25 28  1  0  0  0  0
 26 33  1  0  0  0  0
 27 28  2  0  0  0  0
 27 32  1  0  0  0  0
 28 29  1  0  0  0  0
 29 30  2  0  0  0  0
 30 31  1  0  0  0  0
 31 32  2  0  0  0  0
 33 34  1  0  0  0  0
 34 35  1  0  0  0  0
 35 36  2  0  0  0  0
 35 37  1  0  0  0  0
 37 39  1  0  0  0  0
 38 39  1  0  0  0  0
A    1
N1
A    2
N2
A    3
C1
A    4
C2
A    5
C3
A    6
C4
A    7
C5
A    8
C6
A    9
C7
A   10
N
A   11
C
A   12
N3
A   13
C8
A   14
N9
A   15
C3A
A   16
C7A
A   17
C10
A   18
C11
A   19
C12
A   20
C13
A   21
C14
A   22
C9
A   23
C15
A   24
C16
A   25
C17
A   26
N4
A   27
N5
A   28
C18
A   29
C19
A   30
C20
A   31
C21
A   32
C22
A   33
OH
A   34
C23
A   35
C24
A   36
O2
A   37
O3
A   38
C25
A   39
C26
M  END
>  <InstanceId>
1G2L_T87_A_1

>  <ChemCompId>
T87

>  <PdbId>
1G2L

>  <ChainId>
A

>  <ResidueNumber>
1

>  <InsertionCode>


>  <Model>
1

>  <AltIds>


>  <MissingHeavyAtoms>
0

>  <ObservedFormula>
C29 N7 O3

>  <Name>
[(1-{2[(4-CARBAMIMIDOYL-PHENYLAMINO)-METHYL]-1-METHYL-1H-BENZOIMIDAZOL-5-YL}-CYCLOPROPYL)-PYRIDIN-2-YL-METHYLENEAMINOOXY]-ACETIC ACID ETHYL ESTER

>  <SystematicName>
ethyl 2-[[[1-[2-[[(4-carbamimidoylphenyl)amino]methyl]-1-methyl-benzimidazol-5-yl]cyclopropyl]-pyridin-2-yl-methylidene]amino]oxyethanoate

>  <Synonyms>


>  <Type>
NON-POLYMER

>  <Formula>
C29 H31 N7 O3

>  <MolecularWeight>
525.602

>  <ModifiedDate>
2011-06-04

>  <Parent>


>  <OneLetterCode>


>  <SubcomponentList>


>  <AmbiguousFlag>
N

>  <InChI>
InChI=1S/C29H31N7O3/c1-3-38-26(37)18-39-35-27(22-6-4-5-15-32-22)29(13-14-29)20-9-12-24-23(16-20)34-25(36(24)2)17-33-21-10-7-19(8-11-21)28(30)31/h4-12,15-16,33H,3,13-14,17-18H2,1-2H3,(H3,30,31)/b35-27-

>  <InChIKey>
RNOYCNIZOAIUSV-LSWMGQQCSA-N

>  <SMILES>
[H]/N=C(/c1ccc(cc1)NCc2nc3cc(ccc3n2C)C4(CC4)/C(=N\OCC(=O)OCC)/c5ccccn5)\N

$$$$
