5SZ2_72G_A_307
  RCSB PDB12061719283D
Coordinates from PDB:5SZ2:A:307 Model:1 without hydrogens
 18 19  0  0  0  0            999 V2000
   18.4330   -5.3590   77.8740   O 0  0  0  0  0  0  0  0  0  0  0  0
   18.7750   -4.4980   77.1430   C 0  0  0  0  0  0  0  0  0  0  0  0
   18.6930   -3.0410   77.6080   C 0  0  0  0  0  0  0  0  0  0  0  0
   17.9270   -2.6810   78.7140   C 0  0  0  0  0  0  0  0  0  0  0  0
   19.3950   -2.0750   76.9070   C 0  0  0  0  0  0  0  0  0  0  0  0
   19.3420   -0.7530   77.3040   C 0  0  0  0  0  0  0  0  0  0  0  0
   18.5820   -0.3890   78.4010   C 0  0  0  0  0  0  0  0  0  0  0  0
   17.8820   -1.3520   79.1100   C 0  0  0  0  0  0  0  0  0  0  0  0
   17.0430   -0.9170   80.2960   C 0  0  0  0  0  0  0  0  0  0  0  0
   16.8160   -1.7220   81.3090   C 0  0  0  0  0  0  0  0  0  0  0  0
   15.9500   -1.2450   82.4660   C 0  0  0  0  0  0  0  0  0  0  0  0
   15.4360   -0.0300   82.4330   C 0  0  0  0  0  0  0  0  0  0  0  0
   14.4000    0.5490   83.7920   S 0  0  0  0  0  0  0  0  0  0  0  0
   13.4840   -0.5370   84.1740   O 0  0  0  0  0  0  0  0  0  0  0  0
   15.2510    0.7780   84.9760   O 0  0  0  0  0  0  0  0  0  0  0  0
   13.5950    1.9570   83.3520   N 0  0  0  0  0  0  0  0  0  0  0  0
   15.6970    0.9030   81.2600   C 0  0  0  0  0  0  0  0  0  0  0  0
   16.4440    0.4820   80.2640   C 0  0  0  0  0  0  0  0  0  0  0  0
  5  6  2  0  0  0  0
  5  3  1  0  0  0  0
  2  3  1  0  0  0  0
  2  1  2  0  0  0  0
  6  7  1  0  0  0  0
  3  4  2  0  0  0  0
  7  8  2  0  0  0  0
  4  8  1  0  0  0  0
  8  9  1  0  0  0  0
 18  9  2  0  0  0  0
 18 17  1  0  0  0  0
  9 10  1  0  0  0  0
 17 12  2  0  0  0  0
 10 11  2  0  0  0  0
 12 11  1  0  0  0  0
 12 13  1  0  0  0  0
 16 13  1  0  0  0  0
 13 14  2  0  0  0  0
 13 15  2  0  0  0  0
A    1
OAR
A    2
CAQ
A    3
CAK
A    4
CAL
A    5
CAJ
A    6
CAI
A    7
CAH
A    8
CAG
A    9
CAE
A   10
CAD
A   11
CAC
A   12
CAB
A   13
SAM
A   14
OAN
A   15
OAO
A   16
NAP
A   17
CAA
A   18
CAF
M  END
>  <InstanceId>
5SZ2_72G_A_307

>  <ChemCompId>
72G

>  <PdbId>
5SZ2

>  <ChainId>
A

>  <ResidueNumber>
307

>  <InsertionCode>


>  <Model>
1

>  <AltIds>


>  <MissingHeavyAtoms>
0

>  <ObservedFormula>
C13 N O3 S

>  <Name>
4-(3-formylphenyl)-benzenesulfonamide

>  <SystematicName>
4-(3-methanoylphenyl)benzenesulfonamide

>  <Synonyms>
3'-formyl[1,1'-biphenyl]-4-sulfonamide

>  <Type>
NON-POLYMER

>  <Formula>
C13 H11 N O3 S

>  <MolecularWeight>
261.296

>  <ModifiedDate>
2016-12-16

>  <Parent>


>  <OneLetterCode>


>  <SubcomponentList>


>  <AmbiguousFlag>
N

>  <InChI>
InChI=1S/C13H11NO3S/c14-18(16,17)13-6-4-11(5-7-13)12-3-1-2-10(8-12)9-15/h1-9H,(H2,14,16,17)

>  <InChIKey>
JBAOMUKVIWMCLG-UHFFFAOYSA-N

>  <SMILES>
c1cc(cc(c1)c2ccc(cc2)S(=O)(=O)N)C=O

$$$$
