4XT2_43L_A_401


 24 27  0  0  0  0  0  0  0  0999 V2000
   13.5911    0.0951   28.7773 C   0  0  0  0  0  0  0  0  0  0  0  0
   12.1481    0.1336   29.0238 C   0  0  0  0  0  0  0  0  0  0  0  0
   13.7981    0.9048   27.6032 N   0  0  0  0  0  0  0  0  0  0  0  0
   15.0345    1.2633   27.0852 N   0  0  0  0  0  0  0  0  0  0  0  0
   14.7805    1.9339   26.0531 N   0  0  0  0  0  0  0  0  0  0  0  0
   13.4629    2.0766   25.7758 N   0  0  0  0  0  0  0  0  0  0  0  0
   12.8100    1.4190   26.7635 C   0  0  0  0  0  0  0  0  0  0  0  0
   11.4940    1.1948   26.9956 N   0  0  0  0  0  0  0  0  0  0  0  0
   11.1952    0.0703   27.8921 C   0  0  0  0  0  0  0  0  0  0  0  0
   10.7868    1.7475   26.5911 H   0  0  0  0  0  0  0  0  0  0  0  0
   15.1700   -0.5060   30.5660 C   0  0  0  0  0  0  0  0  0  0  0  0
   15.9580   -0.2182   31.6576 C   0  0  0  0  0  0  0  0  0  0  0  0
   16.9610   -1.6309   32.4590 Br  0  0  0  0  0  0  0  0  0  0  0  0
   16.0349    1.0510   32.1723 C   0  0  0  0  0  0  0  0  0  0  0  0
   15.2968    2.0477   31.5690 C   0  0  0  0  0  0  0  0  0  0  0  0
   14.5072    1.7690   30.4646 C   0  0  0  0  0  0  0  0  0  0  0  0
   14.4517    0.4673   29.9290 C   0  0  0  0  0  0  0  0  0  0  0  0
    9.7588   -0.1253   28.2104 C   0  0  0  0  0  0  0  0  0  0  0  0
    9.0272    0.9902   28.5206 C   0  0  0  0  0  0  0  0  0  0  0  0
    7.7232    0.8697   28.8458 C   0  0  0  0  0  0  0  0  0  0  0  0
    6.7650    2.4169   29.2497 Br  0  0  0  0  0  0  0  0  0  0  0  0
    7.0652   -0.3136   28.8895 C   0  0  0  0  0  0  0  0  0  0  0  0
    7.7867   -1.4601   28.5805 C   0  0  0  0  0  0  0  0  0  0  0  0
    9.1195   -1.3812   28.2701 C   0  0  0  0  0  0  0  0  0  0  0  0
  6  5  1  0  0  0
  6  7  2  0  0  0
  5  4  2  0  0  0
  7  8  1  0  0  0
  7  3  1  0  0  0
  4  3  1  0  0  0
  8  9  1  0  0  0
  3  1  1  0  0  0
  9 18  1  0  0  0
  9  2  1  0  0  0
 18 24  2  0  0  0
 18 19  1  0  0  0
 24 23  1  0  0  0
 19 20  2  0  0  0
 23 22  2  0  0  0
  1  2  1  0  0  0
  1 17  1  0  0  0
 20 22  1  0  0  0
 20 21  1  0  0  0
 17 16  2  0  0  0
 17 11  1  0  0  0
 16 15  1  0  0  0
 11 12  2  0  0  0
 15 14  2  0  0  0
 12 14  1  0  0  0
 12 13  1  0  0  0
  8 10  1  0  0  0
M  END
> <minimizedAffinity>
-11.61050

$$$$
4XT2_43L_A_401


 24 27  0  0  0  0  0  0  0  0999 V2000
   13.3294   -0.2773   28.4626 C   0  0  0  0  0  0  0  0  0  0  0  0
   11.9694    0.1756   28.7624 C   0  0  0  0  0  0  0  0  0  0  0  0
   13.7806    0.5630   27.3821 N   0  0  0  0  0  0  0  0  0  0  0  0
   15.0683    0.5809   26.8654 N   0  0  0  0  0  0  0  0  0  0  0  0
   15.0378    1.4155   25.9263 N   0  0  0  0  0  0  0  0  0  0  0  0
   13.8306    1.9905   25.7134 N   0  0  0  0  0  0  0  0  0  0  0  0
   13.0033    1.4538   26.6418 C   0  0  0  0  0  0  0  0  0  0  0  0
   11.6824    1.6213   26.8928 N   0  0  0  0  0  0  0  0  0  0  0  0
   11.0467    0.5457   27.6650 C   0  0  0  0  0  0  0  0  0  0  0  0
   11.1831    2.4097   26.5792 H   0  0  0  0  0  0  0  0  0  0  0  0
   14.3666    0.7590   30.4385 C   0  0  0  0  0  0  0  0  0  0  0  0
   15.2378    0.7724   31.5044 C   0  0  0  0  0  0  0  0  0  0  0  0
   15.2895    2.3181   32.6234 Br  0  0  0  0  0  0  0  0  0  0  0  0
   16.0585   -0.2932   31.7738 C   0  0  0  0  0  0  0  0  0  0  0  0
   15.9956   -1.3936   30.9447 C   0  0  0  0  0  0  0  0  0  0  0  0
   15.1157   -1.4195   29.8742 C   0  0  0  0  0  0  0  0  0  0  0  0
   14.2605   -0.3297   29.6183 C   0  0  0  0  0  0  0  0  0  0  0  0
    9.6200    0.7670   28.0091 C   0  0  0  0  0  0  0  0  0  0  0  0
    8.8506   -0.3423   28.2397 C   0  0  0  0  0  0  0  0  0  0  0  0
    7.5401   -0.2031   28.5290 C   0  0  0  0  0  0  0  0  0  0  0  0
    6.5353   -1.7409   28.8462 Br  0  0  0  0  0  0  0  0  0  0  0  0
    6.9107    0.9938   28.6095 C   0  0  0  0  0  0  0  0  0  0  0  0
    7.6699    2.1341   28.3778 C   0  0  0  0  0  0  0  0  0  0  0  0
    8.9984    2.0323   28.0561 C   0  0  0  0  0  0  0  0  0  0  0  0
  6  5  1  0  0  0
  6  7  2  0  0  0
  5  4  2  0  0  0
  7  8  1  0  0  0
  7  3  1  0  0  0
  4  3  1  0  0  0
  8  9  1  0  0  0
  3  1  1  0  0  0
  9 18  1  0  0  0
  9  2  1  0  0  0
 18 24  2  0  0  0
 18 19  1  0  0  0
 24 23  1  0  0  0
 19 20  2  0  0  0
 23 22  2  0  0  0
  1  2  1  0  0  0
  1 17  1  0  0  0
 20 22  1  0  0  0
 20 21  1  0  0  0
 17 16  2  0  0  0
 17 11  1  0  0  0
 16 15  1  0  0  0
 11 12  2  0  0  0
 15 14  2  0  0  0
 12 14  1  0  0  0
 12 13  1  0  0  0
  8 10  1  0  0  0
M  END
> <minimizedAffinity>
-8.77236

$$$$
