4XT2_43L_A_401
  RCSB PDB12061716173D
Coordinates from PDB:4XT2:A:401 Model:1 without hydrogens
 23 26  0  0  0  0            999 V2000
   15.1330   -0.5890   30.5970   C 0  0  0  0  0  0  0  0  0  0  0  0
   15.9230   -0.3160   31.6910   C 0  0  0  0  0  0  0  0  0  0  0  0
   16.8470   -1.7580   32.5340  Br 0  0  0  0  0  0  0  0  0  0  0  0
   16.0570    0.9590   32.1790   C 0  0  0  0  0  0  0  0  0  0  0  0
   15.3750    1.9770   31.5460   C 0  0  0  0  0  0  0  0  0  0  0  0
   14.5840    1.7130   30.4390   C 0  0  0  0  0  0  0  0  0  0  0  0
   14.4700    0.4040   29.9310   C 0  0  0  0  0  0  0  0  0  0  0  0
   13.6040    0.0490   28.7780   C 0  0  0  0  0  0  0  0  0  0  0  0
   12.1620    0.0900   29.0300   C 0  0  0  0  0  0  0  0  0  0  0  0
   13.8100    0.8720   27.6130   N 0  0  0  0  0  0  0  0  0  0  0  0
   15.0460    1.2320   27.0950   N 0  0  0  0  0  0  0  0  0  0  0  0
   14.7910    1.9160   26.0720   N 0  0  0  0  0  0  0  0  0  0  0  0
   13.4730    2.0670   25.8010   N 0  0  0  0  0  0  0  0  0  0  0  0
   12.8210    1.4000   26.7830   C 0  0  0  0  0  0  0  0  0  0  0  0
   11.5050    1.1780   27.0170   N 0  0  0  0  0  0  0  0  0  0  0  0
   11.2050    0.0440   27.9010   C 0  0  0  0  0  0  0  0  0  0  0  0
    9.7690   -0.1500   28.2220   C 0  0  0  0  0  0  0  0  0  0  0  0
    9.0310    0.9700   28.4990   C 0  0  0  0  0  0  0  0  0  0  0  0
    7.7270    0.8520   28.8250   C 0  0  0  0  0  0  0  0  0  0  0  0
    6.7600    2.4050   29.1830  Br 0  0  0  0  0  0  0  0  0  0  0  0
    7.0750   -0.3330   28.9010   C 0  0  0  0  0  0  0  0  0  0  0  0
    7.8030   -1.4840   28.6260   C 0  0  0  0  0  0  0  0  0  0  0  0
    9.1360   -1.4070   28.3160   C 0  0  0  0  0  0  0  0  0  0  0  0
 13 12  1  0  0  0  0
 13 14  2  0  0  0  0
 12 11  2  0  0  0  0
 14 15  1  0  0  0  0
 14 10  1  0  0  0  0
 11 10  1  0  0  0  0
 15 16  1  0  0  0  0
 10  8  1  0  0  0  0
 16 17  1  0  0  0  0
 16  9  1  0  0  0  0
 17 23  2  0  0  0  0
 17 18  1  0  0  0  0
 23 22  1  0  0  0  0
 18 19  2  0  0  0  0
 22 21  2  0  0  0  0
  8  9  1  0  0  0  0
  8  7  1  0  0  0  0
 19 21  1  0  0  0  0
 19 20  1  0  0  0  0
  7  6  2  0  0  0  0
  7  1  1  0  0  0  0
  6  5  1  0  0  0  0
  1  2  2  0  0  0  0
  5  4  2  0  0  0  0
  2  4  1  0  0  0  0
  2  3  1  0  0  0  0
A    1
CAJ
A    2
CAQ
A    3
BRB
A    4
CAF
A    5
CAD
A    6
CAH
A    7
CAS
A    8
CAV
A    9
CAK
A   10
NAW
A   11
NAN
A   12
NAL
A   13
NAM
A   14
CAT
A   15
NAO
A   16
CAU
A   17
CAR
A   18
CAI
A   19
CAP
A   20
BRA
A   21
CAE
A   22
CAC
A   23
CAG
M  END
>  <InstanceId>
4XT2_43L_A_401

>  <ChemCompId>
43L

>  <PdbId>
4XT2

>  <ChainId>
A

>  <ResidueNumber>
401

>  <InsertionCode>


>  <Model>
1

>  <AltIds>


>  <MissingHeavyAtoms>
0

>  <ObservedFormula>
C16 N5 Br2

>  <Name>
(5S,7R)-5,7-bis(3-bromophenyl)-4,5,6,7-tetrahydrotetrazolo[1,5-a]pyrimidine

>  <SystematicName>
(5S,7R)-5,7-bis(3-bromophenyl)-4,5,6,7-tetrahydro-[1,2,3,4]tetrazolo[1,5-a]pyrimidine

>  <Synonyms>


>  <Type>
NON-POLYMER

>  <Formula>
C16 H13 Br2 N5

>  <MolecularWeight>
435.116

>  <ModifiedDate>
2015-12-04

>  <Parent>


>  <OneLetterCode>


>  <SubcomponentList>


>  <AmbiguousFlag>
N

>  <InChI>
InChI=1S/C16H13Br2N5/c17-12-5-1-3-10(7-12)14-9-15(11-4-2-6-13(18)8-11)23-16(19-14)20-21-22-23/h1-8,14-15H,9H2,(H,19,20,22)/t14-,15+/m0/s1

>  <InChIKey>
JHRYBPMSBXHLJL-LSDHHAIUSA-N

>  <SMILES>
c1cc(cc(c1)Br)[C@@H]2C[C@@H](n3c(nnn3)N2)c4cccc(c4)Br

$$$$
