3E6Y_CW1_A_261


 49 54  0  0  0  0  0  0  0  0999 V2000
  -14.1349  -13.8625  -23.4210 C   0  0  0  0  0  0  0  0  0  0  0  0
  -14.0962  -14.5441  -22.0486 C   0  0  0  0  0  0  0  0  0  0  0  0
  -15.0711  -15.3057  -21.3751 C   0  0  0  0  0  0  0  0  0  0  0  0
  -14.5276  -15.8187  -20.0637 C   0  0  0  0  0  0  0  0  0  0  0  0
  -13.0145  -15.8353  -20.2816 C   0  0  0  0  0  0  0  0  0  0  0  0
  -12.7478  -14.6524  -21.2621 C   0  0  0  0  0  0  0  0  0  0  0  0
  -11.5550  -14.9543  -22.1875 C   0  0  0  0  0  0  0  0  0  0  0  0
  -12.4107  -13.5373  -20.4508 C   0  0  0  0  0  0  0  0  0  0  0  0
  -12.9513  -12.2369  -20.3489 C   0  0  0  0  0  0  0  0  0  0  0  0
  -12.5882  -11.1439  -19.3268 C   0  0  0  0  0  0  0  0  0  0  0  0
  -12.4524  -11.7478  -18.0166 O   0  0  0  0  0  0  0  0  0  0  0  0
  -13.7671  -10.2452  -19.2169 C   0  0  0  0  0  0  0  0  0  0  0  0
  -14.5808  -10.3805  -20.4939 C   0  0  0  0  0  0  0  0  0  0  0  0
  -14.2061  -11.7153  -21.1127 C   0  0  0  0  0  0  0  0  0  0  0  0
  -14.0585  -11.4550  -22.6503 C   0  0  0  0  0  0  0  0  0  0  0  0
  -12.6084  -11.2399  -23.2021 C   0  0  0  0  0  0  0  0  0  0  0  0
  -14.8723  -12.5221  -23.3626 C   0  0  0  0  0  0  0  0  0  0  0  0
  -15.2425  -12.0574  -24.6695 O   0  0  0  0  0  0  0  0  0  0  0  0
  -11.6941  -12.3526  -18.0165 H   0  0  0  0  0  0  0  0  0  0  0  0
  -14.4424  -11.8926  -25.1927 H   0  0  0  0  0  0  0  0  0  0  0  0
  -16.5570  -15.2717  -21.8276 C   0  0  0  0  0  0  0  0  0  0  0  0
  -17.3028  -16.6360  -21.8959 C   0  0  0  0  0  0  0  0  0  0  0  0
  -17.2770  -14.2100  -20.9547 C   0  0  0  0  0  0  0  0  0  0  0  0
  -14.8780  -14.7971  -24.2737 O   0  0  0  0  0  0  0  0  0  0  0  0
  -17.6308  -18.8000  -25.9967 C   0  0  0  0  0  0  0  0  0  0  0  0
  -17.3276  -20.1935  -26.5975 C   0  0  0  0  0  0  0  0  0  0  0  0
  -16.5081  -18.1572  -25.2079 O   0  0  0  0  0  0  0  0  0  0  0  0
  -15.6194  -17.5464  -26.1103 C   0  0  0  0  0  0  0  0  0  0  0  0
  -14.0519  -17.5605  -25.8776 C   0  0  0  0  0  0  0  0  0  0  0  0
  -13.6759  -16.5655  -24.9125 O   0  0  0  0  0  0  0  0  0  0  0  0
  -15.8344  -18.2311  -27.3620 O   0  0  0  0  0  0  0  0  0  0  0  0
  -17.1574  -18.0454  -27.4084 C   0  0  0  0  0  0  0  0  0  0  0  0
  -16.9747  -16.6065  -27.5731 O   0  0  0  0  0  0  0  0  0  0  0  0
  -16.1832  -16.2030  -26.4206 C   0  0  0  0  0  0  0  0  0  0  0  0
  -14.9826  -15.2753  -26.6378 C   0  0  0  0  0  0  0  0  0  0  0  0
  -15.4807  -13.9963  -27.0093 O   0  0  0  0  0  0  0  0  0  0  0  0
  -14.0750  -15.2333  -25.3713 C   0  0  0  0  0  0  0  0  0  0  0  0
  -16.0508  -13.6538  -26.3033 H   0  0  0  0  0  0  0  0  0  0  0  0
  -18.9962  -18.1450  -26.3787 C   0  0  0  0  0  0  0  0  0  0  0  0
  -19.9953  -18.4471  -25.2606 C   0  0  0  0  0  0  0  0  0  0  0  0
  -19.7405  -17.4875  -24.2794 O   0  0  0  0  0  0  0  0  0  0  0  0
  -20.7818  -16.5917  -22.4598 O   0  0  0  0  0  0  0  0  0  0  0  0
  -20.7043  -17.5222  -23.2764 C   0  0  0  0  0  0  0  0  0  0  0  0
  -13.4606  -18.9416  -25.7622 C   0  0  0  0  0  0  0  0  0  0  0  0
  -12.5470  -19.2023  -26.7785 O   0  0  0  0  0  0  0  0  0  0  0  0
  -11.2738  -19.1152  -26.0798 C   0  0  0  0  0  0  0  0  0  0  0  0
  -11.3470  -10.3320  -19.6166 C   0  0  0  0  0  0  0  0  0  0  0  0
  -10.3447  -10.9029  -18.7437 O   0  0  0  0  0  0  0  0  0  0  0  0
   -9.1402  -10.1146  -18.7894 C   0  0  0  0  0  0  0  0  0  0  0  0
 42 43  2  0  0  0
 43 41  1  0  0  0
 41 40  1  0  0  0
 40 39  1  0  0  0
 39 25  1  0  0  0
 25 26  1  0  0  0
 25 27  1  0  0  0
 25 32  1  0  0  0
 27 28  1  0  0  0
 28 29  1  0  0  0
 28 31  1  0  0  0
 28 34  1  0  0  0
 29 30  1  0  0  0
 29 44  1  0  0  0
 30 37  1  0  0  0
 44 45  1  0  0  0
 45 46  1  0  0  0
 31 32  1  0  0  0
 32 33  1  0  0  0
 33 34  1  0  0  0
 34 35  1  0  0  0
 35 36  1  0  0  0
 35 37  1  0  0  0
 37 24  1  0  0  0
 24  1  1  0  0  0
  1  2  1  0  0  0
  1 17  1  0  0  0
  2  3  2  0  0  0
  2  6  1  0  0  0
  3 21  1  0  0  0
  3  4  1  0  0  0
 21 22  1  0  0  0
 21 23  1  0  0  0
  4  5  1  0  0  0
  5  6  1  0  0  0
  6  7  1  0  0  0
  6  8  1  0  0  0
  8  9  2  0  0  0
  9 10  1  0  0  0
  9 14  1  0  0  0
 10 47  1  0  0  0
 10 11  1  0  0  0
 10 12  1  0  0  0
 47 48  1  0  0  0
 48 49  1  0  0  0
 12 13  1  0  0  0
 13 14  1  0  0  0
 14 15  1  0  0  0
 15 16  1  0  0  0
 15 17  1  0  0  0
 17 18  1  0  0  0
 36 38  1  0  0  0
 11 19  1  0  0  0
 18 20  1  0  0  0
M  END
> <minimizedAffinity>
-7.01270

$$$$
3E6Y_CW1_A_261


 49 54  0  0  0  0  0  0  0  0999 V2000
  -14.2354  -13.8814  -23.3726 C   0  0  0  0  0  0  0  0  0  0  0  0
  -14.2110  -14.5414  -21.9893 C   0  0  0  0  0  0  0  0  0  0  0  0
  -15.2104  -15.2489  -21.2931 C   0  0  0  0  0  0  0  0  0  0  0  0
  -14.6752  -15.7634  -19.9789 C   0  0  0  0  0  0  0  0  0  0  0  0
  -13.1667  -15.8491  -20.2120 C   0  0  0  0  0  0  0  0  0  0  0  0
  -12.8601  -14.6951  -21.2150 C   0  0  0  0  0  0  0  0  0  0  0  0
  -11.6916  -15.0634  -22.1474 C   0  0  0  0  0  0  0  0  0  0  0  0
  -12.4663  -13.5824  -20.4262 C   0  0  0  0  0  0  0  0  0  0  0  0
  -12.9492  -12.2584  -20.3407 C   0  0  0  0  0  0  0  0  0  0  0  0
  -12.5282  -11.1654  -19.3409 C   0  0  0  0  0  0  0  0  0  0  0  0
  -12.4041  -11.7530  -18.0222 O   0  0  0  0  0  0  0  0  0  0  0  0
  -13.6659  -10.2150  -19.2342 C   0  0  0  0  0  0  0  0  0  0  0  0
  -14.4987  -10.3358  -20.5003 C   0  0  0  0  0  0  0  0  0  0  0  0
  -14.1887  -11.6955  -21.1003 C   0  0  0  0  0  0  0  0  0  0  0  0
  -14.0469  -11.4672  -22.6434 C   0  0  0  0  0  0  0  0  0  0  0  0
  -12.5950  -11.3241  -23.2136 C   0  0  0  0  0  0  0  0  0  0  0  0
  -14.9137  -12.5096  -23.3293 C   0  0  0  0  0  0  0  0  0  0  0  0
  -15.2778  -12.0508  -24.6400 O   0  0  0  0  0  0  0  0  0  0  0  0
  -11.6726  -12.3901  -18.0196 H   0  0  0  0  0  0  0  0  0  0  0  0
  -14.4772  -11.9294  -25.1740 H   0  0  0  0  0  0  0  0  0  0  0  0
  -16.6984  -15.1582  -21.7309 C   0  0  0  0  0  0  0  0  0  0  0  0
  -17.5048  -16.4889  -21.7621 C   0  0  0  0  0  0  0  0  0  0  0  0
  -17.3605  -14.0471  -20.8737 C   0  0  0  0  0  0  0  0  0  0  0  0
  -15.0274  -14.7969  -24.2018 O   0  0  0  0  0  0  0  0  0  0  0  0
  -18.3883  -16.5241  -27.7075 C   0  0  0  0  0  0  0  0  0  0  0  0
  -18.6137  -17.8388  -28.4921 C   0  0  0  0  0  0  0  0  0  0  0  0
  -17.5573  -16.6368  -26.4456 O   0  0  0  0  0  0  0  0  0  0  0  0
  -16.1974  -16.6266  -26.8026 C   0  0  0  0  0  0  0  0  0  0  0  0
  -15.1303  -17.5270  -26.0529 C   0  0  0  0  0  0  0  0  0  0  0  0
  -14.7542  -16.9287  -24.8026 O   0  0  0  0  0  0  0  0  0  0  0  0
  -16.1730  -17.0573  -28.1795 O   0  0  0  0  0  0  0  0  0  0  0  0
  -17.0492  -16.1556  -28.6335 C   0  0  0  0  0  0  0  0  0  0  0  0
  -16.1111  -15.0707  -28.3619 O   0  0  0  0  0  0  0  0  0  0  0  0
  -15.8045  -15.1969  -26.9450 C   0  0  0  0  0  0  0  0  0  0  0  0
  -14.3418  -15.1086  -26.4955 C   0  0  0  0  0  0  0  0  0  0  0  0
  -13.9064  -13.7685  -26.6865 O   0  0  0  0  0  0  0  0  0  0  0  0
  -14.1806  -15.5998  -25.0251 C   0  0  0  0  0  0  0  0  0  0  0  0
  -14.4598  -13.1706  -26.1601 H   0  0  0  0  0  0  0  0  0  0  0  0
  -18.9149  -15.2081  -28.3632 C   0  0  0  0  0  0  0  0  0  0  0  0
  -19.5398  -15.5684  -29.7121 C   0  0  0  0  0  0  0  0  0  0  0  0
  -20.9136  -15.4004  -29.5302 O   0  0  0  0  0  0  0  0  0  0  0  0
  -22.0022  -17.2849  -30.2092 O   0  0  0  0  0  0  0  0  0  0  0  0
  -21.6401  -16.1272  -30.4683 C   0  0  0  0  0  0  0  0  0  0  0  0
  -15.4386  -19.0016  -26.0867 C   0  0  0  0  0  0  0  0  0  0  0  0
  -16.0018  -19.4422  -24.8934 O   0  0  0  0  0  0  0  0  0  0  0  0
  -17.2881  -19.9622  -25.3319 C   0  0  0  0  0  0  0  0  0  0  0  0
  -11.2564  -10.4129  -19.6571 C   0  0  0  0  0  0  0  0  0  0  0  0
  -10.3228  -10.8661  -18.6494 O   0  0  0  0  0  0  0  0  0  0  0  0
   -9.0897  -10.1287  -18.7482 C   0  0  0  0  0  0  0  0  0  0  0  0
 42 43  2  0  0  0
 43 41  1  0  0  0
 41 40  1  0  0  0
 40 39  1  0  0  0
 39 25  1  0  0  0
 25 26  1  0  0  0
 25 27  1  0  0  0
 25 32  1  0  0  0
 27 28  1  0  0  0
 28 29  1  0  0  0
 28 31  1  0  0  0
 28 34  1  0  0  0
 29 30  1  0  0  0
 29 44  1  0  0  0
 30 37  1  0  0  0
 44 45  1  0  0  0
 45 46  1  0  0  0
 31 32  1  0  0  0
 32 33  1  0  0  0
 33 34  1  0  0  0
 34 35  1  0  0  0
 35 36  1  0  0  0
 35 37  1  0  0  0
 37 24  1  0  0  0
 24  1  1  0  0  0
  1  2  1  0  0  0
  1 17  1  0  0  0
  2  3  2  0  0  0
  2  6  1  0  0  0
  3 21  1  0  0  0
  3  4  1  0  0  0
 21 22  1  0  0  0
 21 23  1  0  0  0
  4  5  1  0  0  0
  5  6  1  0  0  0
  6  7  1  0  0  0
  6  8  1  0  0  0
  8  9  2  0  0  0
  9 10  1  0  0  0
  9 14  1  0  0  0
 10 47  1  0  0  0
 10 11  1  0  0  0
 10 12  1  0  0  0
 47 48  1  0  0  0
 48 49  1  0  0  0
 12 13  1  0  0  0
 13 14  1  0  0  0
 14 15  1  0  0  0
 15 16  1  0  0  0
 15 17  1  0  0  0
 17 18  1  0  0  0
 36 38  1  0  0  0
 11 19  1  0  0  0
 18 20  1  0  0  0
M  END
> <minimizedAffinity>
-6.81522

$$$$
3E6Y_CW1_A_261


 49 54  0  0  0  0  0  0  0  0999 V2000
  -13.9767  -15.1784  -22.7705 C   0  0  0  0  0  0  0  0  0  0  0  0
  -14.5447  -13.7662  -22.5897 C   0  0  0  0  0  0  0  0  0  0  0  0
  -14.5893  -12.6749  -23.4791 C   0  0  0  0  0  0  0  0  0  0  0  0
  -15.3158  -11.5105  -22.8507 C   0  0  0  0  0  0  0  0  0  0  0  0
  -16.2145  -12.1684  -21.8034 C   0  0  0  0  0  0  0  0  0  0  0  0
  -15.4159  -13.4236  -21.3359 C   0  0  0  0  0  0  0  0  0  0  0  0
  -16.3630  -14.5747  -20.9511 C   0  0  0  0  0  0  0  0  0  0  0  0
  -14.7032  -13.0262  -20.1742 C   0  0  0  0  0  0  0  0  0  0  0  0
  -13.3315  -13.0605  -19.8414 C   0  0  0  0  0  0  0  0  0  0  0  0
  -12.6508  -12.4710  -18.5923 C   0  0  0  0  0  0  0  0  0  0  0  0
  -13.2128  -11.1634  -18.3200 O   0  0  0  0  0  0  0  0  0  0  0  0
  -11.2321  -12.2134  -18.9534 C   0  0  0  0  0  0  0  0  0  0  0  0
  -10.8737  -13.1177  -20.1217 C   0  0  0  0  0  0  0  0  0  0  0  0
  -12.1793  -13.5037  -20.7934 C   0  0  0  0  0  0  0  0  0  0  0  0
  -12.0631  -15.0305  -21.1237 C   0  0  0  0  0  0  0  0  0  0  0  0
  -12.7389  -16.0304  -20.1252 C   0  0  0  0  0  0  0  0  0  0  0  0
  -12.4576  -15.2021  -22.5808 C   0  0  0  0  0  0  0  0  0  0  0  0
  -11.8717  -16.4040  -23.1032 O   0  0  0  0  0  0  0  0  0  0  0  0
  -14.1467  -11.2575  -18.0754 H   0  0  0  0  0  0  0  0  0  0  0  0
  -12.2083  -17.1686  -22.6102 H   0  0  0  0  0  0  0  0  0  0  0  0
  -13.6962  -12.6498  -24.7502 C   0  0  0  0  0  0  0  0  0  0  0  0
  -14.4143  -12.8369  -26.1182 C   0  0  0  0  0  0  0  0  0  0  0  0
  -12.8258  -11.3676  -24.6725 C   0  0  0  0  0  0  0  0  0  0  0  0
  -14.3058  -15.5313  -24.1561 O   0  0  0  0  0  0  0  0  0  0  0  0
  -13.3804  -18.2793  -28.4178 C   0  0  0  0  0  0  0  0  0  0  0  0
  -14.2183  -18.8545  -29.5848 C   0  0  0  0  0  0  0  0  0  0  0  0
  -14.0152  -17.1449  -27.6393 O   0  0  0  0  0  0  0  0  0  0  0  0
  -14.9049  -17.6911  -26.6973 C   0  0  0  0  0  0  0  0  0  0  0  0
  -16.2865  -16.9957  -26.3524 C   0  0  0  0  0  0  0  0  0  0  0  0
  -16.0868  -15.8959  -25.4506 O   0  0  0  0  0  0  0  0  0  0  0  0
  -15.2428  -18.9932  -27.2191 O   0  0  0  0  0  0  0  0  0  0  0  0
  -13.9865  -19.4256  -27.3665 C   0  0  0  0  0  0  0  0  0  0  0  0
  -13.7911  -19.4275  -25.9199 O   0  0  0  0  0  0  0  0  0  0  0  0
  -14.0901  -18.0644  -25.5076 C   0  0  0  0  0  0  0  0  0  0  0  0
  -14.9899  -17.8429  -24.2867 C   0  0  0  0  0  0  0  0  0  0  0  0
  -14.2704  -18.2589  -23.1328 O   0  0  0  0  0  0  0  0  0  0  0  0
  -15.4670  -16.3612  -24.2080 C   0  0  0  0  0  0  0  0  0  0  0  0
  -13.4566  -17.7370  -23.0537 H   0  0  0  0  0  0  0  0  0  0  0  0
  -12.0435  -19.0111  -28.0769 C   0  0  0  0  0  0  0  0  0  0  0  0
  -11.0206  -17.9555  -27.6535 C   0  0  0  0  0  0  0  0  0  0  0  0
  -10.0072  -18.6708  -27.0134 O   0  0  0  0  0  0  0  0  0  0  0  0
  -10.5911  -18.6707  -24.8096 O   0  0  0  0  0  0  0  0  0  0  0  0
  -10.4817  -19.3055  -25.8696 C   0  0  0  0  0  0  0  0  0  0  0  0
  -17.1905  -16.8020  -27.5422 C   0  0  0  0  0  0  0  0  0  0  0  0
  -18.3583  -16.1262  -27.2031 O   0  0  0  0  0  0  0  0  0  0  0  0
  -19.0340  -16.0130  -28.4867 C   0  0  0  0  0  0  0  0  0  0  0  0
  -12.7187  -13.2993  -17.3302 C   0  0  0  0  0  0  0  0  0  0  0  0
  -11.4667  -13.0206  -16.6617 O   0  0  0  0  0  0  0  0  0  0  0  0
  -11.1865  -14.0430  -15.6868 C   0  0  0  0  0  0  0  0  0  0  0  0
 42 43  2  0  0  0
 43 41  1  0  0  0
 41 40  1  0  0  0
 40 39  1  0  0  0
 39 25  1  0  0  0
 25 26  1  0  0  0
 25 27  1  0  0  0
 25 32  1  0  0  0
 27 28  1  0  0  0
 28 29  1  0  0  0
 28 31  1  0  0  0
 28 34  1  0  0  0
 29 30  1  0  0  0
 29 44  1  0  0  0
 30 37  1  0  0  0
 44 45  1  0  0  0
 45 46  1  0  0  0
 31 32  1  0  0  0
 32 33  1  0  0  0
 33 34  1  0  0  0
 34 35  1  0  0  0
 35 36  1  0  0  0
 35 37  1  0  0  0
 37 24  1  0  0  0
 24  1  1  0  0  0
  1  2  1  0  0  0
  1 17  1  0  0  0
  2  3  2  0  0  0
  2  6  1  0  0  0
  3 21  1  0  0  0
  3  4  1  0  0  0
 21 22  1  0  0  0
 21 23  1  0  0  0
  4  5  1  0  0  0
  5  6  1  0  0  0
  6  7  1  0  0  0
  6  8  1  0  0  0
  8  9  2  0  0  0
  9 10  1  0  0  0
  9 14  1  0  0  0
 10 47  1  0  0  0
 10 11  1  0  0  0
 10 12  1  0  0  0
 47 48  1  0  0  0
 48 49  1  0  0  0
 12 13  1  0  0  0
 13 14  1  0  0  0
 14 15  1  0  0  0
 15 16  1  0  0  0
 15 17  1  0  0  0
 17 18  1  0  0  0
 36 38  1  0  0  0
 11 19  1  0  0  0
 18 20  1  0  0  0
M  END
> <minimizedAffinity>
-6.35944

$$$$
3E6Y_CW1_A_261


 49 54  0  0  0  0  0  0  0  0999 V2000
  -13.2055  -17.7862  -19.0697 C   0  0  0  0  0  0  0  0  0  0  0  0
  -14.4742  -18.5399  -19.4845 C   0  0  0  0  0  0  0  0  0  0  0  0
  -15.8221  -18.1310  -19.4934 C   0  0  0  0  0  0  0  0  0  0  0  0
  -16.7014  -19.2221  -20.0544 C   0  0  0  0  0  0  0  0  0  0  0  0
  -15.7496  -20.0394  -20.9281 C   0  0  0  0  0  0  0  0  0  0  0  0
  -14.3660  -19.9171  -20.2192 C   0  0  0  0  0  0  0  0  0  0  0  0
  -13.2132  -19.9453  -21.2393 C   0  0  0  0  0  0  0  0  0  0  0  0
  -14.2494  -21.0591  -19.3841 C   0  0  0  0  0  0  0  0  0  0  0  0
  -14.0101  -21.2052  -18.0003 C   0  0  0  0  0  0  0  0  0  0  0  0
  -14.0397  -22.5028  -17.1716 C   0  0  0  0  0  0  0  0  0  0  0  0
  -15.1767  -23.3012  -17.5834 O   0  0  0  0  0  0  0  0  0  0  0  0
  -14.3306  -22.1130  -15.7671 C   0  0  0  0  0  0  0  0  0  0  0  0
  -13.9182  -20.6607  -15.5883 C   0  0  0  0  0  0  0  0  0  0  0  0
  -13.8942  -20.0385  -16.9729 C   0  0  0  0  0  0  0  0  0  0  0  0
  -12.6033  -19.1532  -17.0290 C   0  0  0  0  0  0  0  0  0  0  0  0
  -11.3410  -19.7742  -17.7179 C   0  0  0  0  0  0  0  0  0  0  0  0
  -13.0215  -17.7886  -17.5498 C   0  0  0  0  0  0  0  0  0  0  0  0
  -12.0756  -16.7964  -17.1236 O   0  0  0  0  0  0  0  0  0  0  0  0
  -15.0523  -23.5923  -18.5003 H   0  0  0  0  0  0  0  0  0  0  0  0
  -11.2025  -17.0025  -17.4925 H   0  0  0  0  0  0  0  0  0  0  0  0
  -16.2750  -16.8724  -18.7031 C   0  0  0  0  0  0  0  0  0  0  0  0
  -16.8738  -15.6991  -19.5320 C   0  0  0  0  0  0  0  0  0  0  0  0
  -17.1983  -17.3604  -17.5555 C   0  0  0  0  0  0  0  0  0  0  0  0
  -13.4254  -16.4130  -19.5374 O   0  0  0  0  0  0  0  0  0  0  0  0
  -14.2635  -11.3640  -20.1497 C   0  0  0  0  0  0  0  0  0  0  0  0
  -14.4517  -10.3952  -21.3417 C   0  0  0  0  0  0  0  0  0  0  0  0
  -14.5091  -12.8308  -20.4395 O   0  0  0  0  0  0  0  0  0  0  0  0
  -13.3519  -13.3709  -21.0279 C   0  0  0  0  0  0  0  0  0  0  0  0
  -13.4295  -14.4473  -22.1883 C   0  0  0  0  0  0  0  0  0  0  0  0
  -13.7028  -15.7507  -21.6504 O   0  0  0  0  0  0  0  0  0  0  0  0
  -12.6603  -12.2373  -21.5925 O   0  0  0  0  0  0  0  0  0  0  0  0
  -12.6322  -11.5070  -20.4733 C   0  0  0  0  0  0  0  0  0  0  0  0
  -11.7298  -12.4648  -19.8415 O   0  0  0  0  0  0  0  0  0  0  0  0
  -12.4360  -13.7351  -19.9111 C   0  0  0  0  0  0  0  0  0  0  0  0
  -11.6715  -14.9803  -20.3740 C   0  0  0  0  0  0  0  0  0  0  0  0
  -10.7316  -15.3172  -19.3615 O   0  0  0  0  0  0  0  0  0  0  0  0
  -12.6530  -16.1441  -20.7082 C   0  0  0  0  0  0  0  0  0  0  0  0
  -11.2006  -15.4961  -18.5315 H   0  0  0  0  0  0  0  0  0  0  0  0
  -13.7096  -10.7555  -18.8222 C   0  0  0  0  0  0  0  0  0  0  0  0
  -14.4441  -11.4177  -17.6553 C   0  0  0  0  0  0  0  0  0  0  0  0
  -13.4507  -12.0805  -16.9326 O   0  0  0  0  0  0  0  0  0  0  0  0
  -14.6421  -14.0020  -17.2265 O   0  0  0  0  0  0  0  0  0  0  0  0
  -13.8852  -13.3321  -16.5074 C   0  0  0  0  0  0  0  0  0  0  0  0
  -14.1969  -13.9886  -23.4012 C   0  0  0  0  0  0  0  0  0  0  0  0
  -13.3618  -13.7682  -24.4919 O   0  0  0  0  0  0  0  0  0  0  0  0
  -13.7704  -12.4427  -24.9313 C   0  0  0  0  0  0  0  0  0  0  0  0
  -12.7997  -23.3652  -17.2205 C   0  0  0  0  0  0  0  0  0  0  0  0
  -13.0220  -24.2324  -18.3566 O   0  0  0  0  0  0  0  0  0  0  0  0
  -11.8666  -24.2294  -19.2165 C   0  0  0  0  0  0  0  0  0  0  0  0
 42 43  2  0  0  0
 43 41  1  0  0  0
 41 40  1  0  0  0
 40 39  1  0  0  0
 39 25  1  0  0  0
 25 26  1  0  0  0
 25 27  1  0  0  0
 25 32  1  0  0  0
 27 28  1  0  0  0
 28 29  1  0  0  0
 28 31  1  0  0  0
 28 34  1  0  0  0
 29 30  1  0  0  0
 29 44  1  0  0  0
 30 37  1  0  0  0
 44 45  1  0  0  0
 45 46  1  0  0  0
 31 32  1  0  0  0
 32 33  1  0  0  0
 33 34  1  0  0  0
 34 35  1  0  0  0
 35 36  1  0  0  0
 35 37  1  0  0  0
 37 24  1  0  0  0
 24  1  1  0  0  0
  1  2  1  0  0  0
  1 17  1  0  0  0
  2  3  2  0  0  0
  2  6  1  0  0  0
  3 21  1  0  0  0
  3  4  1  0  0  0
 21 22  1  0  0  0
 21 23  1  0  0  0
  4  5  1  0  0  0
  5  6  1  0  0  0
  6  7  1  0  0  0
  6  8  1  0  0  0
  8  9  2  0  0  0
  9 10  1  0  0  0
  9 14  1  0  0  0
 10 47  1  0  0  0
 10 11  1  0  0  0
 10 12  1  0  0  0
 47 48  1  0  0  0
 48 49  1  0  0  0
 12 13  1  0  0  0
 13 14  1  0  0  0
 14 15  1  0  0  0
 15 16  1  0  0  0
 15 17  1  0  0  0
 17 18  1  0  0  0
 36 38  1  0  0  0
 11 19  1  0  0  0
 18 20  1  0  0  0
M  END
> <minimizedAffinity>
-6.25129

$$$$
3E6Y_CW1_A_261


 49 54  0  0  0  0  0  0  0  0999 V2000
  -13.5892  -12.7264  -20.0296 C   0  0  0  0  0  0  0  0  0  0  0  0
  -14.0193  -13.7759  -21.0607 C   0  0  0  0  0  0  0  0  0  0  0  0
  -13.4716  -15.0363  -21.3696 C   0  0  0  0  0  0  0  0  0  0  0  0
  -14.2988  -15.7272  -22.4264 C   0  0  0  0  0  0  0  0  0  0  0  0
  -15.6789  -15.0857  -22.2812 C   0  0  0  0  0  0  0  0  0  0  0  0
  -15.3850  -13.6285  -21.8100 C   0  0  0  0  0  0  0  0  0  0  0  0
  -16.5024  -13.1050  -20.8892 C   0  0  0  0  0  0  0  0  0  0  0  0
  -15.3662  -12.8314  -22.9846 C   0  0  0  0  0  0  0  0  0  0  0  0
  -14.3954  -11.9629  -23.5293 C   0  0  0  0  0  0  0  0  0  0  0  0
  -14.4304  -11.2488  -24.8932 C   0  0  0  0  0  0  0  0  0  0  0  0
  -14.9150  -12.1728  -25.8987 O   0  0  0  0  0  0  0  0  0  0  0  0
  -13.0205  -10.9706  -25.2725 C   0  0  0  0  0  0  0  0  0  0  0  0
  -12.1879  -10.9493  -24.0007 C   0  0  0  0  0  0  0  0  0  0  0  0
  -12.9650  -11.7292  -22.9553 C   0  0  0  0  0  0  0  0  0  0  0  0
  -12.8460  -10.9105  -21.6253 C   0  0  0  0  0  0  0  0  0  0  0  0
  -14.0476   -9.9779  -21.2510 C   0  0  0  0  0  0  0  0  0  0  0  0
  -12.4173  -11.8837  -20.5402 C   0  0  0  0  0  0  0  0  0  0  0  0
  -11.7685  -11.1695  -19.4773 O   0  0  0  0  0  0  0  0  0  0  0  0
  -15.8393  -12.3995  -25.7108 H   0  0  0  0  0  0  0  0  0  0  0  0
  -12.3917  -10.5388  -19.0840 H   0  0  0  0  0  0  0  0  0  0  0  0
  -12.0410  -15.4171  -20.8982 C   0  0  0  0  0  0  0  0  0  0  0  0
  -11.9342  -16.4430  -19.7327 C   0  0  0  0  0  0  0  0  0  0  0  0
  -11.2356  -15.8216  -22.1613 C   0  0  0  0  0  0  0  0  0  0  0  0
  -13.1621  -13.5101  -18.8650 O   0  0  0  0  0  0  0  0  0  0  0  0
  -16.1559  -17.0267  -16.5761 C   0  0  0  0  0  0  0  0  0  0  0  0
  -17.4250  -17.0132  -15.6905 C   0  0  0  0  0  0  0  0  0  0  0  0
  -15.9044  -15.7782  -17.3970 O   0  0  0  0  0  0  0  0  0  0  0  0
  -15.2890  -14.8181  -16.5745 C   0  0  0  0  0  0  0  0  0  0  0  0
  -15.6330  -13.2755  -16.6901 C   0  0  0  0  0  0  0  0  0  0  0  0
  -14.9453  -12.6871  -17.8052 O   0  0  0  0  0  0  0  0  0  0  0  0
  -15.6477  -15.1983  -15.2296 O   0  0  0  0  0  0  0  0  0  0  0  0
  -15.2215  -16.4625  -15.3132 C   0  0  0  0  0  0  0  0  0  0  0  0
  -13.8368  -16.0145  -15.4258 O   0  0  0  0  0  0  0  0  0  0  0  0
  -13.8315  -15.1252  -16.5775 C   0  0  0  0  0  0  0  0  0  0  0  0
  -13.1103  -13.7773  -16.4662 C   0  0  0  0  0  0  0  0  0  0  0  0
  -11.7137  -14.0342  -16.3920 O   0  0  0  0  0  0  0  0  0  0  0  0
  -13.4971  -12.8394  -17.6494 C   0  0  0  0  0  0  0  0  0  0  0  0
  -11.4289  -14.5064  -17.1901 H   0  0  0  0  0  0  0  0  0  0  0  0
  -15.2011  -18.2537  -16.4280 C   0  0  0  0  0  0  0  0  0  0  0  0
  -14.5450  -18.5096  -17.7859 C   0  0  0  0  0  0  0  0  0  0  0  0
  -13.1831  -18.6425  -17.5097 O   0  0  0  0  0  0  0  0  0  0  0  0
  -11.4797  -20.0658  -18.0298 O   0  0  0  0  0  0  0  0  0  0  0  0
  -12.7018  -19.8801  -17.9254 C   0  0  0  0  0  0  0  0  0  0  0  0
  -17.0912  -12.9545  -16.4870 C   0  0  0  0  0  0  0  0  0  0  0  0
  -17.2690  -11.7684  -15.7820 O   0  0  0  0  0  0  0  0  0  0  0  0
  -16.0295  -11.6690  -15.0264 C   0  0  0  0  0  0  0  0  0  0  0  0
  -15.2449   -9.9782  -24.9709 C   0  0  0  0  0  0  0  0  0  0  0  0
  -14.8635   -9.3959  -26.2389 O   0  0  0  0  0  0  0  0  0  0  0  0
  -16.0362   -9.0893  -27.0166 C   0  0  0  0  0  0  0  0  0  0  0  0
 42 43  2  0  0  0
 43 41  1  0  0  0
 41 40  1  0  0  0
 40 39  1  0  0  0
 39 25  1  0  0  0
 25 26  1  0  0  0
 25 27  1  0  0  0
 25 32  1  0  0  0
 27 28  1  0  0  0
 28 29  1  0  0  0
 28 31  1  0  0  0
 28 34  1  0  0  0
 29 30  1  0  0  0
 29 44  1  0  0  0
 30 37  1  0  0  0
 44 45  1  0  0  0
 45 46  1  0  0  0
 31 32  1  0  0  0
 32 33  1  0  0  0
 33 34  1  0  0  0
 34 35  1  0  0  0
 35 36  1  0  0  0
 35 37  1  0  0  0
 37 24  1  0  0  0
 24  1  1  0  0  0
  1  2  1  0  0  0
  1 17  1  0  0  0
  2  3  2  0  0  0
  2  6  1  0  0  0
  3 21  1  0  0  0
  3  4  1  0  0  0
 21 22  1  0  0  0
 21 23  1  0  0  0
  4  5  1  0  0  0
  5  6  1  0  0  0
  6  7  1  0  0  0
  6  8  1  0  0  0
  8  9  2  0  0  0
  9 10  1  0  0  0
  9 14  1  0  0  0
 10 47  1  0  0  0
 10 11  1  0  0  0
 10 12  1  0  0  0
 47 48  1  0  0  0
 48 49  1  0  0  0
 12 13  1  0  0  0
 13 14  1  0  0  0
 14 15  1  0  0  0
 15 16  1  0  0  0
 15 17  1  0  0  0
 17 18  1  0  0  0
 36 38  1  0  0  0
 11 19  1  0  0  0
 18 20  1  0  0  0
M  END
> <minimizedAffinity>
-6.21750

$$$$
3E6Y_CW1_A_261


 49 54  0  0  0  0  0  0  0  0999 V2000
  -15.4391  -15.7620  -21.8516 C   0  0  0  0  0  0  0  0  0  0  0  0
  -14.1763  -15.9768  -21.0097 C   0  0  0  0  0  0  0  0  0  0  0  0
  -13.7357  -17.1036  -20.2884 C   0  0  0  0  0  0  0  0  0  0  0  0
  -12.3844  -16.8396  -19.6698 C   0  0  0  0  0  0  0  0  0  0  0  0
  -11.7886  -15.7462  -20.5568 C   0  0  0  0  0  0  0  0  0  0  0  0
  -13.0204  -14.9227  -21.0428 C   0  0  0  0  0  0  0  0  0  0  0  0
  -12.7886  -14.3548  -22.4549 C   0  0  0  0  0  0  0  0  0  0  0  0
  -13.1466  -13.8340  -20.1404 C   0  0  0  0  0  0  0  0  0  0  0  0
  -14.2155  -13.3857  -19.3342 C   0  0  0  0  0  0  0  0  0  0  0  0
  -14.1939  -12.2617  -18.2819 C   0  0  0  0  0  0  0  0  0  0  0  0
  -12.9734  -12.3623  -17.5073 O   0  0  0  0  0  0  0  0  0  0  0  0
  -15.2876  -12.5503  -17.3177 C   0  0  0  0  0  0  0  0  0  0  0  0
  -16.3102  -13.4307  -18.0179 C   0  0  0  0  0  0  0  0  0  0  0  0
  -15.5923  -14.0996  -19.1764 C   0  0  0  0  0  0  0  0  0  0  0  0
  -16.5793  -14.0406  -20.3913 C   0  0  0  0  0  0  0  0  0  0  0  0
  -16.3601  -12.8926  -21.4342 C   0  0  0  0  0  0  0  0  0  0  0  0
  -16.6522  -15.4417  -20.9742 C   0  0  0  0  0  0  0  0  0  0  0  0
  -17.8871  -15.6063  -21.6875 O   0  0  0  0  0  0  0  0  0  0  0  0
  -12.2113  -12.1838  -18.0802 H   0  0  0  0  0  0  0  0  0  0  0  0
  -17.9225  -14.9744  -22.4226 H   0  0  0  0  0  0  0  0  0  0  0  0
  -14.7147  -18.2612  -19.9488 C   0  0  0  0  0  0  0  0  0  0  0  0
  -14.1675  -19.7108  -20.0949 C   0  0  0  0  0  0  0  0  0  0  0  0
  -15.3135  -17.9583  -18.5497 C   0  0  0  0  0  0  0  0  0  0  0  0
  -15.6483  -17.0447  -22.5326 O   0  0  0  0  0  0  0  0  0  0  0  0
  -11.8816  -18.3255  -25.8099 C   0  0  0  0  0  0  0  0  0  0  0  0
  -11.3867  -17.8408  -27.1937 C   0  0  0  0  0  0  0  0  0  0  0  0
  -12.7314  -17.3454  -25.0268 O   0  0  0  0  0  0  0  0  0  0  0  0
  -14.0538  -17.4231  -25.4983 C   0  0  0  0  0  0  0  0  0  0  0  0
  -14.9697  -16.1368  -25.6320 C   0  0  0  0  0  0  0  0  0  0  0  0
  -15.5019  -15.7608  -24.3520 O   0  0  0  0  0  0  0  0  0  0  0  0
  -13.9401  -17.9616  -26.8321 O   0  0  0  0  0  0  0  0  0  0  0  0
  -13.2245  -19.0399  -26.4972 C   0  0  0  0  0  0  0  0  0  0  0  0
  -14.3556  -19.5914  -25.7573 O   0  0  0  0  0  0  0  0  0  0  0  0
  -14.6945  -18.5631  -24.7851 C   0  0  0  0  0  0  0  0  0  0  0  0
  -16.1666  -18.1785  -24.6000 C   0  0  0  0  0  0  0  0  0  0  0  0
  -16.8307  -19.2758  -23.9860 O   0  0  0  0  0  0  0  0  0  0  0  0
  -16.2983  -16.8535  -23.7898 C   0  0  0  0  0  0  0  0  0  0  0  0
  -16.4188  -19.4641  -23.1283 H   0  0  0  0  0  0  0  0  0  0  0  0
  -11.5765  -19.8086  -25.4274 C   0  0  0  0  0  0  0  0  0  0  0  0
  -10.3866  -19.8144  -24.4661 C   0  0  0  0  0  0  0  0  0  0  0  0
  -10.6561  -20.8448  -23.5638 O   0  0  0  0  0  0  0  0  0  0  0  0
  -12.4528  -21.7767  -22.5145 O   0  0  0  0  0  0  0  0  0  0  0  0
  -11.9850  -20.8209  -23.1518 C   0  0  0  0  0  0  0  0  0  0  0  0
  -14.3962  -15.0642  -26.5216 C   0  0  0  0  0  0  0  0  0  0  0  0
  -13.9298  -13.9767  -25.7900 O   0  0  0  0  0  0  0  0  0  0  0  0
  -14.2919  -12.8534  -26.6410 C   0  0  0  0  0  0  0  0  0  0  0  0
  -14.3234  -10.8478  -18.7994 C   0  0  0  0  0  0  0  0  0  0  0  0
  -12.9578  -10.3773  -18.8759 O   0  0  0  0  0  0  0  0  0  0  0  0
  -12.7199   -9.7496  -20.1501 C   0  0  0  0  0  0  0  0  0  0  0  0
 42 43  2  0  0  0
 43 41  1  0  0  0
 41 40  1  0  0  0
 40 39  1  0  0  0
 39 25  1  0  0  0
 25 26  1  0  0  0
 25 27  1  0  0  0
 25 32  1  0  0  0
 27 28  1  0  0  0
 28 29  1  0  0  0
 28 31  1  0  0  0
 28 34  1  0  0  0
 29 30  1  0  0  0
 29 44  1  0  0  0
 30 37  1  0  0  0
 44 45  1  0  0  0
 45 46  1  0  0  0
 31 32  1  0  0  0
 32 33  1  0  0  0
 33 34  1  0  0  0
 34 35  1  0  0  0
 35 36  1  0  0  0
 35 37  1  0  0  0
 37 24  1  0  0  0
 24  1  1  0  0  0
  1  2  1  0  0  0
  1 17  1  0  0  0
  2  3  2  0  0  0
  2  6  1  0  0  0
  3 21  1  0  0  0
  3  4  1  0  0  0
 21 22  1  0  0  0
 21 23  1  0  0  0
  4  5  1  0  0  0
  5  6  1  0  0  0
  6  7  1  0  0  0
  6  8  1  0  0  0
  8  9  2  0  0  0
  9 10  1  0  0  0
  9 14  1  0  0  0
 10 47  1  0  0  0
 10 11  1  0  0  0
 10 12  1  0  0  0
 47 48  1  0  0  0
 48 49  1  0  0  0
 12 13  1  0  0  0
 13 14  1  0  0  0
 14 15  1  0  0  0
 15 16  1  0  0  0
 15 17  1  0  0  0
 17 18  1  0  0  0
 36 38  1  0  0  0
 11 19  1  0  0  0
 18 20  1  0  0  0
M  END
> <minimizedAffinity>
-6.09172

$$$$
3E6Y_CW1_A_261


 49 54  0  0  0  0  0  0  0  0999 V2000
  -14.1860  -15.2164  -21.9911 C   0  0  0  0  0  0  0  0  0  0  0  0
  -13.2825  -15.5629  -20.8023 C   0  0  0  0  0  0  0  0  0  0  0  0
  -13.0530  -16.7912  -20.1523 C   0  0  0  0  0  0  0  0  0  0  0  0
  -12.0177  -16.6288  -19.0660 C   0  0  0  0  0  0  0  0  0  0  0  0
  -11.2174  -15.4042  -19.5101 C   0  0  0  0  0  0  0  0  0  0  0  0
  -12.2512  -14.5150  -20.2667 C   0  0  0  0  0  0  0  0  0  0  0  0
  -11.5788  -13.7241  -21.4037 C   0  0  0  0  0  0  0  0  0  0  0  0
  -12.7463  -13.5883  -19.3121 C   0  0  0  0  0  0  0  0  0  0  0  0
  -14.0528  -13.2796  -18.8747 C   0  0  0  0  0  0  0  0  0  0  0  0
  -14.4634  -12.3420  -17.7242 C   0  0  0  0  0  0  0  0  0  0  0  0
  -13.5830  -12.5650  -16.5951 O   0  0  0  0  0  0  0  0  0  0  0  0
  -15.8042  -12.7863  -17.2614 C   0  0  0  0  0  0  0  0  0  0  0  0
  -16.4671  -13.5429  -18.4012 C   0  0  0  0  0  0  0  0  0  0  0  0
  -15.3542  -14.0125  -19.3209 C   0  0  0  0  0  0  0  0  0  0  0  0
  -15.8611  -13.7584  -20.7811 C   0  0  0  0  0  0  0  0  0  0  0  0
  -15.3627  -12.4553  -21.4932 C   0  0  0  0  0  0  0  0  0  0  0  0
  -15.6446  -15.0460  -21.5580 C   0  0  0  0  0  0  0  0  0  0  0  0
  -16.5440  -15.0947  -22.6757 O   0  0  0  0  0  0  0  0  0  0  0  0
  -12.6816  -12.2939  -16.8295 H   0  0  0  0  0  0  0  0  0  0  0  0
  -16.3601  -14.3515  -23.2714 H   0  0  0  0  0  0  0  0  0  0  0  0
  -14.0187  -17.9908  -20.3582 C   0  0  0  0  0  0  0  0  0  0  0  0
  -13.3753  -19.3525  -20.7504 C   0  0  0  0  0  0  0  0  0  0  0  0
  -14.9264  -18.0683  -19.1021 C   0  0  0  0  0  0  0  0  0  0  0  0
  -14.0702  -16.3714  -22.8885 O   0  0  0  0  0  0  0  0  0  0  0  0
  -15.2402  -20.1939  -26.1426 C   0  0  0  0  0  0  0  0  0  0  0  0
  -14.4721  -21.0848  -27.1481 C   0  0  0  0  0  0  0  0  0  0  0  0
  -14.4025  -19.5244  -25.0722 O   0  0  0  0  0  0  0  0  0  0  0  0
  -13.8228  -18.3651  -25.6171 C   0  0  0  0  0  0  0  0  0  0  0  0
  -12.3500  -17.9136  -25.2451 C   0  0  0  0  0  0  0  0  0  0  0  0
  -12.3300  -17.2610  -23.9659 O   0  0  0  0  0  0  0  0  0  0  0  0
  -13.8137  -18.5907  -27.0423 O   0  0  0  0  0  0  0  0  0  0  0  0
  -15.1150  -18.8741  -27.1569 C   0  0  0  0  0  0  0  0  0  0  0  0
  -15.4702  -17.5034  -26.8019 O   0  0  0  0  0  0  0  0  0  0  0  0
  -14.8435  -17.2857  -25.5068 C   0  0  0  0  0  0  0  0  0  0  0  0
  -14.0668  -15.9854  -25.2717 C   0  0  0  0  0  0  0  0  0  0  0  0
  -15.0048  -14.9173  -25.2338 O   0  0  0  0  0  0  0  0  0  0  0  0
  -13.1977  -16.0814  -23.9814 C   0  0  0  0  0  0  0  0  0  0  0  0
  -15.6384  -15.0688  -24.5151 H   0  0  0  0  0  0  0  0  0  0  0  0
  -16.7610  -19.9659  -26.4152 C   0  0  0  0  0  0  0  0  0  0  0  0
  -17.4926  -19.9971  -25.0722 C   0  0  0  0  0  0  0  0  0  0  0  0
  -17.8926  -18.6787  -24.8480 O   0  0  0  0  0  0  0  0  0  0  0  0
  -18.4325  -17.3126  -23.1045 O   0  0  0  0  0  0  0  0  0  0  0  0
  -17.9746  -18.4001  -23.4872 C   0  0  0  0  0  0  0  0  0  0  0  0
  -11.2960  -18.9470  -25.5478 C   0  0  0  0  0  0  0  0  0  0  0  0
  -10.3369  -19.0209  -24.5428 O   0  0  0  0  0  0  0  0  0  0  0  0
  -10.4729  -20.3956  -24.0860 C   0  0  0  0  0  0  0  0  0  0  0  0
  -14.4893  -10.8630  -18.0331 C   0  0  0  0  0  0  0  0  0  0  0  0
  -13.1690  -10.5929  -18.5587 O   0  0  0  0  0  0  0  0  0  0  0  0
  -13.2565   -9.6983  -19.6840 C   0  0  0  0  0  0  0  0  0  0  0  0
 42 43  2  0  0  0
 43 41  1  0  0  0
 41 40  1  0  0  0
 40 39  1  0  0  0
 39 25  1  0  0  0
 25 26  1  0  0  0
 25 27  1  0  0  0
 25 32  1  0  0  0
 27 28  1  0  0  0
 28 29  1  0  0  0
 28 31  1  0  0  0
 28 34  1  0  0  0
 29 30  1  0  0  0
 29 44  1  0  0  0
 30 37  1  0  0  0
 44 45  1  0  0  0
 45 46  1  0  0  0
 31 32  1  0  0  0
 32 33  1  0  0  0
 33 34  1  0  0  0
 34 35  1  0  0  0
 35 36  1  0  0  0
 35 37  1  0  0  0
 37 24  1  0  0  0
 24  1  1  0  0  0
  1  2  1  0  0  0
  1 17  1  0  0  0
  2  3  2  0  0  0
  2  6  1  0  0  0
  3 21  1  0  0  0
  3  4  1  0  0  0
 21 22  1  0  0  0
 21 23  1  0  0  0
  4  5  1  0  0  0
  5  6  1  0  0  0
  6  7  1  0  0  0
  6  8  1  0  0  0
  8  9  2  0  0  0
  9 10  1  0  0  0
  9 14  1  0  0  0
 10 47  1  0  0  0
 10 11  1  0  0  0
 10 12  1  0  0  0
 47 48  1  0  0  0
 48 49  1  0  0  0
 12 13  1  0  0  0
 13 14  1  0  0  0
 14 15  1  0  0  0
 15 16  1  0  0  0
 15 17  1  0  0  0
 17 18  1  0  0  0
 36 38  1  0  0  0
 11 19  1  0  0  0
 18 20  1  0  0  0
M  END
> <minimizedAffinity>
-6.02001

$$$$
3E6Y_CW1_A_261


 49 54  0  0  0  0  0  0  0  0999 V2000
  -14.6039  -14.8662  -19.7850 C   0  0  0  0  0  0  0  0  0  0  0  0
  -13.3711  -15.1001  -20.6655 C   0  0  0  0  0  0  0  0  0  0  0  0
  -12.0252  -15.3265  -20.3173 C   0  0  0  0  0  0  0  0  0  0  0  0
  -11.1928  -15.5658  -21.5535 C   0  0  0  0  0  0  0  0  0  0  0  0
  -12.2076  -16.0692  -22.5802 C   0  0  0  0  0  0  0  0  0  0  0  0
  -13.5374  -15.3482  -22.2014 C   0  0  0  0  0  0  0  0  0  0  0  0
  -14.7590  -16.2289  -22.5215 C   0  0  0  0  0  0  0  0  0  0  0  0
  -13.6007  -14.1866  -23.0150 C   0  0  0  0  0  0  0  0  0  0  0  0
  -13.7431  -12.8160  -22.7068 C   0  0  0  0  0  0  0  0  0  0  0  0
  -13.6619  -11.6203  -23.6738 C   0  0  0  0  0  0  0  0  0  0  0  0
  -12.5605  -11.8286  -24.5921 O   0  0  0  0  0  0  0  0  0  0  0  0
  -13.2713  -10.4357  -22.8655 C   0  0  0  0  0  0  0  0  0  0  0  0
  -13.6630  -10.7034  -21.4212 C   0  0  0  0  0  0  0  0  0  0  0  0
  -13.7809  -12.2095  -21.2712 C   0  0  0  0  0  0  0  0  0  0  0  0
  -15.0682  -12.4613  -20.4151 C   0  0  0  0  0  0  0  0  0  0  0  0
  -16.3788  -12.8325  -21.1886 C   0  0  0  0  0  0  0  0  0  0  0  0
  -14.6808  -13.4164  -19.2989 C   0  0  0  0  0  0  0  0  0  0  0  0
  -15.5897  -13.2687  -18.1975 O   0  0  0  0  0  0  0  0  0  0  0  0
  -12.7503  -12.5945  -25.1563 H   0  0  0  0  0  0  0  0  0  0  0  0
  -16.4875  -13.4951  -18.4865 H   0  0  0  0  0  0  0  0  0  0  0  0
  -11.5118  -15.0104  -18.8854 C   0  0  0  0  0  0  0  0  0  0  0  0
  -10.5759  -16.0642  -18.2251 C   0  0  0  0  0  0  0  0  0  0  0  0
  -10.9138  -13.5790  -18.9194 C   0  0  0  0  0  0  0  0  0  0  0  0
  -14.4106  -15.7609  -18.6383 O   0  0  0  0  0  0  0  0  0  0  0  0
  -13.7275  -20.6547  -20.1057 C   0  0  0  0  0  0  0  0  0  0  0  0
  -14.6081  -21.7807  -20.6986 C   0  0  0  0  0  0  0  0  0  0  0  0
  -14.2516  -19.2429  -20.2726 O   0  0  0  0  0  0  0  0  0  0  0  0
  -15.2009  -18.9956  -19.2653 C   0  0  0  0  0  0  0  0  0  0  0  0
  -16.5083  -18.1434  -19.5407 C   0  0  0  0  0  0  0  0  0  0  0  0
  -16.2070  -16.7392  -19.5308 O   0  0  0  0  0  0  0  0  0  0  0  0
  -15.6639  -20.3021  -18.8644 O   0  0  0  0  0  0  0  0  0  0  0  0
  -14.4565  -20.8177  -18.6129 C   0  0  0  0  0  0  0  0  0  0  0  0
  -14.2761  -19.9090  -17.4848 O   0  0  0  0  0  0  0  0  0  0  0  0
  -14.4395  -18.5800  -18.0544 C   0  0  0  0  0  0  0  0  0  0  0  0
  -15.3238  -17.5659  -17.3205 C   0  0  0  0  0  0  0  0  0  0  0  0
  -14.6612  -17.1990  -16.1170 O   0  0  0  0  0  0  0  0  0  0  0  0
  -15.6493  -16.3464  -18.2350 C   0  0  0  0  0  0  0  0  0  0  0  0
  -13.7995  -16.8072  -16.3288 H   0  0  0  0  0  0  0  0  0  0  0  0
  -12.4748  -21.0935  -19.2827 C   0  0  0  0  0  0  0  0  0  0  0  0
  -12.6890  -22.5384  -18.8286 C   0  0  0  0  0  0  0  0  0  0  0  0
  -11.5132  -23.2049  -19.1776 O   0  0  0  0  0  0  0  0  0  0  0  0
  -10.8444  -25.2323  -19.9775 O   0  0  0  0  0  0  0  0  0  0  0  0
  -11.7759  -24.5028  -19.6048 C   0  0  0  0  0  0  0  0  0  0  0  0
  -17.3767  -18.6903  -20.6441 C   0  0  0  0  0  0  0  0  0  0  0  0
  -18.3629  -17.7862  -21.0257 O   0  0  0  0  0  0  0  0  0  0  0  0
  -18.1895  -17.7305  -22.4693 C   0  0  0  0  0  0  0  0  0  0  0  0
  -14.9065  -11.3108  -24.4731 C   0  0  0  0  0  0  0  0  0  0  0  0
  -14.3979  -10.8207  -25.7354 O   0  0  0  0  0  0  0  0  0  0  0  0
  -15.0219   -9.5660  -26.0681 C   0  0  0  0  0  0  0  0  0  0  0  0
 42 43  2  0  0  0
 43 41  1  0  0  0
 41 40  1  0  0  0
 40 39  1  0  0  0
 39 25  1  0  0  0
 25 26  1  0  0  0
 25 27  1  0  0  0
 25 32  1  0  0  0
 27 28  1  0  0  0
 28 29  1  0  0  0
 28 31  1  0  0  0
 28 34  1  0  0  0
 29 30  1  0  0  0
 29 44  1  0  0  0
 30 37  1  0  0  0
 44 45  1  0  0  0
 45 46  1  0  0  0
 31 32  1  0  0  0
 32 33  1  0  0  0
 33 34  1  0  0  0
 34 35  1  0  0  0
 35 36  1  0  0  0
 35 37  1  0  0  0
 37 24  1  0  0  0
 24  1  1  0  0  0
  1  2  1  0  0  0
  1 17  1  0  0  0
  2  3  2  0  0  0
  2  6  1  0  0  0
  3 21  1  0  0  0
  3  4  1  0  0  0
 21 22  1  0  0  0
 21 23  1  0  0  0
  4  5  1  0  0  0
  5  6  1  0  0  0
  6  7  1  0  0  0
  6  8  1  0  0  0
  8  9  2  0  0  0
  9 10  1  0  0  0
  9 14  1  0  0  0
 10 47  1  0  0  0
 10 11  1  0  0  0
 10 12  1  0  0  0
 47 48  1  0  0  0
 48 49  1  0  0  0
 12 13  1  0  0  0
 13 14  1  0  0  0
 14 15  1  0  0  0
 15 16  1  0  0  0
 15 17  1  0  0  0
 17 18  1  0  0  0
 36 38  1  0  0  0
 11 19  1  0  0  0
 18 20  1  0  0  0
M  END
> <minimizedAffinity>
-5.67750

$$$$
3E6Y_CW1_A_261


 49 54  0  0  0  0  0  0  0  0999 V2000
  -14.6075  -14.6591  -22.9328 C   0  0  0  0  0  0  0  0  0  0  0  0
  -14.7912  -15.1557  -21.4943 C   0  0  0  0  0  0  0  0  0  0  0  0
  -15.9571  -15.5130  -20.7894 C   0  0  0  0  0  0  0  0  0  0  0  0
  -15.6080  -16.0049  -19.4057 C   0  0  0  0  0  0  0  0  0  0  0  0
  -14.1653  -16.4902  -19.5484 C   0  0  0  0  0  0  0  0  0  0  0  0
  -13.5464  -15.5615  -20.6375 C   0  0  0  0  0  0  0  0  0  0  0  0
  -12.4847  -16.3066  -21.4670 C   0  0  0  0  0  0  0  0  0  0  0  0
  -12.9042  -14.5070  -19.9367 C   0  0  0  0  0  0  0  0  0  0  0  0
  -13.0357  -13.1027  -20.0023 C   0  0  0  0  0  0  0  0  0  0  0  0
  -12.3781  -12.0520  -19.0885 C   0  0  0  0  0  0  0  0  0  0  0  0
  -12.4451  -12.5107  -17.7157 O   0  0  0  0  0  0  0  0  0  0  0  0
  -13.2384  -10.8407  -19.1329 C   0  0  0  0  0  0  0  0  0  0  0  0
  -14.0385  -10.8805  -20.4249 C   0  0  0  0  0  0  0  0  0  0  0  0
  -14.0688  -12.3295  -20.8769 C   0  0  0  0  0  0  0  0  0  0  0  0
  -13.8301  -12.3067  -22.4248 C   0  0  0  0  0  0  0  0  0  0  0  0
  -12.3743  -12.5930  -22.9271 C   0  0  0  0  0  0  0  0  0  0  0  0
  -14.9145  -13.1642  -23.0552 C   0  0  0  0  0  0  0  0  0  0  0  0
  -15.1125  -12.7685  -24.4209 O   0  0  0  0  0  0  0  0  0  0  0  0
  -11.9007  -13.3070  -17.6139 H   0  0  0  0  0  0  0  0  0  0  0  0
  -14.2928  -12.9083  -24.9202 H   0  0  0  0  0  0  0  0  0  0  0  0
  -17.3598  -15.0981  -21.3131 C   0  0  0  0  0  0  0  0  0  0  0  0
  -18.4107  -16.2332  -21.4843 C   0  0  0  0  0  0  0  0  0  0  0  0
  -17.8498  -13.9226  -20.4267 C   0  0  0  0  0  0  0  0  0  0  0  0
  -15.5832  -15.4281  -23.7136 O   0  0  0  0  0  0  0  0  0  0  0  0
  -17.8492  -16.5632  -28.2020 C   0  0  0  0  0  0  0  0  0  0  0  0
  -18.4957  -17.8124  -28.8472 C   0  0  0  0  0  0  0  0  0  0  0  0
  -17.7350  -16.5787  -26.6912 O   0  0  0  0  0  0  0  0  0  0  0  0
  -16.5945  -17.3205  -26.3360 C   0  0  0  0  0  0  0  0  0  0  0  0
  -16.5772  -18.2692  -25.0667 C   0  0  0  0  0  0  0  0  0  0  0  0
  -16.3904  -17.5030  -23.8664 O   0  0  0  0  0  0  0  0  0  0  0  0
  -16.3440  -18.1789  -27.4684 O   0  0  0  0  0  0  0  0  0  0  0  0
  -16.3216  -17.2095  -28.3885 C   0  0  0  0  0  0  0  0  0  0  0  0
  -15.0985  -16.6578  -27.8134 O   0  0  0  0  0  0  0  0  0  0  0  0
  -15.4355  -16.3889  -26.4236 C   0  0  0  0  0  0  0  0  0  0  0  0
  -14.4545  -16.8229  -25.3288 C   0  0  0  0  0  0  0  0  0  0  0  0
  -13.2982  -16.0012  -25.4279 O   0  0  0  0  0  0  0  0  0  0  0  0
  -15.1268  -16.7650  -23.9238 C   0  0  0  0  0  0  0  0  0  0  0  0
  -13.5506  -15.0723  -25.3085 H   0  0  0  0  0  0  0  0  0  0  0  0
  -17.2599  -15.4894  -29.1710 C   0  0  0  0  0  0  0  0  0  0  0  0
  -17.8904  -14.1401  -28.8223 C   0  0  0  0  0  0  0  0  0  0  0  0
  -16.8415  -13.3717  -28.3145 O   0  0  0  0  0  0  0  0  0  0  0  0
  -16.1958  -11.6161  -29.6177 O   0  0  0  0  0  0  0  0  0  0  0  0
  -16.9417  -12.0459  -28.7247 C   0  0  0  0  0  0  0  0  0  0  0  0
  -17.6378  -19.3394  -25.0854 C   0  0  0  0  0  0  0  0  0  0  0  0
  -17.0984  -20.6017  -25.3114 O   0  0  0  0  0  0  0  0  0  0  0  0
  -18.0381  -21.1737  -26.2636 C   0  0  0  0  0  0  0  0  0  0  0  0
  -10.9481  -11.6800  -19.4052 C   0  0  0  0  0  0  0  0  0  0  0  0
  -10.8124  -10.3381  -18.8824 O   0  0  0  0  0  0  0  0  0  0  0  0
   -9.4279   -9.9414  -18.8877 C   0  0  0  0  0  0  0  0  0  0  0  0
 42 43  2  0  0  0
 43 41  1  0  0  0
 41 40  1  0  0  0
 40 39  1  0  0  0
 39 25  1  0  0  0
 25 26  1  0  0  0
 25 27  1  0  0  0
 25 32  1  0  0  0
 27 28  1  0  0  0
 28 29  1  0  0  0
 28 31  1  0  0  0
 28 34  1  0  0  0
 29 30  1  0  0  0
 29 44  1  0  0  0
 30 37  1  0  0  0
 44 45  1  0  0  0
 45 46  1  0  0  0
 31 32  1  0  0  0
 32 33  1  0  0  0
 33 34  1  0  0  0
 34 35  1  0  0  0
 35 36  1  0  0  0
 35 37  1  0  0  0
 37 24  1  0  0  0
 24  1  1  0  0  0
  1  2  1  0  0  0
  1 17  1  0  0  0
  2  3  2  0  0  0
  2  6  1  0  0  0
  3 21  1  0  0  0
  3  4  1  0  0  0
 21 22  1  0  0  0
 21 23  1  0  0  0
  4  5  1  0  0  0
  5  6  1  0  0  0
  6  7  1  0  0  0
  6  8  1  0  0  0
  8  9  2  0  0  0
  9 10  1  0  0  0
  9 14  1  0  0  0
 10 47  1  0  0  0
 10 11  1  0  0  0
 10 12  1  0  0  0
 47 48  1  0  0  0
 48 49  1  0  0  0
 12 13  1  0  0  0
 13 14  1  0  0  0
 14 15  1  0  0  0
 15 16  1  0  0  0
 15 17  1  0  0  0
 17 18  1  0  0  0
 36 38  1  0  0  0
 11 19  1  0  0  0
 18 20  1  0  0  0
M  END
> <minimizedAffinity>
-5.67108

$$$$
3E6Y_CW1_A_261


 49 54  0  0  0  0  0  0  0  0999 V2000
  -14.0008  -17.4480  -22.7345 C   0  0  0  0  0  0  0  0  0  0  0  0
  -14.5032  -18.8762  -22.4948 C   0  0  0  0  0  0  0  0  0  0  0  0
  -14.5365  -19.6514  -21.3193 C   0  0  0  0  0  0  0  0  0  0  0  0
  -15.1904  -20.9857  -21.5847 C   0  0  0  0  0  0  0  0  0  0  0  0
  -16.0754  -20.7182  -22.8023 C   0  0  0  0  0  0  0  0  0  0  0  0
  -15.3119  -19.6224  -23.6073 C   0  0  0  0  0  0  0  0  0  0  0  0
  -16.2903  -18.6888  -24.3432 C   0  0  0  0  0  0  0  0  0  0  0  0
  -14.5404  -20.3133  -24.5783 C   0  0  0  0  0  0  0  0  0  0  0  0
  -13.1597  -20.3112  -24.8735 C   0  0  0  0  0  0  0  0  0  0  0  0
  -12.4089  -21.2130  -25.8707 C   0  0  0  0  0  0  0  0  0  0  0  0
  -12.9062  -22.5686  -25.7496 O   0  0  0  0  0  0  0  0  0  0  0  0
  -10.9954  -21.2786  -25.4155 C   0  0  0  0  0  0  0  0  0  0  0  0
  -10.7186  -20.0488  -24.5657 C   0  0  0  0  0  0  0  0  0  0  0  0
  -12.0633  -19.5455  -24.0724 C   0  0  0  0  0  0  0  0  0  0  0  0
  -12.0222  -17.9861  -24.2148 C   0  0  0  0  0  0  0  0  0  0  0  0
  -12.7004  -17.3669  -25.4837 C   0  0  0  0  0  0  0  0  0  0  0  0
  -12.4780  -17.4056  -22.8868 C   0  0  0  0  0  0  0  0  0  0  0  0
  -11.9619  -16.0744  -22.7371 O   0  0  0  0  0  0  0  0  0  0  0  0
  -13.8333  -22.5994  -26.0331 H   0  0  0  0  0  0  0  0  0  0  0  0
  -12.3108  -15.5108  -23.4452 H   0  0  0  0  0  0  0  0  0  0  0  0
  -13.6915  -19.2492  -20.0791 C   0  0  0  0  0  0  0  0  0  0  0  0
  -14.4737  -18.8038  -18.8094 C   0  0  0  0  0  0  0  0  0  0  0  0
  -12.6837  -20.4001  -19.8193 C   0  0  0  0  0  0  0  0  0  0  0  0
  -14.3960  -16.7129  -21.5277 O   0  0  0  0  0  0  0  0  0  0  0  0
  -13.4973  -12.3701  -18.9005 C   0  0  0  0  0  0  0  0  0  0  0  0
  -14.3234  -11.3993  -18.0232 C   0  0  0  0  0  0  0  0  0  0  0  0
  -14.0742  -13.7598  -19.0790 O   0  0  0  0  0  0  0  0  0  0  0  0
  -15.0479  -13.7136  -20.0923 C   0  0  0  0  0  0  0  0  0  0  0  0
  -16.3837  -14.5621  -20.0064 C   0  0  0  0  0  0  0  0  0  0  0  0
  -16.1383  -15.9284  -20.3747 O   0  0  0  0  0  0  0  0  0  0  0  0
  -15.4649  -12.3331  -20.1422 O   0  0  0  0  0  0  0  0  0  0  0  0
  -14.2421  -11.8130  -20.2866 C   0  0  0  0  0  0  0  0  0  0  0  0
  -14.1151  -12.4152  -21.6102 O   0  0  0  0  0  0  0  0  0  0  0  0
  -14.3222  -13.8382  -21.3872 C   0  0  0  0  0  0  0  0  0  0  0  0
  -15.2572  -14.6047  -22.3292 C   0  0  0  0  0  0  0  0  0  0  0  0
  -14.6281  -14.6806  -23.6023 O   0  0  0  0  0  0  0  0  0  0  0  0
  -15.6166  -16.0027  -21.7410 C   0  0  0  0  0  0  0  0  0  0  0  0
  -13.7795  -15.1425  -23.5166 H   0  0  0  0  0  0  0  0  0  0  0  0
  -12.2410  -11.7824  -19.6184 C   0  0  0  0  0  0  0  0  0  0  0  0
  -11.0018  -12.2110  -18.8307 C   0  0  0  0  0  0  0  0  0  0  0  0
  -10.2535  -12.9790  -19.7243 O   0  0  0  0  0  0  0  0  0  0  0  0
  -10.4712  -13.8583  -21.8164 O   0  0  0  0  0  0  0  0  0  0  0  0
  -10.8616  -13.0352  -20.9745 C   0  0  0  0  0  0  0  0  0  0  0  0
  -17.2127  -14.2799  -18.7802 C   0  0  0  0  0  0  0  0  0  0  0  0
  -16.8006  -15.0375  -17.6886 O   0  0  0  0  0  0  0  0  0  0  0  0
  -16.7504  -14.0459  -16.6251 C   0  0  0  0  0  0  0  0  0  0  0  0
  -12.4632  -20.8056  -27.3249 C   0  0  0  0  0  0  0  0  0  0  0  0
  -11.2033  -21.2679  -27.8644 O   0  0  0  0  0  0  0  0  0  0  0  0
  -11.4231  -21.9831  -29.0950 C   0  0  0  0  0  0  0  0  0  0  0  0
 42 43  2  0  0  0
 43 41  1  0  0  0
 41 40  1  0  0  0
 40 39  1  0  0  0
 39 25  1  0  0  0
 25 26  1  0  0  0
 25 27  1  0  0  0
 25 32  1  0  0  0
 27 28  1  0  0  0
 28 29  1  0  0  0
 28 31  1  0  0  0
 28 34  1  0  0  0
 29 30  1  0  0  0
 29 44  1  0  0  0
 30 37  1  0  0  0
 44 45  1  0  0  0
 45 46  1  0  0  0
 31 32  1  0  0  0
 32 33  1  0  0  0
 33 34  1  0  0  0
 34 35  1  0  0  0
 35 36  1  0  0  0
 35 37  1  0  0  0
 37 24  1  0  0  0
 24  1  1  0  0  0
  1  2  1  0  0  0
  1 17  1  0  0  0
  2  3  2  0  0  0
  2  6  1  0  0  0
  3 21  1  0  0  0
  3  4  1  0  0  0
 21 22  1  0  0  0
 21 23  1  0  0  0
  4  5  1  0  0  0
  5  6  1  0  0  0
  6  7  1  0  0  0
  6  8  1  0  0  0
  8  9  2  0  0  0
  9 10  1  0  0  0
  9 14  1  0  0  0
 10 47  1  0  0  0
 10 11  1  0  0  0
 10 12  1  0  0  0
 47 48  1  0  0  0
 48 49  1  0  0  0
 12 13  1  0  0  0
 13 14  1  0  0  0
 14 15  1  0  0  0
 15 16  1  0  0  0
 15 17  1  0  0  0
 17 18  1  0  0  0
 36 38  1  0  0  0
 11 19  1  0  0  0
 18 20  1  0  0  0
M  END
> <minimizedAffinity>
-5.61709

$$$$
