3D1X_ROC_A_201


 55 59  0  0  0  0  0  0  0  0999 V2000
   17.1414   23.6224   18.3578 C   0  0  0  0  0  0  0  0  0  0  0  0
   18.9025   24.6145   17.0171 C   0  0  0  0  0  0  0  0  0  0  0  0
   18.9586   23.6917   16.1432 O   0  0  0  0  0  0  0  0  0  0  0  0
   18.0852   24.6841   18.0646 N   0  0  0  0  0  0  0  0  0  0  0  0
   18.1217   25.4727   18.6529 H   0  0  0  0  0  0  0  0  0  0  0  0
   19.8810   25.7840   16.9476 C   0  0  0  0  0  0  0  0  0  0  0  0
   21.2730   26.4249   18.8133 C   0  0  0  0  0  0  0  0  0  0  0  0
   20.7128   27.5408   18.9496 O   0  0  0  0  0  0  0  0  0  0  0  0
   20.9571   25.5431   17.8684 N   0  0  0  0  0  0  0  0  0  0  0  0
   21.4722   24.7071   17.7986 H   0  0  0  0  0  0  0  0  0  0  0  0
   23.0125   24.8492   19.3588 N   0  0  0  0  0  0  0  0  0  0  0  0
   22.3569   25.9450   19.7317 C   0  0  0  0  0  0  0  0  0  0  0  0
   22.6316   26.6695   20.9057 C   0  0  0  0  0  0  0  0  0  0  0  0
   23.6169   26.1594   21.7562 C   0  0  0  0  0  0  0  0  0  0  0  0
   25.4058   24.4461   22.1257 C   0  0  0  0  0  0  0  0  0  0  0  0
   26.0523   23.3197   21.6859 C   0  0  0  0  0  0  0  0  0  0  0  0
   25.7356   22.6919   20.4613 C   0  0  0  0  0  0  0  0  0  0  0  0
   24.6731   23.1690   19.7348 C   0  0  0  0  0  0  0  0  0  0  0  0
   24.3214   25.0012   21.3699 C   0  0  0  0  0  0  0  0  0  0  0  0
   23.9989   24.3549   20.1518 C   0  0  0  0  0  0  0  0  0  0  0  0
   20.3197   25.9894   15.4722 C   0  0  0  0  0  0  0  0  0  0  0  0
   20.2368   27.4807   15.1854 C   0  0  0  0  0  0  0  0  0  0  0  0
   20.9211   28.2495   15.8328 O   0  0  0  0  0  0  0  0  0  0  0  0
   19.4343   27.7917   14.1339 N   0  0  0  0  0  0  0  0  0  0  0  0
   18.9213   27.0845   13.6802 H   0  0  0  0  0  0  0  0  0  0  0  0
   19.3658   28.7242   13.8259 H   0  0  0  0  0  0  0  0  0  0  0  0
   15.7619   24.0779   17.8554 C   0  0  0  0  0  0  0  0  0  0  0  0
   15.3973   25.3319   18.4836 O   0  0  0  0  0  0  0  0  0  0  0  0
   15.3341   25.2064   19.4434 H   0  0  0  0  0  0  0  0  0  0  0  0
   14.6991   23.0158   18.0572 C   0  0  0  0  0  0  0  0  0  0  0  0
   14.4949   22.2206   16.8092 N   0  0  0  0  0  0  0  0  0  0  0  0
   13.6830   21.0531   17.0616 C   0  0  0  0  0  0  0  0  0  0  0  0
   13.5694   20.2373   15.7495 C   0  0  0  0  0  0  0  0  0  0  0  0
   12.8503   21.0845   14.6884 C   0  0  0  0  0  0  0  0  0  0  0  0
   12.7770   20.2753   13.3345 C   0  0  0  0  0  0  0  0  0  0  0  0
   14.2147   20.1047   12.7229 C   0  0  0  0  0  0  0  0  0  0  0  0
   14.7922   21.4771   12.4296 C   0  0  0  0  0  0  0  0  0  0  0  0
   14.9888   22.2057   13.7781 C   0  0  0  0  0  0  0  0  0  0  0  0
   13.6365   22.3948   14.4584 C   0  0  0  0  0  0  0  0  0  0  0  0
   13.8021   23.0893   15.8208 C   0  0  0  0  0  0  0  0  0  0  0  0
   14.3669   20.1295   18.0672 C   0  0  0  0  0  0  0  0  0  0  0  0
   15.5221   19.7752   17.9380 O   0  0  0  0  0  0  0  0  0  0  0  0
   13.5561   19.7690   19.1134 N   0  0  0  0  0  0  0  0  0  0  0  0
   12.6522   20.1564   19.1578 H   0  0  0  0  0  0  0  0  0  0  0  0
   13.9694   18.8263   20.1811 C   0  0  0  0  0  0  0  0  0  0  0  0
   14.4688   17.5296   19.5009 C   0  0  0  0  0  0  0  0  0  0  0  0
   12.7086   18.5060   21.0201 C   0  0  0  0  0  0  0  0  0  0  0  0
   15.0010   19.4893   21.0988 C   0  0  0  0  0  0  0  0  0  0  0  0
   17.1302   23.2626   19.8514 C   0  0  0  0  0  0  0  0  0  0  0  0
   18.4969   23.1273   20.4640 C   0  0  0  0  0  0  0  0  0  0  0  0
   18.9807   24.1292   21.3378 C   0  0  0  0  0  0  0  0  0  0  0  0
   19.2846   22.0345   20.2073 C   0  0  0  0  0  0  0  0  0  0  0  0
   20.2340   23.9865   21.8687 C   0  0  0  0  0  0  0  0  0  0  0  0
   20.5350   21.8992   20.7261 C   0  0  0  0  0  0  0  0  0  0  0  0
   21.0211   22.8725   21.5925 C   0  0  0  0  0  0  0  0  0  0  0  0
  8  7  2  0  0  0
  7 12  1  0  0  0
 11 12  2  0  0  0
 11 20  1  0  0  0
 12 13  1  0  0  0
 13 14  2  0  0  0
 14 19  1  0  0  0
 19 15  2  0  0  0
 19 20  1  0  0  0
 15 16  1  0  0  0
 16 17  2  0  0  0
 17 18  1  0  0  0
 18 20  2  0  0  0
  9  6  1  0  0  0
  6  2  1  0  0  0
  6 21  1  0  0  0
  2  3  2  0  0  0
 21 22  1  0  0  0
 22 23  2  0  0  0
 22 24  1  0  0  0
 27 28  1  0  0  0
 27  1  1  0  0  0
  1  4  1  0  0  0
  1 49  1  0  0  0
 49 50  1  0  0  0
 50 51  2  0  0  0
 50 52  1  0  0  0
 51 53  1  0  0  0
 52 54  2  0  0  0
 53 55  2  0  0  0
 54 55  1  0  0  0
 31 30  1  0  0  0
 31 32  1  0  0  0
 31 40  1  0  0  0
 32 41  1  0  0  0
 32 33  1  0  0  0
 41 42  2  0  0  0
 33 34  1  0  0  0
 34 35  1  0  0  0
 34 39  1  0  0  0
 35 36  1  0  0  0
 36 37  1  0  0  0
 37 38  1  0  0  0
 38 39  1  0  0  0
 39 40  1  0  0  0
 43 45  1  0  0  0
 45 46  1  0  0  0
 45 47  1  0  0  0
 45 48  1  0  0  0
  7  9  1  0  0  0
  2  4  1  0  0  0
 27 30  1  0  0  0
 41 43  1  0  0  0
  9 10  1  0  0  0
 24 25  1  0  0  0
 24 26  1  0  0  0
 28 29  1  0  0  0
  4  5  1  0  0  0
 43 44  1  0  0  0
M  END
> <minimizedAffinity>
-12.36528

$$$$
3D1X_ROC_A_201


 55 59  0  0  0  0  0  0  0  0999 V2000
   18.4457   23.4274   17.9089 C   0  0  0  0  0  0  0  0  0  0  0  0
   20.1525   24.8088   18.9392 C   0  0  0  0  0  0  0  0  0  0  0  0
   19.9544   25.8430   18.2252 O   0  0  0  0  0  0  0  0  0  0  0  0
   19.4960   23.6530   18.8835 N   0  0  0  0  0  0  0  0  0  0  0  0
   19.7279   22.9360   19.5171 H   0  0  0  0  0  0  0  0  0  0  0  0
   21.2819   24.8024   19.9661 C   0  0  0  0  0  0  0  0  0  0  0  0
   23.6514   24.5521   19.5764 C   0  0  0  0  0  0  0  0  0  0  0  0
   23.7774   23.6464   20.4375 O   0  0  0  0  0  0  0  0  0  0  0  0
   22.5054   25.1741   19.3115 N   0  0  0  0  0  0  0  0  0  0  0  0
   22.4958   25.9053   18.6524 H   0  0  0  0  0  0  0  0  0  0  0  0
   24.5206   25.9847   17.8448 N   0  0  0  0  0  0  0  0  0  0  0  0
   24.7900   25.0197   18.7199 C   0  0  0  0  0  0  0  0  0  0  0  0
   26.0602   24.4403   18.8916 C   0  0  0  0  0  0  0  0  0  0  0  0
   27.0806   24.8721   18.0392 C   0  0  0  0  0  0  0  0  0  0  0  0
   27.8027   26.4706   16.2516 C   0  0  0  0  0  0  0  0  0  0  0  0
   27.4685   27.4718   15.3762 C   0  0  0  0  0  0  0  0  0  0  0  0
   26.1707   28.0249   15.3151 C   0  0  0  0  0  0  0  0  0  0  0  0
   25.1833   27.4692   16.0900 C   0  0  0  0  0  0  0  0  0  0  0  0
   26.8085   25.8971   17.1106 C   0  0  0  0  0  0  0  0  0  0  0  0
   25.5054   26.4459   17.0303 C   0  0  0  0  0  0  0  0  0  0  0  0
   20.8824   25.7074   21.1630 C   0  0  0  0  0  0  0  0  0  0  0  0
   21.4334   27.0957   20.8764 C   0  0  0  0  0  0  0  0  0  0  0  0
   22.6056   27.3280   21.1010 O   0  0  0  0  0  0  0  0  0  0  0  0
   20.5334   27.9325   20.2968 N   0  0  0  0  0  0  0  0  0  0  0  0
   19.6034   27.6386   20.1626 H   0  0  0  0  0  0  0  0  0  0  0  0
   20.8113   28.8327   20.0110 H   0  0  0  0  0  0  0  0  0  0  0  0
   17.5761   22.2699   18.4255 C   0  0  0  0  0  0  0  0  0  0  0  0
   17.9367   21.0410   17.7473 O   0  0  0  0  0  0  0  0  0  0  0  0
   17.7675   21.1346   16.7968 H   0  0  0  0  0  0  0  0  0  0  0  0
   16.0946   22.5677   18.3038 C   0  0  0  0  0  0  0  0  0  0  0  0
   15.5266   21.9548   17.0655 N   0  0  0  0  0  0  0  0  0  0  0  0
   14.3608   21.1569   17.3660 C   0  0  0  0  0  0  0  0  0  0  0  0
   13.8648   20.4942   16.0564 C   0  0  0  0  0  0  0  0  0  0  0  0
   13.4380   21.5889   15.0663 C   0  0  0  0  0  0  0  0  0  0  0  0
   12.9789   20.9193   13.7121 C   0  0  0  0  0  0  0  0  0  0  0  0
   14.2069   20.2588   12.9869 C   0  0  0  0  0  0  0  0  0  0  0  0
   15.2281   21.3347   12.6669 C   0  0  0  0  0  0  0  0  0  0  0  0
   15.7714   21.8844   14.0050 C   0  0  0  0  0  0  0  0  0  0  0  0
   14.6341   22.5280   14.7921 C   0  0  0  0  0  0  0  0  0  0  0  0
   15.1370   23.0568   16.1462 C   0  0  0  0  0  0  0  0  0  0  0  0
   14.7230   20.0064   18.3024 C   0  0  0  0  0  0  0  0  0  0  0  0
   15.7166   19.3265   18.1372 O   0  0  0  0  0  0  0  0  0  0  0  0
   13.8327   19.8431   19.3332 N   0  0  0  0  0  0  0  0  0  0  0  0
   13.0893   20.4836   19.4130 H   0  0  0  0  0  0  0  0  0  0  0  0
   13.9310   18.7529   20.3338 C   0  0  0  0  0  0  0  0  0  0  0  0
   14.1924   17.4324   19.5712 C   0  0  0  0  0  0  0  0  0  0  0  0
   12.5603   18.6637   21.0476 C   0  0  0  0  0  0  0  0  0  0  0  0
   14.9961   19.0929   21.3806 C   0  0  0  0  0  0  0  0  0  0  0  0
   19.0139   23.1520   16.5082 C   0  0  0  0  0  0  0  0  0  0  0  0
   18.8061   24.2721   15.5266 C   0  0  0  0  0  0  0  0  0  0  0  0
   19.9143   24.8271   14.8446 C   0  0  0  0  0  0  0  0  0  0  0  0
   17.5520   24.7592   15.2608 C   0  0  0  0  0  0  0  0  0  0  0  0
   19.6965   25.8554   13.9681 C   0  0  0  0  0  0  0  0  0  0  0  0
   17.3378   25.7892   14.3982 C   0  0  0  0  0  0  0  0  0  0  0  0
   18.4167   26.3400   13.7150 C   0  0  0  0  0  0  0  0  0  0  0  0
  8  7  2  0  0  0
  7 12  1  0  0  0
 11 12  2  0  0  0
 11 20  1  0  0  0
 12 13  1  0  0  0
 13 14  2  0  0  0
 14 19  1  0  0  0
 19 15  2  0  0  0
 19 20  1  0  0  0
 15 16  1  0  0  0
 16 17  2  0  0  0
 17 18  1  0  0  0
 18 20  2  0  0  0
  9  6  1  0  0  0
  6  2  1  0  0  0
  6 21  1  0  0  0
  2  3  2  0  0  0
 21 22  1  0  0  0
 22 23  2  0  0  0
 22 24  1  0  0  0
 27 28  1  0  0  0
 27  1  1  0  0  0
  1  4  1  0  0  0
  1 49  1  0  0  0
 49 50  1  0  0  0
 50 51  2  0  0  0
 50 52  1  0  0  0
 51 53  1  0  0  0
 52 54  2  0  0  0
 53 55  2  0  0  0
 54 55  1  0  0  0
 31 30  1  0  0  0
 31 32  1  0  0  0
 31 40  1  0  0  0
 32 41  1  0  0  0
 32 33  1  0  0  0
 41 42  2  0  0  0
 33 34  1  0  0  0
 34 35  1  0  0  0
 34 39  1  0  0  0
 35 36  1  0  0  0
 36 37  1  0  0  0
 37 38  1  0  0  0
 38 39  1  0  0  0
 39 40  1  0  0  0
 43 45  1  0  0  0
 45 46  1  0  0  0
 45 47  1  0  0  0
 45 48  1  0  0  0
  7  9  1  0  0  0
  2  4  1  0  0  0
 27 30  1  0  0  0
 41 43  1  0  0  0
  9 10  1  0  0  0
 24 25  1  0  0  0
 24 26  1  0  0  0
 28 29  1  0  0  0
  4  5  1  0  0  0
 43 44  1  0  0  0
M  END
> <minimizedAffinity>
-11.33949

$$$$
3D1X_ROC_A_201


 55 59  0  0  0  0  0  0  0  0999 V2000
   15.2010   22.5804   17.0380 C   0  0  0  0  0  0  0  0  0  0  0  0
   14.3375   20.6430   18.2144 C   0  0  0  0  0  0  0  0  0  0  0  0
   15.4455   20.2710   18.7168 O   0  0  0  0  0  0  0  0  0  0  0  0
   14.1179   21.7051   17.4438 N   0  0  0  0  0  0  0  0  0  0  0  0
   13.2013   21.9010   17.1428 H   0  0  0  0  0  0  0  0  0  0  0  0
   13.0833   19.8028   18.4403 C   0  0  0  0  0  0  0  0  0  0  0  0
   11.2652   19.5232   16.8765 C   0  0  0  0  0  0  0  0  0  0  0  0
   10.3997   19.9365   17.6876 O   0  0  0  0  0  0  0  0  0  0  0  0
   12.5584   19.4015   17.1647 N   0  0  0  0  0  0  0  0  0  0  0  0
   13.1691   19.0281   16.4888 H   0  0  0  0  0  0  0  0  0  0  0  0
   11.7774   18.3086   14.8595 N   0  0  0  0  0  0  0  0  0  0  0  0
   10.9354   19.1422   15.4642 C   0  0  0  0  0  0  0  0  0  0  0  0
    9.7709   19.6595   14.8685 C   0  0  0  0  0  0  0  0  0  0  0  0
    9.5281   19.3166   13.5351 C   0  0  0  0  0  0  0  0  0  0  0  0
   10.2074   17.9488   11.5502 C   0  0  0  0  0  0  0  0  0  0  0  0
   11.1043   17.0812   10.9819 C   0  0  0  0  0  0  0  0  0  0  0  0
   12.2208   16.5760   11.6836 C   0  0  0  0  0  0  0  0  0  0  0  0
   12.4719   17.0511   12.9467 C   0  0  0  0  0  0  0  0  0  0  0  0
   10.4109   18.4306   12.8850 C   0  0  0  0  0  0  0  0  0  0  0  0
   11.5428   17.9325   13.5752 C   0  0  0  0  0  0  0  0  0  0  0  0
   13.4252   18.6321   19.4016 C   0  0  0  0  0  0  0  0  0  0  0  0
   12.6227   18.8510   20.6748 C   0  0  0  0  0  0  0  0  0  0  0  0
   11.4142   18.7196   20.6458 O   0  0  0  0  0  0  0  0  0  0  0  0
   13.3895   19.0970   21.7692 N   0  0  0  0  0  0  0  0  0  0  0  0
   14.3656   19.1856   21.6766 H   0  0  0  0  0  0  0  0  0  0  0  0
   12.9689   19.1868   22.6548 H   0  0  0  0  0  0  0  0  0  0  0  0
   15.4541   23.5674   18.1889 C   0  0  0  0  0  0  0  0  0  0  0  0
   14.2326   24.2802   18.5054 O   0  0  0  0  0  0  0  0  0  0  0  0
   13.9492   24.7947   17.7334 H   0  0  0  0  0  0  0  0  0  0  0  0
   16.5989   24.5151   17.8898 C   0  0  0  0  0  0  0  0  0  0  0  0
   17.8648   24.0413   18.5259 N   0  0  0  0  0  0  0  0  0  0  0  0
   18.9916   24.8396   18.1031 C   0  0  0  0  0  0  0  0  0  0  0  0
   20.2777   24.2547   18.7386 C   0  0  0  0  0  0  0  0  0  0  0  0
   20.1788   24.3611   20.2683 C   0  0  0  0  0  0  0  0  0  0  0  0
   21.4658   23.7205   20.9215 C   0  0  0  0  0  0  0  0  0  0  0  0
   21.4814   22.1668   20.6845 C   0  0  0  0  0  0  0  0  0  0  0  0
   20.2569   21.5554   21.3401 C   0  0  0  0  0  0  0  0  0  0  0  0
   19.0090   22.0849   20.5983 C   0  0  0  0  0  0  0  0  0  0  0  0
   18.9256   23.5999   20.7560 C   0  0  0  0  0  0  0  0  0  0  0  0
   17.7098   24.1623   19.9999 C   0  0  0  0  0  0  0  0  0  0  0  0
   19.1895   24.7335   16.5926 C   0  0  0  0  0  0  0  0  0  0  0  0
   19.2380   23.6625   16.0204 O   0  0  0  0  0  0  0  0  0  0  0  0
   19.2863   25.9520   15.9698 N   0  0  0  0  0  0  0  0  0  0  0  0
   19.1762   26.7643   16.5150 H   0  0  0  0  0  0  0  0  0  0  0  0
   19.5479   26.1102   14.5187 C   0  0  0  0  0  0  0  0  0  0  0  0
   20.8169   25.2949   14.1746 C   0  0  0  0  0  0  0  0  0  0  0  0
   19.8259   27.6120   14.2661 C   0  0  0  0  0  0  0  0  0  0  0  0
   18.3085   25.7093   13.7131 C   0  0  0  0  0  0  0  0  0  0  0  0
   14.8944   23.2940   15.7124 C   0  0  0  0  0  0  0  0  0  0  0  0
   14.5525   22.3682   14.5777 C   0  0  0  0  0  0  0  0  0  0  0  0
   15.5861   21.7397   13.8441 C   0  0  0  0  0  0  0  0  0  0  0  0
   13.2484   22.1018   14.2475 C   0  0  0  0  0  0  0  0  0  0  0  0
   15.2451   20.9139   12.8073 C   0  0  0  0  0  0  0  0  0  0  0  0
   12.9106   21.2900   13.2094 C   0  0  0  0  0  0  0  0  0  0  0  0
   13.9156   20.6596   12.4837 C   0  0  0  0  0  0  0  0  0  0  0  0
  8  7  2  0  0  0
  7 12  1  0  0  0
 11 12  2  0  0  0
 11 20  1  0  0  0
 12 13  1  0  0  0
 13 14  2  0  0  0
 14 19  1  0  0  0
 19 15  2  0  0  0
 19 20  1  0  0  0
 15 16  1  0  0  0
 16 17  2  0  0  0
 17 18  1  0  0  0
 18 20  2  0  0  0
  9  6  1  0  0  0
  6  2  1  0  0  0
  6 21  1  0  0  0
  2  3  2  0  0  0
 21 22  1  0  0  0
 22 23  2  0  0  0
 22 24  1  0  0  0
 27 28  1  0  0  0
 27  1  1  0  0  0
  1  4  1  0  0  0
  1 49  1  0  0  0
 49 50  1  0  0  0
 50 51  2  0  0  0
 50 52  1  0  0  0
 51 53  1  0  0  0
 52 54  2  0  0  0
 53 55  2  0  0  0
 54 55  1  0  0  0
 31 30  1  0  0  0
 31 32  1  0  0  0
 31 40  1  0  0  0
 32 41  1  0  0  0
 32 33  1  0  0  0
 41 42  2  0  0  0
 33 34  1  0  0  0
 34 35  1  0  0  0
 34 39  1  0  0  0
 35 36  1  0  0  0
 36 37  1  0  0  0
 37 38  1  0  0  0
 38 39  1  0  0  0
 39 40  1  0  0  0
 43 45  1  0  0  0
 45 46  1  0  0  0
 45 47  1  0  0  0
 45 48  1  0  0  0
  7  9  1  0  0  0
  2  4  1  0  0  0
 27 30  1  0  0  0
 41 43  1  0  0  0
  9 10  1  0  0  0
 24 25  1  0  0  0
 24 26  1  0  0  0
 28 29  1  0  0  0
  4  5  1  0  0  0
 43 44  1  0  0  0
M  END
> <minimizedAffinity>
-11.27560

$$$$
3D1X_ROC_A_201


 55 59  0  0  0  0  0  0  0  0999 V2000
   11.4903   21.2004   15.1729 C   0  0  0  0  0  0  0  0  0  0  0  0
   13.3331   22.3652   16.2363 C   0  0  0  0  0  0  0  0  0  0  0  0
   12.9672   23.5409   15.9161 O   0  0  0  0  0  0  0  0  0  0  0  0
   12.7097   21.2233   15.9581 N   0  0  0  0  0  0  0  0  0  0  0  0
   13.0839   20.3761   16.2921 H   0  0  0  0  0  0  0  0  0  0  0  0
   14.6466   22.1584   16.9858 C   0  0  0  0  0  0  0  0  0  0  0  0
   16.5410   22.8115   15.6390 C   0  0  0  0  0  0  0  0  0  0  0  0
   16.7117   21.6557   15.1778 O   0  0  0  0  0  0  0  0  0  0  0  0
   15.6007   23.1287   16.5252 N   0  0  0  0  0  0  0  0  0  0  0  0
   15.5577   24.0487   16.8731 H   0  0  0  0  0  0  0  0  0  0  0  0
   18.2396   24.4554   16.1067 N   0  0  0  0  0  0  0  0  0  0  0  0
   17.3731   23.9844   15.2140 C   0  0  0  0  0  0  0  0  0  0  0  0
   17.2121   24.5056   13.9174 C   0  0  0  0  0  0  0  0  0  0  0  0
   17.9733   25.6286   13.5805 C   0  0  0  0  0  0  0  0  0  0  0  0
   19.7858   27.2257   14.2411 C   0  0  0  0  0  0  0  0  0  0  0  0
   20.6664   27.6615   15.1977 C   0  0  0  0  0  0  0  0  0  0  0  0
   20.7896   27.0358   16.4576 C   0  0  0  0  0  0  0  0  0  0  0  0
   19.9240   26.0180   16.7723 C   0  0  0  0  0  0  0  0  0  0  0  0
   18.8979   26.1343   14.5166 C   0  0  0  0  0  0  0  0  0  0  0  0
   19.0161   25.5240   15.7891 C   0  0  0  0  0  0  0  0  0  0  0  0
   14.3683   22.1927   18.5132 C   0  0  0  0  0  0  0  0  0  0  0  0
   15.6747   21.8512   19.2128 C   0  0  0  0  0  0  0  0  0  0  0  0
   16.4487   21.0779   18.6822 O   0  0  0  0  0  0  0  0  0  0  0  0
   15.8766   22.5450   20.3635 N   0  0  0  0  0  0  0  0  0  0  0  0
   15.1766   23.1476   20.7042 H   0  0  0  0  0  0  0  0  0  0  0  0
   16.7228   22.4450   20.8566 H   0  0  0  0  0  0  0  0  0  0  0  0
   10.4114   20.4998   16.0143 C   0  0  0  0  0  0  0  0  0  0  0  0
    9.3855   21.4509   16.3924 O   0  0  0  0  0  0  0  0  0  0  0  0
    9.7778   22.1493   16.9395 H   0  0  0  0  0  0  0  0  0  0  0  0
   10.9958   19.7911   17.2204 C   0  0  0  0  0  0  0  0  0  0  0  0
   10.9869   18.3100   17.0258 N   0  0  0  0  0  0  0  0  0  0  0  0
   10.4969   17.6322   18.2033 C   0  0  0  0  0  0  0  0  0  0  0  0
   10.5804   16.1038   17.9642 C   0  0  0  0  0  0  0  0  0  0  0  0
    9.6621   15.7248   16.7920 C   0  0  0  0  0  0  0  0  0  0  0  0
    9.7825   14.1754   16.5129 C   0  0  0  0  0  0  0  0  0  0  0  0
   11.2115   13.8313   15.9563 C   0  0  0  0  0  0  0  0  0  0  0  0
   11.4228   14.5712   14.6482 C   0  0  0  0  0  0  0  0  0  0  0  0
   11.4419   16.0849   14.9587 C   0  0  0  0  0  0  0  0  0  0  0  0
   10.0916   16.5061   15.5299 C   0  0  0  0  0  0  0  0  0  0  0  0
   10.0893   18.0039   15.8804 C   0  0  0  0  0  0  0  0  0  0  0  0
   11.3998   17.9151   19.4018 C   0  0  0  0  0  0  0  0  0  0  0  0
   10.9858   18.4500   20.4114 O   0  0  0  0  0  0  0  0  0  0  0  0
   12.6923   17.4926   19.2207 N   0  0  0  0  0  0  0  0  0  0  0  0
   12.9150   17.0168   18.3881 H   0  0  0  0  0  0  0  0  0  0  0  0
   13.7720   17.7148   20.2130 C   0  0  0  0  0  0  0  0  0  0  0  0
   13.3980   16.9430   21.5006 C   0  0  0  0  0  0  0  0  0  0  0  0
   13.8032   19.2313   20.5215 C   0  0  0  0  0  0  0  0  0  0  0  0
   15.1257   17.3184   19.6161 C   0  0  0  0  0  0  0  0  0  0  0  0
   11.6998   20.5239   13.8096 C   0  0  0  0  0  0  0  0  0  0  0  0
   13.0358   20.8057   13.1793 C   0  0  0  0  0  0  0  0  0  0  0  0
   13.9387   19.7443   12.9356 C   0  0  0  0  0  0  0  0  0  0  0  0
   13.3940   22.0781   12.8144 C   0  0  0  0  0  0  0  0  0  0  0  0
   15.1532   20.0328   12.3745 C   0  0  0  0  0  0  0  0  0  0  0  0
   14.6061   22.3657   12.2675 C   0  0  0  0  0  0  0  0  0  0  0  0
   15.5012   21.3316   12.0153 C   0  0  0  0  0  0  0  0  0  0  0  0
  8  7  2  0  0  0
  7 12  1  0  0  0
 11 12  2  0  0  0
 11 20  1  0  0  0
 12 13  1  0  0  0
 13 14  2  0  0  0
 14 19  1  0  0  0
 19 15  2  0  0  0
 19 20  1  0  0  0
 15 16  1  0  0  0
 16 17  2  0  0  0
 17 18  1  0  0  0
 18 20  2  0  0  0
  9  6  1  0  0  0
  6  2  1  0  0  0
  6 21  1  0  0  0
  2  3  2  0  0  0
 21 22  1  0  0  0
 22 23  2  0  0  0
 22 24  1  0  0  0
 27 28  1  0  0  0
 27  1  1  0  0  0
  1  4  1  0  0  0
  1 49  1  0  0  0
 49 50  1  0  0  0
 50 51  2  0  0  0
 50 52  1  0  0  0
 51 53  1  0  0  0
 52 54  2  0  0  0
 53 55  2  0  0  0
 54 55  1  0  0  0
 31 30  1  0  0  0
 31 32  1  0  0  0
 31 40  1  0  0  0
 32 41  1  0  0  0
 32 33  1  0  0  0
 41 42  2  0  0  0
 33 34  1  0  0  0
 34 35  1  0  0  0
 34 39  1  0  0  0
 35 36  1  0  0  0
 36 37  1  0  0  0
 37 38  1  0  0  0
 38 39  1  0  0  0
 39 40  1  0  0  0
 43 45  1  0  0  0
 45 46  1  0  0  0
 45 47  1  0  0  0
 45 48  1  0  0  0
  7  9  1  0  0  0
  2  4  1  0  0  0
 27 30  1  0  0  0
 41 43  1  0  0  0
  9 10  1  0  0  0
 24 25  1  0  0  0
 24 26  1  0  0  0
 28 29  1  0  0  0
  4  5  1  0  0  0
 43 44  1  0  0  0
M  END
> <minimizedAffinity>
-11.15826

$$$$
3D1X_ROC_A_201


 55 59  0  0  0  0  0  0  0  0999 V2000
   16.5818   21.4206   19.1196 C   0  0  0  0  0  0  0  0  0  0  0  0
   14.3861   20.4567   19.4846 C   0  0  0  0  0  0  0  0  0  0  0  0
   13.7204   21.4089   18.9663 O   0  0  0  0  0  0  0  0  0  0  0  0
   15.7092   20.3595   19.5851 N   0  0  0  0  0  0  0  0  0  0  0  0
   16.1042   19.5505   19.9836 H   0  0  0  0  0  0  0  0  0  0  0  0
   13.6533   19.2798   20.1231 C   0  0  0  0  0  0  0  0  0  0  0  0
   11.8092   18.0635   19.1487 C   0  0  0  0  0  0  0  0  0  0  0  0
   11.0466   18.2842   20.1221 O   0  0  0  0  0  0  0  0  0  0  0  0
   13.0723   18.4766   19.0834 N   0  0  0  0  0  0  0  0  0  0  0  0
   13.6209   18.2262   18.3052 H   0  0  0  0  0  0  0  0  0  0  0  0
   10.9812   18.0626   16.8859 N   0  0  0  0  0  0  0  0  0  0  0  0
   11.3648   17.3230   17.9229 C   0  0  0  0  0  0  0  0  0  0  0  0
   11.3907   15.9166   17.9243 C   0  0  0  0  0  0  0  0  0  0  0  0
   10.9223   15.2672   16.7784 C   0  0  0  0  0  0  0  0  0  0  0  0
   10.1024   15.4745   14.4210 C   0  0  0  0  0  0  0  0  0  0  0  0
    9.7280   16.2877   13.3824 C   0  0  0  0  0  0  0  0  0  0  0  0
    9.7865   17.6964   13.4620 C   0  0  0  0  0  0  0  0  0  0  0  0
   10.1345   18.2722   14.6585 C   0  0  0  0  0  0  0  0  0  0  0  0
   10.5171   16.0401   15.6714 C   0  0  0  0  0  0  0  0  0  0  0  0
   10.5559   17.4537   15.7482 C   0  0  0  0  0  0  0  0  0  0  0  0
   14.6325   18.5227   21.0609 C   0  0  0  0  0  0  0  0  0  0  0  0
   13.8993   18.2820   22.3714 C   0  0  0  0  0  0  0  0  0  0  0  0
   13.4085   17.1904   22.5862 O   0  0  0  0  0  0  0  0  0  0  0  0
   13.9505   19.3352   23.2283 N   0  0  0  0  0  0  0  0  0  0  0  0
   14.3750   20.1780   22.9477 H   0  0  0  0  0  0  0  0  0  0  0  0
   13.5632   19.2555   24.1299 H   0  0  0  0  0  0  0  0  0  0  0  0
   16.3291   21.6003   17.6141 C   0  0  0  0  0  0  0  0  0  0  0  0
   17.5067   21.2083   16.8658 O   0  0  0  0  0  0  0  0  0  0  0  0
   18.2504   21.7813   17.1098 H   0  0  0  0  0  0  0  0  0  0  0  0
   15.8861   23.0091   17.2715 C   0  0  0  0  0  0  0  0  0  0  0  0
   16.7541   23.5982   16.2079 N   0  0  0  0  0  0  0  0  0  0  0  0
   16.0049   23.8372   14.9964 C   0  0  0  0  0  0  0  0  0  0  0  0
   16.9735   24.3783   13.9152 C   0  0  0  0  0  0  0  0  0  0  0  0
   17.5491   25.7248   14.3807 C   0  0  0  0  0  0  0  0  0  0  0  0
   18.5750   26.2554   13.3041 C   0  0  0  0  0  0  0  0  0  0  0  0
   19.8469   25.3330   13.2621 C   0  0  0  0  0  0  0  0  0  0  0  0
   20.5218   25.3611   14.6211 C   0  0  0  0  0  0  0  0  0  0  0  0
   19.5598   24.7106   15.6405 C   0  0  0  0  0  0  0  0  0  0  0  0
   18.2780   25.5327   15.7297 C   0  0  0  0  0  0  0  0  0  0  0  0
   17.2846   24.8919   16.7139 C   0  0  0  0  0  0  0  0  0  0  0  0
   15.4504   22.5279   14.4396 C   0  0  0  0  0  0  0  0  0  0  0  0
   16.1743   21.6302   14.0560 O   0  0  0  0  0  0  0  0  0  0  0  0
   14.0796   22.4748   14.4377 N   0  0  0  0  0  0  0  0  0  0  0  0
   13.5832   23.2321   14.8241 H   0  0  0  0  0  0  0  0  0  0  0  0
   13.3060   21.3370   13.8843 C   0  0  0  0  0  0  0  0  0  0  0  0
   13.7735   21.1105   12.4270 C   0  0  0  0  0  0  0  0  0  0  0  0
   11.8163   21.7573   13.8796 C   0  0  0  0  0  0  0  0  0  0  0  0
   13.4556   20.1092   14.7878 C   0  0  0  0  0  0  0  0  0  0  0  0
   18.0569   21.1282   19.4342 C   0  0  0  0  0  0  0  0  0  0  0  0
   18.7435   22.2041   20.2295 C   0  0  0  0  0  0  0  0  0  0  0  0
   18.0865   23.4345   20.4659 C   0  0  0  0  0  0  0  0  0  0  0  0
   19.9965   22.0102   20.7521 C   0  0  0  0  0  0  0  0  0  0  0  0
   18.7418   24.4006   21.1803 C   0  0  0  0  0  0  0  0  0  0  0  0
   20.6517   22.9754   21.4520 C   0  0  0  0  0  0  0  0  0  0  0  0
   20.0157   24.1873   21.6986 C   0  0  0  0  0  0  0  0  0  0  0  0
  8  7  2  0  0  0
  7 12  1  0  0  0
 11 12  2  0  0  0
 11 20  1  0  0  0
 12 13  1  0  0  0
 13 14  2  0  0  0
 14 19  1  0  0  0
 19 15  2  0  0  0
 19 20  1  0  0  0
 15 16  1  0  0  0
 16 17  2  0  0  0
 17 18  1  0  0  0
 18 20  2  0  0  0
  9  6  1  0  0  0
  6  2  1  0  0  0
  6 21  1  0  0  0
  2  3  2  0  0  0
 21 22  1  0  0  0
 22 23  2  0  0  0
 22 24  1  0  0  0
 27 28  1  0  0  0
 27  1  1  0  0  0
  1  4  1  0  0  0
  1 49  1  0  0  0
 49 50  1  0  0  0
 50 51  2  0  0  0
 50 52  1  0  0  0
 51 53  1  0  0  0
 52 54  2  0  0  0
 53 55  2  0  0  0
 54 55  1  0  0  0
 31 30  1  0  0  0
 31 32  1  0  0  0
 31 40  1  0  0  0
 32 41  1  0  0  0
 32 33  1  0  0  0
 41 42  2  0  0  0
 33 34  1  0  0  0
 34 35  1  0  0  0
 34 39  1  0  0  0
 35 36  1  0  0  0
 36 37  1  0  0  0
 37 38  1  0  0  0
 38 39  1  0  0  0
 39 40  1  0  0  0
 43 45  1  0  0  0
 45 46  1  0  0  0
 45 47  1  0  0  0
 45 48  1  0  0  0
  7  9  1  0  0  0
  2  4  1  0  0  0
 27 30  1  0  0  0
 41 43  1  0  0  0
  9 10  1  0  0  0
 24 25  1  0  0  0
 24 26  1  0  0  0
 28 29  1  0  0  0
  4  5  1  0  0  0
 43 44  1  0  0  0
M  END
> <minimizedAffinity>
-10.65218

$$$$
3D1X_ROC_A_201


 55 59  0  0  0  0  0  0  0  0999 V2000
   17.3007   21.8151   19.4478 C   0  0  0  0  0  0  0  0  0  0  0  0
   14.9801   21.2224   19.8306 C   0  0  0  0  0  0  0  0  0  0  0  0
   14.4948   22.3760   19.6020 O   0  0  0  0  0  0  0  0  0  0  0  0
   16.2581   20.8582   19.7660 N   0  0  0  0  0  0  0  0  0  0  0  0
   16.5011   19.9198   19.9377 H   0  0  0  0  0  0  0  0  0  0  0  0
   14.0606   20.0888   20.2770 C   0  0  0  0  0  0  0  0  0  0  0  0
   12.1002   19.0966   19.2762 C   0  0  0  0  0  0  0  0  0  0  0  0
   11.5318   18.9138   20.3813 O   0  0  0  0  0  0  0  0  0  0  0  0
   13.3149   19.6223   19.1412 N   0  0  0  0  0  0  0  0  0  0  0  0
   13.7116   19.6933   18.2429 H   0  0  0  0  0  0  0  0  0  0  0  0
   10.9889   19.7855   17.2523 N   0  0  0  0  0  0  0  0  0  0  0  0
   11.4510   18.7627   17.9663 C   0  0  0  0  0  0  0  0  0  0  0  0
   11.3796   17.4182   17.5594 C   0  0  0  0  0  0  0  0  0  0  0  0
   10.7233   17.1486   16.3548 C   0  0  0  0  0  0  0  0  0  0  0  0
    9.6223   18.0642   14.3001 C   0  0  0  0  0  0  0  0  0  0  0  0
    9.1740   19.1575   13.6044 C   0  0  0  0  0  0  0  0  0  0  0  0
    9.3396   20.4780   14.0766 C   0  0  0  0  0  0  0  0  0  0  0  0
    9.8783   20.6657   15.3251 C   0  0  0  0  0  0  0  0  0  0  0  0
   10.2330   18.2244   15.5872 C   0  0  0  0  0  0  0  0  0  0  0  0
   10.3791   19.5510   16.0610 C   0  0  0  0  0  0  0  0  0  0  0  0
   14.9085   19.0011   20.9909 C   0  0  0  0  0  0  0  0  0  0  0  0
   14.1939   18.6586   22.2890 C   0  0  0  0  0  0  0  0  0  0  0  0
   14.2234   19.4511   23.2108 O   0  0  0  0  0  0  0  0  0  0  0  0
   13.5012   17.4907   22.2404 N   0  0  0  0  0  0  0  0  0  0  0  0
   13.5501   16.9224   21.4380 H   0  0  0  0  0  0  0  0  0  0  0  0
   12.9505   17.2127   23.0077 H   0  0  0  0  0  0  0  0  0  0  0  0
   17.3744   21.9269   17.9165 C   0  0  0  0  0  0  0  0  0  0  0  0
   18.7432   21.7510   17.4742 O   0  0  0  0  0  0  0  0  0  0  0  0
   19.2966   22.4548   17.8475 H   0  0  0  0  0  0  0  0  0  0  0  0
   16.7794   23.2250   17.4073 C   0  0  0  0  0  0  0  0  0  0  0  0
   16.1128   23.0248   16.0856 N   0  0  0  0  0  0  0  0  0  0  0  0
   17.0475   23.1985   14.9984 C   0  0  0  0  0  0  0  0  0  0  0  0
   16.2817   23.0496   13.6599 C   0  0  0  0  0  0  0  0  0  0  0  0
   15.7101   21.6269   13.5603 C   0  0  0  0  0  0  0  0  0  0  0  0
   14.8866   21.4866   12.2204 C   0  0  0  0  0  0  0  0  0  0  0  0
   13.5914   22.3748   12.2812 C   0  0  0  0  0  0  0  0  0  0  0  0
   12.7209   21.9000   13.4301 C   0  0  0  0  0  0  0  0  0  0  0  0
   13.4840   22.1725   14.7458 C   0  0  0  0  0  0  0  0  0  0  0  0
   14.7769   21.3632   14.7634 C   0  0  0  0  0  0  0  0  0  0  0  0
   15.5768   21.6381   16.0482 C   0  0  0  0  0  0  0  0  0  0  0  0
   17.6140   24.6166   14.9973 C   0  0  0  0  0  0  0  0  0  0  0  0
   16.8989   25.5986   14.9604 O   0  0  0  0  0  0  0  0  0  0  0  0
   18.9839   24.6551   15.0586 N   0  0  0  0  0  0  0  0  0  0  0  0
   19.4709   23.8038   15.1443 H   0  0  0  0  0  0  0  0  0  0  0  0
   19.7700   25.9115   15.0026 C   0  0  0  0  0  0  0  0  0  0  0  0
   19.0398   26.8849   14.0473 C   0  0  0  0  0  0  0  0  0  0  0  0
   21.1538   25.5577   14.4059 C   0  0  0  0  0  0  0  0  0  0  0  0
   19.9833   26.4629   16.4156 C   0  0  0  0  0  0  0  0  0  0  0  0
   18.6487   21.4215   20.0710 C   0  0  0  0  0  0  0  0  0  0  0  0
   19.4748   22.5865   20.5419 C   0  0  0  0  0  0  0  0  0  0  0  0
   20.8754   22.4466   20.6838 C   0  0  0  0  0  0  0  0  0  0  0  0
   18.8978   23.7989   20.8209 C   0  0  0  0  0  0  0  0  0  0  0  0
   21.5995   23.5195   21.1284 C   0  0  0  0  0  0  0  0  0  0  0  0
   19.6167   24.8613   21.2739 C   0  0  0  0  0  0  0  0  0  0  0  0
   20.9954   24.7410   21.4115 C   0  0  0  0  0  0  0  0  0  0  0  0
  8  7  2  0  0  0
  7 12  1  0  0  0
 11 12  2  0  0  0
 11 20  1  0  0  0
 12 13  1  0  0  0
 13 14  2  0  0  0
 14 19  1  0  0  0
 19 15  2  0  0  0
 19 20  1  0  0  0
 15 16  1  0  0  0
 16 17  2  0  0  0
 17 18  1  0  0  0
 18 20  2  0  0  0
  9  6  1  0  0  0
  6  2  1  0  0  0
  6 21  1  0  0  0
  2  3  2  0  0  0
 21 22  1  0  0  0
 22 23  2  0  0  0
 22 24  1  0  0  0
 27 28  1  0  0  0
 27  1  1  0  0  0
  1  4  1  0  0  0
  1 49  1  0  0  0
 49 50  1  0  0  0
 50 51  2  0  0  0
 50 52  1  0  0  0
 51 53  1  0  0  0
 52 54  2  0  0  0
 53 55  2  0  0  0
 54 55  1  0  0  0
 31 30  1  0  0  0
 31 32  1  0  0  0
 31 40  1  0  0  0
 32 41  1  0  0  0
 32 33  1  0  0  0
 41 42  2  0  0  0
 33 34  1  0  0  0
 34 35  1  0  0  0
 34 39  1  0  0  0
 35 36  1  0  0  0
 36 37  1  0  0  0
 37 38  1  0  0  0
 38 39  1  0  0  0
 39 40  1  0  0  0
 43 45  1  0  0  0
 45 46  1  0  0  0
 45 47  1  0  0  0
 45 48  1  0  0  0
  7  9  1  0  0  0
  2  4  1  0  0  0
 27 30  1  0  0  0
 41 43  1  0  0  0
  9 10  1  0  0  0
 24 25  1  0  0  0
 24 26  1  0  0  0
 28 29  1  0  0  0
  4  5  1  0  0  0
 43 44  1  0  0  0
M  END
> <minimizedAffinity>
-10.62582

$$$$
3D1X_ROC_A_201


 55 59  0  0  0  0  0  0  0  0999 V2000
   15.1641   22.6644   15.8684 C   0  0  0  0  0  0  0  0  0  0  0  0
   15.2651   22.4483   18.2822 C   0  0  0  0  0  0  0  0  0  0  0  0
   14.4616   23.3982   18.5479 O   0  0  0  0  0  0  0  0  0  0  0  0
   15.6372   22.0200   17.0788 N   0  0  0  0  0  0  0  0  0  0  0  0
   16.2462   21.2498   17.0083 H   0  0  0  0  0  0  0  0  0  0  0  0
   15.9532   21.6979   19.4194 C   0  0  0  0  0  0  0  0  0  0  0  0
   18.2493   22.4444   19.4115 C   0  0  0  0  0  0  0  0  0  0  0  0
   18.5859   21.6534   18.4957 O   0  0  0  0  0  0  0  0  0  0  0  0
   17.0247   22.5085   19.9279 N   0  0  0  0  0  0  0  0  0  0  0  0
   16.8490   23.1251   20.6750 H   0  0  0  0  0  0  0  0  0  0  0  0
   19.8859   24.1954   19.1638 N   0  0  0  0  0  0  0  0  0  0  0  0
   19.1979   23.4376   20.0135 C   0  0  0  0  0  0  0  0  0  0  0  0
   19.2985   23.5283   21.4136 C   0  0  0  0  0  0  0  0  0  0  0  0
   20.2300   24.4335   21.9304 C   0  0  0  0  0  0  0  0  0  0  0  0
   21.8772   26.2624   21.4678 C   0  0  0  0  0  0  0  0  0  0  0  0
   22.5510   27.0210   20.5453 C   0  0  0  0  0  0  0  0  0  0  0  0
   22.3413   26.8890   19.1551 C   0  0  0  0  0  0  0  0  0  0  0  0
   21.5072   25.8944   18.7088 C   0  0  0  0  0  0  0  0  0  0  0  0
   20.9621   25.2451   21.0403 C   0  0  0  0  0  0  0  0  0  0  0  0
   20.7711   25.1076   19.6437 C   0  0  0  0  0  0  0  0  0  0  0  0
   14.8883   21.2898   20.4734 C   0  0  0  0  0  0  0  0  0  0  0  0
   14.8763   19.7701   20.5307 C   0  0  0  0  0  0  0  0  0  0  0  0
   15.1210   19.1353   19.5228 O   0  0  0  0  0  0  0  0  0  0  0  0
   14.6670   19.2713   21.7771 N   0  0  0  0  0  0  0  0  0  0  0  0
   14.4752   19.8813   22.5256 H   0  0  0  0  0  0  0  0  0  0  0  0
   14.7071   18.2998   21.9317 H   0  0  0  0  0  0  0  0  0  0  0  0
   13.8012   22.0462   15.5176 C   0  0  0  0  0  0  0  0  0  0  0  0
   12.7388   22.9765   15.8436 O   0  0  0  0  0  0  0  0  0  0  0  0
   12.7450   23.1532   16.7973 H   0  0  0  0  0  0  0  0  0  0  0  0
   13.5949   20.6991   16.1818 C   0  0  0  0  0  0  0  0  0  0  0  0
   12.9383   19.7373   15.2463 N   0  0  0  0  0  0  0  0  0  0  0  0
   11.5057   19.7270   15.4295 C   0  0  0  0  0  0  0  0  0  0  0  0
   10.8945   18.6622   14.4847 C   0  0  0  0  0  0  0  0  0  0  0  0
   11.1753   19.0590   13.0271 C   0  0  0  0  0  0  0  0  0  0  0  0
   10.5974   17.9505   12.0625 C   0  0  0  0  0  0  0  0  0  0  0  0
   11.4104   16.6145   12.2185 C   0  0  0  0  0  0  0  0  0  0  0  0
   12.8577   16.8708   11.8407 C   0  0  0  0  0  0  0  0  0  0  0  0
   13.4508   17.8515   12.8772 C   0  0  0  0  0  0  0  0  0  0  0  0
   12.7008   19.1783   12.8123 C   0  0  0  0  0  0  0  0  0  0  0  0
   13.2470   20.1669   13.8565 C   0  0  0  0  0  0  0  0  0  0  0  0
   11.1476   19.2808   16.8453 C   0  0  0  0  0  0  0  0  0  0  0  0
   10.3982   19.9220   17.5553 O   0  0  0  0  0  0  0  0  0  0  0  0
   11.7383   18.0971   17.2083 N   0  0  0  0  0  0  0  0  0  0  0  0
   12.2839   17.6239   16.5392 H   0  0  0  0  0  0  0  0  0  0  0  0
   11.5986   17.4927   18.5553 C   0  0  0  0  0  0  0  0  0  0  0  0
   12.8096   16.5571   18.7826 C   0  0  0  0  0  0  0  0  0  0  0  0
   10.3008   16.6491   18.5447 C   0  0  0  0  0  0  0  0  0  0  0  0
   11.4487   18.5909   19.6125 C   0  0  0  0  0  0  0  0  0  0  0  0
   16.1765   22.5386   14.7196 C   0  0  0  0  0  0  0  0  0  0  0  0
   17.1602   23.6729   14.6367 C   0  0  0  0  0  0  0  0  0  0  0  0
   18.1533   23.8197   15.6336 C   0  0  0  0  0  0  0  0  0  0  0  0
   17.1282   24.5655   13.5961 C   0  0  0  0  0  0  0  0  0  0  0  0
   19.0256   24.8700   15.5400 C   0  0  0  0  0  0  0  0  0  0  0  0
   17.9882   25.6161   13.5102 C   0  0  0  0  0  0  0  0  0  0  0  0
   18.9744   25.7691   14.4788 C   0  0  0  0  0  0  0  0  0  0  0  0
  8  7  2  0  0  0
  7 12  1  0  0  0
 11 12  2  0  0  0
 11 20  1  0  0  0
 12 13  1  0  0  0
 13 14  2  0  0  0
 14 19  1  0  0  0
 19 15  2  0  0  0
 19 20  1  0  0  0
 15 16  1  0  0  0
 16 17  2  0  0  0
 17 18  1  0  0  0
 18 20  2  0  0  0
  9  6  1  0  0  0
  6  2  1  0  0  0
  6 21  1  0  0  0
  2  3  2  0  0  0
 21 22  1  0  0  0
 22 23  2  0  0  0
 22 24  1  0  0  0
 27 28  1  0  0  0
 27  1  1  0  0  0
  1  4  1  0  0  0
  1 49  1  0  0  0
 49 50  1  0  0  0
 50 51  2  0  0  0
 50 52  1  0  0  0
 51 53  1  0  0  0
 52 54  2  0  0  0
 53 55  2  0  0  0
 54 55  1  0  0  0
 31 30  1  0  0  0
 31 32  1  0  0  0
 31 40  1  0  0  0
 32 41  1  0  0  0
 32 33  1  0  0  0
 41 42  2  0  0  0
 33 34  1  0  0  0
 34 35  1  0  0  0
 34 39  1  0  0  0
 35 36  1  0  0  0
 36 37  1  0  0  0
 37 38  1  0  0  0
 38 39  1  0  0  0
 39 40  1  0  0  0
 43 45  1  0  0  0
 45 46  1  0  0  0
 45 47  1  0  0  0
 45 48  1  0  0  0
  7  9  1  0  0  0
  2  4  1  0  0  0
 27 30  1  0  0  0
 41 43  1  0  0  0
  9 10  1  0  0  0
 24 25  1  0  0  0
 24 26  1  0  0  0
 28 29  1  0  0  0
  4  5  1  0  0  0
 43 44  1  0  0  0
M  END
> <minimizedAffinity>
-10.61382

$$$$
3D1X_ROC_A_201


 55 59  0  0  0  0  0  0  0  0999 V2000
   20.9944   25.8965   18.8125 C   0  0  0  0  0  0  0  0  0  0  0  0
   19.3087   24.2366   19.3477 C   0  0  0  0  0  0  0  0  0  0  0  0
   20.1144   23.2808   19.5839 O   0  0  0  0  0  0  0  0  0  0  0  0
   19.6170   25.4846   19.0049 N   0  0  0  0  0  0  0  0  0  0  0  0
   18.8952   26.1422   18.8792 H   0  0  0  0  0  0  0  0  0  0  0  0
   17.8034   23.9890   19.4003 C   0  0  0  0  0  0  0  0  0  0  0  0
   16.2261   24.1342   17.5781 C   0  0  0  0  0  0  0  0  0  0  0  0
   15.4570   24.9073   18.2015 O   0  0  0  0  0  0  0  0  0  0  0  0
   17.3469   23.6288   18.0867 N   0  0  0  0  0  0  0  0  0  0  0  0
   17.8751   22.9939   17.5508 H   0  0  0  0  0  0  0  0  0  0  0  0
   14.9383   22.9056   15.9539 N   0  0  0  0  0  0  0  0  0  0  0  0
   15.9761   23.7116   16.1613 C   0  0  0  0  0  0  0  0  0  0  0  0
   16.8209   24.1903   15.1436 C   0  0  0  0  0  0  0  0  0  0  0  0
   16.5806   23.7325   13.8448 C   0  0  0  0  0  0  0  0  0  0  0  0
   15.0968   22.4248   12.3084 C   0  0  0  0  0  0  0  0  0  0  0  0
   14.0099   21.6031   12.1543 C   0  0  0  0  0  0  0  0  0  0  0  0
   13.1896   21.2183   13.2374 C   0  0  0  0  0  0  0  0  0  0  0  0
   13.5545   21.5990   14.5047 C   0  0  0  0  0  0  0  0  0  0  0  0
   15.4813   22.8814   13.6118 C   0  0  0  0  0  0  0  0  0  0  0  0
   14.6633   22.4762   14.6945 C   0  0  0  0  0  0  0  0  0  0  0  0
   17.5016   22.9403   20.5051 C   0  0  0  0  0  0  0  0  0  0  0  0
   16.5607   21.9109   19.8985 C   0  0  0  0  0  0  0  0  0  0  0  0
   17.0093   21.0629   19.1514 O   0  0  0  0  0  0  0  0  0  0  0  0
   15.2816   22.0079   20.3465 N   0  0  0  0  0  0  0  0  0  0  0  0
   15.0266   22.7404   20.9527 H   0  0  0  0  0  0  0  0  0  0  0  0
   14.6098   21.3456   20.0647 H   0  0  0  0  0  0  0  0  0  0  0  0
   21.5611   26.2740   20.1905 C   0  0  0  0  0  0  0  0  0  0  0  0
   20.6879   27.2329   20.8374 O   0  0  0  0  0  0  0  0  0  0  0  0
   20.6457   28.0425   20.3047 H   0  0  0  0  0  0  0  0  0  0  0  0
   22.9880   26.7789   20.1046 C   0  0  0  0  0  0  0  0  0  0  0  0
   23.9477   25.6443   19.9519 N   0  0  0  0  0  0  0  0  0  0  0  0
   25.3149   26.1068   20.0058 C   0  0  0  0  0  0  0  0  0  0  0  0
   26.2549   24.8981   19.7701 C   0  0  0  0  0  0  0  0  0  0  0  0
   26.0623   23.8795   20.9042 C   0  0  0  0  0  0  0  0  0  0  0  0
   26.9821   22.6234   20.6410 C   0  0  0  0  0  0  0  0  0  0  0  0
   26.4781   21.8335   19.3792 C   0  0  0  0  0  0  0  0  0  0  0  0
   25.0638   21.3460   19.6348 C   0  0  0  0  0  0  0  0  0  0  0  0
   24.1497   22.5865   19.7515 C   0  0  0  0  0  0  0  0  0  0  0  0
   24.5842   23.4305   20.9455 C   0  0  0  0  0  0  0  0  0  0  0  0
   23.7128   24.6920   21.0696 C   0  0  0  0  0  0  0  0  0  0  0  0
   25.5983   27.0820   18.8653 C   0  0  0  0  0  0  0  0  0  0  0  0
   26.1671   28.1406   19.0460 O   0  0  0  0  0  0  0  0  0  0  0  0
   25.1649   26.6315   17.6442 N   0  0  0  0  0  0  0  0  0  0  0  0
   24.7666   25.7327   17.5934 H   0  0  0  0  0  0  0  0  0  0  0  0
   25.2646   27.4272   16.3966 C   0  0  0  0  0  0  0  0  0  0  0  0
   25.0945   28.9186   16.7711 C   0  0  0  0  0  0  0  0  0  0  0  0
   24.0901   26.9958   15.4852 C   0  0  0  0  0  0  0  0  0  0  0  0
   26.5762   27.1090   15.6724 C   0  0  0  0  0  0  0  0  0  0  0  0
   21.1125   27.0435   17.7972 C   0  0  0  0  0  0  0  0  0  0  0  0
   20.6679   26.6849   16.4061 C   0  0  0  0  0  0  0  0  0  0  0  0
   20.4106   27.7069   15.4623 C   0  0  0  0  0  0  0  0  0  0  0  0
   20.5235   25.3762   16.0225 C   0  0  0  0  0  0  0  0  0  0  0  0
   19.9930   27.3510   14.2085 C   0  0  0  0  0  0  0  0  0  0  0  0
   20.0970   25.0238   14.7797 C   0  0  0  0  0  0  0  0  0  0  0  0
   19.8472   26.0172   13.8389 C   0  0  0  0  0  0  0  0  0  0  0  0
  8  7  2  0  0  0
  7 12  1  0  0  0
 11 12  2  0  0  0
 11 20  1  0  0  0
 12 13  1  0  0  0
 13 14  2  0  0  0
 14 19  1  0  0  0
 19 15  2  0  0  0
 19 20  1  0  0  0
 15 16  1  0  0  0
 16 17  2  0  0  0
 17 18  1  0  0  0
 18 20  2  0  0  0
  9  6  1  0  0  0
  6  2  1  0  0  0
  6 21  1  0  0  0
  2  3  2  0  0  0
 21 22  1  0  0  0
 22 23  2  0  0  0
 22 24  1  0  0  0
 27 28  1  0  0  0
 27  1  1  0  0  0
  1  4  1  0  0  0
  1 49  1  0  0  0
 49 50  1  0  0  0
 50 51  2  0  0  0
 50 52  1  0  0  0
 51 53  1  0  0  0
 52 54  2  0  0  0
 53 55  2  0  0  0
 54 55  1  0  0  0
 31 30  1  0  0  0
 31 32  1  0  0  0
 31 40  1  0  0  0
 32 41  1  0  0  0
 32 33  1  0  0  0
 41 42  2  0  0  0
 33 34  1  0  0  0
 34 35  1  0  0  0
 34 39  1  0  0  0
 35 36  1  0  0  0
 36 37  1  0  0  0
 37 38  1  0  0  0
 38 39  1  0  0  0
 39 40  1  0  0  0
 43 45  1  0  0  0
 45 46  1  0  0  0
 45 47  1  0  0  0
 45 48  1  0  0  0
  7  9  1  0  0  0
  2  4  1  0  0  0
 27 30  1  0  0  0
 41 43  1  0  0  0
  9 10  1  0  0  0
 24 25  1  0  0  0
 24 26  1  0  0  0
 28 29  1  0  0  0
  4  5  1  0  0  0
 43 44  1  0  0  0
M  END
> <minimizedAffinity>
-10.22464

$$$$
3D1X_ROC_A_201


 55 59  0  0  0  0  0  0  0  0999 V2000
   18.7896   22.3082   19.0229 C   0  0  0  0  0  0  0  0  0  0  0  0
   18.9008   23.7060   17.0438 C   0  0  0  0  0  0  0  0  0  0  0  0
   19.1742   22.7743   16.2218 O   0  0  0  0  0  0  0  0  0  0  0  0
   18.6855   23.5897   18.3515 N   0  0  0  0  0  0  0  0  0  0  0  0
   18.4508   24.3902   18.8744 H   0  0  0  0  0  0  0  0  0  0  0  0
   18.8394   25.1514   16.5573 C   0  0  0  0  0  0  0  0  0  0  0  0
   20.7403   26.3000   17.5041 C   0  0  0  0  0  0  0  0  0  0  0  0
   20.1543   26.5409   18.5887 O   0  0  0  0  0  0  0  0  0  0  0  0
   20.1766   25.6703   16.4766 N   0  0  0  0  0  0  0  0  0  0  0  0
   20.6871   25.5575   15.6424 H   0  0  0  0  0  0  0  0  0  0  0  0
   23.0042   26.5667   18.2852 N   0  0  0  0  0  0  0  0  0  0  0  0
   22.1702   26.6770   17.2548 C   0  0  0  0  0  0  0  0  0  0  0  0
   22.5532   27.1023   15.9698 C   0  0  0  0  0  0  0  0  0  0  0  0
   23.8849   27.4897   15.7950 C   0  0  0  0  0  0  0  0  0  0  0  0
   26.1803   27.6615   16.7820 C   0  0  0  0  0  0  0  0  0  0  0  0
   26.9942   27.5190   17.8762 C   0  0  0  0  0  0  0  0  0  0  0  0
   26.5224   27.0328   19.1152 C   0  0  0  0  0  0  0  0  0  0  0  0
   25.1787   26.7910   19.2565 C   0  0  0  0  0  0  0  0  0  0  0  0
   24.7792   27.3734   16.8784 C   0  0  0  0  0  0  0  0  0  0  0  0
   24.3112   26.9032   18.1296 C   0  0  0  0  0  0  0  0  0  0  0  0
   18.0389   25.2041   15.2276 C   0  0  0  0  0  0  0  0  0  0  0  0
   18.8982   25.9496   14.2184 C   0  0  0  0  0  0  0  0  0  0  0  0
   19.8206   25.3690   13.6791 O   0  0  0  0  0  0  0  0  0  0  0  0
   18.4669   27.2117   13.9590 N   0  0  0  0  0  0  0  0  0  0  0  0
   17.7053   27.5842   14.4595 H   0  0  0  0  0  0  0  0  0  0  0  0
   18.9159   27.7536   13.2706 H   0  0  0  0  0  0  0  0  0  0  0  0
   17.4917   21.5332   18.7442 C   0  0  0  0  0  0  0  0  0  0  0  0
   17.6581   20.6973   17.5721 O   0  0  0  0  0  0  0  0  0  0  0  0
   17.8390   21.2556   16.7998 H   0  0  0  0  0  0  0  0  0  0  0  0
   16.2921   22.4515   18.6165 C   0  0  0  0  0  0  0  0  0  0  0  0
   15.5199   22.1517   17.3734 N   0  0  0  0  0  0  0  0  0  0  0  0
   14.2351   21.5701   17.6850 C   0  0  0  0  0  0  0  0  0  0  0  0
   13.5174   21.2179   16.3580 C   0  0  0  0  0  0  0  0  0  0  0  0
   13.2646   22.5078   15.5624 C   0  0  0  0  0  0  0  0  0  0  0  0
   12.5782   22.1479   14.1867 C   0  0  0  0  0  0  0  0  0  0  0  0
   13.5823   21.3658   13.2647 C   0  0  0  0  0  0  0  0  0  0  0  0
   14.7842   22.2487   12.9835 C   0  0  0  0  0  0  0  0  0  0  0  0
   15.5259   22.4777   14.3197 C   0  0  0  0  0  0  0  0  0  0  0  0
   14.6110   23.2162   15.2916 C   0  0  0  0  0  0  0  0  0  0  0  0
   15.3100   23.4309   16.6448 C   0  0  0  0  0  0  0  0  0  0  0  0
   14.4093   20.2469   18.4270 C   0  0  0  0  0  0  0  0  0  0  0  0
   14.9788   19.2960   17.9285 O   0  0  0  0  0  0  0  0  0  0  0  0
   13.8793   20.2589   19.6922 N   0  0  0  0  0  0  0  0  0  0  0  0
   13.4888   21.0987   20.0262 H   0  0  0  0  0  0  0  0  0  0  0  0
   13.8636   19.0737   20.5836 C   0  0  0  0  0  0  0  0  0  0  0  0
   12.3995   18.5874   20.6990 C   0  0  0  0  0  0  0  0  0  0  0  0
   14.3536   19.5427   21.9750 C   0  0  0  0  0  0  0  0  0  0  0  0
   14.8373   18.0113   20.0647 C   0  0  0  0  0  0  0  0  0  0  0  0
   19.0629   22.4698   20.5261 C   0  0  0  0  0  0  0  0  0  0  0  0
   20.1960   23.4038   20.8506 C   0  0  0  0  0  0  0  0  0  0  0  0
   19.9398   24.6088   21.5460 C   0  0  0  0  0  0  0  0  0  0  0  0
   21.4871   23.1013   20.5012 C   0  0  0  0  0  0  0  0  0  0  0  0
   20.9884   25.4462   21.8144 C   0  0  0  0  0  0  0  0  0  0  0  0
   22.5272   23.9398   20.7580 C   0  0  0  0  0  0  0  0  0  0  0  0
   22.2918   25.1246   21.4473 C   0  0  0  0  0  0  0  0  0  0  0  0
  8  7  2  0  0  0
  7 12  1  0  0  0
 11 12  2  0  0  0
 11 20  1  0  0  0
 12 13  1  0  0  0
 13 14  2  0  0  0
 14 19  1  0  0  0
 19 15  2  0  0  0
 19 20  1  0  0  0
 15 16  1  0  0  0
 16 17  2  0  0  0
 17 18  1  0  0  0
 18 20  2  0  0  0
  9  6  1  0  0  0
  6  2  1  0  0  0
  6 21  1  0  0  0
  2  3  2  0  0  0
 21 22  1  0  0  0
 22 23  2  0  0  0
 22 24  1  0  0  0
 27 28  1  0  0  0
 27  1  1  0  0  0
  1  4  1  0  0  0
  1 49  1  0  0  0
 49 50  1  0  0  0
 50 51  2  0  0  0
 50 52  1  0  0  0
 51 53  1  0  0  0
 52 54  2  0  0  0
 53 55  2  0  0  0
 54 55  1  0  0  0
 31 30  1  0  0  0
 31 32  1  0  0  0
 31 40  1  0  0  0
 32 41  1  0  0  0
 32 33  1  0  0  0
 41 42  2  0  0  0
 33 34  1  0  0  0
 34 35  1  0  0  0
 34 39  1  0  0  0
 35 36  1  0  0  0
 36 37  1  0  0  0
 37 38  1  0  0  0
 38 39  1  0  0  0
 39 40  1  0  0  0
 43 45  1  0  0  0
 45 46  1  0  0  0
 45 47  1  0  0  0
 45 48  1  0  0  0
  7  9  1  0  0  0
  2  4  1  0  0  0
 27 30  1  0  0  0
 41 43  1  0  0  0
  9 10  1  0  0  0
 24 25  1  0  0  0
 24 26  1  0  0  0
 28 29  1  0  0  0
  4  5  1  0  0  0
 43 44  1  0  0  0
M  END
> <minimizedAffinity>
-10.18929

$$$$
3D1X_ROC_A_201


 55 59  0  0  0  0  0  0  0  0999 V2000
   15.7220   21.6889   16.9860 C   0  0  0  0  0  0  0  0  0  0  0  0
   13.9275   21.2041   18.5441 C   0  0  0  0  0  0  0  0  0  0  0  0
   13.7633   22.3972   18.9541 O   0  0  0  0  0  0  0  0  0  0  0  0
   14.7905   20.7791   17.6251 N   0  0  0  0  0  0  0  0  0  0  0  0
   14.7969   19.8273   17.3735 H   0  0  0  0  0  0  0  0  0  0  0  0
   13.1099   20.0721   19.1607 C   0  0  0  0  0  0  0  0  0  0  0  0
   11.5671   19.2198   17.5107 C   0  0  0  0  0  0  0  0  0  0  0  0
   10.6691   20.0460   17.8087 O   0  0  0  0  0  0  0  0  0  0  0  0
   12.7452   19.1463   18.1245 N   0  0  0  0  0  0  0  0  0  0  0  0
   13.3812   18.4418   17.8628 H   0  0  0  0  0  0  0  0  0  0  0  0
   11.5827   18.6932   15.1594 N   0  0  0  0  0  0  0  0  0  0  0  0
   11.4184   18.2288   16.3951 C   0  0  0  0  0  0  0  0  0  0  0  0
   11.1358   16.8859   16.7039 C   0  0  0  0  0  0  0  0  0  0  0  0
   10.9577   16.0069   15.6316 C   0  0  0  0  0  0  0  0  0  0  0  0
   11.0584   15.6515   13.1545 C   0  0  0  0  0  0  0  0  0  0  0  0
   11.2476   16.1845   11.9053 C   0  0  0  0  0  0  0  0  0  0  0  0
   11.5802   17.5416   11.7013 C   0  0  0  0  0  0  0  0  0  0  0  0
   11.6150   18.3793   12.7882 C   0  0  0  0  0  0  0  0  0  0  0  0
   11.1334   16.4863   14.3176 C   0  0  0  0  0  0  0  0  0  0  0  0
   11.4500   17.8498   14.1025 C   0  0  0  0  0  0  0  0  0  0  0  0
   13.9121   19.4511   20.3364 C   0  0  0  0  0  0  0  0  0  0  0  0
   12.9075   18.7649   21.2490 C   0  0  0  0  0  0  0  0  0  0  0  0
   11.7216   18.8402   20.9908 O   0  0  0  0  0  0  0  0  0  0  0  0
   13.4798   18.0421   22.2471 N   0  0  0  0  0  0  0  0  0  0  0  0
   14.4570   18.0541   22.3656 H   0  0  0  0  0  0  0  0  0  0  0  0
   12.9171   17.5063   22.8518 H   0  0  0  0  0  0  0  0  0  0  0  0
   16.5722   22.3333   18.0928 C   0  0  0  0  0  0  0  0  0  0  0  0
   16.0787   23.6650   18.3819 O   0  0  0  0  0  0  0  0  0  0  0  0
   16.1587   24.2186   17.5894 H   0  0  0  0  0  0  0  0  0  0  0  0
   18.0489   22.3411   17.7499 C   0  0  0  0  0  0  0  0  0  0  0  0
   18.4110   23.5662   16.9756 N   0  0  0  0  0  0  0  0  0  0  0  0
   19.7168   24.0546   17.3527 C   0  0  0  0  0  0  0  0  0  0  0  0
   20.0009   25.3608   16.5697 C   0  0  0  0  0  0  0  0  0  0  0  0
   20.0358   25.0507   15.0652 C   0  0  0  0  0  0  0  0  0  0  0  0
   20.2753   26.3881   14.2608 C   0  0  0  0  0  0  0  0  0  0  0  0
   19.0256   27.3325   14.3889 C   0  0  0  0  0  0  0  0  0  0  0  0
   17.8147   26.6310   13.8017 C   0  0  0  0  0  0  0  0  0  0  0  0
   17.5077   25.3995   14.6833 C   0  0  0  0  0  0  0  0  0  0  0  0
   18.6861   24.4319   14.6371 C   0  0  0  0  0  0  0  0  0  0  0  0
   18.4246   23.2086   15.5323 C   0  0  0  0  0  0  0  0  0  0  0  0
   19.7404   24.4421   18.8296 C   0  0  0  0  0  0  0  0  0  0  0  0
   18.7595   24.8781   19.3995 O   0  0  0  0  0  0  0  0  0  0  0  0
   20.9568   24.2316   19.4278 N   0  0  0  0  0  0  0  0  0  0  0  0
   21.6738   23.8193   18.8939 H   0  0  0  0  0  0  0  0  0  0  0  0
   21.2488   24.5924   20.8364 C   0  0  0  0  0  0  0  0  0  0  0  0
   21.1516   26.1314   20.9610 C   0  0  0  0  0  0  0  0  0  0  0  0
   22.7033   24.1507   21.1285 C   0  0  0  0  0  0  0  0  0  0  0  0
   20.3160   23.8275   21.7803 C   0  0  0  0  0  0  0  0  0  0  0  0
   15.0001   22.7329   16.1204 C   0  0  0  0  0  0  0  0  0  0  0  0
   14.6362   22.2484   14.7440 C   0  0  0  0  0  0  0  0  0  0  0  0
   13.2759   22.1451   14.3694 C   0  0  0  0  0  0  0  0  0  0  0  0
   15.6030   21.9199   13.8287 C   0  0  0  0  0  0  0  0  0  0  0  0
   12.9745   21.6871   13.1154 C   0  0  0  0  0  0  0  0  0  0  0  0
   15.3024   21.4535   12.5865 C   0  0  0  0  0  0  0  0  0  0  0  0
   13.9697   21.3535   12.2015 C   0  0  0  0  0  0  0  0  0  0  0  0
  8  7  2  0  0  0
  7 12  1  0  0  0
 11 12  2  0  0  0
 11 20  1  0  0  0
 12 13  1  0  0  0
 13 14  2  0  0  0
 14 19  1  0  0  0
 19 15  2  0  0  0
 19 20  1  0  0  0
 15 16  1  0  0  0
 16 17  2  0  0  0
 17 18  1  0  0  0
 18 20  2  0  0  0
  9  6  1  0  0  0
  6  2  1  0  0  0
  6 21  1  0  0  0
  2  3  2  0  0  0
 21 22  1  0  0  0
 22 23  2  0  0  0
 22 24  1  0  0  0
 27 28  1  0  0  0
 27  1  1  0  0  0
  1  4  1  0  0  0
  1 49  1  0  0  0
 49 50  1  0  0  0
 50 51  2  0  0  0
 50 52  1  0  0  0
 51 53  1  0  0  0
 52 54  2  0  0  0
 53 55  2  0  0  0
 54 55  1  0  0  0
 31 30  1  0  0  0
 31 32  1  0  0  0
 31 40  1  0  0  0
 32 41  1  0  0  0
 32 33  1  0  0  0
 41 42  2  0  0  0
 33 34  1  0  0  0
 34 35  1  0  0  0
 34 39  1  0  0  0
 35 36  1  0  0  0
 36 37  1  0  0  0
 37 38  1  0  0  0
 38 39  1  0  0  0
 39 40  1  0  0  0
 43 45  1  0  0  0
 45 46  1  0  0  0
 45 47  1  0  0  0
 45 48  1  0  0  0
  7  9  1  0  0  0
  2  4  1  0  0  0
 27 30  1  0  0  0
 41 43  1  0  0  0
  9 10  1  0  0  0
 24 25  1  0  0  0
 24 26  1  0  0  0
 28 29  1  0  0  0
  4  5  1  0  0  0
 43 44  1  0  0  0
M  END
> <minimizedAffinity>
-9.91076

$$$$
