3D1X_ROC_A_201
  RCSB PDB12061708153D
Coordinates from PDB:3D1X:A:201 Model:1 without hydrogens
 49 53  0  0  0  0            999 V2000
   21.3540   26.4210   18.7210   C 0  0  0  0  0  0  0  0  0  0  0  0
   20.8880   27.5860   18.7790   O 0  0  0  0  0  0  0  0  0  0  0  0
   22.9830   24.7550   19.3350   N 0  0  0  0  0  0  0  0  0  0  0  0
   22.4590   25.9450   19.6160   C 0  0  0  0  0  0  0  0  0  0  0  0
   22.8880   26.7680   20.6730   C 0  0  0  0  0  0  0  0  0  0  0  0
   23.8870   26.2640   21.5110   C 0  0  0  0  0  0  0  0  0  0  0  0
   25.5390   24.4370   21.9640   C 0  0  0  0  0  0  0  0  0  0  0  0
   26.0460   23.2100   21.6210   C 0  0  0  0  0  0  0  0  0  0  0  0
   25.5800   22.4810   20.5050   C 0  0  0  0  0  0  0  0  0  0  0  0
   24.5110   22.9740   19.7990   C 0  0  0  0  0  0  0  0  0  0  0  0
   24.4530   25.0060   21.2210   C 0  0  0  0  0  0  0  0  0  0  0  0
   23.9800   24.2600   20.1140   C 0  0  0  0  0  0  0  0  0  0  0  0
   20.9110   25.4820   17.8890   N 0  0  0  0  0  0  0  0  0  0  0  0
   19.7960   25.7200   17.0150   C 0  0  0  0  0  0  0  0  0  0  0  0
   18.8000   24.5730   17.1640   C 0  0  0  0  0  0  0  0  0  0  0  0
   18.9590   23.5070   16.4880   O 0  0  0  0  0  0  0  0  0  0  0  0
   20.1660   25.8770   15.5150   C 0  0  0  0  0  0  0  0  0  0  0  0
   21.0980   27.0740   15.4080   C 0  0  0  0  0  0  0  0  0  0  0  0
   20.6300   28.1960   15.4340   O 0  0  0  0  0  0  0  0  0  0  0  0
   22.4150   26.7410   15.3790   N 0  0  0  0  0  0  0  0  0  0  0  0
   15.4820   24.3820   18.0270   C 0  0  0  0  0  0  0  0  0  0  0  0
   15.1360   25.4890   18.8960   O 0  0  0  0  0  0  0  0  0  0  0  0
   16.8610   23.8240   18.4140   C 0  0  0  0  0  0  0  0  0  0  0  0
   17.8510   24.8240   18.0620   N 0  0  0  0  0  0  0  0  0  0  0  0
   16.9400   23.4380   19.8990   C 0  0  0  0  0  0  0  0  0  0  0  0
   18.3400   23.2450   20.4130   C 0  0  0  0  0  0  0  0  0  0  0  0
   19.0060   22.0150   20.2010   C 0  0  0  0  0  0  0  0  0  0  0  0
   18.9990   24.2510   21.0720   C 0  0  0  0  0  0  0  0  0  0  0  0
   20.2740   21.8630   20.6930   C 0  0  0  0  0  0  0  0  0  0  0  0
   20.2550   24.0950   21.5710   C 0  0  0  0  0  0  0  0  0  0  0  0
   20.9250   22.8940   21.3640   C 0  0  0  0  0  0  0  0  0  0  0  0
   14.4490   22.5180   16.7590   N 0  0  0  0  0  0  0  0  0  0  0  0
   14.4100   23.3100   18.0250   C 0  0  0  0  0  0  0  0  0  0  0  0
   13.8250   21.2270   16.9320   C 0  0  0  0  0  0  0  0  0  0  0  0
   14.5650   20.4090   17.9880   C 0  0  0  0  0  0  0  0  0  0  0  0
   15.7780   20.3430   18.0220   O 0  0  0  0  0  0  0  0  0  0  0  0
   13.9620   20.4310   15.6100   C 0  0  0  0  0  0  0  0  0  0  0  0
   13.2050   21.1690   14.4950   C 0  0  0  0  0  0  0  0  0  0  0  0
   13.3840   20.3870   13.1350   C 0  0  0  0  0  0  0  0  0  0  0  0
   14.8770   20.4700   12.6510   C 0  0  0  0  0  0  0  0  0  0  0  0
   15.2400   21.9250   12.4180   C 0  0  0  0  0  0  0  0  0  0  0  0
   15.1960   22.6480   13.7830   C 0  0  0  0  0  0  0  0  0  0  0  0
   13.7780   22.5960   14.3430   C 0  0  0  0  0  0  0  0  0  0  0  0
   13.7080   23.2800   15.7190   C 0  0  0  0  0  0  0  0  0  0  0  0
   13.7280   19.7880   18.8800   N 0  0  0  0  0  0  0  0  0  0  0  0
   14.2040   18.8840   19.9550   C 0  0  0  0  0  0  0  0  0  0  0  0
   14.9400   17.6990   19.2860   C 0  0  0  0  0  0  0  0  0  0  0  0
   12.9510   18.3520   20.6920   C 0  0  0  0  0  0  0  0  0  0  0  0
   15.0570   19.6640   20.9600   C 0  0  0  0  0  0  0  0  0  0  0  0
  2  1  2  0  0  0  0
  1  4  1  0  0  0  0
  3  4  2  0  0  0  0
  3 12  1  0  0  0  0
  4  5  1  0  0  0  0
  5  6  2  0  0  0  0
  6 11  1  0  0  0  0
 11  7  2  0  0  0  0
 11 12  1  0  0  0  0
  7  8  1  0  0  0  0
  8  9  2  0  0  0  0
  9 10  1  0  0  0  0
 10 12  2  0  0  0  0
 13 14  1  0  0  0  0
 14 15  1  0  0  0  0
 14 17  1  0  0  0  0
 15 16  2  0  0  0  0
 17 18  1  0  0  0  0
 18 19  2  0  0  0  0
 18 20  1  0  0  0  0
 21 22  1  0  0  0  0
 21 23  1  0  0  0  0
 23 24  1  0  0  0  0
 23 25  1  0  0  0  0
 25 26  1  0  0  0  0
 26 27  2  0  0  0  0
 26 28  1  0  0  0  0
 27 29  1  0  0  0  0
 28 30  2  0  0  0  0
 29 31  2  0  0  0  0
 30 31  1  0  0  0  0
 32 33  1  0  0  0  0
 32 34  1  0  0  0  0
 32 44  1  0  0  0  0
 34 35  1  0  0  0  0
 34 37  1  0  0  0  0
 35 36  2  0  0  0  0
 37 38  1  0  0  0  0
 38 39  1  0  0  0  0
 38 43  1  0  0  0  0
 39 40  1  0  0  0  0
 40 41  1  0  0  0  0
 41 42  1  0  0  0  0
 42 43  1  0  0  0  0
 43 44  1  0  0  0  0
 45 46  1  0  0  0  0
 46 47  1  0  0  0  0
 46 48  1  0  0  0  0
 46 49  1  0  0  0  0
  1 13  1  0  0  0  0
 15 24  1  0  0  0  0
 21 33  1  0  0  0  0
 35 45  1  0  0  0  0
A    1
C
A    2
O
A    3
N1
A    4
C2
A    5
C3
A    6
C4
A    7
C5
A    8
C6
A    9
C7
A   10
C8
A   11
C4A
A   12
C8A
A   13
N
A   14
CA
A   15
C1
A   16
O1
A   17
CB
A   18
CG
A   19
OD1
A   20
ND2
A   21
C9
A   22
O2
A   23
CA1
A   24
N2
A   25
CB1
A   26
CG1
A   27
CD1
A   28
CD2
A   29
CE1
A   30
CE2
A   31
CZ
A   32
N11
A   33
CM
A   34
C21
A   35
CC
A   36
O3
A   37
C31
A   38
C3A
A   39
C41
A   40
C51
A   41
C61
A   42
C71
A   43
C7A
A   44
C81
A   45
N3
A   46
CD
A   47
C11
A   48
C22
A   49
C32
M  END
>  <InstanceId>
3D1X_ROC_A_201

>  <ChemCompId>
ROC

>  <PdbId>
3D1X

>  <ChainId>
A

>  <ResidueNumber>
201

>  <InsertionCode>


>  <Model>
1

>  <AltIds>


>  <MissingHeavyAtoms>
0

>  <ObservedFormula>
C38 N6 O5

>  <Name>
(2S)-N-[(2S,3R)-4-[(2S,3S,4aS,8aS)-3-(tert-butylcarbamoyl)-3,4,4a,5,6,7,8,8a-octahydro-1H-isoquinolin-2-yl]-3-hydroxy-1-phenyl-butan-2-yl]-2-(quinolin-2-ylcarbonylamino)butanediamide

>  <SystematicName>
(2S)-N-[(2S,3R)-4-[(2S,3S,4aS,8aS)-3-(tert-butylcarbamoyl)-3,4,4a,5,6,7,8,8a-octahydro-1H-isoquinolin-2-yl]-3-hydroxy-1-phenyl-butan-2-yl]-2-(quinolin-2-ylcarbonylamino)butanediamide

>  <Synonyms>
Fortovase; SAQUINAVIR,RO 31-8959

>  <Type>
peptide-like

>  <Formula>
C38 H50 N6 O5

>  <MolecularWeight>
670.841

>  <ModifiedDate>
2011-11-17

>  <Parent>


>  <OneLetterCode>


>  <SubcomponentList>
QNC ASN HP0 NTB

>  <AmbiguousFlag>
N

>  <InChI>
InChI=1S/C38H50N6O5/c1-38(2,3)43-37(49)32-20-26-14-7-8-15-27(26)22-44(32)23-33(45)30(19-24-11-5-4-6-12-24)41-36(48)31(21-34(39)46)42-35(47)29-18-17-25-13-9-10-16-28(25)40-29/h4-6,9-13,16-18,26-27,30-33,45H,7-8,14-15,19-23H2,1-3H3,(H2,39,46)(H,41,48)(H,42,47)(H,43,49)/t26-,27+,30-,31-,32-,33+/m0/s1

>  <InChIKey>
QWAXKHKRTORLEM-UGJKXSETSA-N

>  <SMILES>
CC(C)(C)NC(=O)[C@@H]1C[C@@H]2CCCC[C@@H]2C[N@]1C[C@H]([C@H](Cc3ccccc3)NC(=O)[C@H](CC(=O)N)NC(=O)c4ccc5ccccc5n4)O

$$$$
