3F5L_LB2_A_1000


 31 32  0  0  0  0  0  0  0  0999 V2000
    4.7896    0.4256   38.1492 O   0  0  0  0  0  0  0  0  0  0  0  0
    4.3632    1.8603   42.6915 O   0  0  0  0  0  0  0  0  0  0  0  0
    3.6687    1.8033   41.4432 C   0  0  0  0  0  0  0  0  0  0  0  0
    4.6135    1.2760   40.3690 C   0  0  0  0  0  0  0  0  0  0  0  0
    5.7687    2.1126   40.3017 O   0  0  0  0  0  0  0  0  0  0  0  0
    2.5750    0.8996   41.5576 O   0  0  0  0  0  0  0  0  0  0  0  0
    1.7890    0.8804   40.3647 C   0  0  0  0  0  0  0  0  0  0  0  0
    2.6279    0.4006   39.1778 C   0  0  0  0  0  0  0  0  0  0  0  0
    1.8638    0.5269   37.9751 O   0  0  0  0  0  0  0  0  0  0  0  0
    3.9305    1.1775   39.0135 C   0  0  0  0  0  0  0  0  0  0  0  0
    5.1098    2.4752   42.6183 H   0  0  0  0  0  0  0  0  0  0  0  0
    5.5020    3.0132   40.0593 H   0  0  0  0  0  0  0  0  0  0  0  0
    1.6473    1.4607   37.8262 H   0  0  0  0  0  0  0  0  0  0  0  0
    0.5756   -0.0185   40.5938 C   0  0  0  0  0  0  0  0  0  0  0  0
   -0.5021    0.3818   39.7337 O   0  0  0  0  0  0  0  0  0  0  0  0
   -0.7478    1.2996   39.9290 H   0  0  0  0  0  0  0  0  0  0  0  0
    5.2266    1.0910   36.9245 C   0  0  0  0  0  0  0  0  0  0  0  0
    5.7596    0.2748   35.7652 C   0  0  0  0  0  0  0  0  0  0  0  0
    7.1678   -0.0732   35.6872 O   0  0  0  0  0  0  0  0  0  0  0  0
    5.3473    0.9649   34.4812 C   0  0  0  0  0  0  0  0  0  0  0  0
    5.1852   -0.0734   33.5155 O   0  0  0  0  0  0  0  0  0  0  0  0
    4.0324    1.6922   34.7673 C   0  0  0  0  0  0  0  0  0  0  0  0
    3.3715    2.0365   33.5375 O   0  0  0  0  0  0  0  0  0  0  0  0
    5.0590    2.5341   36.7985 O   0  0  0  0  0  0  0  0  0  0  0  0
    4.3367    2.9243   35.6200 C   0  0  0  0  0  0  0  0  0  0  0  0
    7.6906    0.7283   35.5289 H   0  0  0  0  0  0  0  0  0  0  0  0
    4.5428   -0.7222   33.8431 H   0  0  0  0  0  0  0  0  0  0  0  0
    3.9459    2.6160   33.0129 H   0  0  0  0  0  0  0  0  0  0  0  0
    3.0987    3.7369   36.0099 C   0  0  0  0  0  0  0  0  0  0  0  0
    2.3311    3.0774   37.0309 O   0  0  0  0  0  0  0  0  0  0  0  0
    2.0245    2.2184   36.7007 H   0  0  0  0  0  0  0  0  0  0  0  0
  3  2  1  0  0  0
  4  3  1  0  0  0
  3  6  1  0  0  0
 10  4  1  0  0  0
  5  4  1  0  0  0
  7  6  1  0  0  0
  8  7  1  0  0  0
  7 14  1  0  0  0
 14 15  1  0  0  0
  9  8  1  0  0  0
 10  8  1  0  0  0
  1 10  1  0  0  0
 17  1  1  0  0  0
 18 17  1  0  0  0
 24 17  1  0  0  0
 20 18  1  0  0  0
 19 18  1  0  0  0
 21 20  1  0  0  0
 20 22  1  0  0  0
 23 22  1  0  0  0
 22 25  1  0  0  0
 25 24  1  0  0  0
 25 29  1  0  0  0
 29 30  1  0  0  0
  2 11  1  0  0  0
  5 12  1  0  0  0
 15 16  1  0  0  0
  9 13  1  0  0  0
 19 26  1  0  0  0
 21 27  1  0  0  0
 23 28  1  0  0  0
 30 31  1  0  0  0
M  END
> <minimizedAffinity>
-9.53232

$$$$
3F5L_LB2_A_1000


 31 32  0  0  0  0  0  0  0  0999 V2000
    3.6323   -0.9782   37.8833 O   0  0  0  0  0  0  0  0  0  0  0  0
    2.4404   -0.5967   42.4992 O   0  0  0  0  0  0  0  0  0  0  0  0
    1.9882   -0.2996   41.1759 C   0  0  0  0  0  0  0  0  0  0  0  0
    3.0889   -0.6501   40.1808 C   0  0  0  0  0  0  0  0  0  0  0  0
    4.2765    0.0686   40.5152 O   0  0  0  0  0  0  0  0  0  0  0  0
    0.8488   -1.0999   40.8806 O   0  0  0  0  0  0  0  0  0  0  0  0
    0.2984   -0.7705   39.6040 C   0  0  0  0  0  0  0  0  0  0  0  0
    1.3185   -1.0392   38.4950 C   0  0  0  0  0  0  0  0  0  0  0  0
    0.7985   -0.5687   37.2482 O   0  0  0  0  0  0  0  0  0  0  0  0
    2.6659   -0.3696   38.7471 C   0  0  0  0  0  0  0  0  0  0  0  0
    3.2171   -0.0534   42.7051 H   0  0  0  0  0  0  0  0  0  0  0  0
    4.1046    1.0216   40.4580 H   0  0  0  0  0  0  0  0  0  0  0  0
    0.6601    0.3902   37.2969 H   0  0  0  0  0  0  0  0  0  0  0  0
   -0.9795   -1.5816   39.3992 C   0  0  0  0  0  0  0  0  0  0  0  0
   -0.7181   -2.7022   38.5405 O   0  0  0  0  0  0  0  0  0  0  0  0
   -0.4051   -2.3837   37.6794 H   0  0  0  0  0  0  0  0  0  0  0  0
    4.4717   -0.0723   37.1033 C   0  0  0  0  0  0  0  0  0  0  0  0
    4.8953   -0.4492   35.6988 C   0  0  0  0  0  0  0  0  0  0  0  0
    6.0980   -1.2312   35.4704 O   0  0  0  0  0  0  0  0  0  0  0  0
    4.9662    0.8214   34.8769 C   0  0  0  0  0  0  0  0  0  0  0  0
    4.6380    0.4403   33.5413 O   0  0  0  0  0  0  0  0  0  0  0  0
    3.9402    1.7915   35.4649 C   0  0  0  0  0  0  0  0  0  0  0  0
    3.6561    2.8480   34.5316 O   0  0  0  0  0  0  0  0  0  0  0  0
    4.8190    1.2316   37.6564 O   0  0  0  0  0  0  0  0  0  0  0  0
    4.4844    2.3270   36.7897 C   0  0  0  0  0  0  0  0  0  0  0  0
    6.8770   -0.7007   35.6997 H   0  0  0  0  0  0  0  0  0  0  0  0
    3.7697    0.0081   33.5325 H   0  0  0  0  0  0  0  0  0  0  0  0
    4.4726    3.3327   34.3335 H   0  0  0  0  0  0  0  0  0  0  0  0
    3.5399    3.2941   37.5092 C   0  0  0  0  0  0  0  0  0  0  0  0
    2.2530    3.3521   36.8712 O   0  0  0  0  0  0  0  0  0  0  0  0
    2.3575    3.6692   35.9605 H   0  0  0  0  0  0  0  0  0  0  0  0
  3  2  1  0  0  0
  4  3  1  0  0  0
  3  6  1  0  0  0
 10  4  1  0  0  0
  5  4  1  0  0  0
  7  6  1  0  0  0
  8  7  1  0  0  0
  7 14  1  0  0  0
 14 15  1  0  0  0
  9  8  1  0  0  0
 10  8  1  0  0  0
  1 10  1  0  0  0
 17  1  1  0  0  0
 18 17  1  0  0  0
 24 17  1  0  0  0
 20 18  1  0  0  0
 19 18  1  0  0  0
 21 20  1  0  0  0
 20 22  1  0  0  0
 23 22  1  0  0  0
 22 25  1  0  0  0
 25 24  1  0  0  0
 25 29  1  0  0  0
 29 30  1  0  0  0
  2 11  1  0  0  0
  5 12  1  0  0  0
 15 16  1  0  0  0
  9 13  1  0  0  0
 19 26  1  0  0  0
 21 27  1  0  0  0
 23 28  1  0  0  0
 30 31  1  0  0  0
M  END
> <minimizedAffinity>
-9.21334

$$$$
3F5L_LB2_A_1000


 31 32  0  0  0  0  0  0  0  0999 V2000
    4.0642   -0.2400   39.4018 O   0  0  0  0  0  0  0  0  0  0  0  0
    5.9196    1.3863   43.4988 O   0  0  0  0  0  0  0  0  0  0  0  0
    4.7067    1.3128   42.7456 C   0  0  0  0  0  0  0  0  0  0  0  0
    5.0022    0.7024   41.3801 C   0  0  0  0  0  0  0  0  0  0  0  0
    5.9978    1.4826   40.7177 O   0  0  0  0  0  0  0  0  0  0  0  0
    3.7863    0.4646   43.4233 O   0  0  0  0  0  0  0  0  0  0  0  0
    2.5209    0.4350   42.7606 C   0  0  0  0  0  0  0  0  0  0  0  0
    2.6703   -0.1275   41.3450 C   0  0  0  0  0  0  0  0  0  0  0  0
    1.4224   -0.0131   40.6552 O   0  0  0  0  0  0  0  0  0  0  0  0
    3.7467    0.5828   40.5300 C   0  0  0  0  0  0  0  0  0  0  0  0
    6.5502    1.9636   43.0406 H   0  0  0  0  0  0  0  0  0  0  0  0
    5.6661    2.3843   40.5843 H   0  0  0  0  0  0  0  0  0  0  0  0
    1.1805    0.9230   40.5775 H   0  0  0  0  0  0  0  0  0  0  0  0
    1.5514   -0.3986   43.5961 C   0  0  0  0  0  0  0  0  0  0  0  0
    1.4501   -1.7243   43.0542 O   0  0  0  0  0  0  0  0  0  0  0  0
    1.1212   -1.6769   42.1429 H   0  0  0  0  0  0  0  0  0  0  0  0
    3.5904    0.2261   38.1011 C   0  0  0  0  0  0  0  0  0  0  0  0
    2.8571    1.5466   37.9883 C   0  0  0  0  0  0  0  0  0  0  0  0
    1.4173    1.6144   38.1687 O   0  0  0  0  0  0  0  0  0  0  0  0
    3.2200    2.1686   36.6555 C   0  0  0  0  0  0  0  0  0  0  0  0
    3.1670    3.5804   36.8571 O   0  0  0  0  0  0  0  0  0  0  0  0
    4.6314    1.6913   36.3094 C   0  0  0  0  0  0  0  0  0  0  0  0
    5.2054    2.5228   35.2861 O   0  0  0  0  0  0  0  0  0  0  0  0
    3.9102   -0.5473   36.9068 O   0  0  0  0  0  0  0  0  0  0  0  0
    4.5552    0.2253   35.8821 C   0  0  0  0  0  0  0  0  0  0  0  0
    0.9775    1.1619   37.4320 H   0  0  0  0  0  0  0  0  0  0  0  0
    3.7589    3.8255   37.5854 H   0  0  0  0  0  0  0  0  0  0  0  0
    4.6535    2.4825   34.4894 H   0  0  0  0  0  0  0  0  0  0  0  0
    5.9105   -0.3962   35.5330 C   0  0  0  0  0  0  0  0  0  0  0  0
    7.0010    0.3790   36.0590 O   0  0  0  0  0  0  0  0  0  0  0  0
    6.9800    1.2692   35.6741 H   0  0  0  0  0  0  0  0  0  0  0  0
  3  2  1  0  0  0
  4  3  1  0  0  0
  3  6  1  0  0  0
 10  4  1  0  0  0
  5  4  1  0  0  0
  7  6  1  0  0  0
  8  7  1  0  0  0
  7 14  1  0  0  0
 14 15  1  0  0  0
  9  8  1  0  0  0
 10  8  1  0  0  0
  1 10  1  0  0  0
 17  1  1  0  0  0
 18 17  1  0  0  0
 24 17  1  0  0  0
 20 18  1  0  0  0
 19 18  1  0  0  0
 21 20  1  0  0  0
 20 22  1  0  0  0
 23 22  1  0  0  0
 22 25  1  0  0  0
 25 24  1  0  0  0
 25 29  1  0  0  0
 29 30  1  0  0  0
  2 11  1  0  0  0
  5 12  1  0  0  0
 15 16  1  0  0  0
  9 13  1  0  0  0
 19 26  1  0  0  0
 21 27  1  0  0  0
 23 28  1  0  0  0
 30 31  1  0  0  0
M  END
> <minimizedAffinity>
-8.98382

$$$$
3F5L_LB2_A_1000


 31 32  0  0  0  0  0  0  0  0999 V2000
    1.6692    0.8265   39.4052 O   0  0  0  0  0  0  0  0  0  0  0  0
    1.5299    0.8396   44.1857 O   0  0  0  0  0  0  0  0  0  0  0  0
    2.3632    0.5175   43.0696 C   0  0  0  0  0  0  0  0  0  0  0  0
    1.5643    0.6905   41.7826 C   0  0  0  0  0  0  0  0  0  0  0  0
    0.3977   -0.1311   41.8350 O   0  0  0  0  0  0  0  0  0  0  0  0
    3.4656    1.4172   43.0343 O   0  0  0  0  0  0  0  0  0  0  0  0
    4.3823    1.0763   41.9928 C   0  0  0  0  0  0  0  0  0  0  0  0
    3.6997    1.1702   40.6261 C   0  0  0  0  0  0  0  0  0  0  0  0
    4.5911    0.6876   39.6167 O   0  0  0  0  0  0  0  0  0  0  0  0
    2.3997    0.3754   40.5513 C   0  0  0  0  0  0  0  0  0  0  0  0
    0.7769    0.2288   44.2139 H   0  0  0  0  0  0  0  0  0  0  0  0
    0.6608   -1.0618   41.9089 H   0  0  0  0  0  0  0  0  0  0  0  0
    4.7927   -0.2465   39.7832 H   0  0  0  0  0  0  0  0  0  0  0  0
    5.5903    2.0067   42.0816 C   0  0  0  0  0  0  0  0  0  0  0  0
    5.1571    3.3519   42.3354 O   0  0  0  0  0  0  0  0  0  0  0  0
    4.5827    3.6485   41.6122 H   0  0  0  0  0  0  0  0  0  0  0  0
    1.4937   -0.1384   38.3227 C   0  0  0  0  0  0  0  0  0  0  0  0
    2.4246   -1.3276   38.2068 C   0  0  0  0  0  0  0  0  0  0  0  0
    3.6726   -1.2250   37.4704 O   0  0  0  0  0  0  0  0  0  0  0  0
    1.6242   -2.4948   37.6664 C   0  0  0  0  0  0  0  0  0  0  0  0
    2.2175   -3.6662   38.2256 O   0  0  0  0  0  0  0  0  0  0  0  0
    0.1814   -2.3026   38.1364 C   0  0  0  0  0  0  0  0  0  0  0  0
   -0.5538   -3.5326   38.0157 O   0  0  0  0  0  0  0  0  0  0  0  0
    0.3621    0.0071   37.4144 O   0  0  0  0  0  0  0  0  0  0  0  0
   -0.4480   -1.1750   37.3177 C   0  0  0  0  0  0  0  0  0  0  0  0
    3.4824   -1.1203   36.5250 H   0  0  0  0  0  0  0  0  0  0  0  0
    2.2184   -3.5977   39.1931 H   0  0  0  0  0  0  0  0  0  0  0  0
   -0.5583   -3.8169   37.0883 H   0  0  0  0  0  0  0  0  0  0  0  0
   -1.8938   -0.8518   37.7054 C   0  0  0  0  0  0  0  0  0  0  0  0
   -2.7057   -0.5839   36.5497 O   0  0  0  0  0  0  0  0  0  0  0  0
   -2.3512    0.1852   36.0767 H   0  0  0  0  0  0  0  0  0  0  0  0
  3  2  1  0  0  0
  4  3  1  0  0  0
  3  6  1  0  0  0
 10  4  1  0  0  0
  5  4  1  0  0  0
  7  6  1  0  0  0
  8  7  1  0  0  0
  7 14  1  0  0  0
 14 15  1  0  0  0
  9  8  1  0  0  0
 10  8  1  0  0  0
  1 10  1  0  0  0
 17  1  1  0  0  0
 18 17  1  0  0  0
 24 17  1  0  0  0
 20 18  1  0  0  0
 19 18  1  0  0  0
 21 20  1  0  0  0
 20 22  1  0  0  0
 23 22  1  0  0  0
 22 25  1  0  0  0
 25 24  1  0  0  0
 25 29  1  0  0  0
 29 30  1  0  0  0
  2 11  1  0  0  0
  5 12  1  0  0  0
 15 16  1  0  0  0
  9 13  1  0  0  0
 19 26  1  0  0  0
 21 27  1  0  0  0
 23 28  1  0  0  0
 30 31  1  0  0  0
M  END
> <minimizedAffinity>
-8.47606

$$$$
3F5L_LB2_A_1000


 31 32  0  0  0  0  0  0  0  0999 V2000
    1.2286    1.1498   38.4597 O   0  0  0  0  0  0  0  0  0  0  0  0
   -2.6995   -1.5738   38.3019 O   0  0  0  0  0  0  0  0  0  0  0  0
   -1.4161   -1.4575   38.9209 C   0  0  0  0  0  0  0  0  0  0  0  0
   -0.6586   -0.2960   38.2871 C   0  0  0  0  0  0  0  0  0  0  0  0
   -0.5570   -0.5086   36.8789 O   0  0  0  0  0  0  0  0  0  0  0  0
   -1.5886   -1.1748   40.3052 O   0  0  0  0  0  0  0  0  0  0  0  0
   -0.3353   -1.1456   40.9904 C   0  0  0  0  0  0  0  0  0  0  0  0
    0.5575   -0.0371   40.4277 C   0  0  0  0  0  0  0  0  0  0  0  0
    1.8531   -0.1209   41.0281 O   0  0  0  0  0  0  0  0  0  0  0  0
    0.7153   -0.1083   38.9119 C   0  0  0  0  0  0  0  0  0  0  0  0
   -2.5869   -1.7665   37.3580 H   0  0  0  0  0  0  0  0  0  0  0  0
   -0.0615   -1.3253   36.7101 H   0  0  0  0  0  0  0  0  0  0  0  0
    2.2599   -0.9719   40.8018 H   0  0  0  0  0  0  0  0  0  0  0  0
   -0.5987   -0.9506   42.4822 C   0  0  0  0  0  0  0  0  0  0  0  0
    0.5352   -1.3932   43.2436 O   0  0  0  0  0  0  0  0  0  0  0  0
    0.6928   -2.3347   43.0713 H   0  0  0  0  0  0  0  0  0  0  0  0
    2.6494    1.1911   38.1230 C   0  0  0  0  0  0  0  0  0  0  0  0
    3.3932   -0.0904   37.8087 C   0  0  0  0  0  0  0  0  0  0  0  0
    4.0044   -0.8735   38.8685 O   0  0  0  0  0  0  0  0  0  0  0  0
    4.4383    0.2234   36.7579 C   0  0  0  0  0  0  0  0  0  0  0  0
    4.5868   -0.9689   35.9878 O   0  0  0  0  0  0  0  0  0  0  0  0
    3.8958    1.3829   35.9207 C   0  0  0  0  0  0  0  0  0  0  0  0
    4.6171    1.4873   34.6810 O   0  0  0  0  0  0  0  0  0  0  0  0
    3.3168    2.4823   38.0050 O   0  0  0  0  0  0  0  0  0  0  0  0
    3.9906    2.6641   36.7496 C   0  0  0  0  0  0  0  0  0  0  0  0
    4.7517   -0.3821   39.2439 H   0  0  0  0  0  0  0  0  0  0  0  0
    3.7251   -1.2302   35.6271 H   0  0  0  0  0  0  0  0  0  0  0  0
    5.5566    1.6429   34.8657 H   0  0  0  0  0  0  0  0  0  0  0  0
    3.4502    3.9095   36.0412 C   0  0  0  0  0  0  0  0  0  0  0  0
    2.9227    3.5938   34.7417 O   0  0  0  0  0  0  0  0  0  0  0  0
    3.6281    3.2253   34.1872 H   0  0  0  0  0  0  0  0  0  0  0  0
  3  2  1  0  0  0
  4  3  1  0  0  0
  3  6  1  0  0  0
 10  4  1  0  0  0
  5  4  1  0  0  0
  7  6  1  0  0  0
  8  7  1  0  0  0
  7 14  1  0  0  0
 14 15  1  0  0  0
  9  8  1  0  0  0
 10  8  1  0  0  0
  1 10  1  0  0  0
 17  1  1  0  0  0
 18 17  1  0  0  0
 24 17  1  0  0  0
 20 18  1  0  0  0
 19 18  1  0  0  0
 21 20  1  0  0  0
 20 22  1  0  0  0
 23 22  1  0  0  0
 22 25  1  0  0  0
 25 24  1  0  0  0
 25 29  1  0  0  0
 29 30  1  0  0  0
  2 11  1  0  0  0
  5 12  1  0  0  0
 15 16  1  0  0  0
  9 13  1  0  0  0
 19 26  1  0  0  0
 21 27  1  0  0  0
 23 28  1  0  0  0
 30 31  1  0  0  0
M  END
> <minimizedAffinity>
-8.10163

$$$$
3F5L_LB2_A_1000


 31 32  0  0  0  0  0  0  0  0999 V2000
    1.9686   -0.3606   38.9425 O   0  0  0  0  0  0  0  0  0  0  0  0
    5.5693    1.7942   36.6480 O   0  0  0  0  0  0  0  0  0  0  0  0
    4.6723    1.9368   37.7521 C   0  0  0  0  0  0  0  0  0  0  0  0
    3.6633    0.7940   37.7274 C   0  0  0  0  0  0  0  0  0  0  0  0
    2.9765    0.7952   36.4756 O   0  0  0  0  0  0  0  0  0  0  0  0
    5.4095    1.8544   38.9669 O   0  0  0  0  0  0  0  0  0  0  0  0
    4.5722    2.0888   40.1005 C   0  0  0  0  0  0  0  0  0  0  0  0
    3.4740    1.0260   40.1847 C   0  0  0  0  0  0  0  0  0  0  0  0
    2.5674    1.3633   41.2385 O   0  0  0  0  0  0  0  0  0  0  0  0
    2.6839    0.8788   38.8880 C   0  0  0  0  0  0  0  0  0  0  0  0
    5.0712    1.8497   35.8175 H   0  0  0  0  0  0  0  0  0  0  0  0
    2.4950    1.6308   36.3718 H   0  0  0  0  0  0  0  0  0  0  0  0
    2.1426    2.2124   41.0401 H   0  0  0  0  0  0  0  0  0  0  0  0
    5.4415    2.0978   41.3563 C   0  0  0  0  0  0  0  0  0  0  0  0
    4.8938    3.0031   42.3269 O   0  0  0  0  0  0  0  0  0  0  0  0
    4.8673    3.8986   41.9549 H   0  0  0  0  0  0  0  0  0  0  0  0
    0.5111   -0.2710   38.9774 C   0  0  0  0  0  0  0  0  0  0  0  0
   -0.3160   -0.9162   37.8847 C   0  0  0  0  0  0  0  0  0  0  0  0
   -0.6294   -0.1924   36.6649 O   0  0  0  0  0  0  0  0  0  0  0  0
   -1.6022   -1.4175   38.5086 C   0  0  0  0  0  0  0  0  0  0  0  0
   -1.9797   -2.5674   37.7524 O   0  0  0  0  0  0  0  0  0  0  0  0
   -1.2863   -1.7667   39.9639 C   0  0  0  0  0  0  0  0  0  0  0  0
   -2.3171   -2.6050   40.5140 O   0  0  0  0  0  0  0  0  0  0  0  0
   -0.1371    0.3650   40.1185 O   0  0  0  0  0  0  0  0  0  0  0  0
   -1.1248   -0.4650   40.7497 C   0  0  0  0  0  0  0  0  0  0  0  0
   -1.2355    0.5372   36.8685 H   0  0  0  0  0  0  0  0  0  0  0  0
   -1.2551   -3.2122   37.7609 H   0  0  0  0  0  0  0  0  0  0  0  0
   -3.1668   -2.1386   40.4778 H   0  0  0  0  0  0  0  0  0  0  0  0
   -0.7740   -0.6650   42.2268 C   0  0  0  0  0  0  0  0  0  0  0  0
    0.3016    0.1956   42.6379 O   0  0  0  0  0  0  0  0  0  0  0  0
    1.0953   -0.0084   42.1189 H   0  0  0  0  0  0  0  0  0  0  0  0
  3  2  1  0  0  0
  4  3  1  0  0  0
  3  6  1  0  0  0
 10  4  1  0  0  0
  5  4  1  0  0  0
  7  6  1  0  0  0
  8  7  1  0  0  0
  7 14  1  0  0  0
 14 15  1  0  0  0
  9  8  1  0  0  0
 10  8  1  0  0  0
  1 10  1  0  0  0
 17  1  1  0  0  0
 18 17  1  0  0  0
 24 17  1  0  0  0
 20 18  1  0  0  0
 19 18  1  0  0  0
 21 20  1  0  0  0
 20 22  1  0  0  0
 23 22  1  0  0  0
 22 25  1  0  0  0
 25 24  1  0  0  0
 25 29  1  0  0  0
 29 30  1  0  0  0
  2 11  1  0  0  0
  5 12  1  0  0  0
 15 16  1  0  0  0
  9 13  1  0  0  0
 19 26  1  0  0  0
 21 27  1  0  0  0
 23 28  1  0  0  0
 30 31  1  0  0  0
M  END
> <minimizedAffinity>
-7.94687

$$$$
3F5L_LB2_A_1000


 31 32  0  0  0  0  0  0  0  0999 V2000
    2.9431   -0.5608   40.5220 O   0  0  0  0  0  0  0  0  0  0  0  0
    6.2289    2.5192   42.1314 O   0  0  0  0  0  0  0  0  0  0  0  0
    4.8195    2.2924   42.0528 C   0  0  0  0  0  0  0  0  0  0  0  0
    4.5590    1.0540   41.2026 C   0  0  0  0  0  0  0  0  0  0  0  0
    5.1457    1.2325   39.9131 O   0  0  0  0  0  0  0  0  0  0  0  0
    4.3114    2.0505   43.3602 O   0  0  0  0  0  0  0  0  0  0  0  0
    2.8893    1.9142   43.3487 C   0  0  0  0  0  0  0  0  0  0  0  0
    2.4724    0.7169   42.4912 C   0  0  0  0  0  0  0  0  0  0  0  0
    1.0467    0.6879   42.3784 O   0  0  0  0  0  0  0  0  0  0  0  0
    3.0735    0.7476   41.0893 C   0  0  0  0  0  0  0  0  0  0  0  0
    6.5798    2.6846   41.2424 H   0  0  0  0  0  0  0  0  0  0  0  0
    4.7375    1.9957   39.4750 H   0  0  0  0  0  0  0  0  0  0  0  0
    0.7413    1.4926   41.9312 H   0  0  0  0  0  0  0  0  0  0  0  0
    2.4009    1.7700   44.7887 C   0  0  0  0  0  0  0  0  0  0  0  0
    2.5009    3.0297   45.4702 O   0  0  0  0  0  0  0  0  0  0  0  0
    3.4264    3.3203   45.4784 H   0  0  0  0  0  0  0  0  0  0  0  0
    2.0691   -0.6824   39.3580 C   0  0  0  0  0  0  0  0  0  0  0  0
    2.3742   -1.7042   38.2824 C   0  0  0  0  0  0  0  0  0  0  0  0
    3.2552   -1.3764   37.1749 O   0  0  0  0  0  0  0  0  0  0  0  0
    1.0561   -2.2115   37.7344 C   0  0  0  0  0  0  0  0  0  0  0  0
    1.2935   -3.5610   37.3355 O   0  0  0  0  0  0  0  0  0  0  0  0
    0.0356   -2.1203   38.8701 C   0  0  0  0  0  0  0  0  0  0  0  0
   -1.1157   -2.9305   38.5764 O   0  0  0  0  0  0  0  0  0  0  0  0
    0.8562    0.1244   39.2897 O   0  0  0  0  0  0  0  0  0  0  0  0
   -0.3335   -0.6504   39.0721 C   0  0  0  0  0  0  0  0  0  0  0  0
    2.8278   -0.7172   36.6059 H   0  0  0  0  0  0  0  0  0  0  0  0
    1.6319   -4.0667   38.0910 H   0  0  0  0  0  0  0  0  0  0  0  0
   -1.5280   -2.6208   37.7549 H   0  0  0  0  0  0  0  0  0  0  0  0
   -1.3321   -0.4060   40.2069 C   0  0  0  0  0  0  0  0  0  0  0  0
   -1.1056   -1.2949   41.3137 O   0  0  0  0  0  0  0  0  0  0  0  0
   -1.2167   -2.2125   41.0194 H   0  0  0  0  0  0  0  0  0  0  0  0
  3  2  1  0  0  0
  4  3  1  0  0  0
  3  6  1  0  0  0
 10  4  1  0  0  0
  5  4  1  0  0  0
  7  6  1  0  0  0
  8  7  1  0  0  0
  7 14  1  0  0  0
 14 15  1  0  0  0
  9  8  1  0  0  0
 10  8  1  0  0  0
  1 10  1  0  0  0
 17  1  1  0  0  0
 18 17  1  0  0  0
 24 17  1  0  0  0
 20 18  1  0  0  0
 19 18  1  0  0  0
 21 20  1  0  0  0
 20 22  1  0  0  0
 23 22  1  0  0  0
 22 25  1  0  0  0
 25 24  1  0  0  0
 25 29  1  0  0  0
 29 30  1  0  0  0
  2 11  1  0  0  0
  5 12  1  0  0  0
 15 16  1  0  0  0
  9 13  1  0  0  0
 19 26  1  0  0  0
 21 27  1  0  0  0
 23 28  1  0  0  0
 30 31  1  0  0  0
M  END
> <minimizedAffinity>
-7.92954

$$$$
3F5L_LB2_A_1000


 31 32  0  0  0  0  0  0  0  0999 V2000
    1.6418    1.3034   39.8120 O   0  0  0  0  0  0  0  0  0  0  0  0
    2.4894   -3.0423   38.0039 O   0  0  0  0  0  0  0  0  0  0  0  0
    2.3590   -1.6640   37.6474 C   0  0  0  0  0  0  0  0  0  0  0  0
    1.9224   -0.8696   38.8733 C   0  0  0  0  0  0  0  0  0  0  0  0
    0.7011   -1.4104   39.3781 O   0  0  0  0  0  0  0  0  0  0  0  0
    3.6242   -1.1692   37.2230 O   0  0  0  0  0  0  0  0  0  0  0  0
    3.5275    0.1797   36.7622 C   0  0  0  0  0  0  0  0  0  0  0  0
    3.0569    1.0994   37.8916 C   0  0  0  0  0  0  0  0  0  0  0  0
    2.8303    2.4122   37.3708 O   0  0  0  0  0  0  0  0  0  0  0  0
    1.7773    0.6127   38.5649 C   0  0  0  0  0  0  0  0  0  0  0  0
    1.6292   -3.3841   38.2939 H   0  0  0  0  0  0  0  0  0  0  0  0
    0.0098   -1.3340   38.7020 H   0  0  0  0  0  0  0  0  0  0  0  0
    2.1265    2.3786   36.7040 H   0  0  0  0  0  0  0  0  0  0  0  0
    4.8890    0.6093   36.2196 C   0  0  0  0  0  0  0  0  0  0  0  0
    5.5936    1.3742   37.2095 O   0  0  0  0  0  0  0  0  0  0  0  0
    5.0791    2.1654   37.4333 H   0  0  0  0  0  0  0  0  0  0  0  0
    2.5517    0.9018   40.8818 C   0  0  0  0  0  0  0  0  0  0  0  0
    3.9268    1.5284   40.9846 C   0  0  0  0  0  0  0  0  0  0  0  0
    5.0550    0.9667   40.2622 O   0  0  0  0  0  0  0  0  0  0  0  0
    4.2816    1.6347   42.4536 C   0  0  0  0  0  0  0  0  0  0  0  0
    5.1151    2.7872   42.5707 O   0  0  0  0  0  0  0  0  0  0  0  0
    2.9677    1.7971   43.2198 C   0  0  0  0  0  0  0  0  0  0  0  0
    3.2181    2.2945   44.5456 O   0  0  0  0  0  0  0  0  0  0  0  0
    2.0884   -0.0373   41.8967 O   0  0  0  0  0  0  0  0  0  0  0  0
    2.2490    0.4477   43.2391 C   0  0  0  0  0  0  0  0  0  0  0  0
    5.2814    0.1018   40.6383 H   0  0  0  0  0  0  0  0  0  0  0  0
    4.6491    3.5607   42.2165 H   0  0  0  0  0  0  0  0  0  0  0  0
    3.7876    1.6708   45.0227 H   0  0  0  0  0  0  0  0  0  0  0  0
    0.8944    0.4702   43.9530 C   0  0  0  0  0  0  0  0  0  0  0  0
    1.0472    0.5921   45.3772 O   0  0  0  0  0  0  0  0  0  0  0  0
    1.5431   -0.1698   45.7156 H   0  0  0  0  0  0  0  0  0  0  0  0
  3  2  1  0  0  0
  4  3  1  0  0  0
  3  6  1  0  0  0
 10  4  1  0  0  0
  5  4  1  0  0  0
  7  6  1  0  0  0
  8  7  1  0  0  0
  7 14  1  0  0  0
 14 15  1  0  0  0
  9  8  1  0  0  0
 10  8  1  0  0  0
  1 10  1  0  0  0
 17  1  1  0  0  0
 18 17  1  0  0  0
 24 17  1  0  0  0
 20 18  1  0  0  0
 19 18  1  0  0  0
 21 20  1  0  0  0
 20 22  1  0  0  0
 23 22  1  0  0  0
 22 25  1  0  0  0
 25 24  1  0  0  0
 25 29  1  0  0  0
 29 30  1  0  0  0
  2 11  1  0  0  0
  5 12  1  0  0  0
 15 16  1  0  0  0
  9 13  1  0  0  0
 19 26  1  0  0  0
 21 27  1  0  0  0
 23 28  1  0  0  0
 30 31  1  0  0  0
M  END
> <minimizedAffinity>
-7.85678

$$$$
3F5L_LB2_A_1000


 31 32  0  0  0  0  0  0  0  0999 V2000
    2.5011   -1.1719   38.5393 O   0  0  0  0  0  0  0  0  0  0  0  0
    0.0900   -1.1809   42.6696 O   0  0  0  0  0  0  0  0  0  0  0  0
    0.0691   -0.6620   41.3376 C   0  0  0  0  0  0  0  0  0  0  0  0
    1.3634   -1.0481   40.6302 C   0  0  0  0  0  0  0  0  0  0  0  0
    2.4766   -0.5586   41.3785 O   0  0  0  0  0  0  0  0  0  0  0  0
   -1.0181   -1.2435   40.6264 O   0  0  0  0  0  0  0  0  0  0  0  0
   -1.1424   -0.6841   39.3177 C   0  0  0  0  0  0  0  0  0  0  0  0
    0.1164   -0.9641   38.4934 C   0  0  0  0  0  0  0  0  0  0  0  0
    0.0280   -0.2742   37.2434 O   0  0  0  0  0  0  0  0  0  0  0  0
    1.4000   -0.5364   39.1984 C   0  0  0  0  0  0  0  0  0  0  0  0
    0.8297   -0.7873   43.1583 H   0  0  0  0  0  0  0  0  0  0  0  0
    2.4322    0.4091   41.4284 H   0  0  0  0  0  0  0  0  0  0  0  0
   -0.0141    0.6815   37.4038 H   0  0  0  0  0  0  0  0  0  0  0  0
   -2.3886   -1.2666   38.6539 C   0  0  0  0  0  0  0  0  0  0  0  0
   -2.0176   -2.0282   37.4947 O   0  0  0  0  0  0  0  0  0  0  0  0
   -1.5627   -1.4517   36.8610 H   0  0  0  0  0  0  0  0  0  0  0  0
    3.5637   -0.2955   38.0530 C   0  0  0  0  0  0  0  0  0  0  0  0
    3.6920   -0.0069   36.5716 C   0  0  0  0  0  0  0  0  0  0  0  0
    4.4688   -0.8805   35.7093 O   0  0  0  0  0  0  0  0  0  0  0  0
    4.1902    1.4152   36.4156 C   0  0  0  0  0  0  0  0  0  0  0  0
    3.6335    1.8908   35.1906 O   0  0  0  0  0  0  0  0  0  0  0  0
    3.6778    2.2030   37.6224 C   0  0  0  0  0  0  0  0  0  0  0  0
    3.7578    3.6164   37.3698 O   0  0  0  0  0  0  0  0  0  0  0  0
    4.4378    0.3664   39.0145 O   0  0  0  0  0  0  0  0  0  0  0  0
    4.4921    1.7922   38.8495 C   0  0  0  0  0  0  0  0  0  0  0  0
    5.4091   -0.8049   35.9350 H   0  0  0  0  0  0  0  0  0  0  0  0
    2.6675    1.8082   35.2209 H   0  0  0  0  0  0  0  0  0  0  0  0
    4.6805    3.8627   37.1997 H   0  0  0  0  0  0  0  0  0  0  0  0
    4.0637    2.4857   40.1459 C   0  0  0  0  0  0  0  0  0  0  0  0
    4.3195    1.6636   41.2970 O   0  0  0  0  0  0  0  0  0  0  0  0
    3.8124    0.8398   41.2251 H   0  0  0  0  0  0  0  0  0  0  0  0
  3  2  1  0  0  0
  4  3  1  0  0  0
  3  6  1  0  0  0
 10  4  1  0  0  0
  5  4  1  0  0  0
  7  6  1  0  0  0
  8  7  1  0  0  0
  7 14  1  0  0  0
 14 15  1  0  0  0
  9  8  1  0  0  0
 10  8  1  0  0  0
  1 10  1  0  0  0
 17  1  1  0  0  0
 18 17  1  0  0  0
 24 17  1  0  0  0
 20 18  1  0  0  0
 19 18  1  0  0  0
 21 20  1  0  0  0
 20 22  1  0  0  0
 23 22  1  0  0  0
 22 25  1  0  0  0
 25 24  1  0  0  0
 25 29  1  0  0  0
 29 30  1  0  0  0
  2 11  1  0  0  0
  5 12  1  0  0  0
 15 16  1  0  0  0
  9 13  1  0  0  0
 19 26  1  0  0  0
 21 27  1  0  0  0
 23 28  1  0  0  0
 30 31  1  0  0  0
M  END
> <minimizedAffinity>
-7.71868

$$$$
3F5L_LB2_A_1000


 31 32  0  0  0  0  0  0  0  0999 V2000
    3.9131   -0.5807   40.2528 O   0  0  0  0  0  0  0  0  0  0  0  0
    6.6507    2.6339   42.4989 O   0  0  0  0  0  0  0  0  0  0  0  0
    5.3085    2.1526   42.3945 C   0  0  0  0  0  0  0  0  0  0  0  0
    5.2329    1.1213   41.2741 C   0  0  0  0  0  0  0  0  0  0  0  0
    5.6869    1.7112   40.0556 O   0  0  0  0  0  0  0  0  0  0  0  0
    4.9447    1.5141   43.6134 O   0  0  0  0  0  0  0  0  0  0  0  0
    3.5773    1.1007   43.5963 C   0  0  0  0  0  0  0  0  0  0  0  0
    3.3402    0.0787   42.4818 C   0  0  0  0  0  0  0  0  0  0  0  0
    1.9420   -0.2098   42.3925 O   0  0  0  0  0  0  0  0  0  0  0  0
    3.8291    0.5571   41.1182 C   0  0  0  0  0  0  0  0  0  0  0  0
    6.9032    3.0700   41.6701 H   0  0  0  0  0  0  0  0  0  0  0  0
    5.1121    2.4574   39.8238 H   0  0  0  0  0  0  0  0  0  0  0  0
    1.4592    0.5987   42.1600 H   0  0  0  0  0  0  0  0  0  0  0  0
    3.2230    0.5279   44.9672 C   0  0  0  0  0  0  0  0  0  0  0  0
    4.1868    0.9546   45.9421 O   0  0  0  0  0  0  0  0  0  0  0  0
    5.0674    0.6387   45.6860 H   0  0  0  0  0  0  0  0  0  0  0  0
    3.2463   -0.4659   38.9583 C   0  0  0  0  0  0  0  0  0  0  0  0
    1.8315    0.0688   38.8773 C   0  0  0  0  0  0  0  0  0  0  0  0
    0.6920   -0.8215   39.0152 O   0  0  0  0  0  0  0  0  0  0  0  0
    1.7005    0.8457   37.5834 C   0  0  0  0  0  0  0  0  0  0  0  0
    0.7453    1.8742   37.8415 O   0  0  0  0  0  0  0  0  0  0  0  0
    3.0833    1.4149   37.2622 C   0  0  0  0  0  0  0  0  0  0  0  0
    2.9782    2.4718   36.2927 O   0  0  0  0  0  0  0  0  0  0  0  0
    3.9877   -0.7848   37.7436 O   0  0  0  0  0  0  0  0  0  0  0  0
    3.9747    0.2733   36.7724 C   0  0  0  0  0  0  0  0  0  0  0  0
    0.6483   -1.4121   38.2470 H   0  0  0  0  0  0  0  0  0  0  0  0
    1.0392    2.4061   38.5975 H   0  0  0  0  0  0  0  0  0  0  0  0
    2.5817    2.1250   35.4781 H   0  0  0  0  0  0  0  0  0  0  0  0
    5.4084    0.6968   36.4406 C   0  0  0  0  0  0  0  0  0  0  0  0
    5.8669    1.7451   37.3108 O   0  0  0  0  0  0  0  0  0  0  0  0
    5.2999    2.5249   37.2042 H   0  0  0  0  0  0  0  0  0  0  0  0
  3  2  1  0  0  0
  4  3  1  0  0  0
  3  6  1  0  0  0
 10  4  1  0  0  0
  5  4  1  0  0  0
  7  6  1  0  0  0
  8  7  1  0  0  0
  7 14  1  0  0  0
 14 15  1  0  0  0
  9  8  1  0  0  0
 10  8  1  0  0  0
  1 10  1  0  0  0
 17  1  1  0  0  0
 18 17  1  0  0  0
 24 17  1  0  0  0
 20 18  1  0  0  0
 19 18  1  0  0  0
 21 20  1  0  0  0
 20 22  1  0  0  0
 23 22  1  0  0  0
 22 25  1  0  0  0
 25 24  1  0  0  0
 25 29  1  0  0  0
 29 30  1  0  0  0
  2 11  1  0  0  0
  5 12  1  0  0  0
 15 16  1  0  0  0
  9 13  1  0  0  0
 19 26  1  0  0  0
 21 27  1  0  0  0
 23 28  1  0  0  0
 30 31  1  0  0  0
M  END
> <minimizedAffinity>
-7.52440

$$$$
