3F5L_LB2_A_1000
  RCSB PDB12061708333D
Coordinates from PDB:3F5L:A:1000 Model:1 without hydrogens
 23 24  0  0  0  0            999 V2000
    5.6100    2.2490   42.7050   O 0  0  0  0  0  0  0  0  0  0  0  0
    4.7580    2.2460   41.5570   C 0  0  0  0  0  0  0  0  0  0  0  0
    5.5070    1.6310   40.3800   C 0  0  0  0  0  0  0  0  0  0  0  0
    6.7120    2.3620   40.1510   O 0  0  0  0  0  0  0  0  0  0  0  0
    3.6140    1.4430   41.8260   O 0  0  0  0  0  0  0  0  0  0  0  0
    2.6820    1.4860   40.7440   C 0  0  0  0  0  0  0  0  0  0  0  0
    1.4350    0.6990   41.1420   C 0  0  0  0  0  0  0  0  0  0  0  0
    1.8120   -0.5610   41.7180   O 0  0  0  0  0  0  0  0  0  0  0  0
    3.3160    0.9270   39.4680   C 0  0  0  0  0  0  0  0  0  0  0  0
    2.4170    1.1130   38.3710   O 0  0  0  0  0  0  0  0  0  0  0  0
    4.6490    1.5850   39.1250   C 0  0  0  0  0  0  0  0  0  0  0  0
    5.3210    0.7550   38.1710   O 0  0  0  0  0  0  0  0  0  0  0  0
    5.5420    1.3310   36.8470   C 0  0  0  0  0  0  0  0  0  0  0  0
    5.9900    0.4490   35.7000   C 0  0  0  0  0  0  0  0  0  0  0  0
    7.4010    0.1970   35.4640   O 0  0  0  0  0  0  0  0  0  0  0  0
    5.3620    0.9830   34.4290   C 0  0  0  0  0  0  0  0  0  0  0  0
    5.1660   -0.1510   33.5850   O 0  0  0  0  0  0  0  0  0  0  0  0
    4.0380    1.6380   34.8260   C 0  0  0  0  0  0  0  0  0  0  0  0
    3.2000    1.8160   33.6710   O 0  0  0  0  0  0  0  0  0  0  0  0
    5.2400    2.7400   36.6230   O 0  0  0  0  0  0  0  0  0  0  0  0
    4.3440    2.9640   35.5230   C 0  0  0  0  0  0  0  0  0  0  0  0
    3.1020    3.7190   36.0050   C 0  0  0  0  0  0  0  0  0  0  0  0
    2.2160    2.8640   36.7470   O 0  0  0  0  0  0  0  0  0  0  0  0
  2  1  1  0  0  0  0
  3  2  1  0  0  0  0
  2  5  1  0  0  0  0
 11  3  1  0  0  0  0
  4  3  1  0  0  0  0
  6  5  1  0  0  0  0
  9  6  1  0  0  0  0
  6  7  1  0  0  0  0
  7  8  1  0  0  0  0
 10  9  1  0  0  0  0
 11  9  1  0  0  0  0
 12 11  1  0  0  0  0
 13 12  1  0  0  0  0
 14 13  1  0  0  0  0
 20 13  1  0  0  0  0
 16 14  1  0  0  0  0
 15 14  1  0  0  0  0
 17 16  1  0  0  0  0
 16 18  1  0  0  0  0
 19 18  1  0  0  0  0
 18 21  1  0  0  0  0
 21 20  1  0  0  0  0
 21 22  1  0  0  0  0
 22 23  1  0  0  0  0
A    1
O1D
A    2
C1D
A    3
C2D
A    4
O2D
A    5
O5D
A    6
C5D
A    7
C6D
A    8
O6D
A    9
C4D
A   10
O4D
A   11
C3D
A   12
O3D
A   13
C1E
A   14
C2E
A   15
O2E
A   16
C3E
A   17
O3E
A   18
C4E
A   19
O4E
A   20
O5E
A   21
C5E
A   22
C6E
A   23
O6E
M  END
>  <InstanceId>
3F5L_LB2_A_1000

>  <ChemCompId>
LB2

>  <PdbId>
3F5L

>  <ChainId>
A

>  <ResidueNumber>
1000

>  <InsertionCode>


>  <Model>
1

>  <AltIds>


>  <MissingHeavyAtoms>
0

>  <ObservedFormula>
C12 O11

>  <Name>
3-O-beta-D-glucopyranosyl-beta-D-glucopyranose

>  <SystematicName>
(2R,3R,4S,5R,6R)-6-(hydroxymethyl)-4-[(3R,4S,5S,6R)-3,4,5-trihydroxy-6-(hydroxymethyl)oxan-2-yl]oxy-oxane-2,3,5-triol

>  <Synonyms>
Laminaribiose

>  <Type>
D-saccharide

>  <Formula>
C12 H22 O11

>  <MolecularWeight>
342.296

>  <ModifiedDate>
2011-06-04

>  <Parent>


>  <OneLetterCode>


>  <SubcomponentList>


>  <AmbiguousFlag>
N

>  <InChI>
InChI=1S/C12H22O11/c13-1-3-5(15)7(17)8(18)12(22-3)23-10-6(16)4(2-14)21-11(20)9(10)19/h3-20H,1-2H2/t3-,4-,5-,6-,7+,8-,9-,10+,11-,12+/m1/s1

>  <InChIKey>
QIGJYVCQYDKYDW-CSOAUFAESA-N

>  <SMILES>
C([C@@H]1[C@H]([C@@H]([C@H]([C@@H](O1)O)O)OC2[C@@H]([C@H]([C@@H]([C@H](O2)CO)O)O)O)O)O

$$$$
