3B7R_BIR_L_1001


 34 35  0  0  0  0  0  0  0  0999 V2000
   33.0706   13.8536    4.7644 C   0  0  0  0  0  0  0  0  0  0  0  0
   33.0662   15.3524    4.6380 C   0  0  0  0  0  0  0  0  0  0  0  0
   32.3568   15.8802    3.8086 O   0  0  0  0  0  0  0  0  0  0  0  0
   33.5515   16.0572    5.7054 N   0  0  0  0  0  0  0  0  0  0  0  0
   33.9920   15.5701    6.4388 H   0  0  0  0  0  0  0  0  0  0  0  0
   33.4382   17.4774    5.7875 C   0  0  0  0  0  0  0  0  0  0  0  0
   33.3681   17.9203    7.2430 C   0  0  0  0  0  0  0  0  0  0  0  0
   34.6962   18.1318    5.1349 C   0  0  0  0  0  0  0  0  0  0  0  0
   34.6198   18.1387    3.8031 O   0  0  0  0  0  0  0  0  0  0  0  0
   35.6581   18.5974    5.7414 O   0  0  0  0  0  0  0  0  0  0  0  0
   33.8702   17.7743    3.3749 H   0  0  0  0  0  0  0  0  0  0  0  0
   33.5918   13.5744    6.1595 C   0  0  0  0  0  0  0  0  0  0  0  0
   35.1850   12.7040    6.2838 P   0  0  0  0  0  0  0  0  0  0  0  0
   36.0391   12.5552    5.0093 O   0  0  0  0  0  0  0  0  0  0  0  0
   36.0023   13.4792    7.3843 O   0  0  0  0  0  0  0  0  0  0  0  0
   36.8695   13.0600    7.4983 H   0  0  0  0  0  0  0  0  0  0  0  0
   33.4334   10.5441    6.8619 C   0  0  0  0  0  0  0  0  0  0  0  0
   34.8838   11.0427    7.0739 C   0  0  0  0  0  0  0  0  0  0  0  0
   35.2257   11.1429    8.4754 N   0  0  0  0  0  0  0  0  0  0  0  0
   34.6333   11.8439    8.9206 H   0  0  0  0  0  0  0  0  0  0  0  0
   36.2040   11.4162    8.5680 H   0  0  0  0  0  0  0  0  0  0  0  0
   31.6397   13.3764    4.4737 C   0  0  0  0  0  0  0  0  0  0  0  0
   31.5604   12.4613    3.2695 C   0  0  0  0  0  0  0  0  0  0  0  0
   30.5449   12.5978    2.2998 C   0  0  0  0  0  0  0  0  0  0  0  0
   30.5413   11.9015    1.0923 C   0  0  0  0  0  0  0  0  0  0  0  0
   31.5581   10.9674    0.8676 C   0  0  0  0  0  0  0  0  0  0  0  0
   32.5892   10.8786    1.7965 C   0  0  0  0  0  0  0  0  0  0  0  0
   32.5984   11.5959    2.9947 C   0  0  0  0  0  0  0  0  0  0  0  0
   31.5749   10.2204   -0.4141 C   0  0  0  0  0  0  0  0  0  0  0  0
   32.7823    9.8290   -1.0238 C   0  0  0  0  0  0  0  0  0  0  0  0
   32.7639    9.1512   -2.2560 C   0  0  0  0  0  0  0  0  0  0  0  0
   31.5424    8.8763   -2.9285 C   0  0  0  0  0  0  0  0  0  0  0  0
   30.3389    9.2935   -2.3241 C   0  0  0  0  0  0  0  0  0  0  0  0
   30.3475    9.9934   -1.1136 C   0  0  0  0  0  0  0  0  0  0  0  0
 17 18  1  0  0  0
 18 19  1  0  0  0
 18 13  1  0  0  0
 13 14  2  0  0  0
 13 15  1  0  0  0
 13 12  1  0  0  0
 12  1  1  0  0  0
  1  2  1  0  0  0
  1 22  1  0  0  0
  2  3  2  0  0  0
  2  4  1  0  0  0
  4  6  1  0  0  0
  6  7  1  0  0  0
  6  8  1  0  0  0
  8  9  1  0  0  0
  8 10  2  0  0  0
 22 23  1  0  0  0
 23 24  2  0  0  0
 23 28  1  0  0  0
 24 25  1  0  0  0
 25 26  2  0  0  0
 26 27  1  0  0  0
 26 29  1  0  0  0
 27 28  2  0  0  0
 29 30  2  0  0  0
 29 34  1  0  0  0
 30 31  1  0  0  0
 31 32  2  0  0  0
 32 33  1  0  0  0
 33 34  2  0  0  0
 19 20  1  0  0  0
 19 21  1  0  0  0
 15 16  1  0  0  0
  4  5  1  0  0  0
  9 11  1  0  0  0
M  END
> <minimizedAffinity>
-9.44434

$$$$
3B7R_BIR_L_1001


 34 35  0  0  0  0  0  0  0  0999 V2000
   34.3093    9.7896    3.1869 C   0  0  0  0  0  0  0  0  0  0  0  0
   34.8878   10.6110    4.3063 C   0  0  0  0  0  0  0  0  0  0  0  0
   36.0799   10.8295    4.3330 O   0  0  0  0  0  0  0  0  0  0  0  0
   34.0100   11.3893    5.0100 N   0  0  0  0  0  0  0  0  0  0  0  0
   33.0444   11.2865    4.8476 H   0  0  0  0  0  0  0  0  0  0  0  0
   34.4521   12.3457    5.9725 C   0  0  0  0  0  0  0  0  0  0  0  0
   33.3062   13.2671    6.3692 C   0  0  0  0  0  0  0  0  0  0  0  0
   34.9462   11.5979    7.2505 C   0  0  0  0  0  0  0  0  0  0  0  0
   36.2770   11.5951    7.3427 O   0  0  0  0  0  0  0  0  0  0  0  0
   34.2268   11.0665    8.0932 O   0  0  0  0  0  0  0  0  0  0  0  0
   36.7934   12.0107    6.6805 H   0  0  0  0  0  0  0  0  0  0  0  0
   35.2396    8.6022    3.0439 C   0  0  0  0  0  0  0  0  0  0  0  0
   35.8212    8.2101    1.3647 P   0  0  0  0  0  0  0  0  0  0  0  0
   36.2517    9.3730    0.4492 O   0  0  0  0  0  0  0  0  0  0  0  0
   37.0242    7.2126    1.5593 O   0  0  0  0  0  0  0  0  0  0  0  0
   37.3811    6.9636    0.6924 H   0  0  0  0  0  0  0  0  0  0  0  0
   33.5787    7.9885   -0.3644 C   0  0  0  0  0  0  0  0  0  0  0  0
   34.5299    7.1562    0.5297 C   0  0  0  0  0  0  0  0  0  0  0  0
   33.8154    6.4261    1.5531 N   0  0  0  0  0  0  0  0  0  0  0  0
   33.3603    7.0844    2.1855 H   0  0  0  0  0  0  0  0  0  0  0  0
   34.4709    5.8476    2.0785 H   0  0  0  0  0  0  0  0  0  0  0  0
   32.8590    9.4641    3.5749 C   0  0  0  0  0  0  0  0  0  0  0  0
   31.8609    9.8824    2.5154 C   0  0  0  0  0  0  0  0  0  0  0  0
   32.2193   10.7445    1.4578 C   0  0  0  0  0  0  0  0  0  0  0  0
   31.3893   11.0062    0.3690 C   0  0  0  0  0  0  0  0  0  0  0  0
   30.1093   10.4419    0.3660 C   0  0  0  0  0  0  0  0  0  0  0  0
   29.7811    9.5459    1.3776 C   0  0  0  0  0  0  0  0  0  0  0  0
   30.6265    9.2705    2.4546 C   0  0  0  0  0  0  0  0  0  0  0  0
   29.2130   10.7039   -0.7869 C   0  0  0  0  0  0  0  0  0  0  0  0
   29.1374    9.8177   -1.8785 C   0  0  0  0  0  0  0  0  0  0  0  0
   28.3023   10.1127   -2.9710 C   0  0  0  0  0  0  0  0  0  0  0  0
   27.5470   11.3157   -3.0183 C   0  0  0  0  0  0  0  0  0  0  0  0
   27.6471   12.2101   -1.9330 C   0  0  0  0  0  0  0  0  0  0  0  0
   28.4962   11.9403   -0.8554 C   0  0  0  0  0  0  0  0  0  0  0  0
 17 18  1  0  0  0
 18 19  1  0  0  0
 18 13  1  0  0  0
 13 14  2  0  0  0
 13 15  1  0  0  0
 13 12  1  0  0  0
 12  1  1  0  0  0
  1  2  1  0  0  0
  1 22  1  0  0  0
  2  3  2  0  0  0
  2  4  1  0  0  0
  4  6  1  0  0  0
  6  7  1  0  0  0
  6  8  1  0  0  0
  8  9  1  0  0  0
  8 10  2  0  0  0
 22 23  1  0  0  0
 23 24  2  0  0  0
 23 28  1  0  0  0
 24 25  1  0  0  0
 25 26  2  0  0  0
 26 27  1  0  0  0
 26 29  1  0  0  0
 27 28  2  0  0  0
 29 30  2  0  0  0
 29 34  1  0  0  0
 30 31  1  0  0  0
 31 32  2  0  0  0
 32 33  1  0  0  0
 33 34  2  0  0  0
 19 20  1  0  0  0
 19 21  1  0  0  0
 15 16  1  0  0  0
  4  5  1  0  0  0
  9 11  1  0  0  0
M  END
> <minimizedAffinity>
-9.30231

$$$$
3B7R_BIR_L_1001


 34 35  0  0  0  0  0  0  0  0999 V2000
   33.5922   12.9565    5.2499 C   0  0  0  0  0  0  0  0  0  0  0  0
   34.1331   14.3399    5.4869 C   0  0  0  0  0  0  0  0  0  0  0  0
   34.0825   15.1619    4.5973 O   0  0  0  0  0  0  0  0  0  0  0  0
   34.2924   14.7185    6.7918 N   0  0  0  0  0  0  0  0  0  0  0  0
   34.1746   14.0467    7.5018 H   0  0  0  0  0  0  0  0  0  0  0  0
   34.6241   16.0582    7.1546 C   0  0  0  0  0  0  0  0  0  0  0  0
   33.3622   16.8483    7.4758 C   0  0  0  0  0  0  0  0  0  0  0  0
   35.5278   16.0372    8.4272 C   0  0  0  0  0  0  0  0  0  0  0  0
   35.7048   14.7995    8.8920 O   0  0  0  0  0  0  0  0  0  0  0  0
   36.0347   17.0202    8.9627 O   0  0  0  0  0  0  0  0  0  0  0  0
   35.3023   14.0736    8.4571 H   0  0  0  0  0  0  0  0  0  0  0  0
   33.6694   12.2642    6.5955 C   0  0  0  0  0  0  0  0  0  0  0  0
   35.2680   11.5221    7.0485 P   0  0  0  0  0  0  0  0  0  0  0  0
   36.3817   12.4483    7.5756 O   0  0  0  0  0  0  0  0  0  0  0  0
   34.9314   10.4267    8.1287 O   0  0  0  0  0  0  0  0  0  0  0  0
   35.7499    9.9908    8.4132 H   0  0  0  0  0  0  0  0  0  0  0  0
   35.0079    9.2583    5.3528 C   0  0  0  0  0  0  0  0  0  0  0  0
   35.8764   10.5155    5.6022 C   0  0  0  0  0  0  0  0  0  0  0  0
   37.2632   10.1810    5.8390 N   0  0  0  0  0  0  0  0  0  0  0  0
   37.3386    9.6291    6.6935 H   0  0  0  0  0  0  0  0  0  0  0  0
   37.8073   11.0380    5.9386 H   0  0  0  0  0  0  0  0  0  0  0  0
   32.1838   13.1225    4.6595 C   0  0  0  0  0  0  0  0  0  0  0  0
   31.9691   12.2900    3.4126 C   0  0  0  0  0  0  0  0  0  0  0  0
   30.9224   12.5655    2.5079 C   0  0  0  0  0  0  0  0  0  0  0  0
   30.8013   11.9449    1.2657 C   0  0  0  0  0  0  0  0  0  0  0  0
   31.7239   10.9466    0.9355 C   0  0  0  0  0  0  0  0  0  0  0  0
   32.7882   10.7197    1.8013 C   0  0  0  0  0  0  0  0  0  0  0  0
   32.9163   11.3614    3.0351 C   0  0  0  0  0  0  0  0  0  0  0  0
   31.6153   10.2783   -0.3846 C   0  0  0  0  0  0  0  0  0  0  0  0
   30.3658   10.0264   -0.9830 C   0  0  0  0  0  0  0  0  0  0  0  0
   30.2968    9.3607   -2.2200 C   0  0  0  0  0  0  0  0  0  0  0  0
   31.4701    8.8989   -2.8757 C   0  0  0  0  0  0  0  0  0  0  0  0
   32.7159    9.1325   -2.2582 C   0  0  0  0  0  0  0  0  0  0  0  0
   32.7939    9.7677   -1.0150 C   0  0  0  0  0  0  0  0  0  0  0  0
 17 18  1  0  0  0
 18 19  1  0  0  0
 18 13  1  0  0  0
 13 14  2  0  0  0
 13 15  1  0  0  0
 13 12  1  0  0  0
 12  1  1  0  0  0
  1  2  1  0  0  0
  1 22  1  0  0  0
  2  3  2  0  0  0
  2  4  1  0  0  0
  4  6  1  0  0  0
  6  7  1  0  0  0
  6  8  1  0  0  0
  8  9  1  0  0  0
  8 10  2  0  0  0
 22 23  1  0  0  0
 23 24  2  0  0  0
 23 28  1  0  0  0
 24 25  1  0  0  0
 25 26  2  0  0  0
 26 27  1  0  0  0
 26 29  1  0  0  0
 27 28  2  0  0  0
 29 30  2  0  0  0
 29 34  1  0  0  0
 30 31  1  0  0  0
 31 32  2  0  0  0
 32 33  1  0  0  0
 33 34  2  0  0  0
 19 20  1  0  0  0
 19 21  1  0  0  0
 15 16  1  0  0  0
  4  5  1  0  0  0
  9 11  1  0  0  0
M  END
> <minimizedAffinity>
-9.29856

$$$$
3B7R_BIR_L_1001


 34 35  0  0  0  0  0  0  0  0999 V2000
   33.4997   13.1740    5.3077 C   0  0  0  0  0  0  0  0  0  0  0  0
   33.9140   14.5756    5.6633 C   0  0  0  0  0  0  0  0  0  0  0  0
   33.6993   14.9972    6.7794 O   0  0  0  0  0  0  0  0  0  0  0  0
   34.8488   15.1606    4.8537 N   0  0  0  0  0  0  0  0  0  0  0  0
   35.1101   14.7063    4.0203 H   0  0  0  0  0  0  0  0  0  0  0  0
   35.4565   16.4096    5.1813 C   0  0  0  0  0  0  0  0  0  0  0  0
   36.8766   16.4677    4.6340 C   0  0  0  0  0  0  0  0  0  0  0  0
   34.6329   17.5670    4.5344 C   0  0  0  0  0  0  0  0  0  0  0  0
   33.5289   17.8423    5.2307 O   0  0  0  0  0  0  0  0  0  0  0  0
   34.9344   18.1761    3.5106 O   0  0  0  0  0  0  0  0  0  0  0  0
   33.3313   17.3565    6.0072 H   0  0  0  0  0  0  0  0  0  0  0  0
   33.5930   12.3919    6.6020 C   0  0  0  0  0  0  0  0  0  0  0  0
   35.2251   11.7163    7.0394 P   0  0  0  0  0  0  0  0  0  0  0  0
   36.3367   12.6998    7.4554 O   0  0  0  0  0  0  0  0  0  0  0  0
   34.9569   10.6924    8.2055 O   0  0  0  0  0  0  0  0  0  0  0  0
   35.7959   10.2943    8.4856 H   0  0  0  0  0  0  0  0  0  0  0  0
   34.9195    9.3600    5.4831 C   0  0  0  0  0  0  0  0  0  0  0  0
   35.7995   10.6239    5.6423 C   0  0  0  0  0  0  0  0  0  0  0  0
   37.1888   10.2948    5.8712 N   0  0  0  0  0  0  0  0  0  0  0  0
   37.2782    9.7927    6.7545 H   0  0  0  0  0  0  0  0  0  0  0  0
   37.7394   11.1525    5.9104 H   0  0  0  0  0  0  0  0  0  0  0  0
   32.1016   13.2675    4.6783 C   0  0  0  0  0  0  0  0  0  0  0  0
   31.9555   12.4023    3.4438 C   0  0  0  0  0  0  0  0  0  0  0  0
   30.8213   12.4863    2.6091 C   0  0  0  0  0  0  0  0  0  0  0  0
   30.7307   11.8460    1.3744 C   0  0  0  0  0  0  0  0  0  0  0  0
   31.7896   11.0207    0.9812 C   0  0  0  0  0  0  0  0  0  0  0  0
   32.9301   10.9873    1.7761 C   0  0  0  0  0  0  0  0  0  0  0  0
   33.0233   11.6495    3.0022 C   0  0  0  0  0  0  0  0  0  0  0  0
   31.7146   10.3351   -0.3324 C   0  0  0  0  0  0  0  0  0  0  0  0
   30.4793   10.0307   -0.9358 C   0  0  0  0  0  0  0  0  0  0  0  0
   30.4432    9.3500   -2.1661 C   0  0  0  0  0  0  0  0  0  0  0  0
   31.6372    8.9254   -2.8095 C   0  0  0  0  0  0  0  0  0  0  0  0
   32.8693    9.2118   -2.1869 C   0  0  0  0  0  0  0  0  0  0  0  0
   32.9154    9.8622   -0.9500 C   0  0  0  0  0  0  0  0  0  0  0  0
 17 18  1  0  0  0
 18 19  1  0  0  0
 18 13  1  0  0  0
 13 14  2  0  0  0
 13 15  1  0  0  0
 13 12  1  0  0  0
 12  1  1  0  0  0
  1  2  1  0  0  0
  1 22  1  0  0  0
  2  3  2  0  0  0
  2  4  1  0  0  0
  4  6  1  0  0  0
  6  7  1  0  0  0
  6  8  1  0  0  0
  8  9  1  0  0  0
  8 10  2  0  0  0
 22 23  1  0  0  0
 23 24  2  0  0  0
 23 28  1  0  0  0
 24 25  1  0  0  0
 25 26  2  0  0  0
 26 27  1  0  0  0
 26 29  1  0  0  0
 27 28  2  0  0  0
 29 30  2  0  0  0
 29 34  1  0  0  0
 30 31  1  0  0  0
 31 32  2  0  0  0
 32 33  1  0  0  0
 33 34  2  0  0  0
 19 20  1  0  0  0
 19 21  1  0  0  0
 15 16  1  0  0  0
  4  5  1  0  0  0
  9 11  1  0  0  0
M  END
> <minimizedAffinity>
-9.11352

$$$$
3B7R_BIR_L_1001


 34 35  0  0  0  0  0  0  0  0999 V2000
   35.2394    9.9957    3.4966 C   0  0  0  0  0  0  0  0  0  0  0  0
   35.8293    8.7364    2.9232 C   0  0  0  0  0  0  0  0  0  0  0  0
   36.9516    8.4045    3.2390 O   0  0  0  0  0  0  0  0  0  0  0  0
   34.9475    7.8346    2.3935 N   0  0  0  0  0  0  0  0  0  0  0  0
   34.0029    8.0931    2.2925 H   0  0  0  0  0  0  0  0  0  0  0  0
   35.3559    6.5303    1.9829 C   0  0  0  0  0  0  0  0  0  0  0  0
   34.9129    5.4904    3.0036 C   0  0  0  0  0  0  0  0  0  0  0  0
   34.6884    6.1902    0.6135 C   0  0  0  0  0  0  0  0  0  0  0  0
   35.2787    6.8259   -0.3999 O   0  0  0  0  0  0  0  0  0  0  0  0
   33.7356    5.4317    0.4492 O   0  0  0  0  0  0  0  0  0  0  0  0
   36.0033    7.3969   -0.2363 H   0  0  0  0  0  0  0  0  0  0  0  0
   36.0849   10.3117    4.7137 C   0  0  0  0  0  0  0  0  0  0  0  0
   35.3318   11.3731    5.9856 P   0  0  0  0  0  0  0  0  0  0  0  0
   36.2364   11.9332    7.1009 O   0  0  0  0  0  0  0  0  0  0  0  0
   34.6608   12.5605    5.1983 O   0  0  0  0  0  0  0  0  0  0  0  0
   34.2381   13.1669    5.8263 H   0  0  0  0  0  0  0  0  0  0  0  0
   32.5775   10.6858    5.8899 C   0  0  0  0  0  0  0  0  0  0  0  0
   33.8717   10.4698    6.7117 C   0  0  0  0  0  0  0  0  0  0  0  0
   33.7205   10.8918    8.0865 N   0  0  0  0  0  0  0  0  0  0  0  0
   33.5482   11.8967    8.1167 H   0  0  0  0  0  0  0  0  0  0  0  0
   34.5731   10.6774    8.6037 H   0  0  0  0  0  0  0  0  0  0  0  0
   35.2548   11.0467    2.3764 C   0  0  0  0  0  0  0  0  0  0  0  0
   34.0907   10.8998    1.4189 C   0  0  0  0  0  0  0  0  0  0  0  0
   34.2530   10.3398    0.1343 C   0  0  0  0  0  0  0  0  0  0  0  0
   33.1846   10.0203   -0.7019 C   0  0  0  0  0  0  0  0  0  0  0  0
   31.8927   10.3410   -0.2716 C   0  0  0  0  0  0  0  0  0  0  0  0
   31.7310   10.8365    1.0177 C   0  0  0  0  0  0  0  0  0  0  0  0
   32.8050   11.1336    1.8595 C   0  0  0  0  0  0  0  0  0  0  0  0
   30.7418   10.0036   -1.1449 C   0  0  0  0  0  0  0  0  0  0  0  0
   30.8796    9.1332   -2.2431 C   0  0  0  0  0  0  0  0  0  0  0  0
   29.7758    8.8606   -3.0709 C   0  0  0  0  0  0  0  0  0  0  0  0
   28.5145    9.4754   -2.8448 C   0  0  0  0  0  0  0  0  0  0  0  0
   28.3907   10.3652   -1.7582 C   0  0  0  0  0  0  0  0  0  0  0  0
   29.4889   10.6655   -0.9465 C   0  0  0  0  0  0  0  0  0  0  0  0
 17 18  1  0  0  0
 18 19  1  0  0  0
 18 13  1  0  0  0
 13 14  2  0  0  0
 13 15  1  0  0  0
 13 12  1  0  0  0
 12  1  1  0  0  0
  1  2  1  0  0  0
  1 22  1  0  0  0
  2  3  2  0  0  0
  2  4  1  0  0  0
  4  6  1  0  0  0
  6  7  1  0  0  0
  6  8  1  0  0  0
  8  9  1  0  0  0
  8 10  2  0  0  0
 22 23  1  0  0  0
 23 24  2  0  0  0
 23 28  1  0  0  0
 24 25  1  0  0  0
 25 26  2  0  0  0
 26 27  1  0  0  0
 26 29  1  0  0  0
 27 28  2  0  0  0
 29 30  2  0  0  0
 29 34  1  0  0  0
 30 31  1  0  0  0
 31 32  2  0  0  0
 32 33  1  0  0  0
 33 34  2  0  0  0
 19 20  1  0  0  0
 19 21  1  0  0  0
 15 16  1  0  0  0
  4  5  1  0  0  0
  9 11  1  0  0  0
M  END
> <minimizedAffinity>
-9.09224

$$$$
3B7R_BIR_L_1001


 34 35  0  0  0  0  0  0  0  0999 V2000
   34.1010   11.5379    5.4923 C   0  0  0  0  0  0  0  0  0  0  0  0
   34.2739   12.4938    6.6407 C   0  0  0  0  0  0  0  0  0  0  0  0
   34.2914   12.0678    7.7755 O   0  0  0  0  0  0  0  0  0  0  0  0
   34.7894   13.7246    6.3390 N   0  0  0  0  0  0  0  0  0  0  0  0
   34.9017   13.9767    5.3940 H   0  0  0  0  0  0  0  0  0  0  0  0
   35.1691   14.6539    7.3533 C   0  0  0  0  0  0  0  0  0  0  0  0
   36.2911   15.5545    6.8537 C   0  0  0  0  0  0  0  0  0  0  0  0
   33.9432   15.5504    7.7139 C   0  0  0  0  0  0  0  0  0  0  0  0
   33.9345   15.8866    9.0048 O   0  0  0  0  0  0  0  0  0  0  0  0
   33.0730   15.9236    6.9306 O   0  0  0  0  0  0  0  0  0  0  0  0
   34.6153   15.5831    9.5725 H   0  0  0  0  0  0  0  0  0  0  0  0
   35.1236   10.4451    5.7281 C   0  0  0  0  0  0  0  0  0  0  0  0
   36.5811   10.4331    4.6385 P   0  0  0  0  0  0  0  0  0  0  0  0
   36.9890   11.7491    3.9474 O   0  0  0  0  0  0  0  0  0  0  0  0
   37.7686    9.9108    5.5314 O   0  0  0  0  0  0  0  0  0  0  0  0
   38.5816    9.8813    5.0031 H   0  0  0  0  0  0  0  0  0  0  0  0
   35.1468    8.1668    3.7035 C   0  0  0  0  0  0  0  0  0  0  0  0
   36.3637    9.0697    3.3858 C   0  0  0  0  0  0  0  0  0  0  0  0
   37.5973    8.3181    3.3211 N   0  0  0  0  0  0  0  0  0  0  0  0
   37.7962    7.9117    4.2353 H   0  0  0  0  0  0  0  0  0  0  0  0
   38.3603    8.9393    3.0519 H   0  0  0  0  0  0  0  0  0  0  0  0
   32.6302   11.0944    5.4977 C   0  0  0  0  0  0  0  0  0  0  0  0
   32.0886   10.8438    4.1058 C   0  0  0  0  0  0  0  0  0  0  0  0
   32.3605   11.7210    3.0350 C   0  0  0  0  0  0  0  0  0  0  0  0
   32.0377   11.4340    1.7097 C   0  0  0  0  0  0  0  0  0  0  0  0
   31.3434   10.2493    1.4426 C   0  0  0  0  0  0  0  0  0  0  0  0
   31.1302    9.3594    2.4898 C   0  0  0  0  0  0  0  0  0  0  0  0
   31.4765    9.6432    3.8126 C   0  0  0  0  0  0  0  0  0  0  0  0
   30.9959    9.9232    0.0377 C   0  0  0  0  0  0  0  0  0  0  0  0
   29.7706   10.3216   -0.5304 C   0  0  0  0  0  0  0  0  0  0  0  0
   29.4581    9.9671   -1.8551 C   0  0  0  0  0  0  0  0  0  0  0  0
   30.3447    9.1773   -2.6361 C   0  0  0  0  0  0  0  0  0  0  0  0
   31.5586    8.7610   -2.0521 C   0  0  0  0  0  0  0  0  0  0  0  0
   31.8662    9.0833   -0.7268 C   0  0  0  0  0  0  0  0  0  0  0  0
 17 18  1  0  0  0
 18 19  1  0  0  0
 18 13  1  0  0  0
 13 14  2  0  0  0
 13 15  1  0  0  0
 13 12  1  0  0  0
 12  1  1  0  0  0
  1  2  1  0  0  0
  1 22  1  0  0  0
  2  3  2  0  0  0
  2  4  1  0  0  0
  4  6  1  0  0  0
  6  7  1  0  0  0
  6  8  1  0  0  0
  8  9  1  0  0  0
  8 10  2  0  0  0
 22 23  1  0  0  0
 23 24  2  0  0  0
 23 28  1  0  0  0
 24 25  1  0  0  0
 25 26  2  0  0  0
 26 27  1  0  0  0
 26 29  1  0  0  0
 27 28  2  0  0  0
 29 30  2  0  0  0
 29 34  1  0  0  0
 30 31  1  0  0  0
 31 32  2  0  0  0
 32 33  1  0  0  0
 33 34  2  0  0  0
 19 20  1  0  0  0
 19 21  1  0  0  0
 15 16  1  0  0  0
  4  5  1  0  0  0
  9 11  1  0  0  0
M  END
> <minimizedAffinity>
-9.01451

$$$$
3B7R_BIR_L_1001


 34 35  0  0  0  0  0  0  0  0999 V2000
   33.8378    9.6400    3.8423 C   0  0  0  0  0  0  0  0  0  0  0  0
   34.8351    8.7068    3.2123 C   0  0  0  0  0  0  0  0  0  0  0  0
   35.9883    8.7239    3.5857 O   0  0  0  0  0  0  0  0  0  0  0  0
   34.3247    7.6295    2.5411 N   0  0  0  0  0  0  0  0  0  0  0  0
   33.3534    7.5781    2.3888 H   0  0  0  0  0  0  0  0  0  0  0  0
   35.1582    6.5781    2.0550 C   0  0  0  0  0  0  0  0  0  0  0  0
   34.8269    5.2698    2.7608 C   0  0  0  0  0  0  0  0  0  0  0  0
   34.9074    6.3887    0.5260 C   0  0  0  0  0  0  0  0  0  0  0  0
   34.4535    5.1667    0.2432 O   0  0  0  0  0  0  0  0  0  0  0  0
   35.0915    7.2395   -0.3413 O   0  0  0  0  0  0  0  0  0  0  0  0
   34.3253    4.5437    0.9313 H   0  0  0  0  0  0  0  0  0  0  0  0
   34.2380    9.7228    5.3013 C   0  0  0  0  0  0  0  0  0  0  0  0
   33.5030   11.0687    6.2811 P   0  0  0  0  0  0  0  0  0  0  0  0
   32.3872   11.9164    5.6389 O   0  0  0  0  0  0  0  0  0  0  0  0
   32.9639   10.3862    7.5939 O   0  0  0  0  0  0  0  0  0  0  0  0
   32.5565   11.0575    8.1635 H   0  0  0  0  0  0  0  0  0  0  0  0
   34.9927   13.4811    6.1121 C   0  0  0  0  0  0  0  0  0  0  0  0
   34.8813   12.1569    6.9065 C   0  0  0  0  0  0  0  0  0  0  0  0
   36.1090   11.3939    6.8680 N   0  0  0  0  0  0  0  0  0  0  0  0
   36.3056   11.1144    5.9069 H   0  0  0  0  0  0  0  0  0  0  0  0
   36.0110   10.5624    7.4506 H   0  0  0  0  0  0  0  0  0  0  0  0
   33.8978   10.9567    3.0533 C   0  0  0  0  0  0  0  0  0  0  0  0
   32.8608   11.0277    1.9518 C   0  0  0  0  0  0  0  0  0  0  0  0
   33.0590   10.3987    0.7047 C   0  0  0  0  0  0  0  0  0  0  0  0
   32.0617   10.2853   -0.2624 C   0  0  0  0  0  0  0  0  0  0  0  0
   30.8267   10.8916   -0.0091 C   0  0  0  0  0  0  0  0  0  0  0  0
   30.6144   11.4577    1.2432 C   0  0  0  0  0  0  0  0  0  0  0  0
   31.6115   11.5483    2.2169 C   0  0  0  0  0  0  0  0  0  0  0  0
   29.7503   10.7770   -1.0236 C   0  0  0  0  0  0  0  0  0  0  0  0
   28.6245   11.6225   -1.0032 C   0  0  0  0  0  0  0  0  0  0  0  0
   27.6058   11.4653   -1.9600 C   0  0  0  0  0  0  0  0  0  0  0  0
   27.6674   10.4388   -2.9411 C   0  0  0  0  0  0  0  0  0  0  0  0
   28.7856    9.5801   -2.9398 C   0  0  0  0  0  0  0  0  0  0  0  0
   29.7898    9.7093   -1.9753 C   0  0  0  0  0  0  0  0  0  0  0  0
 17 18  1  0  0  0
 18 19  1  0  0  0
 18 13  1  0  0  0
 13 14  2  0  0  0
 13 15  1  0  0  0
 13 12  1  0  0  0
 12  1  1  0  0  0
  1  2  1  0  0  0
  1 22  1  0  0  0
  2  3  2  0  0  0
  2  4  1  0  0  0
  4  6  1  0  0  0
  6  7  1  0  0  0
  6  8  1  0  0  0
  8  9  1  0  0  0
  8 10  2  0  0  0
 22 23  1  0  0  0
 23 24  2  0  0  0
 23 28  1  0  0  0
 24 25  1  0  0  0
 25 26  2  0  0  0
 26 27  1  0  0  0
 26 29  1  0  0  0
 27 28  2  0  0  0
 29 30  2  0  0  0
 29 34  1  0  0  0
 30 31  1  0  0  0
 31 32  2  0  0  0
 32 33  1  0  0  0
 33 34  2  0  0  0
 19 20  1  0  0  0
 19 21  1  0  0  0
 15 16  1  0  0  0
  4  5  1  0  0  0
  9 11  1  0  0  0
M  END
> <minimizedAffinity>
-8.76231

$$$$
3B7R_BIR_L_1001


 34 35  0  0  0  0  0  0  0  0999 V2000
   32.3812   12.0173    6.1352 C   0  0  0  0  0  0  0  0  0  0  0  0
   33.4169   10.9507    6.3641 C   0  0  0  0  0  0  0  0  0  0  0  0
   33.1494    9.9985    7.0650 O   0  0  0  0  0  0  0  0  0  0  0  0
   34.4533   10.9039    5.4723 N   0  0  0  0  0  0  0  0  0  0  0  0
   34.5488   11.6284    4.8127 H   0  0  0  0  0  0  0  0  0  0  0  0
   35.4000    9.8361    5.4698 C   0  0  0  0  0  0  0  0  0  0  0  0
   34.9942    8.7703    4.4604 C   0  0  0  0  0  0  0  0  0  0  0  0
   36.8003   10.3919    5.0612 C   0  0  0  0  0  0  0  0  0  0  0  0
   37.7587    9.9915    5.8983 O   0  0  0  0  0  0  0  0  0  0  0  0
   37.0311   11.1110    4.0919 O   0  0  0  0  0  0  0  0  0  0  0  0
   37.5450    9.4430    6.6273 H   0  0  0  0  0  0  0  0  0  0  0  0
   33.0817   13.0813    5.3148 C   0  0  0  0  0  0  0  0  0  0  0  0
   33.4941   14.6367    6.1646 P   0  0  0  0  0  0  0  0  0  0  0  0
   33.0527   15.9639    5.5166 O   0  0  0  0  0  0  0  0  0  0  0  0
   32.8624   14.5104    7.6016 O   0  0  0  0  0  0  0  0  0  0  0  0
   33.0492   15.3158    8.1089 H   0  0  0  0  0  0  0  0  0  0  0  0
   35.9509   16.0526    6.3281 C   0  0  0  0  0  0  0  0  0  0  0  0
   35.3262   14.6475    6.5084 C   0  0  0  0  0  0  0  0  0  0  0  0
   35.9495   13.6608    5.6546 N   0  0  0  0  0  0  0  0  0  0  0  0
   35.7851   13.9041    4.6777 H   0  0  0  0  0  0  0  0  0  0  0  0
   35.5498   12.7426    5.8482 H   0  0  0  0  0  0  0  0  0  0  0  0
   31.1785   11.3357    5.4653 C   0  0  0  0  0  0  0  0  0  0  0  0
   31.4341   10.9915    4.0127 C   0  0  0  0  0  0  0  0  0  0  0  0
   31.5348    9.6546    3.5738 C   0  0  0  0  0  0  0  0  0  0  0  0
   31.5860    9.2925    2.2288 C   0  0  0  0  0  0  0  0  0  0  0  0
   31.6130   10.3131    1.2725 C   0  0  0  0  0  0  0  0  0  0  0  0
   31.4530   11.6254    1.7038 C   0  0  0  0  0  0  0  0  0  0  0  0
   31.3796   11.9800    3.0526 C   0  0  0  0  0  0  0  0  0  0  0  0
   31.6615    9.9479   -0.1646 C   0  0  0  0  0  0  0  0  0  0  0  0
   30.4882    9.7002   -0.9026 C   0  0  0  0  0  0  0  0  0  0  0  0
   30.5710    9.3233   -2.2550 C   0  0  0  0  0  0  0  0  0  0  0  0
   31.8271    9.1507   -2.8971 C   0  0  0  0  0  0  0  0  0  0  0  0
   32.9981    9.3762   -2.1449 C   0  0  0  0  0  0  0  0  0  0  0  0
   32.9276    9.7230   -0.7921 C   0  0  0  0  0  0  0  0  0  0  0  0
 17 18  1  0  0  0
 18 19  1  0  0  0
 18 13  1  0  0  0
 13 14  2  0  0  0
 13 15  1  0  0  0
 13 12  1  0  0  0
 12  1  1  0  0  0
  1  2  1  0  0  0
  1 22  1  0  0  0
  2  3  2  0  0  0
  2  4  1  0  0  0
  4  6  1  0  0  0
  6  7  1  0  0  0
  6  8  1  0  0  0
  8  9  1  0  0  0
  8 10  2  0  0  0
 22 23  1  0  0  0
 23 24  2  0  0  0
 23 28  1  0  0  0
 24 25  1  0  0  0
 25 26  2  0  0  0
 26 27  1  0  0  0
 26 29  1  0  0  0
 27 28  2  0  0  0
 29 30  2  0  0  0
 29 34  1  0  0  0
 30 31  1  0  0  0
 31 32  2  0  0  0
 32 33  1  0  0  0
 33 34  2  0  0  0
 19 20  1  0  0  0
 19 21  1  0  0  0
 15 16  1  0  0  0
  4  5  1  0  0  0
  9 11  1  0  0  0
M  END
> <minimizedAffinity>
-8.74153

$$$$
3B7R_BIR_L_1001


 34 35  0  0  0  0  0  0  0  0999 V2000
   33.8982   13.6054    5.2559 C   0  0  0  0  0  0  0  0  0  0  0  0
   33.8258   15.0996    5.4126 C   0  0  0  0  0  0  0  0  0  0  0  0
   32.7956   15.6112    5.7951 O   0  0  0  0  0  0  0  0  0  0  0  0
   35.0189   15.7639    5.4955 N   0  0  0  0  0  0  0  0  0  0  0  0
   35.8533   15.2703    5.3237 H   0  0  0  0  0  0  0  0  0  0  0  0
   35.0902   17.1509    5.8235 C   0  0  0  0  0  0  0  0  0  0  0  0
   36.5368   17.5670    6.0555 C   0  0  0  0  0  0  0  0  0  0  0  0
   34.5220   17.9896    4.6360 C   0  0  0  0  0  0  0  0  0  0  0  0
   33.3902   18.6147    4.9643 O   0  0  0  0  0  0  0  0  0  0  0  0
   35.0291   18.0885    3.5211 O   0  0  0  0  0  0  0  0  0  0  0  0
   33.0329   18.5157    5.8248 H   0  0  0  0  0  0  0  0  0  0  0  0
   33.7322   13.0509    6.6562 C   0  0  0  0  0  0  0  0  0  0  0  0
   35.0823   12.0112    7.2949 P   0  0  0  0  0  0  0  0  0  0  0  0
   36.3709   12.7028    7.7818 O   0  0  0  0  0  0  0  0  0  0  0  0
   34.4493   11.1768    8.4709 O   0  0  0  0  0  0  0  0  0  0  0  0
   35.1250   10.5975    8.8565 H   0  0  0  0  0  0  0  0  0  0  0  0
   34.6949    9.3947    6.2598 C   0  0  0  0  0  0  0  0  0  0  0  0
   35.4735   10.7109    6.0177 C   0  0  0  0  0  0  0  0  0  0  0  0
   36.9046   10.5036    6.0112 N   0  0  0  0  0  0  0  0  0  0  0  0
   37.2053   10.1792    6.9303 H   0  0  0  0  0  0  0  0  0  0  0  0
   37.3743   11.3816    5.7901 H   0  0  0  0  0  0  0  0  0  0  0  0
   32.8131   13.2093    4.2433 C   0  0  0  0  0  0  0  0  0  0  0  0
   33.0968   11.8831    3.5690 C   0  0  0  0  0  0  0  0  0  0  0  0
   34.2950   11.6523    2.8611 C   0  0  0  0  0  0  0  0  0  0  0  0
   34.6734   10.3978    2.3856 C   0  0  0  0  0  0  0  0  0  0  0  0
   33.7831    9.3325    2.5568 C   0  0  0  0  0  0  0  0  0  0  0  0
   32.6320    9.5489    3.3066 C   0  0  0  0  0  0  0  0  0  0  0  0
   32.2694   10.8042    3.7997 C   0  0  0  0  0  0  0  0  0  0  0  0
   34.1702    7.9882    2.0629 C   0  0  0  0  0  0  0  0  0  0  0  0
   34.0046    7.6226    0.7132 C   0  0  0  0  0  0  0  0  0  0  0  0
   34.3508    6.3285    0.2846 C   0  0  0  0  0  0  0  0  0  0  0  0
   34.8391    5.3550    1.1977 C   0  0  0  0  0  0  0  0  0  0  0  0
   34.9786    5.7207    2.5522 C   0  0  0  0  0  0  0  0  0  0  0  0
   34.6102    6.9951    2.9942 C   0  0  0  0  0  0  0  0  0  0  0  0
 17 18  1  0  0  0
 18 19  1  0  0  0
 18 13  1  0  0  0
 13 14  2  0  0  0
 13 15  1  0  0  0
 13 12  1  0  0  0
 12  1  1  0  0  0
  1  2  1  0  0  0
  1 22  1  0  0  0
  2  3  2  0  0  0
  2  4  1  0  0  0
  4  6  1  0  0  0
  6  7  1  0  0  0
  6  8  1  0  0  0
  8  9  1  0  0  0
  8 10  2  0  0  0
 22 23  1  0  0  0
 23 24  2  0  0  0
 23 28  1  0  0  0
 24 25  1  0  0  0
 25 26  2  0  0  0
 26 27  1  0  0  0
 26 29  1  0  0  0
 27 28  2  0  0  0
 29 30  2  0  0  0
 29 34  1  0  0  0
 30 31  1  0  0  0
 31 32  2  0  0  0
 32 33  1  0  0  0
 33 34  2  0  0  0
 19 20  1  0  0  0
 19 21  1  0  0  0
 15 16  1  0  0  0
  4  5  1  0  0  0
  9 11  1  0  0  0
M  END
> <minimizedAffinity>
-8.68459

$$$$
3B7R_BIR_L_1001


 34 35  0  0  0  0  0  0  0  0999 V2000
   34.3511   12.3398    4.2242 C   0  0  0  0  0  0  0  0  0  0  0  0
   34.9018   13.5517    4.9245 C   0  0  0  0  0  0  0  0  0  0  0  0
   35.2542   14.5105    4.2718 O   0  0  0  0  0  0  0  0  0  0  0  0
   34.6173   13.6691    6.2575 N   0  0  0  0  0  0  0  0  0  0  0  0
   34.1879   12.9150    6.7224 H   0  0  0  0  0  0  0  0  0  0  0  0
   34.9245   14.8521    6.9941 C   0  0  0  0  0  0  0  0  0  0  0  0
   33.6455   15.5191    7.4830 C   0  0  0  0  0  0  0  0  0  0  0  0
   35.7875   14.4731    8.2384 C   0  0  0  0  0  0  0  0  0  0  0  0
   36.2959   13.2440    8.1363 O   0  0  0  0  0  0  0  0  0  0  0  0
   35.9980   15.1938    9.2111 O   0  0  0  0  0  0  0  0  0  0  0  0
   36.1136   12.7231    7.3791 H   0  0  0  0  0  0  0  0  0  0  0  0
   34.7763   11.1613    5.0764 C   0  0  0  0  0  0  0  0  0  0  0  0
   36.4243   10.4620    4.7501 P   0  0  0  0  0  0  0  0  0  0  0  0
   37.4758   11.3558    4.0635 O   0  0  0  0  0  0  0  0  0  0  0  0
   36.9636    9.9863    6.1511 O   0  0  0  0  0  0  0  0  0  0  0  0
   37.8470    9.6004    6.0436 H   0  0  0  0  0  0  0  0  0  0  0  0
   36.3500    9.0503    2.2864 C   0  0  0  0  0  0  0  0  0  0  0  0
   36.2068    8.8630    3.8166 C   0  0  0  0  0  0  0  0  0  0  0  0
   34.9243    8.3021    4.1790 N   0  0  0  0  0  0  0  0  0  0  0  0
   34.1829    8.9521    3.9178 H   0  0  0  0  0  0  0  0  0  0  0  0
   34.8959    8.1407    5.1857 H   0  0  0  0  0  0  0  0  0  0  0  0
   32.8367   12.5551    4.0828 C   0  0  0  0  0  0  0  0  0  0  0  0
   32.2487   11.8212    2.8956 C   0  0  0  0  0  0  0  0  0  0  0  0
   31.0433   12.2350    2.2906 C   0  0  0  0  0  0  0  0  0  0  0  0
   30.5663   11.7041    1.0933 C   0  0  0  0  0  0  0  0  0  0  0  0
   31.2842   10.6577    0.5046 C   0  0  0  0  0  0  0  0  0  0  0  0
   32.5015   10.2932    1.0696 C   0  0  0  0  0  0  0  0  0  0  0  0
   32.9851   10.8450    2.2579 C   0  0  0  0  0  0  0  0  0  0  0  0
   30.7959   10.0832   -0.7731 C   0  0  0  0  0  0  0  0  0  0  0  0
   29.4724   10.2795   -1.2118 C   0  0  0  0  0  0  0  0  0  0  0  0
   29.0319    9.6929   -2.4118 C   0  0  0  0  0  0  0  0  0  0  0  0
   29.8901    8.8675   -3.1879 C   0  0  0  0  0  0  0  0  0  0  0  0
   31.2063    8.6551   -2.7293 C   0  0  0  0  0  0  0  0  0  0  0  0
   31.6454    9.2098   -1.5233 C   0  0  0  0  0  0  0  0  0  0  0  0
 17 18  1  0  0  0
 18 19  1  0  0  0
 18 13  1  0  0  0
 13 14  2  0  0  0
 13 15  1  0  0  0
 13 12  1  0  0  0
 12  1  1  0  0  0
  1  2  1  0  0  0
  1 22  1  0  0  0
  2  3  2  0  0  0
  2  4  1  0  0  0
  4  6  1  0  0  0
  6  7  1  0  0  0
  6  8  1  0  0  0
  8  9  1  0  0  0
  8 10  2  0  0  0
 22 23  1  0  0  0
 23 24  2  0  0  0
 23 28  1  0  0  0
 24 25  1  0  0  0
 25 26  2  0  0  0
 26 27  1  0  0  0
 26 29  1  0  0  0
 27 28  2  0  0  0
 29 30  2  0  0  0
 29 34  1  0  0  0
 30 31  1  0  0  0
 31 32  2  0  0  0
 32 33  1  0  0  0
 33 34  2  0  0  0
 19 20  1  0  0  0
 19 21  1  0  0  0
 15 16  1  0  0  0
  4  5  1  0  0  0
  9 11  1  0  0  0
M  END
> <minimizedAffinity>
-8.55031

$$$$
