3QKD_HI0_A_218


 60 66  0  0  0  0  0  0  0  0999 V2000
  -12.7600   -9.8941   11.9929 N   0  0  0  0  0  0  0  0  0  0  0  0
  -12.1840   -9.7167   12.7714 H   0  0  0  0  0  0  0  0  0  0  0  0
  -15.8715  -12.6751   12.4419 N   0  0  0  0  0  0  0  0  0  0  0  0
  -15.2197  -10.4174   12.3624 N   0  0  0  0  0  0  0  0  0  0  0  0
  -13.0850  -15.0353   11.9919 C   0  0  0  0  0  0  0  0  0  0  0  0
  -14.3837  -14.5282   12.1908 C   0  0  0  0  0  0  0  0  0  0  0  0
  -12.0305  -14.1337   11.8296 C   0  0  0  0  0  0  0  0  0  0  0  0
  -12.2593  -12.7604   11.8691 C   0  0  0  0  0  0  0  0  0  0  0  0
  -13.5532  -12.2684   12.0858 C   0  0  0  0  0  0  0  0  0  0  0  0
  -14.6207  -13.1516   12.2439 C   0  0  0  0  0  0  0  0  0  0  0  0
  -16.1675  -11.3581   12.5027 C   0  0  0  0  0  0  0  0  0  0  0  0
  -13.8351  -10.8440   12.1495 C   0  0  0  0  0  0  0  0  0  0  0  0
  -12.2232  -18.3464   10.6852 C   0  0  0  0  0  0  0  0  0  0  0  0
  -12.5906  -19.1826   11.8548 N   0  0  0  0  0  0  0  0  0  0  0  0
  -12.1374  -18.5136   13.0925 C   0  0  0  0  0  0  0  0  0  0  0  0
  -12.8644  -16.3808   11.9488 N   0  0  0  0  0  0  0  0  0  0  0  0
  -12.7881  -17.1332   13.2143 C   0  0  0  0  0  0  0  0  0  0  0  0
  -13.0792  -17.0909   10.6837 C   0  0  0  0  0  0  0  0  0  0  0  0
  -12.0332  -20.5442   11.7566 C   0  0  0  0  0  0  0  0  0  0  0  0
  -12.9854  -21.4731   10.9972 C   0  0  0  0  0  0  0  0  0  0  0  0
  -14.3718  -21.3336   11.1898 C   0  0  0  0  0  0  0  0  0  0  0  0
  -15.2741  -22.1514   10.5056 C   0  0  0  0  0  0  0  0  0  0  0  0
  -14.8007  -23.1152    9.6229 C   0  0  0  0  0  0  0  0  0  0  0  0
  -13.4242  -23.2635    9.4242 C   0  0  0  0  0  0  0  0  0  0  0  0
  -12.5073  -22.4514   10.1064 C   0  0  0  0  0  0  0  0  0  0  0  0
   -6.7664  -23.5390    8.7117 Cl  0  0  0  0  0  0  0  0  0  0  0  0
  -11.1383  -22.6341    9.8718 C   0  0  0  0  0  0  0  0  0  0  0  0
  -10.4840  -21.8501    8.9121 C   0  0  0  0  0  0  0  0  0  0  0  0
   -9.1567  -22.1284    8.5665 C   0  0  0  0  0  0  0  0  0  0  0  0
   -8.4751  -23.1931    9.1635 C   0  0  0  0  0  0  0  0  0  0  0  0
   -9.1248  -23.9800   10.1235 C   0  0  0  0  0  0  0  0  0  0  0  0
  -10.4512  -23.7028   10.4731 C   0  0  0  0  0  0  0  0  0  0  0  0
  -13.0225   -7.7975   10.7214 O   0  0  0  0  0  0  0  0  0  0  0  0
  -12.4386   -9.0943   10.6038 S   0  0  0  0  0  0  0  0  0  0  0  0
  -12.8847   -9.9482    9.5479 O   0  0  0  0  0  0  0  0  0  0  0  0
  -10.7829   -8.9606   10.4811 C   0  0  0  0  0  0  0  0  0  0  0  0
  -10.1527   -9.2795    9.2840 C   0  0  0  0  0  0  0  0  0  0  0  0
   -8.7677   -9.1931    9.1147 C   0  0  0  0  0  0  0  0  0  0  0  0
   -7.9534   -8.7664   10.1813 C   0  0  0  0  0  0  0  0  0  0  0  0
   -8.5804   -8.4430   11.3911 C   0  0  0  0  0  0  0  0  0  0  0  0
   -9.9707   -8.5387   11.5417 C   0  0  0  0  0  0  0  0  0  0  0  0
   -9.0153   -9.6911    6.9227 O   0  0  0  0  0  0  0  0  0  0  0  0
   -7.0843   -9.7125    7.6695 O   0  0  0  0  0  0  0  0  0  0  0  0
   -8.2756   -9.5432    7.8855 N   0  0  0  0  0  0  0  0  0  0  0  0
   -6.5854   -8.6785   10.0407 N   0  0  0  0  0  0  0  0  0  0  0  0
   -6.2321   -8.7241    9.1229 H   0  0  0  0  0  0  0  0  0  0  0  0
   -5.5931   -8.5226   11.1263 C   0  0  0  0  0  0  0  0  0  0  0  0
   -4.3625   -7.6709   10.7530 C   0  0  0  0  0  0  0  0  0  0  0  0
   -3.9684   -7.6447    9.2704 C   0  0  0  0  0  0  0  0  0  0  0  0
   -2.5057   -7.6236    9.0490 N   0  0  0  0  0  0  0  0  0  0  0  0
   -1.9565   -8.9683    9.2754 C   0  0  0  0  0  0  0  0  0  0  0  0
   -1.8001   -6.7029    9.9557 C   0  0  0  0  0  0  0  0  0  0  0  0
   -5.0400   -9.8227   11.7277 C   0  0  0  0  0  0  0  0  0  0  0  0
   -4.9509  -11.1866   10.6049 S   0  0  0  0  0  0  0  0  0  0  0  0
   -6.4229  -12.0281   10.5887 C   0  0  0  0  0  0  0  0  0  0  0  0
   -6.8708  -12.6020    9.3960 C   0  0  0  0  0  0  0  0  0  0  0  0
   -8.0844  -13.2921    9.3803 C   0  0  0  0  0  0  0  0  0  0  0  0
   -8.8306  -13.4034   10.5500 C   0  0  0  0  0  0  0  0  0  0  0  0
   -8.3828  -12.8417   11.7403 C   0  0  0  0  0  0  0  0  0  0  0  0
   -7.1758  -12.1459   11.7606 C   0  0  0  0  0  0  0  0  0  0  0  0
 13 14  1  0  0  0
 13 18  1  0  0  0
 14 15  1  0  0  0
 14 19  1  0  0  0
 33 34  2  0  0  0
 34 35  2  0  0  0
 34  1  1  0  0  0
 34 36  1  0  0  0
 26 30  1  0  0  0
 15 17  1  0  0  0
 16 17  1  0  0  0
 16 18  1  0  0  0
 16  5  1  0  0  0
 54 53  1  0  0  0
 54 55  1  0  0  0
  3 10  2  0  0  0
  3 11  1  0  0  0
 42 44  2  0  0  0
  4 11  2  0  0  0
  4 12  1  0  0  0
 43 44  1  0  0  0
 19 20  1  0  0  0
  1 12  1  0  0  0
 20 21  2  0  0  0
 20 25  1  0  0  0
 44 38  1  0  0  0
 21 22  1  0  0  0
 45 39  1  0  0  0
 45 47  1  0  0  0
 22 23  2  0  0  0
 50 49  1  0  0  0
 50 51  1  0  0  0
 50 52  1  0  0  0
 23 24  1  0  0  0
 24 25  2  0  0  0
 25 27  1  0  0  0
 27 28  2  0  0  0
 27 32  1  0  0  0
 28 29  1  0  0  0
 29 30  2  0  0  0
 30 31  1  0  0  0
 31 32  2  0  0  0
  5  6  2  0  0  0
  5  7  1  0  0  0
  6 10  1  0  0  0
  7  8  2  0  0  0
  8  9  1  0  0  0
  9 10  1  0  0  0
  9 12  2  0  0  0
 36 37  2  0  0  0
 36 41  1  0  0  0
 37 38  1  0  0  0
 38 39  2  0  0  0
 39 40  1  0  0  0
 40 41  2  0  0  0
 47 48  1  0  0  0
 47 53  1  0  0  0
 48 49  1  0  0  0
 55 56  2  0  0  0
 55 60  1  0  0  0
 56 57  1  0  0  0
 57 58  2  0  0  0
 58 59  1  0  0  0
 59 60  2  0  0  0
  1  2  1  0  0  0
 45 46  1  0  0  0
M  CHG 1  43  -1
M  CHG 1  44   1
M  END
> <minimizedAffinity>
-10.79981

$$$$
3QKD_HI0_A_218


 60 66  0  0  0  0  0  0  0  0999 V2000
  -13.9892  -10.2012   12.5387 N   0  0  0  0  0  0  0  0  0  0  0  0
  -13.6998   -9.8742   11.6563 H   0  0  0  0  0  0  0  0  0  0  0  0
  -16.8838  -13.2385   12.6524 N   0  0  0  0  0  0  0  0  0  0  0  0
  -16.4109  -10.9382   12.7681 N   0  0  0  0  0  0  0  0  0  0  0  0
  -13.9048  -15.3365   12.1406 C   0  0  0  0  0  0  0  0  0  0  0  0
  -15.2457  -14.9473   12.3240 C   0  0  0  0  0  0  0  0  0  0  0  0
  -12.9202  -14.3470   12.0890 C   0  0  0  0  0  0  0  0  0  0  0  0
  -13.2585  -13.0025   12.2216 C   0  0  0  0  0  0  0  0  0  0  0  0
  -14.5941  -12.6292   12.4218 C   0  0  0  0  0  0  0  0  0  0  0  0
  -15.5930  -13.6011   12.4702 C   0  0  0  0  0  0  0  0  0  0  0  0
  -17.2853  -11.9567   12.7994 C   0  0  0  0  0  0  0  0  0  0  0  0
  -14.9902  -11.2398   12.5802 C   0  0  0  0  0  0  0  0  0  0  0  0
  -12.2115  -18.3639   10.9655 C   0  0  0  0  0  0  0  0  0  0  0  0
  -13.0501  -19.3946   11.6262 N   0  0  0  0  0  0  0  0  0  0  0  0
  -13.3529  -18.9631   13.0072 C   0  0  0  0  0  0  0  0  0  0  0  0
  -13.5767  -16.6538   12.0061 N   0  0  0  0  0  0  0  0  0  0  0  0
  -14.0922  -17.6226   12.9906 C   0  0  0  0  0  0  0  0  0  0  0  0
  -13.0524  -17.1224   10.7192 C   0  0  0  0  0  0  0  0  0  0  0  0
  -12.4044  -20.7203   11.6174 C   0  0  0  0  0  0  0  0  0  0  0  0
  -13.2294  -21.7266   10.8092 C   0  0  0  0  0  0  0  0  0  0  0  0
  -14.6285  -21.7335   10.9538 C   0  0  0  0  0  0  0  0  0  0  0  0
  -15.4178  -22.6257   10.2244 C   0  0  0  0  0  0  0  0  0  0  0  0
  -14.8177  -23.5184    9.3441 C   0  0  0  0  0  0  0  0  0  0  0  0
  -13.4273  -23.5212    9.1929 C   0  0  0  0  0  0  0  0  0  0  0  0
  -12.6228  -22.6331    9.9207 C   0  0  0  0  0  0  0  0  0  0  0  0
   -6.7539  -23.1257    8.7380 Cl  0  0  0  0  0  0  0  0  0  0  0  0
  -11.2350  -22.6702    9.7328 C   0  0  0  0  0  0  0  0  0  0  0  0
  -10.6413  -21.8606    8.7553 C   0  0  0  0  0  0  0  0  0  0  0  0
   -9.2806  -22.0021    8.4599 C   0  0  0  0  0  0  0  0  0  0  0  0
   -8.5044  -22.9555    9.1256 C   0  0  0  0  0  0  0  0  0  0  0  0
   -9.0932  -23.7675   10.1039 C   0  0  0  0  0  0  0  0  0  0  0  0
  -10.4530  -23.6267   10.4032 C   0  0  0  0  0  0  0  0  0  0  0  0
  -13.7892  -10.2570   14.9961 O   0  0  0  0  0  0  0  0  0  0  0  0
  -13.3055   -9.5335   13.8652 S   0  0  0  0  0  0  0  0  0  0  0  0
  -13.5806   -8.1331   13.7849 O   0  0  0  0  0  0  0  0  0  0  0  0
  -11.6578   -9.7341   13.7273 C   0  0  0  0  0  0  0  0  0  0  0  0
  -10.9212  -10.1605   14.8260 C   0  0  0  0  0  0  0  0  0  0  0  0
   -9.5363  -10.3453   14.7795 C   0  0  0  0  0  0  0  0  0  0  0  0
   -8.8330  -10.0999   13.5846 C   0  0  0  0  0  0  0  0  0  0  0  0
   -9.5677   -9.6699   12.4725 C   0  0  0  0  0  0  0  0  0  0  0  0
  -10.9559   -9.4881   12.5401 C   0  0  0  0  0  0  0  0  0  0  0  0
   -9.0582  -10.1384   16.9802 O   0  0  0  0  0  0  0  0  0  0  0  0
   -8.2538  -11.7771   16.0032 O   0  0  0  0  0  0  0  0  0  0  0  0
   -8.9326  -10.7627   15.9359 N   0  0  0  0  0  0  0  0  0  0  0  0
   -7.4672  -10.2694   13.5155 N   0  0  0  0  0  0  0  0  0  0  0  0
   -6.9653  -10.1568   14.3549 H   0  0  0  0  0  0  0  0  0  0  0  0
   -6.6775  -10.6032   12.3103 C   0  0  0  0  0  0  0  0  0  0  0  0
   -6.1724  -12.0596   12.2575 C   0  0  0  0  0  0  0  0  0  0  0  0
   -7.1930  -13.1268   11.8410 C   0  0  0  0  0  0  0  0  0  0  0  0
   -8.1849  -12.6421   10.8560 N   0  0  0  0  0  0  0  0  0  0  0  0
   -9.4783  -13.2968   11.1004 C   0  0  0  0  0  0  0  0  0  0  0  0
   -7.8023  -12.9322    9.4642 C   0  0  0  0  0  0  0  0  0  0  0  0
   -5.4500   -9.7207   12.0412 C   0  0  0  0  0  0  0  0  0  0  0  0
   -5.7155   -8.4015   10.8932 S   0  0  0  0  0  0  0  0  0  0  0  0
   -6.7511   -8.9076    9.6497 C   0  0  0  0  0  0  0  0  0  0  0  0
   -8.1337   -8.8597    9.8475 C   0  0  0  0  0  0  0  0  0  0  0  0
   -8.9876   -9.2795    8.8257 C   0  0  0  0  0  0  0  0  0  0  0  0
   -8.4540   -9.7365    7.6240 C   0  0  0  0  0  0  0  0  0  0  0  0
   -7.0793   -9.7762    7.4210 C   0  0  0  0  0  0  0  0  0  0  0  0
   -6.2220   -9.3650    8.4395 C   0  0  0  0  0  0  0  0  0  0  0  0
 13 14  1  0  0  0
 13 18  1  0  0  0
 14 15  1  0  0  0
 14 19  1  0  0  0
 33 34  2  0  0  0
 34 35  2  0  0  0
 34  1  1  0  0  0
 34 36  1  0  0  0
 26 30  1  0  0  0
 15 17  1  0  0  0
 16 17  1  0  0  0
 16 18  1  0  0  0
 16  5  1  0  0  0
 54 53  1  0  0  0
 54 55  1  0  0  0
  3 10  2  0  0  0
  3 11  1  0  0  0
 42 44  2  0  0  0
  4 11  2  0  0  0
  4 12  1  0  0  0
 43 44  1  0  0  0
 19 20  1  0  0  0
  1 12  1  0  0  0
 20 21  2  0  0  0
 20 25  1  0  0  0
 44 38  1  0  0  0
 21 22  1  0  0  0
 45 39  1  0  0  0
 45 47  1  0  0  0
 22 23  2  0  0  0
 50 49  1  0  0  0
 50 51  1  0  0  0
 50 52  1  0  0  0
 23 24  1  0  0  0
 24 25  2  0  0  0
 25 27  1  0  0  0
 27 28  2  0  0  0
 27 32  1  0  0  0
 28 29  1  0  0  0
 29 30  2  0  0  0
 30 31  1  0  0  0
 31 32  2  0  0  0
  5  6  2  0  0  0
  5  7  1  0  0  0
  6 10  1  0  0  0
  7  8  2  0  0  0
  8  9  1  0  0  0
  9 10  1  0  0  0
  9 12  2  0  0  0
 36 37  2  0  0  0
 36 41  1  0  0  0
 37 38  1  0  0  0
 38 39  2  0  0  0
 39 40  1  0  0  0
 40 41  2  0  0  0
 47 48  1  0  0  0
 47 53  1  0  0  0
 48 49  1  0  0  0
 55 56  2  0  0  0
 55 60  1  0  0  0
 56 57  1  0  0  0
 57 58  2  0  0  0
 58 59  1  0  0  0
 59 60  2  0  0  0
  1  2  1  0  0  0
 45 46  1  0  0  0
M  CHG 1  43  -1
M  CHG 1  44   1
M  END
> <minimizedAffinity>
-9.89369

$$$$
3QKD_HI0_A_218


 60 66  0  0  0  0  0  0  0  0999 V2000
  -12.3607   -9.6346   11.9426 N   0  0  0  0  0  0  0  0  0  0  0  0
  -11.7647   -9.4811   12.7111 H   0  0  0  0  0  0  0  0  0  0  0  0
  -15.5130  -12.3655   12.4140 N   0  0  0  0  0  0  0  0  0  0  0  0
  -14.8263  -10.1185   12.3262 N   0  0  0  0  0  0  0  0  0  0  0  0
  -12.7662  -14.7701   11.9543 C   0  0  0  0  0  0  0  0  0  0  0  0
  -14.0557  -14.2423   12.1589 C   0  0  0  0  0  0  0  0  0  0  0  0
  -11.6986  -13.8855   11.7845 C   0  0  0  0  0  0  0  0  0  0  0  0
  -11.9056  -12.5086   11.8222 C   0  0  0  0  0  0  0  0  0  0  0  0
  -13.1905  -11.9960   12.0447 C   0  0  0  0  0  0  0  0  0  0  0  0
  -14.2709  -12.8620   12.2104 C   0  0  0  0  0  0  0  0  0  0  0  0
  -15.7880  -11.0439   12.4736 C   0  0  0  0  0  0  0  0  0  0  0  0
  -13.4497  -10.5672   12.1069 C   0  0  0  0  0  0  0  0  0  0  0  0
  -12.1261  -18.1200   10.6196 C   0  0  0  0  0  0  0  0  0  0  0  0
  -12.3364  -18.9254   11.8481 N   0  0  0  0  0  0  0  0  0  0  0  0
  -11.7097  -18.2353   12.9952 C   0  0  0  0  0  0  0  0  0  0  0  0
  -12.5669  -16.1189   11.9129 N   0  0  0  0  0  0  0  0  0  0  0  0
  -12.3237  -16.8442   13.1732 C   0  0  0  0  0  0  0  0  0  0  0  0
  -12.9617  -16.8538   10.7067 C   0  0  0  0  0  0  0  0  0  0  0  0
  -11.8113  -20.2960   11.7060 C   0  0  0  0  0  0  0  0  0  0  0  0
  -12.8430  -21.2122   11.0408 C   0  0  0  0  0  0  0  0  0  0  0  0
  -14.2113  -20.9686   11.2575 C   0  0  0  0  0  0  0  0  0  0  0  0
  -15.1838  -21.7721   10.6578 C   0  0  0  0  0  0  0  0  0  0  0  0
  -14.7993  -22.8254    9.8364 C   0  0  0  0  0  0  0  0  0  0  0  0
  -13.4416  -23.0776    9.6145 C   0  0  0  0  0  0  0  0  0  0  0  0
  -12.4549  -22.2809   10.2122 C   0  0  0  0  0  0  0  0  0  0  0  0
   -6.8400  -23.8781    8.7955 Cl  0  0  0  0  0  0  0  0  0  0  0  0
  -11.1079  -22.5694    9.9573 C   0  0  0  0  0  0  0  0  0  0  0  0
  -10.4693  -21.9971    8.8490 C   0  0  0  0  0  0  0  0  0  0  0  0
   -9.1733  -22.3968    8.5033 C   0  0  0  0  0  0  0  0  0  0  0  0
   -8.5085  -23.3745    9.2494 C   0  0  0  0  0  0  0  0  0  0  0  0
   -9.1425  -23.9498   10.3584 C   0  0  0  0  0  0  0  0  0  0  0  0
  -10.4374  -23.5505   10.7080 C   0  0  0  0  0  0  0  0  0  0  0  0
  -12.4868   -7.4722   10.7636 O   0  0  0  0  0  0  0  0  0  0  0  0
  -12.0547   -8.8170   10.5604 S   0  0  0  0  0  0  0  0  0  0  0  0
  -12.6631   -9.5763    9.5132 O   0  0  0  0  0  0  0  0  0  0  0  0
  -10.4070   -8.8518   10.3189 C   0  0  0  0  0  0  0  0  0  0  0  0
   -9.8992   -9.2567    9.0901 C   0  0  0  0  0  0  0  0  0  0  0  0
   -8.5281   -9.3125    8.8224 C   0  0  0  0  0  0  0  0  0  0  0  0
   -7.6011   -8.9473    9.8173 C   0  0  0  0  0  0  0  0  0  0  0  0
   -8.1045   -8.5379   11.0585 C   0  0  0  0  0  0  0  0  0  0  0  0
   -9.4830   -8.4913   11.3082 C   0  0  0  0  0  0  0  0  0  0  0  0
   -8.9619   -9.7491    6.6463 O   0  0  0  0  0  0  0  0  0  0  0  0
   -7.0298  -10.1051    7.2996 O   0  0  0  0  0  0  0  0  0  0  0  0
   -8.1627   -9.7353    7.5720 N   0  0  0  0  0  0  0  0  0  0  0  0
   -6.2449   -8.9992    9.5793 N   0  0  0  0  0  0  0  0  0  0  0  0
   -5.9290   -8.6010    8.7362 H   0  0  0  0  0  0  0  0  0  0  0  0
   -5.2146   -9.5915   10.4599 C   0  0  0  0  0  0  0  0  0  0  0  0
   -5.7707  -10.4909   11.5828 C   0  0  0  0  0  0  0  0  0  0  0  0
   -5.6828  -12.0060   11.3574 C   0  0  0  0  0  0  0  0  0  0  0  0
   -7.0024  -12.6738   11.3157 N   0  0  0  0  0  0  0  0  0  0  0  0
   -7.5005  -12.6885    9.9327 C   0  0  0  0  0  0  0  0  0  0  0  0
   -8.0164  -11.9958   12.1402 C   0  0  0  0  0  0  0  0  0  0  0  0
   -4.2613   -8.6017   11.1449 C   0  0  0  0  0  0  0  0  0  0  0  0
   -3.1787   -7.7288   10.0518 S   0  0  0  0  0  0  0  0  0  0  0  0
   -1.5653   -8.1357   10.3782 C   0  0  0  0  0  0  0  0  0  0  0  0
   -0.7875   -8.7140    9.3715 C   0  0  0  0  0  0  0  0  0  0  0  0
    0.5401   -9.0528    9.6399 C   0  0  0  0  0  0  0  0  0  0  0  0
    1.0735   -8.8084   10.9022 C   0  0  0  0  0  0  0  0  0  0  0  0
    0.3048   -8.2244   11.9026 C   0  0  0  0  0  0  0  0  0  0  0  0
   -1.0227   -7.8904   11.6428 C   0  0  0  0  0  0  0  0  0  0  0  0
 13 14  1  0  0  0
 13 18  1  0  0  0
 14 15  1  0  0  0
 14 19  1  0  0  0
 33 34  2  0  0  0
 34 35  2  0  0  0
 34  1  1  0  0  0
 34 36  1  0  0  0
 26 30  1  0  0  0
 15 17  1  0  0  0
 16 17  1  0  0  0
 16 18  1  0  0  0
 16  5  1  0  0  0
 54 53  1  0  0  0
 54 55  1  0  0  0
  3 10  2  0  0  0
  3 11  1  0  0  0
 42 44  2  0  0  0
  4 11  2  0  0  0
  4 12  1  0  0  0
 43 44  1  0  0  0
 19 20  1  0  0  0
  1 12  1  0  0  0
 20 21  2  0  0  0
 20 25  1  0  0  0
 44 38  1  0  0  0
 21 22  1  0  0  0
 45 39  1  0  0  0
 45 47  1  0  0  0
 22 23  2  0  0  0
 50 49  1  0  0  0
 50 51  1  0  0  0
 50 52  1  0  0  0
 23 24  1  0  0  0
 24 25  2  0  0  0
 25 27  1  0  0  0
 27 28  2  0  0  0
 27 32  1  0  0  0
 28 29  1  0  0  0
 29 30  2  0  0  0
 30 31  1  0  0  0
 31 32  2  0  0  0
  5  6  2  0  0  0
  5  7  1  0  0  0
  6 10  1  0  0  0
  7  8  2  0  0  0
  8  9  1  0  0  0
  9 10  1  0  0  0
  9 12  2  0  0  0
 36 37  2  0  0  0
 36 41  1  0  0  0
 37 38  1  0  0  0
 38 39  2  0  0  0
 39 40  1  0  0  0
 40 41  2  0  0  0
 47 48  1  0  0  0
 47 53  1  0  0  0
 48 49  1  0  0  0
 55 56  2  0  0  0
 55 60  1  0  0  0
 56 57  1  0  0  0
 57 58  2  0  0  0
 58 59  1  0  0  0
 59 60  2  0  0  0
  1  2  1  0  0  0
 45 46  1  0  0  0
M  CHG 1  43  -1
M  CHG 1  44   1
M  END
> <minimizedAffinity>
-9.85065

$$$$
3QKD_HI0_A_218


 60 66  0  0  0  0  0  0  0  0999 V2000
  -12.1967  -10.1631   12.3373 N   0  0  0  0  0  0  0  0  0  0  0  0
  -11.6964   -9.9995   13.1693 H   0  0  0  0  0  0  0  0  0  0  0  0
  -15.4811  -12.7716   12.4972 N   0  0  0  0  0  0  0  0  0  0  0  0
  -14.7030  -10.5528   12.5012 N   0  0  0  0  0  0  0  0  0  0  0  0
  -12.8000  -15.2782   12.2395 C   0  0  0  0  0  0  0  0  0  0  0  0
  -14.0810  -14.7019   12.3406 C   0  0  0  0  0  0  0  0  0  0  0  0
  -11.6883  -14.4349   12.1747 C   0  0  0  0  0  0  0  0  0  0  0  0
  -11.8444  -13.0515   12.2146 C   0  0  0  0  0  0  0  0  0  0  0  0
  -13.1229  -12.4907   12.3336 C   0  0  0  0  0  0  0  0  0  0  0  0
  -14.2462  -13.3148   12.3935 C   0  0  0  0  0  0  0  0  0  0  0  0
  -15.7089  -11.4408   12.5522 C   0  0  0  0  0  0  0  0  0  0  0  0
  -13.3310  -11.0534   12.3941 C   0  0  0  0  0  0  0  0  0  0  0  0
  -12.1577  -18.6338   10.9201 C   0  0  0  0  0  0  0  0  0  0  0  0
  -12.5237  -19.4459   12.1071 N   0  0  0  0  0  0  0  0  0  0  0  0
  -11.9912  -18.7965   13.3235 C   0  0  0  0  0  0  0  0  0  0  0  0
  -12.6502  -16.6334   12.1957 N   0  0  0  0  0  0  0  0  0  0  0  0
  -12.5656  -17.3841   13.4617 C   0  0  0  0  0  0  0  0  0  0  0  0
  -12.9478  -17.3361   10.9433 C   0  0  0  0  0  0  0  0  0  0  0  0
  -12.0406  -20.8346   11.9959 C   0  0  0  0  0  0  0  0  0  0  0  0
  -12.9782  -21.6729   11.1216 C   0  0  0  0  0  0  0  0  0  0  0  0
  -14.3671  -21.5715   11.3193 C   0  0  0  0  0  0  0  0  0  0  0  0
  -15.2564  -22.3083   10.5335 C   0  0  0  0  0  0  0  0  0  0  0  0
  -14.7673  -23.1523    9.5433 C   0  0  0  0  0  0  0  0  0  0  0  0
  -13.3880  -23.2618    9.3383 C   0  0  0  0  0  0  0  0  0  0  0  0
  -12.4841  -22.5303   10.1215 C   0  0  0  0  0  0  0  0  0  0  0  0
   -6.7227  -23.4212    8.6730 Cl  0  0  0  0  0  0  0  0  0  0  0  0
  -11.1118  -22.6696    9.8767 C   0  0  0  0  0  0  0  0  0  0  0  0
  -10.4812  -21.8358    8.9436 C   0  0  0  0  0  0  0  0  0  0  0  0
   -9.1485  -22.0678    8.5845 C   0  0  0  0  0  0  0  0  0  0  0  0
   -8.4380  -23.1352    9.1416 C   0  0  0  0  0  0  0  0  0  0  0  0
   -9.0638  -23.9718   10.0750 C   0  0  0  0  0  0  0  0  0  0  0  0
  -10.3955  -23.7410   10.4379 C   0  0  0  0  0  0  0  0  0  0  0  0
  -12.3642   -8.1527   10.9190 O   0  0  0  0  0  0  0  0  0  0  0  0
  -11.6903   -9.4092   10.9779 S   0  0  0  0  0  0  0  0  0  0  0  0
  -11.8946  -10.3415    9.9138 O   0  0  0  0  0  0  0  0  0  0  0  0
  -10.0496   -9.1652   11.1289 C   0  0  0  0  0  0  0  0  0  0  0  0
   -9.4596   -9.2073   12.3865 C   0  0  0  0  0  0  0  0  0  0  0  0
   -8.0900   -9.0076   12.5839 C   0  0  0  0  0  0  0  0  0  0  0  0
   -7.2497   -8.7541   11.4828 C   0  0  0  0  0  0  0  0  0  0  0  0
   -7.8363   -8.7100   10.2118 C   0  0  0  0  0  0  0  0  0  0  0  0
   -9.2123   -8.9104   10.0350 C   0  0  0  0  0  0  0  0  0  0  0  0
   -7.9587   -8.2256   14.7018 O   0  0  0  0  0  0  0  0  0  0  0  0
   -6.9150   -9.9646   14.2854 O   0  0  0  0  0  0  0  0  0  0  0  0
   -7.6397   -9.0693   13.8758 N   0  0  0  0  0  0  0  0  0  0  0  0
   -5.8978   -8.5483   11.6524 N   0  0  0  0  0  0  0  0  0  0  0  0
   -5.5824   -8.4261   12.5769 H   0  0  0  0  0  0  0  0  0  0  0  0
   -4.8716   -8.4922   10.5886 C   0  0  0  0  0  0  0  0  0  0  0  0
   -4.9760   -7.2644    9.6609 C   0  0  0  0  0  0  0  0  0  0  0  0
   -3.7648   -6.3231    9.6271 C   0  0  0  0  0  0  0  0  0  0  0  0
   -2.5173   -6.9488   10.1183 N   0  0  0  0  0  0  0  0  0  0  0  0
   -1.6941   -5.9355   10.7939 C   0  0  0  0  0  0  0  0  0  0  0  0
   -1.7012   -7.5288    9.0387 C   0  0  0  0  0  0  0  0  0  0  0  0
   -4.7905   -9.7149    9.6632 C   0  0  0  0  0  0  0  0  0  0  0  0
   -4.6785  -11.2734   10.4923 S   0  0  0  0  0  0  0  0  0  0  0  0
   -6.1870  -12.0475   10.4890 C   0  0  0  0  0  0  0  0  0  0  0  0
   -6.8058  -12.3370    9.2699 C   0  0  0  0  0  0  0  0  0  0  0  0
   -8.0496  -12.9712    9.2657 C   0  0  0  0  0  0  0  0  0  0  0  0
   -8.6561  -13.3100   10.4719 C   0  0  0  0  0  0  0  0  0  0  0  0
   -8.0384  -13.0319   11.6859 C   0  0  0  0  0  0  0  0  0  0  0  0
   -6.8003  -12.3930   11.6967 C   0  0  0  0  0  0  0  0  0  0  0  0
 13 14  1  0  0  0
 13 18  1  0  0  0
 14 15  1  0  0  0
 14 19  1  0  0  0
 33 34  2  0  0  0
 34 35  2  0  0  0
 34  1  1  0  0  0
 34 36  1  0  0  0
 26 30  1  0  0  0
 15 17  1  0  0  0
 16 17  1  0  0  0
 16 18  1  0  0  0
 16  5  1  0  0  0
 54 53  1  0  0  0
 54 55  1  0  0  0
  3 10  2  0  0  0
  3 11  1  0  0  0
 42 44  2  0  0  0
  4 11  2  0  0  0
  4 12  1  0  0  0
 43 44  1  0  0  0
 19 20  1  0  0  0
  1 12  1  0  0  0
 20 21  2  0  0  0
 20 25  1  0  0  0
 44 38  1  0  0  0
 21 22  1  0  0  0
 45 39  1  0  0  0
 45 47  1  0  0  0
 22 23  2  0  0  0
 50 49  1  0  0  0
 50 51  1  0  0  0
 50 52  1  0  0  0
 23 24  1  0  0  0
 24 25  2  0  0  0
 25 27  1  0  0  0
 27 28  2  0  0  0
 27 32  1  0  0  0
 28 29  1  0  0  0
 29 30  2  0  0  0
 30 31  1  0  0  0
 31 32  2  0  0  0
  5  6  2  0  0  0
  5  7  1  0  0  0
  6 10  1  0  0  0
  7  8  2  0  0  0
  8  9  1  0  0  0
  9 10  1  0  0  0
  9 12  2  0  0  0
 36 37  2  0  0  0
 36 41  1  0  0  0
 37 38  1  0  0  0
 38 39  2  0  0  0
 39 40  1  0  0  0
 40 41  2  0  0  0
 47 48  1  0  0  0
 47 53  1  0  0  0
 48 49  1  0  0  0
 55 56  2  0  0  0
 55 60  1  0  0  0
 56 57  1  0  0  0
 57 58  2  0  0  0
 58 59  1  0  0  0
 59 60  2  0  0  0
  1  2  1  0  0  0
 45 46  1  0  0  0
M  CHG 1  43  -1
M  CHG 1  44   1
M  END
> <minimizedAffinity>
-9.66989

$$$$
3QKD_HI0_A_218


 60 66  0  0  0  0  0  0  0  0999 V2000
  -12.0076  -15.3239   12.4681 N   0  0  0  0  0  0  0  0  0  0  0  0
  -11.4215  -16.0344   12.8158 H   0  0  0  0  0  0  0  0  0  0  0  0
  -11.2663  -11.3858   13.7166 N   0  0  0  0  0  0  0  0  0  0  0  0
  -12.5611  -13.3344   13.9501 N   0  0  0  0  0  0  0  0  0  0  0  0
   -8.6264  -11.6611   11.1685 C   0  0  0  0  0  0  0  0  0  0  0  0
   -9.4494  -11.1375   12.1842 C   0  0  0  0  0  0  0  0  0  0  0  0
   -8.8431  -12.9725   10.7390 C   0  0  0  0  0  0  0  0  0  0  0  0
   -9.8569  -13.7445   11.3012 C   0  0  0  0  0  0  0  0  0  0  0  0
  -10.6808  -13.2059   12.2984 C   0  0  0  0  0  0  0  0  0  0  0  0
  -10.4771  -11.9008   12.7457 C   0  0  0  0  0  0  0  0  0  0  0  0
  -12.2747  -12.0702   14.3002 C   0  0  0  0  0  0  0  0  0  0  0  0
  -11.7599  -13.9700   12.9019 C   0  0  0  0  0  0  0  0  0  0  0  0
   -5.7401  -10.7228    9.1185 C   0  0  0  0  0  0  0  0  0  0  0  0
   -5.4826   -9.3626    9.6531 N   0  0  0  0  0  0  0  0  0  0  0  0
   -6.7705   -8.6616    9.8396 C   0  0  0  0  0  0  0  0  0  0  0  0
   -7.6310  -10.9046   10.6228 N   0  0  0  0  0  0  0  0  0  0  0  0
   -7.6602   -9.4426   10.8103 C   0  0  0  0  0  0  0  0  0  0  0  0
   -6.3922  -11.5666   10.2010 C   0  0  0  0  0  0  0  0  0  0  0  0
   -4.5819   -8.5878    8.7797 C   0  0  0  0  0  0  0  0  0  0  0  0
   -3.2478   -8.3078    9.4782 C   0  0  0  0  0  0  0  0  0  0  0  0
   -2.1679   -9.1826    9.2614 C   0  0  0  0  0  0  0  0  0  0  0  0
   -0.9307   -8.9546    9.8684 C   0  0  0  0  0  0  0  0  0  0  0  0
   -0.7603   -7.8514   10.6967 C   0  0  0  0  0  0  0  0  0  0  0  0
   -1.8274   -6.9753   10.9203 C   0  0  0  0  0  0  0  0  0  0  0  0
   -3.0753   -7.1936   10.3197 C   0  0  0  0  0  0  0  0  0  0  0  0
   -7.1837   -3.0132   11.6356 Cl  0  0  0  0  0  0  0  0  0  0  0  0
   -4.1132   -6.2865   10.5701 C   0  0  0  0  0  0  0  0  0  0  0  0
   -4.3001   -5.1881    9.7204 C   0  0  0  0  0  0  0  0  0  0  0  0
   -5.2351   -4.1996   10.0482 C   0  0  0  0  0  0  0  0  0  0  0  0
   -5.9818   -4.2906   11.2267 C   0  0  0  0  0  0  0  0  0  0  0  0
   -5.7987   -5.3869   12.0797 C   0  0  0  0  0  0  0  0  0  0  0  0
   -4.8663   -6.3782   11.7534 C   0  0  0  0  0  0  0  0  0  0  0  0
  -12.8621  -15.2144   10.1574 O   0  0  0  0  0  0  0  0  0  0  0  0
  -13.2005  -15.7517   11.4353 S   0  0  0  0  0  0  0  0  0  0  0  0
  -14.4204  -15.3298   12.0496 O   0  0  0  0  0  0  0  0  0  0  0  0
  -13.2197  -17.4156   11.3628 C   0  0  0  0  0  0  0  0  0  0  0  0
  -14.4297  -18.0948   11.4420 C   0  0  0  0  0  0  0  0  0  0  0  0
  -14.5162  -19.4893   11.3913 C   0  0  0  0  0  0  0  0  0  0  0  0
  -13.3477  -20.2626   11.2524 C   0  0  0  0  0  0  0  0  0  0  0  0
  -12.1241  -19.5859   11.1719 C   0  0  0  0  0  0  0  0  0  0  0  0
  -12.0581  -18.1869   11.2271 C   0  0  0  0  0  0  0  0  0  0  0  0
  -16.0451  -20.8508   12.3520 O   0  0  0  0  0  0  0  0  0  0  0  0
  -16.6860  -19.7250   10.7368 O   0  0  0  0  0  0  0  0  0  0  0  0
  -15.7704  -20.0312   11.4867 N   0  0  0  0  0  0  0  0  0  0  0  0
  -13.4067  -21.6385   11.2058 N   0  0  0  0  0  0  0  0  0  0  0  0
  -13.3714  -22.1114   12.0685 H   0  0  0  0  0  0  0  0  0  0  0  0
  -13.5178  -22.4782    9.9932 C   0  0  0  0  0  0  0  0  0  0  0  0
  -13.5611  -23.9957   10.2658 C   0  0  0  0  0  0  0  0  0  0  0  0
  -13.6720  -24.4279   11.7337 C   0  0  0  0  0  0  0  0  0  0  0  0
  -12.4668  -24.1164   12.5333 N   0  0  0  0  0  0  0  0  0  0  0  0
  -11.5111  -25.2288   12.4327 C   0  0  0  0  0  0  0  0  0  0  0  0
  -12.7602  -23.9177   13.9623 C   0  0  0  0  0  0  0  0  0  0  0  0
  -12.4324  -22.2716    8.9268 C   0  0  0  0  0  0  0  0  0  0  0  0
  -11.4007  -23.6772    8.6288 S   0  0  0  0  0  0  0  0  0  0  0  0
   -9.8699  -23.4355    9.3166 C   0  0  0  0  0  0  0  0  0  0  0  0
   -8.7480  -24.0057    8.7090 C   0  0  0  0  0  0  0  0  0  0  0  0
   -7.4873  -23.8105    9.2762 C   0  0  0  0  0  0  0  0  0  0  0  0
   -7.3618  -23.0498   10.4351 C   0  0  0  0  0  0  0  0  0  0  0  0
   -8.4749  -22.4734   11.0363 C   0  0  0  0  0  0  0  0  0  0  0  0
   -9.7365  -22.6703   10.4788 C   0  0  0  0  0  0  0  0  0  0  0  0
 13 14  1  0  0  0
 13 18  1  0  0  0
 14 15  1  0  0  0
 14 19  1  0  0  0
 33 34  2  0  0  0
 34 35  2  0  0  0
 34  1  1  0  0  0
 34 36  1  0  0  0
 26 30  1  0  0  0
 15 17  1  0  0  0
 16 17  1  0  0  0
 16 18  1  0  0  0
 16  5  1  0  0  0
 54 53  1  0  0  0
 54 55  1  0  0  0
  3 10  2  0  0  0
  3 11  1  0  0  0
 42 44  2  0  0  0
  4 11  2  0  0  0
  4 12  1  0  0  0
 43 44  1  0  0  0
 19 20  1  0  0  0
  1 12  1  0  0  0
 20 21  2  0  0  0
 20 25  1  0  0  0
 44 38  1  0  0  0
 21 22  1  0  0  0
 45 39  1  0  0  0
 45 47  1  0  0  0
 22 23  2  0  0  0
 50 49  1  0  0  0
 50 51  1  0  0  0
 50 52  1  0  0  0
 23 24  1  0  0  0
 24 25  2  0  0  0
 25 27  1  0  0  0
 27 28  2  0  0  0
 27 32  1  0  0  0
 28 29  1  0  0  0
 29 30  2  0  0  0
 30 31  1  0  0  0
 31 32  2  0  0  0
  5  6  2  0  0  0
  5  7  1  0  0  0
  6 10  1  0  0  0
  7  8  2  0  0  0
  8  9  1  0  0  0
  9 10  1  0  0  0
  9 12  2  0  0  0
 36 37  2  0  0  0
 36 41  1  0  0  0
 37 38  1  0  0  0
 38 39  2  0  0  0
 39 40  1  0  0  0
 40 41  2  0  0  0
 47 48  1  0  0  0
 47 53  1  0  0  0
 48 49  1  0  0  0
 55 56  2  0  0  0
 55 60  1  0  0  0
 56 57  1  0  0  0
 57 58  2  0  0  0
 58 59  1  0  0  0
 59 60  2  0  0  0
  1  2  1  0  0  0
 45 46  1  0  0  0
M  CHG 1  43  -1
M  CHG 1  44   1
M  END
> <minimizedAffinity>
-9.60800

$$$$
3QKD_HI0_A_218


 60 66  0  0  0  0  0  0  0  0999 V2000
  -12.8655  -10.7894   12.1376 N   0  0  0  0  0  0  0  0  0  0  0  0
  -12.1442  -10.9313   12.7925 H   0  0  0  0  0  0  0  0  0  0  0  0
  -16.1876  -13.3498   12.2967 N   0  0  0  0  0  0  0  0  0  0  0  0
  -15.3686  -11.1480   12.3953 N   0  0  0  0  0  0  0  0  0  0  0  0
  -13.5686  -15.8791   11.7663 C   0  0  0  0  0  0  0  0  0  0  0  0
  -14.8326  -15.2894   11.9611 C   0  0  0  0  0  0  0  0  0  0  0  0
  -12.4455  -15.0514   11.6994 C   0  0  0  0  0  0  0  0  0  0  0  0
  -12.5736  -13.6705   11.8282 C   0  0  0  0  0  0  0  0  0  0  0  0
  -13.8344  -13.0974   12.0399 C   0  0  0  0  0  0  0  0  0  0  0  0
  -14.9691  -13.9055   12.1035 C   0  0  0  0  0  0  0  0  0  0  0  0
  -16.3876  -12.0212   12.4408 C   0  0  0  0  0  0  0  0  0  0  0  0
  -14.0126  -11.6632   12.1948 C   0  0  0  0  0  0  0  0  0  0  0  0
  -12.1501  -19.2485   11.9848 C   0  0  0  0  0  0  0  0  0  0  0  0
  -13.1541  -19.9971   11.1886 N   0  0  0  0  0  0  0  0  0  0  0  0
  -14.5082  -19.5226   11.5439 C   0  0  0  0  0  0  0  0  0  0  0  0
  -13.4464  -17.2315   11.6356 N   0  0  0  0  0  0  0  0  0  0  0  0
  -14.6325  -18.0231   11.2613 C   0  0  0  0  0  0  0  0  0  0  0  0
  -12.1051  -17.8089   11.5006 C   0  0  0  0  0  0  0  0  0  0  0  0
  -13.0377  -21.4541   11.3831 C   0  0  0  0  0  0  0  0  0  0  0  0
  -12.2280  -22.0953   10.2518 C   0  0  0  0  0  0  0  0  0  0  0  0
  -11.7753  -21.2861    9.1941 C   0  0  0  0  0  0  0  0  0  0  0  0
  -11.0220  -21.8294    8.1508 C   0  0  0  0  0  0  0  0  0  0  0  0
  -10.7137  -23.1848    8.1542 C   0  0  0  0  0  0  0  0  0  0  0  0
  -11.1593  -23.9991    9.2004 C   0  0  0  0  0  0  0  0  0  0  0  0
  -11.9185  -23.4677   10.2524 C   0  0  0  0  0  0  0  0  0  0  0  0
  -13.4568  -27.5001   14.4307 Cl  0  0  0  0  0  0  0  0  0  0  0  0
  -12.3391  -24.3216   11.2803 C   0  0  0  0  0  0  0  0  0  0  0  0
  -11.5079  -24.5447   12.3861 C   0  0  0  0  0  0  0  0  0  0  0  0
  -11.8541  -25.5089   13.3397 C   0  0  0  0  0  0  0  0  0  0  0  0
  -13.0215  -26.2643   13.1951 C   0  0  0  0  0  0  0  0  0  0  0  0
  -13.8560  -26.0452   12.0912 C   0  0  0  0  0  0  0  0  0  0  0  0
  -13.5138  -25.0801   11.1372 C   0  0  0  0  0  0  0  0  0  0  0  0
  -13.5484   -8.5168   11.4663 O   0  0  0  0  0  0  0  0  0  0  0  0
  -12.6888   -9.5785   11.0536 S   0  0  0  0  0  0  0  0  0  0  0  0
  -12.9039  -10.1680    9.7693 O   0  0  0  0  0  0  0  0  0  0  0  0
  -11.1009   -9.0804   11.1220 C   0  0  0  0  0  0  0  0  0  0  0  0
  -10.7047   -8.1735   12.0979 C   0  0  0  0  0  0  0  0  0  0  0  0
   -9.3897   -7.7119   12.2088 C   0  0  0  0  0  0  0  0  0  0  0  0
   -8.4053   -8.1684   11.3115 C   0  0  0  0  0  0  0  0  0  0  0  0
   -8.7961   -9.0825   10.3250 C   0  0  0  0  0  0  0  0  0  0  0  0
  -10.1205   -9.5315   10.2287 C   0  0  0  0  0  0  0  0  0  0  0  0
   -8.6308   -7.1674   14.2684 O   0  0  0  0  0  0  0  0  0  0  0  0
   -9.3781   -5.6203   13.1129 O   0  0  0  0  0  0  0  0  0  0  0  0
   -9.1358   -6.8145   13.2118 N   0  0  0  0  0  0  0  0  0  0  0  0
   -7.1038   -7.7238   11.3970 N   0  0  0  0  0  0  0  0  0  0  0  0
   -6.8466   -6.9919   10.7909 H   0  0  0  0  0  0  0  0  0  0  0  0
   -6.0534   -8.2327   12.3055 C   0  0  0  0  0  0  0  0  0  0  0  0
   -4.6316   -8.2294   11.7076 C   0  0  0  0  0  0  0  0  0  0  0  0
   -4.4118   -7.3625   10.4609 C   0  0  0  0  0  0  0  0  0  0  0  0
   -4.0033   -8.1370    9.2683 N   0  0  0  0  0  0  0  0  0  0  0  0
   -5.1778   -8.8104    8.6956 C   0  0  0  0  0  0  0  0  0  0  0  0
   -3.0058   -9.1765    9.5716 C   0  0  0  0  0  0  0  0  0  0  0  0
   -6.2721   -9.6452   12.8668 C   0  0  0  0  0  0  0  0  0  0  0  0
   -5.5861  -10.9513   11.8910 S   0  0  0  0  0  0  0  0  0  0  0  0
   -6.8234  -11.9358   11.2787 C   0  0  0  0  0  0  0  0  0  0  0  0
   -6.7858  -12.3292    9.9383 C   0  0  0  0  0  0  0  0  0  0  0  0
   -7.8059  -13.1369    9.4318 C   0  0  0  0  0  0  0  0  0  0  0  0
   -8.8438  -13.5428   10.2657 C   0  0  0  0  0  0  0  0  0  0  0  0
   -8.8786  -13.1609   11.6020 C   0  0  0  0  0  0  0  0  0  0  0  0
   -7.8672  -12.3492   12.1115 C   0  0  0  0  0  0  0  0  0  0  0  0
 13 14  1  0  0  0
 13 18  1  0  0  0
 14 15  1  0  0  0
 14 19  1  0  0  0
 33 34  2  0  0  0
 34 35  2  0  0  0
 34  1  1  0  0  0
 34 36  1  0  0  0
 26 30  1  0  0  0
 15 17  1  0  0  0
 16 17  1  0  0  0
 16 18  1  0  0  0
 16  5  1  0  0  0
 54 53  1  0  0  0
 54 55  1  0  0  0
  3 10  2  0  0  0
  3 11  1  0  0  0
 42 44  2  0  0  0
  4 11  2  0  0  0
  4 12  1  0  0  0
 43 44  1  0  0  0
 19 20  1  0  0  0
  1 12  1  0  0  0
 20 21  2  0  0  0
 20 25  1  0  0  0
 44 38  1  0  0  0
 21 22  1  0  0  0
 45 39  1  0  0  0
 45 47  1  0  0  0
 22 23  2  0  0  0
 50 49  1  0  0  0
 50 51  1  0  0  0
 50 52  1  0  0  0
 23 24  1  0  0  0
 24 25  2  0  0  0
 25 27  1  0  0  0
 27 28  2  0  0  0
 27 32  1  0  0  0
 28 29  1  0  0  0
 29 30  2  0  0  0
 30 31  1  0  0  0
 31 32  2  0  0  0
  5  6  2  0  0  0
  5  7  1  0  0  0
  6 10  1  0  0  0
  7  8  2  0  0  0
  8  9  1  0  0  0
  9 10  1  0  0  0
  9 12  2  0  0  0
 36 37  2  0  0  0
 36 41  1  0  0  0
 37 38  1  0  0  0
 38 39  2  0  0  0
 39 40  1  0  0  0
 40 41  2  0  0  0
 47 48  1  0  0  0
 47 53  1  0  0  0
 48 49  1  0  0  0
 55 56  2  0  0  0
 55 60  1  0  0  0
 56 57  1  0  0  0
 57 58  2  0  0  0
 58 59  1  0  0  0
 59 60  2  0  0  0
  1  2  1  0  0  0
 45 46  1  0  0  0
M  CHG 1  43  -1
M  CHG 1  44   1
M  END
> <minimizedAffinity>
-9.21945

$$$$
3QKD_HI0_A_218


 60 66  0  0  0  0  0  0  0  0999 V2000
  -14.8343  -16.6878   11.5459 N   0  0  0  0  0  0  0  0  0  0  0  0
  -14.2138  -17.1307   10.9230 H   0  0  0  0  0  0  0  0  0  0  0  0
  -14.3459  -12.5687   12.1874 N   0  0  0  0  0  0  0  0  0  0  0  0
  -15.8199  -14.3926   12.0159 N   0  0  0  0  0  0  0  0  0  0  0  0
  -10.8103  -13.4765   11.7260 C   0  0  0  0  0  0  0  0  0  0  0  0
  -11.9716  -12.7149   11.9596 C   0  0  0  0  0  0  0  0  0  0  0  0
  -10.9406  -14.8517   11.5187 C   0  0  0  0  0  0  0  0  0  0  0  0
  -12.1953  -15.4560   11.5377 C   0  0  0  0  0  0  0  0  0  0  0  0
  -13.3448  -14.6844   11.7531 C   0  0  0  0  0  0  0  0  0  0  0  0
  -13.2360  -13.3109   11.9684 C   0  0  0  0  0  0  0  0  0  0  0  0
  -15.5953  -13.0829   12.2092 C   0  0  0  0  0  0  0  0  0  0  0  0
  -14.6748  -15.2706   11.7661 C   0  0  0  0  0  0  0  0  0  0  0  0
   -7.8003  -11.7574   12.9082 C   0  0  0  0  0  0  0  0  0  0  0  0
   -7.1248  -11.5100   11.6102 N   0  0  0  0  0  0  0  0  0  0  0  0
   -7.2473  -12.7137   10.7611 C   0  0  0  0  0  0  0  0  0  0  0  0
   -9.5821  -12.8831   11.7127 N   0  0  0  0  0  0  0  0  0  0  0  0
   -8.7234  -13.0446   10.5252 C   0  0  0  0  0  0  0  0  0  0  0  0
   -9.3017  -11.8197   12.6829 C   0  0  0  0  0  0  0  0  0  0  0  0
   -5.7108  -11.1310   11.7873 C   0  0  0  0  0  0  0  0  0  0  0  0
   -5.3533   -9.9240   10.9145 C   0  0  0  0  0  0  0  0  0  0  0  0
   -4.4605  -10.0989    9.8418 C   0  0  0  0  0  0  0  0  0  0  0  0
   -4.1199   -9.0268    9.0136 C   0  0  0  0  0  0  0  0  0  0  0  0
   -4.6675   -7.7711    9.2487 C   0  0  0  0  0  0  0  0  0  0  0  0
   -5.5557   -7.5853   10.3130 C   0  0  0  0  0  0  0  0  0  0  0  0
   -5.9042   -8.6517   11.1537 C   0  0  0  0  0  0  0  0  0  0  0  0
   -9.6879   -7.1517   15.5717 Cl  0  0  0  0  0  0  0  0  0  0  0  0
   -6.8009   -8.4183   12.2044 C   0  0  0  0  0  0  0  0  0  0  0  0
   -8.1574   -8.2002   11.9287 C   0  0  0  0  0  0  0  0  0  0  0  0
   -9.0285   -7.8184   12.9555 C   0  0  0  0  0  0  0  0  0  0  0  0
   -8.5558   -7.6406   14.2591 C   0  0  0  0  0  0  0  0  0  0  0  0
   -7.2005   -7.8573   14.5400 C   0  0  0  0  0  0  0  0  0  0  0  0
   -6.3273   -8.2415   13.5160 C   0  0  0  0  0  0  0  0  0  0  0  0
  -17.2262  -17.2790   11.6501 O   0  0  0  0  0  0  0  0  0  0  0  0
  -15.9808  -17.6040   12.2662 S   0  0  0  0  0  0  0  0  0  0  0  0
  -15.8371  -17.3789   13.6705 O   0  0  0  0  0  0  0  0  0  0  0  0
  -15.6006  -19.1980   11.9679 C   0  0  0  0  0  0  0  0  0  0  0  0
  -14.5163  -19.7802   12.6136 C   0  0  0  0  0  0  0  0  0  0  0  0
  -14.1407  -21.1107   12.4061 C   0  0  0  0  0  0  0  0  0  0  0  0
  -14.8731  -21.9181   11.5148 C   0  0  0  0  0  0  0  0  0  0  0  0
  -15.9674  -21.3392   10.8600 C   0  0  0  0  0  0  0  0  0  0  0  0
  -16.3265  -20.0022   11.0798 C   0  0  0  0  0  0  0  0  0  0  0  0
  -13.1613  -22.3609   14.0160 O   0  0  0  0  0  0  0  0  0  0  0  0
  -11.9071  -21.1991   12.8481 O   0  0  0  0  0  0  0  0  0  0  0  0
  -13.0483  -21.5567   13.1015 N   0  0  0  0  0  0  0  0  0  0  0  0
  -14.5192  -23.2306   11.2893 N   0  0  0  0  0  0  0  0  0  0  0  0
  -14.7570  -23.8788   11.9911 H   0  0  0  0  0  0  0  0  0  0  0  0
  -13.8188  -23.7661   10.1017 C   0  0  0  0  0  0  0  0  0  0  0  0
  -13.1409  -25.1343   10.3196 C   0  0  0  0  0  0  0  0  0  0  0  0
  -13.7904  -26.0674   11.3499 C   0  0  0  0  0  0  0  0  0  0  0  0
  -12.9547  -26.2951   12.5493 N   0  0  0  0  0  0  0  0  0  0  0  0
  -13.7010  -25.8927   13.7501 C   0  0  0  0  0  0  0  0  0  0  0  0
  -11.7015  -25.5225   12.5320 C   0  0  0  0  0  0  0  0  0  0  0  0
  -12.7466  -22.8574    9.4831 C   0  0  0  0  0  0  0  0  0  0  0  0
  -11.4561  -23.7051    8.6201 S   0  0  0  0  0  0  0  0  0  0  0  0
   -9.9571  -23.3790    9.3424 C   0  0  0  0  0  0  0  0  0  0  0  0
   -9.9199  -22.8642   10.6410 C   0  0  0  0  0  0  0  0  0  0  0  0
   -8.6864  -22.5918   11.2356 C   0  0  0  0  0  0  0  0  0  0  0  0
   -7.5111  -22.8385   10.5319 C   0  0  0  0  0  0  0  0  0  0  0  0
   -7.5448  -23.3597    9.2436 C   0  0  0  0  0  0  0  0  0  0  0  0
   -8.7730  -23.6271    8.6423 C   0  0  0  0  0  0  0  0  0  0  0  0
 13 14  1  0  0  0
 13 18  1  0  0  0
 14 15  1  0  0  0
 14 19  1  0  0  0
 33 34  2  0  0  0
 34 35  2  0  0  0
 34  1  1  0  0  0
 34 36  1  0  0  0
 26 30  1  0  0  0
 15 17  1  0  0  0
 16 17  1  0  0  0
 16 18  1  0  0  0
 16  5  1  0  0  0
 54 53  1  0  0  0
 54 55  1  0  0  0
  3 10  2  0  0  0
  3 11  1  0  0  0
 42 44  2  0  0  0
  4 11  2  0  0  0
  4 12  1  0  0  0
 43 44  1  0  0  0
 19 20  1  0  0  0
  1 12  1  0  0  0
 20 21  2  0  0  0
 20 25  1  0  0  0
 44 38  1  0  0  0
 21 22  1  0  0  0
 45 39  1  0  0  0
 45 47  1  0  0  0
 22 23  2  0  0  0
 50 49  1  0  0  0
 50 51  1  0  0  0
 50 52  1  0  0  0
 23 24  1  0  0  0
 24 25  2  0  0  0
 25 27  1  0  0  0
 27 28  2  0  0  0
 27 32  1  0  0  0
 28 29  1  0  0  0
 29 30  2  0  0  0
 30 31  1  0  0  0
 31 32  2  0  0  0
  5  6  2  0  0  0
  5  7  1  0  0  0
  6 10  1  0  0  0
  7  8  2  0  0  0
  8  9  1  0  0  0
  9 10  1  0  0  0
  9 12  2  0  0  0
 36 37  2  0  0  0
 36 41  1  0  0  0
 37 38  1  0  0  0
 38 39  2  0  0  0
 39 40  1  0  0  0
 40 41  2  0  0  0
 47 48  1  0  0  0
 47 53  1  0  0  0
 48 49  1  0  0  0
 55 56  2  0  0  0
 55 60  1  0  0  0
 56 57  1  0  0  0
 57 58  2  0  0  0
 58 59  1  0  0  0
 59 60  2  0  0  0
  1  2  1  0  0  0
 45 46  1  0  0  0
M  CHG 1  43  -1
M  CHG 1  44   1
M  END
> <minimizedAffinity>
-9.19793

$$$$
3QKD_HI0_A_218


 60 66  0  0  0  0  0  0  0  0999 V2000
  -12.6938  -15.7633   11.3716 N   0  0  0  0  0  0  0  0  0  0  0  0
  -12.6446  -16.1567   10.4704 H   0  0  0  0  0  0  0  0  0  0  0  0
  -12.7758  -11.5789   11.6894 N   0  0  0  0  0  0  0  0  0  0  0  0
  -13.9834  -13.5963   11.6904 N   0  0  0  0  0  0  0  0  0  0  0  0
   -9.1544  -12.0236   11.2147 C   0  0  0  0  0  0  0  0  0  0  0  0
  -10.4073  -11.4135   11.4175 C   0  0  0  0  0  0  0  0  0  0  0  0
   -9.0945  -13.4156   11.1147 C   0  0  0  0  0  0  0  0  0  0  0  0
  -10.2525  -14.1838   11.2086 C   0  0  0  0  0  0  0  0  0  0  0  0
  -11.4954  -13.5636   11.3923 C   0  0  0  0  0  0  0  0  0  0  0  0
  -11.5762  -12.1757   11.5009 C   0  0  0  0  0  0  0  0  0  0  0  0
  -13.9410  -12.2572   11.7792 C   0  0  0  0  0  0  0  0  0  0  0  0
  -12.7305  -14.3248   11.4806 C   0  0  0  0  0  0  0  0  0  0  0  0
   -5.9500  -10.5007   12.1234 C   0  0  0  0  0  0  0  0  0  0  0  0
   -5.7838   -9.5641   10.9844 N   0  0  0  0  0  0  0  0  0  0  0  0
   -6.1796  -10.2448    9.7334 C   0  0  0  0  0  0  0  0  0  0  0  0
   -8.0210  -11.2693   11.1280 N   0  0  0  0  0  0  0  0  0  0  0  0
   -7.6374  -10.7039    9.8216 C   0  0  0  0  0  0  0  0  0  0  0  0
   -7.4323  -10.7361   12.3607 C   0  0  0  0  0  0  0  0  0  0  0  0
   -4.4056   -9.0480   10.8908 C   0  0  0  0  0  0  0  0  0  0  0  0
   -4.3954   -7.5170   10.8456 C   0  0  0  0  0  0  0  0  0  0  0  0
   -5.5850   -6.8188   11.1210 C   0  0  0  0  0  0  0  0  0  0  0  0
   -5.6142   -5.4224   11.1041 C   0  0  0  0  0  0  0  0  0  0  0  0
   -4.4565   -4.7106   10.8125 C   0  0  0  0  0  0  0  0  0  0  0  0
   -3.2680   -5.3943   10.5362 C   0  0  0  0  0  0  0  0  0  0  0  0
   -3.2250   -6.7956   10.5470 C   0  0  0  0  0  0  0  0  0  0  0  0
    1.7306   -9.9857    9.3848 Cl  0  0  0  0  0  0  0  0  0  0  0  0
   -2.0108   -7.4362   10.2680 C   0  0  0  0  0  0  0  0  0  0  0  0
   -1.7101   -7.8201    8.9543 C   0  0  0  0  0  0  0  0  0  0  0  0
   -0.5720   -8.5916    8.6928 C   0  0  0  0  0  0  0  0  0  0  0  0
    0.2678   -8.9953    9.7351 C   0  0  0  0  0  0  0  0  0  0  0  0
   -0.0284   -8.6141   11.0504 C   0  0  0  0  0  0  0  0  0  0  0  0
   -1.1644   -7.8407   11.3148 C   0  0  0  0  0  0  0  0  0  0  0  0
  -13.8082  -16.3660   13.4874 O   0  0  0  0  0  0  0  0  0  0  0  0
  -12.7290  -16.7806   12.6508 S   0  0  0  0  0  0  0  0  0  0  0  0
  -11.4064  -16.7741   13.1930 O   0  0  0  0  0  0  0  0  0  0  0  0
  -13.0259  -18.3093   12.0598 C   0  0  0  0  0  0  0  0  0  0  0  0
  -14.2856  -18.8755   12.2152 C   0  0  0  0  0  0  0  0  0  0  0  0
  -14.6004  -20.1545   11.7466 C   0  0  0  0  0  0  0  0  0  0  0  0
  -13.6231  -20.9220   11.0846 C   0  0  0  0  0  0  0  0  0  0  0  0
  -12.3509  -20.3588   10.9236 C   0  0  0  0  0  0  0  0  0  0  0  0
  -12.0542  -19.0755   11.4030 C   0  0  0  0  0  0  0  0  0  0  0  0
  -16.6130  -20.9129   11.0475 O   0  0  0  0  0  0  0  0  0  0  0  0
  -16.3535  -20.7110   13.0917 O   0  0  0  0  0  0  0  0  0  0  0  0
  -15.8778  -20.5945   11.9716 N   0  0  0  0  0  0  0  0  0  0  0  0
  -13.9075  -22.1873   10.6187 N   0  0  0  0  0  0  0  0  0  0  0  0
  -14.4522  -22.2444    9.8006 H   0  0  0  0  0  0  0  0  0  0  0  0
  -13.4789  -23.4684   11.2209 C   0  0  0  0  0  0  0  0  0  0  0  0
  -12.7695  -23.3310   12.5836 C   0  0  0  0  0  0  0  0  0  0  0  0
  -13.5859  -23.7123   13.8254 C   0  0  0  0  0  0  0  0  0  0  0  0
  -13.3004  -25.0760   14.3234 N   0  0  0  0  0  0  0  0  0  0  0  0
  -11.8876  -25.4008   14.0794 C   0  0  0  0  0  0  0  0  0  0  0  0
  -14.1098  -26.1116   13.6600 C   0  0  0  0  0  0  0  0  0  0  0  0
  -12.5653  -24.3490   10.3562 C   0  0  0  0  0  0  0  0  0  0  0  0
  -11.6898  -23.4912    9.0808 S   0  0  0  0  0  0  0  0  0  0  0  0
  -10.0403  -23.4009    9.4626 C   0  0  0  0  0  0  0  0  0  0  0  0
   -9.6432  -22.7555   10.6368 C   0  0  0  0  0  0  0  0  0  0  0  0
   -8.2850  -22.6772   10.9506 C   0  0  0  0  0  0  0  0  0  0  0  0
   -7.3447  -23.2440   10.0949 C   0  0  0  0  0  0  0  0  0  0  0  0
   -7.7376  -23.8951    8.9311 C   0  0  0  0  0  0  0  0  0  0  0  0
   -9.0911  -23.9704    8.6091 C   0  0  0  0  0  0  0  0  0  0  0  0
 13 14  1  0  0  0
 13 18  1  0  0  0
 14 15  1  0  0  0
 14 19  1  0  0  0
 33 34  2  0  0  0
 34 35  2  0  0  0
 34  1  1  0  0  0
 34 36  1  0  0  0
 26 30  1  0  0  0
 15 17  1  0  0  0
 16 17  1  0  0  0
 16 18  1  0  0  0
 16  5  1  0  0  0
 54 53  1  0  0  0
 54 55  1  0  0  0
  3 10  2  0  0  0
  3 11  1  0  0  0
 42 44  2  0  0  0
  4 11  2  0  0  0
  4 12  1  0  0  0
 43 44  1  0  0  0
 19 20  1  0  0  0
  1 12  1  0  0  0
 20 21  2  0  0  0
 20 25  1  0  0  0
 44 38  1  0  0  0
 21 22  1  0  0  0
 45 39  1  0  0  0
 45 47  1  0  0  0
 22 23  2  0  0  0
 50 49  1  0  0  0
 50 51  1  0  0  0
 50 52  1  0  0  0
 23 24  1  0  0  0
 24 25  2  0  0  0
 25 27  1  0  0  0
 27 28  2  0  0  0
 27 32  1  0  0  0
 28 29  1  0  0  0
 29 30  2  0  0  0
 30 31  1  0  0  0
 31 32  2  0  0  0
  5  6  2  0  0  0
  5  7  1  0  0  0
  6 10  1  0  0  0
  7  8  2  0  0  0
  8  9  1  0  0  0
  9 10  1  0  0  0
  9 12  2  0  0  0
 36 37  2  0  0  0
 36 41  1  0  0  0
 37 38  1  0  0  0
 38 39  2  0  0  0
 39 40  1  0  0  0
 40 41  2  0  0  0
 47 48  1  0  0  0
 47 53  1  0  0  0
 48 49  1  0  0  0
 55 56  2  0  0  0
 55 60  1  0  0  0
 56 57  1  0  0  0
 57 58  2  0  0  0
 58 59  1  0  0  0
 59 60  2  0  0  0
  1  2  1  0  0  0
 45 46  1  0  0  0
M  CHG 1  43  -1
M  CHG 1  44   1
M  END
> <minimizedAffinity>
-9.16218

$$$$
3QKD_HI0_A_218


 60 66  0  0  0  0  0  0  0  0999 V2000
  -16.1057  -17.1236   12.9084 N   0  0  0  0  0  0  0  0  0  0  0  0
  -15.1808  -17.4562   12.9642 H   0  0  0  0  0  0  0  0  0  0  0  0
  -16.7676  -13.0611   13.7304 N   0  0  0  0  0  0  0  0  0  0  0  0
  -17.5355  -15.2761   13.9100 N   0  0  0  0  0  0  0  0  0  0  0  0
  -13.5462  -12.7504   11.9800 C   0  0  0  0  0  0  0  0  0  0  0  0
  -14.7233  -12.4134   12.6758 C   0  0  0  0  0  0  0  0  0  0  0  0
  -13.2940  -14.0956   11.7006 C   0  0  0  0  0  0  0  0  0  0  0  0
  -14.1923  -15.0829   12.0982 C   0  0  0  0  0  0  0  0  0  0  0  0
  -15.3689  -14.7331   12.7738 C   0  0  0  0  0  0  0  0  0  0  0  0
  -15.6364  -13.3965   13.0679 C   0  0  0  0  0  0  0  0  0  0  0  0
  -17.6891  -13.9617   14.1373 C   0  0  0  0  0  0  0  0  0  0  0  0
  -16.3411  -15.7286   13.1937 C   0  0  0  0  0  0  0  0  0  0  0  0
  -12.2000   -9.4438   11.1629 C   0  0  0  0  0  0  0  0  0  0  0  0
  -10.8720   -9.8368   10.6297 N   0  0  0  0  0  0  0  0  0  0  0  0
  -10.3004  -10.8995   11.4835 C   0  0  0  0  0  0  0  0  0  0  0  0
  -12.6655  -11.7820   11.5960 N   0  0  0  0  0  0  0  0  0  0  0  0
  -11.2318  -12.1142   11.5080 C   0  0  0  0  0  0  0  0  0  0  0  0
  -13.1830  -10.5798   10.9344 C   0  0  0  0  0  0  0  0  0  0  0  0
   -9.9540   -8.6870   10.5329 C   0  0  0  0  0  0  0  0  0  0  0  0
   -8.7666   -9.0088    9.6202 C   0  0  0  0  0  0  0  0  0  0  0  0
   -9.0154   -9.4694    8.3146 C   0  0  0  0  0  0  0  0  0  0  0  0
   -7.9606   -9.7603    7.4464 C   0  0  0  0  0  0  0  0  0  0  0  0
   -6.6483   -9.5939    7.8735 C   0  0  0  0  0  0  0  0  0  0  0  0
   -6.3890   -9.1375    9.1699 C   0  0  0  0  0  0  0  0  0  0  0  0
   -7.4380   -8.8443   10.0526 C   0  0  0  0  0  0  0  0  0  0  0  0
   -6.6094   -6.9287   15.6855 Cl  0  0  0  0  0  0  0  0  0  0  0  0
   -7.1293   -8.3860   11.3399 C   0  0  0  0  0  0  0  0  0  0  0  0
   -6.9023   -9.3058   12.3724 C   0  0  0  0  0  0  0  0  0  0  0  0
   -6.7429   -8.8569   13.6884 C   0  0  0  0  0  0  0  0  0  0  0  0
   -6.8189   -7.4935   13.9883 C   0  0  0  0  0  0  0  0  0  0  0  0
   -7.0456   -6.5697   12.9596 C   0  0  0  0  0  0  0  0  0  0  0  0
   -7.2030   -7.0152   11.6424 C   0  0  0  0  0  0  0  0  0  0  0  0
  -17.9301  -17.6659   11.3403 O   0  0  0  0  0  0  0  0  0  0  0  0
  -17.2787  -18.1860   12.4985 S   0  0  0  0  0  0  0  0  0  0  0  0
  -18.0543  -18.3890   13.6820 O   0  0  0  0  0  0  0  0  0  0  0  0
  -16.5330  -19.6287   12.1288 C   0  0  0  0  0  0  0  0  0  0  0  0
  -15.3674  -19.9919   12.7930 C   0  0  0  0  0  0  0  0  0  0  0  0
  -14.6898  -21.1858   12.5286 C   0  0  0  0  0  0  0  0  0  0  0  0
  -15.1858  -22.0767   11.5575 C   0  0  0  0  0  0  0  0  0  0  0  0
  -16.3600  -21.7182   10.8834 C   0  0  0  0  0  0  0  0  0  0  0  0
  -17.0235  -20.5152   11.1613 C   0  0  0  0  0  0  0  0  0  0  0  0
  -13.2989  -22.5257   13.7052 O   0  0  0  0  0  0  0  0  0  0  0  0
  -12.7137  -20.5536   13.4706 O   0  0  0  0  0  0  0  0  0  0  0  0
  -13.5494  -21.4182   13.2505 N   0  0  0  0  0  0  0  0  0  0  0  0
  -14.5327  -23.2567   11.2751 N   0  0  0  0  0  0  0  0  0  0  0  0
  -14.5939  -23.9683   11.9527 H   0  0  0  0  0  0  0  0  0  0  0  0
  -13.7492  -23.5646   10.0590 C   0  0  0  0  0  0  0  0  0  0  0  0
  -12.8347  -24.8007   10.1810 C   0  0  0  0  0  0  0  0  0  0  0  0
  -12.3997  -25.1971   11.5980 C   0  0  0  0  0  0  0  0  0  0  0  0
  -13.0749  -26.4123   12.1042 N   0  0  0  0  0  0  0  0  0  0  0  0
  -12.0977  -27.2619   12.8000 C   0  0  0  0  0  0  0  0  0  0  0  0
  -13.6779  -27.2233   11.0336 C   0  0  0  0  0  0  0  0  0  0  0  0
  -12.8600  -22.4328    9.5238 C   0  0  0  0  0  0  0  0  0  0  0  0
  -11.6034  -22.9433    8.3884 S   0  0  0  0  0  0  0  0  0  0  0  0
  -10.1166  -23.0924    9.1897 C   0  0  0  0  0  0  0  0  0  0  0  0
   -9.9257  -22.4343   10.4076 C   0  0  0  0  0  0  0  0  0  0  0  0
   -8.7006  -22.5533   11.0668 C   0  0  0  0  0  0  0  0  0  0  0  0
   -7.6875  -23.3264   10.5070 C   0  0  0  0  0  0  0  0  0  0  0  0
   -7.8780  -23.9901    9.3004 C   0  0  0  0  0  0  0  0  0  0  0  0
   -9.0959  -23.8696    8.6345 C   0  0  0  0  0  0  0  0  0  0  0  0
 13 14  1  0  0  0
 13 18  1  0  0  0
 14 15  1  0  0  0
 14 19  1  0  0  0
 33 34  2  0  0  0
 34 35  2  0  0  0
 34  1  1  0  0  0
 34 36  1  0  0  0
 26 30  1  0  0  0
 15 17  1  0  0  0
 16 17  1  0  0  0
 16 18  1  0  0  0
 16  5  1  0  0  0
 54 53  1  0  0  0
 54 55  1  0  0  0
  3 10  2  0  0  0
  3 11  1  0  0  0
 42 44  2  0  0  0
  4 11  2  0  0  0
  4 12  1  0  0  0
 43 44  1  0  0  0
 19 20  1  0  0  0
  1 12  1  0  0  0
 20 21  2  0  0  0
 20 25  1  0  0  0
 44 38  1  0  0  0
 21 22  1  0  0  0
 45 39  1  0  0  0
 45 47  1  0  0  0
 22 23  2  0  0  0
 50 49  1  0  0  0
 50 51  1  0  0  0
 50 52  1  0  0  0
 23 24  1  0  0  0
 24 25  2  0  0  0
 25 27  1  0  0  0
 27 28  2  0  0  0
 27 32  1  0  0  0
 28 29  1  0  0  0
 29 30  2  0  0  0
 30 31  1  0  0  0
 31 32  2  0  0  0
  5  6  2  0  0  0
  5  7  1  0  0  0
  6 10  1  0  0  0
  7  8  2  0  0  0
  8  9  1  0  0  0
  9 10  1  0  0  0
  9 12  2  0  0  0
 36 37  2  0  0  0
 36 41  1  0  0  0
 37 38  1  0  0  0
 38 39  2  0  0  0
 39 40  1  0  0  0
 40 41  2  0  0  0
 47 48  1  0  0  0
 47 53  1  0  0  0
 48 49  1  0  0  0
 55 56  2  0  0  0
 55 60  1  0  0  0
 56 57  1  0  0  0
 57 58  2  0  0  0
 58 59  1  0  0  0
 59 60  2  0  0  0
  1  2  1  0  0  0
 45 46  1  0  0  0
M  CHG 1  43  -1
M  CHG 1  44   1
M  END
> <minimizedAffinity>
-9.13946

$$$$
3QKD_HI0_A_218


 60 66  0  0  0  0  0  0  0  0999 V2000
  -15.6539  -17.4479   12.6421 N   0  0  0  0  0  0  0  0  0  0  0  0
  -15.8298  -16.8839   13.4295 H   0  0  0  0  0  0  0  0  0  0  0  0
  -11.9335  -17.0421   10.7416 N   0  0  0  0  0  0  0  0  0  0  0  0
  -13.6531  -18.4763   11.4590 N   0  0  0  0  0  0  0  0  0  0  0  0
  -12.5460  -13.4973   11.5144 C   0  0  0  0  0  0  0  0  0  0  0  0
  -11.9309  -14.6707   11.0366 C   0  0  0  0  0  0  0  0  0  0  0  0
  -13.7893  -13.5999   12.1428 C   0  0  0  0  0  0  0  0  0  0  0  0
  -14.4053  -14.8394   12.2979 C   0  0  0  0  0  0  0  0  0  0  0  0
  -13.7747  -16.0016   11.8345 C   0  0  0  0  0  0  0  0  0  0  0  0
  -12.5362  -15.9202   11.1988 C   0  0  0  0  0  0  0  0  0  0  0  0
  -12.4648  -18.2783   10.8658 C   0  0  0  0  0  0  0  0  0  0  0  0
  -14.3739  -17.3168   11.9886 C   0  0  0  0  0  0  0  0  0  0  0  0
   -9.9246  -10.9934   10.9925 C   0  0  0  0  0  0  0  0  0  0  0  0
  -10.7115   -9.7547   11.2130 N   0  0  0  0  0  0  0  0  0  0  0  0
  -12.0268   -9.8901   10.5522 C   0  0  0  0  0  0  0  0  0  0  0  0
  -11.9428  -12.2840   11.3569 N   0  0  0  0  0  0  0  0  0  0  0  0
  -12.7813  -11.0945   11.1213 C   0  0  0  0  0  0  0  0  0  0  0  0
  -10.5498  -12.1272   11.7879 C   0  0  0  0  0  0  0  0  0  0  0  0
  -10.0002   -8.5560   10.7317 C   0  0  0  0  0  0  0  0  0  0  0  0
   -8.9019   -8.9343    9.7332 C   0  0  0  0  0  0  0  0  0  0  0  0
   -9.2703   -9.3858    8.4530 C   0  0  0  0  0  0  0  0  0  0  0  0
   -8.2992   -9.7270    7.5088 C   0  0  0  0  0  0  0  0  0  0  0  0
   -6.9520   -9.6202    7.8339 C   0  0  0  0  0  0  0  0  0  0  0  0
   -6.5739   -9.1733    9.1041 C   0  0  0  0  0  0  0  0  0  0  0  0
   -7.5381   -8.8301   10.0623 C   0  0  0  0  0  0  0  0  0  0  0  0
   -6.2005   -6.8495   15.5736 Cl  0  0  0  0  0  0  0  0  0  0  0  0
   -7.1114   -8.3836   11.3198 C   0  0  0  0  0  0  0  0  0  0  0  0
   -7.0705   -9.2753   12.4000 C   0  0  0  0  0  0  0  0  0  0  0  0
   -6.7911   -8.8037   13.6878 C   0  0  0  0  0  0  0  0  0  0  0  0
   -6.5616   -7.4430   13.9120 C   0  0  0  0  0  0  0  0  0  0  0  0
   -6.6014   -6.5473   12.8354 C   0  0  0  0  0  0  0  0  0  0  0  0
   -6.8781   -7.0161   11.5462 C   0  0  0  0  0  0  0  0  0  0  0  0
  -17.2573  -18.0425   10.8653 O   0  0  0  0  0  0  0  0  0  0  0  0
  -16.8300  -18.4743   12.1565 S   0  0  0  0  0  0  0  0  0  0  0  0
  -17.7885  -18.5014   13.2167 O   0  0  0  0  0  0  0  0  0  0  0  0
  -16.1505  -19.9913   12.0500 C   0  0  0  0  0  0  0  0  0  0  0  0
  -15.5308  -20.5483   13.1624 C   0  0  0  0  0  0  0  0  0  0  0  0
  -14.9380  -21.8143   13.1402 C   0  0  0  0  0  0  0  0  0  0  0  0
  -14.9563  -22.5796   11.9584 C   0  0  0  0  0  0  0  0  0  0  0  0
  -15.5789  -22.0257   10.8328 C   0  0  0  0  0  0  0  0  0  0  0  0
  -16.1655  -20.7533   10.8746 C   0  0  0  0  0  0  0  0  0  0  0  0
  -14.9918  -22.8658   15.1416 O   0  0  0  0  0  0  0  0  0  0  0  0
  -13.1795  -22.0429   14.5711 O   0  0  0  0  0  0  0  0  0  0  0  0
  -14.3560  -22.2410   14.3042 N   0  0  0  0  0  0  0  0  0  0  0  0
  -14.3739  -23.8275   11.9100 N   0  0  0  0  0  0  0  0  0  0  0  0
  -14.2919  -24.3098   12.7644 H   0  0  0  0  0  0  0  0  0  0  0  0
  -13.8594  -24.5172   10.7070 C   0  0  0  0  0  0  0  0  0  0  0  0
  -13.5609  -26.0173   10.9061 C   0  0  0  0  0  0  0  0  0  0  0  0
  -14.0875  -26.6579   12.1971 C   0  0  0  0  0  0  0  0  0  0  0  0
  -13.0350  -27.3193   12.9994 N   0  0  0  0  0  0  0  0  0  0  0  0
  -13.4444  -27.3544   14.4109 C   0  0  0  0  0  0  0  0  0  0  0  0
  -11.7397  -26.6223   12.9354 C   0  0  0  0  0  0  0  0  0  0  0  0
  -12.5971  -23.9162   10.0719 C   0  0  0  0  0  0  0  0  0  0  0  0
  -11.3916  -23.3234   11.2226 S   0  0  0  0  0  0  0  0  0  0  0  0
   -9.8519  -23.3303   10.5123 C   0  0  0  0  0  0  0  0  0  0  0  0
   -8.7927  -22.6957   11.1667 C   0  0  0  0  0  0  0  0  0  0  0  0
   -7.5252  -22.6975   10.5813 C   0  0  0  0  0  0  0  0  0  0  0  0
   -7.3305  -23.3323    9.3579 C   0  0  0  0  0  0  0  0  0  0  0  0
   -8.3802  -23.9727    8.7094 C   0  0  0  0  0  0  0  0  0  0  0  0
   -9.6489  -23.9684    9.2853 C   0  0  0  0  0  0  0  0  0  0  0  0
 13 14  1  0  0  0
 13 18  1  0  0  0
 14 15  1  0  0  0
 14 19  1  0  0  0
 33 34  2  0  0  0
 34 35  2  0  0  0
 34  1  1  0  0  0
 34 36  1  0  0  0
 26 30  1  0  0  0
 15 17  1  0  0  0
 16 17  1  0  0  0
 16 18  1  0  0  0
 16  5  1  0  0  0
 54 53  1  0  0  0
 54 55  1  0  0  0
  3 10  2  0  0  0
  3 11  1  0  0  0
 42 44  2  0  0  0
  4 11  2  0  0  0
  4 12  1  0  0  0
 43 44  1  0  0  0
 19 20  1  0  0  0
  1 12  1  0  0  0
 20 21  2  0  0  0
 20 25  1  0  0  0
 44 38  1  0  0  0
 21 22  1  0  0  0
 45 39  1  0  0  0
 45 47  1  0  0  0
 22 23  2  0  0  0
 50 49  1  0  0  0
 50 51  1  0  0  0
 50 52  1  0  0  0
 23 24  1  0  0  0
 24 25  2  0  0  0
 25 27  1  0  0  0
 27 28  2  0  0  0
 27 32  1  0  0  0
 28 29  1  0  0  0
 29 30  2  0  0  0
 30 31  1  0  0  0
 31 32  2  0  0  0
  5  6  2  0  0  0
  5  7  1  0  0  0
  6 10  1  0  0  0
  7  8  2  0  0  0
  8  9  1  0  0  0
  9 10  1  0  0  0
  9 12  2  0  0  0
 36 37  2  0  0  0
 36 41  1  0  0  0
 37 38  1  0  0  0
 38 39  2  0  0  0
 39 40  1  0  0  0
 40 41  2  0  0  0
 47 48  1  0  0  0
 47 53  1  0  0  0
 48 49  1  0  0  0
 55 56  2  0  0  0
 55 60  1  0  0  0
 56 57  1  0  0  0
 57 58  2  0  0  0
 58 59  1  0  0  0
 59 60  2  0  0  0
  1  2  1  0  0  0
 45 46  1  0  0  0
M  CHG 1  43  -1
M  CHG 1  44   1
M  END
> <minimizedAffinity>
-9.05833

$$$$
