3S75_EVG_B_1


 11 11  0  0  0  0  0  0  0  0999 V2000
   16.4376    1.0501   15.8287 S   0  0  0  0  0  0  0  0  0  0  0  0
   15.5418    0.0476   16.4253 O   0  0  0  0  0  0  0  0  0  0  0  0
   17.6711    1.2786   16.4699 O   0  0  0  0  0  0  0  0  0  0  0  0
   16.6337    0.7255   14.3068 N   0  0  0  0  0  0  0  0  0  0  0  0
   17.2545    1.4184   13.8887 H   0  0  0  0  0  0  0  0  0  0  0  0
   15.7298    0.7499   13.8348 H   0  0  0  0  0  0  0  0  0  0  0  0
   15.8962    3.5483   15.0320 O   0  0  0  0  0  0  0  0  0  0  0  0
   15.6029    2.5498   15.9216 C   0  0  0  0  0  0  0  0  0  0  0  0
   14.5995    2.9742   16.8627 C   0  0  0  0  0  0  0  0  0  0  0  0
   14.2519    4.2808   16.4479 C   0  0  0  0  0  0  0  0  0  0  0  0
   15.0274    4.6416   15.3513 C   0  0  0  0  0  0  0  0  0  0  0  0
 11  7  1  0  0  0
  8  7  1  0  0  0
  8  1  1  0  0  0
  3  1  2  0  0  0
  1  2  2  0  0  0
  1  4  1  0  0  0
  9  8  2  0  0  0
 10  9  1  0  0  0
 10 11  2  0  0  0
  4  5  1  0  0  0
  4  6  1  0  0  0
M  END
> <minimizedAffinity>
-5.28997

$$$$
3S75_EVG_B_1


 11 11  0  0  0  0  0  0  0  0999 V2000
   15.1900    1.0862   17.0022 S   0  0  0  0  0  0  0  0  0  0  0  0
   15.5906    1.2341   18.4097 O   0  0  0  0  0  0  0  0  0  0  0  0
   15.7336    0.0020   16.2854 O   0  0  0  0  0  0  0  0  0  0  0  0
   13.6247    1.1099   16.9066 N   0  0  0  0  0  0  0  0  0  0  0  0
   13.3420    1.0076   15.9319 H   0  0  0  0  0  0  0  0  0  0  0  0
   13.2752    1.9963   17.2707 H   0  0  0  0  0  0  0  0  0  0  0  0
   17.1045    2.6251   15.9367 O   0  0  0  0  0  0  0  0  0  0  0  0
   15.7665    2.4888   16.1931 C   0  0  0  0  0  0  0  0  0  0  0  0
   15.0326    3.6398   15.7356 C   0  0  0  0  0  0  0  0  0  0  0  0
   16.0061    4.4626   15.1230 C   0  0  0  0  0  0  0  0  0  0  0  0
   17.2578    3.8679   15.2410 C   0  0  0  0  0  0  0  0  0  0  0  0
 11  7  1  0  0  0
  8  7  1  0  0  0
  8  1  1  0  0  0
  3  1  2  0  0  0
  1  2  2  0  0  0
  1  4  1  0  0  0
  9  8  2  0  0  0
 10  9  1  0  0  0
 10 11  2  0  0  0
  4  5  1  0  0  0
  4  6  1  0  0  0
M  END
> <minimizedAffinity>
-5.20872

$$$$
3S75_EVG_B_1


 11 11  0  0  0  0  0  0  0  0999 V2000
   16.3342    1.3069   16.0345 S   0  0  0  0  0  0  0  0  0  0  0  0
   17.6967    1.5437   16.5355 O   0  0  0  0  0  0  0  0  0  0  0  0
   15.7468    0.0592   16.3226 O   0  0  0  0  0  0  0  0  0  0  0  0
   15.4085    2.4927   16.4780 N   0  0  0  0  0  0  0  0  0  0  0  0
   14.4622    2.3328   16.1327 H   0  0  0  0  0  0  0  0  0  0  0  0
   15.7676    3.3666   16.0934 H   0  0  0  0  0  0  0  0  0  0  0  0
   16.8673    0.2621   13.6276 O   0  0  0  0  0  0  0  0  0  0  0  0
   16.4408    1.3636   14.3199 C   0  0  0  0  0  0  0  0  0  0  0  0
   16.1686    2.4609   13.4286 C   0  0  0  0  0  0  0  0  0  0  0  0
   16.3964    1.9348   12.1358 C   0  0  0  0  0  0  0  0  0  0  0  0
   16.8224    0.6150   12.2400 C   0  0  0  0  0  0  0  0  0  0  0  0
 11  7  1  0  0  0
  8  7  1  0  0  0
  8  1  1  0  0  0
  3  1  2  0  0  0
  1  2  2  0  0  0
  1  4  1  0  0  0
  9  8  2  0  0  0
 10  9  1  0  0  0
 10 11  2  0  0  0
  4  5  1  0  0  0
  4  6  1  0  0  0
M  END
> <minimizedAffinity>
-5.06313

$$$$
3S75_EVG_B_1


 11 11  0  0  0  0  0  0  0  0999 V2000
   16.2761    2.5637   14.3746 S   0  0  0  0  0  0  0  0  0  0  0  0
   17.4597    3.3427   14.7691 O   0  0  0  0  0  0  0  0  0  0  0  0
   15.2438    3.2497   13.7048 O   0  0  0  0  0  0  0  0  0  0  0  0
   16.7367    1.2965   13.5732 N   0  0  0  0  0  0  0  0  0  0  0  0
   15.9189    0.7529   13.2974 H   0  0  0  0  0  0  0  0  0  0  0  0
   17.3428    0.7243   14.1610 H   0  0  0  0  0  0  0  0  0  0  0  0
   15.6242    0.6762   16.1582 O   0  0  0  0  0  0  0  0  0  0  0  0
   15.5645    2.0056   15.8363 C   0  0  0  0  0  0  0  0  0  0  0  0
   14.8377    2.7468   16.8337 C   0  0  0  0  0  0  0  0  0  0  0  0
   14.5115    1.7892   17.8219 C   0  0  0  0  0  0  0  0  0  0  0  0
   14.9734    0.5383   17.4268 C   0  0  0  0  0  0  0  0  0  0  0  0
 11  7  1  0  0  0
  8  7  1  0  0  0
  8  1  1  0  0  0
  3  1  2  0  0  0
  1  2  2  0  0  0
  1  4  1  0  0  0
  9  8  2  0  0  0
 10  9  1  0  0  0
 10 11  2  0  0  0
  4  5  1  0  0  0
  4  6  1  0  0  0
M  END
> <minimizedAffinity>
-4.96298

$$$$
3S75_EVG_B_1


 11 11  0  0  0  0  0  0  0  0999 V2000
   16.3971    2.4102   14.4474 S   0  0  0  0  0  0  0  0  0  0  0  0
   16.7350    1.1998   13.6833 O   0  0  0  0  0  0  0  0  0  0  0  0
   17.4653    3.2149   14.8904 O   0  0  0  0  0  0  0  0  0  0  0  0
   15.3419    3.2485   13.6450 N   0  0  0  0  0  0  0  0  0  0  0  0
   15.1043    4.0893   14.1713 H   0  0  0  0  0  0  0  0  0  0  0  0
   14.5014    2.6888   13.5010 H   0  0  0  0  0  0  0  0  0  0  0  0
   15.7683    0.5653   16.2831 O   0  0  0  0  0  0  0  0  0  0  0  0
   15.6240    1.8667   15.8831 C   0  0  0  0  0  0  0  0  0  0  0  0
   14.7641    2.5914   16.7820 C   0  0  0  0  0  0  0  0  0  0  0  0
   14.4433    1.6599   17.7967 C   0  0  0  0  0  0  0  0  0  0  0  0
   15.0357    0.4354   17.5071 C   0  0  0  0  0  0  0  0  0  0  0  0
 11  7  1  0  0  0
  8  7  1  0  0  0
  8  1  1  0  0  0
  3  1  2  0  0  0
  1  2  2  0  0  0
  1  4  1  0  0  0
  9  8  2  0  0  0
 10  9  1  0  0  0
 10 11  2  0  0  0
  4  5  1  0  0  0
  4  6  1  0  0  0
M  END
> <minimizedAffinity>
-4.89706

$$$$
3S75_EVG_B_1


 11 11  0  0  0  0  0  0  0  0999 V2000
   16.5605    1.7207   12.1624 S   0  0  0  0  0  0  0  0  0  0  0  0
   16.6771    0.2852   12.4609 O   0  0  0  0  0  0  0  0  0  0  0  0
   17.7366    2.4022   11.7921 O   0  0  0  0  0  0  0  0  0  0  0  0
   15.4170    1.9373   11.1110 N   0  0  0  0  0  0  0  0  0  0  0  0
   15.3323    2.9318   10.9007 H   0  0  0  0  0  0  0  0  0  0  0  0
   14.5353    1.5941   11.4920 H   0  0  0  0  0  0  0  0  0  0  0  0
   15.4147    3.6819   13.5801 O   0  0  0  0  0  0  0  0  0  0  0  0
   16.0522    2.4710   13.6229 C   0  0  0  0  0  0  0  0  0  0  0  0
   16.2238    2.0249   14.9809 C   0  0  0  0  0  0  0  0  0  0  0  0
   15.5895    3.0167   15.7646 C   0  0  0  0  0  0  0  0  0  0  0  0
   15.1030    4.0223   14.9362 C   0  0  0  0  0  0  0  0  0  0  0  0
 11  7  1  0  0  0
  8  7  1  0  0  0
  8  1  1  0  0  0
  3  1  2  0  0  0
  1  2  2  0  0  0
  1  4  1  0  0  0
  9  8  2  0  0  0
 10  9  1  0  0  0
 10 11  2  0  0  0
  4  5  1  0  0  0
  4  6  1  0  0  0
M  END
> <minimizedAffinity>
-4.75098

$$$$
3S75_EVG_B_1


 11 11  0  0  0  0  0  0  0  0999 V2000
   16.3580    2.0014   15.3893 S   0  0  0  0  0  0  0  0  0  0  0  0
   16.5369    1.2168   14.1581 O   0  0  0  0  0  0  0  0  0  0  0  0
   15.0430    2.1624   15.8685 O   0  0  0  0  0  0  0  0  0  0  0  0
   17.3092    1.4384   16.5020 N   0  0  0  0  0  0  0  0  0  0  0  0
   17.1886    1.9796   17.3581 H   0  0  0  0  0  0  0  0  0  0  0  0
   18.2774    1.5085   16.1890 H   0  0  0  0  0  0  0  0  0  0  0  0
   18.2075    3.8083   14.6939 O   0  0  0  0  0  0  0  0  0  0  0  0
   16.8961    3.5921   15.0225 C   0  0  0  0  0  0  0  0  0  0  0  0
   16.1558    4.8268   15.0343 C   0  0  0  0  0  0  0  0  0  0  0  0
   17.0908    5.8067   14.6270 C   0  0  0  0  0  0  0  0  0  0  0  0
   18.3304    5.2098   14.4240 C   0  0  0  0  0  0  0  0  0  0  0  0
 11  7  1  0  0  0
  8  7  1  0  0  0
  8  1  1  0  0  0
  3  1  2  0  0  0
  1  2  2  0  0  0
  1  4  1  0  0  0
  9  8  2  0  0  0
 10  9  1  0  0  0
 10 11  2  0  0  0
  4  5  1  0  0  0
  4  6  1  0  0  0
M  END
> <minimizedAffinity>
-4.66807

$$$$
3S75_EVG_B_1


 11 11  0  0  0  0  0  0  0  0999 V2000
   16.3386    3.4291   13.5765 S   0  0  0  0  0  0  0  0  0  0  0  0
   16.3079    4.5317   12.6035 O   0  0  0  0  0  0  0  0  0  0  0  0
   17.4281    3.3836   14.4685 O   0  0  0  0  0  0  0  0  0  0  0  0
   14.9695    3.3773   14.3401 N   0  0  0  0  0  0  0  0  0  0  0  0
   14.9861    2.6138   15.0163 H   0  0  0  0  0  0  0  0  0  0  0  0
   14.2136    3.2240   13.6727 H   0  0  0  0  0  0  0  0  0  0  0  0
   17.0574    0.8782   13.1955 O   0  0  0  0  0  0  0  0  0  0  0  0
   16.4574    1.9835   12.6544 C   0  0  0  0  0  0  0  0  0  0  0  0
   16.0309    1.7305   11.3028 C   0  0  0  0  0  0  0  0  0  0  0  0
   16.3539    0.3725   11.0756 C   0  0  0  0  0  0  0  0  0  0  0  0
   16.9768   -0.1517   12.2032 C   0  0  0  0  0  0  0  0  0  0  0  0
 11  7  1  0  0  0
  8  7  1  0  0  0
  8  1  1  0  0  0
  3  1  2  0  0  0
  1  2  2  0  0  0
  1  4  1  0  0  0
  9  8  2  0  0  0
 10  9  1  0  0  0
 10 11  2  0  0  0
  4  5  1  0  0  0
  4  6  1  0  0  0
M  END
> <minimizedAffinity>
-4.62848

$$$$
3S75_EVG_B_1


 11 11  0  0  0  0  0  0  0  0999 V2000
   16.6871    1.1796   12.2537 S   0  0  0  0  0  0  0  0  0  0  0  0
   16.7037   -0.2516   11.9148 O   0  0  0  0  0  0  0  0  0  0  0  0
   15.7237    1.9847   11.6145 O   0  0  0  0  0  0  0  0  0  0  0  0
   16.6252    1.3395   13.8127 N   0  0  0  0  0  0  0  0  0  0  0  0
   16.6135    2.3308   14.0527 H   0  0  0  0  0  0  0  0  0  0  0  0
   17.4431    0.8977   14.2326 H   0  0  0  0  0  0  0  0  0  0  0  0
   18.6570    2.9930   12.2549 O   0  0  0  0  0  0  0  0  0  0  0  0
   18.2029    1.8078   11.7416 C   0  0  0  0  0  0  0  0  0  0  0  0
   19.1257    1.2768   10.7725 C   0  0  0  0  0  0  0  0  0  0  0  0
   20.2080    2.1871   10.7750 C   0  0  0  0  0  0  0  0  0  0  0  0
   19.9378    3.2273   11.6577 C   0  0  0  0  0  0  0  0  0  0  0  0
 11  7  1  0  0  0
  8  7  1  0  0  0
  8  1  1  0  0  0
  3  1  2  0  0  0
  1  2  2  0  0  0
  1  4  1  0  0  0
  9  8  2  0  0  0
 10  9  1  0  0  0
 10 11  2  0  0  0
  4  5  1  0  0  0
  4  6  1  0  0  0
M  END
> <minimizedAffinity>
-4.39814

$$$$
3S75_EVG_B_1


 11 11  0  0  0  0  0  0  0  0999 V2000
   16.6603    2.0772   12.7469 S   0  0  0  0  0  0  0  0  0  0  0  0
   15.6668    2.1035   11.6626 O   0  0  0  0  0  0  0  0  0  0  0  0
   16.7174    0.9170   13.5440 O   0  0  0  0  0  0  0  0  0  0  0  0
   18.0697    2.4424   12.1636 N   0  0  0  0  0  0  0  0  0  0  0  0
   18.7623    2.4254   12.9122 H   0  0  0  0  0  0  0  0  0  0  0  0
   18.0362    3.3752   11.7524 H   0  0  0  0  0  0  0  0  0  0  0  0
   17.0049    4.4553   13.9279 O   0  0  0  0  0  0  0  0  0  0  0  0
   16.2190    3.3388   13.8277 C   0  0  0  0  0  0  0  0  0  0  0  0
   15.1011    3.4106   14.7321 C   0  0  0  0  0  0  0  0  0  0  0  0
   15.2215    4.6783   15.3473 C   0  0  0  0  0  0  0  0  0  0  0  0
   16.3648    5.3158   14.8776 C   0  0  0  0  0  0  0  0  0  0  0  0
 11  7  1  0  0  0
  8  7  1  0  0  0
  8  1  1  0  0  0
  3  1  2  0  0  0
  1  2  2  0  0  0
  1  4  1  0  0  0
  9  8  2  0  0  0
 10  9  1  0  0  0
 10 11  2  0  0  0
  4  5  1  0  0  0
  4  6  1  0  0  0
M  END
> <minimizedAffinity>
-4.30403

$$$$
