4OMA_LCS_A_401
  RCSB PDB12061714043D
Coordinates from PDB:4OMA:A:401 Model:1 without hydrogens
 22 23  0  0  0  0            999 V2000
    4.4490   21.1930   14.3260   N 0  0  0  0  0  0  0  0  0  0  0  0
    5.3460   20.6340   15.1600   C 0  0  0  0  0  0  0  0  0  0  0  0
    5.2320   20.9000   16.5420   C 0  0  0  0  0  0  0  0  0  0  0  0
    6.4130   19.9120   14.5960   C 0  0  0  0  0  0  0  0  0  0  0  0
    7.2500   19.3920   15.5040   O 0  0  0  0  0  0  0  0  0  0  0  0
    6.5170   19.6070   13.2400   C 0  0  0  0  0  0  0  0  0  0  0  0
    7.5230   18.8370   12.6440   C 0  0  0  0  0  0  0  0  0  0  0  0
    5.5300   20.1810   12.3890   C 0  0  0  0  0  0  0  0  0  0  0  0
    4.4960   20.9550   12.9980   C 0  0  0  0  0  0  0  0  0  0  0  0
    5.4650   20.0730   10.9210   C 0  0  0  0  0  0  0  0  0  0  0  0
    5.0430   18.8020   10.5560   O 0  0  0  0  0  0  0  0  0  0  0  0
    5.3150   17.9910    9.1910   P 0  0  0  0  0  0  0  0  0  0  0  0
    5.0220   18.9410    8.1380   O 0  0  0  0  0  0  0  0  0  0  0  0
    6.8290   17.6980    9.3660   O 0  0  0  0  0  0  0  0  0  0  0  0
    4.5070   16.7900    9.2820   O 0  0  0  0  0  0  0  0  0  0  0  0
    8.5980   18.4460   13.5920   N 0  0  0  0  0  0  0  0  0  0  0  0
    9.7690   17.9220   13.1740   C 0  0  0  0  0  0  0  0  0  0  0  0
   10.8020   17.6380   13.9750   C 0  0  0  0  0  0  0  0  0  0  0  0
   10.8580   17.8600   15.3150   O 0  0  0  0  0  0  0  0  0  0  0  0
   11.8170   17.1440   13.2670   N 0  0  0  0  0  0  0  0  0  0  0  0
   11.2880   17.0750   11.7480   O 0  0  0  0  0  0  0  0  0  0  0  0
   10.0010   17.6080   11.8300   C 0  0  0  0  0  0  0  0  0  0  0  0
  1  2  2  0  0  0  0
  1  9  1  0  0  0  0
  2  3  1  0  0  0  0
  2  4  1  0  0  0  0
  4  5  1  0  0  0  0
  4  6  2  0  0  0  0
  6  7  1  0  0  0  0
  6  8  1  0  0  0  0
  7 16  1  0  0  0  0
  8  9  2  0  0  0  0
  8 10  1  0  0  0  0
 10 11  1  0  0  0  0
 11 12  1  0  0  0  0
 12 13  2  0  0  0  0
 12 14  1  0  0  0  0
 12 15  1  0  0  0  0
 16 17  2  0  0  0  0
 17 18  1  0  0  0  0
 17 22  1  0  0  0  0
 18 19  2  0  0  0  0
 18 20  1  0  0  0  0
 20 21  1  0  0  0  0
 21 22  1  0  0  0  0
A    1
N1
A    2
C2
A    3
C2A
A    4
C3
A    5
O3
A    6
C4
A    7
C4A
A    8
C5
A    9
C6
A   10
C5A
A   11
O4P
A   12
P
A   13
O1P
A   14
O2P
A   15
O3P
A   16
N
A   17
CA
A   18
C
A   19
O
A   20
ND
A   21
OG
A   22
CB
M  END
>  <InstanceId>
4OMA_LCS_A_401

>  <ChemCompId>
LCS

>  <PdbId>
4OMA

>  <ChainId>
A

>  <ResidueNumber>
401

>  <InsertionCode>


>  <Model>
1

>  <AltIds>


>  <MissingHeavyAtoms>
0

>  <ObservedFormula>
C11 N3 O7 P

>  <Name>
[5-hydroxy-6-methyl-4-({[(4E)-3-oxo-1,2-oxazolidin-4-ylidene]amino}methyl)pyridin-3-yl]methyl dihydrogen phosphate

>  <SystematicName>
[6-methyl-5-oxidanyl-4-[[(E)-(3-oxidanylidene-1,2-oxazolidin-4-ylidene)amino]methyl]pyridin-3-yl]methyl dihydrogen phosphate

>  <Synonyms>


>  <Type>
NON-POLYMER

>  <Formula>
C11 H14 N3 O7 P

>  <MolecularWeight>
331.219

>  <ModifiedDate>
2011-07-21

>  <Parent>


>  <OneLetterCode>


>  <SubcomponentList>


>  <AmbiguousFlag>
N

>  <InChI>
InChI=1S/C11H14N3O7P/c1-6-10(15)8(3-13-9-5-20-14-11(9)16)7(2-12-6)4-21-22(17,18)19/h2,15H,3-5H2,1H3,(H,14,16)(H2,17,18,19)/b13-9+

>  <InChIKey>
KFCQHWOGBVCKHR-UKTHLTGXSA-N

>  <SMILES>
Cc1c(c(c(cn1)COP(=O)(O)O)C/N=C/2\CONC2=O)O

$$$$
