5NZ4_G39_A_503
  RCSB PDB06301801303D
Coordinates from PDB:5NZ4:A:503 Model:1 without hydrogens
 20 20  0  0  0  0            999 V2000
   -5.8140  -12.5840    0.6810   C 0  0  0  0  0  0  0  0  0  0  0  0
   -5.0460  -12.1050   -0.1590   O 0  0  0  0  0  0  0  0  0  0  0  0
   -5.5170  -12.5180    1.9220   O 0  0  0  0  0  0  0  0  0  0  0  0
   -7.0210  -13.2530    0.2600   C 0  0  0  0  0  0  0  0  0  0  0  0
   -7.2560  -13.4220   -1.2410   C 0  0  0  0  0  0  0  0  0  0  0  0
   -8.2130  -14.6080   -1.5070   C 0  0  0  0  0  0  0  0  0  0  0  0
   -9.4510  -14.5150   -0.5860   C 0  0  0  0  0  0  0  0  0  0  0  0
  -10.3500  -15.6400   -0.9280   N 0  0  0  0  0  0  0  0  0  0  0  0
  -11.5740  -15.4790   -1.4430   C 0  0  0  0  0  0  0  0  0  0  0  0
  -12.0540  -14.3760   -1.6680   O 0  0  0  0  0  0  0  0  0  0  0  0
  -12.3270  -16.7600   -1.7300   C 0  0  0  0  0  0  0  0  0  0  0  0
   -8.9550  -14.7380    0.8440   C 0  0  0  0  0  0  0  0  0  0  0  0
   -7.8160  -13.8240    1.1760   C 0  0  0  0  0  0  0  0  0  0  0  0
  -10.0310  -14.4980    1.7620   O 0  0  0  0  0  0  0  0  0  0  0  0
  -10.5260  -15.6970    2.4090   C 0  0  0  0  0  0  0  0  0  0  0  0
   -9.4580  -16.3570    3.3480   C 0  0  0  0  0  0  0  0  0  0  0  0
  -11.8660  -15.2750    2.9790   C 0  0  0  0  0  0  0  0  0  0  0  0
  -12.8690  -14.9470    1.8730   C 0  0  0  0  0  0  0  0  0  0  0  0
   -9.1690  -15.4740    4.4440   C 0  0  0  0  0  0  0  0  0  0  0  0
   -8.6200  -14.5520   -2.9430   N 0  0  0  0  0  0  0  0  0  0  0  0
  1  2  2  0  0  0  0
  1  3  1  0  0  0  0
  1  4  1  0  0  0  0
  4  5  1  0  0  0  0
  4 13  2  0  0  0  0
  5  6  1  0  0  0  0
  6  7  1  0  0  0  0
  6 20  1  0  0  0  0
  7  8  1  0  0  0  0
  7 12  1  0  0  0  0
  8  9  1  0  0  0  0
  9 10  2  0  0  0  0
  9 11  1  0  0  0  0
 12 13  1  0  0  0  0
 12 14  1  0  0  0  0
 14 15  1  0  0  0  0
 15 16  1  0  0  0  0
 15 17  1  0  0  0  0
 16 19  1  0  0  0  0
 17 18  1  0  0  0  0
A    1
C1
A    2
O1A
A    3
O1B
A    4
C2
A    5
C3
A    6
C4
A    7
C5
A    8
N5
A    9
C10
A   10
O10
A   11
C11
A   12
C6
A   13
C7
A   14
O7
A   15
C8
A   16
C9
A   17
C81
A   18
C82
A   19
C91
A   20
N4
M  END
>  <InstanceId>
5NZ4_G39_A_503

>  <ChemCompId>
G39

>  <PdbId>
5NZ4

>  <ChainId>
A

>  <ResidueNumber>
503

>  <InsertionCode>


>  <Model>
1

>  <AltIds>


>  <MissingHeavyAtoms>
0

>  <ObservedFormula>
C14 N2 O4

>  <Name>
(3R,4R,5S)-4-(acetylamino)-5-amino-3-(pentan-3-yloxy)cyclohex-1-ene-1-carboxylic acid

>  <SystematicName>
(3R,4R,5S)-4-acetamido-5-azanyl-3-pentan-3-yloxy-cyclohexene-1-carboxylic acid

>  <Synonyms>
Oseltamivir carboxylate

>  <Type>
NON-POLYMER

>  <Formula>
C14 H24 N2 O4

>  <MolecularWeight>
284.351

>  <ModifiedDate>
2011-06-04

>  <Parent>


>  <OneLetterCode>


>  <SubcomponentList>


>  <AmbiguousFlag>
N

>  <InChI>
InChI=1S/C14H24N2O4/c1-4-10(5-2)20-12-7-9(14(18)19)6-11(15)13(12)16-8(3)17/h7,10-13H,4-6,15H2,1-3H3,(H,16,17)(H,18,19)/t11-,12+,13+/m0/s1

>  <InChIKey>
NENPYTRHICXVCS-YNEHKIRRSA-N

>  <SMILES>
CCC(CC)O[C@@H]1C=C(C[C@@H]([C@H]1NC(=O)C)N)C(=O)O

$$$$
