5NZ4_G39_A_503


 24 24  0  0  0  0  0  0  0  0999 V2000
  -13.8660  -16.6777    2.5061 C   0  0  0  0  0  0  0  0  0  0  0  0
  -13.0317  -15.8633    3.4947 C   0  0  0  0  0  0  0  0  0  0  0  0
  -11.6264  -16.4891    3.6583 C   0  0  0  0  0  0  0  0  0  0  0  0
  -11.0121  -16.7971    2.2736 C   0  0  0  0  0  0  0  0  0  0  0  0
  -11.8568  -17.9122    1.6542 C   0  0  0  0  0  0  0  0  0  0  0  0
  -13.3137  -17.5652    1.6669 C   0  0  0  0  0  0  0  0  0  0  0  0
  -10.7772  -15.5136    4.4054 N   0  0  0  0  0  0  0  0  0  0  0  0
  -10.7251  -14.6387    3.8837 H   0  0  0  0  0  0  0  0  0  0  0  0
   -9.8392  -15.8974    4.5202 H   0  0  0  0  0  0  0  0  0  0  0  0
   -9.6523  -17.3374    2.4963 N   0  0  0  0  0  0  0  0  0  0  0  0
   -8.5629  -16.8824    1.8673 C   0  0  0  0  0  0  0  0  0  0  0  0
   -8.6073  -15.9778    1.0443 O   0  0  0  0  0  0  0  0  0  0  0  0
   -7.2666  -17.5657    2.2456 C   0  0  0  0  0  0  0  0  0  0  0  0
   -9.5435  -18.0720    3.1427 H   0  0  0  0  0  0  0  0  0  0  0  0
  -15.3027  -16.5860    2.6026 C   0  0  0  0  0  0  0  0  0  0  0  0
  -15.8225  -15.9585    3.5305 O   0  0  0  0  0  0  0  0  0  0  0  0
  -16.0421  -17.1850    1.7499 O   0  0  0  0  0  0  0  0  0  0  0  0
  -15.6516  -17.6622    1.0444 H   0  0  0  0  0  0  0  0  0  0  0  0
  -11.4383  -18.1271    0.2989 O   0  0  0  0  0  0  0  0  0  0  0  0
  -11.4757  -19.5169   -0.1112 C   0  0  0  0  0  0  0  0  0  0  0  0
  -12.2575  -19.7257   -1.4540 C   0  0  0  0  0  0  0  0  0  0  0  0
  -12.6974  -18.4541   -1.9579 C   0  0  0  0  0  0  0  0  0  0  0  0
  -10.0309  -19.9648   -0.0081 C   0  0  0  0  0  0  0  0  0  0  0  0
   -9.1292  -19.1769   -0.9583 C   0  0  0  0  0  0  0  0  0  0  0  0
 15 16  2  0  0  0
 15 17  1  0  0  0
 15  1  1  0  0  0
  1  2  1  0  0  0
  1  6  2  0  0  0
  2  3  1  0  0  0
  3  4  1  0  0  0
  3  7  1  0  0  0
  4 10  1  0  0  0
  4  5  1  0  0  0
 10 11  1  0  0  0
 11 12  2  0  0  0
 11 13  1  0  0  0
  5  6  1  0  0  0
  5 19  1  0  0  0
 19 20  1  0  0  0
 20 21  1  0  0  0
 20 23  1  0  0  0
 21 22  1  0  0  0
 23 24  1  0  0  0
 17 18  1  0  0  0
 10 14  1  0  0  0
  7  8  1  0  0  0
  7  9  1  0  0  0
M  END
> <minimizedAffinity>
-0.00101

$$$$
5NZ4_G39_A_503


 24 24  0  0  0  0  0  0  0  0999 V2000
  -10.1201  -12.8542   -3.8065 C   0  0  0  0  0  0  0  0  0  0  0  0
   -9.5100  -11.4646   -3.9896 C   0  0  0  0  0  0  0  0  0  0  0  0
   -8.2938  -11.2814   -3.0513 C   0  0  0  0  0  0  0  0  0  0  0  0
   -7.3529  -12.5041   -3.1483 C   0  0  0  0  0  0  0  0  0  0  0  0
   -8.1133  -13.6940   -2.5597 C   0  0  0  0  0  0  0  0  0  0  0  0
   -9.4618  -13.8478   -3.1929 C   0  0  0  0  0  0  0  0  0  0  0  0
   -7.5820  -10.0354   -3.4657 N   0  0  0  0  0  0  0  0  0  0  0  0
   -7.2802  -10.1230   -4.4361 H   0  0  0  0  0  0  0  0  0  0  0  0
   -6.7677   -9.8942   -2.8679 H   0  0  0  0  0  0  0  0  0  0  0  0
   -6.1865  -12.2428   -2.2753 N   0  0  0  0  0  0  0  0  0  0  0  0
   -4.9174  -12.3780   -2.6758 C   0  0  0  0  0  0  0  0  0  0  0  0
   -4.6183  -12.7388   -3.8063 O   0  0  0  0  0  0  0  0  0  0  0  0
   -3.8726  -12.0521   -1.6304 C   0  0  0  0  0  0  0  0  0  0  0  0
   -6.3539  -11.9537   -1.3492 H   0  0  0  0  0  0  0  0  0  0  0  0
  -11.5035  -13.0355   -4.1739 C   0  0  0  0  0  0  0  0  0  0  0  0
  -12.1883  -12.0636   -4.5074 O   0  0  0  0  0  0  0  0  0  0  0  0
  -12.0346  -14.1963   -4.1192 O   0  0  0  0  0  0  0  0  0  0  0  0
  -11.5183  -14.9363   -3.8666 H   0  0  0  0  0  0  0  0  0  0  0  0
   -7.3560  -14.8935   -2.7735 O   0  0  0  0  0  0  0  0  0  0  0  0
   -7.4395  -15.8405   -1.6793 C   0  0  0  0  0  0  0  0  0  0  0  0
   -7.8307  -17.2806   -2.1602 C   0  0  0  0  0  0  0  0  0  0  0  0
   -7.9545  -17.2932   -3.5916 C   0  0  0  0  0  0  0  0  0  0  0  0
   -6.1451  -15.6308   -0.9182 C   0  0  0  0  0  0  0  0  0  0  0  0
   -4.9263  -15.9519   -1.7831 C   0  0  0  0  0  0  0  0  0  0  0  0
 15 16  2  0  0  0
 15 17  1  0  0  0
 15  1  1  0  0  0
  1  2  1  0  0  0
  1  6  2  0  0  0
  2  3  1  0  0  0
  3  4  1  0  0  0
  3  7  1  0  0  0
  4 10  1  0  0  0
  4  5  1  0  0  0
 10 11  1  0  0  0
 11 12  2  0  0  0
 11 13  1  0  0  0
  5  6  1  0  0  0
  5 19  1  0  0  0
 19 20  1  0  0  0
 20 21  1  0  0  0
 20 23  1  0  0  0
 21 22  1  0  0  0
 23 24  1  0  0  0
 17 18  1  0  0  0
 10 14  1  0  0  0
  7  8  1  0  0  0
  7  9  1  0  0  0
M  END
> <minimizedAffinity>
-0.00091

$$$$
5NZ4_G39_A_503


 24 24  0  0  0  0  0  0  0  0999 V2000
  -11.9512  -16.5013   -0.1478 C   0  0  0  0  0  0  0  0  0  0  0  0
  -12.7687  -16.9759   -1.3492 C   0  0  0  0  0  0  0  0  0  0  0  0
  -13.4514  -15.7749   -2.0455 C   0  0  0  0  0  0  0  0  0  0  0  0
  -12.4324  -14.6340   -2.2680 C   0  0  0  0  0  0  0  0  0  0  0  0
  -12.0514  -14.1064   -0.8834 C   0  0  0  0  0  0  0  0  0  0  0  0
  -11.6122  -15.2155    0.0221 C   0  0  0  0  0  0  0  0  0  0  0  0
  -13.9973  -16.2548   -3.3504 N   0  0  0  0  0  0  0  0  0  0  0  0
  -13.2368  -16.6206   -3.9232 H   0  0  0  0  0  0  0  0  0  0  0  0
  -14.4466  -15.4790   -3.8368 H   0  0  0  0  0  0  0  0  0  0  0  0
  -13.1298  -13.5434   -2.9857 N   0  0  0  0  0  0  0  0  0  0  0  0
  -12.6505  -12.9589   -4.0893 C   0  0  0  0  0  0  0  0  0  0  0  0
  -11.5826  -13.2795   -4.5936 O   0  0  0  0  0  0  0  0  0  0  0  0
  -13.5238  -11.8699   -4.6740 C   0  0  0  0  0  0  0  0  0  0  0  0
  -13.9937  -13.2312   -2.6315 H   0  0  0  0  0  0  0  0  0  0  0  0
  -11.6795  -17.4549    0.9002 C   0  0  0  0  0  0  0  0  0  0  0  0
  -12.1853  -18.5807    0.8598 O   0  0  0  0  0  0  0  0  0  0  0  0
  -10.9452  -17.1251    1.8926 O   0  0  0  0  0  0  0  0  0  0  0  0
  -10.5596  -16.2718    1.9269 H   0  0  0  0  0  0  0  0  0  0  0  0
  -10.9830  -13.1581   -1.0148 O   0  0  0  0  0  0  0  0  0  0  0  0
  -11.0700  -12.0470   -0.0878 C   0  0  0  0  0  0  0  0  0  0  0  0
   -9.7356  -11.8190    0.7030 C   0  0  0  0  0  0  0  0  0  0  0  0
   -8.7447  -12.7588    0.2566 C   0  0  0  0  0  0  0  0  0  0  0  0
  -11.6471  -10.9214   -0.9236 C   0  0  0  0  0  0  0  0  0  0  0  0
  -10.7202  -10.5482   -2.0805 C   0  0  0  0  0  0  0  0  0  0  0  0
 15 16  2  0  0  0
 15 17  1  0  0  0
 15  1  1  0  0  0
  1  2  1  0  0  0
  1  6  2  0  0  0
  2  3  1  0  0  0
  3  4  1  0  0  0
  3  7  1  0  0  0
  4 10  1  0  0  0
  4  5  1  0  0  0
 10 11  1  0  0  0
 11 12  2  0  0  0
 11 13  1  0  0  0
  5  6  1  0  0  0
  5 19  1  0  0  0
 19 20  1  0  0  0
 20 21  1  0  0  0
 20 23  1  0  0  0
 21 22  1  0  0  0
 23 24  1  0  0  0
 17 18  1  0  0  0
 10 14  1  0  0  0
  7  8  1  0  0  0
  7  9  1  0  0  0
M  END
> <minimizedAffinity>
-0.00076

$$$$
5NZ4_G39_A_503


 24 24  0  0  0  0  0  0  0  0999 V2000
   -9.5690  -13.0415    2.4757 C   0  0  0  0  0  0  0  0  0  0  0  0
   -9.4444  -12.6888    0.9935 C   0  0  0  0  0  0  0  0  0  0  0  0
   -8.5440  -13.7166    0.2682 C   0  0  0  0  0  0  0  0  0  0  0  0
   -8.9691  -15.1563    0.6369 C   0  0  0  0  0  0  0  0  0  0  0  0
   -8.6463  -15.3457    2.1203 C   0  0  0  0  0  0  0  0  0  0  0  0
   -9.2379  -14.2499    2.9524 C   0  0  0  0  0  0  0  0  0  0  0  0
   -8.6823  -13.4869   -1.2011 N   0  0  0  0  0  0  0  0  0  0  0  0
   -9.6582  -13.6053   -1.4733 H   0  0  0  0  0  0  0  0  0  0  0  0
   -8.1045  -14.1588   -1.7062 H   0  0  0  0  0  0  0  0  0  0  0  0
   -8.1114  -16.0875   -0.1298 N   0  0  0  0  0  0  0  0  0  0  0  0
   -8.5878  -17.1054   -0.8552 C   0  0  0  0  0  0  0  0  0  0  0  0
   -9.7835  -17.3529   -0.9371 O   0  0  0  0  0  0  0  0  0  0  0  0
   -7.5421  -17.9328   -1.5710 C   0  0  0  0  0  0  0  0  0  0  0  0
   -7.1368  -15.9502   -0.1045 H   0  0  0  0  0  0  0  0  0  0  0  0
   -9.9076  -11.9812    3.3936 C   0  0  0  0  0  0  0  0  0  0  0  0
   -9.9767  -10.8147    2.9943 O   0  0  0  0  0  0  0  0  0  0  0  0
  -10.1001  -12.2404    4.6299 O   0  0  0  0  0  0  0  0  0  0  0  0
  -10.0486  -13.1242    4.9368 H   0  0  0  0  0  0  0  0  0  0  0  0
   -9.1713  -16.6053    2.5628 O   0  0  0  0  0  0  0  0  0  0  0  0
   -8.3310  -17.2811    3.5316 C   0  0  0  0  0  0  0  0  0  0  0  0
   -9.1243  -17.7232    4.8096 C   0  0  0  0  0  0  0  0  0  0  0  0
  -10.5107  -17.3767    4.6597 C   0  0  0  0  0  0  0  0  0  0  0  0
   -7.5943  -18.3209    2.7103 C   0  0  0  0  0  0  0  0  0  0  0  0
   -8.5582  -19.3282    2.0834 C   0  0  0  0  0  0  0  0  0  0  0  0
 15 16  2  0  0  0
 15 17  1  0  0  0
 15  1  1  0  0  0
  1  2  1  0  0  0
  1  6  2  0  0  0
  2  3  1  0  0  0
  3  4  1  0  0  0
  3  7  1  0  0  0
  4 10  1  0  0  0
  4  5  1  0  0  0
 10 11  1  0  0  0
 11 12  2  0  0  0
 11 13  1  0  0  0
  5  6  1  0  0  0
  5 19  1  0  0  0
 19 20  1  0  0  0
 20 21  1  0  0  0
 20 23  1  0  0  0
 21 22  1  0  0  0
 23 24  1  0  0  0
 17 18  1  0  0  0
 10 14  1  0  0  0
  7  8  1  0  0  0
  7  9  1  0  0  0
M  END
> <minimizedAffinity>
-0.00068

$$$$
5NZ4_G39_A_503


 24 24  0  0  0  0  0  0  0  0999 V2000
  -12.1364  -16.4745    3.8172 C   0  0  0  0  0  0  0  0  0  0  0  0
  -11.4450  -17.6912    4.4322 C   0  0  0  0  0  0  0  0  0  0  0  0
  -10.9341  -18.6398    3.3221 C   0  0  0  0  0  0  0  0  0  0  0  0
  -10.1683  -17.8397    2.2437 C   0  0  0  0  0  0  0  0  0  0  0  0
  -11.1957  -16.9493    1.5421 C   0  0  0  0  0  0  0  0  0  0  0  0
  -11.9824  -16.1416    2.5278 C   0  0  0  0  0  0  0  0  0  0  0  0
  -10.0396  -19.6503    3.9620 N   0  0  0  0  0  0  0  0  0  0  0  0
   -9.2609  -19.1747    4.4180 H   0  0  0  0  0  0  0  0  0  0  0  0
   -9.6798  -20.2855    3.2496 H   0  0  0  0  0  0  0  0  0  0  0  0
   -9.6587  -18.8065    1.2454 N   0  0  0  0  0  0  0  0  0  0  0  0
   -8.3889  -18.8369    0.8259 C   0  0  0  0  0  0  0  0  0  0  0  0
   -7.5413  -18.0544    1.2346 O   0  0  0  0  0  0  0  0  0  0  0  0
   -8.0712  -19.9103   -0.1925 C   0  0  0  0  0  0  0  0  0  0  0  0
  -10.2887  -19.4630    0.8697 H   0  0  0  0  0  0  0  0  0  0  0  0
  -13.0996  -15.7676    4.6261 C   0  0  0  0  0  0  0  0  0  0  0  0
  -13.4354  -16.2187    5.7254 O   0  0  0  0  0  0  0  0  0  0  0  0
  -13.6361  -14.6925    4.1913 O   0  0  0  0  0  0  0  0  0  0  0  0
  -13.3840  -14.3470    3.3577 H   0  0  0  0  0  0  0  0  0  0  0  0
  -10.5176  -16.0602    0.6433 O   0  0  0  0  0  0  0  0  0  0  0  0
  -11.2439  -15.8042   -0.5847 C   0  0  0  0  0  0  0  0  0  0  0  0
  -11.3868  -14.2729   -0.8896 C   0  0  0  0  0  0  0  0  0  0  0  0
  -10.7058  -13.5147    0.1232 C   0  0  0  0  0  0  0  0  0  0  0  0
  -10.5737  -16.7105   -1.5986 C   0  0  0  0  0  0  0  0  0  0  0  0
   -9.1021  -16.3452   -1.7926 C   0  0  0  0  0  0  0  0  0  0  0  0
 15 16  2  0  0  0
 15 17  1  0  0  0
 15  1  1  0  0  0
  1  2  1  0  0  0
  1  6  2  0  0  0
  2  3  1  0  0  0
  3  4  1  0  0  0
  3  7  1  0  0  0
  4 10  1  0  0  0
  4  5  1  0  0  0
 10 11  1  0  0  0
 11 12  2  0  0  0
 11 13  1  0  0  0
  5  6  1  0  0  0
  5 19  1  0  0  0
 19 20  1  0  0  0
 20 21  1  0  0  0
 20 23  1  0  0  0
 21 22  1  0  0  0
 23 24  1  0  0  0
 17 18  1  0  0  0
 10 14  1  0  0  0
  7  8  1  0  0  0
  7  9  1  0  0  0
M  END
> <minimizedAffinity>
-0.00067

$$$$
5NZ4_G39_A_503


 24 24  0  0  0  0  0  0  0  0999 V2000
  -10.5988  -12.1530    0.6668 C   0  0  0  0  0  0  0  0  0  0  0  0
   -9.3383  -12.6552    1.3710 C   0  0  0  0  0  0  0  0  0  0  0  0
   -9.5319  -12.6311    2.9057 C   0  0  0  0  0  0  0  0  0  0  0  0
  -10.8818  -13.2811    3.2861 C   0  0  0  0  0  0  0  0  0  0  0  0
  -11.9810  -12.3628    2.7482 C   0  0  0  0  0  0  0  0  0  0  0  0
  -11.7798  -12.0631    1.2947 C   0  0  0  0  0  0  0  0  0  0  0  0
   -8.3953  -13.3804    3.5202 N   0  0  0  0  0  0  0  0  0  0  0  0
   -8.3916  -14.3388    3.1711 H   0  0  0  0  0  0  0  0  0  0  0  0
   -8.5023  -13.3884    4.5345 H   0  0  0  0  0  0  0  0  0  0  0  0
  -10.9803  -13.2789    4.7630 N   0  0  0  0  0  0  0  0  0  0  0  0
  -11.2940  -14.3601    5.4854 C   0  0  0  0  0  0  0  0  0  0  0  0
  -11.5333  -15.4464    4.9751 O   0  0  0  0  0  0  0  0  0  0  0  0
  -11.3321  -14.1467    6.9831 C   0  0  0  0  0  0  0  0  0  0  0  0
  -10.8053  -12.4355    5.2397 H   0  0  0  0  0  0  0  0  0  0  0  0
  -10.4576  -11.6198   -0.6664 C   0  0  0  0  0  0  0  0  0  0  0  0
   -9.3367  -11.5007   -1.1704 O   0  0  0  0  0  0  0  0  0  0  0  0
  -11.4886  -11.2343   -1.3152 O   0  0  0  0  0  0  0  0  0  0  0  0
  -12.3410  -11.3230   -0.9362 H   0  0  0  0  0  0  0  0  0  0  0  0
  -13.2561  -12.9962    2.9238 O   0  0  0  0  0  0  0  0  0  0  0  0
  -14.3240  -12.0766    3.2631 C   0  0  0  0  0  0  0  0  0  0  0  0
  -15.5764  -12.2420    2.3346 C   0  0  0  0  0  0  0  0  0  0  0  0
  -15.3486  -13.3137    1.4051 C   0  0  0  0  0  0  0  0  0  0  0  0
  -14.4772  -12.2359    4.7630 C   0  0  0  0  0  0  0  0  0  0  0  0
  -14.8933  -13.6584    5.1375 C   0  0  0  0  0  0  0  0  0  0  0  0
 15 16  2  0  0  0
 15 17  1  0  0  0
 15  1  1  0  0  0
  1  2  1  0  0  0
  1  6  2  0  0  0
  2  3  1  0  0  0
  3  4  1  0  0  0
  3  7  1  0  0  0
  4 10  1  0  0  0
  4  5  1  0  0  0
 10 11  1  0  0  0
 11 12  2  0  0  0
 11 13  1  0  0  0
  5  6  1  0  0  0
  5 19  1  0  0  0
 19 20  1  0  0  0
 20 21  1  0  0  0
 20 23  1  0  0  0
 21 22  1  0  0  0
 23 24  1  0  0  0
 17 18  1  0  0  0
 10 14  1  0  0  0
  7  8  1  0  0  0
  7  9  1  0  0  0
M  END
> <minimizedAffinity>
-0.00065

$$$$
5NZ4_G39_A_503


 24 24  0  0  0  0  0  0  0  0999 V2000
  -10.3327  -17.1256    3.1196 C   0  0  0  0  0  0  0  0  0  0  0  0
  -10.8697  -15.6946    3.1476 C   0  0  0  0  0  0  0  0  0  0  0  0
   -9.7091  -14.6862    3.3190 C   0  0  0  0  0  0  0  0  0  0  0  0
   -8.5658  -15.0116    2.3308 C   0  0  0  0  0  0  0  0  0  0  0  0
   -7.9736  -16.3530    2.7672 C   0  0  0  0  0  0  0  0  0  0  0  0
   -9.0365  -17.3980    2.9130 C   0  0  0  0  0  0  0  0  0  0  0  0
  -10.2522  -13.3185    3.0634 N   0  0  0  0  0  0  0  0  0  0  0  0
  -10.6326  -13.2749    2.1181 H   0  0  0  0  0  0  0  0  0  0  0  0
   -9.5041  -12.6319    3.1609 H   0  0  0  0  0  0  0  0  0  0  0  0
   -7.5166  -13.9821    2.5040 N   0  0  0  0  0  0  0  0  0  0  0  0
   -6.9743  -13.2999    1.4892 C   0  0  0  0  0  0  0  0  0  0  0  0
   -7.3025  -13.4808    0.3242 O   0  0  0  0  0  0  0  0  0  0  0  0
   -5.9232  -12.2847    1.8826 C   0  0  0  0  0  0  0  0  0  0  0  0
   -7.2005  -13.7887    3.4162 H   0  0  0  0  0  0  0  0  0  0  0  0
  -11.2363  -18.1905    3.4816 C   0  0  0  0  0  0  0  0  0  0  0  0
  -12.3719  -17.9277    3.8893 O   0  0  0  0  0  0  0  0  0  0  0  0
  -10.8517  -19.4073    3.4174 O   0  0  0  0  0  0  0  0  0  0  0  0
   -9.9908  -19.6109    3.1086 H   0  0  0  0  0  0  0  0  0  0  0  0
   -7.0181  -16.7899    1.7903 O   0  0  0  0  0  0  0  0  0  0  0  0
   -5.8686  -17.4661    2.3584 C   0  0  0  0  0  0  0  0  0  0  0  0
   -5.5888  -18.8499    1.6768 C   0  0  0  0  0  0  0  0  0  0  0  0
   -6.5347  -19.0648    0.6170 C   0  0  0  0  0  0  0  0  0  0  0  0
   -4.7884  -16.4022    2.3649 C   0  0  0  0  0  0  0  0  0  0  0  0
   -4.4541  -15.9321    0.9493 C   0  0  0  0  0  0  0  0  0  0  0  0
 15 16  2  0  0  0
 15 17  1  0  0  0
 15  1  1  0  0  0
  1  2  1  0  0  0
  1  6  2  0  0  0
  2  3  1  0  0  0
  3  4  1  0  0  0
  3  7  1  0  0  0
  4 10  1  0  0  0
  4  5  1  0  0  0
 10 11  1  0  0  0
 11 12  2  0  0  0
 11 13  1  0  0  0
  5  6  1  0  0  0
  5 19  1  0  0  0
 19 20  1  0  0  0
 20 21  1  0  0  0
 20 23  1  0  0  0
 21 22  1  0  0  0
 23 24  1  0  0  0
 17 18  1  0  0  0
 10 14  1  0  0  0
  7  8  1  0  0  0
  7  9  1  0  0  0
M  END
> <minimizedAffinity>
-0.00064

$$$$
5NZ4_G39_A_503


 24 24  0  0  0  0  0  0  0  0999 V2000
   -7.7629  -12.7329    1.1656 C   0  0  0  0  0  0  0  0  0  0  0  0
   -6.8309  -11.8392    0.3474 C   0  0  0  0  0  0  0  0  0  0  0  0
   -5.3577  -12.0822    0.7522 C   0  0  0  0  0  0  0  0  0  0  0  0
   -5.0560  -13.5978    0.7935 C   0  0  0  0  0  0  0  0  0  0  0  0
   -5.8707  -14.1785    1.9510 C   0  0  0  0  0  0  0  0  0  0  0  0
   -7.3151  -13.7962    1.8483 C   0  0  0  0  0  0  0  0  0  0  0  0
   -4.4900  -11.4002   -0.2543 N   0  0  0  0  0  0  0  0  0  0  0  0
   -4.6785  -11.7831   -1.1807 H   0  0  0  0  0  0  0  0  0  0  0  0
   -3.5098  -11.5520   -0.0167 H   0  0  0  0  0  0  0  0  0  0  0  0
   -3.6237  -13.7610    1.1288 N   0  0  0  0  0  0  0  0  0  0  0  0
   -2.7847  -14.5371    0.4337 C   0  0  0  0  0  0  0  0  0  0  0  0
   -3.1417  -15.1852   -0.5410 O   0  0  0  0  0  0  0  0  0  0  0  0
   -1.3577  -14.5578    0.9373 C   0  0  0  0  0  0  0  0  0  0  0  0
   -3.2690  -13.2717    1.9059 H   0  0  0  0  0  0  0  0  0  0  0  0
   -9.1345  -12.3126    1.3195 C   0  0  0  0  0  0  0  0  0  0  0  0
   -9.4931  -11.2053    0.9072 O   0  0  0  0  0  0  0  0  0  0  0  0
   -9.9737  -13.0690    1.9164 O   0  0  0  0  0  0  0  0  0  0  0  0
   -9.7055  -13.9100    2.2307 H   0  0  0  0  0  0  0  0  0  0  0  0
   -5.7627  -15.6090    1.9361 O   0  0  0  0  0  0  0  0  0  0  0  0
   -5.7149  -16.2054    3.2564 C   0  0  0  0  0  0  0  0  0  0  0  0
   -6.7596  -17.3613    3.4312 C   0  0  0  0  0  0  0  0  0  0  0  0
   -7.4692  -17.5596    2.1977 C   0  0  0  0  0  0  0  0  0  0  0  0
   -4.2413  -16.4883    3.4737 C   0  0  0  0  0  0  0  0  0  0  0  0
   -3.7026  -17.4834    2.4459 C   0  0  0  0  0  0  0  0  0  0  0  0
 15 16  2  0  0  0
 15 17  1  0  0  0
 15  1  1  0  0  0
  1  2  1  0  0  0
  1  6  2  0  0  0
  2  3  1  0  0  0
  3  4  1  0  0  0
  3  7  1  0  0  0
  4 10  1  0  0  0
  4  5  1  0  0  0
 10 11  1  0  0  0
 11 12  2  0  0  0
 11 13  1  0  0  0
  5  6  1  0  0  0
  5 19  1  0  0  0
 19 20  1  0  0  0
 20 21  1  0  0  0
 20 23  1  0  0  0
 21 22  1  0  0  0
 23 24  1  0  0  0
 17 18  1  0  0  0
 10 14  1  0  0  0
  7  8  1  0  0  0
  7  9  1  0  0  0
M  END
> <minimizedAffinity>
-0.00064

$$$$
5NZ4_G39_A_503


 24 24  0  0  0  0  0  0  0  0999 V2000
   -9.7345  -11.7448   -2.8538 C   0  0  0  0  0  0  0  0  0  0  0  0
   -9.2012  -11.2187   -1.5212 C   0  0  0  0  0  0  0  0  0  0  0  0
  -10.1186  -11.6659   -0.3587 C   0  0  0  0  0  0  0  0  0  0  0  0
  -10.4271  -13.1766   -0.4698 C   0  0  0  0  0  0  0  0  0  0  0  0
  -11.2831  -13.3611   -1.7243 C   0  0  0  0  0  0  0  0  0  0  0  0
  -10.6418  -12.7293   -2.9211 C   0  0  0  0  0  0  0  0  0  0  0  0
   -9.4106  -11.3662    0.9218 N   0  0  0  0  0  0  0  0  0  0  0  0
   -8.5241  -11.8701    0.9462 H   0  0  0  0  0  0  0  0  0  0  0  0
   -9.9905  -11.6600    1.7078 H   0  0  0  0  0  0  0  0  0  0  0  0
  -11.2570  -13.5518    0.6970 N   0  0  0  0  0  0  0  0  0  0  0  0
  -10.9875  -14.5928    1.4927 C   0  0  0  0  0  0  0  0  0  0  0  0
  -10.0263  -15.3284    1.3120 O   0  0  0  0  0  0  0  0  0  0  0  0
  -11.9566  -14.7985    2.6367 C   0  0  0  0  0  0  0  0  0  0  0  0
  -12.0508  -13.0054    0.8984 H   0  0  0  0  0  0  0  0  0  0  0  0
   -9.3532  -11.0430   -4.0553 C   0  0  0  0  0  0  0  0  0  0  0  0
   -8.7112   -9.9908   -3.9809 O   0  0  0  0  0  0  0  0  0  0  0  0
   -9.7109  -11.4878   -5.1985 O   0  0  0  0  0  0  0  0  0  0  0  0
  -10.1982  -12.2858   -5.2592 H   0  0  0  0  0  0  0  0  0  0  0  0
  -11.4626  -14.7624   -1.9740 O   0  0  0  0  0  0  0  0  0  0  0  0
  -12.7727  -15.1005   -2.4941 C   0  0  0  0  0  0  0  0  0  0  0  0
  -12.6955  -15.9774   -3.7915 C   0  0  0  0  0  0  0  0  0  0  0  0
  -11.3210  -16.2586   -4.1016 C   0  0  0  0  0  0  0  0  0  0  0  0
  -13.5212  -15.6200   -1.2824 C   0  0  0  0  0  0  0  0  0  0  0  0
  -12.8625  -16.8753   -0.7104 C   0  0  0  0  0  0  0  0  0  0  0  0
 15 16  2  0  0  0
 15 17  1  0  0  0
 15  1  1  0  0  0
  1  2  1  0  0  0
  1  6  2  0  0  0
  2  3  1  0  0  0
  3  4  1  0  0  0
  3  7  1  0  0  0
  4 10  1  0  0  0
  4  5  1  0  0  0
 10 11  1  0  0  0
 11 12  2  0  0  0
 11 13  1  0  0  0
  5  6  1  0  0  0
  5 19  1  0  0  0
 19 20  1  0  0  0
 20 21  1  0  0  0
 20 23  1  0  0  0
 21 22  1  0  0  0
 23 24  1  0  0  0
 17 18  1  0  0  0
 10 14  1  0  0  0
  7  8  1  0  0  0
  7  9  1  0  0  0
M  END
> <minimizedAffinity>
-0.00062

$$$$
5NZ4_G39_A_503


 24 24  0  0  0  0  0  0  0  0999 V2000
  -12.7277  -15.0464   -0.6049 C   0  0  0  0  0  0  0  0  0  0  0  0
  -11.2475  -15.3972   -0.7553 C   0  0  0  0  0  0  0  0  0  0  0  0
  -11.0866  -16.8412   -1.2865 C   0  0  0  0  0  0  0  0  0  0  0  0
  -12.0128  -17.0715   -2.5026 C   0  0  0  0  0  0  0  0  0  0  0  0
  -13.4496  -17.0147   -1.9800 C   0  0  0  0  0  0  0  0  0  0  0  0
  -13.6952  -15.7655   -1.1913 C   0  0  0  0  0  0  0  0  0  0  0  0
   -9.6558  -17.0283   -1.6719 N   0  0  0  0  0  0  0  0  0  0  0  0
   -9.4055  -16.3487   -2.3902 H   0  0  0  0  0  0  0  0  0  0  0  0
   -9.5222  -17.9719   -2.0354 H   0  0  0  0  0  0  0  0  0  0  0  0
  -11.7707  -18.4454   -2.9969 N   0  0  0  0  0  0  0  0  0  0  0  0
  -11.5271  -18.7383   -4.2792 C   0  0  0  0  0  0  0  0  0  0  0  0
  -11.4914  -17.8840   -5.1546 O   0  0  0  0  0  0  0  0  0  0  0  0
  -11.2969  -20.2049   -4.5736 C   0  0  0  0  0  0  0  0  0  0  0  0
  -11.7901  -19.1841   -2.3464 H   0  0  0  0  0  0  0  0  0  0  0  0
  -13.0803  -14.0005    0.3244 C   0  0  0  0  0  0  0  0  0  0  0  0
  -12.2209  -13.5162    1.0672 O   0  0  0  0  0  0  0  0  0  0  0  0
  -14.2903  -13.5985    0.4084 O   0  0  0  0  0  0  0  0  0  0  0  0
  -14.9453  -13.9635   -0.1535 H   0  0  0  0  0  0  0  0  0  0  0  0
  -14.3593  -17.0552   -3.0886 O   0  0  0  0  0  0  0  0  0  0  0  0
  -15.5703  -17.8066   -2.8240 C   0  0  0  0  0  0  0  0  0  0  0  0
  -16.8670  -16.9993   -3.1772 C   0  0  0  0  0  0  0  0  0  0  0  0
  -16.5045  -15.7211   -3.7243 C   0  0  0  0  0  0  0  0  0  0  0  0
  -15.3182  -19.1465   -3.4872 C   0  0  0  0  0  0  0  0  0  0  0  0
  -15.1312  -18.9998   -4.9973 C   0  0  0  0  0  0  0  0  0  0  0  0
 15 16  2  0  0  0
 15 17  1  0  0  0
 15  1  1  0  0  0
  1  2  1  0  0  0
  1  6  2  0  0  0
  2  3  1  0  0  0
  3  4  1  0  0  0
  3  7  1  0  0  0
  4 10  1  0  0  0
  4  5  1  0  0  0
 10 11  1  0  0  0
 11 12  2  0  0  0
 11 13  1  0  0  0
  5  6  1  0  0  0
  5 19  1  0  0  0
 19 20  1  0  0  0
 20 21  1  0  0  0
 20 23  1  0  0  0
 21 22  1  0  0  0
 23 24  1  0  0  0
 17 18  1  0  0  0
 10 14  1  0  0  0
  7  8  1  0  0  0
  7  9  1  0  0  0
M  END
> <minimizedAffinity>
-0.00056

$$$$
