5QAL_TVZ_A_301
  RCSB PDB01131817383D
Coordinates from PDB:5QAL:A:301 Model:1 without hydrogens
 18 19  0  0  0  0            999 V2000
  -14.1700  -27.7170   30.5100   N 0  0  0  0  0  0  0  0  0  0  0  0
  -10.6750  -19.5720   26.8360   C 0  0  0  0  0  0  0  0  0  0  0  0
  -11.1730  -19.3450   27.9630   O 0  0  0  0  0  0  0  0  0  0  0  0
  -10.5770  -21.0120   26.3990   C 0  0  0  0  0  0  0  0  0  0  0  0
  -10.5400  -25.2330   28.4980   C 0  0  0  0  0  0  0  0  0  0  0  0
  -10.4220  -23.6710   25.6110   C 0  0  0  0  0  0  0  0  0  0  0  0
   -9.9970  -22.6670   24.7570   C 0  0  0  0  0  0  0  0  0  0  0  0
  -10.0720  -21.3420   25.1490   C 0  0  0  0  0  0  0  0  0  0  0  0
  -11.0000  -22.0270   27.2490   C 0  0  0  0  0  0  0  0  0  0  0  0
  -10.9350  -23.3660   26.8710   C 0  0  0  0  0  0  0  0  0  0  0  0
  -11.4250  -24.4310   27.7820   C 0  0  0  0  0  0  0  0  0  0  0  0
  -12.7880  -24.6600   27.9530   C 0  0  0  0  0  0  0  0  0  0  0  0
  -13.2490  -25.6520   28.7970   C 0  0  0  0  0  0  0  0  0  0  0  0
  -12.3590  -26.4530   29.5020   C 0  0  0  0  0  0  0  0  0  0  0  0
  -12.8540  -27.5490   30.4000   C 0  0  0  0  0  0  0  0  0  0  0  0
  -10.9960  -26.2260   29.3440   C 0  0  0  0  0  0  0  0  0  0  0  0
  -12.0350  -28.2610   31.0030   O 0  0  0  0  0  0  0  0  0  0  0  0
  -10.2570  -18.6870   26.0510   O 0  0  0  0  0  0  0  0  0  0  0  0
  7  8  2  0  0  0  0
  7  6  1  0  0  0  0
  8  4  1  0  0  0  0
  6 10  2  0  0  0  0
 18  2  2  0  0  0  0
  4  2  1  0  0  0  0
  4  9  2  0  0  0  0
  2  3  1  0  0  0  0
 10  9  1  0  0  0  0
 10 11  1  0  0  0  0
 11 12  2  0  0  0  0
 11  5  1  0  0  0  0
 12 13  1  0  0  0  0
  5 16  2  0  0  0  0
 13 14  2  0  0  0  0
 16 14  1  0  0  0  0
 14 15  1  0  0  0  0
 15  1  1  0  0  0  0
 15 17  2  0  0  0  0
A    1
N
A    2
C
A    3
O
A    4
C1
A    5
C10
A    6
C11
A    7
C12
A    8
C13
A    9
C2
A   10
C3
A   11
C4
A   12
C5
A   13
C6
A   14
C7
A   15
C8
A   16
C9
A   17
O1
A   18
O2
M  END
>  <InstanceId>
5QAL_TVZ_A_301

>  <ChemCompId>
TVZ

>  <PdbId>
5QAL

>  <ChainId>
A

>  <ResidueNumber>
301

>  <InsertionCode>


>  <Model>
1

>  <AltIds>


>  <MissingHeavyAtoms>
0

>  <ObservedFormula>
C14 N O3

>  <Name>
3-(4-aminocarbonylphenyl)benzoic acid

>  <SystematicName>
3-(4-aminocarbonylphenyl)benzoic acid

>  <Synonyms>


>  <Type>
NON-POLYMER

>  <Formula>
C14 H11 N O3

>  <MolecularWeight>
241.242

>  <ModifiedDate>
2018-01-05

>  <Parent>


>  <OneLetterCode>


>  <SubcomponentList>


>  <AmbiguousFlag>
N

>  <InChI>
InChI=1S/C14H11NO3/c15-13(16)10-6-4-9(5-7-10)11-2-1-3-12(8-11)14(17)18/h1-8H,(H2,15,16)(H,17,18)

>  <InChIKey>
NZYMBNSXWYJPEG-UHFFFAOYSA-N

>  <SMILES>
c1cc(cc(c1)C(=O)O)c2ccc(cc2)C(=O)N

$$$$
