2AOG_2NC_A_400
  RCSB PDB12061705013D
Coordinates from PDB:2AOG:A:400 Model:1 without hydrogens
 54 53  0  0  0  0            999 V2000
   23.4090   24.3380   19.8370   C 0  0  0  0  0  0  0  0  0  0  0  0
   22.9580   24.7500   20.9100   O 0  0  0  0  0  0  0  0  0  0  0  0
   24.0730   23.0180   19.6860   C 0  0  0  0  0  0  0  0  0  0  0  0
   23.3340   25.1010   18.7410   N 0  0  0  0  0  0  0  0  0  0  0  0
   22.7820   26.4170   18.7280   C 0  0  0  0  0  0  0  0  0  0  0  0
   21.3940   26.5210   18.0600   C 0  0  0  0  0  0  0  0  0  0  0  0
   20.7730   27.5990   18.1710   O 0  0  0  0  0  0  0  0  0  0  0  0
   23.7180   27.4060   18.0150   C 0  0  0  0  0  0  0  0  0  0  0  0
   23.8990   26.9760   16.6590   O 0  0  0  0  0  0  0  0  0  0  0  0
   25.0840   27.4940   18.7170   C 0  0  0  0  0  0  0  0  0  0  0  0
   20.9160   25.4820   17.4120   N 0  0  0  0  0  0  0  0  0  0  0  0
   19.6290   25.5180   16.7320   C 0  0  0  0  0  0  0  0  0  0  0  0
   18.7620   24.4610   17.3580   C 0  0  0  0  0  0  0  0  0  0  0  0
   18.7270   23.3020   16.8930   O 0  0  0  0  0  0  0  0  0  0  0  0
   19.7760   25.3160   15.2160   C 0  0  0  0  0  0  0  0  0  0  0  0
   20.8930   26.1790   14.6010   C 0  0  0  0  0  0  0  0  0  0  0  0
   18.4710   25.5010   14.5110   C 0  0  0  0  0  0  0  0  0  0  0  0
   20.6560   27.6730   14.6740   C 0  0  0  0  0  0  0  0  0  0  0  0
   18.0930   24.7630   18.4100   N 0  0  0  0  0  0  0  0  0  0  0  0
   17.2900   23.8120   19.1680   C 0  0  0  0  0  0  0  0  0  0  0  0
   15.7930   23.9200   18.8920   C 0  0  0  0  0  0  0  0  0  0  0  0
   17.5910   23.9840   20.6610   C 0  0  0  0  0  0  0  0  0  0  0  0
   19.0510   24.0060   21.0530   C 0  0  0  0  0  0  0  0  0  0  0  0
   19.7750   22.7310   20.7080   C 0  0  0  0  0  0  0  0  0  0  0  0
   19.1800   21.4920   21.3350   C 0  0  0  0  0  0  0  0  0  0  0  0
   15.4740   23.7520   17.5080   N 0  0  0  0  0  0  0  0  0  0  0  0
   14.2570   23.0180   17.1030   C 0  0  0  0  0  0  0  0  0  0  0  0
   14.2740   21.6000   17.5980   C 0  0  0  0  0  0  0  0  0  0  0  0
   15.2960   20.8920   17.5240   O 0  0  0  0  0  0  0  0  0  0  0  0
   14.1960   22.9420   15.5960   C 0  0  0  0  0  0  0  0  0  0  0  0
   12.9430   22.4340   14.9470   C 0  0  0  0  0  0  0  0  0  0  0  0
   13.1020   21.0100   14.4430   C 0  0  0  0  0  0  0  0  0  0  0  0
   14.2020   20.8320   13.4250   C 0  0  0  0  0  0  0  0  0  0  0  0
   13.1400   21.1090   18.0520   N 0  0  0  0  0  0  0  0  0  0  0  0
   13.0220   19.7230   18.4990   C 0  0  0  0  0  0  0  0  0  0  0  0
   11.6150   19.2450   18.1490   C 0  0  0  0  0  0  0  0  0  0  0  0
   10.6170   19.9110   18.4430   O 0  0  0  0  0  0  0  0  0  0  0  0
   13.3860   19.5640   19.9510   C 0  0  0  0  0  0  0  0  0  0  0  0
   13.1930   18.1750   20.5100   C 0  0  0  0  0  0  0  0  0  0  0  0
   11.7850   17.8930   20.9980   C 0  0  0  0  0  0  0  0  0  0  0  0
   11.0950   18.7940   21.3860   O 0  0  0  0  0  0  0  0  0  0  0  0
   11.3560   16.6490   20.9500   N 0  0  0  0  0  0  0  0  0  0  0  0
   11.5370   18.0240   17.6610   N 0  0  0  0  0  0  0  0  0  0  0  0
   10.2990   17.4130   17.2790   C 0  0  0  0  0  0  0  0  0  0  0  0
   10.1980   16.0410   17.9470   C 0  0  0  0  0  0  0  0  0  0  0  0
   11.1370   15.2490   17.9860   O 0  0  0  0  0  0  0  0  0  0  0  0
   10.2390   17.1850   15.7790   C 0  0  0  0  0  0  0  0  0  0  0  0
   10.1700   18.4620   14.9970   C 0  0  0  0  0  0  0  0  0  0  0  0
   10.3350   18.2120   13.5210   C 0  0  0  0  0  0  0  0  0  0  0  0
    9.7860   19.3600   12.7800   N 0  0  0  0  0  0  0  0  0  0  0  0
    9.5980   19.3840   11.4910   C 0  0  0  0  0  0  0  0  0  0  0  0
    9.9970   18.3230   10.7800   N 0  0  0  0  0  0  0  0  0  0  0  0
    9.0520   20.4440   10.8900   N 0  3  0  0  0  0  0  0  0  0  0  0
    8.9430   15.7370   18.4710   N 0  0  0  0  0  0  0  0  0  0  0  0
  1  2  2  0  0  0  0
  1  3  1  0  0  0  0
  4  5  1  0  0  0  0
  5  6  1  0  0  0  0
  5  8  1  0  0  0  0
  6  7  2  0  0  0  0
  8  9  1  0  0  0  0
  8 10  1  0  0  0  0
 11 12  1  0  0  0  0
 12 13  1  0  0  0  0
 12 15  1  0  0  0  0
 13 14  2  0  0  0  0
 15 16  1  0  0  0  0
 15 17  1  0  0  0  0
 16 18  1  0  0  0  0
 19 20  1  0  0  0  0
 20 21  1  0  0  0  0
 20 22  1  0  0  0  0
 22 23  1  0  0  0  0
 23 24  1  0  0  0  0
 24 25  1  0  0  0  0
 26 27  1  0  0  0  0
 27 28  1  0  0  0  0
 27 30  1  0  0  0  0
 28 29  2  0  0  0  0
 30 31  1  0  0  0  0
 31 32  1  0  0  0  0
 32 33  1  0  0  0  0
 34 35  1  0  0  0  0
 35 36  1  0  0  0  0
 35 38  1  0  0  0  0
 36 37  2  0  0  0  0
 38 39  1  0  0  0  0
 39 40  1  0  0  0  0
 40 41  2  0  0  0  0
 40 42  1  0  0  0  0
 43 44  1  0  0  0  0
 44 45  1  0  0  0  0
 44 47  1  0  0  0  0
 45 46  2  0  0  0  0
 47 48  1  0  0  0  0
 48 49  1  0  0  0  0
 49 50  1  0  0  0  0
 50 51  1  0  0  0  0
 51 52  1  0  0  0  0
 51 53  2  0  0  0  0
  1  4  1  0  0  0  0
  6 11  1  0  0  0  0
 13 19  1  0  0  0  0
 21 26  1  0  0  0  0
 28 34  1  0  0  0  0
 36 43  1  0  0  0  0
 45 54  1  0  0  0  0
M  CHG  1  53   1
A    1
C
A    2
O
A    3
CH3
A    4
N
A    5
CA
A    6
C1
A    7
O1
A    8
CB
A    9
OG1
A   10
CG2
A   11
N1
A   12
CA1
A   13
C2
A   14
O2
A   15
CB1
A   16
CG1
A   17
CG21
A   18
CD1
A   19
N2
A   20
CA2
A   21
C3
A   22
CB2
A   23
CG
A   24
CD
A   25
CE
A   26
N3
A   27
CA3
A   28
C4
A   29
O3
A   30
CB3
A   31
CG3
A   32
CD2
A   33
CE1
A   34
N4
A   35
CA4
A   36
C5
A   37
O4
A   38
CB4
A   39
CG4
A   40
CD3
A   41
OE1
A   42
NE2
A   43
N5
A   44
CA5
A   45
C6
A   46
O5
A   47
CB5
A   48
CG5
A   49
CD4
A   50
NE
A   51
CZ
A   52
NH1
A   53
NH2
A   54
N6
M  END
>  <InstanceId>
2AOG_2NC_A_400

>  <ChemCompId>
2NC

>  <PdbId>
2AOG

>  <ChainId>
A

>  <ResidueNumber>
400

>  <InsertionCode>


>  <Model>
1

>  <AltIds>


>  <MissingHeavyAtoms>
0

>  <ObservedFormula>
C35 N11 O8

>  <Name>
N-{(2S)-2-[(N-acetyl-L-threonyl-L-isoleucyl)amino]hexyl}-L-norleucyl-L-glutaminyl-N~5~-[amino(iminio)methyl]-L-ornithinamide

>  <SystematicName>
[[[(4S)-4-[[(2S)-2-[[(2S)-2-[[(2S)-2-[[(2S,3S)-2-[[(2S,3R)-2-acetamido-3-hydroxy-butanoyl]amino]-3-methyl-pentanoyl]amino]hexyl]amino]hexanoyl]amino]-5-azanyl-5-oxo-pentanoyl]amino]-5-azanyl-5-oxo-pentyl]amino]-azanyl-methylidene]azanium

>  <Synonyms>
p2/NC

>  <Type>
peptide-like

>  <Formula>
C35 H68 N11 O8

>  <MolecularWeight>
770.983

>  <ModifiedDate>
2012-01-05

>  <Parent>


>  <OneLetterCode>


>  <SubcomponentList>
ACE THR ILE 2A0 GLN ARG NH2

>  <AmbiguousFlag>
N

>  <InChI>
InChI=1S/C35H67N11O8/c1-7-10-13-23(43-33(53)28(20(4)9-3)46-34(54)29(21(5)47)42-22(6)48)19-41-25(14-11-8-2)31(51)45-26(16-17-27(36)49)32(52)44-24(30(37)50)15-12-18-40-35(38)39/h20-21,23-26,28-29,41,47H,7-19H2,1-6H3,(H2,36,49)(H2,37,50)(H,42,48)(H,43,53)(H,44,52)(H,45,51)(H,46,54)(H4,38,39,40)/p+1/t20-,21+,23-,24-,25-,26-,28-,29-/m0/s1

>  <InChIKey>
MQPXOVRKKPPKFZ-QYKDHROSSA-O

>  <SMILES>
CCCC[C@@H](CN[C@@H](CCCC)C(=O)N[C@@H](CCC(=O)N)C(=O)N[C@@H](CCCNC(=[NH2+])N)C(=O)N)NC(=O)[C@H]([C@@H](C)CC)NC(=O)[C@H]([C@@H](C)O)NC(=O)C

$$$$
