2AOG_2NC_A_400


 70 69  0  0  0  0  0  0  0  0999 V2000
   14.3575   22.9690   16.8660 C   0  0  0  0  0  0  0  0  0  0  0  0
   14.3884   21.5529   17.3657 C   0  0  0  0  0  0  0  0  0  0  0  0
   15.3597   20.8033   17.1517 O   0  0  0  0  0  0  0  0  0  0  0  0
   13.3127   21.1103   17.9823 N   0  0  0  0  0  0  0  0  0  0  0  0
   12.5592   21.7264   18.1301 H   0  0  0  0  0  0  0  0  0  0  0  0
   13.2045   19.7316   18.4537 C   0  0  0  0  0  0  0  0  0  0  0  0
   11.7895   19.2494   18.1443 C   0  0  0  0  0  0  0  0  0  0  0  0
   10.8006   19.7846   18.6560 O   0  0  0  0  0  0  0  0  0  0  0  0
   11.7111   18.1456   17.4298 N   0  0  0  0  0  0  0  0  0  0  0  0
   12.5471   17.7101   17.1457 H   0  0  0  0  0  0  0  0  0  0  0  0
   10.4661   17.5495   17.0471 C   0  0  0  0  0  0  0  0  0  0  0  0
   10.2272   16.3080   17.9076 C   0  0  0  0  0  0  0  0  0  0  0  0
   10.4661   15.1688   17.5133 O   0  0  0  0  0  0  0  0  0  0  0  0
    9.6740   16.5633   19.1610 N   0  0  0  0  0  0  0  0  0  0  0  0
    9.4970   17.4902   19.4414 H   0  0  0  0  0  0  0  0  0  0  0  0
    9.4603   15.8166   19.7660 H   0  0  0  0  0  0  0  0  0  0  0  0
   10.4989   17.0904   15.6001 C   0  0  0  0  0  0  0  0  0  0  0  0
   11.1726   18.0738   14.6911 C   0  0  0  0  0  0  0  0  0  0  0  0
   10.2027   19.1101   14.1875 C   0  0  0  0  0  0  0  0  0  0  0  0
   10.4454   20.3751   14.9013 N   0  0  0  0  0  0  0  0  0  0  0  0
   11.3784   20.6161   15.1030 H   0  0  0  0  0  0  0  0  0  0  0  0
    9.5098   21.1970   15.2841 C   0  0  0  0  0  0  0  0  0  0  0  0
    9.2001   21.2311   16.5854 N   0  0  0  0  0  0  0  0  0  0  0  0
    8.8571   21.9617   14.4054 N   0  0  0  0  0  0  0  0  0  0  0  0
    9.6891   20.6622   17.2229 H   0  0  0  0  0  0  0  0  0  0  0  0
    8.4831   21.8252   16.9053 H   0  0  0  0  0  0  0  0  0  0  0  0
    9.0949   21.9271   13.4506 H   0  0  0  0  0  0  0  0  0  0  0  0
    8.1381   22.5602   14.7122 H   0  0  0  0  0  0  0  0  0  0  0  0
   13.6024   19.5951   19.8991 C   0  0  0  0  0  0  0  0  0  0  0  0
   13.5957   18.1832   20.4334 C   0  0  0  0  0  0  0  0  0  0  0  0
   12.3779   17.8427   21.2707 C   0  0  0  0  0  0  0  0  0  0  0  0
   11.9585   16.7192   21.2868 O   0  0  0  0  0  0  0  0  0  0  0  0
   11.8338   18.8068   21.9837 N   0  0  0  0  0  0  0  0  0  0  0  0
   12.2056   19.7176   21.9451 H   0  0  0  0  0  0  0  0  0  0  0  0
   11.0551   18.6168   22.5554 H   0  0  0  0  0  0  0  0  0  0  0  0
   15.5248   23.7409   17.3408 N   0  0  0  0  0  0  0  0  0  0  0  0
   15.3693   24.7089   17.0593 H   0  0  0  0  0  0  0  0  0  0  0  0
   15.8604   23.7672   18.7308 C   0  0  0  0  0  0  0  0  0  0  0  0
   17.3666   23.7288   18.9732 C   0  0  0  0  0  0  0  0  0  0  0  0
   18.7331   24.4423   17.1057 C   0  0  0  0  0  0  0  0  0  0  0  0
   18.7047   23.2899   16.6243 O   0  0  0  0  0  0  0  0  0  0  0  0
   18.1082   24.7113   18.1932 N   0  0  0  0  0  0  0  0  0  0  0  0
   18.1309   25.6393   18.5213 H   0  0  0  0  0  0  0  0  0  0  0  0
   19.5423   25.5305   16.4562 C   0  0  0  0  0  0  0  0  0  0  0  0
   21.3012   26.4943   17.8207 C   0  0  0  0  0  0  0  0  0  0  0  0
   20.6110   27.4975   18.0990 O   0  0  0  0  0  0  0  0  0  0  0  0
   20.8643   25.5107   17.0661 N   0  0  0  0  0  0  0  0  0  0  0  0
   21.4500   24.7354   16.9081 H   0  0  0  0  0  0  0  0  0  0  0  0
   22.7280   26.4167   18.4053 C   0  0  0  0  0  0  0  0  0  0  0  0
   23.0651   24.4848   19.8542 C   0  0  0  0  0  0  0  0  0  0  0  0
   22.5018   25.0616   20.7893 O   0  0  0  0  0  0  0  0  0  0  0  0
   23.6568   23.1276   19.9727 C   0  0  0  0  0  0  0  0  0  0  0  0
   23.1872   25.0913   18.6683 N   0  0  0  0  0  0  0  0  0  0  0  0
   23.6183   24.5953   17.9353 H   0  0  0  0  0  0  0  0  0  0  0  0
   23.6695   27.1498   17.4363 C   0  0  0  0  0  0  0  0  0  0  0  0
   22.8934   28.0372   16.6199 O   0  0  0  0  0  0  0  0  0  0  0  0
   24.4371   26.1614   16.5417 C   0  0  0  0  0  0  0  0  0  0  0  0
   22.2475   27.5248   16.1090 H   0  0  0  0  0  0  0  0  0  0  0  0
   19.6123   25.3608   14.9307 C   0  0  0  0  0  0  0  0  0  0  0  0
   18.4214   25.9643   14.2586 C   0  0  0  0  0  0  0  0  0  0  0  0
   20.9353   25.8705   14.3302 C   0  0  0  0  0  0  0  0  0  0  0  0
   20.9146   27.3163   13.8802 C   0  0  0  0  0  0  0  0  0  0  0  0
   17.6929   23.9221   20.4583 C   0  0  0  0  0  0  0  0  0  0  0  0
   19.1502   23.8105   20.8452 C   0  0  0  0  0  0  0  0  0  0  0  0
   19.6883   22.4089   20.7239 C   0  0  0  0  0  0  0  0  0  0  0  0
   19.0722   21.4234   21.6891 C   0  0  0  0  0  0  0  0  0  0  0  0
   14.3895   22.8890   15.3583 C   0  0  0  0  0  0  0  0  0  0  0  0
   13.5393   21.8632   14.6697 C   0  0  0  0  0  0  0  0  0  0  0  0
   14.3282   21.0684   13.6435 C   0  0  0  0  0  0  0  0  0  0  0  0
   13.4807   20.1935   12.7522 C   0  0  0  0  0  0  0  0  0  0  0  0
 50 51  2  0  0  0
 50 52  1  0  0  0
 53 49  1  0  0  0
 49 45  1  0  0  0
 49 55  1  0  0  0
 45 46  2  0  0  0
 55 56  1  0  0  0
 55 57  1  0  0  0
 47 44  1  0  0  0
 44 40  1  0  0  0
 44 59  1  0  0  0
 40 41  2  0  0  0
 59 61  1  0  0  0
 59 60  1  0  0  0
 61 62  1  0  0  0
 42 39  1  0  0  0
 39 38  1  0  0  0
 39 63  1  0  0  0
 63 64  1  0  0  0
 64 65  1  0  0  0
 65 66  1  0  0  0
 36  1  1  0  0  0
  1  2  1  0  0  0
  1 67  1  0  0  0
  2  3  2  0  0  0
 67 68  1  0  0  0
 68 69  1  0  0  0
 69 70  1  0  0  0
  4  6  1  0  0  0
  6  7  1  0  0  0
  6 29  1  0  0  0
  7  8  2  0  0  0
 29 30  1  0  0  0
 30 31  1  0  0  0
 31 32  2  0  0  0
 31 33  1  0  0  0
  9 11  1  0  0  0
 11 12  1  0  0  0
 11 17  1  0  0  0
 12 13  2  0  0  0
 17 18  1  0  0  0
 18 19  1  0  0  0
 19 20  1  0  0  0
 20 22  1  0  0  0
 22 23  1  0  0  0
 22 24  2  0  0  0
 50 53  1  0  0  0
 45 47  1  0  0  0
 40 42  1  0  0  0
 38 36  1  0  0  0
  2  4  1  0  0  0
  7  9  1  0  0  0
 12 14  1  0  0  0
 53 54  1  0  0  0
 56 58  1  0  0  0
 47 48  1  0  0  0
 42 43  1  0  0  0
 36 37  1  0  0  0
  4  5  1  0  0  0
 33 34  1  0  0  0
 33 35  1  0  0  0
  9 10  1  0  0  0
 20 21  1  0  0  0
 23 25  1  0  0  0
 23 26  1  0  0  0
 24 27  1  0  0  0
 24 28  1  0  0  0
 14 15  1  0  0  0
 14 16  1  0  0  0
M  CHG 1  24   1
M  END
> <minimizedAffinity>
-8.54211

$$$$
2AOG_2NC_A_400


 70 69  0  0  0  0  0  0  0  0999 V2000
   15.5167   21.6853   16.4567 C   0  0  0  0  0  0  0  0  0  0  0  0
   16.8974   22.2571   16.3064 C   0  0  0  0  0  0  0  0  0  0  0  0
   17.9060   21.6512   16.7148 O   0  0  0  0  0  0  0  0  0  0  0  0
   16.9946   23.4624   15.7859 N   0  0  0  0  0  0  0  0  0  0  0  0
   16.1775   23.9176   15.4786 H   0  0  0  0  0  0  0  0  0  0  0  0
   18.2796   24.1445   15.6509 C   0  0  0  0  0  0  0  0  0  0  0  0
   18.6283   24.7422   17.0117 C   0  0  0  0  0  0  0  0  0  0  0  0
   17.8838   25.5565   17.5672 O   0  0  0  0  0  0  0  0  0  0  0  0
   19.8295   24.4507   17.4670 N   0  0  0  0  0  0  0  0  0  0  0  0
   20.4141   23.8801   16.9175 H   0  0  0  0  0  0  0  0  0  0  0  0
   20.3248   24.9254   18.7245 C   0  0  0  0  0  0  0  0  0  0  0  0
   21.3214   26.0566   18.4682 C   0  0  0  0  0  0  0  0  0  0  0  0
   20.9730   27.1905   18.1468 O   0  0  0  0  0  0  0  0  0  0  0  0
   22.6616   25.6921   18.5831 N   0  0  0  0  0  0  0  0  0  0  0  0
   22.9012   24.7733   18.8432 H   0  0  0  0  0  0  0  0  0  0  0  0
   23.3687   26.3534   18.4044 H   0  0  0  0  0  0  0  0  0  0  0  0
   21.0713   23.8324   19.4686 C   0  0  0  0  0  0  0  0  0  0  0  0
   20.5299   23.5890   20.8450 C   0  0  0  0  0  0  0  0  0  0  0  0
   19.2384   24.3315   21.0667 C   0  0  0  0  0  0  0  0  0  0  0  0
   18.1443   23.3545   21.1955 N   0  0  0  0  0  0  0  0  0  0  0  0
   17.9303   23.0218   22.0971 H   0  0  0  0  0  0  0  0  0  0  0  0
   17.4399   22.9003   20.1980 C   0  0  0  0  0  0  0  0  0  0  0  0
   16.5575   23.7278   19.6262 N   0  0  0  0  0  0  0  0  0  0  0  0
   17.5697   21.6404   19.7751 N   0  0  0  0  0  0  0  0  0  0  0  0
   16.4718   24.6544   19.9476 H   0  0  0  0  0  0  0  0  0  0  0  0
   15.9939   23.4100   18.8842 H   0  0  0  0  0  0  0  0  0  0  0  0
   18.2228   21.0418   20.2045 H   0  0  0  0  0  0  0  0  0  0  0  0
   17.0122   21.3101   19.0339 H   0  0  0  0  0  0  0  0  0  0  0  0
   18.2762   25.1392   14.5210 C   0  0  0  0  0  0  0  0  0  0  0  0
   19.6240   25.3963   13.8915 C   0  0  0  0  0  0  0  0  0  0  0  0
   20.3271   26.6339   14.4151 C   0  0  0  0  0  0  0  0  0  0  0  0
   19.8352   27.7154   14.2511 O   0  0  0  0  0  0  0  0  0  0  0  0
   21.4591   26.4677   15.0668 N   0  0  0  0  0  0  0  0  0  0  0  0
   21.8329   25.5642   15.1817 H   0  0  0  0  0  0  0  0  0  0  0  0
   21.9318   27.2470   15.4391 H   0  0  0  0  0  0  0  0  0  0  0  0
   15.1760   21.4473   17.8749 N   0  0  0  0  0  0  0  0  0  0  0  0
   15.8297   22.0003   18.4293 H   0  0  0  0  0  0  0  0  0  0  0  0
   13.8666   21.7463   18.3664 C   0  0  0  0  0  0  0  0  0  0  0  0
   13.0558   20.4924   18.6809 C   0  0  0  0  0  0  0  0  0  0  0  0
   11.3536   19.3292   17.4107 C   0  0  0  0  0  0  0  0  0  0  0  0
   10.5494   19.4357   18.3608 O   0  0  0  0  0  0  0  0  0  0  0  0
   12.5346   19.8223   17.4963 N   0  0  0  0  0  0  0  0  0  0  0  0
   13.1258   19.7433   16.7131 H   0  0  0  0  0  0  0  0  0  0  0  0
   10.9804   18.5751   16.1645 C   0  0  0  0  0  0  0  0  0  0  0  0
    9.9533   16.4175   16.5823 C   0  0  0  0  0  0  0  0  0  0  0  0
   11.0335   15.8110   16.4227 O   0  0  0  0  0  0  0  0  0  0  0  0
    9.8458   17.7247   16.4955 N   0  0  0  0  0  0  0  0  0  0  0  0
    8.9696   18.1424   16.6596 H   0  0  0  0  0  0  0  0  0  0  0  0
    8.6973   15.5796   16.9048 C   0  0  0  0  0  0  0  0  0  0  0  0
    7.6431   14.1971   15.1953 C   0  0  0  0  0  0  0  0  0  0  0  0
    6.8483   15.1021   14.9239 O   0  0  0  0  0  0  0  0  0  0  0  0
    7.6154   12.8651   14.5387 C   0  0  0  0  0  0  0  0  0  0  0  0
    8.5734   14.3822   16.1383 N   0  0  0  0  0  0  0  0  0  0  0  0
    9.2088   13.6509   16.3135 H   0  0  0  0  0  0  0  0  0  0  0  0
    8.7131   15.2766   18.4116 C   0  0  0  0  0  0  0  0  0  0  0  0
    9.5261   16.2560   19.0719 O   0  0  0  0  0  0  0  0  0  0  0  0
    9.2640   13.8689   18.6969 C   0  0  0  0  0  0  0  0  0  0  0  0
   10.4321   16.2087   18.7287 H   0  0  0  0  0  0  0  0  0  0  0  0
   10.6663   19.5200   14.9943 C   0  0  0  0  0  0  0  0  0  0  0  0
   10.0809   18.7790   13.8357 C   0  0  0  0  0  0  0  0  0  0  0  0
    9.7988   20.7222   15.4099 C   0  0  0  0  0  0  0  0  0  0  0  0
    9.1822   21.4899   14.2593 C   0  0  0  0  0  0  0  0  0  0  0  0
   13.8800   19.4911   19.4978 C   0  0  0  0  0  0  0  0  0  0  0  0
   13.2107   18.9134   20.7242 C   0  0  0  0  0  0  0  0  0  0  0  0
   12.9689   17.4301   20.6223 C   0  0  0  0  0  0  0  0  0  0  0  0
   11.9287   16.9048   21.5837 C   0  0  0  0  0  0  0  0  0  0  0  0
   14.5674   22.7074   15.8781 C   0  0  0  0  0  0  0  0  0  0  0  0
   13.7155   22.3219   14.7055 C   0  0  0  0  0  0  0  0  0  0  0  0
   14.1775   21.0213   14.0715 C   0  0  0  0  0  0  0  0  0  0  0  0
   14.6852   21.1670   12.6576 C   0  0  0  0  0  0  0  0  0  0  0  0
 50 51  2  0  0  0
 50 52  1  0  0  0
 53 49  1  0  0  0
 49 45  1  0  0  0
 49 55  1  0  0  0
 45 46  2  0  0  0
 55 56  1  0  0  0
 55 57  1  0  0  0
 47 44  1  0  0  0
 44 40  1  0  0  0
 44 59  1  0  0  0
 40 41  2  0  0  0
 59 61  1  0  0  0
 59 60  1  0  0  0
 61 62  1  0  0  0
 42 39  1  0  0  0
 39 38  1  0  0  0
 39 63  1  0  0  0
 63 64  1  0  0  0
 64 65  1  0  0  0
 65 66  1  0  0  0
 36  1  1  0  0  0
  1  2  1  0  0  0
  1 67  1  0  0  0
  2  3  2  0  0  0
 67 68  1  0  0  0
 68 69  1  0  0  0
 69 70  1  0  0  0
  4  6  1  0  0  0
  6  7  1  0  0  0
  6 29  1  0  0  0
  7  8  2  0  0  0
 29 30  1  0  0  0
 30 31  1  0  0  0
 31 32  2  0  0  0
 31 33  1  0  0  0
  9 11  1  0  0  0
 11 12  1  0  0  0
 11 17  1  0  0  0
 12 13  2  0  0  0
 17 18  1  0  0  0
 18 19  1  0  0  0
 19 20  1  0  0  0
 20 22  1  0  0  0
 22 23  1  0  0  0
 22 24  2  0  0  0
 50 53  1  0  0  0
 45 47  1  0  0  0
 40 42  1  0  0  0
 38 36  1  0  0  0
  2  4  1  0  0  0
  7  9  1  0  0  0
 12 14  1  0  0  0
 53 54  1  0  0  0
 56 58  1  0  0  0
 47 48  1  0  0  0
 42 43  1  0  0  0
 36 37  1  0  0  0
  4  5  1  0  0  0
 33 34  1  0  0  0
 33 35  1  0  0  0
  9 10  1  0  0  0
 20 21  1  0  0  0
 23 25  1  0  0  0
 23 26  1  0  0  0
 24 27  1  0  0  0
 24 28  1  0  0  0
 14 15  1  0  0  0
 14 16  1  0  0  0
M  CHG 1  24   1
M  END
> <minimizedAffinity>
-8.48932

$$$$
2AOG_2NC_A_400


 70 69  0  0  0  0  0  0  0  0999 V2000
   15.8019   21.9379   17.4681 C   0  0  0  0  0  0  0  0  0  0  0  0
   15.3706   21.6762   16.0533 C   0  0  0  0  0  0  0  0  0  0  0  0
   16.0578   22.0402   15.0805 O   0  0  0  0  0  0  0  0  0  0  0  0
   14.1969   21.1057   15.8793 N   0  0  0  0  0  0  0  0  0  0  0  0
   13.6751   20.8356   16.6692 H   0  0  0  0  0  0  0  0  0  0  0  0
   13.6462   20.8614   14.5482 C   0  0  0  0  0  0  0  0  0  0  0  0
   12.3704   21.6899   14.4191 C   0  0  0  0  0  0  0  0  0  0  0  0
   12.3895   22.8328   13.9507 O   0  0  0  0  0  0  0  0  0  0  0  0
   11.2972   21.1670   14.9759 N   0  0  0  0  0  0  0  0  0  0  0  0
   11.3801   20.2970   15.4290 H   0  0  0  0  0  0  0  0  0  0  0  0
   10.0152   21.8057   14.9526 C   0  0  0  0  0  0  0  0  0  0  0  0
    9.1858   21.2924   16.1305 C   0  0  0  0  0  0  0  0  0  0  0  0
    9.0181   20.0958   16.3551 O   0  0  0  0  0  0  0  0  0  0  0  0
    8.5952   22.2874   16.9071 N   0  0  0  0  0  0  0  0  0  0  0  0
    8.7535   23.2358   16.6957 H   0  0  0  0  0  0  0  0  0  0  0  0
    8.0197   22.0420   17.6672 H   0  0  0  0  0  0  0  0  0  0  0  0
    9.2529   21.4608   13.6856 C   0  0  0  0  0  0  0  0  0  0  0  0
    8.9997   22.6538   12.8140 C   0  0  0  0  0  0  0  0  0  0  0  0
    7.6868   22.5336   12.0859 C   0  0  0  0  0  0  0  0  0  0  0  0
    7.9494   22.4762   10.6381 N   0  0  0  0  0  0  0  0  0  0  0  0
    8.0587   21.5885   10.2267 H   0  0  0  0  0  0  0  0  0  0  0  0
    8.0471   23.5199    9.8644 C   0  0  0  0  0  0  0  0  0  0  0  0
    7.5641   23.4245    8.6202 N   0  0  0  0  0  0  0  0  0  0  0  0
    8.6363   24.6417   10.2852 N   0  0  0  0  0  0  0  0  0  0  0  0
    7.1319   22.5916    8.3224 H   0  0  0  0  0  0  0  0  0  0  0  0
    7.6410   24.1873    8.0025 H   0  0  0  0  0  0  0  0  0  0  0  0
    8.9875   24.6988   11.2032 H   0  0  0  0  0  0  0  0  0  0  0  0
    8.7196   25.4118    9.6776 H   0  0  0  0  0  0  0  0  0  0  0  0
   13.4607   19.3930   14.2735 C   0  0  0  0  0  0  0  0  0  0  0  0
   13.0453   19.0542   12.8622 C   0  0  0  0  0  0  0  0  0  0  0  0
   12.8453   17.5716   12.6136 C   0  0  0  0  0  0  0  0  0  0  0  0
   11.7502   17.1490   12.3675 O   0  0  0  0  0  0  0  0  0  0  0  0
   13.9072   16.7939   12.6509 N   0  0  0  0  0  0  0  0  0  0  0  0
   14.7906   17.1766   12.8566 H   0  0  0  0  0  0  0  0  0  0  0  0
   13.8177   15.8297   12.4732 H   0  0  0  0  0  0  0  0  0  0  0  0
   15.1122   23.1128   18.0404 N   0  0  0  0  0  0  0  0  0  0  0  0
   14.4430   22.7555   18.7222 H   0  0  0  0  0  0  0  0  0  0  0  0
   15.8566   24.1422   18.6973 C   0  0  0  0  0  0  0  0  0  0  0  0
   17.3581   23.8697   18.7037 C   0  0  0  0  0  0  0  0  0  0  0  0
   18.8727   24.5557   16.9432 C   0  0  0  0  0  0  0  0  0  0  0  0
   18.9412   23.3812   16.5229 O   0  0  0  0  0  0  0  0  0  0  0  0
   18.1317   24.8472   17.9488 N   0  0  0  0  0  0  0  0  0  0  0  0
   18.0824   25.7900   18.2281 H   0  0  0  0  0  0  0  0  0  0  0  0
   19.6960   25.6481   16.3190 C   0  0  0  0  0  0  0  0  0  0  0  0
   21.3968   26.5407   17.8007 C   0  0  0  0  0  0  0  0  0  0  0  0
   20.6667   27.4896   18.1566 O   0  0  0  0  0  0  0  0  0  0  0  0
   21.0078   25.6170   16.9502 N   0  0  0  0  0  0  0  0  0  0  0  0
   21.6235   24.8802   16.7328 H   0  0  0  0  0  0  0  0  0  0  0  0
   22.8158   26.4581   18.4033 C   0  0  0  0  0  0  0  0  0  0  0  0
   23.1699   24.5171   19.8358 C   0  0  0  0  0  0  0  0  0  0  0  0
   22.6224   25.0899   20.7827 O   0  0  0  0  0  0  0  0  0  0  0  0
   23.7598   23.1577   19.9376 C   0  0  0  0  0  0  0  0  0  0  0  0
   23.2755   25.1301   18.6518 N   0  0  0  0  0  0  0  0  0  0  0  0
   23.6941   24.6372   17.9094 H   0  0  0  0  0  0  0  0  0  0  0  0
   23.7681   27.2090   17.4588 C   0  0  0  0  0  0  0  0  0  0  0  0
   22.9988   28.0962   16.6358 O   0  0  0  0  0  0  0  0  0  0  0  0
   24.5621   26.2362   16.5701 C   0  0  0  0  0  0  0  0  0  0  0  0
   22.3677   27.5822   16.1082 H   0  0  0  0  0  0  0  0  0  0  0  0
   19.7904   25.4950   14.7931 C   0  0  0  0  0  0  0  0  0  0  0  0
   18.5207   25.9103   14.1227 C   0  0  0  0  0  0  0  0  0  0  0  0
   21.0193   26.2031   14.1938 C   0  0  0  0  0  0  0  0  0  0  0  0
   20.8454   27.6890   13.9581 C   0  0  0  0  0  0  0  0  0  0  0  0
   17.9018   23.8017   20.1351 C   0  0  0  0  0  0  0  0  0  0  0  0
   17.6793   22.5030   20.8765 C   0  0  0  0  0  0  0  0  0  0  0  0
   18.8957   21.6147   20.8910 C   0  0  0  0  0  0  0  0  0  0  0  0
   20.2074   22.3619   20.9501 C   0  0  0  0  0  0  0  0  0  0  0  0
   15.4337   20.7059   18.2600 C   0  0  0  0  0  0  0  0  0  0  0  0
   14.4068   20.8240   19.3466 C   0  0  0  0  0  0  0  0  0  0  0  0
   13.4706   19.6283   19.3753 C   0  0  0  0  0  0  0  0  0  0  0  0
   12.1799   19.8335   18.6203 C   0  0  0  0  0  0  0  0  0  0  0  0
 50 51  2  0  0  0
 50 52  1  0  0  0
 53 49  1  0  0  0
 49 45  1  0  0  0
 49 55  1  0  0  0
 45 46  2  0  0  0
 55 56  1  0  0  0
 55 57  1  0  0  0
 47 44  1  0  0  0
 44 40  1  0  0  0
 44 59  1  0  0  0
 40 41  2  0  0  0
 59 61  1  0  0  0
 59 60  1  0  0  0
 61 62  1  0  0  0
 42 39  1  0  0  0
 39 38  1  0  0  0
 39 63  1  0  0  0
 63 64  1  0  0  0
 64 65  1  0  0  0
 65 66  1  0  0  0
 36  1  1  0  0  0
  1  2  1  0  0  0
  1 67  1  0  0  0
  2  3  2  0  0  0
 67 68  1  0  0  0
 68 69  1  0  0  0
 69 70  1  0  0  0
  4  6  1  0  0  0
  6  7  1  0  0  0
  6 29  1  0  0  0
  7  8  2  0  0  0
 29 30  1  0  0  0
 30 31  1  0  0  0
 31 32  2  0  0  0
 31 33  1  0  0  0
  9 11  1  0  0  0
 11 12  1  0  0  0
 11 17  1  0  0  0
 12 13  2  0  0  0
 17 18  1  0  0  0
 18 19  1  0  0  0
 19 20  1  0  0  0
 20 22  1  0  0  0
 22 23  1  0  0  0
 22 24  2  0  0  0
 50 53  1  0  0  0
 45 47  1  0  0  0
 40 42  1  0  0  0
 38 36  1  0  0  0
  2  4  1  0  0  0
  7  9  1  0  0  0
 12 14  1  0  0  0
 53 54  1  0  0  0
 56 58  1  0  0  0
 47 48  1  0  0  0
 42 43  1  0  0  0
 36 37  1  0  0  0
  4  5  1  0  0  0
 33 34  1  0  0  0
 33 35  1  0  0  0
  9 10  1  0  0  0
 20 21  1  0  0  0
 23 25  1  0  0  0
 23 26  1  0  0  0
 24 27  1  0  0  0
 24 28  1  0  0  0
 14 15  1  0  0  0
 14 16  1  0  0  0
M  CHG 1  24   1
M  END
> <minimizedAffinity>
-8.13163

$$$$
2AOG_2NC_A_400


 70 69  0  0  0  0  0  0  0  0999 V2000
   13.8717   21.6960   18.5902 C   0  0  0  0  0  0  0  0  0  0  0  0
   14.7453   22.8545   18.9786 C   0  0  0  0  0  0  0  0  0  0  0  0
   14.3765   24.0341   18.8247 O   0  0  0  0  0  0  0  0  0  0  0  0
   15.9512   22.5735   19.4258 N   0  0  0  0  0  0  0  0  0  0  0  0
   16.2146   21.6306   19.5298 H   0  0  0  0  0  0  0  0  0  0  0  0
   16.9101   23.6200   19.7724 C   0  0  0  0  0  0  0  0  0  0  0  0
   17.9665   23.6590   18.6710 C   0  0  0  0  0  0  0  0  0  0  0  0
   18.2075   22.6675   17.9746 O   0  0  0  0  0  0  0  0  0  0  0  0
   18.6943   24.7558   18.6233 N   0  0  0  0  0  0  0  0  0  0  0  0
   18.5178   25.4653   19.2826 H   0  0  0  0  0  0  0  0  0  0  0  0
   19.7308   24.9642   17.6567 C   0  0  0  0  0  0  0  0  0  0  0  0
   20.8226   25.8334   18.2822 C   0  0  0  0  0  0  0  0  0  0  0  0
   21.4757   25.4794   19.2613 O   0  0  0  0  0  0  0  0  0  0  0  0
   20.9914   27.0805   17.6838 N   0  0  0  0  0  0  0  0  0  0  0  0
   20.4490   27.3280   16.9003 H   0  0  0  0  0  0  0  0  0  0  0  0
   21.6529   27.7141   18.0444 H   0  0  0  0  0  0  0  0  0  0  0  0
   19.2072   25.7100   16.4422 C   0  0  0  0  0  0  0  0  0  0  0  0
   19.2310   24.8812   15.1934 C   0  0  0  0  0  0  0  0  0  0  0  0
   17.8698   24.8142   14.5524 C   0  0  0  0  0  0  0  0  0  0  0  0
   16.8657   24.5451   15.5954 N   0  0  0  0  0  0  0  0  0  0  0  0
   16.8108   25.1727   16.3519 H   0  0  0  0  0  0  0  0  0  0  0  0
   16.0452   23.5332   15.5856 C   0  0  0  0  0  0  0  0  0  0  0  0
   14.7327   23.7914   15.5503 N   0  0  0  0  0  0  0  0  0  0  0  0
   16.4938   22.2767   15.6389 N   0  0  0  0  0  0  0  0  0  0  0  0
   14.4151   24.7224   15.5111 H   0  0  0  0  0  0  0  0  0  0  0  0
   14.0847   23.0503   15.5636 H   0  0  0  0  0  0  0  0  0  0  0  0
   17.4621   22.1004   15.6644 H   0  0  0  0  0  0  0  0  0  0  0  0
   15.8564   21.5265   15.6527 H   0  0  0  0  0  0  0  0  0  0  0  0
   17.4682   23.4393   21.1587 C   0  0  0  0  0  0  0  0  0  0  0  0
   18.9156   23.0140   21.2146 C   0  0  0  0  0  0  0  0  0  0  0  0
   19.1171   21.5181   21.3626 C   0  0  0  0  0  0  0  0  0  0  0  0
   19.2997   20.8403   20.3902 O   0  0  0  0  0  0  0  0  0  0  0  0
   19.1115   21.0151   22.5795 N   0  0  0  0  0  0  0  0  0  0  0  0
   18.9582   21.6028   23.3544 H   0  0  0  0  0  0  0  0  0  0  0  0
   19.2605   20.0514   22.7145 H   0  0  0  0  0  0  0  0  0  0  0  0
   13.7848   21.5460   17.1227 N   0  0  0  0  0  0  0  0  0  0  0  0
   14.6211   21.9821   16.7342 H   0  0  0  0  0  0  0  0  0  0  0  0
   13.6869   20.2478   16.5307 C   0  0  0  0  0  0  0  0  0  0  0  0
   12.8484   20.2443   15.2557 C   0  0  0  0  0  0  0  0  0  0  0  0
   12.6491   18.2515   13.8943 C   0  0  0  0  0  0  0  0  0  0  0  0
   13.5358   18.6720   13.1212 O   0  0  0  0  0  0  0  0  0  0  0  0
   12.3002   18.9360   14.9216 N   0  0  0  0  0  0  0  0  0  0  0  0
   11.6198   18.5536   15.5216 H   0  0  0  0  0  0  0  0  0  0  0  0
   11.9292   16.9615   13.6144 C   0  0  0  0  0  0  0  0  0  0  0  0
   10.5916   15.7284   15.2190 C   0  0  0  0  0  0  0  0  0  0  0  0
   11.2706   14.6907   15.0703 O   0  0  0  0  0  0  0  0  0  0  0  0
   10.8474   16.8496   14.5824 N   0  0  0  0  0  0  0  0  0  0  0  0
   10.2893   17.6396   14.7662 H   0  0  0  0  0  0  0  0  0  0  0  0
    9.4058   15.6781   16.2064 C   0  0  0  0  0  0  0  0  0  0  0  0
    7.5263   14.2704   15.5497 C   0  0  0  0  0  0  0  0  0  0  0  0
    7.0422   15.1912   14.8845 O   0  0  0  0  0  0  0  0  0  0  0  0
    6.8740   12.9446   15.7007 C   0  0  0  0  0  0  0  0  0  0  0  0
    8.6824   14.4479   16.1985 N   0  0  0  0  0  0  0  0  0  0  0  0
    9.0556   13.6866   16.6990 H   0  0  0  0  0  0  0  0  0  0  0  0
    9.9524   15.9932   17.6081 C   0  0  0  0  0  0  0  0  0  0  0  0
   11.3580   16.2589   17.5075 O   0  0  0  0  0  0  0  0  0  0  0  0
    9.7145   14.8252   18.5806 C   0  0  0  0  0  0  0  0  0  0  0  0
   11.8109   15.4754   17.1583 H   0  0  0  0  0  0  0  0  0  0  0  0
   11.4137   16.8939   12.1685 C   0  0  0  0  0  0  0  0  0  0  0  0
   11.4307   15.4931   11.6472 C   0  0  0  0  0  0  0  0  0  0  0  0
   10.0374   17.5607   11.9903 C   0  0  0  0  0  0  0  0  0  0  0  0
   10.0775   18.9556   11.4020 C   0  0  0  0  0  0  0  0  0  0  0  0
   11.7015   21.2572   15.3451 C   0  0  0  0  0  0  0  0  0  0  0  0
   10.9011   21.4778   14.0816 C   0  0  0  0  0  0  0  0  0  0  0  0
    9.4143   21.5079   14.3214 C   0  0  0  0  0  0  0  0  0  0  0  0
    8.6113   22.0530   13.1636 C   0  0  0  0  0  0  0  0  0  0  0  0
   14.5114   20.4631   19.1829 C   0  0  0  0  0  0  0  0  0  0  0  0
   13.7975   19.7346   20.2823 C   0  0  0  0  0  0  0  0  0  0  0  0
   12.6579   18.8820   19.7517 C   0  0  0  0  0  0  0  0  0  0  0  0
   11.7664   18.3025   20.8229 C   0  0  0  0  0  0  0  0  0  0  0  0
 50 51  2  0  0  0
 50 52  1  0  0  0
 53 49  1  0  0  0
 49 45  1  0  0  0
 49 55  1  0  0  0
 45 46  2  0  0  0
 55 56  1  0  0  0
 55 57  1  0  0  0
 47 44  1  0  0  0
 44 40  1  0  0  0
 44 59  1  0  0  0
 40 41  2  0  0  0
 59 61  1  0  0  0
 59 60  1  0  0  0
 61 62  1  0  0  0
 42 39  1  0  0  0
 39 38  1  0  0  0
 39 63  1  0  0  0
 63 64  1  0  0  0
 64 65  1  0  0  0
 65 66  1  0  0  0
 36  1  1  0  0  0
  1  2  1  0  0  0
  1 67  1  0  0  0
  2  3  2  0  0  0
 67 68  1  0  0  0
 68 69  1  0  0  0
 69 70  1  0  0  0
  4  6  1  0  0  0
  6  7  1  0  0  0
  6 29  1  0  0  0
  7  8  2  0  0  0
 29 30  1  0  0  0
 30 31  1  0  0  0
 31 32  2  0  0  0
 31 33  1  0  0  0
  9 11  1  0  0  0
 11 12  1  0  0  0
 11 17  1  0  0  0
 12 13  2  0  0  0
 17 18  1  0  0  0
 18 19  1  0  0  0
 19 20  1  0  0  0
 20 22  1  0  0  0
 22 23  1  0  0  0
 22 24  2  0  0  0
 50 53  1  0  0  0
 45 47  1  0  0  0
 40 42  1  0  0  0
 38 36  1  0  0  0
  2  4  1  0  0  0
  7  9  1  0  0  0
 12 14  1  0  0  0
 53 54  1  0  0  0
 56 58  1  0  0  0
 47 48  1  0  0  0
 42 43  1  0  0  0
 36 37  1  0  0  0
  4  5  1  0  0  0
 33 34  1  0  0  0
 33 35  1  0  0  0
  9 10  1  0  0  0
 20 21  1  0  0  0
 23 25  1  0  0  0
 23 26  1  0  0  0
 24 27  1  0  0  0
 24 28  1  0  0  0
 14 15  1  0  0  0
 14 16  1  0  0  0
M  CHG 1  24   1
M  END
> <minimizedAffinity>
-7.85668

$$$$
2AOG_2NC_A_400


 70 69  0  0  0  0  0  0  0  0999 V2000
   15.3362   21.7553   16.0529 C   0  0  0  0  0  0  0  0  0  0  0  0
   16.7344   22.3036   16.0308 C   0  0  0  0  0  0  0  0  0  0  0  0
   17.6951   21.6687   16.5052 O   0  0  0  0  0  0  0  0  0  0  0  0
   16.8951   23.5188   15.5506 N   0  0  0  0  0  0  0  0  0  0  0  0
   16.1142   23.9969   15.1888 H   0  0  0  0  0  0  0  0  0  0  0  0
   18.1986   24.1788   15.5388 C   0  0  0  0  0  0  0  0  0  0  0  0
   18.4404   24.7446   16.9359 C   0  0  0  0  0  0  0  0  0  0  0  0
   17.5557   25.3540   17.5458 O   0  0  0  0  0  0  0  0  0  0  0  0
   19.6824   24.6724   17.3687 N   0  0  0  0  0  0  0  0  0  0  0  0
   20.3614   24.2686   16.7813 H   0  0  0  0  0  0  0  0  0  0  0  0
   20.0909   25.1543   18.6543 C   0  0  0  0  0  0  0  0  0  0  0  0
   21.1831   26.2076   18.4633 C   0  0  0  0  0  0  0  0  0  0  0  0
   20.9390   27.4072   18.3540 O   0  0  0  0  0  0  0  0  0  0  0  0
   22.4775   25.6985   18.3773 N   0  0  0  0  0  0  0  0  0  0  0  0
   22.6330   24.7308   18.4701 H   0  0  0  0  0  0  0  0  0  0  0  0
   23.2364   26.3066   18.2238 H   0  0  0  0  0  0  0  0  0  0  0  0
   20.6878   24.0392   19.4944 C   0  0  0  0  0  0  0  0  0  0  0  0
   20.1948   24.0472   20.9100 C   0  0  0  0  0  0  0  0  0  0  0  0
   19.2651   22.8922   21.1746 C   0  0  0  0  0  0  0  0  0  0  0  0
   17.8881   23.3086   20.8605 N   0  0  0  0  0  0  0  0  0  0  0  0
   17.4962   24.0371   21.3943 H   0  0  0  0  0  0  0  0  0  0  0  0
   17.1527   22.7787   19.9246 C   0  0  0  0  0  0  0  0  0  0  0  0
   17.4880   21.5629   19.4776 N   0  0  0  0  0  0  0  0  0  0  0  0
   16.1141   23.4366   19.4037 N   0  0  0  0  0  0  0  0  0  0  0  0
   18.2562   21.0886   19.8703 H   0  0  0  0  0  0  0  0  0  0  0  0
   16.9666   21.1427   18.7560 H   0  0  0  0  0  0  0  0  0  0  0  0
   15.8780   24.3306   19.7416 H   0  0  0  0  0  0  0  0  0  0  0  0
   15.5844   23.0276   18.6816 H   0  0  0  0  0  0  0  0  0  0  0  0
   18.3086   25.1940   14.4327 C   0  0  0  0  0  0  0  0  0  0  0  0
   19.7082   25.4304   13.9188 C   0  0  0  0  0  0  0  0  0  0  0  0
   20.3567   26.6962   14.4454 C   0  0  0  0  0  0  0  0  0  0  0  0
   21.4827   26.6644   14.8573 O   0  0  0  0  0  0  0  0  0  0  0  0
   19.6544   27.8092   14.4036 N   0  0  0  0  0  0  0  0  0  0  0  0
   18.7323   27.7968   14.0587 H   0  0  0  0  0  0  0  0  0  0  0  0
   20.0513   28.6538   14.7172 H   0  0  0  0  0  0  0  0  0  0  0  0
   14.8573   21.5371   17.4338 N   0  0  0  0  0  0  0  0  0  0  0  0
   14.0940   22.1964   17.5861 H   0  0  0  0  0  0  0  0  0  0  0  0
   14.3770   20.2529   17.8406 C   0  0  0  0  0  0  0  0  0  0  0  0
   12.8556   20.1483   17.7823 C   0  0  0  0  0  0  0  0  0  0  0  0
   11.2486   19.5262   16.0810 C   0  0  0  0  0  0  0  0  0  0  0  0
   10.5091   20.4782   16.4091 O   0  0  0  0  0  0  0  0  0  0  0  0
   12.3689   19.3345   16.6757 N   0  0  0  0  0  0  0  0  0  0  0  0
   12.9351   18.5914   16.3652 H   0  0  0  0  0  0  0  0  0  0  0  0
   10.8236   18.5487   15.0205 C   0  0  0  0  0  0  0  0  0  0  0  0
    9.4139   18.8758   13.0736 C   0  0  0  0  0  0  0  0  0  0  0  0
    8.8413   17.7776   13.2356 O   0  0  0  0  0  0  0  0  0  0  0  0
   10.3487   19.3228   13.8824 N   0  0  0  0  0  0  0  0  0  0  0  0
   10.7404   20.2100   13.7132 H   0  0  0  0  0  0  0  0  0  0  0  0
    8.9862   19.7403   11.8681 C   0  0  0  0  0  0  0  0  0  0  0  0
    7.9176   21.9284   11.7425 C   0  0  0  0  0  0  0  0  0  0  0  0
    6.9574   21.4475   11.1331 O   0  0  0  0  0  0  0  0  0  0  0  0
    8.0434   23.3756   12.0521 C   0  0  0  0  0  0  0  0  0  0  0  0
    8.9232   21.1403   12.1382 N   0  0  0  0  0  0  0  0  0  0  0  0
    9.6619   21.5492   12.6445 H   0  0  0  0  0  0  0  0  0  0  0  0
    9.9535   19.4397   10.7120 C   0  0  0  0  0  0  0  0  0  0  0  0
    9.3738   19.9132    9.4889 O   0  0  0  0  0  0  0  0  0  0  0  0
   10.2437   17.9332   10.5984 C   0  0  0  0  0  0  0  0  0  0  0  0
    8.5349   19.4531    9.3293 H   0  0  0  0  0  0  0  0  0  0  0  0
   11.9630   17.5949   14.6294 C   0  0  0  0  0  0  0  0  0  0  0  0
   11.4747   16.1892   14.4884 C   0  0  0  0  0  0  0  0  0  0  0  0
   12.7391   18.0651   13.3855 C   0  0  0  0  0  0  0  0  0  0  0  0
   13.4704   16.9686   12.6397 C   0  0  0  0  0  0  0  0  0  0  0  0
   12.2885   19.5955   19.0947 C   0  0  0  0  0  0  0  0  0  0  0  0
   13.2976   19.1024   20.1067 C   0  0  0  0  0  0  0  0  0  0  0  0
   13.2151   17.6180   20.3488 C   0  0  0  0  0  0  0  0  0  0  0  0
   11.9666   17.1778   21.0767 C   0  0  0  0  0  0  0  0  0  0  0  0
   14.4640   22.7865   15.3772 C   0  0  0  0  0  0  0  0  0  0  0  0
   13.1404   22.3592   14.8159 C   0  0  0  0  0  0  0  0  0  0  0  0
   13.2555   21.9105   13.3694 C   0  0  0  0  0  0  0  0  0  0  0  0
   14.5991   21.3264   13.0066 C   0  0  0  0  0  0  0  0  0  0  0  0
 50 51  2  0  0  0
 50 52  1  0  0  0
 53 49  1  0  0  0
 49 45  1  0  0  0
 49 55  1  0  0  0
 45 46  2  0  0  0
 55 56  1  0  0  0
 55 57  1  0  0  0
 47 44  1  0  0  0
 44 40  1  0  0  0
 44 59  1  0  0  0
 40 41  2  0  0  0
 59 61  1  0  0  0
 59 60  1  0  0  0
 61 62  1  0  0  0
 42 39  1  0  0  0
 39 38  1  0  0  0
 39 63  1  0  0  0
 63 64  1  0  0  0
 64 65  1  0  0  0
 65 66  1  0  0  0
 36  1  1  0  0  0
  1  2  1  0  0  0
  1 67  1  0  0  0
  2  3  2  0  0  0
 67 68  1  0  0  0
 68 69  1  0  0  0
 69 70  1  0  0  0
  4  6  1  0  0  0
  6  7  1  0  0  0
  6 29  1  0  0  0
  7  8  2  0  0  0
 29 30  1  0  0  0
 30 31  1  0  0  0
 31 32  2  0  0  0
 31 33  1  0  0  0
  9 11  1  0  0  0
 11 12  1  0  0  0
 11 17  1  0  0  0
 12 13  2  0  0  0
 17 18  1  0  0  0
 18 19  1  0  0  0
 19 20  1  0  0  0
 20 22  1  0  0  0
 22 23  1  0  0  0
 22 24  2  0  0  0
 50 53  1  0  0  0
 45 47  1  0  0  0
 40 42  1  0  0  0
 38 36  1  0  0  0
  2  4  1  0  0  0
  7  9  1  0  0  0
 12 14  1  0  0  0
 53 54  1  0  0  0
 56 58  1  0  0  0
 47 48  1  0  0  0
 42 43  1  0  0  0
 36 37  1  0  0  0
  4  5  1  0  0  0
 33 34  1  0  0  0
 33 35  1  0  0  0
  9 10  1  0  0  0
 20 21  1  0  0  0
 23 25  1  0  0  0
 23 26  1  0  0  0
 24 27  1  0  0  0
 24 28  1  0  0  0
 14 15  1  0  0  0
 14 16  1  0  0  0
M  CHG 1  24   1
M  END
> <minimizedAffinity>
-7.85114

$$$$
2AOG_2NC_A_400


 70 69  0  0  0  0  0  0  0  0999 V2000
   15.0522   22.1561   17.3553 C   0  0  0  0  0  0  0  0  0  0  0  0
   15.6702   23.1767   18.2677 C   0  0  0  0  0  0  0  0  0  0  0  0
   15.0075   24.1183   18.7426 O   0  0  0  0  0  0  0  0  0  0  0  0
   16.9637   23.0770   18.4914 N   0  0  0  0  0  0  0  0  0  0  0  0
   17.4604   22.3245   18.0960 H   0  0  0  0  0  0  0  0  0  0  0  0
   17.6837   24.0501   19.3095 C   0  0  0  0  0  0  0  0  0  0  0  0
   19.0204   24.3266   18.6257 C   0  0  0  0  0  0  0  0  0  0  0  0
   19.4938   23.5426   17.7967 O   0  0  0  0  0  0  0  0  0  0  0  0
   19.6905   25.3612   19.0900 N   0  0  0  0  0  0  0  0  0  0  0  0
   19.2994   25.8801   19.8297 H   0  0  0  0  0  0  0  0  0  0  0  0
   20.9617   25.7664   18.5687 C   0  0  0  0  0  0  0  0  0  0  0  0
   21.7083   26.5560   19.6448 C   0  0  0  0  0  0  0  0  0  0  0  0
   22.7868   26.1928   20.1089 O   0  0  0  0  0  0  0  0  0  0  0  0
   21.0498   27.6994   20.0934 N   0  0  0  0  0  0  0  0  0  0  0  0
   20.1868   27.9580   19.6966 H   0  0  0  0  0  0  0  0  0  0  0  0
   21.4477   28.2484   20.8072 H   0  0  0  0  0  0  0  0  0  0  0  0
   20.7965   26.6873   17.3728 C   0  0  0  0  0  0  0  0  0  0  0  0
   21.8258   26.4521   16.3087 C   0  0  0  0  0  0  0  0  0  0  0  0
   21.1838   26.1781   14.9742 C   0  0  0  0  0  0  0  0  0  0  0  0
   20.2746   25.0279   15.1111 N   0  0  0  0  0  0  0  0  0  0  0  0
   20.6279   24.2119   15.5337 H   0  0  0  0  0  0  0  0  0  0  0  0
   19.0347   25.0162   14.7111 C   0  0  0  0  0  0  0  0  0  0  0  0
   18.2205   24.0854   15.2222 N   0  0  0  0  0  0  0  0  0  0  0  0
   18.5930   25.8846   13.7981 N   0  0  0  0  0  0  0  0  0  0  0  0
   18.5589   23.4511   15.8948 H   0  0  0  0  0  0  0  0  0  0  0  0
   17.2831   24.0349   14.9256 H   0  0  0  0  0  0  0  0  0  0  0  0
   19.2024   26.5646   13.4301 H   0  0  0  0  0  0  0  0  0  0  0  0
   17.6578   25.8449   13.4929 H   0  0  0  0  0  0  0  0  0  0  0  0
   17.8024   23.6065   20.7431 C   0  0  0  0  0  0  0  0  0  0  0  0
   17.5785   22.1319   20.9765 C   0  0  0  0  0  0  0  0  0  0  0  0
   18.8500   21.3430   21.2236 C   0  0  0  0  0  0  0  0  0  0  0  0
   19.5819   21.0866   20.3087 O   0  0  0  0  0  0  0  0  0  0  0  0
   19.1209   20.9868   22.4620 N   0  0  0  0  0  0  0  0  0  0  0  0
   18.4960   21.2150   23.1877 H   0  0  0  0  0  0  0  0  0  0  0  0
   19.9483   20.4924   22.6622 H   0  0  0  0  0  0  0  0  0  0  0  0
   13.7232   21.7263   17.8380 N   0  0  0  0  0  0  0  0  0  0  0  0
   13.1184   22.5467   17.7981 H   0  0  0  0  0  0  0  0  0  0  0  0
   13.0209   20.6670   17.1821 C   0  0  0  0  0  0  0  0  0  0  0  0
   12.2070   19.8130   18.1501 C   0  0  0  0  0  0  0  0  0  0  0  0
   10.6723   18.3521   16.9777 C   0  0  0  0  0  0  0  0  0  0  0  0
    9.8825   19.3025   16.7949 O   0  0  0  0  0  0  0  0  0  0  0  0
   11.7852   18.5361   17.5885 N   0  0  0  0  0  0  0  0  0  0  0  0
   12.3922   17.7669   17.6839 H   0  0  0  0  0  0  0  0  0  0  0  0
   10.3186   16.9587   16.5368 C   0  0  0  0  0  0  0  0  0  0  0  0
   10.5421   16.7967   14.1267 C   0  0  0  0  0  0  0  0  0  0  0  0
    9.3683   17.1792   13.9372 O   0  0  0  0  0  0  0  0  0  0  0  0
   11.0744   16.6829   15.3232 N   0  0  0  0  0  0  0  0  0  0  0  0
   12.0147   16.4020   15.4013 H   0  0  0  0  0  0  0  0  0  0  0  0
   11.3972   16.4541   12.8878 C   0  0  0  0  0  0  0  0  0  0  0  0
   10.4875   16.4598   10.6255 C   0  0  0  0  0  0  0  0  0  0  0  0
   10.3350   15.2351   10.6614 O   0  0  0  0  0  0  0  0  0  0  0  0
   10.1683   17.2855    9.4329 C   0  0  0  0  0  0  0  0  0  0  0  0
   10.9841   17.1050   11.6868 N   0  0  0  0  0  0  0  0  0  0  0  0
   11.0694   18.0845   11.6366 H   0  0  0  0  0  0  0  0  0  0  0  0
   12.8600   16.7845   13.2249 C   0  0  0  0  0  0  0  0  0  0  0  0
   13.0253   18.2089   13.2204 O   0  0  0  0  0  0  0  0  0  0  0  0
   13.8283   16.1477   12.2133 C   0  0  0  0  0  0  0  0  0  0  0  0
   12.8160   18.5560   12.3391 H   0  0  0  0  0  0  0  0  0  0  0  0
   10.5986   15.9209   17.6347 C   0  0  0  0  0  0  0  0  0  0  0  0
   10.0511   16.3602   18.9543 C   0  0  0  0  0  0  0  0  0  0  0  0
   10.1282   14.5047   17.2559 C   0  0  0  0  0  0  0  0  0  0  0  0
    9.3633   13.7766   18.3415 C   0  0  0  0  0  0  0  0  0  0  0  0
   12.9824   19.5555   19.4469 C   0  0  0  0  0  0  0  0  0  0  0  0
   13.4511   18.1368   19.6780 C   0  0  0  0  0  0  0  0  0  0  0  0
   12.9412   17.5484   20.9675 C   0  0  0  0  0  0  0  0  0  0  0  0
   11.8370   18.3477   21.6188 C   0  0  0  0  0  0  0  0  0  0  0  0
   14.9044   22.8232   16.0086 C   0  0  0  0  0  0  0  0  0  0  0  0
   15.4456   22.1295   14.7940 C   0  0  0  0  0  0  0  0  0  0  0  0
   14.3369   21.6456   13.8755 C   0  0  0  0  0  0  0  0  0  0  0  0
   14.7798   21.3755   12.4581 C   0  0  0  0  0  0  0  0  0  0  0  0
 50 51  2  0  0  0
 50 52  1  0  0  0
 53 49  1  0  0  0
 49 45  1  0  0  0
 49 55  1  0  0  0
 45 46  2  0  0  0
 55 56  1  0  0  0
 55 57  1  0  0  0
 47 44  1  0  0  0
 44 40  1  0  0  0
 44 59  1  0  0  0
 40 41  2  0  0  0
 59 61  1  0  0  0
 59 60  1  0  0  0
 61 62  1  0  0  0
 42 39  1  0  0  0
 39 38  1  0  0  0
 39 63  1  0  0  0
 63 64  1  0  0  0
 64 65  1  0  0  0
 65 66  1  0  0  0
 36  1  1  0  0  0
  1  2  1  0  0  0
  1 67  1  0  0  0
  2  3  2  0  0  0
 67 68  1  0  0  0
 68 69  1  0  0  0
 69 70  1  0  0  0
  4  6  1  0  0  0
  6  7  1  0  0  0
  6 29  1  0  0  0
  7  8  2  0  0  0
 29 30  1  0  0  0
 30 31  1  0  0  0
 31 32  2  0  0  0
 31 33  1  0  0  0
  9 11  1  0  0  0
 11 12  1  0  0  0
 11 17  1  0  0  0
 12 13  2  0  0  0
 17 18  1  0  0  0
 18 19  1  0  0  0
 19 20  1  0  0  0
 20 22  1  0  0  0
 22 23  1  0  0  0
 22 24  2  0  0  0
 50 53  1  0  0  0
 45 47  1  0  0  0
 40 42  1  0  0  0
 38 36  1  0  0  0
  2  4  1  0  0  0
  7  9  1  0  0  0
 12 14  1  0  0  0
 53 54  1  0  0  0
 56 58  1  0  0  0
 47 48  1  0  0  0
 42 43  1  0  0  0
 36 37  1  0  0  0
  4  5  1  0  0  0
 33 34  1  0  0  0
 33 35  1  0  0  0
  9 10  1  0  0  0
 20 21  1  0  0  0
 23 25  1  0  0  0
 23 26  1  0  0  0
 24 27  1  0  0  0
 24 28  1  0  0  0
 14 15  1  0  0  0
 14 16  1  0  0  0
M  CHG 1  24   1
M  END
> <minimizedAffinity>
-7.79484

$$$$
2AOG_2NC_A_400


 70 69  0  0  0  0  0  0  0  0999 V2000
   11.7575   19.3463   18.0257 C   0  0  0  0  0  0  0  0  0  0  0  0
   10.7253   19.6564   16.9796 C   0  0  0  0  0  0  0  0  0  0  0  0
    9.6510   20.2183   17.2650 O   0  0  0  0  0  0  0  0  0  0  0  0
   10.9714   19.2460   15.7532 N   0  0  0  0  0  0  0  0  0  0  0  0
   11.8274   18.7990   15.5616 H   0  0  0  0  0  0  0  0  0  0  0  0
   10.0113   19.4344   14.6681 C   0  0  0  0  0  0  0  0  0  0  0  0
    9.8924   18.1069   13.9234 C   0  0  0  0  0  0  0  0  0  0  0  0
    8.9807   17.9012   13.1157 O   0  0  0  0  0  0  0  0  0  0  0  0
   10.7240   17.1627   14.3134 N   0  0  0  0  0  0  0  0  0  0  0  0
   11.3552   17.3645   15.0414 H   0  0  0  0  0  0  0  0  0  0  0  0
   10.7524   15.8560   13.7273 C   0  0  0  0  0  0  0  0  0  0  0  0
   10.6696   14.8123   14.8420 C   0  0  0  0  0  0  0  0  0  0  0  0
   10.7839   13.6063   14.6345 O   0  0  0  0  0  0  0  0  0  0  0  0
   10.4092   15.3301   16.1093 N   0  0  0  0  0  0  0  0  0  0  0  0
   10.3243   16.3027   16.2358 H   0  0  0  0  0  0  0  0  0  0  0  0
   10.3101   14.7232   16.8782 H   0  0  0  0  0  0  0  0  0  0  0  0
   12.0553   15.6150   12.9857 C   0  0  0  0  0  0  0  0  0  0  0  0
   12.0192   16.1033   11.5689 C   0  0  0  0  0  0  0  0  0  0  0  0
   10.8238   15.5602   10.8309 C   0  0  0  0  0  0  0  0  0  0  0  0
    9.8738   16.6593   10.5906 N   0  0  0  0  0  0  0  0  0  0  0  0
    9.0171   16.6392   11.0753 H   0  0  0  0  0  0  0  0  0  0  0  0
   10.0894   17.6566    9.7804 C   0  0  0  0  0  0  0  0  0  0  0  0
    9.8223   18.8912   10.2218 N   0  0  0  0  0  0  0  0  0  0  0  0
   10.5347   17.4560    8.5377 N   0  0  0  0  0  0  0  0  0  0  0  0
    9.4945   19.0254   11.1404 H   0  0  0  0  0  0  0  0  0  0  0  0
    9.9535   19.6654    9.6280 H   0  0  0  0  0  0  0  0  0  0  0  0
   10.7275   16.5425    8.2254 H   0  0  0  0  0  0  0  0  0  0  0  0
   10.6702   18.2216    7.9338 H   0  0  0  0  0  0  0  0  0  0  0  0
   10.3700   20.6050   13.7922 C   0  0  0  0  0  0  0  0  0  0  0  0
    9.4266   21.7804   13.8781 C   0  0  0  0  0  0  0  0  0  0  0  0
    8.5148   21.9328   12.6758 C   0  0  0  0  0  0  0  0  0  0  0  0
    8.3326   21.0021   11.9417 O   0  0  0  0  0  0  0  0  0  0  0  0
    7.9247   23.0962   12.4961 N   0  0  0  0  0  0  0  0  0  0  0  0
    8.0986   23.8379   13.1197 H   0  0  0  0  0  0  0  0  0  0  0  0
    7.3096   23.2243   11.7382 H   0  0  0  0  0  0  0  0  0  0  0  0
   12.3592   20.5768   18.5804 N   0  0  0  0  0  0  0  0  0  0  0  0
   11.9091   20.7421   19.4807 H   0  0  0  0  0  0  0  0  0  0  0  0
   13.7692   20.6569   18.8062 C   0  0  0  0  0  0  0  0  0  0  0  0
   14.4432   21.7219   17.9458 C   0  0  0  0  0  0  0  0  0  0  0  0
   16.2499   23.0853   18.8066 C   0  0  0  0  0  0  0  0  0  0  0  0
   15.4548   24.0209   19.0376 O   0  0  0  0  0  0  0  0  0  0  0  0
   15.8298   21.9778   18.3143 N   0  0  0  0  0  0  0  0  0  0  0  0
   16.4847   21.2558   18.1768 H   0  0  0  0  0  0  0  0  0  0  0  0
   17.7251   23.2489   19.0471 C   0  0  0  0  0  0  0  0  0  0  0  0
   18.7797   24.3723   17.1735 C   0  0  0  0  0  0  0  0  0  0  0  0
   19.0258   23.2934   16.5943 O   0  0  0  0  0  0  0  0  0  0  0  0
   18.1526   24.4398   18.3268 N   0  0  0  0  0  0  0  0  0  0  0  0
   17.9658   25.3246   18.7161 H   0  0  0  0  0  0  0  0  0  0  0  0
   19.2317   25.6786   16.4858 C   0  0  0  0  0  0  0  0  0  0  0  0
   21.4186   26.7168   16.1951 C   0  0  0  0  0  0  0  0  0  0  0  0
   21.0300   27.7428   16.7615 O   0  0  0  0  0  0  0  0  0  0  0  0
   22.7820   26.5682   15.6249 C   0  0  0  0  0  0  0  0  0  0  0  0
   20.5904   25.6767   16.0494 N   0  0  0  0  0  0  0  0  0  0  0  0
   20.9379   24.8636   15.6165 H   0  0  0  0  0  0  0  0  0  0  0  0
   18.2717   25.9458   15.3155 C   0  0  0  0  0  0  0  0  0  0  0  0
   17.0466   25.2387   15.5514 O   0  0  0  0  0  0  0  0  0  0  0  0
   18.8791   25.4964   13.9755 C   0  0  0  0  0  0  0  0  0  0  0  0
   17.2274   24.2871   15.6034 H   0  0  0  0  0  0  0  0  0  0  0  0
   18.0562   23.3354   20.5450 C   0  0  0  0  0  0  0  0  0  0  0  0
   18.1358   21.9782   21.1663 C   0  0  0  0  0  0  0  0  0  0  0  0
   19.3117   24.1785   20.8344 C   0  0  0  0  0  0  0  0  0  0  0  0
   20.5728   23.3775   21.0825 C   0  0  0  0  0  0  0  0  0  0  0  0
   14.3825   21.3522   16.4596 C   0  0  0  0  0  0  0  0  0  0  0  0
   15.0651   22.3034   15.5031 C   0  0  0  0  0  0  0  0  0  0  0  0
   15.1721   21.7584   14.1030 C   0  0  0  0  0  0  0  0  0  0  0  0
   14.0028   20.8994   13.6819 C   0  0  0  0  0  0  0  0  0  0  0  0
   11.0389   18.6006   19.1248 C   0  0  0  0  0  0  0  0  0  0  0  0
   11.5386   17.2446   19.5260 C   0  0  0  0  0  0  0  0  0  0  0  0
   12.4460   17.3110   20.7423 C   0  0  0  0  0  0  0  0  0  0  0  0
   12.2049   18.5070   21.6308 C   0  0  0  0  0  0  0  0  0  0  0  0
 50 51  2  0  0  0
 50 52  1  0  0  0
 53 49  1  0  0  0
 49 45  1  0  0  0
 49 55  1  0  0  0
 45 46  2  0  0  0
 55 56  1  0  0  0
 55 57  1  0  0  0
 47 44  1  0  0  0
 44 40  1  0  0  0
 44 59  1  0  0  0
 40 41  2  0  0  0
 59 61  1  0  0  0
 59 60  1  0  0  0
 61 62  1  0  0  0
 42 39  1  0  0  0
 39 38  1  0  0  0
 39 63  1  0  0  0
 63 64  1  0  0  0
 64 65  1  0  0  0
 65 66  1  0  0  0
 36  1  1  0  0  0
  1  2  1  0  0  0
  1 67  1  0  0  0
  2  3  2  0  0  0
 67 68  1  0  0  0
 68 69  1  0  0  0
 69 70  1  0  0  0
  4  6  1  0  0  0
  6  7  1  0  0  0
  6 29  1  0  0  0
  7  8  2  0  0  0
 29 30  1  0  0  0
 30 31  1  0  0  0
 31 32  2  0  0  0
 31 33  1  0  0  0
  9 11  1  0  0  0
 11 12  1  0  0  0
 11 17  1  0  0  0
 12 13  2  0  0  0
 17 18  1  0  0  0
 18 19  1  0  0  0
 19 20  1  0  0  0
 20 22  1  0  0  0
 22 23  1  0  0  0
 22 24  2  0  0  0
 50 53  1  0  0  0
 45 47  1  0  0  0
 40 42  1  0  0  0
 38 36  1  0  0  0
  2  4  1  0  0  0
  7  9  1  0  0  0
 12 14  1  0  0  0
 53 54  1  0  0  0
 56 58  1  0  0  0
 47 48  1  0  0  0
 42 43  1  0  0  0
 36 37  1  0  0  0
  4  5  1  0  0  0
 33 34  1  0  0  0
 33 35  1  0  0  0
  9 10  1  0  0  0
 20 21  1  0  0  0
 23 25  1  0  0  0
 23 26  1  0  0  0
 24 27  1  0  0  0
 24 28  1  0  0  0
 14 15  1  0  0  0
 14 16  1  0  0  0
M  CHG 1  24   1
M  END
> <minimizedAffinity>
-7.74301

$$$$
2AOG_2NC_A_400


 70 69  0  0  0  0  0  0  0  0999 V2000
   10.6901   19.1099   16.2709 C   0  0  0  0  0  0  0  0  0  0  0  0
   11.1362   19.5846   17.6243 C   0  0  0  0  0  0  0  0  0  0  0  0
   10.3220   19.9629   18.4876 O   0  0  0  0  0  0  0  0  0  0  0  0
   12.4333   19.6519   17.8394 N   0  0  0  0  0  0  0  0  0  0  0  0
   13.0508   19.3513   17.1341 H   0  0  0  0  0  0  0  0  0  0  0  0
   12.9831   20.1595   19.0943 C   0  0  0  0  0  0  0  0  0  0  0  0
   14.0398   21.2043   18.7442 C   0  0  0  0  0  0  0  0  0  0  0  0
   14.2994   22.1388   19.5092 O   0  0  0  0  0  0  0  0  0  0  0  0
   14.5316   21.1255   17.5248 N   0  0  0  0  0  0  0  0  0  0  0  0
   14.1975   20.4166   16.9289 H   0  0  0  0  0  0  0  0  0  0  0  0
   15.5298   22.0233   17.0255 C   0  0  0  0  0  0  0  0  0  0  0  0
   15.1691   22.4160   15.5922 C   0  0  0  0  0  0  0  0  0  0  0  0
   15.7312   21.9377   14.6095 O   0  0  0  0  0  0  0  0  0  0  0  0
   14.1820   23.3939   15.4849 N   0  0  0  0  0  0  0  0  0  0  0  0
   13.7546   23.7529   16.2959 H   0  0  0  0  0  0  0  0  0  0  0  0
   13.9122   23.7258   14.5982 H   0  0  0  0  0  0  0  0  0  0  0  0
   16.8930   21.3563   16.9762 C   0  0  0  0  0  0  0  0  0  0  0  0
   17.8595   21.9300   17.9681 C   0  0  0  0  0  0  0  0  0  0  0  0
   18.2254   23.3491   17.6211 C   0  0  0  0  0  0  0  0  0  0  0  0
   18.0950   24.1825   18.8281 N   0  0  0  0  0  0  0  0  0  0  0  0
   18.8725   24.7223   19.0989 H   0  0  0  0  0  0  0  0  0  0  0  0
   17.0210   24.2543   19.5621 C   0  0  0  0  0  0  0  0  0  0  0  0
   17.0428   23.6651   20.7633 N   0  0  0  0  0  0  0  0  0  0  0  0
   15.9207   24.8696   19.1220 N   0  0  0  0  0  0  0  0  0  0  0  0
   17.8606   23.2148   21.0759 H   0  0  0  0  0  0  0  0  0  0  0  0
   16.2411   23.6820   21.3345 H   0  0  0  0  0  0  0  0  0  0  0  0
   15.9180   25.2993   18.2362 H   0  0  0  0  0  0  0  0  0  0  0  0
   15.1123   24.8937   19.6833 H   0  0  0  0  0  0  0  0  0  0  0  0
   13.4799   19.0512   19.9836 C   0  0  0  0  0  0  0  0  0  0  0  0
   12.6681   18.8241   21.2361 C   0  0  0  0  0  0  0  0  0  0  0  0
   11.7826   17.5939   21.1866 C   0  0  0  0  0  0  0  0  0  0  0  0
   12.0862   16.6133   21.8069 O   0  0  0  0  0  0  0  0  0  0  0  0
   10.6782   17.6605   20.4726 N   0  0  0  0  0  0  0  0  0  0  0  0
   10.4618   18.4827   19.9762 H   0  0  0  0  0  0  0  0  0  0  0  0
   10.0689   16.8881   20.4352 H   0  0  0  0  0  0  0  0  0  0  0  0
    9.7071   18.0114   16.3746 N   0  0  0  0  0  0  0  0  0  0  0  0
    9.4230   17.7825   15.4221 H   0  0  0  0  0  0  0  0  0  0  0  0
   10.0620   16.7773   17.0043 C   0  0  0  0  0  0  0  0  0  0  0  0
    9.9453   15.5817   16.0631 C   0  0  0  0  0  0  0  0  0  0  0  0
   10.2517   16.1998   13.7418 C   0  0  0  0  0  0  0  0  0  0  0  0
    9.0734   16.6102   13.6792 O   0  0  0  0  0  0  0  0  0  0  0  0
   10.7209   15.7262   14.8377 N   0  0  0  0  0  0  0  0  0  0  0  0
   11.6636   15.4426   14.8519 H   0  0  0  0  0  0  0  0  0  0  0  0
   11.1344   16.1985   12.5245 C   0  0  0  0  0  0  0  0  0  0  0  0
   10.1404   16.3566   10.3173 C   0  0  0  0  0  0  0  0  0  0  0  0
   10.4239   15.1711   10.0446 O   0  0  0  0  0  0  0  0  0  0  0  0
   10.4246   16.9137   11.4735 N   0  0  0  0  0  0  0  0  0  0  0  0
   10.1486   17.8450   11.6339 H   0  0  0  0  0  0  0  0  0  0  0  0
    9.4147   17.1901    9.2392 C   0  0  0  0  0  0  0  0  0  0  0  0
    8.4049   19.3545    9.7300 C   0  0  0  0  0  0  0  0  0  0  0  0
    7.2945   18.8305    9.8595 O   0  0  0  0  0  0  0  0  0  0  0  0
    8.6339   20.8172    9.8490 C   0  0  0  0  0  0  0  0  0  0  0  0
    9.4728   18.6011    9.4453 N   0  0  0  0  0  0  0  0  0  0  0  0
   10.3486   19.0451    9.3739 H   0  0  0  0  0  0  0  0  0  0  0  0
   10.0052   16.8024    7.8741 C   0  0  0  0  0  0  0  0  0  0  0  0
   11.4056   17.1109    7.8714 O   0  0  0  0  0  0  0  0  0  0  0  0
    9.3076   17.5517    6.7259 C   0  0  0  0  0  0  0  0  0  0  0  0
   11.5272   18.0630    8.0115 H   0  0  0  0  0  0  0  0  0  0  0  0
   12.5098   16.8197   12.8123 C   0  0  0  0  0  0  0  0  0  0  0  0
   13.5940   16.1203   12.0575 C   0  0  0  0  0  0  0  0  0  0  0  0
   12.5393   18.3428   12.5885 C   0  0  0  0  0  0  0  0  0  0  0  0
   13.2708   19.1288   13.6565 C   0  0  0  0  0  0  0  0  0  0  0  0
   10.3588   14.2831   16.7645 C   0  0  0  0  0  0  0  0  0  0  0  0
    9.2352   13.3899   17.2393 C   0  0  0  0  0  0  0  0  0  0  0  0
    8.7115   13.7709   18.5992 C   0  0  0  0  0  0  0  0  0  0  0  0
    7.3421   14.4087   18.5789 C   0  0  0  0  0  0  0  0  0  0  0  0
   10.0459   20.2965   15.5947 C   0  0  0  0  0  0  0  0  0  0  0  0
    9.7315   20.2127   14.1306 C   0  0  0  0  0  0  0  0  0  0  0  0
    9.8558   21.5624   13.4452 C   0  0  0  0  0  0  0  0  0  0  0  0
    8.5503   22.3054   13.2981 C   0  0  0  0  0  0  0  0  0  0  0  0
 50 51  2  0  0  0
 50 52  1  0  0  0
 53 49  1  0  0  0
 49 45  1  0  0  0
 49 55  1  0  0  0
 45 46  2  0  0  0
 55 56  1  0  0  0
 55 57  1  0  0  0
 47 44  1  0  0  0
 44 40  1  0  0  0
 44 59  1  0  0  0
 40 41  2  0  0  0
 59 61  1  0  0  0
 59 60  1  0  0  0
 61 62  1  0  0  0
 42 39  1  0  0  0
 39 38  1  0  0  0
 39 63  1  0  0  0
 63 64  1  0  0  0
 64 65  1  0  0  0
 65 66  1  0  0  0
 36  1  1  0  0  0
  1  2  1  0  0  0
  1 67  1  0  0  0
  2  3  2  0  0  0
 67 68  1  0  0  0
 68 69  1  0  0  0
 69 70  1  0  0  0
  4  6  1  0  0  0
  6  7  1  0  0  0
  6 29  1  0  0  0
  7  8  2  0  0  0
 29 30  1  0  0  0
 30 31  1  0  0  0
 31 32  2  0  0  0
 31 33  1  0  0  0
  9 11  1  0  0  0
 11 12  1  0  0  0
 11 17  1  0  0  0
 12 13  2  0  0  0
 17 18  1  0  0  0
 18 19  1  0  0  0
 19 20  1  0  0  0
 20 22  1  0  0  0
 22 23  1  0  0  0
 22 24  2  0  0  0
 50 53  1  0  0  0
 45 47  1  0  0  0
 40 42  1  0  0  0
 38 36  1  0  0  0
  2  4  1  0  0  0
  7  9  1  0  0  0
 12 14  1  0  0  0
 53 54  1  0  0  0
 56 58  1  0  0  0
 47 48  1  0  0  0
 42 43  1  0  0  0
 36 37  1  0  0  0
  4  5  1  0  0  0
 33 34  1  0  0  0
 33 35  1  0  0  0
  9 10  1  0  0  0
 20 21  1  0  0  0
 23 25  1  0  0  0
 23 26  1  0  0  0
 24 27  1  0  0  0
 24 28  1  0  0  0
 14 15  1  0  0  0
 14 16  1  0  0  0
M  CHG 1  24   1
M  END
> <minimizedAffinity>
-7.65566

$$$$
2AOG_2NC_A_400


 70 69  0  0  0  0  0  0  0  0999 V2000
   13.9882   22.5850   16.8781 C   0  0  0  0  0  0  0  0  0  0  0  0
   13.2473   21.2854   16.7438 C   0  0  0  0  0  0  0  0  0  0  0  0
   13.7184   20.2149   17.1719 O   0  0  0  0  0  0  0  0  0  0  0  0
   12.1049   21.3105   16.0898 N   0  0  0  0  0  0  0  0  0  0  0  0
   11.7629   22.1721   15.7583 H   0  0  0  0  0  0  0  0  0  0  0  0
   11.3299   20.0970   15.8417 C   0  0  0  0  0  0  0  0  0  0  0  0
   10.7361   19.6497   17.1751 C   0  0  0  0  0  0  0  0  0  0  0  0
    9.9387   20.3605   17.7956 O   0  0  0  0  0  0  0  0  0  0  0  0
   11.2455   18.5446   17.6793 N   0  0  0  0  0  0  0  0  0  0  0  0
   11.9587   18.0857   17.1793 H   0  0  0  0  0  0  0  0  0  0  0  0
   10.8099   17.9793   18.9213 C   0  0  0  0  0  0  0  0  0  0  0  0
   11.7368   18.4638   20.0371 C   0  0  0  0  0  0  0  0  0  0  0  0
   11.3221   18.8319   21.1339 O   0  0  0  0  0  0  0  0  0  0  0  0
   13.0885   18.4990   19.7000 N   0  0  0  0  0  0  0  0  0  0  0  0
   13.3821   18.1954   18.8107 H   0  0  0  0  0  0  0  0  0  0  0  0
   13.7498   18.8275   20.3511 H   0  0  0  0  0  0  0  0  0  0  0  0
   10.8965   16.4636   18.8952 C   0  0  0  0  0  0  0  0  0  0  0  0
   10.5080   15.8796   17.5704 C   0  0  0  0  0  0  0  0  0  0  0  0
    9.8114   14.5548   17.7370 C   0  0  0  0  0  0  0  0  0  0  0  0
    8.3631   14.7534   17.5597 N   0  0  0  0  0  0  0  0  0  0  0  0
    8.0537   15.1366   16.7072 H   0  0  0  0  0  0  0  0  0  0  0  0
    7.4631   14.4567   18.4538 C   0  0  0  0  0  0  0  0  0  0  0  0
    7.3722   15.2399   19.5349 N   0  0  0  0  0  0  0  0  0  0  0  0
    6.6740   13.3885   18.3148 N   0  0  0  0  0  0  0  0  0  0  0  0
    7.9600   16.0246   19.6251 H   0  0  0  0  0  0  0  0  0  0  0  0
    6.7176   15.0316   20.2400 H   0  0  0  0  0  0  0  0  0  0  0  0
    6.7511   12.8205   17.5144 H   0  0  0  0  0  0  0  0  0  0  0  0
    6.0152   13.1691   19.0126 H   0  0  0  0  0  0  0  0  0  0  0  0
   12.1416   19.0408   15.1406 C   0  0  0  0  0  0  0  0  0  0  0  0
   11.3698   18.1822   14.1679 C   0  0  0  0  0  0  0  0  0  0  0  0
   12.1802   17.0551   13.5572 C   0  0  0  0  0  0  0  0  0  0  0  0
   13.2276   17.2928   13.0236 O   0  0  0  0  0  0  0  0  0  0  0  0
   11.7066   15.8310   13.6629 N   0  0  0  0  0  0  0  0  0  0  0  0
   10.8425   15.6742   14.1079 H   0  0  0  0  0  0  0  0  0  0  0  0
   12.2166   15.0726   13.2969 H   0  0  0  0  0  0  0  0  0  0  0  0
   15.1352   22.4663   17.8023 N   0  0  0  0  0  0  0  0  0  0  0  0
   15.9101   22.0855   17.2591 H   0  0  0  0  0  0  0  0  0  0  0  0
   15.6396   23.6178   18.4842 C   0  0  0  0  0  0  0  0  0  0  0  0
   17.1503   23.5629   18.6933 C   0  0  0  0  0  0  0  0  0  0  0  0
   18.6462   24.3419   16.9557 C   0  0  0  0  0  0  0  0  0  0  0  0
   18.7824   23.1760   16.5284 O   0  0  0  0  0  0  0  0  0  0  0  0
   17.8790   24.5859   17.9544 N   0  0  0  0  0  0  0  0  0  0  0  0
   17.7761   25.5227   18.2394 H   0  0  0  0  0  0  0  0  0  0  0  0
   19.4170   25.4814   16.3488 C   0  0  0  0  0  0  0  0  0  0  0  0
   21.2712   26.4229   17.5980 C   0  0  0  0  0  0  0  0  0  0  0  0
   20.6296   27.4578   17.8765 O   0  0  0  0  0  0  0  0  0  0  0  0
   20.7654   25.4332   16.8962 N   0  0  0  0  0  0  0  0  0  0  0  0
   21.3162   24.6332   16.7354 H   0  0  0  0  0  0  0  0  0  0  0  0
   22.7210   26.3125   18.1170 C   0  0  0  0  0  0  0  0  0  0  0  0
   24.2790   27.0787   16.4050 C   0  0  0  0  0  0  0  0  0  0  0  0
   24.0958   26.0494   15.7481 O   0  0  0  0  0  0  0  0  0  0  0  0
   25.2297   28.1452   15.9991 C   0  0  0  0  0  0  0  0  0  0  0  0
   23.6233   27.2652   17.5557 N   0  0  0  0  0  0  0  0  0  0  0  0
   23.7715   28.1076   18.0433 H   0  0  0  0  0  0  0  0  0  0  0  0
   22.6775   26.4230   19.6494 C   0  0  0  0  0  0  0  0  0  0  0  0
   22.5674   27.8064   20.0106 O   0  0  0  0  0  0  0  0  0  0  0  0
   23.9371   25.8184   20.2933 C   0  0  0  0  0  0  0  0  0  0  0  0
   23.3403   28.2896   19.6788 H   0  0  0  0  0  0  0  0  0  0  0  0
   19.4191   25.4196   14.8136 C   0  0  0  0  0  0  0  0  0  0  0  0
   18.2562   26.1596   14.2353 C   0  0  0  0  0  0  0  0  0  0  0  0
   20.7559   25.8701   14.1967 C   0  0  0  0  0  0  0  0  0  0  0  0
   20.8587   27.3547   13.9153 C   0  0  0  0  0  0  0  0  0  0  0  0
   17.5072   23.6723   20.1799 C   0  0  0  0  0  0  0  0  0  0  0  0
   18.9707   23.5284   20.5310 C   0  0  0  0  0  0  0  0  0  0  0  0
   19.1998   22.7635   21.8082 C   0  0  0  0  0  0  0  0  0  0  0  0
   19.0127   21.2701   21.6777 C   0  0  0  0  0  0  0  0  0  0  0  0
   14.4913   22.9327   15.4973 C   0  0  0  0  0  0  0  0  0  0  0  0
   15.4308   21.9872   14.8098 C   0  0  0  0  0  0  0  0  0  0  0  0
   15.1559   21.8979   13.3187 C   0  0  0  0  0  0  0  0  0  0  0  0
   14.2722   20.7413   12.9195 C   0  0  0  0  0  0  0  0  0  0  0  0
 50 51  2  0  0  0
 50 52  1  0  0  0
 53 49  1  0  0  0
 49 45  1  0  0  0
 49 55  1  0  0  0
 45 46  2  0  0  0
 55 56  1  0  0  0
 55 57  1  0  0  0
 47 44  1  0  0  0
 44 40  1  0  0  0
 44 59  1  0  0  0
 40 41  2  0  0  0
 59 61  1  0  0  0
 59 60  1  0  0  0
 61 62  1  0  0  0
 42 39  1  0  0  0
 39 38  1  0  0  0
 39 63  1  0  0  0
 63 64  1  0  0  0
 64 65  1  0  0  0
 65 66  1  0  0  0
 36  1  1  0  0  0
  1  2  1  0  0  0
  1 67  1  0  0  0
  2  3  2  0  0  0
 67 68  1  0  0  0
 68 69  1  0  0  0
 69 70  1  0  0  0
  4  6  1  0  0  0
  6  7  1  0  0  0
  6 29  1  0  0  0
  7  8  2  0  0  0
 29 30  1  0  0  0
 30 31  1  0  0  0
 31 32  2  0  0  0
 31 33  1  0  0  0
  9 11  1  0  0  0
 11 12  1  0  0  0
 11 17  1  0  0  0
 12 13  2  0  0  0
 17 18  1  0  0  0
 18 19  1  0  0  0
 19 20  1  0  0  0
 20 22  1  0  0  0
 22 23  1  0  0  0
 22 24  2  0  0  0
 50 53  1  0  0  0
 45 47  1  0  0  0
 40 42  1  0  0  0
 38 36  1  0  0  0
  2  4  1  0  0  0
  7  9  1  0  0  0
 12 14  1  0  0  0
 53 54  1  0  0  0
 56 58  1  0  0  0
 47 48  1  0  0  0
 42 43  1  0  0  0
 36 37  1  0  0  0
  4  5  1  0  0  0
 33 34  1  0  0  0
 33 35  1  0  0  0
  9 10  1  0  0  0
 20 21  1  0  0  0
 23 25  1  0  0  0
 23 26  1  0  0  0
 24 27  1  0  0  0
 24 28  1  0  0  0
 14 15  1  0  0  0
 14 16  1  0  0  0
M  CHG 1  24   1
M  END
> <minimizedAffinity>
-7.62786

$$$$
2AOG_2NC_A_400


 70 69  0  0  0  0  0  0  0  0999 V2000
   14.6431   22.4354   18.2113 C   0  0  0  0  0  0  0  0  0  0  0  0
   13.9499   22.2129   16.8975 C   0  0  0  0  0  0  0  0  0  0  0  0
   13.8695   23.1110   16.0383 O   0  0  0  0  0  0  0  0  0  0  0  0
   13.3664   21.0468   16.7166 N   0  0  0  0  0  0  0  0  0  0  0  0
   13.4430   20.3602   17.4179 H   0  0  0  0  0  0  0  0  0  0  0  0
   12.6084   20.7417   15.5053 C   0  0  0  0  0  0  0  0  0  0  0  0
   11.3361   20.0128   15.9303 C   0  0  0  0  0  0  0  0  0  0  0  0
   10.3383   20.6307   16.3158 O   0  0  0  0  0  0  0  0  0  0  0  0
   11.4324   18.7011   16.0024 N   0  0  0  0  0  0  0  0  0  0  0  0
   12.2955   18.2811   15.7834 H   0  0  0  0  0  0  0  0  0  0  0  0
   10.3397   17.8574   16.3846 C   0  0  0  0  0  0  0  0  0  0  0  0
   10.5675   17.3719   17.8168 C   0  0  0  0  0  0  0  0  0  0  0  0
   10.3923   18.0899   18.7988 O   0  0  0  0  0  0  0  0  0  0  0  0
   11.0335   16.0628   17.9230 N   0  0  0  0  0  0  0  0  0  0  0  0
   11.1612   15.5185   17.1127 H   0  0  0  0  0  0  0  0  0  0  0  0
   11.2349   15.6823   18.8084 H   0  0  0  0  0  0  0  0  0  0  0  0
   10.2631   16.6244   15.5018 C   0  0  0  0  0  0  0  0  0  0  0  0
   11.4569   16.4714   14.6082 C   0  0  0  0  0  0  0  0  0  0  0  0
   11.0591   16.4680   13.1556 C   0  0  0  0  0  0  0  0  0  0  0  0
   11.0166   17.8578   12.6710 N   0  0  0  0  0  0  0  0  0  0  0  0
   11.6569   18.4981   13.0576 H   0  0  0  0  0  0  0  0  0  0  0  0
   10.1897   18.2982   11.7655 C   0  0  0  0  0  0  0  0  0  0  0  0
   10.7037   18.9125   10.6937 N   0  0  0  0  0  0  0  0  0  0  0  0
    8.8688   18.1694   11.9122 N   0  0  0  0  0  0  0  0  0  0  0  0
   11.6795   19.0008   10.5977 H   0  0  0  0  0  0  0  0  0  0  0  0
   10.1060   19.2762   10.0011 H   0  0  0  0  0  0  0  0  0  0  0  0
    8.5036   17.7152   12.7056 H   0  0  0  0  0  0  0  0  0  0  0  0
    8.2601   18.5286   11.2269 H   0  0  0  0  0  0  0  0  0  0  0  0
   13.4371   19.9995   14.4913 C   0  0  0  0  0  0  0  0  0  0  0  0
   13.5094   20.6453   13.1287 C   0  0  0  0  0  0  0  0  0  0  0  0
   14.7774   21.4412   12.8861 C   0  0  0  0  0  0  0  0  0  0  0  0
   15.5232   21.6700   13.7971 O   0  0  0  0  0  0  0  0  0  0  0  0
   15.0297   21.8343   11.6549 N   0  0  0  0  0  0  0  0  0  0  0  0
   14.3937   21.6280   10.9323 H   0  0  0  0  0  0  0  0  0  0  0  0
   15.8543   22.3345   11.4571 H   0  0  0  0  0  0  0  0  0  0  0  0
   14.6138   23.8582   18.6097 N   0  0  0  0  0  0  0  0  0  0  0  0
   13.8856   23.9484   19.3183 H   0  0  0  0  0  0  0  0  0  0  0  0
   15.7832   24.4870   19.1413 C   0  0  0  0  0  0  0  0  0  0  0  0
   17.0675   23.7521   18.7680 C   0  0  0  0  0  0  0  0  0  0  0  0
   18.1465   24.7369   16.8366 C   0  0  0  0  0  0  0  0  0  0  0  0
   17.3429   24.1598   16.0738 O   0  0  0  0  0  0  0  0  0  0  0  0
   18.0534   24.5989   18.1085 N   0  0  0  0  0  0  0  0  0  0  0  0
   18.6874   25.0958   18.6744 H   0  0  0  0  0  0  0  0  0  0  0  0
   19.2754   25.5635   16.2862 C   0  0  0  0  0  0  0  0  0  0  0  0
   21.0264   26.3384   17.7757 C   0  0  0  0  0  0  0  0  0  0  0  0
   20.6337   27.5223   17.7103 O   0  0  0  0  0  0  0  0  0  0  0  0
   20.4296   25.3498   17.1477 N   0  0  0  0  0  0  0  0  0  0  0  0
   20.7743   24.4349   17.2637 H   0  0  0  0  0  0  0  0  0  0  0  0
   22.2659   26.0374   18.6454 C   0  0  0  0  0  0  0  0  0  0  0  0
   24.5063   26.7447   17.9930 C   0  0  0  0  0  0  0  0  0  0  0  0
   24.7434   25.6291   17.5201 O   0  0  0  0  0  0  0  0  0  0  0  0
   25.5025   27.8461   18.0200 C   0  0  0  0  0  0  0  0  0  0  0  0
   23.3118   27.0023   18.5370 N   0  0  0  0  0  0  0  0  0  0  0  0
   23.1447   27.9090   18.8822 H   0  0  0  0  0  0  0  0  0  0  0  0
   21.7909   25.8928   20.1001 C   0  0  0  0  0  0  0  0  0  0  0  0
   20.3750   25.6659   20.1040 O   0  0  0  0  0  0  0  0  0  0  0  0
   22.1163   27.1492   20.9260 C   0  0  0  0  0  0  0  0  0  0  0  0
   19.9252   26.4226   19.6964 H   0  0  0  0  0  0  0  0  0  0  0  0
   19.5812   25.2145   14.8215 C   0  0  0  0  0  0  0  0  0  0  0  0
   18.5767   25.8194   13.8944 C   0  0  0  0  0  0  0  0  0  0  0  0
   21.0256   25.5562   14.4119 C   0  0  0  0  0  0  0  0  0  0  0  0
   21.2655   27.0149   14.0830 C   0  0  0  0  0  0  0  0  0  0  0  0
   17.7110   23.1031   19.9983 C   0  0  0  0  0  0  0  0  0  0  0  0
   18.0643   21.6381   19.8767 C   0  0  0  0  0  0  0  0  0  0  0  0
   19.3188   21.2685   20.6239 C   0  0  0  0  0  0  0  0  0  0  0  0
   19.2303   21.4670   22.1189 C   0  0  0  0  0  0  0  0  0  0  0  0
   13.8933   21.6137   19.2326 C   0  0  0  0  0  0  0  0  0  0  0  0
   14.4138   20.2535   19.5906 C   0  0  0  0  0  0  0  0  0  0  0  0
   13.3729   19.4210   20.3191 C   0  0  0  0  0  0  0  0  0  0  0  0
   13.5550   17.9304   20.1683 C   0  0  0  0  0  0  0  0  0  0  0  0
 50 51  2  0  0  0
 50 52  1  0  0  0
 53 49  1  0  0  0
 49 45  1  0  0  0
 49 55  1  0  0  0
 45 46  2  0  0  0
 55 56  1  0  0  0
 55 57  1  0  0  0
 47 44  1  0  0  0
 44 40  1  0  0  0
 44 59  1  0  0  0
 40 41  2  0  0  0
 59 61  1  0  0  0
 59 60  1  0  0  0
 61 62  1  0  0  0
 42 39  1  0  0  0
 39 38  1  0  0  0
 39 63  1  0  0  0
 63 64  1  0  0  0
 64 65  1  0  0  0
 65 66  1  0  0  0
 36  1  1  0  0  0
  1  2  1  0  0  0
  1 67  1  0  0  0
  2  3  2  0  0  0
 67 68  1  0  0  0
 68 69  1  0  0  0
 69 70  1  0  0  0
  4  6  1  0  0  0
  6  7  1  0  0  0
  6 29  1  0  0  0
  7  8  2  0  0  0
 29 30  1  0  0  0
 30 31  1  0  0  0
 31 32  2  0  0  0
 31 33  1  0  0  0
  9 11  1  0  0  0
 11 12  1  0  0  0
 11 17  1  0  0  0
 12 13  2  0  0  0
 17 18  1  0  0  0
 18 19  1  0  0  0
 19 20  1  0  0  0
 20 22  1  0  0  0
 22 23  1  0  0  0
 22 24  2  0  0  0
 50 53  1  0  0  0
 45 47  1  0  0  0
 40 42  1  0  0  0
 38 36  1  0  0  0
  2  4  1  0  0  0
  7  9  1  0  0  0
 12 14  1  0  0  0
 53 54  1  0  0  0
 56 58  1  0  0  0
 47 48  1  0  0  0
 42 43  1  0  0  0
 36 37  1  0  0  0
  4  5  1  0  0  0
 33 34  1  0  0  0
 33 35  1  0  0  0
  9 10  1  0  0  0
 20 21  1  0  0  0
 23 25  1  0  0  0
 23 26  1  0  0  0
 24 27  1  0  0  0
 24 28  1  0  0  0
 14 15  1  0  0  0
 14 16  1  0  0  0
M  CHG 1  24   1
M  END
> <minimizedAffinity>
-7.59860

$$$$
