2GST_GPS_A_220
  RCSB PDB12061705433D
Coordinates from PDB:2GST:A:220 Model:1 without hydrogens
 35 37  0  0  0  0            999 V2000
   13.3570   16.4680   26.1920   C 0  0  0  0  0  0  0  0  0  0  0  0
   14.5290   14.7370   24.8900   N 0  0  0  0  0  0  0  0  0  0  0  0
   17.0800   16.5220   32.7420   C 0  0  0  0  0  0  0  0  0  0  0  0
   16.3040   16.5080   30.4590   N 0  0  0  0  0  0  0  0  0  0  0  0
   17.8450   17.0550   33.5350   O 0  0  0  0  0  0  0  0  0  0  0  0
   16.7690   13.6100   34.5130   C 0  0  0  0  0  0  0  0  0  0  0  0
   16.3980   15.3850   32.8590   N 0  0  0  0  0  0  0  0  0  0  0  0
   21.4250   19.1070   30.0180   O 0  0  0  0  0  0  0  0  0  0  0  0
   13.2920   17.1450   24.9790   O 0  0  0  0  0  0  0  0  0  0  0  0
   12.4840   16.8710   26.9910   O 0  0  0  0  0  0  0  0  0  0  0  0
   17.6580   13.1470   33.7470   O 0  0  0  0  0  0  0  0  0  0  0  0
   16.4020   13.0050   35.6380   O 0  0  0  0  0  0  0  0  0  0  0  0
   14.2360   15.2720   26.2990   C 0  0  0  0  0  0  0  0  0  0  0  0
   17.4070   17.0290   31.2870   C 0  0  0  0  0  0  0  0  0  0  0  0
   16.0460   14.8750   34.1920   C 0  0  0  0  0  0  0  0  0  0  0  0
   19.0400   19.4160   29.3160   C 0  0  0  0  0  0  0  0  0  0  0  0
   20.0380   19.2230   30.4890   C 0  0  0  0  0  0  0  0  0  0  0  0
   15.6600   15.6090   26.8930   C 0  0  0  0  0  0  0  0  0  0  0  0
   17.1720   18.5740   31.3290   C 0  0  0  0  0  0  0  0  0  0  0  0
   19.4100   20.7740   28.7470   C 0  0  0  0  0  0  0  0  0  0  0  0
   20.0200   20.4050   31.4260   C 0  0  0  0  0  0  0  0  0  0  0  0
   16.5850   16.1850   29.1690   C 0  0  0  0  0  0  0  0  0  0  0  0
   19.6050   22.0520   26.7350   C 0  0  0  0  0  0  0  0  0  0  0  0
   20.1880   21.2700   33.6940   C 0  0  0  0  0  0  0  0  0  0  0  0
   17.7430   15.9140   28.7680   O 0  0  0  0  0  0  0  0  0  0  0  0
   20.0650   23.1500   27.4810   C 0  0  0  0  0  0  0  0  0  0  0  0
   20.0770   22.5870   33.1920   C 0  0  0  0  0  0  0  0  0  0  0  0
   15.3370   15.9670   28.3530   C 0  0  0  0  0  0  0  0  0  0  0  0
   17.3830   19.3950   29.7930   S 0  0  0  0  0  0  0  0  0  0  0  0
   19.2580   20.8670   27.3240   C 0  0  0  0  0  0  0  0  0  0  0  0
   20.1680   20.1760   32.8320   C 0  0  0  0  0  0  0  0  0  0  0  0
   19.8680   21.8530   29.5160   C 0  0  0  0  0  0  0  0  0  0  0  0
   19.9440   21.6730   30.9250   C 0  0  0  0  0  0  0  0  0  0  0  0
   20.1690   23.0530   28.8730   C 0  0  0  0  0  0  0  0  0  0  0  0
   19.9530   22.7900   31.8070   C 0  0  0  0  0  0  0  0  0  0  0  0
  9  1  2  0  0  0  0
  1 13  1  0  0  0  0
  1 10  1  0  0  0  0
  2 13  1  0  0  0  0
 14  3  1  0  0  0  0
  3  7  1  0  0  0  0
  3  5  2  0  0  0  0
 22  4  1  0  0  0  0
  4 14  1  0  0  0  0
 11  6  2  0  0  0  0
 15  6  1  0  0  0  0
  6 12  1  0  0  0  0
  7 15  1  0  0  0  0
  8 17  1  0  0  0  0
 13 18  1  0  0  0  0
 14 19  1  0  0  0  0
 20 16  1  0  0  0  0
 16 29  1  0  0  0  0
 16 17  1  0  0  0  0
 17 21  1  0  0  0  0
 18 28  1  0  0  0  0
 29 19  1  0  0  0  0
 30 20  2  0  0  0  0
 20 32  1  0  0  0  0
 33 21  2  0  0  0  0
 21 31  1  0  0  0  0
 28 22  1  0  0  0  0
 25 22  2  0  0  0  0
 23 30  1  0  0  0  0
 23 26  2  0  0  0  0
 31 24  2  0  0  0  0
 27 24  1  0  0  0  0
 26 34  1  0  0  0  0
 35 27  2  0  0  0  0
 34 32  2  0  0  0  0
 32 33  1  0  0  0  0
 33 35  1  0  0  0  0
A    1
C1
A    2
N1
A    3
C2
A    4
N2
A    5
O2
A    6
C3
A    7
N3
A    8
O5
A    9
O11
A   10
O12
A   11
O31
A   12
O32
A   13
CA1
A   14
CA2
A   15
CA3
A   16
CA4
A   17
CA5
A   18
CB1
A   19
CB2
A   20
CB4
A   21
CB5
A   22
CD1
A   23
CD4
A   24
CD5
A   25
OE1
A   26
CE4
A   27
CE5
A   28
CG1
A   29
SG2
A   30
CG4
A   31
CG5
A   32
CH4
A   33
CH5
A   34
CZ4
A   35
CZ5
M  END
>  <InstanceId>
2GST_GPS_A_220

>  <ChemCompId>
GPS

>  <PdbId>
2GST

>  <ChainId>
A

>  <ResidueNumber>
220

>  <InsertionCode>


>  <Model>
1

>  <AltIds>


>  <MissingHeavyAtoms>
0

>  <ObservedFormula>
C24 N3 O7 S

>  <Name>
L-gamma-glutamyl-S-[(9S,10S)-10-hydroxy-9,10-dihydrophenanthren-9-yl]-L-cysteinylglycine

>  <SystematicName>
(2S)-2-azanyl-5-[[(2R)-1-(carboxymethylamino)-3-[[(9S,10S)-10-hydroxy-9,10-dihydrophenanthren-9-yl]sulfanyl]-1-oxo-propan-2-yl]amino]-5-oxo-pentanoic acid

>  <Synonyms>


>  <Type>
NON-POLYMER

>  <Formula>
C24 H27 N3 O7 S

>  <MolecularWeight>
501.552

>  <ModifiedDate>
2011-06-04

>  <Parent>


>  <OneLetterCode>


>  <SubcomponentList>


>  <AmbiguousFlag>
N

>  <InChI>
InChI=1S/C24H27N3O7S/c25-17(24(33)34)9-10-19(28)27-18(23(32)26-11-20(29)30)12-35-22-16-8-4-2-6-14(16)13-5-1-3-7-15(13)21(22)31/h1-8,17-18,21-22,31H,9-12,25H2,(H,26,32)(H,27,28)(H,29,30)(H,33,34)/t17-,18-,21-,22-/m0/s1

>  <InChIKey>
JNNIZILNBMPOAC-GPHNJDIKSA-N

>  <SMILES>
c1ccc2c(c1)-c3ccccc3[C@@H]([C@H]2O)SC[C@@H](C(=O)NCC(=O)O)NC(=O)CC[C@@H](C(=O)O)N

$$$$
