3EB1_LZQ_A_322


 30 32  0  0  0  0  0  0  0  0999 V2000
   47.6792   15.6684    3.1355 N   0  0  0  0  0  0  0  0  0  0  0  0
   51.4296   16.6875    0.9247 C   0  0  0  0  0  0  0  0  0  0  0  0
   50.5813   15.6059    0.4719 C   0  0  0  0  0  0  0  0  0  0  0  0
   49.3566   15.2619    1.1838 C   0  0  0  0  0  0  0  0  0  0  0  0
   48.9615   16.0133    2.3752 C   0  0  0  0  0  0  0  0  0  0  0  0
   49.8378   17.1243    2.8382 C   0  0  0  0  0  0  0  0  0  0  0  0
   51.0923   17.4693    2.1049 C   0  0  0  0  0  0  0  0  0  0  0  0
   51.9395   18.5246    2.5439 C   0  0  0  0  0  0  0  0  0  0  0  0
   53.2440   18.3202    2.3590 O   0  0  0  0  0  0  0  0  0  0  0  0
   51.7516   19.8655    3.1944 C   0  0  0  0  0  0  0  0  0  0  0  0
   50.7236   20.7413    2.3971 C   0  0  0  0  0  0  0  0  0  0  0  0
   50.8933   21.0409    1.2151 O   0  0  0  0  0  0  0  0  0  0  0  0
   49.6351   21.1646    3.0495 C   0  0  0  0  0  0  0  0  0  0  0  0
   49.2649   20.5011    4.3060 O   0  0  0  0  0  0  0  0  0  0  0  0
   48.9697   22.0996    2.5885 O   0  0  0  0  0  0  0  0  0  0  0  0
   49.2273   22.5062    1.7846 H   0  0  0  0  0  0  0  0  0  0  0  0
   46.6082   16.7466    3.4421 C   0  0  0  0  0  0  0  0  0  0  0  0
   46.2547   17.7016    2.2142 C   0  0  0  0  0  0  0  0  0  0  0  0
   45.4913   17.1833    1.0574 C   0  0  0  0  0  0  0  0  0  0  0  0
   45.1633   18.0676   -0.0804 C   0  0  0  0  0  0  0  0  0  0  0  0
   45.5891   19.4726   -0.0843 C   0  0  0  0  0  0  0  0  0  0  0  0
   46.3472   20.0045    1.0491 C   0  0  0  0  0  0  0  0  0  0  0  0
   46.6820   19.1252    2.1980 C   0  0  0  0  0  0  0  0  0  0  0  0
   47.4899   14.2452    3.6449 C   0  0  0  0  0  0  0  0  0  0  0  0
   46.9077   13.1413    2.6477 C   0  0  0  0  0  0  0  0  0  0  0  0
   46.9738   11.7070    3.0305 C   0  0  0  0  0  0  0  0  0  0  0  0
   46.4481   10.6620    2.1279 C   0  0  0  0  0  0  0  0  0  0  0  0
   45.8553   11.0335    0.8412 C   0  0  0  0  0  0  0  0  0  0  0  0
   45.7872   12.4471    0.4573 C   0  0  0  0  0  0  0  0  0  0  0  0
   46.3096   13.5018    1.3504 C   0  0  0  0  0  0  0  0  0  0  0  0
  7  2  2  0  0  0
  3  2  1  0  0  0
  7  8  1  0  0  0
  8 10  1  0  0  0
  8  9  2  0  0  0
 10 11  1  0  0  0
 11 13  1  0  0  0
 11 12  2  0  0  0
 14 13  2  0  0  0
 13 15  1  0  0  0
 23 18  2  0  0  0
 17 18  1  0  0  0
 18 19  1  0  0  0
 26 25  2  0  0  0
 25 24  1  0  0  0
 25 30  1  0  0  0
 24  1  1  0  0  0
 17  1  1  0  0  0
  1  5  1  0  0  0
  4  3  2  0  0  0
 19 20  2  0  0  0
 27 26  1  0  0  0
  5  4  1  0  0  0
 21 20  1  0  0  0
 27 28  2  0  0  0
  5  6  2  0  0  0
 22 21  2  0  0  0
 28 29  1  0  0  0
  6  7  1  0  0  0
 23 22  1  0  0  0
 29 30  2  0  0  0
 15 16  1  0  0  0
M  END
> <minimizedAffinity>
-7.37175

$$$$
3EB1_LZQ_A_322


 30 32  0  0  0  0  0  0  0  0999 V2000
   47.1046   15.4977    2.6219 N   0  0  0  0  0  0  0  0  0  0  0  0
   47.1287   19.8523    1.6078 C   0  0  0  0  0  0  0  0  0  0  0  0
   46.0127   19.0151    1.2229 C   0  0  0  0  0  0  0  0  0  0  0  0
   45.9923   17.5937    1.5458 C   0  0  0  0  0  0  0  0  0  0  0  0
   47.1078   16.9874    2.2727 C   0  0  0  0  0  0  0  0  0  0  0  0
   48.2542   17.8522    2.6655 C   0  0  0  0  0  0  0  0  0  0  0  0
   48.2691   19.3073    2.3290 C   0  0  0  0  0  0  0  0  0  0  0  0
   49.3634   20.1399    2.6940 C   0  0  0  0  0  0  0  0  0  0  0  0
   49.2348   20.7671    3.8635 O   0  0  0  0  0  0  0  0  0  0  0  0
   50.6822   20.5243    2.0861 C   0  0  0  0  0  0  0  0  0  0  0  0
   51.7638   19.4164    2.3352 C   0  0  0  0  0  0  0  0  0  0  0  0
   51.8176   18.3875    1.6612 O   0  0  0  0  0  0  0  0  0  0  0  0
   52.6441   19.6223    3.3212 C   0  0  0  0  0  0  0  0  0  0  0  0
   54.0644   19.3508    3.0651 O   0  0  0  0  0  0  0  0  0  0  0  0
   52.2498   20.0366    4.4177 O   0  0  0  0  0  0  0  0  0  0  0  0
   51.3379   20.2021    4.5556 H   0  0  0  0  0  0  0  0  0  0  0  0
   48.4003   14.7695    3.0626 C   0  0  0  0  0  0  0  0  0  0  0  0
   49.3471   14.3114    1.8632 C   0  0  0  0  0  0  0  0  0  0  0  0
   50.3924   15.2214    1.3443 C   0  0  0  0  0  0  0  0  0  0  0  0
   51.2700   14.7976    0.2334 C   0  0  0  0  0  0  0  0  0  0  0  0
   51.1203   13.4699   -0.3751 C   0  0  0  0  0  0  0  0  0  0  0  0
   50.0911   12.5555    0.1217 C   0  0  0  0  0  0  0  0  0  0  0  0
   49.2039   12.9706    1.2379 C   0  0  0  0  0  0  0  0  0  0  0  0
   45.8067   14.7138    2.4750 C   0  0  0  0  0  0  0  0  0  0  0  0
   45.7956   13.4077    1.5552 C   0  0  0  0  0  0  0  0  0  0  0  0
   45.7523   12.0671    2.1947 C   0  0  0  0  0  0  0  0  0  0  0  0
   45.7457   10.8401    1.3716 C   0  0  0  0  0  0  0  0  0  0  0  0
   45.7830   10.9361   -0.0895 C   0  0  0  0  0  0  0  0  0  0  0  0
   45.8261   12.2559   -0.7269 C   0  0  0  0  0  0  0  0  0  0  0  0
   45.8336   13.4905    0.0847 C   0  0  0  0  0  0  0  0  0  0  0  0
  7  2  2  0  0  0
  3  2  1  0  0  0
  7  8  1  0  0  0
  8 10  1  0  0  0
  8  9  2  0  0  0
 10 11  1  0  0  0
 11 13  1  0  0  0
 11 12  2  0  0  0
 14 13  2  0  0  0
 13 15  1  0  0  0
 23 18  2  0  0  0
 17 18  1  0  0  0
 18 19  1  0  0  0
 26 25  2  0  0  0
 25 24  1  0  0  0
 25 30  1  0  0  0
 24  1  1  0  0  0
 17  1  1  0  0  0
  1  5  1  0  0  0
  4  3  2  0  0  0
 19 20  2  0  0  0
 27 26  1  0  0  0
  5  4  1  0  0  0
 21 20  1  0  0  0
 27 28  2  0  0  0
  5  6  2  0  0  0
 22 21  2  0  0  0
 28 29  1  0  0  0
  6  7  1  0  0  0
 23 22  1  0  0  0
 29 30  2  0  0  0
 15 16  1  0  0  0
M  END
> <minimizedAffinity>
-7.30242

$$$$
3EB1_LZQ_A_322


 30 32  0  0  0  0  0  0  0  0999 V2000
   47.0103   15.5001    2.5951 N   0  0  0  0  0  0  0  0  0  0  0  0
   47.0145   19.8535    1.5756 C   0  0  0  0  0  0  0  0  0  0  0  0
   45.9743   18.9825    1.0718 C   0  0  0  0  0  0  0  0  0  0  0  0
   45.9614   17.5611    1.3950 C   0  0  0  0  0  0  0  0  0  0  0  0
   47.0071   16.9893    2.2435 C   0  0  0  0  0  0  0  0  0  0  0  0
   48.0758   17.8887    2.7584 C   0  0  0  0  0  0  0  0  0  0  0  0
   48.0836   19.3436    2.4209 C   0  0  0  0  0  0  0  0  0  0  0  0
   49.1047   20.2093    2.9025 C   0  0  0  0  0  0  0  0  0  0  0  0
   49.1269   20.3815    4.2244 O   0  0  0  0  0  0  0  0  0  0  0  0
   50.2114   21.0230    2.2943 C   0  0  0  0  0  0  0  0  0  0  0  0
   51.4794   20.1403    2.0247 C   0  0  0  0  0  0  0  0  0  0  0  0
   52.0381   20.1107    0.9281 O   0  0  0  0  0  0  0  0  0  0  0  0
   51.9469   19.4038    3.0388 C   0  0  0  0  0  0  0  0  0  0  0  0
   51.8257   17.9423    2.9620 O   0  0  0  0  0  0  0  0  0  0  0  0
   52.4703   19.9616    4.0106 O   0  0  0  0  0  0  0  0  0  0  0  0
   52.5355   20.8960    4.0354 H   0  0  0  0  0  0  0  0  0  0  0  0
   45.7029   14.6670    2.5899 C   0  0  0  0  0  0  0  0  0  0  0  0
   45.7336   13.3862    1.6395 C   0  0  0  0  0  0  0  0  0  0  0  0
   45.7724   12.0247    2.2180 C   0  0  0  0  0  0  0  0  0  0  0  0
   45.8005   10.8377    1.3381 C   0  0  0  0  0  0  0  0  0  0  0  0
   45.7921   10.9873   -0.1224 C   0  0  0  0  0  0  0  0  0  0  0  0
   45.7563   12.3251   -0.7149 C   0  0  0  0  0  0  0  0  0  0  0  0
   45.7273   13.5250    0.1596 C   0  0  0  0  0  0  0  0  0  0  0  0
   48.3229   14.8486    3.0114 C   0  0  0  0  0  0  0  0  0  0  0  0
   49.3458   14.3830    1.8761 C   0  0  0  0  0  0  0  0  0  0  0  0
   49.1851   13.0417    1.2569 C   0  0  0  0  0  0  0  0  0  0  0  0
   50.1176   12.5803    0.2078 C   0  0  0  0  0  0  0  0  0  0  0  0
   51.2144   13.4457   -0.2319 C   0  0  0  0  0  0  0  0  0  0  0  0
   51.3788   14.7703    0.3753 C   0  0  0  0  0  0  0  0  0  0  0  0
   50.4536   15.2435    1.4255 C   0  0  0  0  0  0  0  0  0  0  0  0
  7  2  2  0  0  0
  3  2  1  0  0  0
  7  8  1  0  0  0
  8 10  1  0  0  0
  8  9  2  0  0  0
 10 11  1  0  0  0
 11 13  1  0  0  0
 11 12  2  0  0  0
 14 13  2  0  0  0
 13 15  1  0  0  0
 23 18  2  0  0  0
 17 18  1  0  0  0
 18 19  1  0  0  0
 26 25  2  0  0  0
 25 24  1  0  0  0
 25 30  1  0  0  0
 24  1  1  0  0  0
 17  1  1  0  0  0
  1  5  1  0  0  0
  4  3  2  0  0  0
 19 20  2  0  0  0
 27 26  1  0  0  0
  5  4  1  0  0  0
 21 20  1  0  0  0
 27 28  2  0  0  0
  5  6  2  0  0  0
 22 21  2  0  0  0
 28 29  1  0  0  0
  6  7  1  0  0  0
 23 22  1  0  0  0
 29 30  2  0  0  0
 15 16  1  0  0  0
M  END
> <minimizedAffinity>
-7.27812

$$$$
3EB1_LZQ_A_322


 30 32  0  0  0  0  0  0  0  0999 V2000
   47.6555   15.7203    3.0752 N   0  0  0  0  0  0  0  0  0  0  0  0
   51.2578   17.2015    0.8795 C   0  0  0  0  0  0  0  0  0  0  0  0
   50.3741   16.2308    0.2699 C   0  0  0  0  0  0  0  0  0  0  0  0
   49.1970   15.7383    0.9748 C   0  0  0  0  0  0  0  0  0  0  0  0
   48.8868   16.2242    2.3195 C   0  0  0  0  0  0  0  0  0  0  0  0
   49.7993   17.2216    2.9431 C   0  0  0  0  0  0  0  0  0  0  0  0
   51.0047   17.7198    2.2155 C   0  0  0  0  0  0  0  0  0  0  0  0
   51.8862   18.6675    2.8062 C   0  0  0  0  0  0  0  0  0  0  0  0
   53.1690   18.5393    2.4661 O   0  0  0  0  0  0  0  0  0  0  0  0
   51.7554   19.8227    3.7575 C   0  0  0  0  0  0  0  0  0  0  0  0
   50.3172   20.4450    3.6966 C   0  0  0  0  0  0  0  0  0  0  0  0
   49.4537   20.1871    4.5353 O   0  0  0  0  0  0  0  0  0  0  0  0
   50.0472   21.2800    2.6869 C   0  0  0  0  0  0  0  0  0  0  0  0
   50.8363   21.1715    1.4532 O   0  0  0  0  0  0  0  0  0  0  0  0
   49.1448   22.1169    2.8088 O   0  0  0  0  0  0  0  0  0  0  0  0
   48.6558   22.1657    3.6066 H   0  0  0  0  0  0  0  0  0  0  0  0
   47.5911   14.2791    3.6430 C   0  0  0  0  0  0  0  0  0  0  0  0
   46.9893   13.1947    2.6396 C   0  0  0  0  0  0  0  0  0  0  0  0
   46.4212   13.6117    1.3384 C   0  0  0  0  0  0  0  0  0  0  0  0
   45.8638   12.6076    0.4083 C   0  0  0  0  0  0  0  0  0  0  0  0
   45.8621   11.1818    0.7581 C   0  0  0  0  0  0  0  0  0  0  0  0
   46.4171   10.7485    2.0412 C   0  0  0  0  0  0  0  0  0  0  0  0
   46.9804   11.7487    2.9834 C   0  0  0  0  0  0  0  0  0  0  0  0
   46.4533   16.6453    3.2165 C   0  0  0  0  0  0  0  0  0  0  0  0
   46.1606   17.7097    2.0618 C   0  0  0  0  0  0  0  0  0  0  0  0
   46.6573   19.1021    2.2120 C   0  0  0  0  0  0  0  0  0  0  0  0
   46.3989   20.1108    1.1638 C   0  0  0  0  0  0  0  0  0  0  0  0
   45.6459   19.7445   -0.0379 C   0  0  0  0  0  0  0  0  0  0  0  0
   45.1527   18.3722   -0.1923 C   0  0  0  0  0  0  0  0  0  0  0  0
   45.4039   17.3541    0.8486 C   0  0  0  0  0  0  0  0  0  0  0  0
  7  2  2  0  0  0
  3  2  1  0  0  0
  7  8  1  0  0  0
  8 10  1  0  0  0
  8  9  2  0  0  0
 10 11  1  0  0  0
 11 13  1  0  0  0
 11 12  2  0  0  0
 14 13  2  0  0  0
 13 15  1  0  0  0
 23 18  2  0  0  0
 17 18  1  0  0  0
 18 19  1  0  0  0
 26 25  2  0  0  0
 25 24  1  0  0  0
 25 30  1  0  0  0
 24  1  1  0  0  0
 17  1  1  0  0  0
  1  5  1  0  0  0
  4  3  2  0  0  0
 19 20  2  0  0  0
 27 26  1  0  0  0
  5  4  1  0  0  0
 21 20  1  0  0  0
 27 28  2  0  0  0
  5  6  2  0  0  0
 22 21  2  0  0  0
 28 29  1  0  0  0
  6  7  1  0  0  0
 23 22  1  0  0  0
 29 30  2  0  0  0
 15 16  1  0  0  0
M  END
> <minimizedAffinity>
-7.12973

$$$$
3EB1_LZQ_A_322


 30 32  0  0  0  0  0  0  0  0999 V2000
   48.0752   16.6145    3.4616 N   0  0  0  0  0  0  0  0  0  0  0  0
   51.1131   19.8948    3.4148 C   0  0  0  0  0  0  0  0  0  0  0  0
   49.9548   19.9792    4.2784 C   0  0  0  0  0  0  0  0  0  0  0  0
   48.9559   18.9178    4.3027 C   0  0  0  0  0  0  0  0  0  0  0  0
   49.1121   17.7396    3.4495 C   0  0  0  0  0  0  0  0  0  0  0  0
   50.3045   17.6577    2.5619 C   0  0  0  0  0  0  0  0  0  0  0  0
   51.3225   18.7503    2.5407 C   0  0  0  0  0  0  0  0  0  0  0  0
   52.4614   18.6840    1.6906 C   0  0  0  0  0  0  0  0  0  0  0  0
   53.6390   18.7456    2.3127 O   0  0  0  0  0  0  0  0  0  0  0  0
   52.7051   18.5633    0.2133 C   0  0  0  0  0  0  0  0  0  0  0  0
   52.3545   19.8998   -0.5285 C   0  0  0  0  0  0  0  0  0  0  0  0
   53.1869   20.7888   -0.7090 O   0  0  0  0  0  0  0  0  0  0  0  0
   51.1002   20.0524   -0.9678 C   0  0  0  0  0  0  0  0  0  0  0  0
   50.6837   19.3268   -2.1745 O   0  0  0  0  0  0  0  0  0  0  0  0
   50.3218   20.7915   -0.3536 O   0  0  0  0  0  0  0  0  0  0  0  0
   50.6124   21.2436    0.4140 H   0  0  0  0  0  0  0  0  0  0  0  0
   48.4958   15.1315    3.6271 C   0  0  0  0  0  0  0  0  0  0  0  0
   47.7772   14.1200    2.6245 C   0  0  0  0  0  0  0  0  0  0  0  0
   46.7063   13.2202    3.1078 C   0  0  0  0  0  0  0  0  0  0  0  0
   46.0400   12.2831    2.1794 C   0  0  0  0  0  0  0  0  0  0  0  0
   46.4284   12.2268    0.7647 C   0  0  0  0  0  0  0  0  0  0  0  0
   47.4869   13.1066    0.2670 C   0  0  0  0  0  0  0  0  0  0  0  0
   48.1629   14.0526    1.1907 C   0  0  0  0  0  0  0  0  0  0  0  0
   46.6086   16.9676    3.2492 C   0  0  0  0  0  0  0  0  0  0  0  0
   46.1908   17.7594    1.9261 C   0  0  0  0  0  0  0  0  0  0  0  0
   46.0012   19.2319    1.9882 C   0  0  0  0  0  0  0  0  0  0  0  0
   45.6104   19.9921    0.7830 C   0  0  0  0  0  0  0  0  0  0  0  0
   45.4046   19.2961   -0.4892 C   0  0  0  0  0  0  0  0  0  0  0  0
   45.5898   17.8431   -0.5572 C   0  0  0  0  0  0  0  0  0  0  0  0
   45.9800   17.0711    0.6406 C   0  0  0  0  0  0  0  0  0  0  0  0
  7  2  2  0  0  0
  3  2  1  0  0  0
  7  8  1  0  0  0
  8 10  1  0  0  0
  8  9  2  0  0  0
 10 11  1  0  0  0
 11 13  1  0  0  0
 11 12  2  0  0  0
 14 13  2  0  0  0
 13 15  1  0  0  0
 23 18  2  0  0  0
 17 18  1  0  0  0
 18 19  1  0  0  0
 26 25  2  0  0  0
 25 24  1  0  0  0
 25 30  1  0  0  0
 24  1  1  0  0  0
 17  1  1  0  0  0
  1  5  1  0  0  0
  4  3  2  0  0  0
 19 20  2  0  0  0
 27 26  1  0  0  0
  5  4  1  0  0  0
 21 20  1  0  0  0
 27 28  2  0  0  0
  5  6  2  0  0  0
 22 21  2  0  0  0
 28 29  1  0  0  0
  6  7  1  0  0  0
 23 22  1  0  0  0
 29 30  2  0  0  0
 15 16  1  0  0  0
M  END
> <minimizedAffinity>
-6.80833

$$$$
3EB1_LZQ_A_322


 30 32  0  0  0  0  0  0  0  0999 V2000
   45.9410   15.8193    2.3363 N   0  0  0  0  0  0  0  0  0  0  0  0
   48.7010   18.7291    4.3131 C   0  0  0  0  0  0  0  0  0  0  0  0
   48.1012   17.6534    5.0732 C   0  0  0  0  0  0  0  0  0  0  0  0
   47.1986   16.6986    4.4419 C   0  0  0  0  0  0  0  0  0  0  0  0
   46.8851   16.8123    3.0175 C   0  0  0  0  0  0  0  0  0  0  0  0
   47.5033   17.9211    2.2398 C   0  0  0  0  0  0  0  0  0  0  0  0
   48.4253   18.8970    2.8941 C   0  0  0  0  0  0  0  0  0  0  0  0
   49.0151   19.9638    2.1606 C   0  0  0  0  0  0  0  0  0  0  0  0
   48.4552   20.2176    0.9775 O   0  0  0  0  0  0  0  0  0  0  0  0
   50.1542   20.9211    2.3674 C   0  0  0  0  0  0  0  0  0  0  0  0
   51.5365   20.1961    2.2152 C   0  0  0  0  0  0  0  0  0  0  0  0
   52.1329   20.1379    1.1398 O   0  0  0  0  0  0  0  0  0  0  0  0
   52.0609   19.6293    3.3076 C   0  0  0  0  0  0  0  0  0  0  0  0
   52.7917   18.3639    3.1624 O   0  0  0  0  0  0  0  0  0  0  0  0
   51.9247   20.1778    4.4076 O   0  0  0  0  0  0  0  0  0  0  0  0
   51.4537   20.9851    4.4734 H   0  0  0  0  0  0  0  0  0  0  0  0
   45.5861   14.4616    2.9951 C   0  0  0  0  0  0  0  0  0  0  0  0
   46.3183   13.1984    2.3525 C   0  0  0  0  0  0  0  0  0  0  0  0
   47.7604   13.2546    2.0252 C   0  0  0  0  0  0  0  0  0  0  0  0
   48.4394   12.0846    1.4301 C   0  0  0  0  0  0  0  0  0  0  0  0
   47.6971   10.8488    1.1520 C   0  0  0  0  0  0  0  0  0  0  0  0
   46.2695   10.7733    1.4660 C   0  0  0  0  0  0  0  0  0  0  0  0
   45.5771   11.9426    2.0647 C   0  0  0  0  0  0  0  0  0  0  0  0
   45.3903   16.1600    0.9574 C   0  0  0  0  0  0  0  0  0  0  0  0
   45.8824   15.3075   -0.3007 C   0  0  0  0  0  0  0  0  0  0  0  0
   44.9845   14.2718   -0.8746 C   0  0  0  0  0  0  0  0  0  0  0  0
   45.4125   13.4636   -2.0351 C   0  0  0  0  0  0  0  0  0  0  0  0
   46.7329   13.6775   -2.6318 C   0  0  0  0  0  0  0  0  0  0  0  0
   47.6239   14.6978   -2.0702 C   0  0  0  0  0  0  0  0  0  0  0  0
   47.2083   15.5123   -0.9096 C   0  0  0  0  0  0  0  0  0  0  0  0
  7  2  2  0  0  0
  3  2  1  0  0  0
  7  8  1  0  0  0
  8 10  1  0  0  0
  8  9  2  0  0  0
 10 11  1  0  0  0
 11 13  1  0  0  0
 11 12  2  0  0  0
 14 13  2  0  0  0
 13 15  1  0  0  0
 23 18  2  0  0  0
 17 18  1  0  0  0
 18 19  1  0  0  0
 26 25  2  0  0  0
 25 24  1  0  0  0
 25 30  1  0  0  0
 24  1  1  0  0  0
 17  1  1  0  0  0
  1  5  1  0  0  0
  4  3  2  0  0  0
 19 20  2  0  0  0
 27 26  1  0  0  0
  5  4  1  0  0  0
 21 20  1  0  0  0
 27 28  2  0  0  0
  5  6  2  0  0  0
 22 21  2  0  0  0
 28 29  1  0  0  0
  6  7  1  0  0  0
 23 22  1  0  0  0
 29 30  2  0  0  0
 15 16  1  0  0  0
M  END
> <minimizedAffinity>
-6.77116

$$$$
3EB1_LZQ_A_322


 30 32  0  0  0  0  0  0  0  0999 V2000
   47.0883   15.5523    2.6292 N   0  0  0  0  0  0  0  0  0  0  0  0
   47.1077   19.8845    1.5232 C   0  0  0  0  0  0  0  0  0  0  0  0
   46.0188   19.0258    1.1089 C   0  0  0  0  0  0  0  0  0  0  0  0
   46.0003   17.6114    1.4612 C   0  0  0  0  0  0  0  0  0  0  0  0
   47.0900   17.0342    2.2484 C   0  0  0  0  0  0  0  0  0  0  0  0
   48.2086   17.9209    2.6713 C   0  0  0  0  0  0  0  0  0  0  0  0
   48.2218   19.3686    2.3044 C   0  0  0  0  0  0  0  0  0  0  0  0
   49.2899   20.2219    2.6981 C   0  0  0  0  0  0  0  0  0  0  0  0
   49.1662   20.7653    3.9093 O   0  0  0  0  0  0  0  0  0  0  0  0
   50.5753   20.7015    2.0863 C   0  0  0  0  0  0  0  0  0  0  0  0
   51.1071   19.6839    1.0181 C   0  0  0  0  0  0  0  0  0  0  0  0
   51.6983   18.6507    1.3322 O   0  0  0  0  0  0  0  0  0  0  0  0
   50.8985   19.9750   -0.2708 C   0  0  0  0  0  0  0  0  0  0  0  0
   51.6087   19.1955   -1.2927 O   0  0  0  0  0  0  0  0  0  0  0  0
   50.1166   20.8837   -0.5746 O   0  0  0  0  0  0  0  0  0  0  0  0
   49.6757   21.3664    0.0966 H   0  0  0  0  0  0  0  0  0  0  0  0
   48.3801   14.8404    3.1064 C   0  0  0  0  0  0  0  0  0  0  0  0
   49.3826   14.4258    1.9367 C   0  0  0  0  0  0  0  0  0  0  0  0
   49.2510   13.1125    1.2677 C   0  0  0  0  0  0  0  0  0  0  0  0
   50.1792   12.7280    0.1838 C   0  0  0  0  0  0  0  0  0  0  0  0
   51.2469   13.6390   -0.2467 C   0  0  0  0  0  0  0  0  0  0  0  0
   51.3957   14.9418    0.4036 C   0  0  0  0  0  0  0  0  0  0  0  0
   50.4684   15.3389    1.4934 C   0  0  0  0  0  0  0  0  0  0  0  0
   45.7968   14.7586    2.4779 C   0  0  0  0  0  0  0  0  0  0  0  0
   45.8125   13.4211    1.6044 C   0  0  0  0  0  0  0  0  0  0  0  0
   45.8438   13.5200    0.1221 C   0  0  0  0  0  0  0  0  0  0  0  0
   45.8542   12.3015   -0.7136 C   0  0  0  0  0  0  0  0  0  0  0  0
   45.8327   10.9793   -0.0840 C   0  0  0  0  0  0  0  0  0  0  0  0
   45.8015   10.8747    1.3783 C   0  0  0  0  0  0  0  0  0  0  0  0
   45.7903   12.0852    2.2254 C   0  0  0  0  0  0  0  0  0  0  0  0
  7  2  2  0  0  0
  3  2  1  0  0  0
  7  8  1  0  0  0
  8 10  1  0  0  0
  8  9  2  0  0  0
 10 11  1  0  0  0
 11 13  1  0  0  0
 11 12  2  0  0  0
 14 13  2  0  0  0
 13 15  1  0  0  0
 23 18  2  0  0  0
 17 18  1  0  0  0
 18 19  1  0  0  0
 26 25  2  0  0  0
 25 24  1  0  0  0
 25 30  1  0  0  0
 24  1  1  0  0  0
 17  1  1  0  0  0
  1  5  1  0  0  0
  4  3  2  0  0  0
 19 20  2  0  0  0
 27 26  1  0  0  0
  5  4  1  0  0  0
 21 20  1  0  0  0
 27 28  2  0  0  0
  5  6  2  0  0  0
 22 21  2  0  0  0
 28 29  1  0  0  0
  6  7  1  0  0  0
 23 22  1  0  0  0
 29 30  2  0  0  0
 15 16  1  0  0  0
M  END
> <minimizedAffinity>
-6.76150

$$$$
3EB1_LZQ_A_322


 30 32  0  0  0  0  0  0  0  0999 V2000
   50.2419   15.1743   -0.2220 N   0  0  0  0  0  0  0  0  0  0  0  0
   53.1168   18.5491    0.3583 C   0  0  0  0  0  0  0  0  0  0  0  0
   53.4506   17.4417   -0.5117 C   0  0  0  0  0  0  0  0  0  0  0  0
   52.5234   16.3342   -0.7089 C   0  0  0  0  0  0  0  0  0  0  0  0
   51.2291   16.3269   -0.0270 C   0  0  0  0  0  0  0  0  0  0  0  0
   50.8906   17.4674    0.8679 C   0  0  0  0  0  0  0  0  0  0  0  0
   51.8467   18.5974    1.0670 C   0  0  0  0  0  0  0  0  0  0  0  0
   51.5348   19.6880    1.9257 C   0  0  0  0  0  0  0  0  0  0  0  0
   51.4274   20.8726    1.3235 O   0  0  0  0  0  0  0  0  0  0  0  0
   51.2881   19.8731    3.3959 C   0  0  0  0  0  0  0  0  0  0  0  0
   49.7714   20.1490    3.6842 C   0  0  0  0  0  0  0  0  0  0  0  0
   49.2959   21.2844    3.6693 O   0  0  0  0  0  0  0  0  0  0  0  0
   48.9919   19.0959    3.9540 C   0  0  0  0  0  0  0  0  0  0  0  0
   47.5410   19.2285    3.7706 O   0  0  0  0  0  0  0  0  0  0  0  0
   49.5029   18.0399    4.3454 O   0  0  0  0  0  0  0  0  0  0  0  0
   50.4317   17.9811    4.4543 H   0  0  0  0  0  0  0  0  0  0  0  0
   49.2202   15.1755   -1.3881 C   0  0  0  0  0  0  0  0  0  0  0  0
   47.6913   15.1956   -0.9335 C   0  0  0  0  0  0  0  0  0  0  0  0
   47.1468   16.3512   -0.1866 C   0  0  0  0  0  0  0  0  0  0  0  0
   45.7304   16.3706    0.2346 C   0  0  0  0  0  0  0  0  0  0  0  0
   44.8403   15.2457   -0.0781 C   0  0  0  0  0  0  0  0  0  0  0  0
   45.3595   14.0919   -0.8139 C   0  0  0  0  0  0  0  0  0  0  0  0
   46.7810   14.0620   -1.2426 C   0  0  0  0  0  0  0  0  0  0  0  0
   50.2357   14.0358    0.7902 C   0  0  0  0  0  0  0  0  0  0  0  0
   49.0189   13.9270    1.8196 C   0  0  0  0  0  0  0  0  0  0  0  0
   48.7935   15.0217    2.7989 C   0  0  0  0  0  0  0  0  0  0  0  0
   47.6796   14.9483    3.7668 C   0  0  0  0  0  0  0  0  0  0  0  0
   46.7845   13.7890    3.7695 C   0  0  0  0  0  0  0  0  0  0  0  0
   47.0016   12.7051    2.8060 C   0  0  0  0  0  0  0  0  0  0  0  0
   48.1119   12.7660    1.8331 C   0  0  0  0  0  0  0  0  0  0  0  0
  7  2  2  0  0  0
  3  2  1  0  0  0
  7  8  1  0  0  0
  8 10  1  0  0  0
  8  9  2  0  0  0
 10 11  1  0  0  0
 11 13  1  0  0  0
 11 12  2  0  0  0
 14 13  2  0  0  0
 13 15  1  0  0  0
 23 18  2  0  0  0
 17 18  1  0  0  0
 18 19  1  0  0  0
 26 25  2  0  0  0
 25 24  1  0  0  0
 25 30  1  0  0  0
 24  1  1  0  0  0
 17  1  1  0  0  0
  1  5  1  0  0  0
  4  3  2  0  0  0
 19 20  2  0  0  0
 27 26  1  0  0  0
  5  4  1  0  0  0
 21 20  1  0  0  0
 27 28  2  0  0  0
  5  6  2  0  0  0
 22 21  2  0  0  0
 28 29  1  0  0  0
  6  7  1  0  0  0
 23 22  1  0  0  0
 29 30  2  0  0  0
 15 16  1  0  0  0
M  END
> <minimizedAffinity>
-6.72079

$$$$
3EB1_LZQ_A_322


 30 32  0  0  0  0  0  0  0  0999 V2000
   49.0518   15.2683   -0.2463 N   0  0  0  0  0  0  0  0  0  0  0  0
   52.9194   17.5088   -0.3615 C   0  0  0  0  0  0  0  0  0  0  0  0
   52.8271   16.1746   -0.9146 C   0  0  0  0  0  0  0  0  0  0  0  0
   51.5730   15.4321   -0.8826 C   0  0  0  0  0  0  0  0  0  0  0  0
   50.3776   16.0309   -0.2885 C   0  0  0  0  0  0  0  0  0  0  0  0
   50.4776   17.4031    0.2803 C   0  0  0  0  0  0  0  0  0  0  0  0
   51.7666   18.1566    0.2460 C   0  0  0  0  0  0  0  0  0  0  0  0
   51.8734   19.4654    0.7934 C   0  0  0  0  0  0  0  0  0  0  0  0
   53.0162   20.0997    0.5306 O   0  0  0  0  0  0  0  0  0  0  0  0
   51.0078   20.3636    1.6305 C   0  0  0  0  0  0  0  0  0  0  0  0
   50.9812   19.8901    3.1254 C   0  0  0  0  0  0  0  0  0  0  0  0
   51.8956   19.2327    3.6226 O   0  0  0  0  0  0  0  0  0  0  0  0
   49.9154   20.2252    3.8611 C   0  0  0  0  0  0  0  0  0  0  0  0
   49.5463   19.3698    4.9962 O   0  0  0  0  0  0  0  0  0  0  0  0
   49.2695   21.2407    3.5765 O   0  0  0  0  0  0  0  0  0  0  0  0
   49.5258   21.7698    2.8469 H   0  0  0  0  0  0  0  0  0  0  0  0
   47.7471   15.9451    0.2469 C   0  0  0  0  0  0  0  0  0  0  0  0
   47.3223   15.5650    1.7368 C   0  0  0  0  0  0  0  0  0  0  0  0
   48.2974   15.6730    2.8446 C   0  0  0  0  0  0  0  0  0  0  0  0
   47.9044   15.3212    4.2252 C   0  0  0  0  0  0  0  0  0  0  0  0
   46.5432   14.8580    4.5217 C   0  0  0  0  0  0  0  0  0  0  0  0
   45.5641   14.7418    3.4400 C   0  0  0  0  0  0  0  0  0  0  0  0
   45.9478   15.0931    2.0491 C   0  0  0  0  0  0  0  0  0  0  0  0
   49.0391   13.7985   -0.6466 C   0  0  0  0  0  0  0  0  0  0  0  0
   48.0692   12.7964    0.1326 C   0  0  0  0  0  0  0  0  0  0  0  0
   48.4884   12.2557    1.4517 C   0  0  0  0  0  0  0  0  0  0  0  0
   47.6159   11.3233    2.1949 C   0  0  0  0  0  0  0  0  0  0  0  0
   46.3240   10.9215    1.6337 C   0  0  0  0  0  0  0  0  0  0  0  0
   45.9045   11.4512    0.3323 C   0  0  0  0  0  0  0  0  0  0  0  0
   46.7678   12.3839   -0.4213 C   0  0  0  0  0  0  0  0  0  0  0  0
  7  2  2  0  0  0
  3  2  1  0  0  0
  7  8  1  0  0  0
  8 10  1  0  0  0
  8  9  2  0  0  0
 10 11  1  0  0  0
 11 13  1  0  0  0
 11 12  2  0  0  0
 14 13  2  0  0  0
 13 15  1  0  0  0
 23 18  2  0  0  0
 17 18  1  0  0  0
 18 19  1  0  0  0
 26 25  2  0  0  0
 25 24  1  0  0  0
 25 30  1  0  0  0
 24  1  1  0  0  0
 17  1  1  0  0  0
  1  5  1  0  0  0
  4  3  2  0  0  0
 19 20  2  0  0  0
 27 26  1  0  0  0
  5  4  1  0  0  0
 21 20  1  0  0  0
 27 28  2  0  0  0
  5  6  2  0  0  0
 22 21  2  0  0  0
 28 29  1  0  0  0
  6  7  1  0  0  0
 23 22  1  0  0  0
 29 30  2  0  0  0
 15 16  1  0  0  0
M  END
> <minimizedAffinity>
-6.71499

$$$$
3EB1_LZQ_A_322


 30 32  0  0  0  0  0  0  0  0999 V2000
   48.0422   16.6475    3.1714 N   0  0  0  0  0  0  0  0  0  0  0  0
   51.1337   19.8702    3.3919 C   0  0  0  0  0  0  0  0  0  0  0  0
   49.9502   19.9301    4.2227 C   0  0  0  0  0  0  0  0  0  0  0  0
   48.9336   18.8872    4.1601 C   0  0  0  0  0  0  0  0  0  0  0  0
   49.0973   17.7528    3.2508 C   0  0  0  0  0  0  0  0  0  0  0  0
   50.3158   17.6959    2.3972 C   0  0  0  0  0  0  0  0  0  0  0  0
   51.3518   18.7695    2.4653 C   0  0  0  0  0  0  0  0  0  0  0  0
   52.5158   18.7273    1.6483 C   0  0  0  0  0  0  0  0  0  0  0  0
   53.6740   18.7342    2.3087 O   0  0  0  0  0  0  0  0  0  0  0  0
   52.8041   18.6804    0.1748 C   0  0  0  0  0  0  0  0  0  0  0  0
   52.2890   19.9758   -0.5435 C   0  0  0  0  0  0  0  0  0  0  0  0
   53.0238   20.9370   -0.7712 O   0  0  0  0  0  0  0  0  0  0  0  0
   51.0025   20.0103   -0.9086 C   0  0  0  0  0  0  0  0  0  0  0  0
   50.5551   19.1295   -1.9950 O   0  0  0  0  0  0  0  0  0  0  0  0
   50.2213   20.7731   -0.3278 O   0  0  0  0  0  0  0  0  0  0  0  0
   50.5320   21.3252    0.3626 H   0  0  0  0  0  0  0  0  0  0  0  0
   46.5338   16.9801    3.0391 C   0  0  0  0  0  0  0  0  0  0  0  0
   46.1488   17.8188    1.7378 C   0  0  0  0  0  0  0  0  0  0  0  0
   45.8421   19.2628    1.8408 C   0  0  0  0  0  0  0  0  0  0  0  0
   45.4856   20.0404    0.6357 C   0  0  0  0  0  0  0  0  0  0  0  0
   45.4279   19.3958   -0.6821 C   0  0  0  0  0  0  0  0  0  0  0  0
   45.7255   17.9680   -0.8054 C   0  0  0  0  0  0  0  0  0  0  0  0
   46.0853   17.1769    0.3987 C   0  0  0  0  0  0  0  0  0  0  0  0
   48.4918   15.1962    3.2823 C   0  0  0  0  0  0  0  0  0  0  0  0
   47.7295   14.0859    2.4232 C   0  0  0  0  0  0  0  0  0  0  0  0
   46.7513   13.1909    3.0940 C   0  0  0  0  0  0  0  0  0  0  0  0
   46.0336   12.1512    2.3279 C   0  0  0  0  0  0  0  0  0  0  0  0
   46.2828   11.9930    0.8933 C   0  0  0  0  0  0  0  0  0  0  0  0
   47.2471   12.8728    0.2252 C   0  0  0  0  0  0  0  0  0  0  0  0
   47.9718   13.9161    0.9798 C   0  0  0  0  0  0  0  0  0  0  0  0
  7  2  2  0  0  0
  3  2  1  0  0  0
  7  8  1  0  0  0
  8 10  1  0  0  0
  8  9  2  0  0  0
 10 11  1  0  0  0
 11 13  1  0  0  0
 11 12  2  0  0  0
 14 13  2  0  0  0
 13 15  1  0  0  0
 23 18  2  0  0  0
 17 18  1  0  0  0
 18 19  1  0  0  0
 26 25  2  0  0  0
 25 24  1  0  0  0
 25 30  1  0  0  0
 24  1  1  0  0  0
 17  1  1  0  0  0
  1  5  1  0  0  0
  4  3  2  0  0  0
 19 20  2  0  0  0
 27 26  1  0  0  0
  5  4  1  0  0  0
 21 20  1  0  0  0
 27 28  2  0  0  0
  5  6  2  0  0  0
 22 21  2  0  0  0
 28 29  1  0  0  0
  6  7  1  0  0  0
 23 22  1  0  0  0
 29 30  2  0  0  0
 15 16  1  0  0  0
M  END
> <minimizedAffinity>
-6.70708

$$$$
