3BQC_EMO_A_400
  RCSB PDB12061708033D
Coordinates from PDB:3BQC:A:400 Model:1 without hydrogens
 20 22  0  0  0  0            999 V2000
   17.2750  -55.2520  -46.7350   C 0  0  0  0  0  0  0  0  0  0  0  0
   17.5810  -54.8170  -47.9680   O 0  0  0  0  0  0  0  0  0  0  0  0
   17.1170  -56.6000  -46.4770   C 0  0  0  0  0  0  0  0  0  0  0  0
   16.8190  -57.0170  -45.1860   C 0  0  0  0  0  0  0  0  0  0  0  0
   16.6520  -58.3280  -44.9400   O 0  0  0  0  0  0  0  0  0  0  0  0
   16.7100  -56.0910  -44.1530   C 0  0  0  0  0  0  0  0  0  0  0  0
   16.8650  -54.7230  -44.4290   C 0  0  0  0  0  0  0  0  0  0  0  0
   16.7320  -53.7680  -43.4080   C 0  0  0  0  0  0  0  0  0  0  0  0
   16.4610  -54.1460  -42.2520   O 0  0  0  0  0  0  0  0  0  0  0  0
   16.8940  -52.3970  -43.7010   C 0  0  0  0  0  0  0  0  0  0  0  0
   16.7690  -51.4310  -42.6790   C 0  0  0  0  0  0  0  0  0  0  0  0
   16.9290  -50.0660  -42.9330   C 0  0  0  0  0  0  0  0  0  0  0  0
   16.7870  -49.0010  -41.8050   C 0  0  0  0  0  0  0  0  0  0  0  0
   17.2270  -49.6490  -44.2210   C 0  0  0  0  0  0  0  0  0  0  0  0
   17.3440  -50.5950  -45.2510   C 0  0  0  0  0  0  0  0  0  0  0  0
   17.6240  -50.1390  -46.4930   O 0  0  0  0  0  0  0  0  0  0  0  0
   17.1940  -51.9750  -45.0100   C 0  0  0  0  0  0  0  0  0  0  0  0
   17.3120  -52.9400  -46.0350   C 0  0  0  0  0  0  0  0  0  0  0  0
   17.5610  -52.6180  -47.2040   O 0  0  0  0  0  0  0  0  0  0  0  0
   17.1490  -54.3020  -45.7280   C 0  0  0  0  0  0  0  0  0  0  0  0
  1  2  1  0  0  0  0
  1  3  2  0  0  0  0
  1 20  1  0  0  0  0
  3  4  1  0  0  0  0
  4  5  1  0  0  0  0
  4  6  2  0  0  0  0
  6  7  1  0  0  0  0
  7  8  1  0  0  0  0
  7 20  2  0  0  0  0
  8  9  2  0  0  0  0
  8 10  1  0  0  0  0
 10 11  2  0  0  0  0
 10 17  1  0  0  0  0
 11 12  1  0  0  0  0
 12 13  1  0  0  0  0
 12 14  2  0  0  0  0
 14 15  1  0  0  0  0
 15 16  1  0  0  0  0
 15 17  2  0  0  0  0
 17 18  1  0  0  0  0
 18 19  2  0  0  0  0
 18 20  1  0  0  0  0
A    1
C1
A    2
O1
A    3
C2
A    4
C3
A    5
O3
A    6
C4
A    7
C5
A    8
C6
A    9
O6
A   10
C7
A   11
C8
A   12
C9
A   13
C10
A   14
C16
A   15
C17
A   16
O17
A   17
C18
A   18
C19
A   19
O19
A   20
C20
M  END
>  <InstanceId>
3BQC_EMO_A_400

>  <ChemCompId>
EMO

>  <PdbId>
3BQC

>  <ChainId>
A

>  <ResidueNumber>
400

>  <InsertionCode>


>  <Model>
1

>  <AltIds>


>  <MissingHeavyAtoms>
0

>  <ObservedFormula>
C15 O5

>  <Name>
3-METHYL-1,6,8-TRIHYDROXYANTHRAQUINONE

>  <SystematicName>
1,3,8-trihydroxy-6-methyl-anthracene-9,10-dione

>  <Synonyms>
EMODIN

>  <Type>
NON-POLYMER

>  <Formula>
C15 H10 O5

>  <MolecularWeight>
270.237

>  <ModifiedDate>
2011-06-04

>  <Parent>


>  <OneLetterCode>


>  <SubcomponentList>


>  <AmbiguousFlag>
N

>  <InChI>
InChI=1S/C15H10O5/c1-6-2-8-12(10(17)3-6)15(20)13-9(14(8)19)4-7(16)5-11(13)18/h2-5,16-18H,1H3

>  <InChIKey>
RHMXXJGYXNZAPX-UHFFFAOYSA-N

>  <SMILES>
Cc1cc2c(c(c1)O)C(=O)c3c(cc(cc3O)O)C2=O

$$$$
