3BQC_EMO_A_400


 23 25  0  0  0  0  0  0  0  0999 V2000
   17.3281  -55.1476  -46.8486 C   0  0  0  0  0  0  0  0  0  0  0  0
   17.6313  -54.6199  -48.0456 O   0  0  0  0  0  0  0  0  0  0  0  0
   17.1330  -56.5074  -46.7015 C   0  0  0  0  0  0  0  0  0  0  0  0
   16.8391  -57.0223  -45.4454 C   0  0  0  0  0  0  0  0  0  0  0  0
   16.6360  -58.3440  -45.3070 O   0  0  0  0  0  0  0  0  0  0  0  0
   16.7711  -56.1834  -44.3373 C   0  0  0  0  0  0  0  0  0  0  0  0
   16.9636  -54.8021  -44.5006 C   0  0  0  0  0  0  0  0  0  0  0  0
   16.8723  -53.9325  -43.4016 C   0  0  0  0  0  0  0  0  0  0  0  0
   16.6048  -54.3981  -42.2772 O   0  0  0  0  0  0  0  0  0  0  0  0
   17.0716  -52.5471  -43.5817 C   0  0  0  0  0  0  0  0  0  0  0  0
   16.9887  -51.6669  -42.4810 C   0  0  0  0  0  0  0  0  0  0  0  0
   17.1863  -50.2906  -42.6227 C   0  0  0  0  0  0  0  0  0  0  0  0
   17.0907  -49.3202  -41.4078 C   0  0  0  0  0  0  0  0  0  0  0  0
   17.4803  -49.7759  -43.8758 C   0  0  0  0  0  0  0  0  0  0  0  0
   17.5557  -50.6353  -44.9828 C   0  0  0  0  0  0  0  0  0  0  0  0
   17.8334  -50.0851  -46.1865 O   0  0  0  0  0  0  0  0  0  0  0  0
   17.3674  -52.0257  -44.8554 C   0  0  0  0  0  0  0  0  0  0  0  0
   17.4434  -52.9044  -45.9590 C   0  0  0  0  0  0  0  0  0  0  0  0
   17.6870  -52.4930  -47.1007 O   0  0  0  0  0  0  0  0  0  0  0  0
   17.2435  -54.2821  -45.7641 C   0  0  0  0  0  0  0  0  0  0  0  0
   17.6967  -55.1735  -48.7987 H   0  0  0  0  0  0  0  0  0  0  0  0
   16.6825  -58.9060  -46.0553 H   0  0  0  0  0  0  0  0  0  0  0  0
   17.9570  -49.1593  -46.2612 H   0  0  0  0  0  0  0  0  0  0  0  0
  1  2  1  0  0  0
  1  3  2  0  0  0
  1 20  1  0  0  0
  3  4  1  0  0  0
  4  5  1  0  0  0
  4  6  2  0  0  0
  6  7  1  0  0  0
  7  8  1  0  0  0
  7 20  2  0  0  0
  8  9  2  0  0  0
  8 10  1  0  0  0
 10 11  2  0  0  0
 10 17  1  0  0  0
 11 12  1  0  0  0
 12 13  1  0  0  0
 12 14  2  0  0  0
 14 15  1  0  0  0
 15 16  1  0  0  0
 15 17  2  0  0  0
 17 18  1  0  0  0
 18 19  2  0  0  0
 18 20  1  0  0  0
  2 21  1  0  0  0
  5 22  1  0  0  0
 16 23  1  0  0  0
M  END
> <minimizedAffinity>
-10.73427

$$$$
3BQC_EMO_A_400


 23 25  0  0  0  0  0  0  0  0999 V2000
   16.2123  -54.6639  -40.5011 C   0  0  0  0  0  0  0  0  0  0  0  0
   16.0539  -55.9488  -40.1447 O   0  0  0  0  0  0  0  0  0  0  0  0
   16.1165  -53.6512  -39.5663 C   0  0  0  0  0  0  0  0  0  0  0  0
   16.3044  -52.3342  -39.9657 C   0  0  0  0  0  0  0  0  0  0  0  0
   16.1971  -51.3492  -39.0571 O   0  0  0  0  0  0  0  0  0  0  0  0
   16.6167  -52.0359  -41.2886 C   0  0  0  0  0  0  0  0  0  0  0  0
   16.7036  -53.0730  -42.2312 C   0  0  0  0  0  0  0  0  0  0  0  0
   16.9901  -52.7936  -43.5773 C   0  0  0  0  0  0  0  0  0  0  0  0
   17.1543  -51.6105  -43.9322 O   0  0  0  0  0  0  0  0  0  0  0  0
   17.0774  -53.8475  -44.5119 C   0  0  0  0  0  0  0  0  0  0  0  0
   17.3720  -53.5759  -45.8657 C   0  0  0  0  0  0  0  0  0  0  0  0
   17.4717  -54.5958  -46.8161 C   0  0  0  0  0  0  0  0  0  0  0  0
   17.7931  -54.2942  -48.3102 C   0  0  0  0  0  0  0  0  0  0  0  0
   17.2849  -55.9105  -46.4181 C   0  0  0  0  0  0  0  0  0  0  0  0
   16.9806  -56.1973  -45.0785 C   0  0  0  0  0  0  0  0  0  0  0  0
   16.7954  -57.4937  -44.7408 O   0  0  0  0  0  0  0  0  0  0  0  0
   16.8849  -55.1818  -44.1067 C   0  0  0  0  0  0  0  0  0  0  0  0
   16.5826  -55.4542  -42.7538 C   0  0  0  0  0  0  0  0  0  0  0  0
   16.3913  -56.6091  -42.3514 O   0  0  0  0  0  0  0  0  0  0  0  0
   16.4999  -54.3944  -41.8342 C   0  0  0  0  0  0  0  0  0  0  0  0
   15.8593  -56.1675  -39.2546 H   0  0  0  0  0  0  0  0  0  0  0  0
   15.9867  -51.5536  -38.1672 H   0  0  0  0  0  0  0  0  0  0  0  0
   16.8611  -58.1621  -45.3942 H   0  0  0  0  0  0  0  0  0  0  0  0
  1  2  1  0  0  0
  1  3  2  0  0  0
  1 20  1  0  0  0
  3  4  1  0  0  0
  4  5  1  0  0  0
  4  6  2  0  0  0
  6  7  1  0  0  0
  7  8  1  0  0  0
  7 20  2  0  0  0
  8  9  2  0  0  0
  8 10  1  0  0  0
 10 11  2  0  0  0
 10 17  1  0  0  0
 11 12  1  0  0  0
 12 13  1  0  0  0
 12 14  2  0  0  0
 14 15  1  0  0  0
 15 16  1  0  0  0
 15 17  2  0  0  0
 17 18  1  0  0  0
 18 19  2  0  0  0
 18 20  1  0  0  0
  2 21  1  0  0  0
  5 22  1  0  0  0
 16 23  1  0  0  0
M  END
> <minimizedAffinity>
-10.56032

$$$$
3BQC_EMO_A_400


 23 25  0  0  0  0  0  0  0  0999 V2000
   17.0195  -56.1177  -45.7984 C   0  0  0  0  0  0  0  0  0  0  0  0
   16.7774  -57.3826  -45.4181 O   0  0  0  0  0  0  0  0  0  0  0  0
   17.2993  -55.8143  -47.1169 C   0  0  0  0  0  0  0  0  0  0  0  0
   17.5264  -54.4928  -47.4793 C   0  0  0  0  0  0  0  0  0  0  0  0
   17.8122  -54.2015  -48.7601 O   0  0  0  0  0  0  0  0  0  0  0  0
   17.4436  -53.4771  -46.5316 C   0  0  0  0  0  0  0  0  0  0  0  0
   17.1662  -53.7987  -45.1932 C   0  0  0  0  0  0  0  0  0  0  0  0
   17.1050  -52.7936  -44.2143 C   0  0  0  0  0  0  0  0  0  0  0  0
   17.3130  -51.6098  -44.5429 O   0  0  0  0  0  0  0  0  0  0  0  0
   16.8218  -53.1328  -42.8739 C   0  0  0  0  0  0  0  0  0  0  0  0
   16.7515  -52.1277  -41.8849 C   0  0  0  0  0  0  0  0  0  0  0  0
   16.4675  -52.4277  -40.5497 C   0  0  0  0  0  0  0  0  0  0  0  0
   16.3940  -51.3180  -39.4589 C   0  0  0  0  0  0  0  0  0  0  0  0
   16.2401  -53.7462  -40.1873 C   0  0  0  0  0  0  0  0  0  0  0  0
   16.3169  -54.7591  -41.1557 C   0  0  0  0  0  0  0  0  0  0  0  0
   16.0991  -56.0312  -40.7518 O   0  0  0  0  0  0  0  0  0  0  0  0
   16.5938  -54.4725  -42.5070 C   0  0  0  0  0  0  0  0  0  0  0  0
   16.6712  -55.4800  -43.4943 C   0  0  0  0  0  0  0  0  0  0  0  0
   16.4922  -56.6735  -43.2191 O   0  0  0  0  0  0  0  0  0  0  0  0
   16.9532  -55.1271  -44.8254 C   0  0  0  0  0  0  0  0  0  0  0  0
   16.8134  -58.0760  -46.0473 H   0  0  0  0  0  0  0  0  0  0  0  0
   17.8672  -54.8879  -49.3957 H   0  0  0  0  0  0  0  0  0  0  0  0
   15.9157  -56.2118  -39.8508 H   0  0  0  0  0  0  0  0  0  0  0  0
  1  2  1  0  0  0
  1  3  2  0  0  0
  1 20  1  0  0  0
  3  4  1  0  0  0
  4  5  1  0  0  0
  4  6  2  0  0  0
  6  7  1  0  0  0
  7  8  1  0  0  0
  7 20  2  0  0  0
  8  9  2  0  0  0
  8 10  1  0  0  0
 10 11  2  0  0  0
 10 17  1  0  0  0
 11 12  1  0  0  0
 12 13  1  0  0  0
 12 14  2  0  0  0
 14 15  1  0  0  0
 15 16  1  0  0  0
 15 17  2  0  0  0
 17 18  1  0  0  0
 18 19  2  0  0  0
 18 20  1  0  0  0
  2 21  1  0  0  0
  5 22  1  0  0  0
 16 23  1  0  0  0
M  END
> <minimizedAffinity>
-10.24828

$$$$
3BQC_EMO_A_400


 23 25  0  0  0  0  0  0  0  0999 V2000
   17.3956  -50.1084  -44.1577 C   0  0  0  0  0  0  0  0  0  0  0  0
   17.6483  -49.4220  -45.2838 O   0  0  0  0  0  0  0  0  0  0  0  0
   17.2623  -49.4589  -42.9456 C   0  0  0  0  0  0  0  0  0  0  0  0
   16.9824  -50.1976  -41.8031 C   0  0  0  0  0  0  0  0  0  0  0  0
   16.8668  -49.5652  -40.6225 O   0  0  0  0  0  0  0  0  0  0  0  0
   16.8068  -51.5759  -41.8796 C   0  0  0  0  0  0  0  0  0  0  0  0
   16.9524  -52.2258  -43.1158 C   0  0  0  0  0  0  0  0  0  0  0  0
   16.8072  -53.6193  -43.2125 C   0  0  0  0  0  0  0  0  0  0  0  0
   16.5598  -54.2787  -42.1845 O   0  0  0  0  0  0  0  0  0  0  0  0
   16.9534  -54.2572  -44.4628 C   0  0  0  0  0  0  0  0  0  0  0  0
   16.8019  -55.6568  -44.5700 C   0  0  0  0  0  0  0  0  0  0  0  0
   16.9341  -56.3198  -45.7933 C   0  0  0  0  0  0  0  0  0  0  0  0
   16.7705  -57.8646  -45.9093 C   0  0  0  0  0  0  0  0  0  0  0  0
   17.2129  -55.5833  -46.9341 C   0  0  0  0  0  0  0  0  0  0  0  0
   17.3774  -54.1925  -46.8436 C   0  0  0  0  0  0  0  0  0  0  0  0
   17.6600  -53.5187  -47.9817 O   0  0  0  0  0  0  0  0  0  0  0  0
   17.2391  -53.5081  -45.6199 C   0  0  0  0  0  0  0  0  0  0  0  0
   17.3982  -52.1085  -45.5128 C   0  0  0  0  0  0  0  0  0  0  0  0
   17.6634  -51.4081  -46.4984 O   0  0  0  0  0  0  0  0  0  0  0  0
   17.2488  -51.4869  -44.2609 C   0  0  0  0  0  0  0  0  0  0  0  0
   17.7532  -48.4915  -45.2518 H   0  0  0  0  0  0  0  0  0  0  0  0
   16.9857  -48.6370  -40.5746 H   0  0  0  0  0  0  0  0  0  0  0  0
   17.7501  -53.9827  -48.7907 H   0  0  0  0  0  0  0  0  0  0  0  0
  1  2  1  0  0  0
  1  3  2  0  0  0
  1 20  1  0  0  0
  3  4  1  0  0  0
  4  5  1  0  0  0
  4  6  2  0  0  0
  6  7  1  0  0  0
  7  8  1  0  0  0
  7 20  2  0  0  0
  8  9  2  0  0  0
  8 10  1  0  0  0
 10 11  2  0  0  0
 10 17  1  0  0  0
 11 12  1  0  0  0
 12 13  1  0  0  0
 12 14  2  0  0  0
 14 15  1  0  0  0
 15 16  1  0  0  0
 15 17  2  0  0  0
 17 18  1  0  0  0
 18 19  2  0  0  0
 18 20  1  0  0  0
  2 21  1  0  0  0
  5 22  1  0  0  0
 16 23  1  0  0  0
M  END
> <minimizedAffinity>
-10.11034

$$$$
3BQC_EMO_A_400


 23 25  0  0  0  0  0  0  0  0999 V2000
   16.7757  -51.4984  -40.8031 C   0  0  0  0  0  0  0  0  0  0  0  0
   16.5843  -52.2001  -39.6743 O   0  0  0  0  0  0  0  0  0  0  0  0
   16.9193  -50.1248  -40.7691 C   0  0  0  0  0  0  0  0  0  0  0  0
   17.1347  -49.4320  -41.9535 C   0  0  0  0  0  0  0  0  0  0  0  0
   17.2603  -48.0940  -41.9197 O   0  0  0  0  0  0  0  0  0  0  0  0
   17.2360  -50.1148  -43.1618 C   0  0  0  0  0  0  0  0  0  0  0  0
   17.0806  -51.5101  -43.1848 C   0  0  0  0  0  0  0  0  0  0  0  0
   17.1512  -52.2176  -44.3959 C   0  0  0  0  0  0  0  0  0  0  0  0
   17.3409  -51.5918  -45.4566 O   0  0  0  0  0  0  0  0  0  0  0  0
   16.9962  -53.6203  -44.4018 C   0  0  0  0  0  0  0  0  0  0  0  0
   17.0729  -54.3399  -45.6141 C   0  0  0  0  0  0  0  0  0  0  0  0
   16.9299  -55.7296  -45.6553 C   0  0  0  0  0  0  0  0  0  0  0  0
   17.0110  -56.5218  -46.9942 C   0  0  0  0  0  0  0  0  0  0  0  0
   16.7155  -56.4219  -44.4736 C   0  0  0  0  0  0  0  0  0  0  0  0
   16.6256  -55.7211  -43.2610 C   0  0  0  0  0  0  0  0  0  0  0  0
   16.4039  -56.4388  -42.1364 O   0  0  0  0  0  0  0  0  0  0  0  0
   16.7759  -54.3215  -43.2013 C   0  0  0  0  0  0  0  0  0  0  0  0
   16.6915  -53.6019  -41.9885 C   0  0  0  0  0  0  0  0  0  0  0  0
   16.4855  -54.1713  -40.9089 O   0  0  0  0  0  0  0  0  0  0  0  0
   16.8489  -52.2051  -41.9980 C   0  0  0  0  0  0  0  0  0  0  0  0
   16.5299  -51.7568  -38.8506 H   0  0  0  0  0  0  0  0  0  0  0  0
   17.1915  -47.6374  -41.1044 H   0  0  0  0  0  0  0  0  0  0  0  0
   16.3052  -57.3693  -42.1863 H   0  0  0  0  0  0  0  0  0  0  0  0
  1  2  1  0  0  0
  1  3  2  0  0  0
  1 20  1  0  0  0
  3  4  1  0  0  0
  4  5  1  0  0  0
  4  6  2  0  0  0
  6  7  1  0  0  0
  7  8  1  0  0  0
  7 20  2  0  0  0
  8  9  2  0  0  0
  8 10  1  0  0  0
 10 11  2  0  0  0
 10 17  1  0  0  0
 11 12  1  0  0  0
 12 13  1  0  0  0
 12 14  2  0  0  0
 14 15  1  0  0  0
 15 16  1  0  0  0
 15 17  2  0  0  0
 17 18  1  0  0  0
 18 19  2  0  0  0
 18 20  1  0  0  0
  2 21  1  0  0  0
  5 22  1  0  0  0
 16 23  1  0  0  0
M  END
> <minimizedAffinity>
-10.10833

$$$$
3BQC_EMO_A_400


 23 25  0  0  0  0  0  0  0  0999 V2000
   17.5364  -50.5162  -44.3428 C   0  0  0  0  0  0  0  0  0  0  0  0
   17.4049  -50.3283  -43.0197 O   0  0  0  0  0  0  0  0  0  0  0  0
   17.8114  -49.4569  -45.1860 C   0  0  0  0  0  0  0  0  0  0  0  0
   17.9597  -49.6895  -46.5474 C   0  0  0  0  0  0  0  0  0  0  0  0
   18.2135  -48.6553  -47.3679 O   0  0  0  0  0  0  0  0  0  0  0  0
   17.8633  -50.9808  -47.0571 C   0  0  0  0  0  0  0  0  0  0  0  0
   17.5758  -52.0482  -46.1913 C   0  0  0  0  0  0  0  0  0  0  0  0
   17.4464  -53.3558  -46.6868 C   0  0  0  0  0  0  0  0  0  0  0  0
   17.5766  -53.5596  -47.9092 O   0  0  0  0  0  0  0  0  0  0  0  0
   17.1605  -54.4184  -45.8031 C   0  0  0  0  0  0  0  0  0  0  0  0
   17.0358  -55.7370  -46.2920 C   0  0  0  0  0  0  0  0  0  0  0  0
   16.7591  -56.8131  -45.4443 C   0  0  0  0  0  0  0  0  0  0  0  0
   16.6181  -58.2670  -45.9858 C   0  0  0  0  0  0  0  0  0  0  0  0
   16.6115  -56.5820  -44.0855 C   0  0  0  0  0  0  0  0  0  0  0  0
   16.7215  -55.2759  -43.5841 C   0  0  0  0  0  0  0  0  0  0  0  0
   16.5579  -55.0987  -42.2533 O   0  0  0  0  0  0  0  0  0  0  0  0
   17.0083  -54.1816  -44.4239 C   0  0  0  0  0  0  0  0  0  0  0  0
   17.1254  -52.8616  -43.9344 C   0  0  0  0  0  0  0  0  0  0  0  0
   16.9865  -52.6004  -42.7324 O   0  0  0  0  0  0  0  0  0  0  0  0
   17.4114  -51.8135  -44.8263 C   0  0  0  0  0  0  0  0  0  0  0  0
   17.4831  -49.4672  -42.6587 H   0  0  0  0  0  0  0  0  0  0  0  0
   18.2778  -47.7871  -47.0213 H   0  0  0  0  0  0  0  0  0  0  0  0
   16.3674  -55.8327  -41.7029 H   0  0  0  0  0  0  0  0  0  0  0  0
  1  2  1  0  0  0
  1  3  2  0  0  0
  1 20  1  0  0  0
  3  4  1  0  0  0
  4  5  1  0  0  0
  4  6  2  0  0  0
  6  7  1  0  0  0
  7  8  1  0  0  0
  7 20  2  0  0  0
  8  9  2  0  0  0
  8 10  1  0  0  0
 10 11  2  0  0  0
 10 17  1  0  0  0
 11 12  1  0  0  0
 12 13  1  0  0  0
 12 14  2  0  0  0
 14 15  1  0  0  0
 15 16  1  0  0  0
 15 17  2  0  0  0
 17 18  1  0  0  0
 18 19  2  0  0  0
 18 20  1  0  0  0
  2 21  1  0  0  0
  5 22  1  0  0  0
 16 23  1  0  0  0
M  END
> <minimizedAffinity>
-9.78496

$$$$
3BQC_EMO_A_400


 23 25  0  0  0  0  0  0  0  0999 V2000
   16.5946  -55.5283  -43.2392 C   0  0  0  0  0  0  0  0  0  0  0  0
   16.3415  -55.2400  -41.9524 O   0  0  0  0  0  0  0  0  0  0  0  0
   16.5272  -56.8284  -43.7016 C   0  0  0  0  0  0  0  0  0  0  0  0
   16.7766  -57.0891  -45.0430 C   0  0  0  0  0  0  0  0  0  0  0  0
   16.7241  -58.3565  -45.4879 O   0  0  0  0  0  0  0  0  0  0  0  0
   17.0620  -56.0492  -45.9225 C   0  0  0  0  0  0  0  0  0  0  0  0
   17.1354  -54.7328  -45.4393 C   0  0  0  0  0  0  0  0  0  0  0  0
   17.4491  -53.6706  -46.3027 C   0  0  0  0  0  0  0  0  0  0  0  0
   17.6757  -53.9092  -47.5045 O   0  0  0  0  0  0  0  0  0  0  0  0
   17.5157  -52.3528  -45.8021 C   0  0  0  0  0  0  0  0  0  0  0  0
   17.8234  -51.2783  -46.6648 C   0  0  0  0  0  0  0  0  0  0  0  0
   17.8918  -49.9607  -46.2037 C   0  0  0  0  0  0  0  0  0  0  0  0
   18.2352  -48.7767  -47.1561 C   0  0  0  0  0  0  0  0  0  0  0  0
   17.6424  -49.6996  -44.8653 C   0  0  0  0  0  0  0  0  0  0  0  0
   17.3458  -50.7572  -43.9918 C   0  0  0  0  0  0  0  0  0  0  0  0
   17.1217  -50.4542  -42.6930 O   0  0  0  0  0  0  0  0  0  0  0  0
   17.2648  -52.0897  -44.4422 C   0  0  0  0  0  0  0  0  0  0  0  0
   16.9641  -53.1648  -43.5765 C   0  0  0  0  0  0  0  0  0  0  0  0
   16.7493  -52.9864  -42.3705 O   0  0  0  0  0  0  0  0  0  0  0  0
   16.9002  -54.4719  -44.0895 C   0  0  0  0  0  0  0  0  0  0  0  0
   16.1319  -55.9271  -41.3507 H   0  0  0  0  0  0  0  0  0  0  0  0
   16.5317  -59.0543  -44.8929 H   0  0  0  0  0  0  0  0  0  0  0  0
   17.1779  -49.5650  -42.4029 H   0  0  0  0  0  0  0  0  0  0  0  0
  1  2  1  0  0  0
  1  3  2  0  0  0
  1 20  1  0  0  0
  3  4  1  0  0  0
  4  5  1  0  0  0
  4  6  2  0  0  0
  6  7  1  0  0  0
  7  8  1  0  0  0
  7 20  2  0  0  0
  8  9  2  0  0  0
  8 10  1  0  0  0
 10 11  2  0  0  0
 10 17  1  0  0  0
 11 12  1  0  0  0
 12 13  1  0  0  0
 12 14  2  0  0  0
 14 15  1  0  0  0
 15 16  1  0  0  0
 15 17  2  0  0  0
 17 18  1  0  0  0
 18 19  2  0  0  0
 18 20  1  0  0  0
  2 21  1  0  0  0
  5 22  1  0  0  0
 16 23  1  0  0  0
M  END
> <minimizedAffinity>
-9.65856

$$$$
3BQC_EMO_A_400


 23 25  0  0  0  0  0  0  0  0999 V2000
   17.2775  -55.3576  -45.6753 C   0  0  0  0  0  0  0  0  0  0  0  0
   17.1120  -56.5319  -45.0453 O   0  0  0  0  0  0  0  0  0  0  0  0
   17.5321  -55.3102  -47.0324 C   0  0  0  0  0  0  0  0  0  0  0  0
   17.6794  -54.0778  -47.6560 C   0  0  0  0  0  0  0  0  0  0  0  0
   17.9409  -54.0343  -48.9739 O   0  0  0  0  0  0  0  0  0  0  0  0
   17.5421  -52.8987  -46.9298 C   0  0  0  0  0  0  0  0  0  0  0  0
   17.2911  -52.9598  -45.5496 C   0  0  0  0  0  0  0  0  0  0  0  0
   17.1762  -51.7836  -44.7910 C   0  0  0  0  0  0  0  0  0  0  0  0
   17.3127  -50.6802  -45.3536 O   0  0  0  0  0  0  0  0  0  0  0  0
   16.9204  -51.8618  -43.4053 C   0  0  0  0  0  0  0  0  0  0  0  0
   16.7964  -50.6841  -42.6367 C   0  0  0  0  0  0  0  0  0  0  0  0
   16.5375  -50.7251  -41.2638 C   0  0  0  0  0  0  0  0  0  0  0  0
   16.4047  -49.4247  -40.4164 C   0  0  0  0  0  0  0  0  0  0  0  0
   16.3897  -51.9545  -40.6408 C   0  0  0  0  0  0  0  0  0  0  0  0
   16.5208  -53.1354  -41.3877 C   0  0  0  0  0  0  0  0  0  0  0  0
   16.3801  -54.3106  -40.7335 O   0  0  0  0  0  0  0  0  0  0  0  0
   16.7732  -53.1112  -42.7736 C   0  0  0  0  0  0  0  0  0  0  0  0
   16.9045  -54.2905  -43.5402 C   0  0  0  0  0  0  0  0  0  0  0  0
   16.7972  -55.4125  -43.0284 O   0  0  0  0  0  0  0  0  0  0  0  0
   17.1583  -54.1970  -44.9196 C   0  0  0  0  0  0  0  0  0  0  0  0
   17.1853  -57.3344  -45.5233 H   0  0  0  0  0  0  0  0  0  0  0  0
   18.0327  -54.8301  -49.4598 H   0  0  0  0  0  0  0  0  0  0  0  0
   16.2123  -54.3165  -39.8117 H   0  0  0  0  0  0  0  0  0  0  0  0
  1  2  1  0  0  0
  1  3  2  0  0  0
  1 20  1  0  0  0
  3  4  1  0  0  0
  4  5  1  0  0  0
  4  6  2  0  0  0
  6  7  1  0  0  0
  7  8  1  0  0  0
  7 20  2  0  0  0
  8  9  2  0  0  0
  8 10  1  0  0  0
 10 11  2  0  0  0
 10 17  1  0  0  0
 11 12  1  0  0  0
 12 13  1  0  0  0
 12 14  2  0  0  0
 14 15  1  0  0  0
 15 16  1  0  0  0
 15 17  2  0  0  0
 17 18  1  0  0  0
 18 19  2  0  0  0
 18 20  1  0  0  0
  2 21  1  0  0  0
  5 22  1  0  0  0
 16 23  1  0  0  0
M  END
> <minimizedAffinity>
-9.18599

$$$$
3BQC_EMO_A_400


 23 25  0  0  0  0  0  0  0  0999 V2000
   17.5523  -51.6230  -46.3096 C   0  0  0  0  0  0  0  0  0  0  0  0
   17.7880  -50.3822  -46.7657 O   0  0  0  0  0  0  0  0  0  0  0  0
   17.5753  -52.7091  -47.1632 C   0  0  0  0  0  0  0  0  0  0  0  0
   17.3457  -53.9812  -46.6548 C   0  0  0  0  0  0  0  0  0  0  0  0
   17.3548  -55.0349  -47.4894 O   0  0  0  0  0  0  0  0  0  0  0  0
   17.1244  -54.1675  -45.2936 C   0  0  0  0  0  0  0  0  0  0  0  0
   17.0956  -53.0552  -44.4372 C   0  0  0  0  0  0  0  0  0  0  0  0
   16.8466  -53.2159  -43.0645 C   0  0  0  0  0  0  0  0  0  0  0  0
   16.6374  -54.3583  -42.6131 O   0  0  0  0  0  0  0  0  0  0  0  0
   16.8242  -52.0881  -42.2163 C   0  0  0  0  0  0  0  0  0  0  0  0
   16.5817  -52.2417  -40.8340 C   0  0  0  0  0  0  0  0  0  0  0  0
   16.5584  -51.1474  -39.9649 C   0  0  0  0  0  0  0  0  0  0  0  0
   16.2869  -51.3180  -38.4405 C   0  0  0  0  0  0  0  0  0  0  0  0
   16.7881  -49.8776  -40.4714 C   0  0  0  0  0  0  0  0  0  0  0  0
   17.0200  -49.7057  -41.8447 C   0  0  0  0  0  0  0  0  0  0  0  0
   17.2271  -48.4469  -42.2935 O   0  0  0  0  0  0  0  0  0  0  0  0
   17.0550  -50.7990  -42.7327 C   0  0  0  0  0  0  0  0  0  0  0  0
   17.2904  -50.6432  -44.1169 C   0  0  0  0  0  0  0  0  0  0  0  0
   17.4850  -49.5295  -44.6208 O   0  0  0  0  0  0  0  0  0  0  0  0
   17.3108  -51.7758  -44.9492 C   0  0  0  0  0  0  0  0  0  0  0  0
   17.9547  -50.2419  -47.6770 H   0  0  0  0  0  0  0  0  0  0  0  0
   17.5041  -54.9058  -48.4054 H   0  0  0  0  0  0  0  0  0  0  0  0
   17.2018  -47.7262  -41.6952 H   0  0  0  0  0  0  0  0  0  0  0  0
  1  2  1  0  0  0
  1  3  2  0  0  0
  1 20  1  0  0  0
  3  4  1  0  0  0
  4  5  1  0  0  0
  4  6  2  0  0  0
  6  7  1  0  0  0
  7  8  1  0  0  0
  7 20  2  0  0  0
  8  9  2  0  0  0
  8 10  1  0  0  0
 10 11  2  0  0  0
 10 17  1  0  0  0
 11 12  1  0  0  0
 12 13  1  0  0  0
 12 14  2  0  0  0
 14 15  1  0  0  0
 15 16  1  0  0  0
 15 17  2  0  0  0
 17 18  1  0  0  0
 18 19  2  0  0  0
 18 20  1  0  0  0
  2 21  1  0  0  0
  5 22  1  0  0  0
 16 23  1  0  0  0
M  END
> <minimizedAffinity>
-8.98959

$$$$
3BQC_EMO_A_400


 23 25  0  0  0  0  0  0  0  0999 V2000
   16.3332  -51.8516  -40.5361 C   0  0  0  0  0  0  0  0  0  0  0  0
   16.3823  -50.5154  -40.6600 O   0  0  0  0  0  0  0  0  0  0  0  0
   16.0864  -52.4421  -39.3118 C   0  0  0  0  0  0  0  0  0  0  0  0
   16.0238  -53.8268  -39.2226 C   0  0  0  0  0  0  0  0  0  0  0  0
   15.7974  -54.3997  -38.0278 O   0  0  0  0  0  0  0  0  0  0  0  0
   16.1773  -54.6146  -40.3594 C   0  0  0  0  0  0  0  0  0  0  0  0
   16.4354  -54.0033  -41.5969 C   0  0  0  0  0  0  0  0  0  0  0  0
   16.6213  -54.7790  -42.7527 C   0  0  0  0  0  0  0  0  0  0  0  0
   16.5679  -56.0211  -42.6677 O   0  0  0  0  0  0  0  0  0  0  0  0
   16.8766  -54.1493  -43.9896 C   0  0  0  0  0  0  0  0  0  0  0  0
   17.0576  -54.9215  -45.1576 C   0  0  0  0  0  0  0  0  0  0  0  0
   17.3061  -54.3304  -46.3994 C   0  0  0  0  0  0  0  0  0  0  0  0
   17.5094  -55.1839  -47.6866 C   0  0  0  0  0  0  0  0  0  0  0  0
   17.3682  -52.9485  -46.4894 C   0  0  0  0  0  0  0  0  0  0  0  0
   17.2015  -52.1661  -45.3363 C   0  0  0  0  0  0  0  0  0  0  0  0
   17.2823  -50.8230  -45.4722 O   0  0  0  0  0  0  0  0  0  0  0  0
   16.9420  -52.7460  -44.0788 C   0  0  0  0  0  0  0  0  0  0  0  0
   16.7684  -51.9725  -42.9094 C   0  0  0  0  0  0  0  0  0  0  0  0
   16.8305  -50.7364  -42.9338 O   0  0  0  0  0  0  0  0  0  0  0  0
   16.5138  -52.6135  -41.6847 C   0  0  0  0  0  0  0  0  0  0  0  0
   16.2648  -49.9704  -39.9069 H   0  0  0  0  0  0  0  0  0  0  0  0
   15.6945  -53.8663  -37.2644 H   0  0  0  0  0  0  0  0  0  0  0  0
   17.4552  -50.4467  -46.3127 H   0  0  0  0  0  0  0  0  0  0  0  0
  1  2  1  0  0  0
  1  3  2  0  0  0
  1 20  1  0  0  0
  3  4  1  0  0  0
  4  5  1  0  0  0
  4  6  2  0  0  0
  6  7  1  0  0  0
  7  8  1  0  0  0
  7 20  2  0  0  0
  8  9  2  0  0  0
  8 10  1  0  0  0
 10 11  2  0  0  0
 10 17  1  0  0  0
 11 12  1  0  0  0
 12 13  1  0  0  0
 12 14  2  0  0  0
 14 15  1  0  0  0
 15 16  1  0  0  0
 15 17  2  0  0  0
 17 18  1  0  0  0
 18 19  2  0  0  0
 18 20  1  0  0  0
  2 21  1  0  0  0
  5 22  1  0  0  0
 16 23  1  0  0  0
M  END
> <minimizedAffinity>
-8.93286

$$$$
