2XDL_2DL_A_1225


 17 17  0  0  0  0  0  0  0  0999 V2000
   64.8166   33.0805   27.5396 C   0  0  0  0  0  0  0  0  0  0  0  0
   65.9505   33.3079   26.7530 C   0  0  0  0  0  0  0  0  0  0  0  0
   65.8502   34.0981   25.6310 C   0  0  0  0  0  0  0  0  0  0  0  0
   64.6407   34.6580   25.2468 C   0  0  0  0  0  0  0  0  0  0  0  0
   63.5015   34.4275   26.0261 C   0  0  0  0  0  0  0  0  0  0  0  0
   63.5882   33.6439   27.1622 C   0  0  0  0  0  0  0  0  0  0  0  0
   64.9222   32.3226   28.6674 O   0  0  0  0  0  0  0  0  0  0  0  0
   65.7489   31.9524   28.9074 H   0  0  0  0  0  0  0  0  0  0  0  0
   64.5766   35.4879   24.0094 C   0  0  0  0  0  0  0  0  0  0  0  0
   64.0782   35.0293   23.0069 O   0  0  0  0  0  0  0  0  0  0  0  0
   65.1419   36.7303   24.0551 N   0  0  0  0  0  0  0  0  0  0  0  0
   65.0821   38.8965   25.2708 C   0  0  0  0  0  0  0  0  0  0  0  0
   65.3767   37.4146   25.3430 C   0  0  0  0  0  0  0  0  0  0  0  0
   65.3496   37.5346   22.8514 C   0  0  0  0  0  0  0  0  0  0  0  0
   66.8076   37.5482   22.4280 C   0  0  0  0  0  0  0  0  0  0  0  0
   67.1219   32.7359   27.1768 O   0  0  0  0  0  0  0  0  0  0  0  0
   68.3296   33.5359   27.0735 C   0  0  0  0  0  0  0  0  0  0  0  0
  1  2  1  0  0  0
  1  6  2  0  0  0
  1  7  1  0  0  0
  2  3  2  0  0  0
  2 16  1  0  0  0
  3  4  1  0  0  0
  4  5  2  0  0  0
  4  9  1  0  0  0
  5  6  1  0  0  0
 12 13  1  0  0  0
 13 11  1  0  0  0
 14 15  1  0  0  0
 14 11  1  0  0  0
  9 10  2  0  0  0
  9 11  1  0  0  0
 16 17  1  0  0  0
  7  8  1  0  0  0
M  END
> <minimizedAffinity>
-6.65126

$$$$
2XDL_2DL_A_1225


 17 17  0  0  0  0  0  0  0  0999 V2000
   65.4835   32.9525   27.7777 C   0  0  0  0  0  0  0  0  0  0  0  0
   64.1916   33.4098   27.4979 C   0  0  0  0  0  0  0  0  0  0  0  0
   63.9661   34.1514   26.3610 C   0  0  0  0  0  0  0  0  0  0  0  0
   64.9986   34.4775   25.4940 C   0  0  0  0  0  0  0  0  0  0  0  0
   66.2943   34.0288   25.7731 C   0  0  0  0  0  0  0  0  0  0  0  0
   66.5352   33.2740   26.9064 C   0  0  0  0  0  0  0  0  0  0  0  0
   65.7014   32.1926   28.8879 O   0  0  0  0  0  0  0  0  0  0  0  0
   64.9897   31.9856   29.4611 H   0  0  0  0  0  0  0  0  0  0  0  0
   64.7092   35.3038   24.2867 C   0  0  0  0  0  0  0  0  0  0  0  0
   64.1428   34.8041   23.3416 O   0  0  0  0  0  0  0  0  0  0  0  0
   65.1531   36.5955   24.2871 N   0  0  0  0  0  0  0  0  0  0  0  0
   65.0712   38.7510   25.5203 C   0  0  0  0  0  0  0  0  0  0  0  0
   65.4706   37.2925   25.5502 C   0  0  0  0  0  0  0  0  0  0  0  0
   65.1388   37.4228   23.0813 C   0  0  0  0  0  0  0  0  0  0  0  0
   66.5255   37.5655   22.4799 C   0  0  0  0  0  0  0  0  0  0  0  0
   63.2059   33.0580   28.3831 O   0  0  0  0  0  0  0  0  0  0  0  0
   62.5956   31.7507   28.2158 C   0  0  0  0  0  0  0  0  0  0  0  0
  1  2  1  0  0  0
  1  6  2  0  0  0
  1  7  1  0  0  0
  2  3  2  0  0  0
  2 16  1  0  0  0
  3  4  1  0  0  0
  4  5  2  0  0  0
  4  9  1  0  0  0
  5  6  1  0  0  0
 12 13  1  0  0  0
 13 11  1  0  0  0
 14 15  1  0  0  0
 14 11  1  0  0  0
  9 10  2  0  0  0
  9 11  1  0  0  0
 16 17  1  0  0  0
  7  8  1  0  0  0
M  END
> <minimizedAffinity>
-6.41582

$$$$
2XDL_2DL_A_1225


 17 17  0  0  0  0  0  0  0  0999 V2000
   65.4070   37.9361   24.3960 C   0  0  0  0  0  0  0  0  0  0  0  0
   65.6844   38.0930   25.7578 C   0  0  0  0  0  0  0  0  0  0  0  0
   66.1040   37.0088   26.4939 C   0  0  0  0  0  0  0  0  0  0  0  0
   66.2365   35.7530   25.9199 C   0  0  0  0  0  0  0  0  0  0  0  0
   65.9530   35.5888   24.5595 C   0  0  0  0  0  0  0  0  0  0  0  0
   65.5402   36.6709   23.8039 C   0  0  0  0  0  0  0  0  0  0  0  0
   65.0205   39.0162   23.6602 O   0  0  0  0  0  0  0  0  0  0  0  0
   64.9356   39.8552   24.0686 H   0  0  0  0  0  0  0  0  0  0  0  0
   66.6714   34.6030   26.7638 C   0  0  0  0  0  0  0  0  0  0  0  0
   67.7891   34.5900   27.2269 O   0  0  0  0  0  0  0  0  0  0  0  0
   65.7868   33.5762   26.9326 N   0  0  0  0  0  0  0  0  0  0  0  0
   63.4958   32.9934   27.6976 C   0  0  0  0  0  0  0  0  0  0  0  0
   64.3393   33.7727   26.7133 C   0  0  0  0  0  0  0  0  0  0  0  0
   66.1797   32.3025   27.5345 C   0  0  0  0  0  0  0  0  0  0  0  0
   66.6512   31.3075   26.4891 C   0  0  0  0  0  0  0  0  0  0  0  0
   65.5418   39.3538   26.2766 O   0  0  0  0  0  0  0  0  0  0  0  0
   66.7554   40.0767   26.6139 C   0  0  0  0  0  0  0  0  0  0  0  0
  1  2  1  0  0  0
  1  6  2  0  0  0
  1  7  1  0  0  0
  2  3  2  0  0  0
  2 16  1  0  0  0
  3  4  1  0  0  0
  4  5  2  0  0  0
  4  9  1  0  0  0
  5  6  1  0  0  0
 12 13  1  0  0  0
 13 11  1  0  0  0
 14 15  1  0  0  0
 14 11  1  0  0  0
  9 10  2  0  0  0
  9 11  1  0  0  0
 16 17  1  0  0  0
  7  8  1  0  0  0
M  END
> <minimizedAffinity>
-6.28061

$$$$
2XDL_2DL_A_1225


 17 17  0  0  0  0  0  0  0  0999 V2000
   66.0394   37.6734   24.4661 C   0  0  0  0  0  0  0  0  0  0  0  0
   65.8896   37.5654   25.8525 C   0  0  0  0  0  0  0  0  0  0  0  0
   65.2851   36.4496   26.3845 C   0  0  0  0  0  0  0  0  0  0  0  0
   64.7975   35.4355   25.5733 C   0  0  0  0  0  0  0  0  0  0  0  0
   64.9381   35.5421   24.1851 C   0  0  0  0  0  0  0  0  0  0  0  0
   65.5525   36.6524   23.6358 C   0  0  0  0  0  0  0  0  0  0  0  0
   66.6651   38.7644   23.9409 O   0  0  0  0  0  0  0  0  0  0  0  0
   66.9854   39.4386   24.5073 H   0  0  0  0  0  0  0  0  0  0  0  0
   64.1284   34.2566   26.1950 C   0  0  0  0  0  0  0  0  0  0  0  0
   62.9202   34.2053   26.2318 O   0  0  0  0  0  0  0  0  0  0  0  0
   64.9287   33.2989   26.7495 N   0  0  0  0  0  0  0  0  0  0  0  0
   66.8198   31.7335   26.3660 C   0  0  0  0  0  0  0  0  0  0  0  0
   66.3474   33.1704   26.3587 C   0  0  0  0  0  0  0  0  0  0  0  0
   64.3920   32.2269   27.5872 C   0  0  0  0  0  0  0  0  0  0  0  0
   64.5446   32.5377   29.0655 C   0  0  0  0  0  0  0  0  0  0  0  0
   66.3911   38.5916   26.6105 O   0  0  0  0  0  0  0  0  0  0  0  0
   67.3967   38.2569   27.6034 C   0  0  0  0  0  0  0  0  0  0  0  0
  1  2  1  0  0  0
  1  6  2  0  0  0
  1  7  1  0  0  0
  2  3  2  0  0  0
  2 16  1  0  0  0
  3  4  1  0  0  0
  4  5  2  0  0  0
  4  9  1  0  0  0
  5  6  1  0  0  0
 12 13  1  0  0  0
 13 11  1  0  0  0
 14 15  1  0  0  0
 14 11  1  0  0  0
  9 10  2  0  0  0
  9 11  1  0  0  0
 16 17  1  0  0  0
  7  8  1  0  0  0
M  END
> <minimizedAffinity>
-6.25743

$$$$
2XDL_2DL_A_1225


 17 17  0  0  0  0  0  0  0  0999 V2000
   65.3641   38.1895   24.5435 C   0  0  0  0  0  0  0  0  0  0  0  0
   65.7923   37.0353   23.8797 C   0  0  0  0  0  0  0  0  0  0  0  0
   66.2107   35.9477   24.6115 C   0  0  0  0  0  0  0  0  0  0  0  0
   66.2401   35.9773   25.9979 C   0  0  0  0  0  0  0  0  0  0  0  0
   65.8199   37.1322   26.6670 C   0  0  0  0  0  0  0  0  0  0  0  0
   65.3870   38.2299   25.9459 C   0  0  0  0  0  0  0  0  0  0  0  0
   64.9213   39.2558   23.8195 O   0  0  0  0  0  0  0  0  0  0  0  0
   64.9116   39.2150   22.8834 H   0  0  0  0  0  0  0  0  0  0  0  0
   66.7243   34.7821   26.7470 C   0  0  0  0  0  0  0  0  0  0  0  0
   67.8284   34.7931   27.2416 O   0  0  0  0  0  0  0  0  0  0  0  0
   65.9013   33.6931   26.7941 N   0  0  0  0  0  0  0  0  0  0  0  0
   63.6215   33.1927   27.6460 C   0  0  0  0  0  0  0  0  0  0  0  0
   64.4504   33.8223   26.5486 C   0  0  0  0  0  0  0  0  0  0  0  0
   66.3573   32.3950   27.2897 C   0  0  0  0  0  0  0  0  0  0  0  0
   67.0240   31.5779   26.1974 C   0  0  0  0  0  0  0  0  0  0  0  0
   65.7407   37.0547   22.5100 O   0  0  0  0  0  0  0  0  0  0  0  0
   66.8545   37.6700   21.8099 C   0  0  0  0  0  0  0  0  0  0  0  0
  1  2  1  0  0  0
  1  6  2  0  0  0
  1  7  1  0  0  0
  2  3  2  0  0  0
  2 16  1  0  0  0
  3  4  1  0  0  0
  4  5  2  0  0  0
  4  9  1  0  0  0
  5  6  1  0  0  0
 12 13  1  0  0  0
 13 11  1  0  0  0
 14 15  1  0  0  0
 14 11  1  0  0  0
  9 10  2  0  0  0
  9 11  1  0  0  0
 16 17  1  0  0  0
  7  8  1  0  0  0
M  END
> <minimizedAffinity>
-6.24806

$$$$
2XDL_2DL_A_1225


 17 17  0  0  0  0  0  0  0  0999 V2000
   67.5233   37.5405   25.1017 C   0  0  0  0  0  0  0  0  0  0  0  0
   66.7812   36.8161   24.1633 C   0  0  0  0  0  0  0  0  0  0  0  0
   65.8824   35.8680   24.5952 C   0  0  0  0  0  0  0  0  0  0  0  0
   65.7110   35.5959   25.9446 C   0  0  0  0  0  0  0  0  0  0  0  0
   66.4564   36.3126   26.8873 C   0  0  0  0  0  0  0  0  0  0  0  0
   67.3563   37.2758   26.4695 C   0  0  0  0  0  0  0  0  0  0  0  0
   68.3916   38.5006   24.6753 O   0  0  0  0  0  0  0  0  0  0  0  0
   68.4931   38.6668   23.7588 H   0  0  0  0  0  0  0  0  0  0  0  0
   64.7421   34.5424   26.3632 C   0  0  0  0  0  0  0  0  0  0  0  0
   63.5579   34.7136   26.1837 O   0  0  0  0  0  0  0  0  0  0  0  0
   65.2454   33.4372   26.9881 N   0  0  0  0  0  0  0  0  0  0  0  0
   66.8410   31.6517   26.3251 C   0  0  0  0  0  0  0  0  0  0  0  0
   66.6667   33.0612   26.8455 C   0  0  0  0  0  0  0  0  0  0  0  0
   64.3835   32.4578   27.6490 C   0  0  0  0  0  0  0  0  0  0  0  0
   64.6115   32.4291   29.1497 C   0  0  0  0  0  0  0  0  0  0  0  0
   66.9841   37.1245   22.8432 O   0  0  0  0  0  0  0  0  0  0  0  0
   65.8795   37.7345   22.1241 C   0  0  0  0  0  0  0  0  0  0  0  0
  1  2  1  0  0  0
  1  6  2  0  0  0
  1  7  1  0  0  0
  2  3  2  0  0  0
  2 16  1  0  0  0
  3  4  1  0  0  0
  4  5  2  0  0  0
  4  9  1  0  0  0
  5  6  1  0  0  0
 12 13  1  0  0  0
 13 11  1  0  0  0
 14 15  1  0  0  0
 14 11  1  0  0  0
  9 10  2  0  0  0
  9 11  1  0  0  0
 16 17  1  0  0  0
  7  8  1  0  0  0
M  END
> <minimizedAffinity>
-6.07739

$$$$
2XDL_2DL_A_1225


 17 17  0  0  0  0  0  0  0  0999 V2000
   64.2360   33.1777   27.1385 C   0  0  0  0  0  0  0  0  0  0  0  0
   65.5960   33.0602   26.8340 C   0  0  0  0  0  0  0  0  0  0  0  0
   66.2207   34.0594   26.1235 C   0  0  0  0  0  0  0  0  0  0  0  0
   65.5250   35.1744   25.6799 C   0  0  0  0  0  0  0  0  0  0  0  0
   64.1624   35.2933   25.9754 C   0  0  0  0  0  0  0  0  0  0  0  0
   63.5227   34.3025   26.6973 C   0  0  0  0  0  0  0  0  0  0  0  0
   63.6242   32.2025   27.8681 O   0  0  0  0  0  0  0  0  0  0  0  0
   64.1128   31.4567   28.1562 H   0  0  0  0  0  0  0  0  0  0  0  0
   66.2400   36.2198   24.8926 C   0  0  0  0  0  0  0  0  0  0  0  0
   66.0485   36.3066   23.7011 O   0  0  0  0  0  0  0  0  0  0  0  0
   67.1328   37.0093   25.5597 N   0  0  0  0  0  0  0  0  0  0  0  0
   68.4040   36.9366   27.6934 C   0  0  0  0  0  0  0  0  0  0  0  0
   67.0654   37.1650   27.0271 C   0  0  0  0  0  0  0  0  0  0  0  0
   68.0577   37.8999   24.8596 C   0  0  0  0  0  0  0  0  0  0  0  0
   67.6782   39.3590   25.0382 C   0  0  0  0  0  0  0  0  0  0  0  0
   66.2392   31.9420   27.2978 O   0  0  0  0  0  0  0  0  0  0  0  0
   66.8193   31.0492   26.3100 C   0  0  0  0  0  0  0  0  0  0  0  0
  1  2  1  0  0  0
  1  6  2  0  0  0
  1  7  1  0  0  0
  2  3  2  0  0  0
  2 16  1  0  0  0
  3  4  1  0  0  0
  4  5  2  0  0  0
  4  9  1  0  0  0
  5  6  1  0  0  0
 12 13  1  0  0  0
 13 11  1  0  0  0
 14 15  1  0  0  0
 14 11  1  0  0  0
  9 10  2  0  0  0
  9 11  1  0  0  0
 16 17  1  0  0  0
  7  8  1  0  0  0
M  END
> <minimizedAffinity>
-5.98297

$$$$
2XDL_2DL_A_1225


 17 17  0  0  0  0  0  0  0  0999 V2000
   64.7209   35.4547   24.2188 C   0  0  0  0  0  0  0  0  0  0  0  0
   64.5945   35.1476   25.5774 C   0  0  0  0  0  0  0  0  0  0  0  0
   65.5696   35.5555   26.4585 C   0  0  0  0  0  0  0  0  0  0  0  0
   66.6915   36.2469   26.0258 C   0  0  0  0  0  0  0  0  0  0  0  0
   66.8265   36.5503   24.6665 C   0  0  0  0  0  0  0  0  0  0  0  0
   65.8502   36.1562   23.7700 C   0  0  0  0  0  0  0  0  0  0  0  0
   63.7405   35.0771   23.3506 O   0  0  0  0  0  0  0  0  0  0  0  0
   62.9917   34.6091   23.6642 H   0  0  0  0  0  0  0  0  0  0  0  0
   67.7333   36.6471   27.0150 C   0  0  0  0  0  0  0  0  0  0  0  0
   68.4498   35.8034   27.5035 O   0  0  0  0  0  0  0  0  0  0  0  0
   67.7936   37.9655   27.3667 N   0  0  0  0  0  0  0  0  0  0  0  0
   68.2611   39.7213   25.6719 C   0  0  0  0  0  0  0  0  0  0  0  0
   67.2134   39.0130   26.5017 C   0  0  0  0  0  0  0  0  0  0  0  0
   68.6049   38.4342   28.4896 C   0  0  0  0  0  0  0  0  0  0  0  0
   67.9214   39.5582   29.2475 C   0  0  0  0  0  0  0  0  0  0  0  0
   63.4665   34.4663   25.9551 O   0  0  0  0  0  0  0  0  0  0  0  0
   63.5522   33.6468   27.1511 C   0  0  0  0  0  0  0  0  0  0  0  0
  1  2  1  0  0  0
  1  6  2  0  0  0
  1  7  1  0  0  0
  2  3  2  0  0  0
  2 16  1  0  0  0
  3  4  1  0  0  0
  4  5  2  0  0  0
  4  9  1  0  0  0
  5  6  1  0  0  0
 12 13  1  0  0  0
 13 11  1  0  0  0
 14 15  1  0  0  0
 14 11  1  0  0  0
  9 10  2  0  0  0
  9 11  1  0  0  0
 16 17  1  0  0  0
  7  8  1  0  0  0
M  END
> <minimizedAffinity>
-5.48043

$$$$
2XDL_2DL_A_1225


 17 17  0  0  0  0  0  0  0  0999 V2000
   68.2404   38.2636   25.7460 C   0  0  0  0  0  0  0  0  0  0  0  0
   67.8684   37.7952   27.0102 C   0  0  0  0  0  0  0  0  0  0  0  0
   66.9687   36.7589   27.1119 C   0  0  0  0  0  0  0  0  0  0  0  0
   66.4017   36.1808   25.9857 C   0  0  0  0  0  0  0  0  0  0  0  0
   66.7648   36.6507   24.7186 C   0  0  0  0  0  0  0  0  0  0  0  0
   67.6753   37.6846   24.5996 C   0  0  0  0  0  0  0  0  0  0  0  0
   69.1541   39.2698   25.6444 O   0  0  0  0  0  0  0  0  0  0  0  0
   69.5234   39.6472   26.4184 H   0  0  0  0  0  0  0  0  0  0  0  0
   65.4131   35.0761   26.1471 C   0  0  0  0  0  0  0  0  0  0  0  0
   64.2301   35.3146   26.0603 O   0  0  0  0  0  0  0  0  0  0  0  0
   65.8996   33.8345   26.4427 N   0  0  0  0  0  0  0  0  0  0  0  0
   67.5576   31.9915   26.2765 C   0  0  0  0  0  0  0  0  0  0  0  0
   67.3042   33.4778   26.1570 C   0  0  0  0  0  0  0  0  0  0  0  0
   65.0269   32.7352   26.8535 C   0  0  0  0  0  0  0  0  0  0  0  0
   64.8514   32.6888   28.3608 C   0  0  0  0  0  0  0  0  0  0  0  0
   68.4592   38.3967   28.0911 O   0  0  0  0  0  0  0  0  0  0  0  0
   67.6927   39.4139   28.7890 C   0  0  0  0  0  0  0  0  0  0  0  0
  1  2  1  0  0  0
  1  6  2  0  0  0
  1  7  1  0  0  0
  2  3  2  0  0  0
  2 16  1  0  0  0
  3  4  1  0  0  0
  4  5  2  0  0  0
  4  9  1  0  0  0
  5  6  1  0  0  0
 12 13  1  0  0  0
 13 11  1  0  0  0
 14 15  1  0  0  0
 14 11  1  0  0  0
  9 10  2  0  0  0
  9 11  1  0  0  0
 16 17  1  0  0  0
  7  8  1  0  0  0
M  END
> <minimizedAffinity>
-5.41573

$$$$
2XDL_2DL_A_1225


 17 17  0  0  0  0  0  0  0  0999 V2000
   64.3413   33.2657   27.0024 C   0  0  0  0  0  0  0  0  0  0  0  0
   65.7398   33.2822   26.9982 C   0  0  0  0  0  0  0  0  0  0  0  0
   66.4035   34.4278   26.6231 C   0  0  0  0  0  0  0  0  0  0  0  0
   65.7153   35.5643   26.2247 C   0  0  0  0  0  0  0  0  0  0  0  0
   64.3161   35.5507   26.2199 C   0  0  0  0  0  0  0  0  0  0  0  0
   63.6345   34.4105   26.6039 C   0  0  0  0  0  0  0  0  0  0  0  0
   63.6839   32.1410   27.4027 O   0  0  0  0  0  0  0  0  0  0  0  0
   64.1686   31.3836   27.6662 H   0  0  0  0  0  0  0  0  0  0  0  0
   66.4787   36.7743   25.8039 C   0  0  0  0  0  0  0  0  0  0  0  0
   67.1638   37.3599   26.6112 O   0  0  0  0  0  0  0  0  0  0  0  0
   66.3227   37.2003   24.5157 N   0  0  0  0  0  0  0  0  0  0  0  0
   64.5680   36.8010   22.8024 C   0  0  0  0  0  0  0  0  0  0  0  0
   65.8270   36.2877   23.4653 C   0  0  0  0  0  0  0  0  0  0  0  0
   66.8270   38.4947   24.0585 C   0  0  0  0  0  0  0  0  0  0  0  0
   67.7798   38.3454   22.8859 C   0  0  0  0  0  0  0  0  0  0  0  0
   66.3730   32.1359   27.4035 O   0  0  0  0  0  0  0  0  0  0  0  0
   66.8904   31.2588   26.3680 C   0  0  0  0  0  0  0  0  0  0  0  0
  1  2  1  0  0  0
  1  6  2  0  0  0
  1  7  1  0  0  0
  2  3  2  0  0  0
  2 16  1  0  0  0
  3  4  1  0  0  0
  4  5  2  0  0  0
  4  9  1  0  0  0
  5  6  1  0  0  0
 12 13  1  0  0  0
 13 11  1  0  0  0
 14 15  1  0  0  0
 14 11  1  0  0  0
  9 10  2  0  0  0
  9 11  1  0  0  0
 16 17  1  0  0  0
  7  8  1  0  0  0
M  END
> <minimizedAffinity>
-5.32042

$$$$
