2R59_PH0_A_706


 40 42  0  0  0  0  0  0  0  0999 V2000
   34.5430    6.4456    1.3677 C   0  0  0  0  0  0  0  0  0  0  0  0
   34.1410    7.4489    0.3248 C   0  0  0  0  0  0  0  0  0  0  0  0
   34.6457    7.3646   -0.7497 O   0  0  0  0  0  0  0  0  0  0  0  0
   33.2297    8.3727    0.5623 N   0  0  0  0  0  0  0  0  0  0  0  0
   32.7940    8.3727    1.4452 H   0  0  0  0  0  0  0  0  0  0  0  0
   32.8268    9.3903   -0.3938 C   0  0  0  0  0  0  0  0  0  0  0  0
   33.9787   10.2690   -0.8112 C   0  0  0  0  0  0  0  0  0  0  0  0
   34.4384   10.2801   -2.0061 O   0  0  0  0  0  0  0  0  0  0  0  0
   34.4113   11.0136    0.0882 O   0  0  0  0  0  0  0  0  0  0  0  0
   34.0816    9.7012   -2.6508 H   0  0  0  0  0  0  0  0  0  0  0  0
   31.7339   10.3065    0.1435 C   0  0  0  0  0  0  0  0  0  0  0  0
   30.5936   10.3462   -0.8447 C   0  0  0  0  0  0  0  0  0  0  0  0
   29.5723   11.3177   -0.7207 C   0  0  0  0  0  0  0  0  0  0  0  0
   28.5579   11.3250   -1.6565 C   0  0  0  0  0  0  0  0  0  0  0  0
   28.5333   10.3847   -2.6787 C   0  0  0  0  0  0  0  0  0  0  0  0
   29.5429    9.4492   -2.7990 C   0  0  0  0  0  0  0  0  0  0  0  0
   30.5669    9.4423   -1.8779 C   0  0  0  0  0  0  0  0  0  0  0  0
   34.4876    5.0505    0.7262 C   0  0  0  0  0  0  0  0  0  0  0  0
   34.1310    4.1822    3.3217 O   0  0  0  0  0  0  0  0  0  0  0  0
   34.7424    3.7132    1.9737 P   0  0  0  0  0  0  0  0  0  0  0  0
   36.3826    3.3335    2.1420 O   0  0  0  0  0  0  0  0  0  0  0  0
   33.1925    4.3925    3.1952 H   0  0  0  0  0  0  0  0  0  0  0  0
   33.8396    2.2895    1.2508 C   0  0  0  0  0  0  0  0  0  0  0  0
   33.9642    1.1705    2.2195 N   0  0  0  0  0  0  0  0  0  0  0  0
   33.5917    1.4604    3.1237 H   0  0  0  0  0  0  0  0  0  0  0  0
   34.9470    0.9175    2.3220 H   0  0  0  0  0  0  0  0  0  0  0  0
   32.3679    2.6777    1.1391 C   0  0  0  0  0  0  0  0  0  0  0  0
   31.5210    1.9092    0.1643 C   0  0  0  0  0  0  0  0  0  0  0  0
   31.9079    1.6327   -1.1716 C   0  0  0  0  0  0  0  0  0  0  0  0
   30.9871    0.9136   -1.9555 C   0  0  0  0  0  0  0  0  0  0  0  0
   29.7410    0.5065   -1.5078 C   0  0  0  0  0  0  0  0  0  0  0  0
   29.3954    0.7492   -0.2032 C   0  0  0  0  0  0  0  0  0  0  0  0
   30.2754    1.4614    0.6069 C   0  0  0  0  0  0  0  0  0  0  0  0
   35.9951    6.7360    1.7545 C   0  0  0  0  0  0  0  0  0  0  0  0
   36.0792    7.7606    2.8870 C   0  0  0  0  0  0  0  0  0  0  0  0
   37.2565    8.4751    3.0782 C   0  0  0  0  0  0  0  0  0  0  0  0
   37.3950    9.4427    4.0883 C   0  0  0  0  0  0  0  0  0  0  0  0
   36.3271    9.6576    4.9456 C   0  0  0  0  0  0  0  0  0  0  0  0
   35.1492    8.9141    4.8141 C   0  0  0  0  0  0  0  0  0  0  0  0
   35.0182    7.9643    3.7849 C   0  0  0  0  0  0  0  0  0  0  0  0
 30 31  2  0  0  0
 30 29  1  0  0  0
  9  7  2  0  0  0
 31 32  1  0  0  0
 29 28  2  0  0  0
  7  6  1  0  0  0
  7  8  1  0  0  0
 32 33  2  0  0  0
  3  2  2  0  0  0
  6 11  1  0  0  0
  6  4  1  0  0  0
 28 33  1  0  0  0
 28 27  1  0  0  0
 11 12  1  0  0  0
 17 12  2  0  0  0
 17 16  1  0  0  0
  2  4  1  0  0  0
  2  1  1  0  0  0
 18  1  1  0  0  0
 18 20  1  0  0  0
 27 23  1  0  0  0
 12 13  1  0  0  0
 23 24  1  0  0  0
 23 20  1  0  0  0
 16 15  2  0  0  0
  1 34  1  0  0  0
 20 21  2  0  0  0
 20 19  1  0  0  0
 34 35  1  0  0  0
 13 14  2  0  0  0
 15 14  1  0  0  0
 35 36  2  0  0  0
 35 40  1  0  0  0
 36 37  1  0  0  0
 40 39  2  0  0  0
 37 38  2  0  0  0
 39 38  1  0  0  0
 19 22  1  0  0  0
 24 25  1  0  0  0
 24 26  1  0  0  0
  4  5  1  0  0  0
  8 10  1  0  0  0
M  END
> <minimizedAffinity>
-11.73958

$$$$
2R59_PH0_A_706


 40 42  0  0  0  0  0  0  0  0999 V2000
   34.5515    7.8689    0.7960 C   0  0  0  0  0  0  0  0  0  0  0  0
   34.1735    6.4610    1.1575 C   0  0  0  0  0  0  0  0  0  0  0  0
   33.4641    6.3016    2.0997 O   0  0  0  0  0  0  0  0  0  0  0  0
   34.5713    5.4275    0.4406 N   0  0  0  0  0  0  0  0  0  0  0  0
   35.1092    5.6058   -0.3645 H   0  0  0  0  0  0  0  0  0  0  0  0
   34.2676    4.0429    0.7614 C   0  0  0  0  0  0  0  0  0  0  0  0
   35.2207    3.4710    1.7800 C   0  0  0  0  0  0  0  0  0  0  0  0
   36.4267    3.1522    1.4915 O   0  0  0  0  0  0  0  0  0  0  0  0
   34.7523    3.3802    2.9302 O   0  0  0  0  0  0  0  0  0  0  0  0
   36.7360    3.2371    0.6111 H   0  0  0  0  0  0  0  0  0  0  0  0
   34.3119    3.1303   -0.4584 C   0  0  0  0  0  0  0  0  0  0  0  0
   33.0030    2.3862   -0.5654 C   0  0  0  0  0  0  0  0  0  0  0  0
   32.0258    2.5066    0.4508 C   0  0  0  0  0  0  0  0  0  0  0  0
   30.8381    1.8196    0.3025 C   0  0  0  0  0  0  0  0  0  0  0  0
   30.6227    1.0131   -0.8079 C   0  0  0  0  0  0  0  0  0  0  0  0
   31.5777    0.9135   -1.8014 C   0  0  0  0  0  0  0  0  0  0  0  0
   32.7609    1.6060   -1.6690 C   0  0  0  0  0  0  0  0  0  0  0  0
   36.0756    7.9999    0.9404 C   0  0  0  0  0  0  0  0  0  0  0  0
   36.7720   10.5538    1.7214 O   0  0  0  0  0  0  0  0  0  0  0  0
   36.5368    9.1397    2.3179 P   0  0  0  0  0  0  0  0  0  0  0  0
   37.9061    8.5851    3.1427 O   0  0  0  0  0  0  0  0  0  0  0  0
   35.9726   10.8453    1.2557 H   0  0  0  0  0  0  0  0  0  0  0  0
   35.0721    9.0774    3.4204 C   0  0  0  0  0  0  0  0  0  0  0  0
   35.5778    8.7697    4.7826 N   0  0  0  0  0  0  0  0  0  0  0  0
   36.2561    9.4786    5.0616 H   0  0  0  0  0  0  0  0  0  0  0  0
   36.0253    7.8532    4.7802 H   0  0  0  0  0  0  0  0  0  0  0  0
   34.4397   10.4662    3.4358 C   0  0  0  0  0  0  0  0  0  0  0  0
   33.0869   10.6042    4.0755 C   0  0  0  0  0  0  0  0  0  0  0  0
   32.8198   11.4462    5.1847 C   0  0  0  0  0  0  0  0  0  0  0  0
   31.4994   11.4442    5.6704 C   0  0  0  0  0  0  0  0  0  0  0  0
   30.4858   10.6535    5.1541 C   0  0  0  0  0  0  0  0  0  0  0  0
   30.7499    9.8716    4.0590 C   0  0  0  0  0  0  0  0  0  0  0  0
   32.0445    9.8405    3.5482 C   0  0  0  0  0  0  0  0  0  0  0  0
   34.1913    8.0818   -0.6762 C   0  0  0  0  0  0  0  0  0  0  0  0
   32.9050    8.8957   -0.8263 C   0  0  0  0  0  0  0  0  0  0  0  0
   32.0597    8.6486   -1.9022 C   0  0  0  0  0  0  0  0  0  0  0  0
   30.8550    9.3479   -2.0900 C   0  0  0  0  0  0  0  0  0  0  0  0
   30.5248   10.3460   -1.1864 C   0  0  0  0  0  0  0  0  0  0  0  0
   31.3826   10.6565   -0.1256 C   0  0  0  0  0  0  0  0  0  0  0  0
   32.5745    9.9333    0.0611 C   0  0  0  0  0  0  0  0  0  0  0  0
 30 31  2  0  0  0
 30 29  1  0  0  0
  9  7  2  0  0  0
 31 32  1  0  0  0
 29 28  2  0  0  0
  7  6  1  0  0  0
  7  8  1  0  0  0
 32 33  2  0  0  0
  3  2  2  0  0  0
  6 11  1  0  0  0
  6  4  1  0  0  0
 28 33  1  0  0  0
 28 27  1  0  0  0
 11 12  1  0  0  0
 17 12  2  0  0  0
 17 16  1  0  0  0
  2  4  1  0  0  0
  2  1  1  0  0  0
 18  1  1  0  0  0
 18 20  1  0  0  0
 27 23  1  0  0  0
 12 13  1  0  0  0
 23 24  1  0  0  0
 23 20  1  0  0  0
 16 15  2  0  0  0
  1 34  1  0  0  0
 20 21  2  0  0  0
 20 19  1  0  0  0
 34 35  1  0  0  0
 13 14  2  0  0  0
 15 14  1  0  0  0
 35 36  2  0  0  0
 35 40  1  0  0  0
 36 37  1  0  0  0
 40 39  2  0  0  0
 37 38  2  0  0  0
 39 38  1  0  0  0
 19 22  1  0  0  0
 24 25  1  0  0  0
 24 26  1  0  0  0
  4  5  1  0  0  0
  8 10  1  0  0  0
M  END
> <minimizedAffinity>
-11.68501

$$$$
2R59_PH0_A_706


 40 42  0  0  0  0  0  0  0  0999 V2000
   34.5217    6.4717    1.2831 C   0  0  0  0  0  0  0  0  0  0  0  0
   34.0949    7.4444    0.2213 C   0  0  0  0  0  0  0  0  0  0  0  0
   34.5020    7.2732   -0.8839 O   0  0  0  0  0  0  0  0  0  0  0  0
   33.2639    8.4360    0.4791 N   0  0  0  0  0  0  0  0  0  0  0  0
   32.9044    8.5092    1.3927 H   0  0  0  0  0  0  0  0  0  0  0  0
   32.8444    9.4276   -0.4971 C   0  0  0  0  0  0  0  0  0  0  0  0
   34.0029   10.2369   -1.0224 C   0  0  0  0  0  0  0  0  0  0  0  0
   34.7618   10.9291   -0.2581 O   0  0  0  0  0  0  0  0  0  0  0  0
   34.1869   10.1371   -2.2499 O   0  0  0  0  0  0  0  0  0  0  0  0
   34.5846   10.9753    0.6609 H   0  0  0  0  0  0  0  0  0  0  0  0
   31.8244   10.4124    0.0617 C   0  0  0  0  0  0  0  0  0  0  0  0
   31.7928   10.2895    1.5658 C   0  0  0  0  0  0  0  0  0  0  0  0
   32.7073   11.0176    2.3631 C   0  0  0  0  0  0  0  0  0  0  0  0
   32.6309   10.8852    3.7347 C   0  0  0  0  0  0  0  0  0  0  0  0
   31.6926   10.0385    4.3111 C   0  0  0  0  0  0  0  0  0  0  0  0
   30.7949    9.3427    3.5244 C   0  0  0  0  0  0  0  0  0  0  0  0
   30.8543    9.4787    2.1550 C   0  0  0  0  0  0  0  0  0  0  0  0
   34.4694    5.0603    0.6782 C   0  0  0  0  0  0  0  0  0  0  0  0
   34.1479    4.2618    3.3005 O   0  0  0  0  0  0  0  0  0  0  0  0
   34.7418    3.7571    1.9577 P   0  0  0  0  0  0  0  0  0  0  0  0
   36.3844    3.3827    2.1143 O   0  0  0  0  0  0  0  0  0  0  0  0
   33.2076    4.4682    3.1810 H   0  0  0  0  0  0  0  0  0  0  0  0
   33.8306    2.3140    1.2852 C   0  0  0  0  0  0  0  0  0  0  0  0
   33.9298    1.2365    2.3027 N   0  0  0  0  0  0  0  0  0  0  0  0
   33.5498    1.5695    3.1887 H   0  0  0  0  0  0  0  0  0  0  0  0
   34.9082    0.9767    2.4285 H   0  0  0  0  0  0  0  0  0  0  0  0
   32.3652    2.7141    1.1383 C   0  0  0  0  0  0  0  0  0  0  0  0
   31.5229    1.9190    0.1809 C   0  0  0  0  0  0  0  0  0  0  0  0
   31.8855    1.6636   -1.1660 C   0  0  0  0  0  0  0  0  0  0  0  0
   30.9724    0.9143   -1.9302 C   0  0  0  0  0  0  0  0  0  0  0  0
   29.7542    0.4586   -1.4533 C   0  0  0  0  0  0  0  0  0  0  0  0
   29.4334    0.6819   -0.1389 C   0  0  0  0  0  0  0  0  0  0  0  0
   30.3066    1.4227    0.6526 C   0  0  0  0  0  0  0  0  0  0  0  0
   35.9767    6.7845    1.6402 C   0  0  0  0  0  0  0  0  0  0  0  0
   36.0680    7.7705    2.8060 C   0  0  0  0  0  0  0  0  0  0  0  0
   37.2340    8.5046    2.9925 C   0  0  0  0  0  0  0  0  0  0  0  0
   37.3778    9.4391    4.0325 C   0  0  0  0  0  0  0  0  0  0  0  0
   36.3283    9.5994    4.9239 C   0  0  0  0  0  0  0  0  0  0  0  0
   35.1640    8.8342    4.7961 C   0  0  0  0  0  0  0  0  0  0  0  0
   35.0269    7.9183    3.7374 C   0  0  0  0  0  0  0  0  0  0  0  0
 30 31  2  0  0  0
 30 29  1  0  0  0
  9  7  2  0  0  0
 31 32  1  0  0  0
 29 28  2  0  0  0
  7  6  1  0  0  0
  7  8  1  0  0  0
 32 33  2  0  0  0
  3  2  2  0  0  0
  6 11  1  0  0  0
  6  4  1  0  0  0
 28 33  1  0  0  0
 28 27  1  0  0  0
 11 12  1  0  0  0
 17 12  2  0  0  0
 17 16  1  0  0  0
  2  4  1  0  0  0
  2  1  1  0  0  0
 18  1  1  0  0  0
 18 20  1  0  0  0
 27 23  1  0  0  0
 12 13  1  0  0  0
 23 24  1  0  0  0
 23 20  1  0  0  0
 16 15  2  0  0  0
  1 34  1  0  0  0
 20 21  2  0  0  0
 20 19  1  0  0  0
 34 35  1  0  0  0
 13 14  2  0  0  0
 15 14  1  0  0  0
 35 36  2  0  0  0
 35 40  1  0  0  0
 36 37  1  0  0  0
 40 39  2  0  0  0
 37 38  2  0  0  0
 39 38  1  0  0  0
 19 22  1  0  0  0
 24 25  1  0  0  0
 24 26  1  0  0  0
  4  5  1  0  0  0
  8 10  1  0  0  0
M  END
> <minimizedAffinity>
-11.48334

$$$$
2R59_PH0_A_706


 40 42  0  0  0  0  0  0  0  0999 V2000
   34.8793    7.5127    0.4775 C   0  0  0  0  0  0  0  0  0  0  0  0
   34.3872    6.1671    0.9280 C   0  0  0  0  0  0  0  0  0  0  0  0
   33.7155    6.1222    1.9095 O   0  0  0  0  0  0  0  0  0  0  0  0
   34.6464    5.0673    0.2471 N   0  0  0  0  0  0  0  0  0  0  0  0
   35.1566    5.1543   -0.5904 H   0  0  0  0  0  0  0  0  0  0  0  0
   34.2283    3.7357    0.6524 C   0  0  0  0  0  0  0  0  0  0  0  0
   35.1407    3.1444    1.6969 C   0  0  0  0  0  0  0  0  0  0  0  0
   36.4010    3.0115    1.5145 O   0  0  0  0  0  0  0  0  0  0  0  0
   34.5748    2.8422    2.7642 O   0  0  0  0  0  0  0  0  0  0  0  0
   36.7836    3.2522    0.6938 H   0  0  0  0  0  0  0  0  0  0  0  0
   34.1792    2.7522   -0.5107 C   0  0  0  0  0  0  0  0  0  0  0  0
   32.8038    2.1336   -0.5758 C   0  0  0  0  0  0  0  0  0  0  0  0
   32.3971    1.4116   -1.7227 C   0  0  0  0  0  0  0  0  0  0  0  0
   31.1360    0.8508   -1.7308 C   0  0  0  0  0  0  0  0  0  0  0  0
   30.2835    1.0145   -0.6463 C   0  0  0  0  0  0  0  0  0  0  0  0
   30.6955    1.7093    0.4745 C   0  0  0  0  0  0  0  0  0  0  0  0
   31.9573    2.2613    0.4976 C   0  0  0  0  0  0  0  0  0  0  0  0
   33.9093    8.5747    1.0176 C   0  0  0  0  0  0  0  0  0  0  0  0
   32.6493    8.9151   -1.4143 O   0  0  0  0  0  0  0  0  0  0  0  0
   33.3619    9.7385   -0.3074 P   0  0  0  0  0  0  0  0  0  0  0  0
   34.6671   10.6128   -0.9359 O   0  0  0  0  0  0  0  0  0  0  0  0
   31.9074    8.4256   -1.0261 H   0  0  0  0  0  0  0  0  0  0  0  0
   32.2167   10.8677    0.5747 C   0  0  0  0  0  0  0  0  0  0  0  0
   31.0194   11.0207   -0.2908 N   0  0  0  0  0  0  0  0  0  0  0  0
   30.6121   10.1035   -0.4730 H   0  0  0  0  0  0  0  0  0  0  0  0
   31.2912   11.4535   -1.1736 H   0  0  0  0  0  0  0  0  0  0  0  0
   31.7968   10.1857    1.8738 C   0  0  0  0  0  0  0  0  0  0  0  0
   32.1854   10.8526    3.1631 C   0  0  0  0  0  0  0  0  0  0  0  0
   32.7140   12.1659    3.2452 C   0  0  0  0  0  0  0  0  0  0  0  0
   33.0402   12.6316    4.5320 C   0  0  0  0  0  0  0  0  0  0  0  0
   32.9075   11.8761    5.6856 C   0  0  0  0  0  0  0  0  0  0  0  0
   32.3614   10.6215    5.5950 C   0  0  0  0  0  0  0  0  0  0  0  0
   32.0278   10.1195    4.3403 C   0  0  0  0  0  0  0  0  0  0  0  0
   36.2483    7.7447    1.1213 C   0  0  0  0  0  0  0  0  0  0  0  0
   36.1532    8.7018    2.3107 C   0  0  0  0  0  0  0  0  0  0  0  0
   36.4714   10.0441    2.1369 C   0  0  0  0  0  0  0  0  0  0  0  0
   36.3890   10.9794    3.1828 C   0  0  0  0  0  0  0  0  0  0  0  0
   36.0140   10.5309    4.4397 C   0  0  0  0  0  0  0  0  0  0  0  0
   35.7424    9.1761    4.6591 C   0  0  0  0  0  0  0  0  0  0  0  0
   35.8086    8.2558    3.5974 C   0  0  0  0  0  0  0  0  0  0  0  0
 30 31  2  0  0  0
 30 29  1  0  0  0
  9  7  2  0  0  0
 31 32  1  0  0  0
 29 28  2  0  0  0
  7  6  1  0  0  0
  7  8  1  0  0  0
 32 33  2  0  0  0
  3  2  2  0  0  0
  6 11  1  0  0  0
  6  4  1  0  0  0
 28 33  1  0  0  0
 28 27  1  0  0  0
 11 12  1  0  0  0
 17 12  2  0  0  0
 17 16  1  0  0  0
  2  4  1  0  0  0
  2  1  1  0  0  0
 18  1  1  0  0  0
 18 20  1  0  0  0
 27 23  1  0  0  0
 12 13  1  0  0  0
 23 24  1  0  0  0
 23 20  1  0  0  0
 16 15  2  0  0  0
  1 34  1  0  0  0
 20 21  2  0  0  0
 20 19  1  0  0  0
 34 35  1  0  0  0
 13 14  2  0  0  0
 15 14  1  0  0  0
 35 36  2  0  0  0
 35 40  1  0  0  0
 36 37  1  0  0  0
 40 39  2  0  0  0
 37 38  2  0  0  0
 39 38  1  0  0  0
 19 22  1  0  0  0
 24 25  1  0  0  0
 24 26  1  0  0  0
  4  5  1  0  0  0
  8 10  1  0  0  0
M  END
> <minimizedAffinity>
-11.37566

$$$$
2R59_PH0_A_706


 40 42  0  0  0  0  0  0  0  0999 V2000
   35.2309    7.1443    2.9367 C   0  0  0  0  0  0  0  0  0  0  0  0
   34.1584    7.7805    2.0995 C   0  0  0  0  0  0  0  0  0  0  0  0
   33.0811    7.2748    2.1002 O   0  0  0  0  0  0  0  0  0  0  0  0
   34.3749    8.8864    1.4138 N   0  0  0  0  0  0  0  0  0  0  0  0
   35.2628    9.3057    1.4853 H   0  0  0  0  0  0  0  0  0  0  0  0
   33.3886    9.5266    0.5596 C   0  0  0  0  0  0  0  0  0  0  0  0
   33.8584    9.6401   -0.8685 C   0  0  0  0  0  0  0  0  0  0  0  0
   33.5149    8.8035   -1.7748 O   0  0  0  0  0  0  0  0  0  0  0  0
   34.5662   10.6380   -1.1005 O   0  0  0  0  0  0  0  0  0  0  0  0
   32.9806    8.0662   -1.5536 H   0  0  0  0  0  0  0  0  0  0  0  0
   33.0249   10.9310    1.0265 C   0  0  0  0  0  0  0  0  0  0  0  0
   32.2386   10.8354    2.3114 C   0  0  0  0  0  0  0  0  0  0  0  0
   31.1903    9.8940    2.4410 C   0  0  0  0  0  0  0  0  0  0  0  0
   30.5092    9.8325    3.6397 C   0  0  0  0  0  0  0  0  0  0  0  0
   30.8342   10.6922    4.6814 C   0  0  0  0  0  0  0  0  0  0  0  0
   31.8688   11.5982    4.5496 C   0  0  0  0  0  0  0  0  0  0  0  0
   32.5635   11.6579    3.3617 C   0  0  0  0  0  0  0  0  0  0  0  0
   35.9414    6.0912    2.0724 C   0  0  0  0  0  0  0  0  0  0  0  0
   34.1475    4.4290    3.3518 O   0  0  0  0  0  0  0  0  0  0  0  0
   35.0444    4.4773    2.0853 P   0  0  0  0  0  0  0  0  0  0  0  0
   36.1228    3.1740    2.0459 O   0  0  0  0  0  0  0  0  0  0  0  0
   33.5411    5.1861    3.3475 H   0  0  0  0  0  0  0  0  0  0  0  0
   34.0667    4.5299    0.5341 C   0  0  0  0  0  0  0  0  0  0  0  0
   34.6552    5.6062   -0.3033 N   0  0  0  0  0  0  0  0  0  0  0  0
   35.6437    5.4112   -0.4623 H   0  0  0  0  0  0  0  0  0  0  0  0
   34.5580    6.5014    0.1759 H   0  0  0  0  0  0  0  0  0  0  0  0
   34.2547    3.1954   -0.1820 C   0  0  0  0  0  0  0  0  0  0  0  0
   33.0221    2.3876   -0.4762 C   0  0  0  0  0  0  0  0  0  0  0  0
   32.8332    1.6399   -1.6662 C   0  0  0  0  0  0  0  0  0  0  0  0
   31.6117    0.9525   -1.7879 C   0  0  0  0  0  0  0  0  0  0  0  0
   30.5991    1.0000   -0.8437 C   0  0  0  0  0  0  0  0  0  0  0  0
   30.8104    1.6975    0.3179 C   0  0  0  0  0  0  0  0  0  0  0  0
   32.0039    2.3959    0.4783 C   0  0  0  0  0  0  0  0  0  0  0  0
   36.2460    8.2324    3.2943 C   0  0  0  0  0  0  0  0  0  0  0  0
   35.7198    9.1478    4.4010 C   0  0  0  0  0  0  0  0  0  0  0  0
   34.7234    8.6876    5.2546 C   0  0  0  0  0  0  0  0  0  0  0  0
   34.2077    9.4704    6.3019 C   0  0  0  0  0  0  0  0  0  0  0  0
   34.6878   10.7615    6.4575 C   0  0  0  0  0  0  0  0  0  0  0  0
   35.6495   11.2728    5.5793 C   0  0  0  0  0  0  0  0  0  0  0  0
   36.1712   10.4698    4.5490 C   0  0  0  0  0  0  0  0  0  0  0  0
 30 31  2  0  0  0
 30 29  1  0  0  0
  9  7  2  0  0  0
 31 32  1  0  0  0
 29 28  2  0  0  0
  7  6  1  0  0  0
  7  8  1  0  0  0
 32 33  2  0  0  0
  3  2  2  0  0  0
  6 11  1  0  0  0
  6  4  1  0  0  0
 28 33  1  0  0  0
 28 27  1  0  0  0
 11 12  1  0  0  0
 17 12  2  0  0  0
 17 16  1  0  0  0
  2  4  1  0  0  0
  2  1  1  0  0  0
 18  1  1  0  0  0
 18 20  1  0  0  0
 27 23  1  0  0  0
 12 13  1  0  0  0
 23 24  1  0  0  0
 23 20  1  0  0  0
 16 15  2  0  0  0
  1 34  1  0  0  0
 20 21  2  0  0  0
 20 19  1  0  0  0
 34 35  1  0  0  0
 13 14  2  0  0  0
 15 14  1  0  0  0
 35 36  2  0  0  0
 35 40  1  0  0  0
 36 37  1  0  0  0
 40 39  2  0  0  0
 37 38  2  0  0  0
 39 38  1  0  0  0
 19 22  1  0  0  0
 24 25  1  0  0  0
 24 26  1  0  0  0
  4  5  1  0  0  0
  8 10  1  0  0  0
M  END
> <minimizedAffinity>
-11.05588

$$$$
2R59_PH0_A_706


 40 42  0  0  0  0  0  0  0  0999 V2000
   33.7907    9.1286    1.4916 C   0  0  0  0  0  0  0  0  0  0  0  0
   33.0612    8.6394    0.2733 C   0  0  0  0  0  0  0  0  0  0  0  0
   33.1159    7.4771    0.0234 O   0  0  0  0  0  0  0  0  0  0  0  0
   32.3447    9.4502   -0.4814 N   0  0  0  0  0  0  0  0  0  0  0  0
   32.2777   10.3937   -0.2082 H   0  0  0  0  0  0  0  0  0  0  0  0
   31.6480    9.0420   -1.6897 C   0  0  0  0  0  0  0  0  0  0  0  0
   32.4889    9.2350   -2.9261 C   0  0  0  0  0  0  0  0  0  0  0  0
   32.0301    9.0486   -4.1068 O   0  0  0  0  0  0  0  0  0  0  0  0
   33.6471    9.6350   -2.7044 O   0  0  0  0  0  0  0  0  0  0  0  0
   31.1512    8.7463   -4.2256 H   0  0  0  0  0  0  0  0  0  0  0  0
   30.3464    9.8043   -1.9075 C   0  0  0  0  0  0  0  0  0  0  0  0
   29.9041   10.4096   -0.5973 C   0  0  0  0  0  0  0  0  0  0  0  0
   30.1219   11.7825   -0.3332 C   0  0  0  0  0  0  0  0  0  0  0  0
   29.6869   12.2949    0.8722 C   0  0  0  0  0  0  0  0  0  0  0  0
   29.0721   11.4730    1.8082 C   0  0  0  0  0  0  0  0  0  0  0  0
   28.8515   10.1368    1.5347 C   0  0  0  0  0  0  0  0  0  0  0  0
   29.2699    9.6190    0.3290 C   0  0  0  0  0  0  0  0  0  0  0  0
   35.2938    8.9091    1.2611 C   0  0  0  0  0  0  0  0  0  0  0  0
   36.6544    6.5171    1.0487 O   0  0  0  0  0  0  0  0  0  0  0  0
   35.8976    7.3771    2.0967 P   0  0  0  0  0  0  0  0  0  0  0  0
   34.6209    6.5131    2.7943 O   0  0  0  0  0  0  0  0  0  0  0  0
   37.3788    7.0367    0.6665 H   0  0  0  0  0  0  0  0  0  0  0  0
   37.0067    8.0246    3.4065 C   0  0  0  0  0  0  0  0  0  0  0  0
   38.3957    7.7245    2.9745 N   0  0  0  0  0  0  0  0  0  0  0  0
   38.5671    8.1480    2.0625 H   0  0  0  0  0  0  0  0  0  0  0  0
   38.5206    6.7143    2.9091 H   0  0  0  0  0  0  0  0  0  0  0  0
   36.8287    9.5393    3.4625 C   0  0  0  0  0  0  0  0  0  0  0  0
   35.9381   10.0926    4.5391 C   0  0  0  0  0  0  0  0  0  0  0  0
   35.8169   11.4750    4.8309 C   0  0  0  0  0  0  0  0  0  0  0  0
   34.9492   11.8203    5.8831 C   0  0  0  0  0  0  0  0  0  0  0  0
   34.2559   10.8977    6.6494 C   0  0  0  0  0  0  0  0  0  0  0  0
   34.3548    9.5673    6.3323 C   0  0  0  0  0  0  0  0  0  0  0  0
   35.2055    9.1808    5.3005 C   0  0  0  0  0  0  0  0  0  0  0  0
   33.5403   10.6340    1.6083 C   0  0  0  0  0  0  0  0  0  0  0  0
   32.6588   10.9637    2.8140 C   0  0  0  0  0  0  0  0  0  0  0  0
   31.9806    9.9404    3.4669 C   0  0  0  0  0  0  0  0  0  0  0  0
   31.1684   10.1719    4.5904 C   0  0  0  0  0  0  0  0  0  0  0  0
   31.0120   11.4763    5.0328 C   0  0  0  0  0  0  0  0  0  0  0  0
   31.6361   12.5339    4.3624 C   0  0  0  0  0  0  0  0  0  0  0  0
   32.4629   12.2838    3.2522 C   0  0  0  0  0  0  0  0  0  0  0  0
 30 31  2  0  0  0
 30 29  1  0  0  0
  9  7  2  0  0  0
 31 32  1  0  0  0
 29 28  2  0  0  0
  7  6  1  0  0  0
  7  8  1  0  0  0
 32 33  2  0  0  0
  3  2  2  0  0  0
  6 11  1  0  0  0
  6  4  1  0  0  0
 28 33  1  0  0  0
 28 27  1  0  0  0
 11 12  1  0  0  0
 17 12  2  0  0  0
 17 16  1  0  0  0
  2  4  1  0  0  0
  2  1  1  0  0  0
 18  1  1  0  0  0
 18 20  1  0  0  0
 27 23  1  0  0  0
 12 13  1  0  0  0
 23 24  1  0  0  0
 23 20  1  0  0  0
 16 15  2  0  0  0
  1 34  1  0  0  0
 20 21  2  0  0  0
 20 19  1  0  0  0
 34 35  1  0  0  0
 13 14  2  0  0  0
 15 14  1  0  0  0
 35 36  2  0  0  0
 35 40  1  0  0  0
 36 37  1  0  0  0
 40 39  2  0  0  0
 37 38  2  0  0  0
 39 38  1  0  0  0
 19 22  1  0  0  0
 24 25  1  0  0  0
 24 26  1  0  0  0
  4  5  1  0  0  0
  8 10  1  0  0  0
M  END
> <minimizedAffinity>
-10.96741

$$$$
2R59_PH0_A_706


 40 42  0  0  0  0  0  0  0  0999 V2000
   33.4717    8.3981    1.8361 C   0  0  0  0  0  0  0  0  0  0  0  0
   34.4982    9.4302    2.2060 C   0  0  0  0  0  0  0  0  0  0  0  0
   34.9602   10.0916    1.3311 O   0  0  0  0  0  0  0  0  0  0  0  0
   34.8561    9.6382    3.4586 N   0  0  0  0  0  0  0  0  0  0  0  0
   34.4084    9.1102    4.1587 H   0  0  0  0  0  0  0  0  0  0  0  0
   35.8678   10.5958    3.8728 C   0  0  0  0  0  0  0  0  0  0  0  0
   37.0730    9.9250    4.4816 C   0  0  0  0  0  0  0  0  0  0  0  0
   37.3965   10.0748    5.7113 O   0  0  0  0  0  0  0  0  0  0  0  0
   37.6960    9.1791    3.7030 O   0  0  0  0  0  0  0  0  0  0  0  0
   36.8980   10.6474    6.2605 H   0  0  0  0  0  0  0  0  0  0  0  0
   35.3480   11.6000    4.8945 C   0  0  0  0  0  0  0  0  0  0  0  0
   33.8410   11.5251    4.9371 C   0  0  0  0  0  0  0  0  0  0  0  0
   33.1917   10.7007    5.8862 C   0  0  0  0  0  0  0  0  0  0  0  0
   31.8118   10.6759    5.8975 C   0  0  0  0  0  0  0  0  0  0  0  0
   31.0846   11.4260    4.9819 C   0  0  0  0  0  0  0  0  0  0  0  0
   31.7281   12.2386    4.0685 C   0  0  0  0  0  0  0  0  0  0  0  0
   33.1047   12.2806    4.0582 C   0  0  0  0  0  0  0  0  0  0  0  0
   33.9804    7.0319    2.3211 C   0  0  0  0  0  0  0  0  0  0  0  0
   36.7281    6.8735    2.1138 O   0  0  0  0  0  0  0  0  0  0  0  0
   35.4421    6.4612    1.3476 P   0  0  0  0  0  0  0  0  0  0  0  0
   35.4269    7.1029   -0.2179 O   0  0  0  0  0  0  0  0  0  0  0  0
   36.7093    6.4925    3.0056 H   0  0  0  0  0  0  0  0  0  0  0  0
   35.2165    4.6419    1.2824 C   0  0  0  0  0  0  0  0  0  0  0  0
   35.7366    4.1026    2.5648 N   0  0  0  0  0  0  0  0  0  0  0  0
   35.2405    4.5375    3.3427 H   0  0  0  0  0  0  0  0  0  0  0  0
   36.7331    4.3068    2.6404 H   0  0  0  0  0  0  0  0  0  0  0  0
   33.7188    4.3595    1.2049 C   0  0  0  0  0  0  0  0  0  0  0  0
   33.2648    3.2851    0.2573 C   0  0  0  0  0  0  0  0  0  0  0  0
   34.0596    2.7789   -0.8023 C   0  0  0  0  0  0  0  0  0  0  0  0
   33.4737    1.7839   -1.6060 C   0  0  0  0  0  0  0  0  0  0  0  0
   32.1809    1.3151   -1.4385 C   0  0  0  0  0  0  0  0  0  0  0  0
   31.4372    1.7876   -0.3878 C   0  0  0  0  0  0  0  0  0  0  0  0
   31.9768    2.7760    0.4305 C   0  0  0  0  0  0  0  0  0  0  0  0
   32.1870    8.7279    2.5998 C   0  0  0  0  0  0  0  0  0  0  0  0
   31.0775    9.1936    1.6555 C   0  0  0  0  0  0  0  0  0  0  0  0
   29.7593    9.1996    2.0977 C   0  0  0  0  0  0  0  0  0  0  0  0
   28.6948    9.6312    1.2877 C   0  0  0  0  0  0  0  0  0  0  0  0
   28.9736   10.0260   -0.0115 C   0  0  0  0  0  0  0  0  0  0  0  0
   30.2824    9.9773   -0.5038 C   0  0  0  0  0  0  0  0  0  0  0  0
   31.3400    9.5632    0.3259 C   0  0  0  0  0  0  0  0  0  0  0  0
 30 31  2  0  0  0
 30 29  1  0  0  0
  9  7  2  0  0  0
 31 32  1  0  0  0
 29 28  2  0  0  0
  7  6  1  0  0  0
  7  8  1  0  0  0
 32 33  2  0  0  0
  3  2  2  0  0  0
  6 11  1  0  0  0
  6  4  1  0  0  0
 28 33  1  0  0  0
 28 27  1  0  0  0
 11 12  1  0  0  0
 17 12  2  0  0  0
 17 16  1  0  0  0
  2  4  1  0  0  0
  2  1  1  0  0  0
 18  1  1  0  0  0
 18 20  1  0  0  0
 27 23  1  0  0  0
 12 13  1  0  0  0
 23 24  1  0  0  0
 23 20  1  0  0  0
 16 15  2  0  0  0
  1 34  1  0  0  0
 20 21  2  0  0  0
 20 19  1  0  0  0
 34 35  1  0  0  0
 13 14  2  0  0  0
 15 14  1  0  0  0
 35 36  2  0  0  0
 35 40  1  0  0  0
 36 37  1  0  0  0
 40 39  2  0  0  0
 37 38  2  0  0  0
 39 38  1  0  0  0
 19 22  1  0  0  0
 24 25  1  0  0  0
 24 26  1  0  0  0
  4  5  1  0  0  0
  8 10  1  0  0  0
M  END
> <minimizedAffinity>
-10.82204

$$$$
2R59_PH0_A_706


 40 42  0  0  0  0  0  0  0  0999 V2000
   31.6795   10.2346    0.6395 C   0  0  0  0  0  0  0  0  0  0  0  0
   33.0343    9.6125    0.8215 C   0  0  0  0  0  0  0  0  0  0  0  0
   33.9891   10.2974    0.6326 O   0  0  0  0  0  0  0  0  0  0  0  0
   33.1788    8.3625    1.2177 N   0  0  0  0  0  0  0  0  0  0  0  0
   32.3647    7.8468    1.4191 H   0  0  0  0  0  0  0  0  0  0  0  0
   34.4609    7.6969    1.3763 C   0  0  0  0  0  0  0  0  0  0  0  0
   34.6394    6.5622    0.3998 C   0  0  0  0  0  0  0  0  0  0  0  0
   35.6295    6.4996   -0.4096 O   0  0  0  0  0  0  0  0  0  0  0  0
   33.7723    5.6719    0.4799 O   0  0  0  0  0  0  0  0  0  0  0  0
   36.2582    7.1939   -0.4352 H   0  0  0  0  0  0  0  0  0  0  0  0
   34.6599    7.1229    2.7740 C   0  0  0  0  0  0  0  0  0  0  0  0
   35.4213    8.1203    3.6130 C   0  0  0  0  0  0  0  0  0  0  0  0
   36.7397    8.4939    3.2604 C   0  0  0  0  0  0  0  0  0  0  0  0
   37.3911    9.4207    4.0487 C   0  0  0  0  0  0  0  0  0  0  0  0
   36.7710    9.9523    5.1724 C   0  0  0  0  0  0  0  0  0  0  0  0
   35.4783    9.5914    5.5000 C   0  0  0  0  0  0  0  0  0  0  0  0
   34.8148    8.6773    4.7117 C   0  0  0  0  0  0  0  0  0  0  0  0
   31.7902   11.7222    1.0076 C   0  0  0  0  0  0  0  0  0  0  0  0
   32.2665   12.2723    3.6700 O   0  0  0  0  0  0  0  0  0  0  0  0
   31.0880   12.0672    2.6801 P   0  0  0  0  0  0  0  0  0  0  0  0
   30.0685   10.8164    3.1891 O   0  0  0  0  0  0  0  0  0  0  0  0
   32.8327   12.9935    3.3535 H   0  0  0  0  0  0  0  0  0  0  0  0
   30.1166   13.6010    2.4175 C   0  0  0  0  0  0  0  0  0  0  0  0
   30.8730   14.7004    3.0696 N   0  0  0  0  0  0  0  0  0  0  0  0
   31.8109   14.7503    2.6720 H   0  0  0  0  0  0  0  0  0  0  0  0
   30.9376   14.5209    4.0716 H   0  0  0  0  0  0  0  0  0  0  0  0
   30.0627   13.8683    0.9160 C   0  0  0  0  0  0  0  0  0  0  0  0
   28.7457   13.6612    0.2225 C   0  0  0  0  0  0  0  0  0  0  0  0
   27.5165   13.4685    0.9027 C   0  0  0  0  0  0  0  0  0  0  0  0
   26.3786   13.2729    0.0989 C   0  0  0  0  0  0  0  0  0  0  0  0
   26.4075   13.2245   -1.2853 C   0  0  0  0  0  0  0  0  0  0  0  0
   27.5968   13.4485   -1.9300 C   0  0  0  0  0  0  0  0  0  0  0  0
   28.7488   13.6425   -1.1730 C   0  0  0  0  0  0  0  0  0  0  0  0
   31.3198   10.1355   -0.8449 C   0  0  0  0  0  0  0  0  0  0  0  0
   29.8112    9.9843   -1.0471 C   0  0  0  0  0  0  0  0  0  0  0  0
   29.2913    9.9661   -2.3365 C   0  0  0  0  0  0  0  0  0  0  0  0
   27.9179    9.8132   -2.5930 C   0  0  0  0  0  0  0  0  0  0  0  0
   27.0528    9.7173   -1.5141 C   0  0  0  0  0  0  0  0  0  0  0  0
   27.5395    9.7892   -0.2043 C   0  0  0  0  0  0  0  0  0  0  0  0
   28.9191    9.9212    0.0362 C   0  0  0  0  0  0  0  0  0  0  0  0
 30 31  2  0  0  0
 30 29  1  0  0  0
  9  7  2  0  0  0
 31 32  1  0  0  0
 29 28  2  0  0  0
  7  6  1  0  0  0
  7  8  1  0  0  0
 32 33  2  0  0  0
  3  2  2  0  0  0
  6 11  1  0  0  0
  6  4  1  0  0  0
 28 33  1  0  0  0
 28 27  1  0  0  0
 11 12  1  0  0  0
 17 12  2  0  0  0
 17 16  1  0  0  0
  2  4  1  0  0  0
  2  1  1  0  0  0
 18  1  1  0  0  0
 18 20  1  0  0  0
 27 23  1  0  0  0
 12 13  1  0  0  0
 23 24  1  0  0  0
 23 20  1  0  0  0
 16 15  2  0  0  0
  1 34  1  0  0  0
 20 21  2  0  0  0
 20 19  1  0  0  0
 34 35  1  0  0  0
 13 14  2  0  0  0
 15 14  1  0  0  0
 35 36  2  0  0  0
 35 40  1  0  0  0
 36 37  1  0  0  0
 40 39  2  0  0  0
 37 38  2  0  0  0
 39 38  1  0  0  0
 19 22  1  0  0  0
 24 25  1  0  0  0
 24 26  1  0  0  0
  4  5  1  0  0  0
  8 10  1  0  0  0
M  END
> <minimizedAffinity>
-10.72249

$$$$
2R59_PH0_A_706


 40 42  0  0  0  0  0  0  0  0999 V2000
   34.3372    5.7912    1.0888 C   0  0  0  0  0  0  0  0  0  0  0  0
   34.2073    7.0721    0.3153 C   0  0  0  0  0  0  0  0  0  0  0  0
   34.9439    7.2421   -0.6039 O   0  0  0  0  0  0  0  0  0  0  0  0
   33.2856    7.9701    0.6055 N   0  0  0  0  0  0  0  0  0  0  0  0
   32.6585    7.7660    1.3364 H   0  0  0  0  0  0  0  0  0  0  0  0
   33.1352    9.2411   -0.0831 C   0  0  0  0  0  0  0  0  0  0  0  0
   34.3104   10.1572    0.1470 C   0  0  0  0  0  0  0  0  0  0  0  0
   34.7062   10.4882    1.3187 O   0  0  0  0  0  0  0  0  0  0  0  0
   34.8893   10.5241   -0.8927 O   0  0  0  0  0  0  0  0  0  0  0  0
   34.2386   10.1882    2.0733 H   0  0  0  0  0  0  0  0  0  0  0  0
   31.8837    9.9994    0.3424 C   0  0  0  0  0  0  0  0  0  0  0  0
   30.8785    9.9632   -0.7831 C   0  0  0  0  0  0  0  0  0  0  0  0
   29.7350   10.7959   -0.7488 C   0  0  0  0  0  0  0  0  0  0  0  0
   28.8514   10.7395   -1.8074 C   0  0  0  0  0  0  0  0  0  0  0  0
   29.0726    9.8679   -2.8662 C   0  0  0  0  0  0  0  0  0  0  0  0
   30.1996    9.0693   -2.8968 C   0  0  0  0  0  0  0  0  0  0  0  0
   31.0944    9.1282   -1.8514 C   0  0  0  0  0  0  0  0  0  0  0  0
   34.2903    4.6280    0.0862 C   0  0  0  0  0  0  0  0  0  0  0  0
   33.1626    3.4199    2.2967 O   0  0  0  0  0  0  0  0  0  0  0  0
   33.6592    3.0777    0.8660 P   0  0  0  0  0  0  0  0  0  0  0  0
   34.8510    1.8770    0.8998 O   0  0  0  0  0  0  0  0  0  0  0  0
   32.4819    4.1091    2.2465 H   0  0  0  0  0  0  0  0  0  0  0  0
   32.2930    2.5745   -0.2499 C   0  0  0  0  0  0  0  0  0  0  0  0
   32.9117    1.8053   -1.3597 N   0  0  0  0  0  0  0  0  0  0  0  0
   33.4264    1.0119   -0.9779 H   0  0  0  0  0  0  0  0  0  0  0  0
   33.5514    2.4088   -1.8764 H   0  0  0  0  0  0  0  0  0  0  0  0
   31.3688    1.6460    0.5327 C   0  0  0  0  0  0  0  0  0  0  0  0
   30.0540    1.2842   -0.0988 C   0  0  0  0  0  0  0  0  0  0  0  0
   29.5857    1.8347   -1.3189 C   0  0  0  0  0  0  0  0  0  0  0  0
   28.3236    1.3975   -1.7609 C   0  0  0  0  0  0  0  0  0  0  0  0
   27.5239    0.5081   -1.0620 C   0  0  0  0  0  0  0  0  0  0  0  0
   28.0052   -0.0434    0.0976 C   0  0  0  0  0  0  0  0  0  0  0  0
   29.2482    0.3642    0.5736 C   0  0  0  0  0  0  0  0  0  0  0  0
   35.7144    5.7909    1.7566 C   0  0  0  0  0  0  0  0  0  0  0  0
   35.9073    7.0219    2.6437 C   0  0  0  0  0  0  0  0  0  0  0  0
   34.8844    7.4172    3.4985 C   0  0  0  0  0  0  0  0  0  0  0  0
   35.0027    8.5278    4.3519 C   0  0  0  0  0  0  0  0  0  0  0  0
   36.1701    9.2738    4.3044 C   0  0  0  0  0  0  0  0  0  0  0  0
   37.1947    8.9345    3.4142 C   0  0  0  0  0  0  0  0  0  0  0  0
   37.0700    7.8076    2.5815 C   0  0  0  0  0  0  0  0  0  0  0  0
 30 31  2  0  0  0
 30 29  1  0  0  0
  9  7  2  0  0  0
 31 32  1  0  0  0
 29 28  2  0  0  0
  7  6  1  0  0  0
  7  8  1  0  0  0
 32 33  2  0  0  0
  3  2  2  0  0  0
  6 11  1  0  0  0
  6  4  1  0  0  0
 28 33  1  0  0  0
 28 27  1  0  0  0
 11 12  1  0  0  0
 17 12  2  0  0  0
 17 16  1  0  0  0
  2  4  1  0  0  0
  2  1  1  0  0  0
 18  1  1  0  0  0
 18 20  1  0  0  0
 27 23  1  0  0  0
 12 13  1  0  0  0
 23 24  1  0  0  0
 23 20  1  0  0  0
 16 15  2  0  0  0
  1 34  1  0  0  0
 20 21  2  0  0  0
 20 19  1  0  0  0
 34 35  1  0  0  0
 13 14  2  0  0  0
 15 14  1  0  0  0
 35 36  2  0  0  0
 35 40  1  0  0  0
 36 37  1  0  0  0
 40 39  2  0  0  0
 37 38  2  0  0  0
 39 38  1  0  0  0
 19 22  1  0  0  0
 24 25  1  0  0  0
 24 26  1  0  0  0
  4  5  1  0  0  0
  8 10  1  0  0  0
M  END
> <minimizedAffinity>
-10.63554

$$$$
2R59_PH0_A_706


 40 42  0  0  0  0  0  0  0  0999 V2000
   31.0548   10.0372   -0.1448 C   0  0  0  0  0  0  0  0  0  0  0  0
   32.4787    9.6543    0.1413 C   0  0  0  0  0  0  0  0  0  0  0  0
   33.3343   10.4120   -0.1907 O   0  0  0  0  0  0  0  0  0  0  0  0
   32.7856    8.5391    0.7757 N   0  0  0  0  0  0  0  0  0  0  0  0
   32.0461    7.9673    1.0848 H   0  0  0  0  0  0  0  0  0  0  0  0
   34.1436    8.0993    1.0483 C   0  0  0  0  0  0  0  0  0  0  0  0
   34.5047    6.8529    0.2808 C   0  0  0  0  0  0  0  0  0  0  0  0
   35.6619    6.6742   -0.2371 O   0  0  0  0  0  0  0  0  0  0  0  0
   33.6020    5.9964    0.2347 O   0  0  0  0  0  0  0  0  0  0  0  0
   36.3107    7.3476   -0.1778 H   0  0  0  0  0  0  0  0  0  0  0  0
   34.3843    7.8044    2.5240 C   0  0  0  0  0  0  0  0  0  0  0  0
   35.3171    8.8477    3.0898 C   0  0  0  0  0  0  0  0  0  0  0  0
   35.6618    9.9888    2.3274 C   0  0  0  0  0  0  0  0  0  0  0  0
   36.5060   10.9234    2.8918 C   0  0  0  0  0  0  0  0  0  0  0  0
   37.0197   10.7313    4.1681 C   0  0  0  0  0  0  0  0  0  0  0  0
   36.6657    9.6206    4.9096 C   0  0  0  0  0  0  0  0  0  0  0  0
   35.8130    8.6889    4.3602 C   0  0  0  0  0  0  0  0  0  0  0  0
   30.8809   11.5179    0.2268 C   0  0  0  0  0  0  0  0  0  0  0  0
   29.4871   10.3273    2.2902 O   0  0  0  0  0  0  0  0  0  0  0  0
   30.0043   11.7201    1.8394 P   0  0  0  0  0  0  0  0  0  0  0  0
   28.7380   12.8354    1.7154 O   0  0  0  0  0  0  0  0  0  0  0  0
   30.2328    9.7101    2.3525 H   0  0  0  0  0  0  0  0  0  0  0  0
   31.3117   12.3756    2.9466 C   0  0  0  0  0  0  0  0  0  0  0  0
   30.6261   12.8717    4.1672 N   0  0  0  0  0  0  0  0  0  0  0  0
   30.0911   12.1126    4.5890 H   0  0  0  0  0  0  0  0  0  0  0  0
   29.9959   13.6338    3.9172 H   0  0  0  0  0  0  0  0  0  0  0  0
   32.2210   11.2132    3.3350 C   0  0  0  0  0  0  0  0  0  0  0  0
   32.9450   11.3091    4.6483 C   0  0  0  0  0  0  0  0  0  0  0  0
   33.7998   12.3836    5.0025 C   0  0  0  0  0  0  0  0  0  0  0  0
   34.4121   12.3078    6.2668 C   0  0  0  0  0  0  0  0  0  0  0  0
   34.2527   11.2456    7.1418 C   0  0  0  0  0  0  0  0  0  0  0  0
   33.3950   10.2314    6.8011 C   0  0  0  0  0  0  0  0  0  0  0  0
   32.7709   10.2644    5.5573 C   0  0  0  0  0  0  0  0  0  0  0  0
   30.8303    9.8936   -1.6519 C   0  0  0  0  0  0  0  0  0  0  0  0
   29.3613    9.6166   -1.9757 C   0  0  0  0  0  0  0  0  0  0  0  0
   29.0177    9.1206   -3.2284 C   0  0  0  0  0  0  0  0  0  0  0  0
   27.6899    8.8284   -3.5848 C   0  0  0  0  0  0  0  0  0  0  0  0
   26.6883    9.0846   -2.6614 C   0  0  0  0  0  0  0  0  0  0  0  0
   26.9965    9.6366   -1.4133 C   0  0  0  0  0  0  0  0  0  0  0  0
   28.3325    9.9037   -1.0634 C   0  0  0  0  0  0  0  0  0  0  0  0
 30 31  2  0  0  0
 30 29  1  0  0  0
  9  7  2  0  0  0
 31 32  1  0  0  0
 29 28  2  0  0  0
  7  6  1  0  0  0
  7  8  1  0  0  0
 32 33  2  0  0  0
  3  2  2  0  0  0
  6 11  1  0  0  0
  6  4  1  0  0  0
 28 33  1  0  0  0
 28 27  1  0  0  0
 11 12  1  0  0  0
 17 12  2  0  0  0
 17 16  1  0  0  0
  2  4  1  0  0  0
  2  1  1  0  0  0
 18  1  1  0  0  0
 18 20  1  0  0  0
 27 23  1  0  0  0
 12 13  1  0  0  0
 23 24  1  0  0  0
 23 20  1  0  0  0
 16 15  2  0  0  0
  1 34  1  0  0  0
 20 21  2  0  0  0
 20 19  1  0  0  0
 34 35  1  0  0  0
 13 14  2  0  0  0
 15 14  1  0  0  0
 35 36  2  0  0  0
 35 40  1  0  0  0
 36 37  1  0  0  0
 40 39  2  0  0  0
 37 38  2  0  0  0
 39 38  1  0  0  0
 19 22  1  0  0  0
 24 25  1  0  0  0
 24 26  1  0  0  0
  4  5  1  0  0  0
  8 10  1  0  0  0
M  END
> <minimizedAffinity>
-10.33522

$$$$
