4ETZ_C2E_A_501


 56 62  0  0  0  0  0  0  0  0999 V2000
   19.3388    0.4883   -4.9099 P   0  0  0  0  0  0  0  0  0  0  0  0
   20.5368    1.3451   -5.2655 O   0  0  0  0  0  0  0  0  0  0  0  0
   19.2252   -0.0246   -3.4940 O   0  0  0  0  0  0  0  0  0  0  0  0
   19.2002   -0.7842   -5.8330 O   0  0  0  0  0  0  0  0  0  0  0  0
   19.2576   -0.7309   -7.2647 C   0  0  0  0  0  0  0  0  0  0  0  0
   18.8794   -2.0911   -7.8504 C   0  0  0  0  0  0  0  0  0  0  0  0
   19.7745   -3.0761   -7.3587 O   0  0  0  0  0  0  0  0  0  0  0  0
   17.5174   -2.6232   -7.3981 C   0  0  0  0  0  0  0  0  0  0  0  0
   16.4164   -2.1633   -8.1641 O   0  0  0  0  0  0  0  0  0  0  0  0
   17.6330   -4.1260   -7.4690 C   0  0  0  0  0  0  0  0  0  0  0  0
   17.2737   -4.6097   -8.7654 O   0  0  0  0  0  0  0  0  0  0  0  0
   19.0993   -4.3448   -7.1682 C   0  0  0  0  0  0  0  0  0  0  0  0
   14.9732   -1.9884   -7.4689 P   0  0  0  0  0  0  0  0  0  0  0  0
   14.0324   -1.6018   -8.5816 O   0  0  0  0  0  0  0  0  0  0  0  0
   14.6219   -3.2150   -6.6634 O   0  0  0  0  0  0  0  0  0  0  0  0
   15.1959   -0.7366   -6.5196 O   0  0  0  0  0  0  0  0  0  0  0  0
   15.4262    0.5547   -7.0437 C   0  0  0  0  0  0  0  0  0  0  0  0
   15.6564    1.4529   -5.8549 C   0  0  0  0  0  0  0  0  0  0  0  0
   14.4935    1.3788   -5.0342 O   0  0  0  0  0  0  0  0  0  0  0  0
   16.7497    0.9553   -4.9389 C   0  0  0  0  0  0  0  0  0  0  0  0
   18.0503    1.3819   -5.2916 O   0  0  0  0  0  0  0  0  0  0  0  0
   16.3712    1.5230   -3.5970 C   0  0  0  0  0  0  0  0  0  0  0  0
   16.7514    2.8826   -3.4559 O   0  0  0  0  0  0  0  0  0  0  0  0
   14.8671    1.4642   -3.6487 C   0  0  0  0  0  0  0  0  0  0  0  0
   21.3523    0.8624   -5.0588 H   0  0  0  0  0  0  0  0  0  0  0  0
   17.8268   -4.1792   -9.4359 H   0  0  0  0  0  0  0  0  0  0  0  0
   14.3634   -0.8036   -9.0221 H   0  0  0  0  0  0  0  0  0  0  0  0
   16.3503    3.4060   -4.1673 H   0  0  0  0  0  0  0  0  0  0  0  0
   19.2422   -4.6912   -5.7228 N   0  0  0  0  0  0  0  0  0  0  0  0
   19.9477   -3.9571   -4.8551 C   0  0  0  0  0  0  0  0  0  0  0  0
   19.9660   -4.4874   -3.6310 N   0  0  0  0  0  0  0  0  0  0  0  0
   19.2152   -5.6154   -3.6871 C   0  0  0  0  0  0  0  0  0  0  0  0
   18.7921   -6.6715   -2.7416 C   0  0  0  0  0  0  0  0  0  0  0  0
   19.1607   -6.6794   -1.4275 O   0  0  0  0  0  0  0  0  0  0  0  0
   18.0168   -7.6787   -3.2262 N   0  0  0  0  0  0  0  0  0  0  0  0
   17.5818   -7.7461   -4.5260 C   0  0  0  0  0  0  0  0  0  0  0  0
   16.8079   -8.7868   -4.8926 N   0  0  0  0  0  0  0  0  0  0  0  0
   17.9436   -6.8228   -5.4488 N   0  0  0  0  0  0  0  0  0  0  0  0
   18.7343   -5.7527   -5.0837 C   0  0  0  0  0  0  0  0  0  0  0  0
   17.7530   -8.3996   -2.6098 H   0  0  0  0  0  0  0  0  0  0  0  0
   16.5417   -9.4611   -4.2265 H   0  0  0  0  0  0  0  0  0  0  0  0
   16.5089   -8.8729   -5.8267 H   0  0  0  0  0  0  0  0  0  0  0  0
   14.4578    0.2228   -2.9714 N   0  0  0  0  0  0  0  0  0  0  0  0
   13.9025   -0.8428   -3.5828 C   0  0  0  0  0  0  0  0  0  0  0  0
   13.6388   -1.8250   -2.6818 N   0  0  0  0  0  0  0  0  0  0  0  0
   14.0612   -1.3767   -1.4862 C   0  0  0  0  0  0  0  0  0  0  0  0
   14.0726   -1.9249   -0.1239 C   0  0  0  0  0  0  0  0  0  0  0  0
   13.5612   -3.1526    0.0683 O   0  0  0  0  0  0  0  0  0  0  0  0
   14.6021   -1.2166    0.8750 N   0  0  0  0  0  0  0  0  0  0  0  0
   15.1000    0.0309    0.6426 C   0  0  0  0  0  0  0  0  0  0  0  0
   15.6099    0.7279    1.6846 N   0  0  0  0  0  0  0  0  0  0  0  0
   15.1052    0.5924   -0.5961 N   0  0  0  0  0  0  0  0  0  0  0  0
   14.6062   -0.0481   -1.6733 C   0  0  0  0  0  0  0  0  0  0  0  0
   14.6333   -1.5961    1.7829 H   0  0  0  0  0  0  0  0  0  0  0  0
   15.6124    0.3333    2.5866 H   0  0  0  0  0  0  0  0  0  0  0  0
   15.9783    1.6294    1.5407 H   0  0  0  0  0  0  0  0  0  0  0  0
  1  2  1  0  0  0
  3  1  2  0  0  0
  4  1  1  0  0  0
  5  4  1  0  0  0
  6  7  1  0  0  0
  6  5  1  0  0  0
  8  6  1  0  0  0
  9 13  1  0  0  0
  9  8  1  0  0  0
 10  8  1  0  0  0
 10 12  1  0  0  0
 11 10  1  0  0  0
 12  7  1  0  0  0
 12 29  1  0  0  0
 29 39  1  0  0  0
 29 30  1  0  0  0
 30 31  2  0  0  0
 32 31  1  0  0  0
 32 33  1  0  0  0
 33 34  2  0  0  0
 35 33  1  0  0  0
 36 35  1  0  0  0
 37 36  1  0  0  0
 38 36  2  0  0  0
 38 39  1  0  0  0
 39 32  2  0  0  0
 13 14  1  0  0  0
 13 16  1  0  0  0
 15 13  2  0  0  0
 17 16  1  0  0  0
 17 18  1  0  0  0
 18 19  1  0  0  0
 18 20  1  0  0  0
 19 24  1  0  0  0
 20 22  1  0  0  0
 21 20  1  0  0  0
 21  1  1  0  0  0
 22 23  1  0  0  0
 24 22  1  0  0  0
 24 43  1  0  0  0
 43 53  1  0  0  0
 44 45  2  0  0  0
 44 43  1  0  0  0
 45 46  1  0  0  0
 46 53  2  0  0  0
 46 47  1  0  0  0
 47 48  2  0  0  0
 47 49  1  0  0  0
 50 49  1  0  0  0
 50 51  1  0  0  0
 52 50  2  0  0  0
 53 52  1  0  0  0
  2 25  1  0  0  0
 11 26  1  0  0  0
 35 40  1  0  0  0
 37 41  1  0  0  0
 37 42  1  0  0  0
 14 27  1  0  0  0
 23 28  1  0  0  0
 49 54  1  0  0  0
 51 55  1  0  0  0
 51 56  1  0  0  0
M  END
> <minimizedAffinity>
-9.36893

$$$$
4ETZ_C2E_A_501


 56 62  0  0  0  0  0  0  0  0999 V2000
   15.5291   -2.1889   -7.5394 P   0  0  0  0  0  0  0  0  0  0  0  0
   14.6556   -2.0357   -8.7679 O   0  0  0  0  0  0  0  0  0  0  0  0
   15.2735   -3.3639   -6.6257 O   0  0  0  0  0  0  0  0  0  0  0  0
   15.5043   -0.9155   -6.6075 O   0  0  0  0  0  0  0  0  0  0  0  0
   15.7034    0.4199   -7.0902 C   0  0  0  0  0  0  0  0  0  0  0  0
   15.8290    1.3846   -5.9113 C   0  0  0  0  0  0  0  0  0  0  0  0
   14.6500    1.3167   -5.1249 O   0  0  0  0  0  0  0  0  0  0  0  0
   16.9227    1.0210   -4.9041 C   0  0  0  0  0  0  0  0  0  0  0  0
   18.2155    1.5019   -5.2323 O   0  0  0  0  0  0  0  0  0  0  0  0
   16.4552    1.5879   -3.5861 C   0  0  0  0  0  0  0  0  0  0  0  0
   16.8975    2.9372   -3.4199 O   0  0  0  0  0  0  0  0  0  0  0  0
   14.9510    1.4963   -3.7182 C   0  0  0  0  0  0  0  0  0  0  0  0
   19.5193    0.6720   -4.7762 P   0  0  0  0  0  0  0  0  0  0  0  0
   20.6995    1.5164   -5.1844 O   0  0  0  0  0  0  0  0  0  0  0  0
   19.4181    0.2853   -3.3212 O   0  0  0  0  0  0  0  0  0  0  0  0
   19.4544   -0.6124   -5.7057 O   0  0  0  0  0  0  0  0  0  0  0  0
   19.6396   -0.5218   -7.1030 C   0  0  0  0  0  0  0  0  0  0  0  0
   19.4405   -1.9157   -7.6419 C   0  0  0  0  0  0  0  0  0  0  0  0
   20.3944   -2.7595   -7.0022 O   0  0  0  0  0  0  0  0  0  0  0  0
   18.1205   -2.5261   -7.2334 C   0  0  0  0  0  0  0  0  0  0  0  0
   17.0429   -2.2268   -8.0977 O   0  0  0  0  0  0  0  0  0  0  0  0
   18.3955   -4.0061   -7.2519 C   0  0  0  0  0  0  0  0  0  0  0  0
   18.3427   -4.5519   -8.5604 O   0  0  0  0  0  0  0  0  0  0  0  0
   19.8258   -4.0614   -6.7830 C   0  0  0  0  0  0  0  0  0  0  0  0
   13.7237   -2.0060   -8.5004 H   0  0  0  0  0  0  0  0  0  0  0  0
   16.5879    3.4733   -4.1667 H   0  0  0  0  0  0  0  0  0  0  0  0
   20.6536    1.6977   -6.1362 H   0  0  0  0  0  0  0  0  0  0  0  0
   18.9737   -4.0858   -9.1309 H   0  0  0  0  0  0  0  0  0  0  0  0
   14.4865    0.2601   -3.0213 N   0  0  0  0  0  0  0  0  0  0  0  0
   13.8594   -0.7450   -3.6428 C   0  0  0  0  0  0  0  0  0  0  0  0
   13.5030   -1.7218   -2.8068 N   0  0  0  0  0  0  0  0  0  0  0  0
   13.9376   -1.3547   -1.5757 C   0  0  0  0  0  0  0  0  0  0  0  0
   13.9125   -1.9296   -0.2129 C   0  0  0  0  0  0  0  0  0  0  0  0
   13.3417   -3.1365    0.0709 O   0  0  0  0  0  0  0  0  0  0  0  0
   14.4724   -1.2008    0.7899 N   0  0  0  0  0  0  0  0  0  0  0  0
   15.0847    0.0123    0.5985 C   0  0  0  0  0  0  0  0  0  0  0  0
   15.6150    0.6413    1.6659 N   0  0  0  0  0  0  0  0  0  0  0  0
   15.1302    0.6050   -0.6189 N   0  0  0  0  0  0  0  0  0  0  0  0
   14.5916   -0.0309   -1.7185 C   0  0  0  0  0  0  0  0  0  0  0  0
   14.4363   -1.5640    1.7042 H   0  0  0  0  0  0  0  0  0  0  0  0
   15.5850    0.2157    2.5531 H   0  0  0  0  0  0  0  0  0  0  0  0
   16.0325    1.5264    1.5584 H   0  0  0  0  0  0  0  0  0  0  0  0
   19.7979   -4.3273   -5.3352 N   0  0  0  0  0  0  0  0  0  0  0  0
   18.6800   -4.3970   -4.5848 C   0  0  0  0  0  0  0  0  0  0  0  0
   18.9923   -4.6538   -3.2877 N   0  0  0  0  0  0  0  0  0  0  0  0
   20.3306   -4.7736   -3.2284 C   0  0  0  0  0  0  0  0  0  0  0  0
   21.2961   -5.0412   -2.1548 C   0  0  0  0  0  0  0  0  0  0  0  0
   20.8240   -5.2192   -0.9093 O   0  0  0  0  0  0  0  0  0  0  0  0
   22.5978   -5.1245   -2.4348 N   0  0  0  0  0  0  0  0  0  0  0  0
   23.0394   -4.9255   -3.7090 C   0  0  0  0  0  0  0  0  0  0  0  0
   24.3691   -4.9970   -3.9508 N   0  0  0  0  0  0  0  0  0  0  0  0
   22.1916   -4.6637   -4.7396 N   0  0  0  0  0  0  0  0  0  0  0  0
   20.8574   -4.5735   -4.5624 C   0  0  0  0  0  0  0  0  0  0  0  0
   23.2415   -5.3304   -1.7189 H   0  0  0  0  0  0  0  0  0  0  0  0
   24.9940   -5.1858   -3.2138 H   0  0  0  0  0  0  0  0  0  0  0  0
   24.7115   -4.8602   -4.8637 H   0  0  0  0  0  0  0  0  0  0  0  0
  1  2  1  0  0  0
  3  1  2  0  0  0
  4  1  1  0  0  0
  5  4  1  0  0  0
  6  7  1  0  0  0
  6  5  1  0  0  0
  8  6  1  0  0  0
  9 13  1  0  0  0
  9  8  1  0  0  0
 10  8  1  0  0  0
 10 12  1  0  0  0
 11 10  1  0  0  0
 12  7  1  0  0  0
 12 29  1  0  0  0
 29 39  1  0  0  0
 29 30  1  0  0  0
 30 31  2  0  0  0
 32 31  1  0  0  0
 32 33  1  0  0  0
 33 34  2  0  0  0
 35 33  1  0  0  0
 36 35  1  0  0  0
 37 36  1  0  0  0
 38 36  2  0  0  0
 38 39  1  0  0  0
 39 32  2  0  0  0
 13 14  1  0  0  0
 13 16  1  0  0  0
 15 13  2  0  0  0
 17 16  1  0  0  0
 17 18  1  0  0  0
 18 19  1  0  0  0
 18 20  1  0  0  0
 19 24  1  0  0  0
 20 22  1  0  0  0
 21 20  1  0  0  0
 21  1  1  0  0  0
 22 23  1  0  0  0
 24 22  1  0  0  0
 24 43  1  0  0  0
 43 53  1  0  0  0
 44 45  2  0  0  0
 44 43  1  0  0  0
 45 46  1  0  0  0
 46 53  2  0  0  0
 46 47  1  0  0  0
 47 48  2  0  0  0
 47 49  1  0  0  0
 50 49  1  0  0  0
 50 51  1  0  0  0
 52 50  2  0  0  0
 53 52  1  0  0  0
  2 25  1  0  0  0
 11 26  1  0  0  0
 35 40  1  0  0  0
 37 41  1  0  0  0
 37 42  1  0  0  0
 14 27  1  0  0  0
 23 28  1  0  0  0
 49 54  1  0  0  0
 51 55  1  0  0  0
 51 56  1  0  0  0
M  END
> <minimizedAffinity>
-9.24177

$$$$
4ETZ_C2E_A_501


 56 62  0  0  0  0  0  0  0  0999 V2000
   15.0341   -1.9193   -7.6764 P   0  0  0  0  0  0  0  0  0  0  0  0
   14.0520   -1.6602   -8.8006 O   0  0  0  0  0  0  0  0  0  0  0  0
   14.8121   -3.1302   -6.8016 O   0  0  0  0  0  0  0  0  0  0  0  0
   15.1650   -0.6991   -6.6841 O   0  0  0  0  0  0  0  0  0  0  0  0
   15.3816    0.6506   -7.1168 C   0  0  0  0  0  0  0  0  0  0  0  0
   15.6712    1.5425   -5.9099 C   0  0  0  0  0  0  0  0  0  0  0  0
   14.5739    1.4840   -5.0123 O   0  0  0  0  0  0  0  0  0  0  0  0
   16.8398    1.0758   -5.0384 C   0  0  0  0  0  0  0  0  0  0  0  0
   18.1161    1.5161   -5.4715 O   0  0  0  0  0  0  0  0  0  0  0  0
   16.5339    1.5898   -3.6530 C   0  0  0  0  0  0  0  0  0  0  0  0
   17.0571    2.9068   -3.4651 O   0  0  0  0  0  0  0  0  0  0  0  0
   15.0214    1.5725   -3.6361 C   0  0  0  0  0  0  0  0  0  0  0  0
   19.4157    0.6052   -5.1924 P   0  0  0  0  0  0  0  0  0  0  0  0
   20.5902    1.4174   -5.6754 O   0  0  0  0  0  0  0  0  0  0  0  0
   19.4399    0.1440   -3.7559 O   0  0  0  0  0  0  0  0  0  0  0  0
   19.1952   -0.6221   -6.1738 O   0  0  0  0  0  0  0  0  0  0  0  0
   19.2455   -0.4632   -7.5764 C   0  0  0  0  0  0  0  0  0  0  0  0
   18.9248   -1.8151   -8.1616 C   0  0  0  0  0  0  0  0  0  0  0  0
   19.8942   -2.7343   -7.6652 O   0  0  0  0  0  0  0  0  0  0  0  0
   17.6230   -2.3877   -7.6523 C   0  0  0  0  0  0  0  0  0  0  0  0
   16.4813   -1.9938   -8.3867 O   0  0  0  0  0  0  0  0  0  0  0  0
   17.8209   -3.8752   -7.7729 C   0  0  0  0  0  0  0  0  0  0  0  0
   17.6116   -4.3454   -9.0950 O   0  0  0  0  0  0  0  0  0  0  0  0
   19.2860   -4.0198   -7.4550 C   0  0  0  0  0  0  0  0  0  0  0  0
   13.1538   -1.6037   -8.4387 H   0  0  0  0  0  0  0  0  0  0  0  0
   16.7021    3.4964   -4.1487 H   0  0  0  0  0  0  0  0  0  0  0  0
   20.4593    1.6525   -6.6073 H   0  0  0  0  0  0  0  0  0  0  0  0
   18.2054   -3.8772   -9.7025 H   0  0  0  0  0  0  0  0  0  0  0  0
   14.5671    0.3218   -2.9586 N   0  0  0  0  0  0  0  0  0  0  0  0
   13.9587   -0.6836   -3.5979 C   0  0  0  0  0  0  0  0  0  0  0  0
   13.6080   -1.6753   -2.7771 N   0  0  0  0  0  0  0  0  0  0  0  0
   14.0271   -1.3179   -1.5378 C   0  0  0  0  0  0  0  0  0  0  0  0
   13.9980   -1.9100   -0.1825 C   0  0  0  0  0  0  0  0  0  0  0  0
   13.4407   -3.1277    0.0814 O   0  0  0  0  0  0  0  0  0  0  0  0
   14.5396   -1.1865    0.8340 N   0  0  0  0  0  0  0  0  0  0  0  0
   15.1376    0.0368    0.6629 C   0  0  0  0  0  0  0  0  0  0  0  0
   15.6504    0.6593    1.7426 N   0  0  0  0  0  0  0  0  0  0  0  0
   15.1857    0.6451   -0.5466 N   0  0  0  0  0  0  0  0  0  0  0  0
   14.6649    0.0160   -1.6586 C   0  0  0  0  0  0  0  0  0  0  0  0
   14.5005   -1.5615    1.7435 H   0  0  0  0  0  0  0  0  0  0  0  0
   15.6184    0.2223    2.6242 H   0  0  0  0  0  0  0  0  0  0  0  0
   16.0571    1.5511    1.6497 H   0  0  0  0  0  0  0  0  0  0  0  0
   19.3884   -4.3632   -6.0270 N   0  0  0  0  0  0  0  0  0  0  0  0
   20.0316   -3.6253   -5.1000 C   0  0  0  0  0  0  0  0  0  0  0  0
   19.9447   -4.2139   -3.8785 N   0  0  0  0  0  0  0  0  0  0  0  0
   19.2103   -5.3292   -4.0379 C   0  0  0  0  0  0  0  0  0  0  0  0
   18.7506   -6.3987   -3.1427 C   0  0  0  0  0  0  0  0  0  0  0  0
   19.0979   -6.3316   -1.8462 O   0  0  0  0  0  0  0  0  0  0  0  0
   17.9910   -7.3864   -3.6196 N   0  0  0  0  0  0  0  0  0  0  0  0
   17.6700   -7.4266   -4.9438 C   0  0  0  0  0  0  0  0  0  0  0  0
   16.9153   -8.4554   -5.3950 N   0  0  0  0  0  0  0  0  0  0  0  0
   18.0773   -6.4695   -5.8199 N   0  0  0  0  0  0  0  0  0  0  0  0
   18.8360   -5.4232   -5.4337 C   0  0  0  0  0  0  0  0  0  0  0  0
   17.6613   -8.0884   -3.0132 H   0  0  0  0  0  0  0  0  0  0  0  0
   16.6136   -9.1551   -4.7715 H   0  0  0  0  0  0  0  0  0  0  0  0
   16.6678   -8.5041   -6.3466 H   0  0  0  0  0  0  0  0  0  0  0  0
  1  2  1  0  0  0
  3  1  2  0  0  0
  4  1  1  0  0  0
  5  4  1  0  0  0
  6  7  1  0  0  0
  6  5  1  0  0  0
  8  6  1  0  0  0
  9 13  1  0  0  0
  9  8  1  0  0  0
 10  8  1  0  0  0
 10 12  1  0  0  0
 11 10  1  0  0  0
 12  7  1  0  0  0
 12 29  1  0  0  0
 29 39  1  0  0  0
 29 30  1  0  0  0
 30 31  2  0  0  0
 32 31  1  0  0  0
 32 33  1  0  0  0
 33 34  2  0  0  0
 35 33  1  0  0  0
 36 35  1  0  0  0
 37 36  1  0  0  0
 38 36  2  0  0  0
 38 39  1  0  0  0
 39 32  2  0  0  0
 13 14  1  0  0  0
 13 16  1  0  0  0
 15 13  2  0  0  0
 17 16  1  0  0  0
 17 18  1  0  0  0
 18 19  1  0  0  0
 18 20  1  0  0  0
 19 24  1  0  0  0
 20 22  1  0  0  0
 21 20  1  0  0  0
 21  1  1  0  0  0
 22 23  1  0  0  0
 24 22  1  0  0  0
 24 43  1  0  0  0
 43 53  1  0  0  0
 44 45  2  0  0  0
 44 43  1  0  0  0
 45 46  1  0  0  0
 46 53  2  0  0  0
 46 47  1  0  0  0
 47 48  2  0  0  0
 47 49  1  0  0  0
 50 49  1  0  0  0
 50 51  1  0  0  0
 52 50  2  0  0  0
 53 52  1  0  0  0
  2 25  1  0  0  0
 11 26  1  0  0  0
 35 40  1  0  0  0
 37 41  1  0  0  0
 37 42  1  0  0  0
 14 27  1  0  0  0
 23 28  1  0  0  0
 49 54  1  0  0  0
 51 55  1  0  0  0
 51 56  1  0  0  0
M  END
> <minimizedAffinity>
-9.19558

$$$$
4ETZ_C2E_A_501


 56 62  0  0  0  0  0  0  0  0999 V2000
   19.4683   -1.2505   -6.6544 P   0  0  0  0  0  0  0  0  0  0  0  0
   20.8206   -1.1400   -7.3288 O   0  0  0  0  0  0  0  0  0  0  0  0
   19.2625   -2.3581   -5.6486 O   0  0  0  0  0  0  0  0  0  0  0  0
   18.2799   -1.3878   -7.6837 O   0  0  0  0  0  0  0  0  0  0  0  0
   18.1077   -0.5188   -8.8111 C   0  0  0  0  0  0  0  0  0  0  0  0
   16.7568   -0.7888   -9.4731 C   0  0  0  0  0  0  0  0  0  0  0  0
   16.7017   -2.1454   -9.8849 O   0  0  0  0  0  0  0  0  0  0  0  0
   15.5532   -0.6767   -8.5340 C   0  0  0  0  0  0  0  0  0  0  0  0
   15.0392    0.6360   -8.3823 O   0  0  0  0  0  0  0  0  0  0  0  0
   14.5095   -1.6008   -9.1117 C   0  0  0  0  0  0  0  0  0  0  0  0
   13.6929   -0.9215  -10.0685 O   0  0  0  0  0  0  0  0  0  0  0  0
   15.3590   -2.6760   -9.7525 C   0  0  0  0  0  0  0  0  0  0  0  0
   14.3456    1.0699   -6.9939 P   0  0  0  0  0  0  0  0  0  0  0  0
   13.8220    2.4650   -7.2220 O   0  0  0  0  0  0  0  0  0  0  0  0
   13.3526    0.0244   -6.5493 O   0  0  0  0  0  0  0  0  0  0  0  0
   15.5784    1.1352   -5.9970 O   0  0  0  0  0  0  0  0  0  0  0  0
   16.5889    2.1121   -6.1366 C   0  0  0  0  0  0  0  0  0  0  0  0
   17.6077    1.8151   -5.0657 C   0  0  0  0  0  0  0  0  0  0  0  0
   16.9358    1.8773   -3.8103 O   0  0  0  0  0  0  0  0  0  0  0  0
   18.1151    0.3929   -5.1083 C   0  0  0  0  0  0  0  0  0  0  0  0
   19.2180    0.1887   -5.9684 O   0  0  0  0  0  0  0  0  0  0  0  0
   18.5192    0.1197   -3.6841 C   0  0  0  0  0  0  0  0  0  0  0  0
   19.7937    0.6575   -3.3687 O   0  0  0  0  0  0  0  0  0  0  0  0
   17.4838    0.8963   -2.9138 C   0  0  0  0  0  0  0  0  0  0  0  0
   21.0340   -1.9797   -7.7649 H   0  0  0  0  0  0  0  0  0  0  0  0
   14.2550   -0.5429  -10.7625 H   0  0  0  0  0  0  0  0  0  0  0  0
   14.5497    3.0416   -7.5028 H   0  0  0  0  0  0  0  0  0  0  0  0
   19.7934    1.6121   -3.5406 H   0  0  0  0  0  0  0  0  0  0  0  0
   15.4486   -3.8341   -8.8142 N   0  0  0  0  0  0  0  0  0  0  0  0
   14.3845   -4.3847   -8.2190 C   0  0  0  0  0  0  0  0  0  0  0  0
   14.7164   -5.3778   -7.3923 N   0  0  0  0  0  0  0  0  0  0  0  0
   16.0647   -5.5056   -7.4631 C   0  0  0  0  0  0  0  0  0  0  0  0
   17.0937   -6.3773   -6.8554 C   0  0  0  0  0  0  0  0  0  0  0  0
   16.7935   -7.3665   -5.9642 O   0  0  0  0  0  0  0  0  0  0  0  0
   18.3911   -6.1564   -7.1991 N   0  0  0  0  0  0  0  0  0  0  0  0
   18.7874   -5.1990   -8.0990 C   0  0  0  0  0  0  0  0  0  0  0  0
   20.1016   -5.0763   -8.3715 N   0  0  0  0  0  0  0  0  0  0  0  0
   17.9012   -4.3557   -8.6810 N   0  0  0  0  0  0  0  0  0  0  0  0
   16.5535   -4.4736   -8.4101 C   0  0  0  0  0  0  0  0  0  0  0  0
   19.0847   -6.7146   -6.7789 H   0  0  0  0  0  0  0  0  0  0  0  0
   20.7504   -5.6862   -7.9516 H   0  0  0  0  0  0  0  0  0  0  0  0
   20.4127   -4.3768   -8.9905 H   0  0  0  0  0  0  0  0  0  0  0  0
   16.4196   -0.0504   -2.5413 N   0  0  0  0  0  0  0  0  0  0  0  0
   15.7842   -0.8737   -3.3991 C   0  0  0  0  0  0  0  0  0  0  0  0
   14.8552   -1.6185   -2.7447 N   0  0  0  0  0  0  0  0  0  0  0  0
   14.9277   -1.2741   -1.4466 C   0  0  0  0  0  0  0  0  0  0  0  0
   14.2187   -1.6864   -0.2285 C   0  0  0  0  0  0  0  0  0  0  0  0
   13.2564   -2.6177   -0.3410 O   0  0  0  0  0  0  0  0  0  0  0  0
   14.5530   -1.1557    0.9489 N   0  0  0  0  0  0  0  0  0  0  0  0
   15.5264   -0.2041    1.0209 C   0  0  0  0  0  0  0  0  0  0  0  0
   15.8235    0.3265    2.2299 N   0  0  0  0  0  0  0  0  0  0  0  0
   16.2076    0.2232   -0.0759 N   0  0  0  0  0  0  0  0  0  0  0  0
   15.9540   -0.2618   -1.3088 C   0  0  0  0  0  0  0  0  0  0  0  0
   14.0953   -1.4523    1.7685 H   0  0  0  0  0  0  0  0  0  0  0  0
   15.3380    0.0262    3.0320 H   0  0  0  0  0  0  0  0  0  0  0  0
   16.5251    1.0128    2.3073 H   0  0  0  0  0  0  0  0  0  0  0  0
  1  2  1  0  0  0
  3  1  2  0  0  0
  4  1  1  0  0  0
  5  4  1  0  0  0
  6  7  1  0  0  0
  6  5  1  0  0  0
  8  6  1  0  0  0
  9 13  1  0  0  0
  9  8  1  0  0  0
 10  8  1  0  0  0
 10 12  1  0  0  0
 11 10  1  0  0  0
 12  7  1  0  0  0
 12 29  1  0  0  0
 29 39  1  0  0  0
 29 30  1  0  0  0
 30 31  2  0  0  0
 32 31  1  0  0  0
 32 33  1  0  0  0
 33 34  2  0  0  0
 35 33  1  0  0  0
 36 35  1  0  0  0
 37 36  1  0  0  0
 38 36  2  0  0  0
 38 39  1  0  0  0
 39 32  2  0  0  0
 13 14  1  0  0  0
 13 16  1  0  0  0
 15 13  2  0  0  0
 17 16  1  0  0  0
 17 18  1  0  0  0
 18 19  1  0  0  0
 18 20  1  0  0  0
 19 24  1  0  0  0
 20 22  1  0  0  0
 21 20  1  0  0  0
 21  1  1  0  0  0
 22 23  1  0  0  0
 24 22  1  0  0  0
 24 43  1  0  0  0
 43 53  1  0  0  0
 44 45  2  0  0  0
 44 43  1  0  0  0
 45 46  1  0  0  0
 46 53  2  0  0  0
 46 47  1  0  0  0
 47 48  2  0  0  0
 47 49  1  0  0  0
 50 49  1  0  0  0
 50 51  1  0  0  0
 52 50  2  0  0  0
 53 52  1  0  0  0
  2 25  1  0  0  0
 11 26  1  0  0  0
 35 40  1  0  0  0
 37 41  1  0  0  0
 37 42  1  0  0  0
 14 27  1  0  0  0
 23 28  1  0  0  0
 49 54  1  0  0  0
 51 55  1  0  0  0
 51 56  1  0  0  0
M  END
> <minimizedAffinity>
-8.44554

$$$$
4ETZ_C2E_A_501


 56 62  0  0  0  0  0  0  0  0999 V2000
   19.1264   -0.0881   -6.0518 P   0  0  0  0  0  0  0  0  0  0  0  0
   20.4094    0.5140   -6.5878 O   0  0  0  0  0  0  0  0  0  0  0  0
   19.1968   -0.8966   -4.7782 O   0  0  0  0  0  0  0  0  0  0  0  0
   18.3996   -1.0154   -7.1017 O   0  0  0  0  0  0  0  0  0  0  0  0
   18.1349   -0.6200   -8.4543 C   0  0  0  0  0  0  0  0  0  0  0  0
   17.2388   -1.6562   -9.1322 C   0  0  0  0  0  0  0  0  0  0  0  0
   17.8840   -2.9195   -9.1064 O   0  0  0  0  0  0  0  0  0  0  0  0
   15.9245   -1.9383   -8.4001 C   0  0  0  0  0  0  0  0  0  0  0  0
   14.8667   -1.0483   -8.7153 O   0  0  0  0  0  0  0  0  0  0  0  0
   15.5619   -3.3570   -8.7645 C   0  0  0  0  0  0  0  0  0  0  0  0
   14.7818   -3.3979   -9.9618 O   0  0  0  0  0  0  0  0  0  0  0  0
   16.9217   -3.9928   -8.9516 C   0  0  0  0  0  0  0  0  0  0  0  0
   13.7471   -0.7092   -7.6070 P   0  0  0  0  0  0  0  0  0  0  0  0
   12.7345    0.1602   -8.3078 O   0  0  0  0  0  0  0  0  0  0  0  0
   13.2403   -1.9758   -6.9623 O   0  0  0  0  0  0  0  0  0  0  0  0
   14.5517    0.1718   -6.5609 O   0  0  0  0  0  0  0  0  0  0  0  0
   15.0317    1.4577   -6.8943 C   0  0  0  0  0  0  0  0  0  0  0  0
   15.7923    1.9454   -5.6874 C   0  0  0  0  0  0  0  0  0  0  0  0
   14.8861    1.9517   -4.5874 O   0  0  0  0  0  0  0  0  0  0  0  0
   16.8667    0.9842   -5.2357 C   0  0  0  0  0  0  0  0  0  0  0  0
   18.1155    1.1574   -5.8747 O   0  0  0  0  0  0  0  0  0  0  0  0
   17.0006    1.2712   -3.7640 C   0  0  0  0  0  0  0  0  0  0  0  0
   17.7948    2.4179   -3.5045 O   0  0  0  0  0  0  0  0  0  0  0  0
   15.5802    1.5935   -3.3805 C   0  0  0  0  0  0  0  0  0  0  0  0
   21.0661   -0.1879   -6.7182 H   0  0  0  0  0  0  0  0  0  0  0  0
   15.2667   -2.9601  -10.6788 H   0  0  0  0  0  0  0  0  0  0  0  0
   13.1785    0.9387   -8.6790 H   0  0  0  0  0  0  0  0  0  0  0  0
   17.4159    3.1841   -3.9630 H   0  0  0  0  0  0  0  0  0  0  0  0
   17.2863   -4.7148   -7.6965 N   0  0  0  0  0  0  0  0  0  0  0  0
   16.4866   -5.6060   -7.0998 C   0  0  0  0  0  0  0  0  0  0  0  0
   17.0084   -6.0874   -5.9702 N   0  0  0  0  0  0  0  0  0  0  0  0
   18.2238   -5.5033   -5.8261 C   0  0  0  0  0  0  0  0  0  0  0  0
   19.3355   -5.5644   -4.8520 C   0  0  0  0  0  0  0  0  0  0  0  0
   19.3052   -6.3598   -3.7432 O   0  0  0  0  0  0  0  0  0  0  0  0
   20.4184   -4.7735   -5.0798 N   0  0  0  0  0  0  0  0  0  0  0  0
   20.5468   -3.9560   -6.1747 C   0  0  0  0  0  0  0  0  0  0  0  0
   21.6706   -3.2232   -6.3027 N   0  0  0  0  0  0  0  0  0  0  0  0
   19.5620   -3.8387   -7.0975 N   0  0  0  0  0  0  0  0  0  0  0  0
   18.4081   -4.5853   -6.9767 C   0  0  0  0  0  0  0  0  0  0  0  0
   21.1511   -4.7882   -4.4225 H   0  0  0  0  0  0  0  0  0  0  0  0
   22.3897   -3.3042   -5.6353 H   0  0  0  0  0  0  0  0  0  0  0  0
   21.7724   -2.6069   -7.0637 H   0  0  0  0  0  0  0  0  0  0  0  0
   14.9853    0.3593   -2.8418 N   0  0  0  0  0  0  0  0  0  0  0  0
   14.3977   -0.6014   -3.5829 C   0  0  0  0  0  0  0  0  0  0  0  0
   13.9484   -1.6079   -2.7884 N   0  0  0  0  0  0  0  0  0  0  0  0
   14.2844   -1.2843   -1.5269 C   0  0  0  0  0  0  0  0  0  0  0  0
   14.1007   -1.9184   -0.2152 C   0  0  0  0  0  0  0  0  0  0  0  0
   13.4569   -3.0969   -0.1667 O   0  0  0  0  0  0  0  0  0  0  0  0
   14.5882   -1.3348    0.8811 N   0  0  0  0  0  0  0  0  0  0  0  0
   15.2247   -0.1327    0.7929 C   0  0  0  0  0  0  0  0  0  0  0  0
   15.6872    0.4387    1.9292 N   0  0  0  0  0  0  0  0  0  0  0  0
   15.4131    0.5048   -0.3936 N   0  0  0  0  0  0  0  0  0  0  0  0
   14.9706   -0.0095   -1.5595 C   0  0  0  0  0  0  0  0  0  0  0  0
   14.4878   -1.7739    1.7565 H   0  0  0  0  0  0  0  0  0  0  0  0
   15.5575   -0.0119    2.7949 H   0  0  0  0  0  0  0  0  0  0  0  0
   16.1531    1.3051    1.8902 H   0  0  0  0  0  0  0  0  0  0  0  0
  1  2  1  0  0  0
  3  1  2  0  0  0
  4  1  1  0  0  0
  5  4  1  0  0  0
  6  7  1  0  0  0
  6  5  1  0  0  0
  8  6  1  0  0  0
  9 13  1  0  0  0
  9  8  1  0  0  0
 10  8  1  0  0  0
 10 12  1  0  0  0
 11 10  1  0  0  0
 12  7  1  0  0  0
 12 29  1  0  0  0
 29 39  1  0  0  0
 29 30  1  0  0  0
 30 31  2  0  0  0
 32 31  1  0  0  0
 32 33  1  0  0  0
 33 34  2  0  0  0
 35 33  1  0  0  0
 36 35  1  0  0  0
 37 36  1  0  0  0
 38 36  2  0  0  0
 38 39  1  0  0  0
 39 32  2  0  0  0
 13 14  1  0  0  0
 13 16  1  0  0  0
 15 13  2  0  0  0
 17 16  1  0  0  0
 17 18  1  0  0  0
 18 19  1  0  0  0
 18 20  1  0  0  0
 19 24  1  0  0  0
 20 22  1  0  0  0
 21 20  1  0  0  0
 21  1  1  0  0  0
 22 23  1  0  0  0
 24 22  1  0  0  0
 24 43  1  0  0  0
 43 53  1  0  0  0
 44 45  2  0  0  0
 44 43  1  0  0  0
 45 46  1  0  0  0
 46 53  2  0  0  0
 46 47  1  0  0  0
 47 48  2  0  0  0
 47 49  1  0  0  0
 50 49  1  0  0  0
 50 51  1  0  0  0
 52 50  2  0  0  0
 53 52  1  0  0  0
  2 25  1  0  0  0
 11 26  1  0  0  0
 35 40  1  0  0  0
 37 41  1  0  0  0
 37 42  1  0  0  0
 14 27  1  0  0  0
 23 28  1  0  0  0
 49 54  1  0  0  0
 51 55  1  0  0  0
 51 56  1  0  0  0
M  END
> <minimizedAffinity>
-8.44193

$$$$
4ETZ_C2E_A_501


 56 62  0  0  0  0  0  0  0  0999 V2000
   14.4439   -0.6511   -5.1543 P   0  0  0  0  0  0  0  0  0  0  0  0
   12.9454   -0.8627   -5.0811 O   0  0  0  0  0  0  0  0  0  0  0  0
   15.2981   -1.7816   -5.6770 O   0  0  0  0  0  0  0  0  0  0  0  0
   15.0749   -0.2523   -3.7639 O   0  0  0  0  0  0  0  0  0  0  0  0
   14.5524    0.7904   -2.9299 C   0  0  0  0  0  0  0  0  0  0  0  0
   15.5123    1.0583   -1.7710 C   0  0  0  0  0  0  0  0  0  0  0  0
   15.6817   -0.1336   -1.0202 O   0  0  0  0  0  0  0  0  0  0  0  0
   16.9450    1.3918   -2.1944 C   0  0  0  0  0  0  0  0  0  0  0  0
   17.1727    2.7591   -2.4925 O   0  0  0  0  0  0  0  0  0  0  0  0
   17.8151    0.9379   -1.0482 C   0  0  0  0  0  0  0  0  0  0  0  0
   17.9721    1.9761   -0.0781 O   0  0  0  0  0  0  0  0  0  0  0  0
   17.0318   -0.2352   -0.5018 C   0  0  0  0  0  0  0  0  0  0  0  0
   18.2802    3.1668   -3.5898 P   0  0  0  0  0  0  0  0  0  0  0  0
   18.3355    4.6731   -3.5683 O   0  0  0  0  0  0  0  0  0  0  0  0
   19.5704    2.4254   -3.3399 O   0  0  0  0  0  0  0  0  0  0  0  0
   17.6122    2.6917   -4.9485 O   0  0  0  0  0  0  0  0  0  0  0  0
   16.4523    3.3162   -5.4580 C   0  0  0  0  0  0  0  0  0  0  0  0
   16.0831    2.5563   -6.7066 C   0  0  0  0  0  0  0  0  0  0  0  0
   17.1961    2.6291   -7.5937 O   0  0  0  0  0  0  0  0  0  0  0  0
   15.9320    1.0714   -6.4738 C   0  0  0  0  0  0  0  0  0  0  0  0
   14.6415    0.6706   -6.0591 O   0  0  0  0  0  0  0  0  0  0  0  0
   16.2476    0.4698   -7.8172 C   0  0  0  0  0  0  0  0  0  0  0  0
   15.1476    0.5303   -8.7112 O   0  0  0  0  0  0  0  0  0  0  0  0
   17.3149    1.4004   -8.3305 C   0  0  0  0  0  0  0  0  0  0  0  0
   12.7557   -1.6493   -4.5461 H   0  0  0  0  0  0  0  0  0  0  0  0
   17.0991    2.2641    0.2315 H   0  0  0  0  0  0  0  0  0  0  0  0
   17.4509    5.0317   -3.7407 H   0  0  0  0  0  0  0  0  0  0  0  0
   14.8649    1.4524   -8.8141 H   0  0  0  0  0  0  0  0  0  0  0  0
   17.6091   -1.4943   -1.0595 N   0  0  0  0  0  0  0  0  0  0  0  0
   17.2797   -1.9887   -2.2581 C   0  0  0  0  0  0  0  0  0  0  0  0
   17.8919   -3.1444   -2.5218 N   0  0  0  0  0  0  0  0  0  0  0  0
   18.6837   -3.4148   -1.4545 C   0  0  0  0  0  0  0  0  0  0  0  0
   19.6310   -4.4816   -1.0634 C   0  0  0  0  0  0  0  0  0  0  0  0
   19.9033   -5.5574   -1.8580 O   0  0  0  0  0  0  0  0  0  0  0  0
   20.2334   -4.3764    0.1516 N   0  0  0  0  0  0  0  0  0  0  0  0
   20.0365   -3.3239    1.0099 C   0  0  0  0  0  0  0  0  0  0  0  0
   20.6957   -3.3199    2.1854 N   0  0  0  0  0  0  0  0  0  0  0  0
   19.1718   -2.3212    0.7236 N   0  0  0  0  0  0  0  0  0  0  0  0
   18.4930   -2.3149   -0.4775 C   0  0  0  0  0  0  0  0  0  0  0  0
   20.8448   -5.0957    0.4309 H   0  0  0  0  0  0  0  0  0  0  0  0
   21.3254   -4.0458    2.3991 H   0  0  0  0  0  0  0  0  0  0  0  0
   20.5475   -2.5910    2.8304 H   0  0  0  0  0  0  0  0  0  0  0  0
   18.6150    0.7850   -8.0167 N   0  0  0  0  0  0  0  0  0  0  0  0
   19.5666    1.3440   -7.2423 C   0  0  0  0  0  0  0  0  0  0  0  0
   20.6470    0.5253   -7.1498 N   0  0  0  0  0  0  0  0  0  0  0  0
   20.3565   -0.5802   -7.8586 C   0  0  0  0  0  0  0  0  0  0  0  0
   21.0699   -1.8267   -8.1649 C   0  0  0  0  0  0  0  0  0  0  0  0
   22.3069   -1.9869   -7.6649 O   0  0  0  0  0  0  0  0  0  0  0  0
   20.4785   -2.7694   -8.9006 N   0  0  0  0  0  0  0  0  0  0  0  0
   19.2270   -2.5647   -9.4007 C   0  0  0  0  0  0  0  0  0  0  0  0
   18.6678   -3.5351  -10.1604 N   0  0  0  0  0  0  0  0  0  0  0  0
   18.5247   -1.4256   -9.1582 N   0  0  0  0  0  0  0  0  0  0  0  0
   19.0289   -0.4196   -8.4144 C   0  0  0  0  0  0  0  0  0  0  0  0
   20.9474   -3.6156   -9.0830 H   0  0  0  0  0  0  0  0  0  0  0  0
   19.1652   -4.3647  -10.3437 H   0  0  0  0  0  0  0  0  0  0  0  0
   17.7636   -3.4114  -10.5298 H   0  0  0  0  0  0  0  0  0  0  0  0
  1  2  1  0  0  0
  3  1  2  0  0  0
  4  1  1  0  0  0
  5  4  1  0  0  0
  6  7  1  0  0  0
  6  5  1  0  0  0
  8  6  1  0  0  0
  9 13  1  0  0  0
  9  8  1  0  0  0
 10  8  1  0  0  0
 10 12  1  0  0  0
 11 10  1  0  0  0
 12  7  1  0  0  0
 12 29  1  0  0  0
 29 39  1  0  0  0
 29 30  1  0  0  0
 30 31  2  0  0  0
 32 31  1  0  0  0
 32 33  1  0  0  0
 33 34  2  0  0  0
 35 33  1  0  0  0
 36 35  1  0  0  0
 37 36  1  0  0  0
 38 36  2  0  0  0
 38 39  1  0  0  0
 39 32  2  0  0  0
 13 14  1  0  0  0
 13 16  1  0  0  0
 15 13  2  0  0  0
 17 16  1  0  0  0
 17 18  1  0  0  0
 18 19  1  0  0  0
 18 20  1  0  0  0
 19 24  1  0  0  0
 20 22  1  0  0  0
 21 20  1  0  0  0
 21  1  1  0  0  0
 22 23  1  0  0  0
 24 22  1  0  0  0
 24 43  1  0  0  0
 43 53  1  0  0  0
 44 45  2  0  0  0
 44 43  1  0  0  0
 45 46  1  0  0  0
 46 53  2  0  0  0
 46 47  1  0  0  0
 47 48  2  0  0  0
 47 49  1  0  0  0
 50 49  1  0  0  0
 50 51  1  0  0  0
 52 50  2  0  0  0
 53 52  1  0  0  0
  2 25  1  0  0  0
 11 26  1  0  0  0
 35 40  1  0  0  0
 37 41  1  0  0  0
 37 42  1  0  0  0
 14 27  1  0  0  0
 23 28  1  0  0  0
 49 54  1  0  0  0
 51 55  1  0  0  0
 51 56  1  0  0  0
M  END
> <minimizedAffinity>
-8.18661

$$$$
4ETZ_C2E_A_501


 56 62  0  0  0  0  0  0  0  0999 V2000
   19.5107   -0.6432   -7.0898 P   0  0  0  0  0  0  0  0  0  0  0  0
   20.8668   -0.5459   -7.7587 O   0  0  0  0  0  0  0  0  0  0  0  0
   19.2019   -1.8817   -6.2826 O   0  0  0  0  0  0  0  0  0  0  0  0
   18.3137   -0.4922   -8.1071 O   0  0  0  0  0  0  0  0  0  0  0  0
   18.2234    0.5681   -9.0681 C   0  0  0  0  0  0  0  0  0  0  0  0
   16.8524    0.5414   -9.7432 C   0  0  0  0  0  0  0  0  0  0  0  0
   16.6689   -0.7142  -10.3777 O   0  0  0  0  0  0  0  0  0  0  0  0
   15.6657    0.6038   -8.7784 C   0  0  0  0  0  0  0  0  0  0  0  0
   15.2783    1.9135   -8.3979 O   0  0  0  0  0  0  0  0  0  0  0  0
   14.5388   -0.1074   -9.4863 C   0  0  0  0  0  0  0  0  0  0  0  0
   13.7892    0.7977  -10.3003 O   0  0  0  0  0  0  0  0  0  0  0  0
   15.2822   -1.1323  -10.3142 C   0  0  0  0  0  0  0  0  0  0  0  0
   14.6301    2.1676   -6.9446 P   0  0  0  0  0  0  0  0  0  0  0  0
   14.2406    3.6237   -6.9244 O   0  0  0  0  0  0  0  0  0  0  0  0
   13.5431    1.1587   -6.6665 O   0  0  0  0  0  0  0  0  0  0  0  0
   15.8645    1.9473   -5.9721 O   0  0  0  0  0  0  0  0  0  0  0  0
   16.9628    2.8354   -5.9615 C   0  0  0  0  0  0  0  0  0  0  0  0
   17.9499    2.2672   -4.9738 C   0  0  0  0  0  0  0  0  0  0  0  0
   17.2880    2.1771   -3.7148 O   0  0  0  0  0  0  0  0  0  0  0  0
   18.3204    0.8319   -5.2651 C   0  0  0  0  0  0  0  0  0  0  0  0
   19.3983    0.6753   -6.1660 O   0  0  0  0  0  0  0  0  0  0  0  0
   18.6982    0.2841   -3.9148 C   0  0  0  0  0  0  0  0  0  0  0  0
   20.0181    0.6394   -3.5346 O   0  0  0  0  0  0  0  0  0  0  0  0
   17.7416    1.0113   -3.0066 C   0  0  0  0  0  0  0  0  0  0  0  0
   20.9994   -1.3154   -8.3341 H   0  0  0  0  0  0  0  0  0  0  0  0
   14.3839    1.2348  -10.9297 H   0  0  0  0  0  0  0  0  0  0  0  0
   15.0193    4.1694   -7.1159 H   0  0  0  0  0  0  0  0  0  0  0  0
   20.1079    1.6052   -3.5424 H   0  0  0  0  0  0  0  0  0  0  0  0
   15.2627   -2.4363   -9.5871 N   0  0  0  0  0  0  0  0  0  0  0  0
   16.3690   -3.1049   -9.2426 C   0  0  0  0  0  0  0  0  0  0  0  0
   16.1005   -4.2643   -8.6394 N   0  0  0  0  0  0  0  0  0  0  0  0
   14.7497   -4.3549   -8.5600 C   0  0  0  0  0  0  0  0  0  0  0  0
   13.7685   -5.3230   -8.0230 C   0  0  0  0  0  0  0  0  0  0  0  0
   14.1353   -6.4895   -7.4166 O   0  0  0  0  0  0  0  0  0  0  0  0
   12.4482   -5.0279   -8.1648 N   0  0  0  0  0  0  0  0  0  0  0  0
   11.9845   -3.8729   -8.7431 C   0  0  0  0  0  0  0  0  0  0  0  0
   10.6528   -3.6814   -8.8206 N   0  0  0  0  0  0  0  0  0  0  0  0
   12.8255   -2.9507   -9.2699 N   0  0  0  0  0  0  0  0  0  0  0  0
   14.1906   -3.1362   -9.1947 C   0  0  0  0  0  0  0  0  0  0  0  0
   11.7884   -5.6793   -7.8341 H   0  0  0  0  0  0  0  0  0  0  0  0
   10.0366   -4.3481   -8.4395 H   0  0  0  0  0  0  0  0  0  0  0  0
   10.2960   -2.8749   -9.2582 H   0  0  0  0  0  0  0  0  0  0  0  0
   16.5930    0.1182   -2.7817 N   0  0  0  0  0  0  0  0  0  0  0  0
   15.9625   -0.5853   -3.7436 C   0  0  0  0  0  0  0  0  0  0  0  0
   14.9431   -1.3100   -3.2129 N   0  0  0  0  0  0  0  0  0  0  0  0
   14.9512   -1.0767   -1.8883 C   0  0  0  0  0  0  0  0  0  0  0  0
   14.1353   -1.5321   -0.7554 C   0  0  0  0  0  0  0  0  0  0  0  0
   13.1219   -2.3785   -1.0052 O   0  0  0  0  0  0  0  0  0  0  0  0
   14.4247   -1.1230    0.4810 N   0  0  0  0  0  0  0  0  0  0  0  0
   15.4533   -0.2539    0.6929 C   0  0  0  0  0  0  0  0  0  0  0  0
   15.7035    0.1552    1.9584 N   0  0  0  0  0  0  0  0  0  0  0  0
   16.2343    0.2087   -0.3198 N   0  0  0  0  0  0  0  0  0  0  0  0
   16.0321   -0.1564   -1.6025 C   0  0  0  0  0  0  0  0  0  0  0  0
   13.8937   -1.4499    1.2429 H   0  0  0  0  0  0  0  0  0  0  0  0
   15.1458   -0.1719    2.7009 H   0  0  0  0  0  0  0  0  0  0  0  0
   16.4432    0.7800    2.1366 H   0  0  0  0  0  0  0  0  0  0  0  0
  1  2  1  0  0  0
  3  1  2  0  0  0
  4  1  1  0  0  0
  5  4  1  0  0  0
  6  7  1  0  0  0
  6  5  1  0  0  0
  8  6  1  0  0  0
  9 13  1  0  0  0
  9  8  1  0  0  0
 10  8  1  0  0  0
 10 12  1  0  0  0
 11 10  1  0  0  0
 12  7  1  0  0  0
 12 29  1  0  0  0
 29 39  1  0  0  0
 29 30  1  0  0  0
 30 31  2  0  0  0
 32 31  1  0  0  0
 32 33  1  0  0  0
 33 34  2  0  0  0
 35 33  1  0  0  0
 36 35  1  0  0  0
 37 36  1  0  0  0
 38 36  2  0  0  0
 38 39  1  0  0  0
 39 32  2  0  0  0
 13 14  1  0  0  0
 13 16  1  0  0  0
 15 13  2  0  0  0
 17 16  1  0  0  0
 17 18  1  0  0  0
 18 19  1  0  0  0
 18 20  1  0  0  0
 19 24  1  0  0  0
 20 22  1  0  0  0
 21 20  1  0  0  0
 21  1  1  0  0  0
 22 23  1  0  0  0
 24 22  1  0  0  0
 24 43  1  0  0  0
 43 53  1  0  0  0
 44 45  2  0  0  0
 44 43  1  0  0  0
 45 46  1  0  0  0
 46 53  2  0  0  0
 46 47  1  0  0  0
 47 48  2  0  0  0
 47 49  1  0  0  0
 50 49  1  0  0  0
 50 51  1  0  0  0
 52 50  2  0  0  0
 53 52  1  0  0  0
  2 25  1  0  0  0
 11 26  1  0  0  0
 35 40  1  0  0  0
 37 41  1  0  0  0
 37 42  1  0  0  0
 14 27  1  0  0  0
 23 28  1  0  0  0
 49 54  1  0  0  0
 51 55  1  0  0  0
 51 56  1  0  0  0
M  END
> <minimizedAffinity>
-8.03327

$$$$
4ETZ_C2E_A_501


 56 62  0  0  0  0  0  0  0  0999 V2000
   15.3814    4.4985   -6.4099 P   0  0  0  0  0  0  0  0  0  0  0  0
   15.0101    5.9643   -6.3140 O   0  0  0  0  0  0  0  0  0  0  0  0
   14.2953    3.4727   -6.1886 O   0  0  0  0  0  0  0  0  0  0  0  0
   16.5491    4.0968   -5.4272 O   0  0  0  0  0  0  0  0  0  0  0  0
   17.7787    4.8268   -5.3221 C   0  0  0  0  0  0  0  0  0  0  0  0
   18.7658    4.0574   -4.4448 C   0  0  0  0  0  0  0  0  0  0  0  0
   18.1965    3.8655   -3.1594 O   0  0  0  0  0  0  0  0  0  0  0  0
   19.0430    2.6238   -4.9038 C   0  0  0  0  0  0  0  0  0  0  0  0
   20.0604    2.5006   -5.8837 O   0  0  0  0  0  0  0  0  0  0  0  0
   19.4076    1.8673   -3.6501 C   0  0  0  0  0  0  0  0  0  0  0  0
   20.8117    1.9442   -3.3922 O   0  0  0  0  0  0  0  0  0  0  0  0
   18.5970    2.5905   -2.5974 C   0  0  0  0  0  0  0  0  0  0  0  0
   19.9916    1.3080   -6.9653 P   0  0  0  0  0  0  0  0  0  0  0  0
   21.2673    1.4104   -7.7619 O   0  0  0  0  0  0  0  0  0  0  0  0
   19.7073   -0.0081   -6.2843 O   0  0  0  0  0  0  0  0  0  0  0  0
   18.7714    1.7424   -7.8820 O   0  0  0  0  0  0  0  0  0  0  0  0
   18.8411    2.8845   -8.7102 C   0  0  0  0  0  0  0  0  0  0  0  0
   17.4884    3.0093   -9.3641 C   0  0  0  0  0  0  0  0  0  0  0  0
   17.2527    1.8042  -10.0875 O   0  0  0  0  0  0  0  0  0  0  0  0
   16.3503    3.0365   -8.3710 C   0  0  0  0  0  0  0  0  0  0  0  0
   16.0346    4.3219   -7.8751 O   0  0  0  0  0  0  0  0  0  0  0  0
   15.1863    2.4898   -9.1536 C   0  0  0  0  0  0  0  0  0  0  0  0
   14.5913    3.4653   -9.9947 O   0  0  0  0  0  0  0  0  0  0  0  0
   15.8566    1.4660  -10.0317 C   0  0  0  0  0  0  0  0  0  0  0  0
   14.6082    6.1401   -5.4488 H   0  0  0  0  0  0  0  0  0  0  0  0
   21.0796    2.8748   -3.3358 H   0  0  0  0  0  0  0  0  0  0  0  0
   21.3368    2.2973   -8.1484 H   0  0  0  0  0  0  0  0  0  0  0  0
   15.2614    3.8252  -10.5966 H   0  0  0  0  0  0  0  0  0  0  0  0
   17.3421    1.8201   -2.3505 N   0  0  0  0  0  0  0  0  0  0  0  0
   16.3481    1.7251   -3.2408 C   0  0  0  0  0  0  0  0  0  0  0  0
   15.3129    1.0207   -2.7802 N   0  0  0  0  0  0  0  0  0  0  0  0
   15.6496    0.6096   -1.5325 C   0  0  0  0  0  0  0  0  0  0  0  0
   15.0224   -0.1958   -0.4618 C   0  0  0  0  0  0  0  0  0  0  0  0
   13.7803   -0.7485   -0.5825 O   0  0  0  0  0  0  0  0  0  0  0  0
   15.7227   -0.3670    0.6916 N   0  0  0  0  0  0  0  0  0  0  0  0
   16.9835    0.1343    0.8978 C   0  0  0  0  0  0  0  0  0  0  0  0
   17.5870   -0.1069    2.0785 N   0  0  0  0  0  0  0  0  0  0  0  0
   17.6110    0.8934   -0.0323 N   0  0  0  0  0  0  0  0  0  0  0  0
   17.0027    1.1452   -1.2448 C   0  0  0  0  0  0  0  0  0  0  0  0
   15.3016   -0.8792    1.4193 H   0  0  0  0  0  0  0  0  0  0  0  0
   17.1360   -0.6579    2.7584 H   0  0  0  0  0  0  0  0  0  0  0  0
   18.4789    0.2679    2.2611 H   0  0  0  0  0  0  0  0  0  0  0  0
   15.7126    0.1613   -9.3649 N   0  0  0  0  0  0  0  0  0  0  0  0
   16.6810   -0.7728   -9.2798 C   0  0  0  0  0  0  0  0  0  0  0  0
   16.2327   -1.8634   -8.6047 N   0  0  0  0  0  0  0  0  0  0  0  0
   14.9669   -1.5971   -8.2366 C   0  0  0  0  0  0  0  0  0  0  0  0
   13.9302   -2.3317   -7.5003 C   0  0  0  0  0  0  0  0  0  0  0  0
   14.2245   -3.5646   -7.0540 O   0  0  0  0  0  0  0  0  0  0  0  0
   12.7453   -1.7626   -7.2718 N   0  0  0  0  0  0  0  0  0  0  0  0
   12.4799   -0.5146   -7.7515 C   0  0  0  0  0  0  0  0  0  0  0  0
   11.2595    0.0216   -7.5180 N   0  0  0  0  0  0  0  0  0  0  0  0
   13.3982    0.2066   -8.4489 N   0  0  0  0  0  0  0  0  0  0  0  0
   14.6290   -0.2744   -8.7196 C   0  0  0  0  0  0  0  0  0  0  0  0
   12.0605   -2.2456   -6.7550 H   0  0  0  0  0  0  0  0  0  0  0  0
   10.5854   -0.4896   -7.0145 H   0  0  0  0  0  0  0  0  0  0  0  0
   11.0457    0.9229   -7.8516 H   0  0  0  0  0  0  0  0  0  0  0  0
  1  2  1  0  0  0
  3  1  2  0  0  0
  4  1  1  0  0  0
  5  4  1  0  0  0
  6  7  1  0  0  0
  6  5  1  0  0  0
  8  6  1  0  0  0
  9 13  1  0  0  0
  9  8  1  0  0  0
 10  8  1  0  0  0
 10 12  1  0  0  0
 11 10  1  0  0  0
 12  7  1  0  0  0
 12 29  1  0  0  0
 29 39  1  0  0  0
 29 30  1  0  0  0
 30 31  2  0  0  0
 32 31  1  0  0  0
 32 33  1  0  0  0
 33 34  2  0  0  0
 35 33  1  0  0  0
 36 35  1  0  0  0
 37 36  1  0  0  0
 38 36  2  0  0  0
 38 39  1  0  0  0
 39 32  2  0  0  0
 13 14  1  0  0  0
 13 16  1  0  0  0
 15 13  2  0  0  0
 17 16  1  0  0  0
 17 18  1  0  0  0
 18 19  1  0  0  0
 18 20  1  0  0  0
 19 24  1  0  0  0
 20 22  1  0  0  0
 21 20  1  0  0  0
 21  1  1  0  0  0
 22 23  1  0  0  0
 24 22  1  0  0  0
 24 43  1  0  0  0
 43 53  1  0  0  0
 44 45  2  0  0  0
 44 43  1  0  0  0
 45 46  1  0  0  0
 46 53  2  0  0  0
 46 47  1  0  0  0
 47 48  2  0  0  0
 47 49  1  0  0  0
 50 49  1  0  0  0
 50 51  1  0  0  0
 52 50  2  0  0  0
 53 52  1  0  0  0
  2 25  1  0  0  0
 11 26  1  0  0  0
 35 40  1  0  0  0
 37 41  1  0  0  0
 37 42  1  0  0  0
 14 27  1  0  0  0
 23 28  1  0  0  0
 49 54  1  0  0  0
 51 55  1  0  0  0
 51 56  1  0  0  0
M  END
> <minimizedAffinity>
-7.91987

$$$$
4ETZ_C2E_A_501


 56 62  0  0  0  0  0  0  0  0999 V2000
   17.6876   -0.3451   -8.1049 P   0  0  0  0  0  0  0  0  0  0  0  0
   18.9002   -0.0573   -8.9666 O   0  0  0  0  0  0  0  0  0  0  0  0
   17.8487   -1.2975   -6.9439 O   0  0  0  0  0  0  0  0  0  0  0  0
   16.4625   -0.8936   -8.9348 O   0  0  0  0  0  0  0  0  0  0  0  0
   15.9781   -0.2711  -10.1322 C   0  0  0  0  0  0  0  0  0  0  0  0
   14.6647   -0.9241  -10.5619 C   0  0  0  0  0  0  0  0  0  0  0  0
   14.8817   -2.3090  -10.7809 O   0  0  0  0  0  0  0  0  0  0  0  0
   13.5721   -0.9236   -9.4899 C   0  0  0  0  0  0  0  0  0  0  0  0
   12.7876    0.2565   -9.4426 O   0  0  0  0  0  0  0  0  0  0  0  0
   12.7157   -2.1284   -9.7931 C   0  0  0  0  0  0  0  0  0  0  0  0
   11.6694   -1.7990  -10.7098 O   0  0  0  0  0  0  0  0  0  0  0  0
   13.7190   -3.0856  -10.3975 C   0  0  0  0  0  0  0  0  0  0  0  0
   12.1609    0.7470   -8.0413 P   0  0  0  0  0  0  0  0  0  0  0  0
   11.3085    1.9444   -8.3765 O   0  0  0  0  0  0  0  0  0  0  0  0
   11.4878   -0.4020   -7.3318 O   0  0  0  0  0  0  0  0  0  0  0  0
   13.4421    1.2305   -7.2397 O   0  0  0  0  0  0  0  0  0  0  0  0
   14.1797    2.3655   -7.6432 C   0  0  0  0  0  0  0  0  0  0  0  0
   15.3452    2.4659   -6.6922 C   0  0  0  0  0  0  0  0  0  0  0  0
   14.8114    2.5815   -5.3758 O   0  0  0  0  0  0  0  0  0  0  0  0
   16.1599    1.1960   -6.6170 C   0  0  0  0  0  0  0  0  0  0  0  0
   17.1846    1.0978   -7.5857 O   0  0  0  0  0  0  0  0  0  0  0  0
   16.7620    1.2443   -5.2381 C   0  0  0  0  0  0  0  0  0  0  0  0
   17.9037    2.0842   -5.1733 O   0  0  0  0  0  0  0  0  0  0  0  0
   15.6613    1.8945   -4.4418 C   0  0  0  0  0  0  0  0  0  0  0  0
   19.2552   -0.8906   -9.3138 H   0  0  0  0  0  0  0  0  0  0  0  0
   12.0535   -1.4242  -11.5178 H   0  0  0  0  0  0  0  0  0  0  0  0
   11.8503    2.6108   -8.8274 H   0  0  0  0  0  0  0  0  0  0  0  0
   17.6651    2.9773   -5.4672 H   0  0  0  0  0  0  0  0  0  0  0  0
   14.1706   -4.0344   -9.3367 N   0  0  0  0  0  0  0  0  0  0  0  0
   13.3295   -4.7234   -8.5573 C   0  0  0  0  0  0  0  0  0  0  0  0
   13.9647   -5.4738   -7.6553 N   0  0  0  0  0  0  0  0  0  0  0  0
   15.2919   -5.2898   -7.8650 C   0  0  0  0  0  0  0  0  0  0  0  0
   16.5517   -5.7926   -7.2750 C   0  0  0  0  0  0  0  0  0  0  0  0
   16.5812   -6.6781   -6.2368 O   0  0  0  0  0  0  0  0  0  0  0  0
   17.7206   -5.3271   -7.7919 N   0  0  0  0  0  0  0  0  0  0  0  0
   17.7911   -4.4508   -8.8457 C   0  0  0  0  0  0  0  0  0  0  0  0
   19.0064   -4.0649   -9.2820 N   0  0  0  0  0  0  0  0  0  0  0  0
   16.6782   -3.9378   -9.4234 N   0  0  0  0  0  0  0  0  0  0  0  0
   15.4292   -4.3272   -8.9854 C   0  0  0  0  0  0  0  0  0  0  0  0
   18.5633   -5.6362   -7.3875 H   0  0  0  0  0  0  0  0  0  0  0  0
   19.8188   -4.4342   -8.8661 H   0  0  0  0  0  0  0  0  0  0  0  0
   19.0819   -3.4138  -10.0165 H   0  0  0  0  0  0  0  0  0  0  0  0
   14.8890    0.8141   -3.8064 N   0  0  0  0  0  0  0  0  0  0  0  0
   14.0097    0.0158   -4.4444 C   0  0  0  0  0  0  0  0  0  0  0  0
   13.4628   -0.8777   -3.5792 N   0  0  0  0  0  0  0  0  0  0  0  0
   14.0299   -0.6524   -2.3806 C   0  0  0  0  0  0  0  0  0  0  0  0
   13.8916   -1.2478   -1.0454 C   0  0  0  0  0  0  0  0  0  0  0  0
   13.0176   -2.2567   -0.8899 O   0  0  0  0  0  0  0  0  0  0  0  0
   14.6396   -0.8001   -0.0354 N   0  0  0  0  0  0  0  0  0  0  0  0
   15.5064    0.2339   -0.2297 C   0  0  0  0  0  0  0  0  0  0  0  0
   16.2329    0.6748    0.8235 N   0  0  0  0  0  0  0  0  0  0  0  0
   15.6670    0.8299   -1.4415 N   0  0  0  0  0  0  0  0  0  0  0  0
   14.9682    0.4408   -2.5277 C   0  0  0  0  0  0  0  0  0  0  0  0
   14.5653   -1.2178    0.8529 H   0  0  0  0  0  0  0  0  0  0  0  0
   16.1265    0.2523    1.7064 H   0  0  0  0  0  0  0  0  0  0  0  0
   16.8679    1.4181    0.7068 H   0  0  0  0  0  0  0  0  0  0  0  0
  1  2  1  0  0  0
  3  1  2  0  0  0
  4  1  1  0  0  0
  5  4  1  0  0  0
  6  7  1  0  0  0
  6  5  1  0  0  0
  8  6  1  0  0  0
  9 13  1  0  0  0
  9  8  1  0  0  0
 10  8  1  0  0  0
 10 12  1  0  0  0
 11 10  1  0  0  0
 12  7  1  0  0  0
 12 29  1  0  0  0
 29 39  1  0  0  0
 29 30  1  0  0  0
 30 31  2  0  0  0
 32 31  1  0  0  0
 32 33  1  0  0  0
 33 34  2  0  0  0
 35 33  1  0  0  0
 36 35  1  0  0  0
 37 36  1  0  0  0
 38 36  2  0  0  0
 38 39  1  0  0  0
 39 32  2  0  0  0
 13 14  1  0  0  0
 13 16  1  0  0  0
 15 13  2  0  0  0
 17 16  1  0  0  0
 17 18  1  0  0  0
 18 19  1  0  0  0
 18 20  1  0  0  0
 19 24  1  0  0  0
 20 22  1  0  0  0
 21 20  1  0  0  0
 21  1  1  0  0  0
 22 23  1  0  0  0
 24 22  1  0  0  0
 24 43  1  0  0  0
 43 53  1  0  0  0
 44 45  2  0  0  0
 44 43  1  0  0  0
 45 46  1  0  0  0
 46 53  2  0  0  0
 46 47  1  0  0  0
 47 48  2  0  0  0
 47 49  1  0  0  0
 50 49  1  0  0  0
 50 51  1  0  0  0
 52 50  2  0  0  0
 53 52  1  0  0  0
  2 25  1  0  0  0
 11 26  1  0  0  0
 35 40  1  0  0  0
 37 41  1  0  0  0
 37 42  1  0  0  0
 14 27  1  0  0  0
 23 28  1  0  0  0
 49 54  1  0  0  0
 51 55  1  0  0  0
 51 56  1  0  0  0
M  END
> <minimizedAffinity>
-7.62326

$$$$
4ETZ_C2E_A_501


 56 62  0  0  0  0  0  0  0  0999 V2000
   14.0656   -0.4840   -4.0357 P   0  0  0  0  0  0  0  0  0  0  0  0
   12.9886   -1.2353   -3.2798 O   0  0  0  0  0  0  0  0  0  0  0  0
   14.2314    0.9916   -3.7605 O   0  0  0  0  0  0  0  0  0  0  0  0
   13.9146   -0.6077   -5.6018 O   0  0  0  0  0  0  0  0  0  0  0  0
   13.7306   -1.8571   -6.2808 C   0  0  0  0  0  0  0  0  0  0  0  0
   13.8333   -1.6470   -7.7912 C   0  0  0  0  0  0  0  0  0  0  0  0
   12.8457   -0.7144   -8.2010 O   0  0  0  0  0  0  0  0  0  0  0  0
   15.1318   -0.9826   -8.2553 C   0  0  0  0  0  0  0  0  0  0  0  0
   16.2134   -1.8752   -8.4644 O   0  0  0  0  0  0  0  0  0  0  0  0
   14.7756   -0.2592   -9.5308 C   0  0  0  0  0  0  0  0  0  0  0  0
   14.9298   -1.1127  -10.6672 O   0  0  0  0  0  0  0  0  0  0  0  0
   13.3285    0.1104   -9.2911 C   0  0  0  0  0  0  0  0  0  0  0  0
   17.7257   -1.3721   -8.2258 P   0  0  0  0  0  0  0  0  0  0  0  0
   18.6054   -2.5224   -8.6448 O   0  0  0  0  0  0  0  0  0  0  0  0
   17.9551   -0.0448   -8.9058 O   0  0  0  0  0  0  0  0  0  0  0  0
   17.7932   -1.2154   -6.6483 O   0  0  0  0  0  0  0  0  0  0  0  0
   17.7196   -2.3362   -5.7919 C   0  0  0  0  0  0  0  0  0  0  0  0
   17.7472   -1.7907   -4.3867 C   0  0  0  0  0  0  0  0  0  0  0  0
   18.9566   -1.0510   -4.2412 O   0  0  0  0  0  0  0  0  0  0  0  0
   16.6813   -0.7505   -4.1337 C   0  0  0  0  0  0  0  0  0  0  0  0
   15.4362   -1.2749   -3.7184 O   0  0  0  0  0  0  0  0  0  0  0  0
   17.2700    0.0986   -3.0388 C   0  0  0  0  0  0  0  0  0  0  0  0
   17.1229   -0.4904   -1.7564 O   0  0  0  0  0  0  0  0  0  0  0  0
   18.7345    0.0863   -3.3904 C   0  0  0  0  0  0  0  0  0  0  0  0
   12.1308   -0.8078   -3.4291 H   0  0  0  0  0  0  0  0  0  0  0  0
   14.3899   -1.9098  -10.5486 H   0  0  0  0  0  0  0  0  0  0  0  0
   18.3633   -3.3149   -8.1406 H   0  0  0  0  0  0  0  0  0  0  0  0
   17.5317   -1.3701   -1.7559 H   0  0  0  0  0  0  0  0  0  0  0  0
   13.2710    1.5242   -8.8141 N   0  0  0  0  0  0  0  0  0  0  0  0
   12.1272    2.1763   -8.5771 C   0  0  0  0  0  0  0  0  0  0  0  0
   12.3266    3.4405   -8.2002 N   0  0  0  0  0  0  0  0  0  0  0  0
   13.6695    3.6256   -8.1630 C   0  0  0  0  0  0  0  0  0  0  0  0
   14.5917    4.7331   -7.8292 C   0  0  0  0  0  0  0  0  0  0  0  0
   14.1565    5.9665   -7.4388 O   0  0  0  0  0  0  0  0  0  0  0  0
   15.9268    4.4974   -7.9388 N   0  0  0  0  0  0  0  0  0  0  0  0
   16.4582    3.2864   -8.3054 C   0  0  0  0  0  0  0  0  0  0  0  0
   17.7988    3.1649   -8.3708 N   0  0  0  0  0  0  0  0  0  0  0  0
   15.6732    2.2343   -8.6402 N   0  0  0  0  0  0  0  0  0  0  0  0
   14.2997    2.3475   -8.5752 C   0  0  0  0  0  0  0  0  0  0  0  0
   16.5467    5.2371   -7.7442 H   0  0  0  0  0  0  0  0  0  0  0  0
   18.3744    3.9260   -8.1288 H   0  0  0  0  0  0  0  0  0  0  0  0
   18.2024    2.3150   -8.6607 H   0  0  0  0  0  0  0  0  0  0  0  0
   19.0065    1.3120   -4.1592 N   0  0  0  0  0  0  0  0  0  0  0  0
   19.3680    1.3442   -5.4577 C   0  0  0  0  0  0  0  0  0  0  0  0
   19.5463    2.6263   -5.8708 N   0  0  0  0  0  0  0  0  0  0  0  0
   19.2655    3.4146   -4.8178 C   0  0  0  0  0  0  0  0  0  0  0  0
   19.2612    4.8647   -4.5866 C   0  0  0  0  0  0  0  0  0  0  0  0
   19.6061    5.6691   -5.6064 O   0  0  0  0  0  0  0  0  0  0  0  0
   18.8990    5.3488   -3.3974 N   0  0  0  0  0  0  0  0  0  0  0  0
   18.5676    4.5001   -2.3834 C   0  0  0  0  0  0  0  0  0  0  0  0
   18.2258    5.0275   -1.1848 N   0  0  0  0  0  0  0  0  0  0  0  0
   18.5650    3.1489   -2.5379 N   0  0  0  0  0  0  0  0  0  0  0  0
   18.9018    2.5623   -3.7050 C   0  0  0  0  0  0  0  0  0  0  0  0
   18.8708    6.3220   -3.2517 H   0  0  0  0  0  0  0  0  0  0  0  0
   18.2236    6.0039   -1.0592 H   0  0  0  0  0  0  0  0  0  0  0  0
   17.9794    4.4346   -0.4384 H   0  0  0  0  0  0  0  0  0  0  0  0
  1  2  1  0  0  0
  3  1  2  0  0  0
  4  1  1  0  0  0
  5  4  1  0  0  0
  6  7  1  0  0  0
  6  5  1  0  0  0
  8  6  1  0  0  0
  9 13  1  0  0  0
  9  8  1  0  0  0
 10  8  1  0  0  0
 10 12  1  0  0  0
 11 10  1  0  0  0
 12  7  1  0  0  0
 12 29  1  0  0  0
 29 39  1  0  0  0
 29 30  1  0  0  0
 30 31  2  0  0  0
 32 31  1  0  0  0
 32 33  1  0  0  0
 33 34  2  0  0  0
 35 33  1  0  0  0
 36 35  1  0  0  0
 37 36  1  0  0  0
 38 36  2  0  0  0
 38 39  1  0  0  0
 39 32  2  0  0  0
 13 14  1  0  0  0
 13 16  1  0  0  0
 15 13  2  0  0  0
 17 16  1  0  0  0
 17 18  1  0  0  0
 18 19  1  0  0  0
 18 20  1  0  0  0
 19 24  1  0  0  0
 20 22  1  0  0  0
 21 20  1  0  0  0
 21  1  1  0  0  0
 22 23  1  0  0  0
 24 22  1  0  0  0
 24 43  1  0  0  0
 43 53  1  0  0  0
 44 45  2  0  0  0
 44 43  1  0  0  0
 45 46  1  0  0  0
 46 53  2  0  0  0
 46 47  1  0  0  0
 47 48  2  0  0  0
 47 49  1  0  0  0
 50 49  1  0  0  0
 50 51  1  0  0  0
 52 50  2  0  0  0
 53 52  1  0  0  0
  2 25  1  0  0  0
 11 26  1  0  0  0
 35 40  1  0  0  0
 37 41  1  0  0  0
 37 42  1  0  0  0
 14 27  1  0  0  0
 23 28  1  0  0  0
 49 54  1  0  0  0
 51 55  1  0  0  0
 51 56  1  0  0  0
M  END
> <minimizedAffinity>
-7.56569

$$$$
