4ETZ_C2E_A_501
  RCSB PDB12061712263D
Coordinates from PDB:4ETZ:A:501 Model:1 without hydrogens
 46 52  0  0  0  0            999 V2000
   14.3220   -1.9770   -7.3880   P 0  0  0  0  0  0  0  0  0  0  0  0
   13.3200   -1.5670   -8.4480   O 0  0  0  0  0  0  0  0  0  0  0  0
   13.9960   -3.1720   -6.5240   O 0  0  0  0  0  0  0  0  0  0  0  0
   14.6630   -0.8090   -6.3830   O 0  0  0  0  0  0  0  0  0  0  0  0
   15.0260    0.5130   -6.8030   C 0  0  0  0  0  0  0  0  0  0  0  0
   15.4940    1.3300   -5.5990   C 0  0  0  0  0  0  0  0  0  0  0  0
   14.4500    1.3880   -4.6400   O 0  0  0  0  0  0  0  0  0  0  0  0
   16.6400    0.6970   -4.8060   C 0  0  0  0  0  0  0  0  0  0  0  0
   17.9360    0.9830   -5.3050   O 0  0  0  0  0  0  0  0  0  0  0  0
   16.4800    1.2100   -3.3960   C 0  0  0  0  0  0  0  0  0  0  0  0
   17.1770    2.4450   -3.2150   O 0  0  0  0  0  0  0  0  0  0  0  0
   14.9810    1.3840   -3.2910   C 0  0  0  0  0  0  0  0  0  0  0  0
   14.4090    0.1840   -2.6110   N 0  0  0  0  0  0  0  0  0  0  0  0
   13.6570   -0.7290   -3.2360   C 0  0  0  0  0  0  0  0  0  0  0  0
   13.2250   -1.6870   -2.4140   N 0  0  0  0  0  0  0  0  0  0  0  0
   13.7370   -1.4060   -1.1900   C 0  0  0  0  0  0  0  0  0  0  0  0
   13.6950   -2.0160    0.1570   C 0  0  0  0  0  0  0  0  0  0  0  0
   13.0070   -3.1630    0.4290   O 0  0  0  0  0  0  0  0  0  0  0  0
   14.3630   -1.3820    1.1580   N 0  0  0  0  0  0  0  0  0  0  0  0
   15.0960   -0.2360    0.9770   C 0  0  0  0  0  0  0  0  0  0  0  0
   15.7260    0.3000    2.0410   N 0  0  0  0  0  0  0  0  0  0  0  0
   15.1650    0.3850   -0.2250   N 0  0  0  0  0  0  0  0  0  0  0  0
   14.5250   -0.1560   -1.3210   C 0  0  0  0  0  0  0  0  0  0  0  0
   19.1220   -0.0920   -5.1190   P 0  0  0  0  0  0  0  0  0  0  0  0
   20.3620    0.5770   -5.6550   O 0  0  0  0  0  0  0  0  0  0  0  0
   19.1670   -0.5890   -3.6950   O 0  0  0  0  0  0  0  0  0  0  0  0
   18.6920   -1.2560   -6.1080   O 0  0  0  0  0  0  0  0  0  0  0  0
   18.6840   -1.0690   -7.5080   C 0  0  0  0  0  0  0  0  0  0  0  0
   18.1610   -2.3540   -8.0980   C 0  0  0  0  0  0  0  0  0  0  0  0
   19.0310   -3.4010   -7.6760   O 0  0  0  0  0  0  0  0  0  0  0  0
   16.8270   -2.7700   -7.5240   C 0  0  0  0  0  0  0  0  0  0  0  0
   15.7060   -2.2160   -8.1830   O 0  0  0  0  0  0  0  0  0  0  0  0
   16.8260   -4.2670   -7.6830   C 0  0  0  0  0  0  0  0  0  0  0  0
   16.4850   -4.6730   -8.9990   O 0  0  0  0  0  0  0  0  0  0  0  0
   18.2760   -4.6040   -7.4540   C 0  0  0  0  0  0  0  0  0  0  0  0
   18.4130   -4.9940   -6.0410   N 0  0  0  0  0  0  0  0  0  0  0  0
   18.9180   -4.2080   -5.0690   C 0  0  0  0  0  0  0  0  0  0  0  0
   18.9100   -4.8600   -3.8770   N 0  0  0  0  0  0  0  0  0  0  0  0
   18.3650   -6.0690   -4.1010   C 0  0  0  0  0  0  0  0  0  0  0  0
   18.0700   -7.2390   -3.2640   C 0  0  0  0  0  0  0  0  0  0  0  0
   18.3850   -7.1790   -1.9590   O 0  0  0  0  0  0  0  0  0  0  0  0
   17.4840   -8.3110   -3.8000   N 0  0  0  0  0  0  0  0  0  0  0  0
   17.1910   -8.3390   -5.1310   C 0  0  0  0  0  0  0  0  0  0  0  0
   16.6160   -9.4520   -5.6430   N 0  0  0  0  0  0  0  0  0  0  0  0
   17.4520   -7.2890   -5.9550   N 0  0  0  0  0  0  0  0  0  0  0  0
   18.0290   -6.1550   -5.5070   C 0  0  0  0  0  0  0  0  0  0  0  0
  1  2  1  0  0  0  0
  3  1  2  0  0  0  0
  4  1  1  0  0  0  0
  5  4  1  0  0  0  0
  6  7  1  0  0  0  0
  6  5  1  0  0  0  0
  8  6  1  0  0  0  0
  9 24  1  0  0  0  0
  9  8  1  0  0  0  0
 10  8  1  0  0  0  0
 10 12  1  0  0  0  0
 11 10  1  0  0  0  0
 12  7  1  0  0  0  0
 12 13  1  0  0  0  0
 13 23  1  0  0  0  0
 13 14  1  0  0  0  0
 14 15  2  0  0  0  0
 16 15  1  0  0  0  0
 16 17  1  0  0  0  0
 17 18  2  0  0  0  0
 19 17  1  0  0  0  0
 20 19  1  0  0  0  0
 21 20  1  0  0  0  0
 22 20  2  0  0  0  0
 22 23  1  0  0  0  0
 23 16  2  0  0  0  0
 24 25  1  0  0  0  0
 24 27  1  0  0  0  0
 26 24  2  0  0  0  0
 28 27  1  0  0  0  0
 28 29  1  0  0  0  0
 29 30  1  0  0  0  0
 29 31  1  0  0  0  0
 30 35  1  0  0  0  0
 31 33  1  0  0  0  0
 32 31  1  0  0  0  0
 32  1  1  0  0  0  0
 33 34  1  0  0  0  0
 35 33  1  0  0  0  0
 35 36  1  0  0  0  0
 36 46  1  0  0  0  0
 37 38  2  0  0  0  0
 37 36  1  0  0  0  0
 38 39  1  0  0  0  0
 39 46  2  0  0  0  0
 39 40  1  0  0  0  0
 40 41  2  0  0  0  0
 40 42  1  0  0  0  0
 43 42  1  0  0  0  0
 43 44  1  0  0  0  0
 45 43  2  0  0  0  0
 46 45  1  0  0  0  0
A    1
P1
A    2
O2P
A    3
O1P
A    4
O5'
A    5
C5'
A    6
C4'
A    7
O4'
A    8
C3'
A    9
O3'
A   10
C2'
A   11
O2'
A   12
C1'
A   13
N9
A   14
C8
A   15
N7
A   16
C5
A   17
C6
A   18
O6
A   19
N1
A   20
C2
A   21
N2
A   22
N3
A   23
C4
A   24
P11
A   25
O21
A   26
O11
A   27
O5A
A   28
C5A
A   29
C4A
A   30
O4A
A   31
C3A
A   32
O3A
A   33
C2A
A   34
O2A
A   35
C1A
A   36
N91
A   37
C81
A   38
N71
A   39
C51
A   40
C61
A   41
O61
A   42
N11
A   43
C21
A   44
N21
A   45
N31
A   46
C41
M  END
>  <InstanceId>
4ETZ_C2E_A_501

>  <ChemCompId>
C2E

>  <PdbId>
4ETZ

>  <ChainId>
A

>  <ResidueNumber>
501

>  <InsertionCode>


>  <Model>
1

>  <AltIds>


>  <MissingHeavyAtoms>
0

>  <ObservedFormula>
C20 N10 O14 P2

>  <Name>
9,9'-[(2R,3R,3aS,5S,7aR,9R,10R,10aS,12S,14aR)-3,5,10,12-tetrahydroxy-5,12-dioxidooctahydro-2H,7H-difuro[3,2-d:3',2'-j][1,3,7,9,2,8]tetraoxadiphosphacyclododecine-2,9-diyl]bis(2-amino-1,9-dihydro-6H-purin-6-one)

>  <SystematicName>


>  <Synonyms>
c-di-GMP, Cyclic diguanosine monophosphate

>  <Type>
NON-POLYMER

>  <Formula>
C20 H24 N10 O14 P2

>  <MolecularWeight>
690.411

>  <ModifiedDate>
2011-06-04

>  <Parent>


>  <OneLetterCode>


>  <SubcomponentList>


>  <AmbiguousFlag>
N

>  <InChI>
InChI=1S/C20H24N10O14P2/c21-19-25-13-7(15(33)27-19)23-3-29(13)17-9(31)11-5(41-17)1-39-45(35,36)44-12-6(2-40-46(37,38)43-11)42-18(10(12)32)30-4-24-8-14(30)26-20(22)28-16(8)34/h3-6,9-12,17-18,31-32H,1-2H2,(H,35,36)(H,37,38)(H3,21,25,27,33)(H3,22,26,28,34)/t5-,6-,9-,10-,11-,12-,17-,18-/m1/s1

>  <InChIKey>
PKFDLKSEZWEFGL-MHARETSRSA-N

>  <SMILES>
c1nc2c(n1[C@H]3[C@@H]([C@H]4[C@H](O3)CO[P@@](=O)(O[C@@H]5[C@@H](CO[P@@](=O)(O4)O)O[C@H]([C@@H]5O)n6cnc7c6N=C(NC7=O)N)O)O)N=C(NC2=O)N

$$$$
