1K6P_XN3_B_807
  RCSB PDB12061703023D
Coordinates from PDB:1K6P:B:807 Model:1 without hydrogens
 48 53  0  0  0  0            999 V2000
    2.9870   -5.2210   16.4330   N 0  0  0  0  0  0  0  0  0  0  0  0
    4.4240   -5.1360   15.8830   C 0  0  0  0  0  0  0  0  0  0  0  0
    5.2740   -4.0030   16.4550   C 0  0  0  0  0  0  0  0  0  0  0  0
    6.5890   -4.1070   15.7800   C 0  0  0  0  0  0  0  0  0  0  0  0
    6.6900   -3.7170   14.5870   O 0  0  0  0  0  0  0  0  0  0  0  0
    7.6250   -4.6130   16.5050   N 0  0  0  0  0  0  0  0  0  0  0  0
    9.0440   -4.8250   16.1550   C 0  0  0  0  0  0  0  0  0  0  0  0
    9.7760   -5.4670   17.3640   C 0  0  0  0  0  0  0  0  0  0  0  0
    9.7310   -3.6180   15.9290   C 0  0  0  0  0  0  0  0  0  0  0  0
    9.2710   -5.7280   14.9800   C 0  0  0  0  0  0  0  0  0  0  0  0
    4.4080   -2.7320   16.1550   N 0  0  0  0  0  0  0  0  0  0  0  0
    2.9770   -2.7210   16.6230   C 0  0  0  0  0  0  0  0  0  0  0  0
    2.3040   -3.9920   16.0890   C 0  0  0  0  0  0  0  0  0  0  0  0
    5.0340   -1.4780   16.6850   C 0  0  0  0  0  0  0  0  0  0  0  0
    5.0310   -0.4040   15.6520   C 0  0  0  0  0  0  0  0  0  0  0  0
    5.0260    0.6510   16.5970   O 0  0  0  0  0  0  0  0  0  0  0  0
    6.2600   -0.1440   14.7950   C 0  0  0  0  0  0  0  0  0  0  0  0
    6.2470    0.9680   13.7360   C 0  0  0  0  0  0  0  0  0  0  0  0
    7.6760    1.0260   12.9870   C 0  0  0  0  0  0  0  0  0  0  0  0
    7.7080    2.1340   11.9120   C 0  0  0  0  0  0  0  0  0  0  0  0
    7.5640    3.5760   12.2690   C 0  0  0  0  0  0  0  0  0  0  0  0
    7.5860    4.5810   11.2230   C 0  0  0  0  0  0  0  0  0  0  0  0
    7.7530    4.1510    9.8110   C 0  0  0  0  0  0  0  0  0  0  0  0
    7.8950    2.7180    9.4740   C 0  0  0  0  0  0  0  0  0  0  0  0
    7.8720    1.7290   10.5180   C 0  0  0  0  0  0  0  0  0  0  0  0
    5.1360    0.7420   12.6270   C 0  0  0  0  0  0  0  0  0  0  0  0
    4.7740   -0.4090   12.1580   O 0  0  0  0  0  0  0  0  0  0  0  0
    4.6460    1.8950   12.2310   N 0  0  0  0  0  0  0  0  0  0  0  0
    3.6330    2.0750   11.2110   C 0  0  0  0  0  0  0  0  0  0  0  0
    3.5990    3.4990   10.6770   C 0  0  0  0  0  0  0  0  0  0  0  0
    3.7360    4.4530   11.7260   O 0  0  0  0  0  0  0  0  0  0  0  0
    2.3020    3.5780    9.9210   C 0  0  0  0  0  0  0  0  0  0  0  0
    1.2550    2.8450   10.7180   C 0  0  0  0  0  0  0  0  0  0  0  0
   -0.1400    2.8390   10.8590   C 0  0  0  0  0  0  0  0  0  0  0  0
   -0.7240    1.9050   11.8050   C 0  0  0  0  0  0  0  0  0  0  0  0
    0.1090    0.9840   12.5990   C 0  0  0  0  0  0  0  0  0  0  0  0
    1.5180    0.9800   12.4650   C 0  0  0  0  0  0  0  0  0  0  0  0
    2.1670    1.8480   11.5760   C 0  0  0  0  0  0  0  0  0  0  0  0
    2.2370   -6.3570   15.8620   C 0  0  0  0  0  0  0  0  0  0  0  0
    2.7850   -7.7490   16.1700   C 0  0  0  0  0  0  0  0  0  0  0  0
    2.6270   -8.3460   17.4970   C 0  0  0  0  0  0  0  0  0  0  0  0
    3.8240  -10.3630   16.7610   C 0  0  0  0  0  0  0  0  0  0  0  0
    4.0190   -9.8410   15.4420   C 0  0  0  0  0  0  0  0  0  0  0  0
    3.4850   -8.5080   15.1320   C 0  0  0  0  0  0  0  0  0  0  0  0
    4.4180  -11.6360   16.8100   O 0  0  0  0  0  0  0  0  0  0  0  0
    5.0500  -12.0910   15.5490   C 0  0  0  0  0  0  0  0  0  0  0  0
    4.7110  -10.8440   14.7730   O 0  0  0  0  0  0  0  0  0  0  0  0
    3.1340   -9.6740   17.8730   C 0  0  0  0  0  0  0  0  0  0  0  0
  1  2  1  0  0  0  0
  1 13  1  0  0  0  0
  1 39  1  0  0  0  0
  2  3  1  0  0  0  0
  3  4  1  0  0  0  0
  3 11  1  0  0  0  0
  4  5  2  0  0  0  0
  4  6  1  0  0  0  0
  6  7  1  0  0  0  0
  7  8  1  0  0  0  0
  7  9  1  0  0  0  0
  7 10  1  0  0  0  0
 11 12  1  0  0  0  0
 11 14  1  0  0  0  0
 12 13  1  0  0  0  0
 14 15  1  0  0  0  0
 15 16  1  0  0  0  0
 15 17  1  0  0  0  0
 17 18  1  0  0  0  0
 18 19  1  0  0  0  0
 18 26  1  0  0  0  0
 19 20  1  0  0  0  0
 20 21  2  0  0  0  0
 20 25  1  0  0  0  0
 21 22  1  0  0  0  0
 22 23  2  0  0  0  0
 23 24  1  0  0  0  0
 24 25  2  0  0  0  0
 26 27  2  0  0  0  0
 26 28  1  0  0  0  0
 28 29  1  0  0  0  0
 29 30  1  0  0  0  0
 29 38  1  0  0  0  0
 30 31  1  0  0  0  0
 30 32  1  0  0  0  0
 32 33  1  0  0  0  0
 33 34  2  0  0  0  0
 33 38  1  0  0  0  0
 34 35  1  0  0  0  0
 35 36  2  0  0  0  0
 36 37  1  0  0  0  0
 37 38  2  0  0  0  0
 39 40  1  0  0  0  0
 40 41  2  0  0  0  0
 40 44  1  0  0  0  0
 41 48  1  0  0  0  0
 42 43  1  0  0  0  0
 42 45  1  0  0  0  0
 42 48  2  0  0  0  0
 43 44  2  0  0  0  0
 43 47  1  0  0  0  0
 45 46  1  0  0  0  0
 46 47  1  0  0  0  0
A    1
N1
A    2
C1
A    3
C2
A    4
C3
A    5
O1
A    6
N2
A    7
C4
A    8
C5
A    9
C6
A   10
C7
A   11
N3
A   12
C8
A   13
C9
A   14
C10
A   15
C11
A   16
O2
A   17
C12
A   18
C13
A   19
C14
A   20
C15
A   21
C16
A   22
C17
A   23
C18
A   24
C19
A   25
C20
A   26
C21
A   27
O3
A   28
N4
A   29
C22
A   30
C23
A   31
O4
A   32
C24
A   33
C25
A   34
C26
A   35
C27
A   36
C28
A   37
C29
A   38
C30
A   39
C31
A   40
C32
A   41
C33
A   42
C34
A   43
C35
A   44
C36
A   45
O5
A   46
C38
A   47
O6
A   48
C37
M  END
>  <InstanceId>
1K6P_XN3_B_807

>  <ChemCompId>
XN3

>  <PdbId>
1K6P

>  <ChainId>
B

>  <ResidueNumber>
807

>  <InsertionCode>


>  <Model>
1

>  <AltIds>


>  <MissingHeavyAtoms>
0

>  <ObservedFormula>
C38 N4 O6

>  <Name>
N-[2(R)-HYDROXY-1(S)-INDANYL]-5-[(2(S)-TERTIARY BUTYLAMINOCARBONYL)-4(BENZO[1,3]DIOXOL-5-YLMETHYL)-PIPERAZINO]-4(S)-HYDROXY-2(R)-PHENYLMETHYLPENTANAMIDE

>  <SystematicName>
(1S,2S,4R)-4-(1,3-benzodioxol-5-ylmethyl)-N-tert-butyl-1-[(2S,4R)-2-hydroxy-5-[[(1S,2R)-2-hydroxy-2,3-dihydro-1H-inden-1-yl]amino]-5-oxo-4-(phenylmethyl)pentyl]piperazine-2-carboxamide

>  <Synonyms>
ANALOGUE OF INDINAVIR DRUG

>  <Type>
NON-POLYMER

>  <Formula>
C38 H48 N4 O6

>  <MolecularWeight>
656.811

>  <ModifiedDate>
2011-06-04

>  <Parent>


>  <OneLetterCode>


>  <SubcomponentList>


>  <AmbiguousFlag>
N

>  <InChI>
InChI=1S/C38H48N4O6/c1-38(2,3)40-37(46)31-23-41(21-26-13-14-33-34(18-26)48-24-47-33)15-16-42(31)22-29(43)19-28(17-25-9-5-4-6-10-25)36(45)39-35-30-12-8-7-11-27(30)20-32(35)44/h4-14,18,28-29,31-32,35,43-44H,15-17,19-24H2,1-3H3,(H,39,45)(H,40,46)/t28-,29+,31+,32-,35+/m1/s1

>  <InChIKey>
BJZTWVIYUGVEFV-OQOOGSQVSA-N

>  <SMILES>
CC(C)(C)NC(=O)[C@@H]1C[N@@](CC[N@]1C[C@H](C[C@@H](Cc2ccccc2)C(=O)N[C@H]3c4ccccc4C[C@H]3O)O)Cc5ccc6c(c5)OCO6

$$$$
