1K6P_XN3_B_807


 52 57  0  0  0  0  0  0  0  0999 V2000
    5.6623   -1.1043   15.5762 C   0  0  0  0  0  0  0  0  0  0  0  0
    5.2988   -0.1352   16.5430 O   0  0  0  0  0  0  0  0  0  0  0  0
    6.0231   -0.0252   17.1788 H   0  0  0  0  0  0  0  0  0  0  0  0
    5.8377   -2.1965   16.5748 C   0  0  0  0  0  0  0  0  0  0  0  0
    3.4103   -5.6747   16.0513 N   0  0  0  0  0  0  0  0  0  0  0  0
    4.9180   -5.8677   16.3051 C   0  0  0  0  0  0  0  0  0  0  0  0
    5.6167   -4.6984   16.9964 C   0  0  0  0  0  0  0  0  0  0  0  0
    5.2854   -3.4893   16.0562 N   0  0  0  0  0  0  0  0  0  0  0  0
    3.8418   -3.2274   15.7180 C   0  0  0  0  0  0  0  0  0  0  0  0
    3.2476   -4.5336   15.1756 C   0  0  0  0  0  0  0  0  0  0  0  0
    7.0386   -5.0963   17.1201 C   0  0  0  0  0  0  0  0  0  0  0  0
    7.5169   -5.2853   18.2695 O   0  0  0  0  0  0  0  0  0  0  0  0
    7.7475   -5.2477   15.9671 N   0  0  0  0  0  0  0  0  0  0  0  0
    7.2379   -5.0537   15.1474 H   0  0  0  0  0  0  0  0  0  0  0  0
    9.1484   -5.6527   15.7336 C   0  0  0  0  0  0  0  0  0  0  0  0
   10.0933   -4.5235   16.2251 C   0  0  0  0  0  0  0  0  0  0  0  0
    9.4498   -5.7926   14.3663 C   0  0  0  0  0  0  0  0  0  0  0  0
    9.5642   -6.9066   16.4424 C   0  0  0  0  0  0  0  0  0  0  0  0
    2.7961   -6.8551   15.4123 C   0  0  0  0  0  0  0  0  0  0  0  0
    2.9394   -8.1780   16.1622 C   0  0  0  0  0  0  0  0  0  0  0  0
    3.5949   -9.3303   15.5419 C   0  0  0  0  0  0  0  0  0  0  0  0
    3.2021  -10.6745   17.5622 C   0  0  0  0  0  0  0  0  0  0  0  0
    2.5459   -9.5913   18.2302 C   0  0  0  0  0  0  0  0  0  0  0  0
    2.4138   -8.3109   17.5222 C   0  0  0  0  0  0  0  0  0  0  0  0
    3.2029  -11.7775   18.4335 O   0  0  0  0  0  0  0  0  0  0  0  0
    2.5682  -11.5455   19.7526 C   0  0  0  0  0  0  0  0  0  0  0  0
    2.2024  -10.1101   19.4734 O   0  0  0  0  0  0  0  0  0  0  0  0
    3.7624  -10.6375   16.1940 C   0  0  0  0  0  0  0  0  0  0  0  0
    6.8621   -0.5013   14.8626 C   0  0  0  0  0  0  0  0  0  0  0  0
    6.6631    0.5570   13.7677 C   0  0  0  0  0  0  0  0  0  0  0  0
    5.5024    0.1776   12.7557 C   0  0  0  0  0  0  0  0  0  0  0  0
    5.3790   -0.9632   12.1565 O   0  0  0  0  0  0  0  0  0  0  0  0
    4.6898    1.1969   12.5913 N   0  0  0  0  0  0  0  0  0  0  0  0
    4.8831    2.0141   13.1051 H   0  0  0  0  0  0  0  0  0  0  0  0
    3.5336    1.2212   11.7185 C   0  0  0  0  0  0  0  0  0  0  0  0
    3.2769    2.6045   11.1399 C   0  0  0  0  0  0  0  0  0  0  0  0
    3.4546    3.6217   12.1212 O   0  0  0  0  0  0  0  0  0  0  0  0
    1.8878    2.5144   10.5723 C   0  0  0  0  0  0  0  0  0  0  0  0
    1.0427    1.7246   11.5372 C   0  0  0  0  0  0  0  0  0  0  0  0
   -0.3114    1.5880   11.8741 C   0  0  0  0  0  0  0  0  0  0  0  0
   -0.6589    0.6523   12.9287 C   0  0  0  0  0  0  0  0  0  0  0  0
    0.3673   -0.1382   13.6320 C   0  0  0  0  0  0  0  0  0  0  0  0
    1.7372   -0.0097   13.3004 C   0  0  0  0  0  0  0  0  0  0  0  0
    2.1634    0.8698   12.2956 C   0  0  0  0  0  0  0  0  0  0  0  0
    2.8592    3.4570   12.8690 H   0  0  0  0  0  0  0  0  0  0  0  0
    8.0214    0.7183   12.9103 C   0  0  0  0  0  0  0  0  0  0  0  0
    7.9039    1.8537   11.8704 C   0  0  0  0  0  0  0  0  0  0  0  0
    8.0234    1.5901   10.4062 C   0  0  0  0  0  0  0  0  0  0  0  0
    7.9203    2.6911    9.4671 C   0  0  0  0  0  0  0  0  0  0  0  0
    7.6960    4.0648    9.9857 C   0  0  0  0  0  0  0  0  0  0  0  0
    7.5792    4.3090   11.4396 C   0  0  0  0  0  0  0  0  0  0  0  0
    7.6827    3.2111   12.3629 C   0  0  0  0  0  0  0  0  0  0  0  0
  5  6  1  0  0  0
  5 10  1  0  0  0
  5 19  1  0  0  0
  6  7  1  0  0  0
  7 11  1  0  0  0
  7  8  1  0  0  0
 11 12  2  0  0  0
 11 13  1  0  0  0
 13 15  1  0  0  0
 15 16  1  0  0  0
 15 17  1  0  0  0
 15 18  1  0  0  0
  8  9  1  0  0  0
  8  4  1  0  0  0
  9 10  1  0  0  0
  4  1  1  0  0  0
  1  2  1  0  0  0
  1 29  1  0  0  0
 29 30  1  0  0  0
 30 46  1  0  0  0
 30 31  1  0  0  0
 46 47  1  0  0  0
 47 48  2  0  0  0
 47 52  1  0  0  0
 48 49  1  0  0  0
 49 50  2  0  0  0
 50 51  1  0  0  0
 51 52  2  0  0  0
 31 32  2  0  0  0
 31 33  1  0  0  0
 33 35  1  0  0  0
 35 36  1  0  0  0
 35 44  1  0  0  0
 36 37  1  0  0  0
 36 38  1  0  0  0
 38 39  1  0  0  0
 39 40  2  0  0  0
 39 44  1  0  0  0
 40 41  1  0  0  0
 41 42  2  0  0  0
 42 43  1  0  0  0
 43 44  2  0  0  0
 19 20  1  0  0  0
 20 21  2  0  0  0
 20 24  1  0  0  0
 21 28  1  0  0  0
 22 23  1  0  0  0
 22 25  1  0  0  0
 22 28  2  0  0  0
 23 24  2  0  0  0
 23 27  1  0  0  0
 25 26  1  0  0  0
 26 27  1  0  0  0
 13 14  1  0  0  0
  2  3  1  0  0  0
 33 34  1  0  0  0
 37 45  1  0  0  0
M  END
> <minimizedAffinity>
-11.50584

$$$$
1K6P_XN3_B_807


 52 57  0  0  0  0  0  0  0  0999 V2000
    5.3378   -0.8588   15.2197 C   0  0  0  0  0  0  0  0  0  0  0  0
    6.7342   -0.8619   15.4564 O   0  0  0  0  0  0  0  0  0  0  0  0
    7.0659   -1.7728   15.4226 H   0  0  0  0  0  0  0  0  0  0  0  0
    5.0244   -1.7210   16.3940 C   0  0  0  0  0  0  0  0  0  0  0  0
    3.3667   -5.6600   16.3910 N   0  0  0  0  0  0  0  0  0  0  0  0
    4.8251   -5.4810   15.9267 C   0  0  0  0  0  0  0  0  0  0  0  0
    5.5197   -4.2188   16.4344 C   0  0  0  0  0  0  0  0  0  0  0  0
    4.5607   -3.0763   15.9543 N   0  0  0  0  0  0  0  0  0  0  0  0
    3.1050   -3.1672   16.3279 C   0  0  0  0  0  0  0  0  0  0  0  0
    2.5966   -4.5445   15.8830 C   0  0  0  0  0  0  0  0  0  0  0  0
    6.8841   -4.2512   15.8573 C   0  0  0  0  0  0  0  0  0  0  0  0
    7.0318   -3.9825   14.6360 O   0  0  0  0  0  0  0  0  0  0  0  0
    7.9104   -4.5614   16.6972 N   0  0  0  0  0  0  0  0  0  0  0  0
    7.6347   -4.7574   17.6218 H   0  0  0  0  0  0  0  0  0  0  0  0
    9.3652   -4.6544   16.4611 C   0  0  0  0  0  0  0  0  0  0  0  0
   10.0703   -5.0618   17.7827 C   0  0  0  0  0  0  0  0  0  0  0  0
    9.9386   -3.4142   16.1249 C   0  0  0  0  0  0  0  0  0  0  0  0
    9.7684   -5.6606   15.4254 C   0  0  0  0  0  0  0  0  0  0  0  0
    2.7716   -6.9149   15.8909 C   0  0  0  0  0  0  0  0  0  0  0  0
    3.5569   -8.1934   16.1764 C   0  0  0  0  0  0  0  0  0  0  0  0
    3.6740   -9.2484   15.1686 C   0  0  0  0  0  0  0  0  0  0  0  0
    5.0227  -10.6076   16.7102 C   0  0  0  0  0  0  0  0  0  0  0  0
    4.9472   -9.6205   17.7447 C   0  0  0  0  0  0  0  0  0  0  0  0
    4.2046   -8.3818   17.4758 C   0  0  0  0  0  0  0  0  0  0  0  0
    5.7760  -11.6873   17.2026 O   0  0  0  0  0  0  0  0  0  0  0  0
    6.2806  -11.5307   18.5873 C   0  0  0  0  0  0  0  0  0  0  0  0
    5.6749  -10.1663   18.7959 O   0  0  0  0  0  0  0  0  0  0  0  0
    4.4029  -10.5093   15.3710 C   0  0  0  0  0  0  0  0  0  0  0  0
    5.1890   -1.3891   13.8022 C   0  0  0  0  0  0  0  0  0  0  0  0
    4.9600   -0.4220   12.6315 C   0  0  0  0  0  0  0  0  0  0  0  0
    6.3123    0.1854   12.0679 C   0  0  0  0  0  0  0  0  0  0  0  0
    7.3890   -0.4908   11.8248 O   0  0  0  0  0  0  0  0  0  0  0  0
    6.1947    1.4834   11.9018 N   0  0  0  0  0  0  0  0  0  0  0  0
    5.3231    1.8876   12.1171 H   0  0  0  0  0  0  0  0  0  0  0  0
    7.2376    2.3709   11.4289 C   0  0  0  0  0  0  0  0  0  0  0  0
    7.0805    3.7844   11.9685 C   0  0  0  0  0  0  0  0  0  0  0  0
    5.7192    4.2034   11.9454 O   0  0  0  0  0  0  0  0  0  0  0  0
    8.0063    4.6085   11.1178 C   0  0  0  0  0  0  0  0  0  0  0  0
    7.8861    4.1232    9.6970 C   0  0  0  0  0  0  0  0  0  0  0  0
    8.0956    4.6155    8.4009 C   0  0  0  0  0  0  0  0  0  0  0  0
    7.8256    3.7276    7.2842 C   0  0  0  0  0  0  0  0  0  0  0  0
    7.3474    2.3485    7.4890 C   0  0  0  0  0  0  0  0  0  0  0  0
    7.1330    1.8398    8.7923 C   0  0  0  0  0  0  0  0  0  0  0  0
    7.3673    2.6268    9.9284 C   0  0  0  0  0  0  0  0  0  0  0  0
    5.3808    4.1531   11.0377 H   0  0  0  0  0  0  0  0  0  0  0  0
    4.0376    0.8119   13.1144 C   0  0  0  0  0  0  0  0  0  0  0  0
    2.5361    0.5055   12.9246 C   0  0  0  0  0  0  0  0  0  0  0  0
    1.8137    0.8749   11.6720 C   0  0  0  0  0  0  0  0  0  0  0  0
    0.3990    0.5796   11.5445 C   0  0  0  0  0  0  0  0  0  0  0  0
   -0.3040   -0.0886   12.6695 C   0  0  0  0  0  0  0  0  0  0  0  0
    0.4266   -0.4487   13.9040 C   0  0  0  0  0  0  0  0  0  0  0  0
    1.8290   -0.1519   14.0210 C   0  0  0  0  0  0  0  0  0  0  0  0
  5  6  1  0  0  0
  5 10  1  0  0  0
  5 19  1  0  0  0
  6  7  1  0  0  0
  7 11  1  0  0  0
  7  8  1  0  0  0
 11 12  2  0  0  0
 11 13  1  0  0  0
 13 15  1  0  0  0
 15 16  1  0  0  0
 15 17  1  0  0  0
 15 18  1  0  0  0
  8  9  1  0  0  0
  8  4  1  0  0  0
  9 10  1  0  0  0
  4  1  1  0  0  0
  1  2  1  0  0  0
  1 29  1  0  0  0
 29 30  1  0  0  0
 30 46  1  0  0  0
 30 31  1  0  0  0
 46 47  1  0  0  0
 47 48  2  0  0  0
 47 52  1  0  0  0
 48 49  1  0  0  0
 49 50  2  0  0  0
 50 51  1  0  0  0
 51 52  2  0  0  0
 31 32  2  0  0  0
 31 33  1  0  0  0
 33 35  1  0  0  0
 35 36  1  0  0  0
 35 44  1  0  0  0
 36 37  1  0  0  0
 36 38  1  0  0  0
 38 39  1  0  0  0
 39 40  2  0  0  0
 39 44  1  0  0  0
 40 41  1  0  0  0
 41 42  2  0  0  0
 42 43  1  0  0  0
 43 44  2  0  0  0
 19 20  1  0  0  0
 20 21  2  0  0  0
 20 24  1  0  0  0
 21 28  1  0  0  0
 22 23  1  0  0  0
 22 25  1  0  0  0
 22 28  2  0  0  0
 23 24  2  0  0  0
 23 27  1  0  0  0
 25 26  1  0  0  0
 26 27  1  0  0  0
 13 14  1  0  0  0
  2  3  1  0  0  0
 33 34  1  0  0  0
 37 45  1  0  0  0
M  END
> <minimizedAffinity>
-11.14389

$$$$
1K6P_XN3_B_807


 52 57  0  0  0  0  0  0  0  0999 V2000
    7.8486   -1.9479   15.2964 C   0  0  0  0  0  0  0  0  0  0  0  0
    7.3821   -2.9401   14.3997 O   0  0  0  0  0  0  0  0  0  0  0  0
    6.5195   -2.6748   14.0442 H   0  0  0  0  0  0  0  0  0  0  0  0
    6.6852   -2.0762   16.2187 C   0  0  0  0  0  0  0  0  0  0  0  0
    3.4037   -4.8004   15.9453 N   0  0  0  0  0  0  0  0  0  0  0  0
    4.7851   -5.3582   16.3393 C   0  0  0  0  0  0  0  0  0  0  0  0
    5.7547   -4.3372   16.9316 C   0  0  0  0  0  0  0  0  0  0  0  0
    5.8144   -3.2301   15.8243 N   0  0  0  0  0  0  0  0  0  0  0  0
    4.5172   -2.6361   15.3432 C   0  0  0  0  0  0  0  0  0  0  0  0
    3.6034   -3.7947   14.9235 C   0  0  0  0  0  0  0  0  0  0  0  0
    7.0018   -5.0852   17.2159 C   0  0  0  0  0  0  0  0  0  0  0  0
    7.2083   -5.4953   18.3884 O   0  0  0  0  0  0  0  0  0  0  0  0
    7.8540   -5.2975   16.1749 N   0  0  0  0  0  0  0  0  0  0  0  0
    7.5590   -4.9061   15.3211 H   0  0  0  0  0  0  0  0  0  0  0  0
    9.1440   -6.0131   16.1053 C   0  0  0  0  0  0  0  0  0  0  0  0
   10.2442   -5.1453   16.7732 C   0  0  0  0  0  0  0  0  0  0  0  0
    9.5920   -6.1922   14.7836 C   0  0  0  0  0  0  0  0  0  0  0  0
    9.1602   -7.3432   16.7968 C   0  0  0  0  0  0  0  0  0  0  0  0
    2.5100   -5.8476   15.4128 C   0  0  0  0  0  0  0  0  0  0  0  0
    2.8202   -7.2802   15.8419 C   0  0  0  0  0  0  0  0  0  0  0  0
    2.4582   -7.7641   17.1750 C   0  0  0  0  0  0  0  0  0  0  0  0
    3.4114   -9.9711   16.6614 C   0  0  0  0  0  0  0  0  0  0  0  0
    3.7982   -9.5659   15.3437 C   0  0  0  0  0  0  0  0  0  0  0  0
    3.4934   -8.1936   14.9168 C   0  0  0  0  0  0  0  0  0  0  0  0
    3.8075  -11.3089   16.8318 O   0  0  0  0  0  0  0  0  0  0  0  0
    4.4780  -11.9265   15.6632 C   0  0  0  0  0  0  0  0  0  0  0  0
    4.3949  -10.6960   14.7966 O   0  0  0  0  0  0  0  0  0  0  0  0
    2.7312   -9.1235   17.6646 C   0  0  0  0  0  0  0  0  0  0  0  0
    8.0268   -0.7074   14.4351 C   0  0  0  0  0  0  0  0  0  0  0  0
    6.8874    0.3130   14.2982 C   0  0  0  0  0  0  0  0  0  0  0  0
    5.8629   -0.0664   13.1486 C   0  0  0  0  0  0  0  0  0  0  0  0
    6.0045   -1.0495   12.3183 O   0  0  0  0  0  0  0  0  0  0  0  0
    4.8539    0.7751   13.1413 N   0  0  0  0  0  0  0  0  0  0  0  0
    4.8526    1.4824   13.8261 H   0  0  0  0  0  0  0  0  0  0  0  0
    3.7429    0.7513   12.2116 C   0  0  0  0  0  0  0  0  0  0  0  0
    3.5407    2.0912   11.5203 C   0  0  0  0  0  0  0  0  0  0  0  0
    3.6883    3.1761   12.4318 O   0  0  0  0  0  0  0  0  0  0  0  0
    2.1799    1.9795   10.8913 C   0  0  0  0  0  0  0  0  0  0  0  0
    1.2737    1.2764   11.8677 C   0  0  0  0  0  0  0  0  0  0  0  0
   -0.0977    1.1852   12.1447 C   0  0  0  0  0  0  0  0  0  0  0  0
   -0.5141    0.3359   13.2464 C   0  0  0  0  0  0  0  0  0  0  0  0
    0.4613   -0.4150   14.0572 C   0  0  0  0  0  0  0  0  0  0  0  0
    1.8481   -0.3317   13.7869 C   0  0  0  0  0  0  0  0  0  0  0  0
    2.3396    0.4641   12.7429 C   0  0  0  0  0  0  0  0  0  0  0  0
    3.0538    3.0763   13.1586 H   0  0  0  0  0  0  0  0  0  0  0  0
    7.4952    1.7668   13.9466 C   0  0  0  0  0  0  0  0  0  0  0  0
    7.6410    1.9667   12.4225 C   0  0  0  0  0  0  0  0  0  0  0  0
    8.3789    0.9877   11.5712 C   0  0  0  0  0  0  0  0  0  0  0  0
    8.5022    1.2248   10.1453 C   0  0  0  0  0  0  0  0  0  0  0  0
    7.8874    2.4436    9.5595 C   0  0  0  0  0  0  0  0  0  0  0  0
    7.1589    3.4036   10.4168 C   0  0  0  0  0  0  0  0  0  0  0  0
    7.0420    3.1598   11.8294 C   0  0  0  0  0  0  0  0  0  0  0  0
  5  6  1  0  0  0
  5 10  1  0  0  0
  5 19  1  0  0  0
  6  7  1  0  0  0
  7 11  1  0  0  0
  7  8  1  0  0  0
 11 12  2  0  0  0
 11 13  1  0  0  0
 13 15  1  0  0  0
 15 16  1  0  0  0
 15 17  1  0  0  0
 15 18  1  0  0  0
  8  9  1  0  0  0
  8  4  1  0  0  0
  9 10  1  0  0  0
  4  1  1  0  0  0
  1  2  1  0  0  0
  1 29  1  0  0  0
 29 30  1  0  0  0
 30 46  1  0  0  0
 30 31  1  0  0  0
 46 47  1  0  0  0
 47 48  2  0  0  0
 47 52  1  0  0  0
 48 49  1  0  0  0
 49 50  2  0  0  0
 50 51  1  0  0  0
 51 52  2  0  0  0
 31 32  2  0  0  0
 31 33  1  0  0  0
 33 35  1  0  0  0
 35 36  1  0  0  0
 35 44  1  0  0  0
 36 37  1  0  0  0
 36 38  1  0  0  0
 38 39  1  0  0  0
 39 40  2  0  0  0
 39 44  1  0  0  0
 40 41  1  0  0  0
 41 42  2  0  0  0
 42 43  1  0  0  0
 43 44  2  0  0  0
 19 20  1  0  0  0
 20 21  2  0  0  0
 20 24  1  0  0  0
 21 28  1  0  0  0
 22 23  1  0  0  0
 22 25  1  0  0  0
 22 28  2  0  0  0
 23 24  2  0  0  0
 23 27  1  0  0  0
 25 26  1  0  0  0
 26 27  1  0  0  0
 13 14  1  0  0  0
  2  3  1  0  0  0
 33 34  1  0  0  0
 37 45  1  0  0  0
M  END
> <minimizedAffinity>
-10.90776

$$$$
1K6P_XN3_B_807


 52 57  0  0  0  0  0  0  0  0999 V2000
    4.3877   -2.7586   16.4896 C   0  0  0  0  0  0  0  0  0  0  0  0
    5.6672   -2.6538   17.0880 O   0  0  0  0  0  0  0  0  0  0  0  0
    6.1137   -3.5141   17.0492 H   0  0  0  0  0  0  0  0  0  0  0  0
    3.9048   -3.7981   17.4419 C   0  0  0  0  0  0  0  0  0  0  0  0
    3.4362   -7.9865   16.7339 N   0  0  0  0  0  0  0  0  0  0  0  0
    4.8640   -7.4263   16.8829 C   0  0  0  0  0  0  0  0  0  0  0  0
    4.9686   -6.1036   17.6398 C   0  0  0  0  0  0  0  0  0  0  0  0
    4.0040   -5.1654   16.8369 N   0  0  0  0  0  0  0  0  0  0  0  0
    2.5903   -5.6297   16.6068 C   0  0  0  0  0  0  0  0  0  0  0  0
    2.6572   -7.0280   15.9792 C   0  0  0  0  0  0  0  0  0  0  0  0
    6.4092   -5.7565   17.6453 C   0  0  0  0  0  0  0  0  0  0  0  0
    7.0115   -5.6881   18.7490 O   0  0  0  0  0  0  0  0  0  0  0  0
    7.0047   -5.5425   16.4393 N   0  0  0  0  0  0  0  0  0  0  0  0
    6.3997   -5.6218   15.6667 H   0  0  0  0  0  0  0  0  0  0  0  0
    8.4010   -5.2118   16.0900 C   0  0  0  0  0  0  0  0  0  0  0  0
    8.5294   -5.1114   14.5463 C   0  0  0  0  0  0  0  0  0  0  0  0
    9.3039   -6.2285   16.4522 C   0  0  0  0  0  0  0  0  0  0  0  0
    8.8967   -3.9137   16.6527 C   0  0  0  0  0  0  0  0  0  0  0  0
    3.4155   -9.2801   16.0232 C   0  0  0  0  0  0  0  0  0  0  0  0
    4.2152  -10.4132   16.6631 C   0  0  0  0  0  0  0  0  0  0  0  0
    3.8378  -10.9609   17.9669 C   0  0  0  0  0  0  0  0  0  0  0  0
    5.7220  -12.5373   17.8795 C   0  0  0  0  0  0  0  0  0  0  0  0
    6.1518  -12.0488   16.6040 C   0  0  0  0  0  0  0  0  0  0  0  0
    5.3823  -10.9674   15.9743 C   0  0  0  0  0  0  0  0  0  0  0  0
    6.6084  -13.5564   18.2687 O   0  0  0  0  0  0  0  0  0  0  0  0
    7.6952  -13.8549   17.3062 C   0  0  0  0  0  0  0  0  0  0  0  0
    7.2688  -12.8179   16.2987 O   0  0  0  0  0  0  0  0  0  0  0  0
    4.5614  -12.0426   18.6512 C   0  0  0  0  0  0  0  0  0  0  0  0
    4.6723   -3.1051   15.0365 C   0  0  0  0  0  0  0  0  0  0  0  0
    4.1510   -2.2046   13.9071 C   0  0  0  0  0  0  0  0  0  0  0  0
    5.2621   -1.8801   12.8230 C   0  0  0  0  0  0  0  0  0  0  0  0
    5.6591   -2.6919   11.8961 O   0  0  0  0  0  0  0  0  0  0  0  0
    5.7435   -0.6721   13.0111 N   0  0  0  0  0  0  0  0  0  0  0  0
    5.3592   -0.1441   13.7479 H   0  0  0  0  0  0  0  0  0  0  0  0
    6.7913   -0.0504   12.2272 C   0  0  0  0  0  0  0  0  0  0  0  0
    8.0257    0.2625   13.0594 C   0  0  0  0  0  0  0  0  0  0  0  0
    7.6747    0.7931   14.3340 O   0  0  0  0  0  0  0  0  0  0  0  0
    8.8293    1.1906   12.1918 C   0  0  0  0  0  0  0  0  0  0  0  0
    7.8745    2.1463   11.5258 C   0  0  0  0  0  0  0  0  0  0  0  0
    7.9009    3.4292   10.9606 C   0  0  0  0  0  0  0  0  0  0  0  0
    6.6631    3.9582   10.4163 C   0  0  0  0  0  0  0  0  0  0  0  0
    5.4096    3.1835   10.4473 C   0  0  0  0  0  0  0  0  0  0  0  0
    5.3704    1.8873   11.0144 C   0  0  0  0  0  0  0  0  0  0  0  0
    6.5177    1.2980   11.5634 C   0  0  0  0  0  0  0  0  0  0  0  0
    7.1407    1.5940   14.2149 H   0  0  0  0  0  0  0  0  0  0  0  0
    3.6441   -0.7991   14.5187 C   0  0  0  0  0  0  0  0  0  0  0  0
    2.3842   -0.2849   13.7890 C   0  0  0  0  0  0  0  0  0  0  0  0
    2.4778    0.6473   12.6272 C   0  0  0  0  0  0  0  0  0  0  0  0
    1.2657    1.1153   11.9819 C   0  0  0  0  0  0  0  0  0  0  0  0
   -0.0501    0.6535   12.4937 C   0  0  0  0  0  0  0  0  0  0  0  0
   -0.1256   -0.2708   13.6457 C   0  0  0  0  0  0  0  0  0  0  0  0
    1.0817   -0.7293   14.2789 C   0  0  0  0  0  0  0  0  0  0  0  0
  5  6  1  0  0  0
  5 10  1  0  0  0
  5 19  1  0  0  0
  6  7  1  0  0  0
  7 11  1  0  0  0
  7  8  1  0  0  0
 11 12  2  0  0  0
 11 13  1  0  0  0
 13 15  1  0  0  0
 15 16  1  0  0  0
 15 17  1  0  0  0
 15 18  1  0  0  0
  8  9  1  0  0  0
  8  4  1  0  0  0
  9 10  1  0  0  0
  4  1  1  0  0  0
  1  2  1  0  0  0
  1 29  1  0  0  0
 29 30  1  0  0  0
 30 46  1  0  0  0
 30 31  1  0  0  0
 46 47  1  0  0  0
 47 48  2  0  0  0
 47 52  1  0  0  0
 48 49  1  0  0  0
 49 50  2  0  0  0
 50 51  1  0  0  0
 51 52  2  0  0  0
 31 32  2  0  0  0
 31 33  1  0  0  0
 33 35  1  0  0  0
 35 36  1  0  0  0
 35 44  1  0  0  0
 36 37  1  0  0  0
 36 38  1  0  0  0
 38 39  1  0  0  0
 39 40  2  0  0  0
 39 44  1  0  0  0
 40 41  1  0  0  0
 41 42  2  0  0  0
 42 43  1  0  0  0
 43 44  2  0  0  0
 19 20  1  0  0  0
 20 21  2  0  0  0
 20 24  1  0  0  0
 21 28  1  0  0  0
 22 23  1  0  0  0
 22 25  1  0  0  0
 22 28  2  0  0  0
 23 24  2  0  0  0
 23 27  1  0  0  0
 25 26  1  0  0  0
 26 27  1  0  0  0
 13 14  1  0  0  0
  2  3  1  0  0  0
 33 34  1  0  0  0
 37 45  1  0  0  0
M  END
> <minimizedAffinity>
-10.58309

$$$$
1K6P_XN3_B_807


 52 57  0  0  0  0  0  0  0  0999 V2000
    4.0794   -2.7704   15.5739 C   0  0  0  0  0  0  0  0  0  0  0  0
    3.0046   -2.0084   16.0940 O   0  0  0  0  0  0  0  0  0  0  0  0
    2.1682   -2.3392   15.7307 H   0  0  0  0  0  0  0  0  0  0  0  0
    3.7888   -2.4178   14.1554 C   0  0  0  0  0  0  0  0  0  0  0  0
    6.9118    0.4810   13.8275 N   0  0  0  0  0  0  0  0  0  0  0  0
    5.6219    0.7020   13.0139 C   0  0  0  0  0  0  0  0  0  0  0  0
    4.3845   -0.0175   13.5473 C   0  0  0  0  0  0  0  0  0  0  0  0
    4.8473   -1.5136   13.6012 N   0  0  0  0  0  0  0  0  0  0  0  0
    6.1143   -1.8386   14.3468 C   0  0  0  0  0  0  0  0  0  0  0  0
    7.2228   -0.9323   13.7960 C   0  0  0  0  0  0  0  0  0  0  0  0
    3.2869    0.3234   12.6120 C   0  0  0  0  0  0  0  0  0  0  0  0
    3.5645    0.5261   11.4006 O   0  0  0  0  0  0  0  0  0  0  0  0
    2.0264    0.3851   13.1240 N   0  0  0  0  0  0  0  0  0  0  0  0
    1.9712    0.2125   14.0917 H   0  0  0  0  0  0  0  0  0  0  0  0
    0.7280    0.6660   12.4788 C   0  0  0  0  0  0  0  0  0  0  0  0
   -0.4175    0.3117   13.4647 C   0  0  0  0  0  0  0  0  0  0  0  0
    0.4930   -0.1524   11.3586 C   0  0  0  0  0  0  0  0  0  0  0  0
    0.5263    2.0952   12.0736 C   0  0  0  0  0  0  0  0  0  0  0  0
    8.0562    1.2316   13.2743 C   0  0  0  0  0  0  0  0  0  0  0  0
    7.7568    2.1296   12.0756 C   0  0  0  0  0  0  0  0  0  0  0  0
    7.5537    3.5694   12.2429 C   0  0  0  0  0  0  0  0  0  0  0  0
    7.1810    3.8242    9.8265 C   0  0  0  0  0  0  0  0  0  0  0  0
    7.3642    2.4243    9.5880 C   0  0  0  0  0  0  0  0  0  0  0  0
    7.6647    1.5538   10.7326 C   0  0  0  0  0  0  0  0  0  0  0  0
    6.9069    4.4368    8.5915 O   0  0  0  0  0  0  0  0  0  0  0  0
    6.8895    3.5275    7.4213 C   0  0  0  0  0  0  0  0  0  0  0  0
    7.2003    2.2841    8.2147 O   0  0  0  0  0  0  0  0  0  0  0  0
    7.2528    4.4964   11.1419 C   0  0  0  0  0  0  0  0  0  0  0  0
    3.8355   -4.1791   16.0921 C   0  0  0  0  0  0  0  0  0  0  0  0
    5.0161   -5.1262   16.3514 C   0  0  0  0  0  0  0  0  0  0  0  0
    4.6255   -6.3475   17.2847 C   0  0  0  0  0  0  0  0  0  0  0  0
    3.9083   -6.2651   18.3593 O   0  0  0  0  0  0  0  0  0  0  0  0
    5.1533   -7.4595   16.8252 N   0  0  0  0  0  0  0  0  0  0  0  0
    5.6778   -7.3990   15.9943 H   0  0  0  0  0  0  0  0  0  0  0  0
    5.0295   -8.7671   17.4366 C   0  0  0  0  0  0  0  0  0  0  0  0
    6.3601   -9.2880   17.9584 C   0  0  0  0  0  0  0  0  0  0  0  0
    7.4192   -9.0230   17.0433 O   0  0  0  0  0  0  0  0  0  0  0  0
    6.1071  -10.7463   18.2217 C   0  0  0  0  0  0  0  0  0  0  0  0
    5.2617  -11.2812   17.0957 C   0  0  0  0  0  0  0  0  0  0  0  0
    4.9931  -12.5128   16.4816 C   0  0  0  0  0  0  0  0  0  0  0  0
    4.0579  -12.5294   15.3710 C   0  0  0  0  0  0  0  0  0  0  0  0
    3.4014  -11.2995   14.8926 C   0  0  0  0  0  0  0  0  0  0  0  0
    3.6637  -10.0506   15.5047 C   0  0  0  0  0  0  0  0  0  0  0  0
    4.5529   -9.9409   16.5827 C   0  0  0  0  0  0  0  0  0  0  0  0
    7.2150   -9.4286   16.1862 H   0  0  0  0  0  0  0  0  0  0  0  0
    6.2121   -4.3221   17.0790 C   0  0  0  0  0  0  0  0  0  0  0  0
    7.5947   -4.8911   16.6928 C   0  0  0  0  0  0  0  0  0  0  0  0
    8.0919   -4.8536   15.2860 C   0  0  0  0  0  0  0  0  0  0  0  0
    9.3920   -5.4134   14.9682 C   0  0  0  0  0  0  0  0  0  0  0  0
   10.2055   -6.0146   16.0559 C   0  0  0  0  0  0  0  0  0  0  0  0
    9.6986   -6.0433   17.4450 C   0  0  0  0  0  0  0  0  0  0  0  0
    8.4084   -5.4858   17.7503 C   0  0  0  0  0  0  0  0  0  0  0  0
  5  6  1  0  0  0
  5 10  1  0  0  0
  5 19  1  0  0  0
  6  7  1  0  0  0
  7 11  1  0  0  0
  7  8  1  0  0  0
 11 12  2  0  0  0
 11 13  1  0  0  0
 13 15  1  0  0  0
 15 16  1  0  0  0
 15 17  1  0  0  0
 15 18  1  0  0  0
  8  9  1  0  0  0
  8  4  1  0  0  0
  9 10  1  0  0  0
  4  1  1  0  0  0
  1  2  1  0  0  0
  1 29  1  0  0  0
 29 30  1  0  0  0
 30 46  1  0  0  0
 30 31  1  0  0  0
 46 47  1  0  0  0
 47 48  2  0  0  0
 47 52  1  0  0  0
 48 49  1  0  0  0
 49 50  2  0  0  0
 50 51  1  0  0  0
 51 52  2  0  0  0
 31 32  2  0  0  0
 31 33  1  0  0  0
 33 35  1  0  0  0
 35 36  1  0  0  0
 35 44  1  0  0  0
 36 37  1  0  0  0
 36 38  1  0  0  0
 38 39  1  0  0  0
 39 40  2  0  0  0
 39 44  1  0  0  0
 40 41  1  0  0  0
 41 42  2  0  0  0
 42 43  1  0  0  0
 43 44  2  0  0  0
 19 20  1  0  0  0
 20 21  2  0  0  0
 20 24  1  0  0  0
 21 28  1  0  0  0
 22 23  1  0  0  0
 22 25  1  0  0  0
 22 28  2  0  0  0
 23 24  2  0  0  0
 23 27  1  0  0  0
 25 26  1  0  0  0
 26 27  1  0  0  0
 13 14  1  0  0  0
  2  3  1  0  0  0
 33 34  1  0  0  0
 37 45  1  0  0  0
M  END
> <minimizedAffinity>
-10.30452

$$$$
1K6P_XN3_B_807


 52 57  0  0  0  0  0  0  0  0999 V2000
    7.2767    0.3106   12.4615 C   0  0  0  0  0  0  0  0  0  0  0  0
    6.6212   -0.8840   12.0751 O   0  0  0  0  0  0  0  0  0  0  0  0
    5.6797   -0.8237   12.3008 H   0  0  0  0  0  0  0  0  0  0  0  0
    6.9316    0.1648   13.9038 C   0  0  0  0  0  0  0  0  0  0  0  0
    3.5337   -1.8841   15.4913 N   0  0  0  0  0  0  0  0  0  0  0  0
    4.8258   -2.6890   15.2521 C   0  0  0  0  0  0  0  0  0  0  0  0
    6.1094   -1.8619   15.2086 C   0  0  0  0  0  0  0  0  0  0  0  0
    5.8069   -0.8079   14.0893 N   0  0  0  0  0  0  0  0  0  0  0  0
    4.5515    0.0147   14.2088 C   0  0  0  0  0  0  0  0  0  0  0  0
    3.3769   -0.9548   14.3927 C   0  0  0  0  0  0  0  0  0  0  0  0
    7.2027   -2.8298   14.9564 C   0  0  0  0  0  0  0  0  0  0  0  0
    7.3398   -3.2999   13.7963 O   0  0  0  0  0  0  0  0  0  0  0  0
    8.0112   -3.1462   16.0057 N   0  0  0  0  0  0  0  0  0  0  0  0
    7.7707   -2.7051   16.8524 H   0  0  0  0  0  0  0  0  0  0  0  0
    9.1863   -4.0364   16.0932 C   0  0  0  0  0  0  0  0  0  0  0  0
    9.0821   -4.8915   17.3845 C   0  0  0  0  0  0  0  0  0  0  0  0
   10.3925   -3.3265   16.2384 C   0  0  0  0  0  0  0  0  0  0  0  0
    9.3334   -4.9936   14.9487 C   0  0  0  0  0  0  0  0  0  0  0  0
    2.3401   -2.7503   15.5547 C   0  0  0  0  0  0  0  0  0  0  0  0
    2.4976   -4.0588   16.3266 C   0  0  0  0  0  0  0  0  0  0  0  0
    2.5789   -4.0682   17.7880 C   0  0  0  0  0  0  0  0  0  0  0  0
    2.8061   -6.5159   17.7858 C   0  0  0  0  0  0  0  0  0  0  0  0
    2.7373   -6.5829   16.3572 C   0  0  0  0  0  0  0  0  0  0  0  0
    2.5735   -5.3310   15.6060 C   0  0  0  0  0  0  0  0  0  0  0  0
    2.9620   -7.8266   18.2690 O   0  0  0  0  0  0  0  0  0  0  0  0
    3.0022   -8.8852   17.2325 C   0  0  0  0  0  0  0  0  0  0  0  0
    2.8441   -7.9388   16.0699 O   0  0  0  0  0  0  0  0  0  0  0  0
    2.7402   -5.2832   18.6003 C   0  0  0  0  0  0  0  0  0  0  0  0
    6.6307    1.3935   11.6115 C   0  0  0  0  0  0  0  0  0  0  0  0
    7.0303    2.8650   11.7936 C   0  0  0  0  0  0  0  0  0  0  0  0
    5.8584    3.8665   11.4206 C   0  0  0  0  0  0  0  0  0  0  0  0
    5.9454    5.1579   11.4445 O   0  0  0  0  0  0  0  0  0  0  0  0
    4.7720    3.1990   11.1034 N   0  0  0  0  0  0  0  0  0  0  0  0
    4.8276    2.2162   11.1170 H   0  0  0  0  0  0  0  0  0  0  0  0
    3.4994    3.7855   10.7352 C   0  0  0  0  0  0  0  0  0  0  0  0
    2.3301    2.8588   11.0317 C   0  0  0  0  0  0  0  0  0  0  0  0
    2.6279    1.5123   10.6744 O   0  0  0  0  0  0  0  0  0  0  0  0
    1.1781    3.4679   10.2821 C   0  0  0  0  0  0  0  0  0  0  0  0
    1.6912    3.9406    8.9472 C   0  0  0  0  0  0  0  0  0  0  0  0
    1.1874    4.2056    7.6658 C   0  0  0  0  0  0  0  0  0  0  0  0
    2.1184    4.6650    6.6506 C   0  0  0  0  0  0  0  0  0  0  0  0
    3.5509    4.8538    6.9416 C   0  0  0  0  0  0  0  0  0  0  0  0
    4.0712    4.5905    8.2312 C   0  0  0  0  0  0  0  0  0  0  0  0
    3.2454    4.1433    9.2719 C   0  0  0  0  0  0  0  0  0  0  0  0
    2.8563    1.4707    9.7326 H   0  0  0  0  0  0  0  0  0  0  0  0
    8.2869    3.2119   10.8413 C   0  0  0  0  0  0  0  0  0  0  0  0
    7.8815    3.2287    9.3514 C   0  0  0  0  0  0  0  0  0  0  0  0
    7.4154    1.9951    8.6526 C   0  0  0  0  0  0  0  0  0  0  0  0
    7.0585    2.0563    7.2478 C   0  0  0  0  0  0  0  0  0  0  0  0
    7.1644    3.3530    6.5310 C   0  0  0  0  0  0  0  0  0  0  0  0
    7.6274    4.5665    7.2382 C   0  0  0  0  0  0  0  0  0  0  0  0
    7.9790    4.4959    8.6310 C   0  0  0  0  0  0  0  0  0  0  0  0
  5  6  1  0  0  0
  5 10  1  0  0  0
  5 19  1  0  0  0
  6  7  1  0  0  0
  7 11  1  0  0  0
  7  8  1  0  0  0
 11 12  2  0  0  0
 11 13  1  0  0  0
 13 15  1  0  0  0
 15 16  1  0  0  0
 15 17  1  0  0  0
 15 18  1  0  0  0
  8  9  1  0  0  0
  8  4  1  0  0  0
  9 10  1  0  0  0
  4  1  1  0  0  0
  1  2  1  0  0  0
  1 29  1  0  0  0
 29 30  1  0  0  0
 30 46  1  0  0  0
 30 31  1  0  0  0
 46 47  1  0  0  0
 47 48  2  0  0  0
 47 52  1  0  0  0
 48 49  1  0  0  0
 49 50  2  0  0  0
 50 51  1  0  0  0
 51 52  2  0  0  0
 31 32  2  0  0  0
 31 33  1  0  0  0
 33 35  1  0  0  0
 35 36  1  0  0  0
 35 44  1  0  0  0
 36 37  1  0  0  0
 36 38  1  0  0  0
 38 39  1  0  0  0
 39 40  2  0  0  0
 39 44  1  0  0  0
 40 41  1  0  0  0
 41 42  2  0  0  0
 42 43  1  0  0  0
 43 44  2  0  0  0
 19 20  1  0  0  0
 20 21  2  0  0  0
 20 24  1  0  0  0
 21 28  1  0  0  0
 22 23  1  0  0  0
 22 25  1  0  0  0
 22 28  2  0  0  0
 23 24  2  0  0  0
 23 27  1  0  0  0
 25 26  1  0  0  0
 26 27  1  0  0  0
 13 14  1  0  0  0
  2  3  1  0  0  0
 33 34  1  0  0  0
 37 45  1  0  0  0
M  END
> <minimizedAffinity>
-10.18036

$$$$
1K6P_XN3_B_807


 52 57  0  0  0  0  0  0  0  0999 V2000
    4.1818   -2.9255   16.3290 C   0  0  0  0  0  0  0  0  0  0  0  0
    5.4765   -2.8559   16.8990 O   0  0  0  0  0  0  0  0  0  0  0  0
    5.9211   -3.7120   16.7971 H   0  0  0  0  0  0  0  0  0  0  0  0
    3.7230   -4.0205   17.2295 C   0  0  0  0  0  0  0  0  0  0  0  0
    3.7554   -8.2298   16.4913 N   0  0  0  0  0  0  0  0  0  0  0  0
    5.1059   -7.5087   16.6669 C   0  0  0  0  0  0  0  0  0  0  0  0
    5.0442   -6.1883   17.4326 C   0  0  0  0  0  0  0  0  0  0  0  0
    3.9898   -5.3627   16.6190 N   0  0  0  0  0  0  0  0  0  0  0  0
    2.6435   -5.9862   16.3630 C   0  0  0  0  0  0  0  0  0  0  0  0
    2.8823   -7.3627   15.7291 C   0  0  0  0  0  0  0  0  0  0  0  0
    6.4344   -5.6765   17.4637 C   0  0  0  0  0  0  0  0  0  0  0  0
    6.9272   -5.3285   18.5690 O   0  0  0  0  0  0  0  0  0  0  0  0
    7.1077   -5.6249   16.2809 N   0  0  0  0  0  0  0  0  0  0  0  0
    6.5844   -5.9211   15.5014 H   0  0  0  0  0  0  0  0  0  0  0  0
    8.4869   -5.2016   15.9654 C   0  0  0  0  0  0  0  0  0  0  0  0
    9.4837   -6.0572   16.7924 C   0  0  0  0  0  0  0  0  0  0  0  0
    8.7493   -3.8768   16.3604 C   0  0  0  0  0  0  0  0  0  0  0  0
    8.8746   -5.3535   14.5252 C   0  0  0  0  0  0  0  0  0  0  0  0
    3.8963   -9.5119   15.7734 C   0  0  0  0  0  0  0  0  0  0  0  0
    3.0122  -10.6578   16.2611 C   0  0  0  0  0  0  0  0  0  0  0  0
    2.4143  -10.6343   17.5969 C   0  0  0  0  0  0  0  0  0  0  0  0
    1.3570  -12.8160   17.1909 C   0  0  0  0  0  0  0  0  0  0  0  0
    1.9113  -12.9089   15.8739 C   0  0  0  0  0  0  0  0  0  0  0  0
    2.7531  -11.8062   15.3907 C   0  0  0  0  0  0  0  0  0  0  0  0
    0.5997  -13.9779   17.4198 O   0  0  0  0  0  0  0  0  0  0  0  0
    0.5625  -14.9435   16.2960 C   0  0  0  0  0  0  0  0  0  0  0  0
    1.4394  -14.1220   15.3859 O   0  0  0  0  0  0  0  0  0  0  0  0
    1.5618  -11.7015   18.1412 C   0  0  0  0  0  0  0  0  0  0  0  0
    4.4281   -3.1842   14.8509 C   0  0  0  0  0  0  0  0  0  0  0  0
    4.1655   -2.0811   13.8153 C   0  0  0  0  0  0  0  0  0  0  0  0
    5.4847   -1.6227   13.0637 C   0  0  0  0  0  0  0  0  0  0  0  0
    6.3092   -2.4137   12.4553 O   0  0  0  0  0  0  0  0  0  0  0  0
    5.6378   -0.3216   13.1641 N   0  0  0  0  0  0  0  0  0  0  0  0
    4.9412    0.1775   13.6488 H   0  0  0  0  0  0  0  0  0  0  0  0
    6.7439    0.4415   12.6226 C   0  0  0  0  0  0  0  0  0  0  0  0
    7.6092    1.0555   13.7126 C   0  0  0  0  0  0  0  0  0  0  0  0
    6.8166    1.5936   14.7669 O   0  0  0  0  0  0  0  0  0  0  0  0
    8.4567    2.0627   12.9865 C   0  0  0  0  0  0  0  0  0  0  0  0
    7.5861    2.7562   11.9717 C   0  0  0  0  0  0  0  0  0  0  0  0
    7.5529    3.9745   11.2784 C   0  0  0  0  0  0  0  0  0  0  0  0
    6.4546    4.2026   10.3564 C   0  0  0  0  0  0  0  0  0  0  0  0
    5.4003    3.1949   10.1429 C   0  0  0  0  0  0  0  0  0  0  0  0
    5.4233    1.9611   10.8361 C   0  0  0  0  0  0  0  0  0  0  0  0
    6.4455    1.6563   11.7455 C   0  0  0  0  0  0  0  0  0  0  0  0
    6.2098    2.2597   14.4076 H   0  0  0  0  0  0  0  0  0  0  0  0
    3.5466   -0.7815   14.5463 C   0  0  0  0  0  0  0  0  0  0  0  0
    2.2748   -0.2793   13.8288 C   0  0  0  0  0  0  0  0  0  0  0  0
    0.9114   -0.7043   14.2625 C   0  0  0  0  0  0  0  0  0  0  0  0
   -0.2540   -0.2176   13.5488 C   0  0  0  0  0  0  0  0  0  0  0  0
   -0.0645    0.6991   12.3954 C   0  0  0  0  0  0  0  0  0  0  0  0
    1.2933    1.1111   11.9786 C   0  0  0  0  0  0  0  0  0  0  0  0
    2.4427    0.6233   12.6925 C   0  0  0  0  0  0  0  0  0  0  0  0
  5  6  1  0  0  0
  5 10  1  0  0  0
  5 19  1  0  0  0
  6  7  1  0  0  0
  7 11  1  0  0  0
  7  8  1  0  0  0
 11 12  2  0  0  0
 11 13  1  0  0  0
 13 15  1  0  0  0
 15 16  1  0  0  0
 15 17  1  0  0  0
 15 18  1  0  0  0
  8  9  1  0  0  0
  8  4  1  0  0  0
  9 10  1  0  0  0
  4  1  1  0  0  0
  1  2  1  0  0  0
  1 29  1  0  0  0
 29 30  1  0  0  0
 30 46  1  0  0  0
 30 31  1  0  0  0
 46 47  1  0  0  0
 47 48  2  0  0  0
 47 52  1  0  0  0
 48 49  1  0  0  0
 49 50  2  0  0  0
 50 51  1  0  0  0
 51 52  2  0  0  0
 31 32  2  0  0  0
 31 33  1  0  0  0
 33 35  1  0  0  0
 35 36  1  0  0  0
 35 44  1  0  0  0
 36 37  1  0  0  0
 36 38  1  0  0  0
 38 39  1  0  0  0
 39 40  2  0  0  0
 39 44  1  0  0  0
 40 41  1  0  0  0
 41 42  2  0  0  0
 42 43  1  0  0  0
 43 44  2  0  0  0
 19 20  1  0  0  0
 20 21  2  0  0  0
 20 24  1  0  0  0
 21 28  1  0  0  0
 22 23  1  0  0  0
 22 25  1  0  0  0
 22 28  2  0  0  0
 23 24  2  0  0  0
 23 27  1  0  0  0
 25 26  1  0  0  0
 26 27  1  0  0  0
 13 14  1  0  0  0
  2  3  1  0  0  0
 33 34  1  0  0  0
 37 45  1  0  0  0
M  END
> <minimizedAffinity>
-9.96160

$$$$
1K6P_XN3_B_807


 52 57  0  0  0  0  0  0  0  0999 V2000
    7.9952    0.0374   13.1763 C   0  0  0  0  0  0  0  0  0  0  0  0
    7.5172   -0.6182   12.0153 O   0  0  0  0  0  0  0  0  0  0  0  0
    6.6236   -0.3017   11.8100 H   0  0  0  0  0  0  0  0  0  0  0  0
    6.8977   -0.4679   14.0486 C   0  0  0  0  0  0  0  0  0  0  0  0
    9.2099   -3.6108   15.7920 N   0  0  0  0  0  0  0  0  0  0  0  0
    7.6997   -3.8410   15.5898 C   0  0  0  0  0  0  0  0  0  0  0  0
    7.0449   -2.9658   14.5226 C   0  0  0  0  0  0  0  0  0  0  0  0
    7.4040   -1.5150   14.9933 N   0  0  0  0  0  0  0  0  0  0  0  0
    8.8515   -1.1893   15.2496 C   0  0  0  0  0  0  0  0  0  0  0  0
    9.3991   -2.2417   16.2223 C   0  0  0  0  0  0  0  0  0  0  0  0
    5.6126   -3.3453   14.5150 C   0  0  0  0  0  0  0  0  0  0  0  0
    4.9251   -3.0951   13.4902 O   0  0  0  0  0  0  0  0  0  0  0  0
    5.1237   -3.9614   15.6270 N   0  0  0  0  0  0  0  0  0  0  0  0
    5.7814   -4.0779   16.3502 H   0  0  0  0  0  0  0  0  0  0  0  0
    3.7776   -4.4847   15.9356 C   0  0  0  0  0  0  0  0  0  0  0  0
    3.7535   -4.9946   17.4015 C   0  0  0  0  0  0  0  0  0  0  0  0
    3.4475   -5.6148   15.1651 C   0  0  0  0  0  0  0  0  0  0  0  0
    2.6709   -3.4817   15.8061 C   0  0  0  0  0  0  0  0  0  0  0  0
    9.7804   -4.5124   16.8122 C   0  0  0  0  0  0  0  0  0  0  0  0
    8.9544   -5.7507   17.1545 C   0  0  0  0  0  0  0  0  0  0  0  0
    7.7579   -5.6524   17.9918 C   0  0  0  0  0  0  0  0  0  0  0  0
    7.4015   -8.0781   17.8130 C   0  0  0  0  0  0  0  0  0  0  0  0
    8.5619   -8.2504   16.9920 C   0  0  0  0  0  0  0  0  0  0  0  0
    9.3563   -7.0639   16.6469 C   0  0  0  0  0  0  0  0  0  0  0  0
    6.8184   -9.3431   18.0015 O   0  0  0  0  0  0  0  0  0  0  0  0
    7.5107  -10.4681   17.3295 C   0  0  0  0  0  0  0  0  0  0  0  0
    8.5968   -9.6145   16.7262 O   0  0  0  0  0  0  0  0  0  0  0  0
    6.9177   -6.7974   18.3726 C   0  0  0  0  0  0  0  0  0  0  0  0
    8.0661    1.5051   12.7849 C   0  0  0  0  0  0  0  0  0  0  0  0
    6.7824    2.3389   12.6624 C   0  0  0  0  0  0  0  0  0  0  0  0
    5.7202    1.6843   11.6834 C   0  0  0  0  0  0  0  0  0  0  0  0
    5.9980    1.1181   10.5528 O   0  0  0  0  0  0  0  0  0  0  0  0
    4.5077    1.8169   12.1717 N   0  0  0  0  0  0  0  0  0  0  0  0
    4.4204    2.2630   13.0450 H   0  0  0  0  0  0  0  0  0  0  0  0
    3.2880    1.3630   11.5350 C   0  0  0  0  0  0  0  0  0  0  0  0
    2.5347    2.4974   10.8570 C   0  0  0  0  0  0  0  0  0  0  0  0
    2.5275    3.6731   11.6615 O   0  0  0  0  0  0  0  0  0  0  0  0
    1.1755    1.9204   10.5752 C   0  0  0  0  0  0  0  0  0  0  0  0
    0.7649    1.0964   11.7674 C   0  0  0  0  0  0  0  0  0  0  0  0
   -0.4168    0.6377   12.3665 C   0  0  0  0  0  0  0  0  0  0  0  0
   -0.3015   -0.1669   13.5697 C   0  0  0  0  0  0  0  0  0  0  0  0
    1.0091   -0.5014   14.1553 C   0  0  0  0  0  0  0  0  0  0  0  0
    2.2090   -0.0449   13.5594 C   0  0  0  0  0  0  0  0  0  0  0  0
    2.1923    0.7375   12.3965 C   0  0  0  0  0  0  0  0  0  0  0  0
    2.1267    3.4736   12.5220 H   0  0  0  0  0  0  0  0  0  0  0  0
    7.1358    3.8047   12.0854 C   0  0  0  0  0  0  0  0  0  0  0  0
    7.0111    3.8536   10.5471 C   0  0  0  0  0  0  0  0  0  0  0  0
    5.7196    4.1842    9.8761 C   0  0  0  0  0  0  0  0  0  0  0  0
    5.6469    4.2042    8.4274 C   0  0  0  0  0  0  0  0  0  0  0  0
    6.8665    3.8941    7.6382 C   0  0  0  0  0  0  0  0  0  0  0  0
    8.1388    3.5689    8.3184 C   0  0  0  0  0  0  0  0  0  0  0  0
    8.2010    3.5517    9.7552 C   0  0  0  0  0  0  0  0  0  0  0  0
  5  6  1  0  0  0
  5 10  1  0  0  0
  5 19  1  0  0  0
  6  7  1  0  0  0
  7 11  1  0  0  0
  7  8  1  0  0  0
 11 12  2  0  0  0
 11 13  1  0  0  0
 13 15  1  0  0  0
 15 16  1  0  0  0
 15 17  1  0  0  0
 15 18  1  0  0  0
  8  9  1  0  0  0
  8  4  1  0  0  0
  9 10  1  0  0  0
  4  1  1  0  0  0
  1  2  1  0  0  0
  1 29  1  0  0  0
 29 30  1  0  0  0
 30 46  1  0  0  0
 30 31  1  0  0  0
 46 47  1  0  0  0
 47 48  2  0  0  0
 47 52  1  0  0  0
 48 49  1  0  0  0
 49 50  2  0  0  0
 50 51  1  0  0  0
 51 52  2  0  0  0
 31 32  2  0  0  0
 31 33  1  0  0  0
 33 35  1  0  0  0
 35 36  1  0  0  0
 35 44  1  0  0  0
 36 37  1  0  0  0
 36 38  1  0  0  0
 38 39  1  0  0  0
 39 40  2  0  0  0
 39 44  1  0  0  0
 40 41  1  0  0  0
 41 42  2  0  0  0
 42 43  1  0  0  0
 43 44  2  0  0  0
 19 20  1  0  0  0
 20 21  2  0  0  0
 20 24  1  0  0  0
 21 28  1  0  0  0
 22 23  1  0  0  0
 22 25  1  0  0  0
 22 28  2  0  0  0
 23 24  2  0  0  0
 23 27  1  0  0  0
 25 26  1  0  0  0
 26 27  1  0  0  0
 13 14  1  0  0  0
  2  3  1  0  0  0
 33 34  1  0  0  0
 37 45  1  0  0  0
M  END
> <minimizedAffinity>
-9.87369

$$$$
1K6P_XN3_B_807


 52 57  0  0  0  0  0  0  0  0999 V2000
    6.9924   -1.3679   15.4033 C   0  0  0  0  0  0  0  0  0  0  0  0
    7.8723   -2.4718   15.2876 O   0  0  0  0  0  0  0  0  0  0  0  0
    7.3714   -3.2576   15.0183 H   0  0  0  0  0  0  0  0  0  0  0  0
    6.1500   -2.0074   16.4532 C   0  0  0  0  0  0  0  0  0  0  0  0
    3.3916   -5.2139   15.8426 N   0  0  0  0  0  0  0  0  0  0  0  0
    4.8448   -5.5623   16.2190 C   0  0  0  0  0  0  0  0  0  0  0  0
    5.6174   -4.4520   16.9286 C   0  0  0  0  0  0  0  0  0  0  0  0
    5.4956   -3.2500   15.9308 N   0  0  0  0  0  0  0  0  0  0  0  0
    4.1200   -2.8434   15.4733 C   0  0  0  0  0  0  0  0  0  0  0  0
    3.4243   -4.0956   14.9241 C   0  0  0  0  0  0  0  0  0  0  0  0
    6.9723   -4.9993   17.1747 C   0  0  0  0  0  0  0  0  0  0  0  0
    7.3318   -5.2155   18.3620 O   0  0  0  0  0  0  0  0  0  0  0  0
    7.7517   -5.2505   16.0864 N   0  0  0  0  0  0  0  0  0  0  0  0
    7.3348   -5.0191   15.2250 H   0  0  0  0  0  0  0  0  0  0  0  0
    9.1139   -5.8098   15.9748 C   0  0  0  0  0  0  0  0  0  0  0  0
   10.1181   -4.8449   16.6606 C   0  0  0  0  0  0  0  0  0  0  0  0
    9.5578   -5.8896   14.6420 C   0  0  0  0  0  0  0  0  0  0  0  0
    9.2940   -7.1526   16.6167 C   0  0  0  0  0  0  0  0  0  0  0  0
    2.6975   -6.3427   15.1920 C   0  0  0  0  0  0  0  0  0  0  0  0
    2.9234   -7.7200   15.8123 C   0  0  0  0  0  0  0  0  0  0  0  0
    2.4235   -8.0364   17.1510 C   0  0  0  0  0  0  0  0  0  0  0  0
    3.3548  -10.3057   16.9912 C   0  0  0  0  0  0  0  0  0  0  0  0
    3.8757  -10.0662   15.6791 C   0  0  0  0  0  0  0  0  0  0  0  0
    3.6532   -8.7486   15.0687 C   0  0  0  0  0  0  0  0  0  0  0  0
    3.6934  -11.6211   17.3529 O   0  0  0  0  0  0  0  0  0  0  0  0
    4.4520  -12.3848   16.3342 C   0  0  0  0  0  0  0  0  0  0  0  0
    4.4873  -11.2639   15.3270 O   0  0  0  0  0  0  0  0  0  0  0  0
    2.6088   -9.3332   17.8188 C   0  0  0  0  0  0  0  0  0  0  0  0
    6.4563   -1.1569   13.9960 C   0  0  0  0  0  0  0  0  0  0  0  0
    6.2726    0.2627   13.4399 C   0  0  0  0  0  0  0  0  0  0  0  0
    4.7952    0.8068   13.6309 C   0  0  0  0  0  0  0  0  0  0  0  0
    4.1111    0.7374   14.7277 O   0  0  0  0  0  0  0  0  0  0  0  0
    4.3501    1.3215   12.5069 N   0  0  0  0  0  0  0  0  0  0  0  0
    4.9646    1.3221   11.7378 H   0  0  0  0  0  0  0  0  0  0  0  0
    3.0325    1.8881   12.3026 C   0  0  0  0  0  0  0  0  0  0  0  0
    1.9724    0.8189   12.0850 C   0  0  0  0  0  0  0  0  0  0  0  0
    2.4456   -0.2189   11.2315 O   0  0  0  0  0  0  0  0  0  0  0  0
    0.7877    1.5774   11.5549 C   0  0  0  0  0  0  0  0  0  0  0  0
    1.2953    2.6124   10.5855 C   0  0  0  0  0  0  0  0  0  0  0  0
    0.8173    3.3436    9.4888 C   0  0  0  0  0  0  0  0  0  0  0  0
    1.7275    4.2709    8.8408 C   0  0  0  0  0  0  0  0  0  0  0  0
    3.1132    4.4514    9.3095 C   0  0  0  0  0  0  0  0  0  0  0  0
    3.6071    3.7198   10.4159 C   0  0  0  0  0  0  0  0  0  0  0  0
    2.7985    2.8025   11.1013 C   0  0  0  0  0  0  0  0  0  0  0  0
    2.7166    0.1604   10.3809 H   0  0  0  0  0  0  0  0  0  0  0  0
    6.5941    0.2757   11.8579 C   0  0  0  0  0  0  0  0  0  0  0  0
    6.9956    1.6855   11.3725 C   0  0  0  0  0  0  0  0  0  0  0  0
    6.9385    2.0628    9.9296 C   0  0  0  0  0  0  0  0  0  0  0  0
    7.3392    3.3952    9.5189 C   0  0  0  0  0  0  0  0  0  0  0  0
    7.7999    4.3612   10.5490 C   0  0  0  0  0  0  0  0  0  0  0  0
    7.8501    3.9717   11.9749 C   0  0  0  0  0  0  0  0  0  0  0  0
    7.4507    2.6484   12.3724 C   0  0  0  0  0  0  0  0  0  0  0  0
  5  6  1  0  0  0
  5 10  1  0  0  0
  5 19  1  0  0  0
  6  7  1  0  0  0
  7 11  1  0  0  0
  7  8  1  0  0  0
 11 12  2  0  0  0
 11 13  1  0  0  0
 13 15  1  0  0  0
 15 16  1  0  0  0
 15 17  1  0  0  0
 15 18  1  0  0  0
  8  9  1  0  0  0
  8  4  1  0  0  0
  9 10  1  0  0  0
  4  1  1  0  0  0
  1  2  1  0  0  0
  1 29  1  0  0  0
 29 30  1  0  0  0
 30 46  1  0  0  0
 30 31  1  0  0  0
 46 47  1  0  0  0
 47 48  2  0  0  0
 47 52  1  0  0  0
 48 49  1  0  0  0
 49 50  2  0  0  0
 50 51  1  0  0  0
 51 52  2  0  0  0
 31 32  2  0  0  0
 31 33  1  0  0  0
 33 35  1  0  0  0
 35 36  1  0  0  0
 35 44  1  0  0  0
 36 37  1  0  0  0
 36 38  1  0  0  0
 38 39  1  0  0  0
 39 40  2  0  0  0
 39 44  1  0  0  0
 40 41  1  0  0  0
 41 42  2  0  0  0
 42 43  1  0  0  0
 43 44  2  0  0  0
 19 20  1  0  0  0
 20 21  2  0  0  0
 20 24  1  0  0  0
 21 28  1  0  0  0
 22 23  1  0  0  0
 22 25  1  0  0  0
 22 28  2  0  0  0
 23 24  2  0  0  0
 23 27  1  0  0  0
 25 26  1  0  0  0
 26 27  1  0  0  0
 13 14  1  0  0  0
  2  3  1  0  0  0
 33 34  1  0  0  0
 37 45  1  0  0  0
M  END
> <minimizedAffinity>
-9.84236

$$$$
1K6P_XN3_B_807


 52 57  0  0  0  0  0  0  0  0999 V2000
    4.1082   -7.5844   16.6554 C   0  0  0  0  0  0  0  0  0  0  0  0
    5.2965   -8.2414   17.0584 O   0  0  0  0  0  0  0  0  0  0  0  0
    5.1760   -8.6113   17.9470 H   0  0  0  0  0  0  0  0  0  0  0  0
    4.1305   -6.6126   17.7850 C   0  0  0  0  0  0  0  0  0  0  0  0
    3.5134   -3.1660   15.3348 N   0  0  0  0  0  0  0  0  0  0  0  0
    4.9527   -3.5058   15.7681 C   0  0  0  0  0  0  0  0  0  0  0  0
    5.1882   -4.9640   16.1573 C   0  0  0  0  0  0  0  0  0  0  0  0
    4.1195   -5.2026   17.2781 N   0  0  0  0  0  0  0  0  0  0  0  0
    2.6825   -4.8747   16.9706 C   0  0  0  0  0  0  0  0  0  0  0  0
    2.6358   -3.4306   16.4550 C   0  0  0  0  0  0  0  0  0  0  0  0
    6.6154   -5.0506   16.5464 C   0  0  0  0  0  0  0  0  0  0  0  0
    6.9271   -4.8617   17.7517 O   0  0  0  0  0  0  0  0  0  0  0  0
    7.5133   -5.3459   15.5659 N   0  0  0  0  0  0  0  0  0  0  0  0
    7.1177   -5.4552   14.6710 H   0  0  0  0  0  0  0  0  0  0  0  0
    8.9778   -5.5303   15.6128 C   0  0  0  0  0  0  0  0  0  0  0  0
    9.6457   -4.1952   16.0383 C   0  0  0  0  0  0  0  0  0  0  0  0
    9.5279   -5.8108   14.3484 C   0  0  0  0  0  0  0  0  0  0  0  0
    9.4465   -6.5776   16.5777 C   0  0  0  0  0  0  0  0  0  0  0  0
    3.3683   -1.7505   14.9417 C   0  0  0  0  0  0  0  0  0  0  0  0
    4.5604   -1.1263   14.2192 C   0  0  0  0  0  0  0  0  0  0  0  0
    5.1449   -1.7626   13.0378 C   0  0  0  0  0  0  0  0  0  0  0  0
    6.8115    0.0357   12.8613 C   0  0  0  0  0  0  0  0  0  0  0  0
    6.2946    0.7119   14.0127 C   0  0  0  0  0  0  0  0  0  0  0  0
    5.1404    0.1262   14.7076 C   0  0  0  0  0  0  0  0  0  0  0  0
    7.9010    0.7819   12.3795 O   0  0  0  0  0  0  0  0  0  0  0  0
    8.2114    2.0159   13.1394 C   0  0  0  0  0  0  0  0  0  0  0  0
    7.1025    1.8355   14.1444 O   0  0  0  0  0  0  0  0  0  0  0  0
    6.2965   -1.2297   12.2949 C   0  0  0  0  0  0  0  0  0  0  0  0
    3.0625   -8.6869   16.5968 C   0  0  0  0  0  0  0  0  0  0  0  0
    3.4887  -10.1535   16.4363 C   0  0  0  0  0  0  0  0  0  0  0  0
    4.4558  -10.6386   17.5958 C   0  0  0  0  0  0  0  0  0  0  0  0
    4.1918  -10.5769   18.8616 O   0  0  0  0  0  0  0  0  0  0  0  0
    5.5799  -11.0947   17.0910 N   0  0  0  0  0  0  0  0  0  0  0  0
    5.6650  -11.0960   16.1102 H   0  0  0  0  0  0  0  0  0  0  0  0
    6.7049  -11.5958   17.8541 C   0  0  0  0  0  0  0  0  0  0  0  0
    7.8441  -10.5905   17.9296 C   0  0  0  0  0  0  0  0  0  0  0  0
    8.0584   -9.9497   16.6755 O   0  0  0  0  0  0  0  0  0  0  0  0
    9.0112  -11.3935   18.4326 C   0  0  0  0  0  0  0  0  0  0  0  0
    8.9814  -12.7346   17.7475 C   0  0  0  0  0  0  0  0  0  0  0  0
    9.8771  -13.7609   17.4152 C   0  0  0  0  0  0  0  0  0  0  0  0
    9.3534  -14.9208   16.7160 C   0  0  0  0  0  0  0  0  0  0  0  0
    7.9272  -15.0325   16.3607 C   0  0  0  0  0  0  0  0  0  0  0  0
    7.0132  -14.0037   16.6915 C   0  0  0  0  0  0  0  0  0  0  0  0
    7.4311  -12.8480   17.3658 C   0  0  0  0  0  0  0  0  0  0  0  0
    8.2476  -10.6184   15.9988 H   0  0  0  0  0  0  0  0  0  0  0  0
    4.2729  -10.3447   15.0381 C   0  0  0  0  0  0  0  0  0  0  0  0
    3.4384  -11.1608   14.0271 C   0  0  0  0  0  0  0  0  0  0  0  0
    3.4161  -10.8200   12.5742 C   0  0  0  0  0  0  0  0  0  0  0  0
    2.6058  -11.6068   11.6639 C   0  0  0  0  0  0  0  0  0  0  0  0
    1.8115  -12.7418   12.2001 C   0  0  0  0  0  0  0  0  0  0  0  0
    1.8450  -13.0668   13.6425 C   0  0  0  0  0  0  0  0  0  0  0  0
    2.6515  -12.2809   14.5373 C   0  0  0  0  0  0  0  0  0  0  0  0
  5  6  1  0  0  0
  5 10  1  0  0  0
  5 19  1  0  0  0
  6  7  1  0  0  0
  7 11  1  0  0  0
  7  8  1  0  0  0
 11 12  2  0  0  0
 11 13  1  0  0  0
 13 15  1  0  0  0
 15 16  1  0  0  0
 15 17  1  0  0  0
 15 18  1  0  0  0
  8  9  1  0  0  0
  8  4  1  0  0  0
  9 10  1  0  0  0
  4  1  1  0  0  0
  1  2  1  0  0  0
  1 29  1  0  0  0
 29 30  1  0  0  0
 30 46  1  0  0  0
 30 31  1  0  0  0
 46 47  1  0  0  0
 47 48  2  0  0  0
 47 52  1  0  0  0
 48 49  1  0  0  0
 49 50  2  0  0  0
 50 51  1  0  0  0
 51 52  2  0  0  0
 31 32  2  0  0  0
 31 33  1  0  0  0
 33 35  1  0  0  0
 35 36  1  0  0  0
 35 44  1  0  0  0
 36 37  1  0  0  0
 36 38  1  0  0  0
 38 39  1  0  0  0
 39 40  2  0  0  0
 39 44  1  0  0  0
 40 41  1  0  0  0
 41 42  2  0  0  0
 42 43  1  0  0  0
 43 44  2  0  0  0
 19 20  1  0  0  0
 20 21  2  0  0  0
 20 24  1  0  0  0
 21 28  1  0  0  0
 22 23  1  0  0  0
 22 25  1  0  0  0
 22 28  2  0  0  0
 23 24  2  0  0  0
 23 27  1  0  0  0
 25 26  1  0  0  0
 26 27  1  0  0  0
 13 14  1  0  0  0
  2  3  1  0  0  0
 33 34  1  0  0  0
 37 45  1  0  0  0
M  END
> <minimizedAffinity>
-9.63401

$$$$
