5JI8_6KT_A_301


 17 18  0  0  0  0  0  0  0  0999 V2000
    4.3219    7.1342    9.8247 C   0  0  0  0  0  0  0  0  0  0  0  0
    4.6087    6.7016    7.4750 C   0  0  0  0  0  0  0  0  0  0  0  0
    4.0054    6.4167    8.7032 C   0  0  0  0  0  0  0  0  0  0  0  0
    6.8752    9.9881    9.8076 C   0  0  0  0  0  0  0  0  0  0  0  0
    7.7465   11.0862   10.1833 N   0  0  0  0  0  0  0  0  0  0  0  0
    5.8903    8.4628    8.4840 C   0  0  0  0  0  0  0  0  0  0  0  0
    5.2418    8.1214    9.7036 C   0  0  0  0  0  0  0  0  0  0  0  0
    5.5647    7.7211    7.3531 C   0  0  0  0  0  0  0  0  0  0  0  0
    6.8124    9.5199    8.5572 N   0  0  0  0  0  0  0  0  0  0  0  0
    5.8254    9.1912   10.9628 S   0  0  0  0  0  0  0  0  0  0  0  0
    8.3232   11.5104    9.5075 H   0  0  0  0  0  0  0  0  0  0  0  0
    7.7608   11.4070   11.1140 H   0  0  0  0  0  0  0  0  0  0  0  0
    2.9832    5.3149    8.8401 C   0  0  0  0  0  0  0  0  0  0  0  0
    2.2314    5.3176    9.7537 O   0  0  0  0  0  0  0  0  0  0  0  0
    2.9427    4.2751    7.8227 N   0  0  0  0  0  0  0  0  0  0  0  0
    3.5796    4.2956    7.0722 H   0  0  0  0  0  0  0  0  0  0  0  0
    2.2785    3.5511    7.8850 H   0  0  0  0  0  0  0  0  0  0  0  0
 15 13  1  0  0  0
  2  8  2  0  0  0
  2  3  1  0  0  0
  8  6  1  0  0  0
 13  3  1  0  0  0
 13 14  2  0  0  0
  3  1  2  0  0  0
  6  9  1  0  0  0
  6  7  2  0  0  0
  9  4  2  0  0  0
  1  7  1  0  0  0
  7 10  1  0  0  0
  4  5  1  0  0  0
  4 10  1  0  0  0
  5 11  1  0  0  0
  5 12  1  0  0  0
 15 16  1  0  0  0
 15 17  1  0  0  0
M  END
> <minimizedAffinity>
-6.35108

$$$$
5JI8_6KT_A_301


 17 18  0  0  0  0  0  0  0  0999 V2000
    4.9942    7.0193    7.8386 C   0  0  0  0  0  0  0  0  0  0  0  0
    4.4542    7.2985   10.1668 C   0  0  0  0  0  0  0  0  0  0  0  0
    4.2465    6.6768    8.9323 C   0  0  0  0  0  0  0  0  0  0  0  0
    7.7290    9.6973    7.9532 C   0  0  0  0  0  0  0  0  0  0  0  0
    8.8018   10.6147    7.6161 N   0  0  0  0  0  0  0  0  0  0  0  0
    6.1964    8.6521    9.2210 C   0  0  0  0  0  0  0  0  0  0  0  0
    5.9339    7.9829    7.9930 C   0  0  0  0  0  0  0  0  0  0  0  0
    5.4245    8.2997   10.3232 C   0  0  0  0  0  0  0  0  0  0  0  0
    7.2136    9.6201    9.1841 N   0  0  0  0  0  0  0  0  0  0  0  0
    7.0271    8.6071    6.7741 S   0  0  0  0  0  0  0  0  0  0  0  0
    9.1722   11.2132    8.3045 H   0  0  0  0  0  0  0  0  0  0  0  0
    9.1592   10.6386    6.6990 H   0  0  0  0  0  0  0  0  0  0  0  0
    3.1976    5.6058    8.7582 C   0  0  0  0  0  0  0  0  0  0  0  0
    2.3745    5.4448    9.5929 O   0  0  0  0  0  0  0  0  0  0  0  0
    3.2215    4.8011    7.5459 N   0  0  0  0  0  0  0  0  0  0  0  0
    3.9172    4.9551    6.8665 H   0  0  0  0  0  0  0  0  0  0  0  0
    2.5419    4.1028    7.4050 H   0  0  0  0  0  0  0  0  0  0  0  0
 15 13  1  0  0  0
  2  8  2  0  0  0
  2  3  1  0  0  0
  8  6  1  0  0  0
 13  3  1  0  0  0
 13 14  2  0  0  0
  3  1  2  0  0  0
  6  9  1  0  0  0
  6  7  2  0  0  0
  9  4  2  0  0  0
  1  7  1  0  0  0
  7 10  1  0  0  0
  4  5  1  0  0  0
  4 10  1  0  0  0
  5 11  1  0  0  0
  5 12  1  0  0  0
 15 16  1  0  0  0
 15 17  1  0  0  0
M  END
> <minimizedAffinity>
-6.01233

$$$$
5JI8_6KT_A_301


 17 18  0  0  0  0  0  0  0  0999 V2000
    5.5361    8.4613   10.2541 C   0  0  0  0  0  0  0  0  0  0  0  0
    6.7068    9.1494    8.2676 C   0  0  0  0  0  0  0  0  0  0  0  0
    6.4304    9.2884    9.6306 C   0  0  0  0  0  0  0  0  0  0  0  0
    3.6559    5.6781    8.4148 C   0  0  0  0  0  0  0  0  0  0  0  0
    2.7899    4.5639    8.0762 N   0  0  0  0  0  0  0  0  0  0  0  0
    5.1643    7.3164    8.1156 C   0  0  0  0  0  0  0  0  0  0  0  0
    4.9262    7.5117    9.5047 C   0  0  0  0  0  0  0  0  0  0  0  0
    6.0703    8.1685    7.4924 C   0  0  0  0  0  0  0  0  0  0  0  0
    4.4386    6.2765    7.5114 N   0  0  0  0  0  0  0  0  0  0  0  0
    3.7536    6.3249   10.0407 S   0  0  0  0  0  0  0  0  0  0  0  0
    2.7605    4.2265    7.1518 H   0  0  0  0  0  0  0  0  0  0  0  0
    2.2318    4.1454    8.7709 H   0  0  0  0  0  0  0  0  0  0  0  0
    7.1066   10.3482   10.4657 C   0  0  0  0  0  0  0  0  0  0  0  0
    7.7417   11.1972    9.9404 O   0  0  0  0  0  0  0  0  0  0  0  0
    6.9436   10.3020   11.9111 N   0  0  0  0  0  0  0  0  0  0  0  0
    6.4099    9.5849   12.3236 H   0  0  0  0  0  0  0  0  0  0  0  0
    7.3671   10.9879   12.4763 H   0  0  0  0  0  0  0  0  0  0  0  0
 15 13  1  0  0  0
  2  8  2  0  0  0
  2  3  1  0  0  0
  8  6  1  0  0  0
 13  3  1  0  0  0
 13 14  2  0  0  0
  3  1  2  0  0  0
  6  9  1  0  0  0
  6  7  2  0  0  0
  9  4  2  0  0  0
  1  7  1  0  0  0
  7 10  1  0  0  0
  4  5  1  0  0  0
  4 10  1  0  0  0
  5 11  1  0  0  0
  5 12  1  0  0  0
 15 16  1  0  0  0
 15 17  1  0  0  0
M  END
> <minimizedAffinity>
-5.88159

$$$$
5JI8_6KT_A_301


 17 18  0  0  0  0  0  0  0  0999 V2000
    6.6439    8.2443    7.5080 C   0  0  0  0  0  0  0  0  0  0  0  0
    6.7264    9.6057    9.4905 C   0  0  0  0  0  0  0  0  0  0  0  0
    7.2008    9.2727    8.2185 C   0  0  0  0  0  0  0  0  0  0  0  0
    3.7506    6.1251    8.8505 C   0  0  0  0  0  0  0  0  0  0  0  0
    2.6952    5.1419    9.0107 N   0  0  0  0  0  0  0  0  0  0  0  0
    5.0953    7.8487    9.3702 C   0  0  0  0  0  0  0  0  0  0  0  0
    5.6255    7.5594    8.0818 C   0  0  0  0  0  0  0  0  0  0  0  0
    5.6751    8.8918   10.0848 C   0  0  0  0  0  0  0  0  0  0  0  0
    4.0357    7.0291    9.7930 N   0  0  0  0  0  0  0  0  0  0  0  0
    4.7328    6.2136    7.4018 S   0  0  0  0  0  0  0  0  0  0  0  0
    2.1631    5.1214    9.8388 H   0  0  0  0  0  0  0  0  0  0  0  0
    2.5113    4.4955    8.2914 H   0  0  0  0  0  0  0  0  0  0  0  0
    8.3375   10.0326    7.5798 C   0  0  0  0  0  0  0  0  0  0  0  0
    8.7878   10.9845    8.1194 O   0  0  0  0  0  0  0  0  0  0  0  0
    8.8625    9.5574    6.3084 N   0  0  0  0  0  0  0  0  0  0  0  0
    8.4700    8.7627    5.8799 H   0  0  0  0  0  0  0  0  0  0  0  0
    9.6102   10.0307    5.8768 H   0  0  0  0  0  0  0  0  0  0  0  0
 15 13  1  0  0  0
  2  8  2  0  0  0
  2  3  1  0  0  0
  8  6  1  0  0  0
 13  3  1  0  0  0
 13 14  2  0  0  0
  3  1  2  0  0  0
  6  9  1  0  0  0
  6  7  2  0  0  0
  9  4  2  0  0  0
  1  7  1  0  0  0
  7 10  1  0  0  0
  4  5  1  0  0  0
  4 10  1  0  0  0
  5 11  1  0  0  0
  5 12  1  0  0  0
 15 16  1  0  0  0
 15 17  1  0  0  0
M  END
> <minimizedAffinity>
-5.83260

$$$$
5JI8_6KT_A_301


 17 18  0  0  0  0  0  0  0  0999 V2000
    6.0278    7.7069    7.8819 C   0  0  0  0  0  0  0  0  0  0  0  0
    5.4815    8.7674    9.9717 C   0  0  0  0  0  0  0  0  0  0  0  0
    5.2555    7.7794    9.0092 C   0  0  0  0  0  0  0  0  0  0  0  0
    8.8844   10.1546    7.1654 C   0  0  0  0  0  0  0  0  0  0  0  0
   10.0020   10.8622    6.5684 N   0  0  0  0  0  0  0  0  0  0  0  0
    7.2934    9.6555    8.6716 C   0  0  0  0  0  0  0  0  0  0  0  0
    7.0104    8.6272    7.7298 C   0  0  0  0  0  0  0  0  0  0  0  0
    6.4964    9.7224    9.8097 C   0  0  0  0  0  0  0  0  0  0  0  0
    8.3553   10.5130    8.3395 N   0  0  0  0  0  0  0  0  0  0  0  0
    8.1422    8.7642    6.3991 S   0  0  0  0  0  0  0  0  0  0  0  0
   10.3941   11.6398    7.0275 H   0  0  0  0  0  0  0  0  0  0  0  0
   10.3679   10.5646    5.7042 H   0  0  0  0  0  0  0  0  0  0  0  0
    4.1589    6.7559    9.1758 C   0  0  0  0  0  0  0  0  0  0  0  0
    3.7371    6.5133   10.2544 O   0  0  0  0  0  0  0  0  0  0  0  0
    3.6359    6.0989    7.9873 N   0  0  0  0  0  0  0  0  0  0  0  0
    4.0042    6.3186    7.1011 H   0  0  0  0  0  0  0  0  0  0  0  0
    2.9138    5.4348    8.0694 H   0  0  0  0  0  0  0  0  0  0  0  0
 15 13  1  0  0  0
  2  8  2  0  0  0
  2  3  1  0  0  0
  8  6  1  0  0  0
 13  3  1  0  0  0
 13 14  2  0  0  0
  3  1  2  0  0  0
  6  9  1  0  0  0
  6  7  2  0  0  0
  9  4  2  0  0  0
  1  7  1  0  0  0
  7 10  1  0  0  0
  4  5  1  0  0  0
  4 10  1  0  0  0
  5 11  1  0  0  0
  5 12  1  0  0  0
 15 16  1  0  0  0
 15 17  1  0  0  0
M  END
> <minimizedAffinity>
-5.78537

$$$$
5JI8_6KT_A_301


 17 18  0  0  0  0  0  0  0  0999 V2000
    7.7588    9.2794    7.4850 C   0  0  0  0  0  0  0  0  0  0  0  0
    7.3235    7.1475    8.5126 C   0  0  0  0  0  0  0  0  0  0  0  0
    7.1126    8.5267    8.4276 C   0  0  0  0  0  0  0  0  0  0  0  0
   10.2223    7.7791    4.9662 C   0  0  0  0  0  0  0  0  0  0  0  0
   11.1786    7.5856    3.8918 N   0  0  0  0  0  0  0  0  0  0  0  0
    8.8686    7.2448    6.6781 C   0  0  0  0  0  0  0  0  0  0  0  0
    8.6115    8.6439    6.6457 C   0  0  0  0  0  0  0  0  0  0  0  0
    8.2106    6.4923    7.6456 C   0  0  0  0  0  0  0  0  0  0  0  0
    9.7824    6.7690    5.7232 N   0  0  0  0  0  0  0  0  0  0  0  0
    9.5577    9.3539    5.3530 S   0  0  0  0  0  0  0  0  0  0  0  0
   11.5312    6.6861    3.7027 H   0  0  0  0  0  0  0  0  0  0  0  0
   11.4748    8.3540    3.3522 H   0  0  0  0  0  0  0  0  0  0  0  0
    6.1658    9.2363    9.3644 C   0  0  0  0  0  0  0  0  0  0  0  0
    6.5466   10.1572   10.0023 O   0  0  0  0  0  0  0  0  0  0  0  0
    4.7899    8.7693    9.4461 N   0  0  0  0  0  0  0  0  0  0  0  0
    4.4980    8.0006    8.9047 H   0  0  0  0  0  0  0  0  0  0  0  0
    4.1510    9.2221   10.0427 H   0  0  0  0  0  0  0  0  0  0  0  0
 15 13  1  0  0  0
  2  8  2  0  0  0
  2  3  1  0  0  0
  8  6  1  0  0  0
 13  3  1  0  0  0
 13 14  2  0  0  0
  3  1  2  0  0  0
  6  9  1  0  0  0
  6  7  2  0  0  0
  9  4  2  0  0  0
  1  7  1  0  0  0
  7 10  1  0  0  0
  4  5  1  0  0  0
  4 10  1  0  0  0
  5 11  1  0  0  0
  5 12  1  0  0  0
 15 16  1  0  0  0
 15 17  1  0  0  0
M  END
> <minimizedAffinity>
-5.67193

$$$$
5JI8_6KT_A_301


 17 18  0  0  0  0  0  0  0  0999 V2000
    7.5976    6.7381    8.0657 C   0  0  0  0  0  0  0  0  0  0  0  0
    7.0811    8.9577    7.2927 C   0  0  0  0  0  0  0  0  0  0  0  0
    6.8165    7.8606    8.1175 C   0  0  0  0  0  0  0  0  0  0  0  0
   10.5836    6.3983    5.6923 C   0  0  0  0  0  0  0  0  0  0  0  0
   11.7429    5.9156    4.9648 N   0  0  0  0  0  0  0  0  0  0  0  0
    8.9513    7.8087    6.3211 C   0  0  0  0  0  0  0  0  0  0  0  0
    8.6275    6.7260    7.1856 C   0  0  0  0  0  0  0  0  0  0  0  0
    8.1451    8.9409    6.3786 C   0  0  0  0  0  0  0  0  0  0  0  0
   10.0595    7.6097    5.4810 N   0  0  0  0  0  0  0  0  0  0  0  0
    9.7807    5.4344    6.9161 S   0  0  0  0  0  0  0  0  0  0  0  0
   12.1686    6.4848    4.2836 H   0  0  0  0  0  0  0  0  0  0  0  0
   12.1035    5.0190    5.1525 H   0  0  0  0  0  0  0  0  0  0  0  0
    5.6673    7.8716    9.0956 C   0  0  0  0  0  0  0  0  0  0  0  0
    5.1128    6.8618    9.3660 O   0  0  0  0  0  0  0  0  0  0  0  0
    5.2787    9.1389    9.6962 N   0  0  0  0  0  0  0  0  0  0  0  0
    5.7563    9.9652    9.4543 H   0  0  0  0  0  0  0  0  0  0  0  0
    4.5384    9.1701   10.3443 H   0  0  0  0  0  0  0  0  0  0  0  0
 15 13  1  0  0  0
  2  8  2  0  0  0
  2  3  1  0  0  0
  8  6  1  0  0  0
 13  3  1  0  0  0
 13 14  2  0  0  0
  3  1  2  0  0  0
  6  9  1  0  0  0
  6  7  2  0  0  0
  9  4  2  0  0  0
  1  7  1  0  0  0
  7 10  1  0  0  0
  4  5  1  0  0  0
  4 10  1  0  0  0
  5 11  1  0  0  0
  5 12  1  0  0  0
 15 16  1  0  0  0
 15 17  1  0  0  0
M  END
> <minimizedAffinity>
-5.60354

$$$$
5JI8_6KT_A_301


 17 18  0  0  0  0  0  0  0  0999 V2000
    8.1418    6.3176    7.5178 C   0  0  0  0  0  0  0  0  0  0  0  0
    9.4099    7.9405    6.2733 C   0  0  0  0  0  0  0  0  0  0  0  0
    9.0966    6.6141    6.5832 C   0  0  0  0  0  0  0  0  0  0  0  0
    6.2009    9.0119    9.4251 C   0  0  0  0  0  0  0  0  0  0  0  0
    5.2954    9.7176   10.3130 N   0  0  0  0  0  0  0  0  0  0  0  0
    7.7895    8.7216    7.8628 C   0  0  0  0  0  0  0  0  0  0  0  0
    7.5191    7.3512    8.1336 C   0  0  0  0  0  0  0  0  0  0  0  0
    8.7672    9.0092    6.9159 C   0  0  0  0  0  0  0  0  0  0  0  0
    7.0375    9.6505    8.6010 N   0  0  0  0  0  0  0  0  0  0  0  0
    6.2648    7.2620    9.3540 S   0  0  0  0  0  0  0  0  0  0  0  0
    5.2867   10.7019   10.3264 H   0  0  0  0  0  0  0  0  0  0  0  0
    4.6898    9.2119   10.9018 H   0  0  0  0  0  0  0  0  0  0  0  0
    9.7922    5.4619    5.9004 C   0  0  0  0  0  0  0  0  0  0  0  0
   10.6326    4.8571    6.4731 O   0  0  0  0  0  0  0  0  0  0  0  0
    9.3935    5.1154    4.5444 N   0  0  0  0  0  0  0  0  0  0  0  0
    8.6914    5.6347    4.0898 H   0  0  0  0  0  0  0  0  0  0  0  0
    9.8259    4.3617    4.0816 H   0  0  0  0  0  0  0  0  0  0  0  0
 15 13  1  0  0  0
  2  8  2  0  0  0
  2  3  1  0  0  0
  8  6  1  0  0  0
 13  3  1  0  0  0
 13 14  2  0  0  0
  3  1  2  0  0  0
  6  9  1  0  0  0
  6  7  2  0  0  0
  9  4  2  0  0  0
  1  7  1  0  0  0
  7 10  1  0  0  0
  4  5  1  0  0  0
  4 10  1  0  0  0
  5 11  1  0  0  0
  5 12  1  0  0  0
 15 16  1  0  0  0
 15 17  1  0  0  0
M  END
> <minimizedAffinity>
-5.54329

$$$$
5JI8_6KT_A_301


 17 18  0  0  0  0  0  0  0  0999 V2000
    6.7522    9.6427    9.1004 C   0  0  0  0  0  0  0  0  0  0  0  0
    5.2706    7.8366    9.6778 C   0  0  0  0  0  0  0  0  0  0  0  0
    6.0702    8.5094    8.7494 C   0  0  0  0  0  0  0  0  0  0  0  0
    6.5899   11.1552   12.6147 C   0  0  0  0  0  0  0  0  0  0  0  0
    6.7734   11.9925   13.7857 N   0  0  0  0  0  0  0  0  0  0  0  0
    5.8247    9.4522   11.3644 C   0  0  0  0  0  0  0  0  0  0  0  0
    6.6198   10.0907   10.3720 C   0  0  0  0  0  0  0  0  0  0  0  0
    5.1310    8.3052   10.9927 C   0  0  0  0  0  0  0  0  0  0  0  0
    5.8161   10.0653   12.6282 N   0  0  0  0  0  0  0  0  0  0  0  0
    7.3769   11.4999   11.0872 S   0  0  0  0  0  0  0  0  0  0  0  0
    6.3153   11.7684   14.6278 H   0  0  0  0  0  0  0  0  0  0  0  0
    7.3561   12.7846   13.7381 H   0  0  0  0  0  0  0  0  0  0  0  0
    6.2156    8.0132    7.3316 C   0  0  0  0  0  0  0  0  0  0  0  0
    6.9490    8.5658    6.5854 O   0  0  0  0  0  0  0  0  0  0  0  0
    5.4495    6.8454    6.9226 N   0  0  0  0  0  0  0  0  0  0  0  0
    4.8460    6.4037    7.5628 H   0  0  0  0  0  0  0  0  0  0  0  0
    5.5348    6.4972    6.0057 H   0  0  0  0  0  0  0  0  0  0  0  0
 15 13  1  0  0  0
  2  8  2  0  0  0
  2  3  1  0  0  0
  8  6  1  0  0  0
 13  3  1  0  0  0
 13 14  2  0  0  0
  3  1  2  0  0  0
  6  9  1  0  0  0
  6  7  2  0  0  0
  9  4  2  0  0  0
  1  7  1  0  0  0
  7 10  1  0  0  0
  4  5  1  0  0  0
  4 10  1  0  0  0
  5 11  1  0  0  0
  5 12  1  0  0  0
 15 16  1  0  0  0
 15 17  1  0  0  0
M  END
> <minimizedAffinity>
-5.34990

$$$$
5JI8_6KT_A_301


 17 18  0  0  0  0  0  0  0  0999 V2000
    7.3412   10.2276    9.3670 C   0  0  0  0  0  0  0  0  0  0  0  0
    6.1074    9.9948   11.4198 C   0  0  0  0  0  0  0  0  0  0  0  0
    7.0639   10.6497   10.6388 C   0  0  0  0  0  0  0  0  0  0  0  0
    5.5923    7.2288    7.7505 C   0  0  0  0  0  0  0  0  0  0  0  0
    5.1628    6.1883    6.8345 N   0  0  0  0  0  0  0  0  0  0  0  0
    5.6775    8.4442    9.6385 C   0  0  0  0  0  0  0  0  0  0  0  0
    6.6633    9.1530    8.8967 C   0  0  0  0  0  0  0  0  0  0  0  0
    5.4102    8.8791   10.9325 C   0  0  0  0  0  0  0  0  0  0  0  0
    5.0803    7.3574    8.9785 N   0  0  0  0  0  0  0  0  0  0  0  0
    6.8127    8.4096    7.3170 S   0  0  0  0  0  0  0  0  0  0  0  0
    4.4743    5.5416    7.1121 H   0  0  0  0  0  0  0  0  0  0  0  0
    5.5597    6.1292    5.9356 H   0  0  0  0  0  0  0  0  0  0  0  0
    7.8222   11.8447   11.1629 C   0  0  0  0  0  0  0  0  0  0  0  0
    8.3221   12.6046   10.4061 O   0  0  0  0  0  0  0  0  0  0  0  0
    7.9053   12.0373   12.6030 N   0  0  0  0  0  0  0  0  0  0  0  0
    7.4805   11.3903   13.2115 H   0  0  0  0  0  0  0  0  0  0  0  0
    8.3862   12.8145   12.9688 H   0  0  0  0  0  0  0  0  0  0  0  0
 15 13  1  0  0  0
  2  8  2  0  0  0
  2  3  1  0  0  0
  8  6  1  0  0  0
 13  3  1  0  0  0
 13 14  2  0  0  0
  3  1  2  0  0  0
  6  9  1  0  0  0
  6  7  2  0  0  0
  9  4  2  0  0  0
  1  7  1  0  0  0
  7 10  1  0  0  0
  4  5  1  0  0  0
  4 10  1  0  0  0
  5 11  1  0  0  0
  5 12  1  0  0  0
 15 16  1  0  0  0
 15 17  1  0  0  0
M  END
> <minimizedAffinity>
-5.31087

$$$$
