4BCM_T7Z_A_1297
  RCSB PDB12061711493D
Coordinates from PDB:4BCM:A:1297 Model:1 without hydrogens
 33 36  0  0  0  0            999 V2000
    2.8030   18.7210   20.4100   C 0  0  0  0  0  0  0  0  0  0  0  0
    3.1950   20.0360   20.8210   N 0  0  0  0  0  0  0  0  0  0  0  0
    4.5130   20.2430   21.4290   C 0  0  0  0  0  0  0  0  0  0  0  0
    5.5160   19.2440   21.4770   N 0  0  0  0  0  0  0  0  0  0  0  0
    6.7600   19.7590   22.1680   C 0  0  0  0  0  0  0  0  0  0  0  0
    8.0070   18.8960   22.3770   C 0  0  0  0  0  0  0  0  0  0  0  0
    6.5660   21.1400   22.5730   C 0  0  0  0  0  0  0  0  0  0  0  0
    7.5570   22.0460   23.3250   C 0  0  0  0  0  0  0  0  0  0  0  0
    7.0660   22.8340   24.3160   N 0  0  0  0  0  0  0  0  0  0  0  0
    7.8730   23.6660   25.0160   C 0  0  0  0  0  0  0  0  0  0  0  0
    7.3450   24.4980   26.0680   N 0  0  0  0  0  0  0  0  0  0  0  0
    6.0280   25.1430   26.0800   C 0  0  0  0  0  0  0  0  0  0  0  0
    5.1970   25.2430   24.9540   C 0  0  0  0  0  0  0  0  0  0  0  0
    3.9300   25.8910   25.0660   C 0  0  0  0  0  0  0  0  0  0  0  0
    2.8520   26.0340   23.6120   S 0  0  0  0  0  0  0  0  0  0  0  0
    1.7130   24.8620   23.7510   N 0  0  0  0  0  0  0  0  0  0  0  0
    0.5610   25.2910   23.1870   C 0  0  0  0  0  0  0  0  0  0  0  0
   -0.5640   24.3590   23.5010   C 0  0  0  0  0  0  0  0  0  0  0  0
   -0.2020   22.9860   23.1880   O 0  0  0  0  0  0  0  0  0  0  0  0
    0.9400   22.6350   24.0220   C 0  0  0  0  0  0  0  0  0  0  0  0
    2.0920   23.5640   23.8350   C 0  0  0  0  0  0  0  0  0  0  0  0
    2.2740   27.3500   23.5580   O 0  0  0  0  0  0  0  0  0  0  0  0
    3.5790   25.7920   22.3950   O 0  0  0  0  0  0  0  0  0  0  0  0
    3.5140   26.4150   26.3160   C 0  0  0  0  0  0  0  0  0  0  0  0
    2.1980   27.0970   26.4970   C 0  0  0  0  0  0  0  0  0  0  0  0
    4.3390   26.3080   27.4250   C 0  0  0  0  0  0  0  0  0  0  0  0
    5.5980   25.6710   27.3070   C 0  0  0  0  0  0  0  0  0  0  0  0
    9.1850   23.7230   24.7750   N 0  0  0  0  0  0  0  0  0  0  0  0
    9.7460   22.9630   23.8160   C 0  0  0  0  0  0  0  0  0  0  0  0
    8.9270   22.0870   23.0470   C 0  0  0  0  0  0  0  0  0  0  0  0
    9.5570   21.2580   21.9740   C 0  0  0  0  0  0  0  0  0  0  0  0
   10.0680   20.6250   21.1520   N 0  0  0  0  0  0  0  0  0  0  0  0
    5.0650   21.6300   22.1470   S 0  0  0  0  0  0  0  0  0  0  0  0
  1  2  1  0  0  0  0
  2  3  2  0  0  0  0
  3  4  1  0  0  0  0
  3 33  1  0  0  0  0
  4  5  1  0  0  0  0
  5  6  1  0  0  0  0
  5  7  2  0  0  0  0
  7  8  1  0  0  0  0
  7 33  1  0  0  0  0
  8  9  1  0  0  0  0
  8 30  2  0  0  0  0
  9 10  2  0  0  0  0
 10 11  1  0  0  0  0
 10 28  1  0  0  0  0
 11 12  1  0  0  0  0
 12 13  1  0  0  0  0
 12 27  2  0  0  0  0
 13 14  2  0  0  0  0
 14 15  1  0  0  0  0
 14 24  1  0  0  0  0
 15 16  1  0  0  0  0
 15 22  2  0  0  0  0
 15 23  2  0  0  0  0
 16 17  1  0  0  0  0
 16 21  1  0  0  0  0
 17 18  1  0  0  0  0
 18 19  1  0  0  0  0
 19 20  1  0  0  0  0
 20 21  1  0  0  0  0
 24 25  1  0  0  0  0
 24 26  2  0  0  0  0
 26 27  1  0  0  0  0
 28 29  2  0  0  0  0
 29 30  1  0  0  0  0
 30 31  1  0  0  0  0
 31 32  3  0  0  0  0
A    1
C01
A    2
N02
A    3
C03
A    4
N04
A    5
C05
A    6
C06
A    7
C07
A    8
C08
A    9
N09
A   10
C10
A   11
N11
A   12
C12
A   13
C13
A   14
C14
A   15
S15
A   16
N16
A   17
C17
A   18
C18
A   19
O19
A   20
C20
A   21
C21
A   22
O22
A   23
O23
A   24
C24
A   25
C25
A   26
C26
A   27
C27
A   28
N28
A   29
C29
A   30
C30
A   31
C31
A   32
N32
A   33
S33
M  END
>  <InstanceId>
4BCM_T7Z_A_1297

>  <ChemCompId>
T7Z

>  <PdbId>
4BCM

>  <ChainId>
A

>  <ResidueNumber>
1297

>  <InsertionCode>


>  <Model>
1

>  <AltIds>


>  <MissingHeavyAtoms>
0

>  <ObservedFormula>
C21 N7 O3 S2

>  <Name>
4-(4-methyl-2-methylimino-3H-1,3-thiazol-5-yl)-2-[(4-methyl-3-morpholin-4-ylsulfonyl-phenyl)amino]pyrimidine-5-carbonitrile

>  <SystematicName>
4-(4-methyl-2-methylimino-3H-1,3-thiazol-5-yl)-2-[(4-methyl-3-morpholin-4-ylsulfonyl-phenyl)amino]pyrimidine-5-carbonitrile

>  <Synonyms>


>  <Type>
non-polymer

>  <Formula>
C21 H23 N7 O3 S2

>  <MolecularWeight>
485.582

>  <ModifiedDate>
2014-09-05

>  <Parent>


>  <OneLetterCode>


>  <SubcomponentList>


>  <AmbiguousFlag>
N

>  <InChI>
InChI=1S/C21H23N7O3S2/c1-13-4-5-16(10-17(13)33(29,30)28-6-8-31-9-7-28)26-20-24-12-15(11-22)18(27-20)19-14(2)25-21(23-3)32-19/h4-5,10,12H,6-9H2,1-3H3,(H,23,25)(H,24,26,27)

>  <InChIKey>
SSEDQERECATUBR-UHFFFAOYSA-N

>  <SMILES>
Cc1ccc(cc1S(=O)(=O)N2CCOCC2)Nc3ncc(c(n3)C4=C(NC(=NC)S4)C)C#N

$$$$
