1S89_PGA_A_201
  RCSB PDB12061703583D
Coordinates from PDB:1S89:A:201 Model:1 without hydrogens
  9  8  0  0  0  0            999 V2000
   84.6780  -12.3560   66.4370   P 0  0  0  0  0  0  0  0  0  0  0  0
   85.8790  -13.2020   65.7860   O 0  0  0  0  0  0  0  0  0  0  0  0
   85.0950  -12.2700   67.8480   O 0  0  0  0  0  0  0  0  0  0  0  0
   84.7120  -11.0820   65.6450   O 0  0  0  0  0  0  0  0  0  0  0  0
   83.4510  -13.1570   66.2180   O 0  0  0  0  0  0  0  0  0  0  0  0
   86.1720  -14.4750   66.3080   C 0  0  0  0  0  0  0  0  0  0  0  0
   86.6910  -15.4050   65.2390   C 0  0  0  0  0  0  0  0  0  0  0  0
   85.9970  -15.5590   64.2090   O 0  0  0  0  0  0  0  0  0  0  0  0
   87.7920  -15.9850   65.4240   O 0  0  0  0  0  0  0  0  0  0  0  0
  1  2  1  0  0  0  0
  1  3  2  0  0  0  0
  1  4  1  0  0  0  0
  1  5  1  0  0  0  0
  2  6  1  0  0  0  0
  6  7  1  0  0  0  0
  7  8  2  0  0  0  0
  7  9  1  0  0  0  0
A    1
P
A    2
O1P
A    3
O2P
A    4
O3P
A    5
O4P
A    6
C2
A    7
C1
A    8
O1
A    9
O2
M  END
>  <InstanceId>
1S89_PGA_A_201

>  <ChemCompId>
PGA

>  <PdbId>
1S89

>  <ChainId>
A

>  <ResidueNumber>
201

>  <InsertionCode>


>  <Model>
1

>  <AltIds>


>  <MissingHeavyAtoms>
0

>  <ObservedFormula>
C2 O6 P

>  <Name>
2-PHOSPHOGLYCOLIC ACID

>  <SystematicName>
2-phosphonooxyethanoic acid

>  <Synonyms>


>  <Type>
NON-POLYMER

>  <Formula>
C2 H5 O6 P

>  <MolecularWeight>
156.031

>  <ModifiedDate>
2011-06-04

>  <Parent>


>  <OneLetterCode>


>  <SubcomponentList>


>  <AmbiguousFlag>
N

>  <InChI>
InChI=1S/C2H5O6P/c3-2(4)1-8-9(5,6)7/h1H2,(H,3,4)(H2,5,6,7)

>  <InChIKey>
ASCFNMCAHFUBCO-UHFFFAOYSA-N

>  <SMILES>
C(C(=O)O)OP(=O)(O)O

$$$$
