4KS1_2H8_A_502


 24 24  0  0  0  0  0  0  0  0999 V2000
  -24.9919  -19.8142  -10.7994 C   0  0  0  0  0  0  0  0  0  0  0  0
  -24.4376  -20.5769   -9.5766 C   0  0  0  0  0  0  0  0  0  0  0  0
  -23.0022  -20.4535   -9.4483 C   0  0  0  0  0  0  0  0  0  0  0  0
  -22.2722  -19.3641   -9.9978 C   0  0  0  0  0  0  0  0  0  0  0  0
  -22.8837  -18.4554  -10.8969 C   0  0  0  0  0  0  0  0  0  0  0  0
  -22.2195  -17.1417  -10.8919 N   0  0  0  0  0  0  0  0  0  0  0  0
  -24.4480  -18.3793  -10.7943 C   0  0  0  0  0  0  0  0  0  0  0  0
  -22.3417  -16.7024   -9.9794 H   0  0  0  0  0  0  0  0  0  0  0  0
  -22.6322  -16.5492  -11.6124 H   0  0  0  0  0  0  0  0  0  0  0  0
  -24.9746  -17.6749  -11.9532 N   0  0  0  0  0  0  0  0  0  0  0  0
  -25.6777  -16.5234  -11.8803 C   0  0  0  0  0  0  0  0  0  0  0  0
  -25.9556  -15.9568  -10.8566 O   0  0  0  0  0  0  0  0  0  0  0  0
  -26.1302  -15.9516  -13.2263 C   0  0  0  0  0  0  0  0  0  0  0  0
  -24.8088  -18.0603  -12.8438 H   0  0  0  0  0  0  0  0  0  0  0  0
  -22.3134  -21.5212   -8.8500 C   0  0  0  0  0  0  0  0  0  0  0  0
  -21.1925  -21.3036   -8.2799 O   0  0  0  0  0  0  0  0  0  0  0  0
  -22.8383  -22.6842   -8.8805 O   0  0  0  0  0  0  0  0  0  0  0  0
  -23.6626  -22.8151   -9.3062 H   0  0  0  0  0  0  0  0  0  0  0  0
  -26.4104  -19.7718  -10.6651 O   0  0  0  0  0  0  0  0  0  0  0  0
  -27.1853  -20.5696  -11.5838 C   0  0  0  0  0  0  0  0  0  0  0  0
  -28.6489  -18.4461  -11.3791 C   0  0  0  0  0  0  0  0  0  0  0  0
  -28.5641  -19.8686  -11.9371 C   0  0  0  0  0  0  0  0  0  0  0  0
  -26.3159  -20.8986  -12.8469 C   0  0  0  0  0  0  0  0  0  0  0  0
  -26.0881  -22.4202  -13.0379 C   0  0  0  0  0  0  0  0  0  0  0  0
 13 11  1  0  0  0
 22 20  1  0  0  0
 22 21  1  0  0  0
 20 23  1  0  0  0
 20 19  1  0  0  0
 23 24  1  0  0  0
 10 11  1  0  0  0
 10  7  1  0  0  0
 11 12  2  0  0  0
 19  1  1  0  0  0
  1  7  1  0  0  0
  1  2  1  0  0  0
  7  5  1  0  0  0
  5  6  1  0  0  0
  5  4  1  0  0  0
  4  3  2  0  0  0
  2  3  1  0  0  0
  3 15  1  0  0  0
 16 15  2  0  0  0
 15 17  1  0  0  0
 17 18  1  0  0  0
  6  8  1  0  0  0
  6  9  1  0  0  0
 10 14  1  0  0  0
M  END
> <minimizedAffinity>
-7.34508

$$$$
4KS1_2H8_A_502


 24 24  0  0  0  0  0  0  0  0999 V2000
  -24.9869  -19.8906  -10.7645 C   0  0  0  0  0  0  0  0  0  0  0  0
  -24.3994  -20.6447   -9.5520 C   0  0  0  0  0  0  0  0  0  0  0  0
  -22.9660  -20.4865   -9.4402 C   0  0  0  0  0  0  0  0  0  0  0  0
  -22.2696  -19.3772   -9.9933 C   0  0  0  0  0  0  0  0  0  0  0  0
  -22.9141  -18.4799  -10.8809 C   0  0  0  0  0  0  0  0  0  0  0  0
  -22.2823  -17.1503  -10.8777 N   0  0  0  0  0  0  0  0  0  0  0  0
  -24.4784  -18.4428  -10.7593 C   0  0  0  0  0  0  0  0  0  0  0  0
  -22.4043  -16.7181   -9.9619 H   0  0  0  0  0  0  0  0  0  0  0  0
  -22.7180  -16.5651  -11.5906 H   0  0  0  0  0  0  0  0  0  0  0  0
  -25.0360  -17.7466  -11.9087 N   0  0  0  0  0  0  0  0  0  0  0  0
  -25.7736  -16.6179  -11.8214 C   0  0  0  0  0  0  0  0  0  0  0  0
  -26.0604  -16.0677  -10.7913 O   0  0  0  0  0  0  0  0  0  0  0  0
  -26.2546  -16.0506  -13.1595 C   0  0  0  0  0  0  0  0  0  0  0  0
  -24.8657  -18.1202  -12.8034 H   0  0  0  0  0  0  0  0  0  0  0  0
  -22.2441  -21.5395   -8.8550 C   0  0  0  0  0  0  0  0  0  0  0  0
  -21.1176  -21.2984   -8.3056 O   0  0  0  0  0  0  0  0  0  0  0  0
  -22.7449  -22.7132   -8.8761 O   0  0  0  0  0  0  0  0  0  0  0  0
  -23.5741  -22.8615   -9.2866 H   0  0  0  0  0  0  0  0  0  0  0  0
  -26.4042  -19.8837  -10.6132 O   0  0  0  0  0  0  0  0  0  0  0  0
  -27.1898  -20.3643  -11.7236 C   0  0  0  0  0  0  0  0  0  0  0  0
  -26.5047  -22.7299  -12.5158 C   0  0  0  0  0  0  0  0  0  0  0  0
  -27.4468  -21.9263  -11.6166 C   0  0  0  0  0  0  0  0  0  0  0  0
  -28.5102  -19.5247  -11.8277 C   0  0  0  0  0  0  0  0  0  0  0  0
  -28.7174  -18.5808  -10.6153 C   0  0  0  0  0  0  0  0  0  0  0  0
 13 11  1  0  0  0
 22 20  1  0  0  0
 22 21  1  0  0  0
 20 23  1  0  0  0
 20 19  1  0  0  0
 23 24  1  0  0  0
 10 11  1  0  0  0
 10  7  1  0  0  0
 11 12  2  0  0  0
 19  1  1  0  0  0
  1  7  1  0  0  0
  1  2  1  0  0  0
  7  5  1  0  0  0
  5  6  1  0  0  0
  5  4  1  0  0  0
  4  3  2  0  0  0
  2  3  1  0  0  0
  3 15  1  0  0  0
 16 15  2  0  0  0
 15 17  1  0  0  0
 17 18  1  0  0  0
  6  8  1  0  0  0
  6  9  1  0  0  0
 10 14  1  0  0  0
M  END
> <minimizedAffinity>
-7.25643

$$$$
4KS1_2H8_A_502


 24 24  0  0  0  0  0  0  0  0999 V2000
  -24.6965  -18.8836  -10.3610 C   0  0  0  0  0  0  0  0  0  0  0  0
  -23.2332  -19.3621  -10.2432 C   0  0  0  0  0  0  0  0  0  0  0  0
  -23.0877  -20.4918   -9.3517 C   0  0  0  0  0  0  0  0  0  0  0  0
  -24.1542  -21.3877   -9.0659 C   0  0  0  0  0  0  0  0  0  0  0  0
  -25.4821  -21.0917   -9.4624 C   0  0  0  0  0  0  0  0  0  0  0  0
  -26.2962  -22.3081   -9.6190 N   0  0  0  0  0  0  0  0  0  0  0  0
  -25.6029  -20.0850  -10.6605 C   0  0  0  0  0  0  0  0  0  0  0  0
  -25.9292  -22.8658  -10.3902 H   0  0  0  0  0  0  0  0  0  0  0  0
  -27.2622  -22.0476   -9.8174 H   0  0  0  0  0  0  0  0  0  0  0  0
  -26.9775  -19.6201  -10.7642 N   0  0  0  0  0  0  0  0  0  0  0  0
  -27.7481  -19.7841  -11.8619 C   0  0  0  0  0  0  0  0  0  0  0  0
  -27.3868  -20.3207  -12.8757 O   0  0  0  0  0  0  0  0  0  0  0  0
  -29.1674  -19.2217  -11.7498 C   0  0  0  0  0  0  0  0  0  0  0  0
  -27.3697  -19.1584   -9.9882 H   0  0  0  0  0  0  0  0  0  0  0  0
  -21.8679  -20.6217   -8.6681 C   0  0  0  0  0  0  0  0  0  0  0  0
  -21.0870  -21.5892   -8.9566 O   0  0  0  0  0  0  0  0  0  0  0  0
  -21.5656  -19.7545   -7.7817 O   0  0  0  0  0  0  0  0  0  0  0  0
  -22.1581  -19.0544   -7.5900 H   0  0  0  0  0  0  0  0  0  0  0  0
  -24.7578  -17.9734  -11.4562 O   0  0  0  0  0  0  0  0  0  0  0  0
  -25.0656  -16.5966  -11.1548 C   0  0  0  0  0  0  0  0  0  0  0  0
  -22.7280  -16.3649  -12.2388 C   0  0  0  0  0  0  0  0  0  0  0  0
  -23.8276  -15.6494  -11.4508 C   0  0  0  0  0  0  0  0  0  0  0  0
  -26.3661  -16.1749  -11.9231 C   0  0  0  0  0  0  0  0  0  0  0  0
  -26.2756  -16.4436  -13.4473 C   0  0  0  0  0  0  0  0  0  0  0  0
 13 11  1  0  0  0
 22 20  1  0  0  0
 22 21  1  0  0  0
 20 23  1  0  0  0
 20 19  1  0  0  0
 23 24  1  0  0  0
 10 11  1  0  0  0
 10  7  1  0  0  0
 11 12  2  0  0  0
 19  1  1  0  0  0
  1  7  1  0  0  0
  1  2  1  0  0  0
  7  5  1  0  0  0
  5  6  1  0  0  0
  5  4  1  0  0  0
  4  3  2  0  0  0
  2  3  1  0  0  0
  3 15  1  0  0  0
 16 15  2  0  0  0
 15 17  1  0  0  0
 17 18  1  0  0  0
  6  8  1  0  0  0
  6  9  1  0  0  0
 10 14  1  0  0  0
M  END
> <minimizedAffinity>
-7.05545

$$$$
4KS1_2H8_A_502


 24 24  0  0  0  0  0  0  0  0999 V2000
  -24.7381  -18.7086  -10.2358 C   0  0  0  0  0  0  0  0  0  0  0  0
  -23.2822  -19.2142  -10.1400 C   0  0  0  0  0  0  0  0  0  0  0  0
  -23.1802  -20.4915   -9.4691 C   0  0  0  0  0  0  0  0  0  0  0  0
  -24.2594  -21.4151   -9.4064 C   0  0  0  0  0  0  0  0  0  0  0  0
  -25.5665  -21.0382   -9.8034 C   0  0  0  0  0  0  0  0  0  0  0  0
  -26.3723  -22.1966  -10.2227 N   0  0  0  0  0  0  0  0  0  0  0  0
  -25.6291  -19.8249  -10.7969 C   0  0  0  0  0  0  0  0  0  0  0  0
  -25.9686  -22.6042  -11.0661 H   0  0  0  0  0  0  0  0  0  0  0  0
  -27.3275  -21.8948  -10.4146 H   0  0  0  0  0  0  0  0  0  0  0  0
  -26.9970  -19.3361  -10.8771 N   0  0  0  0  0  0  0  0  0  0  0  0
  -27.8678  -19.6884  -11.8484 C   0  0  0  0  0  0  0  0  0  0  0  0
  -27.6120  -20.4334  -12.7571 O   0  0  0  0  0  0  0  0  0  0  0  0
  -29.2585  -19.0588  -11.7345 C   0  0  0  0  0  0  0  0  0  0  0  0
  -27.3068  -18.7113  -10.1822 H   0  0  0  0  0  0  0  0  0  0  0  0
  -21.9949  -20.7578   -8.7646 C   0  0  0  0  0  0  0  0  0  0  0  0
  -21.3548  -21.8368   -8.9990 O   0  0  0  0  0  0  0  0  0  0  0  0
  -21.5803  -19.9007   -7.9146 O   0  0  0  0  0  0  0  0  0  0  0  0
  -22.0706  -19.1168   -7.7625 H   0  0  0  0  0  0  0  0  0  0  0  0
  -24.7462  -17.6097  -11.1435 O   0  0  0  0  0  0  0  0  0  0  0  0
  -24.0592  -17.7852  -12.3998 C   0  0  0  0  0  0  0  0  0  0  0  0
  -26.1369  -16.6283  -13.4186 C   0  0  0  0  0  0  0  0  0  0  0  0
  -25.0638  -17.6997  -13.6249 C   0  0  0  0  0  0  0  0  0  0  0  0
  -22.8783  -16.7576  -12.4939 C   0  0  0  0  0  0  0  0  0  0  0  0
  -22.8923  -15.7211  -11.3410 C   0  0  0  0  0  0  0  0  0  0  0  0
 13 11  1  0  0  0
 22 20  1  0  0  0
 22 21  1  0  0  0
 20 23  1  0  0  0
 20 19  1  0  0  0
 23 24  1  0  0  0
 10 11  1  0  0  0
 10  7  1  0  0  0
 11 12  2  0  0  0
 19  1  1  0  0  0
  1  7  1  0  0  0
  1  2  1  0  0  0
  7  5  1  0  0  0
  5  6  1  0  0  0
  5  4  1  0  0  0
  4  3  2  0  0  0
  2  3  1  0  0  0
  3 15  1  0  0  0
 16 15  2  0  0  0
 15 17  1  0  0  0
 17 18  1  0  0  0
  6  8  1  0  0  0
  6  9  1  0  0  0
 10 14  1  0  0  0
M  END
> <minimizedAffinity>
-7.05049

$$$$
4KS1_2H8_A_502


 24 24  0  0  0  0  0  0  0  0999 V2000
  -25.3603  -18.9092  -10.9168 C   0  0  0  0  0  0  0  0  0  0  0  0
  -25.7344  -18.7159  -12.4024 C   0  0  0  0  0  0  0  0  0  0  0  0
  -24.7692  -17.9111  -13.1185 C   0  0  0  0  0  0  0  0  0  0  0  0
  -23.4152  -17.7845  -12.7038 C   0  0  0  0  0  0  0  0  0  0  0  0
  -22.9925  -18.2590  -11.4371 C   0  0  0  0  0  0  0  0  0  0  0  0
  -21.5556  -18.5783  -11.4180 N   0  0  0  0  0  0  0  0  0  0  0  0
  -23.9022  -19.3765  -10.8152 C   0  0  0  0  0  0  0  0  0  0  0  0
  -21.3729  -19.3612  -12.0459 H   0  0  0  0  0  0  0  0  0  0  0  0
  -21.2758  -18.8303  -10.4701 H   0  0  0  0  0  0  0  0  0  0  0  0
  -23.5629  -19.5500   -9.4112 N   0  0  0  0  0  0  0  0  0  0  0  0
  -23.0118  -20.6736   -8.9020 C   0  0  0  0  0  0  0  0  0  0  0  0
  -22.7487  -21.6562   -9.5434 O   0  0  0  0  0  0  0  0  0  0  0  0
  -22.7314  -20.6360   -7.3975 C   0  0  0  0  0  0  0  0  0  0  0  0
  -23.7459  -18.8040   -8.7953 H   0  0  0  0  0  0  0  0  0  0  0  0
  -25.2406  -17.1464  -14.1980 C   0  0  0  0  0  0  0  0  0  0  0  0
  -25.8600  -16.0540  -13.9697 O   0  0  0  0  0  0  0  0  0  0  0  0
  -25.0220  -17.5604  -15.3853 O   0  0  0  0  0  0  0  0  0  0  0  0
  -24.5645  -18.3663  -15.5237 H   0  0  0  0  0  0  0  0  0  0  0  0
  -26.2100  -19.9278  -10.3949 O   0  0  0  0  0  0  0  0  0  0  0  0
  -27.3493  -20.3109  -11.1926 C   0  0  0  0  0  0  0  0  0  0  0  0
  -26.4917  -22.3996  -12.4555 C   0  0  0  0  0  0  0  0  0  0  0  0
  -27.4322  -21.8862  -11.3629 C   0  0  0  0  0  0  0  0  0  0  0  0
  -28.6487  -19.6849  -10.5768 C   0  0  0  0  0  0  0  0  0  0  0  0
  -29.4908  -18.9056  -11.6194 C   0  0  0  0  0  0  0  0  0  0  0  0
 13 11  1  0  0  0
 22 20  1  0  0  0
 22 21  1  0  0  0
 20 23  1  0  0  0
 20 19  1  0  0  0
 23 24  1  0  0  0
 10 11  1  0  0  0
 10  7  1  0  0  0
 11 12  2  0  0  0
 19  1  1  0  0  0
  1  7  1  0  0  0
  1  2  1  0  0  0
  7  5  1  0  0  0
  5  6  1  0  0  0
  5  4  1  0  0  0
  4  3  2  0  0  0
  2  3  1  0  0  0
  3 15  1  0  0  0
 16 15  2  0  0  0
 15 17  1  0  0  0
 17 18  1  0  0  0
  6  8  1  0  0  0
  6  9  1  0  0  0
 10 14  1  0  0  0
M  END
> <minimizedAffinity>
-6.98933

$$$$
4KS1_2H8_A_502


 24 24  0  0  0  0  0  0  0  0999 V2000
  -23.7212  -19.6390  -10.2015 C   0  0  0  0  0  0  0  0  0  0  0  0
  -22.4487  -19.9534   -9.3855 C   0  0  0  0  0  0  0  0  0  0  0  0
  -22.7409  -20.6149   -8.1328 C   0  0  0  0  0  0  0  0  0  0  0  0
  -23.9265  -21.3705   -7.9208 C   0  0  0  0  0  0  0  0  0  0  0  0
  -24.9945  -21.3289   -8.8513 C   0  0  0  0  0  0  0  0  0  0  0  0
  -25.8239  -22.5438   -8.7952 N   0  0  0  0  0  0  0  0  0  0  0  0
  -24.5851  -20.9029  -10.3053 C   0  0  0  0  0  0  0  0  0  0  0  0
  -25.2708  -23.3471   -9.0937 H   0  0  0  0  0  0  0  0  0  0  0  0
  -26.6276  -22.4356   -9.4139 H   0  0  0  0  0  0  0  0  0  0  0  0
  -25.7814  -20.5906  -11.0722 N   0  0  0  0  0  0  0  0  0  0  0  0
  -26.1230  -21.2116  -12.2225 C   0  0  0  0  0  0  0  0  0  0  0  0
  -25.4781  -22.0809  -12.7466 O   0  0  0  0  0  0  0  0  0  0  0  0
  -27.4282  -20.7279  -12.8596 C   0  0  0  0  0  0  0  0  0  0  0  0
  -26.3776  -19.8846  -10.7326 H   0  0  0  0  0  0  0  0  0  0  0  0
  -21.8565  -20.3939   -7.0645 C   0  0  0  0  0  0  0  0  0  0  0  0
  -21.0008  -21.2915   -6.7626 O   0  0  0  0  0  0  0  0  0  0  0  0
  -21.9238  -19.2881   -6.4306 O   0  0  0  0  0  0  0  0  0  0  0  0
  -22.5621  -18.6468   -6.6739 H   0  0  0  0  0  0  0  0  0  0  0  0
  -23.3023  -19.2562  -11.5091 O   0  0  0  0  0  0  0  0  0  0  0  0
  -23.6846  -17.9429  -11.9675 C   0  0  0  0  0  0  0  0  0  0  0  0
  -22.5578  -15.7120  -11.2992 C   0  0  0  0  0  0  0  0  0  0  0  0
  -22.4219  -16.9947  -12.1227 C   0  0  0  0  0  0  0  0  0  0  0  0
  -24.5247  -18.0768  -13.2850 C   0  0  0  0  0  0  0  0  0  0  0  0
  -25.8261  -17.2347  -13.2541 C   0  0  0  0  0  0  0  0  0  0  0  0
 13 11  1  0  0  0
 22 20  1  0  0  0
 22 21  1  0  0  0
 20 23  1  0  0  0
 20 19  1  0  0  0
 23 24  1  0  0  0
 10 11  1  0  0  0
 10  7  1  0  0  0
 11 12  2  0  0  0
 19  1  1  0  0  0
  1  7  1  0  0  0
  1  2  1  0  0  0
  7  5  1  0  0  0
  5  6  1  0  0  0
  5  4  1  0  0  0
  4  3  2  0  0  0
  2  3  1  0  0  0
  3 15  1  0  0  0
 16 15  2  0  0  0
 15 17  1  0  0  0
 17 18  1  0  0  0
  6  8  1  0  0  0
  6  9  1  0  0  0
 10 14  1  0  0  0
M  END
> <minimizedAffinity>
-6.92947

$$$$
4KS1_2H8_A_502


 24 24  0  0  0  0  0  0  0  0999 V2000
  -24.3610  -19.1947  -10.8592 C   0  0  0  0  0  0  0  0  0  0  0  0
  -24.0380  -17.6859  -10.8012 C   0  0  0  0  0  0  0  0  0  0  0  0
  -23.6172  -17.1578  -12.0804 C   0  0  0  0  0  0  0  0  0  0  0  0
  -23.9762  -17.7613  -13.3167 C   0  0  0  0  0  0  0  0  0  0  0  0
  -24.5781  -19.0437  -13.3553 C   0  0  0  0  0  0  0  0  0  0  0  0
  -25.3808  -19.2410  -14.5733 N   0  0  0  0  0  0  0  0  0  0  0  0
  -25.3104  -19.4676  -12.0335 C   0  0  0  0  0  0  0  0  0  0  0  0
  -26.1735  -18.5990  -14.5659 H   0  0  0  0  0  0  0  0  0  0  0  0
  -25.7218  -20.2018  -14.6039 H   0  0  0  0  0  0  0  0  0  0  0  0
  -25.6021  -20.8922  -12.0783 N   0  0  0  0  0  0  0  0  0  0  0  0
  -26.7736  -21.4088  -12.5101 C   0  0  0  0  0  0  0  0  0  0  0  0
  -27.7069  -20.7556  -12.8955 O   0  0  0  0  0  0  0  0  0  0  0  0
  -26.8618  -22.9367  -12.4773 C   0  0  0  0  0  0  0  0  0  0  0  0
  -24.9042  -21.5173  -11.7758 H   0  0  0  0  0  0  0  0  0  0  0  0
  -22.7278  -16.0710  -12.0691 C   0  0  0  0  0  0  0  0  0  0  0  0
  -22.5966  -15.3790  -11.0048 O   0  0  0  0  0  0  0  0  0  0  0  0
  -22.0604  -15.8131  -13.1260 O   0  0  0  0  0  0  0  0  0  0  0  0
  -22.1768  -16.3380  -13.8934 H   0  0  0  0  0  0  0  0  0  0  0  0
  -25.0210  -19.5338   -9.6422 O   0  0  0  0  0  0  0  0  0  0  0  0
  -24.2846  -20.3298   -8.6907 C   0  0  0  0  0  0  0  0  0  0  0  0
  -26.1621  -22.1096   -8.7193 C   0  0  0  0  0  0  0  0  0  0  0  0
  -25.2528  -21.2519   -7.8364 C   0  0  0  0  0  0  0  0  0  0  0  0
  -23.1661  -21.1332   -9.4410 C   0  0  0  0  0  0  0  0  0  0  0  0
  -21.9270  -21.4091   -8.5511 C   0  0  0  0  0  0  0  0  0  0  0  0
 13 11  1  0  0  0
 22 20  1  0  0  0
 22 21  1  0  0  0
 20 23  1  0  0  0
 20 19  1  0  0  0
 23 24  1  0  0  0
 10 11  1  0  0  0
 10  7  1  0  0  0
 11 12  2  0  0  0
 19  1  1  0  0  0
  1  7  1  0  0  0
  1  2  1  0  0  0
  7  5  1  0  0  0
  5  6  1  0  0  0
  5  4  1  0  0  0
  4  3  2  0  0  0
  2  3  1  0  0  0
  3 15  1  0  0  0
 16 15  2  0  0  0
 15 17  1  0  0  0
 17 18  1  0  0  0
  6  8  1  0  0  0
  6  9  1  0  0  0
 10 14  1  0  0  0
M  END
> <minimizedAffinity>
-6.41129

$$$$
4KS1_2H8_A_502


 24 24  0  0  0  0  0  0  0  0999 V2000
  -25.3689  -18.6690  -10.7651 C   0  0  0  0  0  0  0  0  0  0  0  0
  -25.5769  -18.3184  -12.2544 C   0  0  0  0  0  0  0  0  0  0  0  0
  -24.4413  -17.6297  -12.8273 C   0  0  0  0  0  0  0  0  0  0  0  0
  -23.1256  -17.7474  -12.3014 C   0  0  0  0  0  0  0  0  0  0  0  0
  -22.8932  -18.3678  -11.0487 C   0  0  0  0  0  0  0  0  0  0  0  0
  -21.5289  -18.9110  -10.9457 N   0  0  0  0  0  0  0  0  0  0  0  0
  -24.0135  -19.3669  -10.5905 C   0  0  0  0  0  0  0  0  0  0  0  0
  -21.4128  -19.6684  -11.6189 H   0  0  0  0  0  0  0  0  0  0  0  0
  -21.3753  -19.2678  -10.0026 H   0  0  0  0  0  0  0  0  0  0  0  0
  -23.8295  -19.6869   -9.1832 N   0  0  0  0  0  0  0  0  0  0  0  0
  -23.2098  -20.8021   -8.7384 C   0  0  0  0  0  0  0  0  0  0  0  0
  -22.7506  -21.6572   -9.4484 O   0  0  0  0  0  0  0  0  0  0  0  0
  -23.1223  -20.9338   -7.2157 C   0  0  0  0  0  0  0  0  0  0  0  0
  -24.1774  -19.0529   -8.5151 H   0  0  0  0  0  0  0  0  0  0  0  0
  -24.6940  -16.7284  -13.8742 C   0  0  0  0  0  0  0  0  0  0  0  0
  -25.0790  -17.1741  -15.0065 O   0  0  0  0  0  0  0  0  0  0  0  0
  -24.5447  -15.4793  -13.6583 O   0  0  0  0  0  0  0  0  0  0  0  0
  -24.2607  -15.1800  -12.8171 H   0  0  0  0  0  0  0  0  0  0  0  0
  -26.4062  -19.5733  -10.3937 O   0  0  0  0  0  0  0  0  0  0  0  0
  -27.4593  -19.0611   -9.5513 C   0  0  0  0  0  0  0  0  0  0  0  0
  -29.0176  -18.6233  -11.5694 C   0  0  0  0  0  0  0  0  0  0  0  0
  -28.8868  -19.2978  -10.2020 C   0  0  0  0  0  0  0  0  0  0  0  0
  -27.3225  -19.6779   -8.1159 C   0  0  0  0  0  0  0  0  0  0  0  0
  -26.9294  -21.1773   -8.1428 C   0  0  0  0  0  0  0  0  0  0  0  0
 13 11  1  0  0  0
 22 20  1  0  0  0
 22 21  1  0  0  0
 20 23  1  0  0  0
 20 19  1  0  0  0
 23 24  1  0  0  0
 10 11  1  0  0  0
 10  7  1  0  0  0
 11 12  2  0  0  0
 19  1  1  0  0  0
  1  7  1  0  0  0
  1  2  1  0  0  0
  7  5  1  0  0  0
  5  6  1  0  0  0
  5  4  1  0  0  0
  4  3  2  0  0  0
  2  3  1  0  0  0
  3 15  1  0  0  0
 16 15  2  0  0  0
 15 17  1  0  0  0
 17 18  1  0  0  0
  6  8  1  0  0  0
  6  9  1  0  0  0
 10 14  1  0  0  0
M  END
> <minimizedAffinity>
-6.38724

$$$$
4KS1_2H8_A_502


 24 24  0  0  0  0  0  0  0  0999 V2000
  -25.5659  -19.6002   -9.9069 C   0  0  0  0  0  0  0  0  0  0  0  0
  -24.6371  -19.1698  -11.0630 C   0  0  0  0  0  0  0  0  0  0  0  0
  -23.2475  -19.1081  -10.6662 C   0  0  0  0  0  0  0  0  0  0  0  0
  -22.7257  -19.8562   -9.5755 C   0  0  0  0  0  0  0  0  0  0  0  0
  -23.5869  -20.5308   -8.6748 C   0  0  0  0  0  0  0  0  0  0  0  0
  -22.9203  -21.6680   -8.0197 N   0  0  0  0  0  0  0  0  0  0  0  0
  -25.0072  -20.8696   -9.2503 C   0  0  0  0  0  0  0  0  0  0  0  0
  -22.6926  -22.3765   -8.7173 H   0  0  0  0  0  0  0  0  0  0  0  0
  -23.5429  -22.0691   -7.3183 H   0  0  0  0  0  0  0  0  0  0  0  0
  -25.8892  -21.2603   -8.1612 N   0  0  0  0  0  0  0  0  0  0  0  0
  -26.6757  -22.3587   -8.1851 C   0  0  0  0  0  0  0  0  0  0  0  0
  -26.7444  -23.1294   -9.1057 O   0  0  0  0  0  0  0  0  0  0  0  0
  -27.5195  -22.5816   -6.9274 C   0  0  0  0  0  0  0  0  0  0  0  0
  -25.9146  -20.6903   -7.3590 H   0  0  0  0  0  0  0  0  0  0  0  0
  -22.4274  -18.1811  -11.3298 C   0  0  0  0  0  0  0  0  0  0  0  0
  -22.4616  -16.9531  -10.9840 O   0  0  0  0  0  0  0  0  0  0  0  0
  -21.6548  -18.5980  -12.2563 O   0  0  0  0  0  0  0  0  0  0  0  0
  -21.6503  -19.5054  -12.4897 H   0  0  0  0  0  0  0  0  0  0  0  0
  -26.8399  -19.8949  -10.4742 O   0  0  0  0  0  0  0  0  0  0  0  0
  -27.0366  -19.5647  -11.8646 C   0  0  0  0  0  0  0  0  0  0  0  0
  -26.3854  -21.9546  -12.6112 C   0  0  0  0  0  0  0  0  0  0  0  0
  -27.4350  -20.8455  -12.7121 C   0  0  0  0  0  0  0  0  0  0  0  0
  -28.0778  -18.3975  -11.9790 C   0  0  0  0  0  0  0  0  0  0  0  0
  -29.5283  -18.8570  -11.6817 C   0  0  0  0  0  0  0  0  0  0  0  0
 13 11  1  0  0  0
 22 20  1  0  0  0
 22 21  1  0  0  0
 20 23  1  0  0  0
 20 19  1  0  0  0
 23 24  1  0  0  0
 10 11  1  0  0  0
 10  7  1  0  0  0
 11 12  2  0  0  0
 19  1  1  0  0  0
  1  7  1  0  0  0
  1  2  1  0  0  0
  7  5  1  0  0  0
  5  6  1  0  0  0
  5  4  1  0  0  0
  4  3  2  0  0  0
  2  3  1  0  0  0
  3 15  1  0  0  0
 16 15  2  0  0  0
 15 17  1  0  0  0
 17 18  1  0  0  0
  6  8  1  0  0  0
  6  9  1  0  0  0
 10 14  1  0  0  0
M  END
> <minimizedAffinity>
-6.30325

$$$$
4KS1_2H8_A_502


 24 24  0  0  0  0  0  0  0  0999 V2000
  -25.9059  -18.5193  -10.9807 C   0  0  0  0  0  0  0  0  0  0  0  0
  -25.4092  -17.0626  -10.8564 C   0  0  0  0  0  0  0  0  0  0  0  0
  -24.3536  -16.7530  -11.7956 C   0  0  0  0  0  0  0  0  0  0  0  0
  -24.1768  -17.4632  -13.0146 C   0  0  0  0  0  0  0  0  0  0  0  0
  -24.8874  -18.6623  -13.2703 C   0  0  0  0  0  0  0  0  0  0  0  0
  -25.0375  -18.9189  -14.7121 N   0  0  0  0  0  0  0  0  0  0  0  0
  -26.2160  -18.8281  -12.4515 C   0  0  0  0  0  0  0  0  0  0  0  0
  -25.6232  -18.1943  -15.1272 H   0  0  0  0  0  0  0  0  0  0  0  0
  -25.4739  -19.8302  -14.8516 H   0  0  0  0  0  0  0  0  0  0  0  0
  -26.6781  -20.2038  -12.5537 N   0  0  0  0  0  0  0  0  0  0  0  0
  -25.9151  -21.2793  -12.2589 C   0  0  0  0  0  0  0  0  0  0  0  0
  -24.7718  -21.2248  -11.8900 O   0  0  0  0  0  0  0  0  0  0  0  0
  -26.6067  -22.6340  -12.4317 C   0  0  0  0  0  0  0  0  0  0  0  0
  -27.6019  -20.3605  -12.8557 H   0  0  0  0  0  0  0  0  0  0  0  0
  -23.4129  -15.7831  -11.4127 C   0  0  0  0  0  0  0  0  0  0  0  0
  -22.2104  -16.1364  -11.1716 O   0  0  0  0  0  0  0  0  0  0  0  0
  -23.7858  -14.5653  -11.3303 O   0  0  0  0  0  0  0  0  0  0  0  0
  -24.6753  -14.3343  -11.5130 H   0  0  0  0  0  0  0  0  0  0  0  0
  -27.1085  -18.6232  -10.2226 O   0  0  0  0  0  0  0  0  0  0  0  0
  -26.9831  -18.9762   -8.8295 C   0  0  0  0  0  0  0  0  0  0  0  0
  -29.5375  -19.1600   -9.1959 C   0  0  0  0  0  0  0  0  0  0  0  0
  -28.3951  -19.3134   -8.1892 C   0  0  0  0  0  0  0  0  0  0  0  0
  -25.9413  -20.1389   -8.6801 C   0  0  0  0  0  0  0  0  0  0  0  0
  -26.6093  -21.5359   -8.6029 C   0  0  0  0  0  0  0  0  0  0  0  0
 13 11  1  0  0  0
 22 20  1  0  0  0
 22 21  1  0  0  0
 20 23  1  0  0  0
 20 19  1  0  0  0
 23 24  1  0  0  0
 10 11  1  0  0  0
 10  7  1  0  0  0
 11 12  2  0  0  0
 19  1  1  0  0  0
  1  7  1  0  0  0
  1  2  1  0  0  0
  7  5  1  0  0  0
  5  6  1  0  0  0
  5  4  1  0  0  0
  4  3  2  0  0  0
  2  3  1  0  0  0
  3 15  1  0  0  0
 16 15  2  0  0  0
 15 17  1  0  0  0
 17 18  1  0  0  0
  6  8  1  0  0  0
  6  9  1  0  0  0
 10 14  1  0  0  0
M  END
> <minimizedAffinity>
-6.27632

$$$$
