1UTL_PRA_M_246
  RCSB PDB12061704153D
Coordinates from PDB:1UTL:M:246 Model:1 without hydrogens
 10 10  0  0  0  0            999 V2000
   24.0570   16.3640   58.0610   C 0  0  0  0  0  0  0  0  0  0  0  0
   22.7200   16.0660   58.7220   C 0  0  0  0  0  0  0  0  0  0  0  0
   22.6990   14.6840   59.3550   C 0  0  0  0  0  0  0  0  0  0  0  0
   22.2710   13.5430   58.4670   C 0  0  0  0  0  0  0  0  0  0  0  0
   23.1210   13.0360   57.4800   C 0  0  0  0  0  0  0  0  0  0  0  0
   22.7340   11.9280   56.6790   C 0  0  0  0  0  0  0  0  0  0  0  0
   21.4840   11.3270   56.8700   C 0  0  0  0  0  0  0  0  0  0  0  0
   20.6230   11.8290   57.8540   C 0  0  0  0  0  0  0  0  0  0  0  0
   21.0240   12.9360   58.6470   C 0  0  0  0  0  0  0  0  0  0  0  0
   24.2670   17.8200   57.7730   N 0  3  0  0  0  0  0  0  0  0  0  0
  1  2  1  0  0  0  0
  1 10  1  0  0  0  0
  2  3  1  0  0  0  0
  3  4  1  0  0  0  0
  4  5  2  0  0  0  0
  4  9  1  0  0  0  0
  5  6  1  0  0  0  0
  6  7  2  0  0  0  0
  7  8  1  0  0  0  0
  8  9  2  0  0  0  0
M  CHG  1  10   1
A    1
C1
A    2
C2
A    3
C3
A    4
C1'
A    5
C2'
A    6
C3'
A    7
C4'
A    8
C5'
A    9
C6'
A   10
N
M  END
>  <InstanceId>
1UTL_PRA_M_246

>  <ChemCompId>
PRA

>  <PdbId>
1UTL

>  <ChainId>
M

>  <ResidueNumber>
246

>  <InsertionCode>


>  <Model>
1

>  <AltIds>


>  <MissingHeavyAtoms>
0

>  <ObservedFormula>
C9 N

>  <Name>
3-PHENYLPROPYLAMINE

>  <SystematicName>
3-phenylpropylazanium

>  <Synonyms>


>  <Type>
NON-POLYMER

>  <Formula>
C9 H14 N

>  <MolecularWeight>
136.214

>  <ModifiedDate>
2011-06-04

>  <Parent>


>  <OneLetterCode>


>  <SubcomponentList>


>  <AmbiguousFlag>
N

>  <InChI>
InChI=1S/C9H13N/c10-8-4-7-9-5-2-1-3-6-9/h1-3,5-6H,4,7-8,10H2/p+1

>  <InChIKey>
LYUQWQRTDLVQGA-UHFFFAOYSA-O

>  <SMILES>
c1ccc(cc1)CCC[NH3+]

$$$$
