5BYI_4WA_A_303


 23 24  0  0  0  0  0  0  0  0999 V2000
   15.6430    3.3398   16.0158 C   0  0  0  0  0  0  0  0  0  0  0  0
   16.9763    3.4577   15.6074 C   0  0  0  0  0  0  0  0  0  0  0  0
   17.3982    4.5858   14.8825 C   0  0  0  0  0  0  0  0  0  0  0  0
   16.4854    5.6125   14.5850 C   0  0  0  0  0  0  0  0  0  0  0  0
   15.1533    5.4868   14.9543 C   0  0  0  0  0  0  0  0  0  0  0  0
   14.7400    4.3636   15.6742 C   0  0  0  0  0  0  0  0  0  0  0  0
   15.4997    2.2515   18.3387 O   0  0  0  0  0  0  0  0  0  0  0  0
   15.1076    1.9646   16.9827 S   0  0  0  0  0  0  0  0  0  0  0  0
   15.6788    0.7987   16.3409 O   0  0  0  0  0  0  0  0  0  0  0  0
   13.5093    1.9082   16.8554 N   0  0  0  0  0  0  0  0  0  0  0  0
   13.1032    2.7280   17.3064 H   0  0  0  0  0  0  0  0  0  0  0  0
   13.1617    1.0634   17.3091 H   0  0  0  0  0  0  0  0  0  0  0  0
   16.8443    6.7354   13.9248 N   0  0  0  0  0  0  0  0  0  0  0  0
   18.1608    7.0071   13.7935 N   0  0  0  0  0  0  0  0  0  0  0  0
   18.6568    8.2651   13.8275 C   0  0  0  0  0  0  0  0  0  0  0  0
   18.8357    9.0775   12.6934 C   0  0  0  0  0  0  0  0  0  0  0  0
   19.3473   10.3838   12.8159 C   0  0  0  0  0  0  0  0  0  0  0  0
   19.6702   10.8876   14.0865 C   0  0  0  0  0  0  0  0  0  0  0  0
   20.1890   12.1979   14.2257 N   0  0  0  0  0  0  0  0  0  0  0  0
   19.4853   10.0764   15.2195 C   0  0  0  0  0  0  0  0  0  0  0  0
   18.9735    8.7771   15.0872 C   0  0  0  0  0  0  0  0  0  0  0  0
   20.4136   12.5461   15.1188 H   0  0  0  0  0  0  0  0  0  0  0  0
   20.3251   12.7606   13.4294 H   0  0  0  0  0  0  0  0  0  0  0  0
 20 21  2  0  0  0
 20 18  1  0  0  0
 21 15  1  0  0  0
 19 18  1  0  0  0
 18 17  2  0  0  0
 14 15  1  0  0  0
 14 13  2  0  0  0
 15 16  2  0  0  0
 13  4  1  0  0  0
 17 16  1  0  0  0
  4  5  2  0  0  0
  4  3  1  0  0  0
  5  6  1  0  0  0
  3  2  2  0  0  0
  6  1  2  0  0  0
  2  1  1  0  0  0
  1  8  1  0  0  0
 10  8  1  0  0  0
  7  8  2  0  0  0
  8  9  2  0  0  0
 10 11  1  0  0  0
 10 12  1  0  0  0
 19 22  1  0  0  0
 19 23  1  0  0  0
M  END
> <minimizedAffinity>
-7.68585

$$$$
5BYI_4WA_A_303


 23 24  0  0  0  0  0  0  0  0999 V2000
   15.6636    3.3604   16.0636 C   0  0  0  0  0  0  0  0  0  0  0  0
   14.7681    4.3806   15.7232 C   0  0  0  0  0  0  0  0  0  0  0  0
   15.2082    5.4922   14.9840 C   0  0  0  0  0  0  0  0  0  0  0  0
   16.5471    5.5718   14.5632 C   0  0  0  0  0  0  0  0  0  0  0  0
   17.4501    4.5827   14.9276 C   0  0  0  0  0  0  0  0  0  0  0  0
   17.0070    3.4807   15.6623 C   0  0  0  0  0  0  0  0  0  0  0  0
   15.5308    2.1057   18.3017 O   0  0  0  0  0  0  0  0  0  0  0  0
   15.1179    1.9258   16.9334 S   0  0  0  0  0  0  0  0  0  0  0  0
   15.6625    0.8020   16.2000 O   0  0  0  0  0  0  0  0  0  0  0  0
   13.5175    1.9031   16.8235 N   0  0  0  0  0  0  0  0  0  0  0  0
   13.1300    2.6934   17.3391 H   0  0  0  0  0  0  0  0  0  0  0  0
   13.1619    1.0325   17.2183 H   0  0  0  0  0  0  0  0  0  0  0  0
   17.0153    6.5977   13.8191 N   0  0  0  0  0  0  0  0  0  0  0  0
   18.3076    6.9600   13.9701 N   0  0  0  0  0  0  0  0  0  0  0  0
   18.7224    8.2453   13.8958 C   0  0  0  0  0  0  0  0  0  0  0  0
   18.7578    8.9995   12.7092 C   0  0  0  0  0  0  0  0  0  0  0  0
   19.1921   10.3391   12.7192 C   0  0  0  0  0  0  0  0  0  0  0  0
   19.5814   10.9347   13.9300 C   0  0  0  0  0  0  0  0  0  0  0  0
   20.0238   12.2796   13.9558 N   0  0  0  0  0  0  0  0  0  0  0  0
   19.5399   10.1812   15.1160 C   0  0  0  0  0  0  0  0  0  0  0  0
   19.1043    8.8480   15.0959 C   0  0  0  0  0  0  0  0  0  0  0  0
   20.2956   12.6922   14.8074 H   0  0  0  0  0  0  0  0  0  0  0  0
   20.0597   12.8021   13.1221 H   0  0  0  0  0  0  0  0  0  0  0  0
 20 21  2  0  0  0
 20 18  1  0  0  0
 21 15  1  0  0  0
 19 18  1  0  0  0
 18 17  2  0  0  0
 14 15  1  0  0  0
 14 13  2  0  0  0
 15 16  2  0  0  0
 13  4  1  0  0  0
 17 16  1  0  0  0
  4  5  2  0  0  0
  4  3  1  0  0  0
  5  6  1  0  0  0
  3  2  2  0  0  0
  6  1  2  0  0  0
  2  1  1  0  0  0
  1  8  1  0  0  0
 10  8  1  0  0  0
  7  8  2  0  0  0
  8  9  2  0  0  0
 10 11  1  0  0  0
 10 12  1  0  0  0
 19 22  1  0  0  0
 19 23  1  0  0  0
M  END
> <minimizedAffinity>
-7.62695

$$$$
5BYI_4WA_A_303


 23 24  0  0  0  0  0  0  0  0999 V2000
   15.2062    3.2820   15.9188 C   0  0  0  0  0  0  0  0  0  0  0  0
   14.6810    4.5781   15.8642 C   0  0  0  0  0  0  0  0  0  0  0  0
   15.0342    5.4420   14.8131 C   0  0  0  0  0  0  0  0  0  0  0  0
   15.8998    4.9981   13.7984 C   0  0  0  0  0  0  0  0  0  0  0  0
   16.4540    3.7272   13.8643 C   0  0  0  0  0  0  0  0  0  0  0  0
   16.0995    2.8734   14.9111 C   0  0  0  0  0  0  0  0  0  0  0  0
   13.3448    1.8345   16.9389 O   0  0  0  0  0  0  0  0  0  0  0  0
   14.7249    2.1600   17.1923 S   0  0  0  0  0  0  0  0  0  0  0  0
   15.0496    2.8283   18.4355 O   0  0  0  0  0  0  0  0  0  0  0  0
   15.6515    0.8600   17.0334 N   0  0  0  0  0  0  0  0  0  0  0  0
   15.4257    0.3864   16.1587 H   0  0  0  0  0  0  0  0  0  0  0  0
   15.4858    0.2267   17.8156 H   0  0  0  0  0  0  0  0  0  0  0  0
   16.2429    5.7723   12.7456 N   0  0  0  0  0  0  0  0  0  0  0  0
   16.3510    7.1046   12.9395 N   0  0  0  0  0  0  0  0  0  0  0  0
   15.9959    8.0132   12.0025 C   0  0  0  0  0  0  0  0  0  0  0  0
   16.9089    8.7642   11.2405 C   0  0  0  0  0  0  0  0  0  0  0  0
   16.4567    9.6828   10.2736 C   0  0  0  0  0  0  0  0  0  0  0  0
   15.0782    9.8417   10.0567 C   0  0  0  0  0  0  0  0  0  0  0  0
   14.6079   10.7639    9.0905 N   0  0  0  0  0  0  0  0  0  0  0  0
   14.1673    9.0860   10.8151 C   0  0  0  0  0  0  0  0  0  0  0  0
   14.6277    8.1724   11.7747 C   0  0  0  0  0  0  0  0  0  0  0  0
   13.6405   10.8713    8.9425 H   0  0  0  0  0  0  0  0  0  0  0  0
   15.2482   11.2977    8.5668 H   0  0  0  0  0  0  0  0  0  0  0  0
 20 21  2  0  0  0
 20 18  1  0  0  0
 21 15  1  0  0  0
 19 18  1  0  0  0
 18 17  2  0  0  0
 14 15  1  0  0  0
 14 13  2  0  0  0
 15 16  2  0  0  0
 13  4  1  0  0  0
 17 16  1  0  0  0
  4  5  2  0  0  0
  4  3  1  0  0  0
  5  6  1  0  0  0
  3  2  2  0  0  0
  6  1  2  0  0  0
  2  1  1  0  0  0
  1  8  1  0  0  0
 10  8  1  0  0  0
  7  8  2  0  0  0
  8  9  2  0  0  0
 10 11  1  0  0  0
 10 12  1  0  0  0
 19 22  1  0  0  0
 19 23  1  0  0  0
M  END
> <minimizedAffinity>
-7.29892

$$$$
5BYI_4WA_A_303


 23 24  0  0  0  0  0  0  0  0999 V2000
   15.2491    3.1249   15.9428 C   0  0  0  0  0  0  0  0  0  0  0  0
   14.8063    4.4415   15.7723 C   0  0  0  0  0  0  0  0  0  0  0  0
   15.2510    5.2024   14.6771 C   0  0  0  0  0  0  0  0  0  0  0  0
   16.1256    4.6343   13.7347 C   0  0  0  0  0  0  0  0  0  0  0  0
   16.5984    3.3419   13.9158 C   0  0  0  0  0  0  0  0  0  0  0  0
   16.1532    2.5908   15.0059 C   0  0  0  0  0  0  0  0  0  0  0  0
   13.2728    1.8464   16.9726 O   0  0  0  0  0  0  0  0  0  0  0  0
   14.6526    2.1312   17.2729 S   0  0  0  0  0  0  0  0  0  0  0  0
   14.9466    2.8830   18.4754 O   0  0  0  0  0  0  0  0  0  0  0  0
   15.5232    0.7838   17.2659 N   0  0  0  0  0  0  0  0  0  0  0  0
   15.3189    0.2513   16.4202 H   0  0  0  0  0  0  0  0  0  0  0  0
   15.2891    0.2234   18.0854 H   0  0  0  0  0  0  0  0  0  0  0  0
   16.5547    5.3063   12.6439 N   0  0  0  0  0  0  0  0  0  0  0  0
   17.0335    4.5939   11.6011 N   0  0  0  0  0  0  0  0  0  0  0  0
   18.0598    5.0213   10.8305 C   0  0  0  0  0  0  0  0  0  0  0  0
   17.9344    5.3992    9.4816 C   0  0  0  0  0  0  0  0  0  0  0  0
   19.0524    5.8462    8.7513 C   0  0  0  0  0  0  0  0  0  0  0  0
   20.3055    5.9295    9.3800 C   0  0  0  0  0  0  0  0  0  0  0  0
   21.4399    6.3736    8.6581 N   0  0  0  0  0  0  0  0  0  0  0  0
   20.4279    5.5569   10.7299 C   0  0  0  0  0  0  0  0  0  0  0  0
   19.3079    5.1145   11.4493 C   0  0  0  0  0  0  0  0  0  0  0  0
   22.3159    6.4300    9.1037 H   0  0  0  0  0  0  0  0  0  0  0  0
   21.3525    6.6258    7.7105 H   0  0  0  0  0  0  0  0  0  0  0  0
 20 21  2  0  0  0
 20 18  1  0  0  0
 21 15  1  0  0  0
 19 18  1  0  0  0
 18 17  2  0  0  0
 14 15  1  0  0  0
 14 13  2  0  0  0
 15 16  2  0  0  0
 13  4  1  0  0  0
 17 16  1  0  0  0
  4  5  2  0  0  0
  4  3  1  0  0  0
  5  6  1  0  0  0
  3  2  2  0  0  0
  6  1  2  0  0  0
  2  1  1  0  0  0
  1  8  1  0  0  0
 10  8  1  0  0  0
  7  8  2  0  0  0
  8  9  2  0  0  0
 10 11  1  0  0  0
 10 12  1  0  0  0
 19 22  1  0  0  0
 19 23  1  0  0  0
M  END
> <minimizedAffinity>
-6.94431

$$$$
5BYI_4WA_A_303


 23 24  0  0  0  0  0  0  0  0999 V2000
   18.8155    9.1412   12.9573 C   0  0  0  0  0  0  0  0  0  0  0  0
   17.8504    8.7598   12.0183 C   0  0  0  0  0  0  0  0  0  0  0  0
   17.1441    7.5549   12.1778 C   0  0  0  0  0  0  0  0  0  0  0  0
   17.3889    6.7387   13.2956 C   0  0  0  0  0  0  0  0  0  0  0  0
   18.3700    7.0911   14.2121 C   0  0  0  0  0  0  0  0  0  0  0  0
   19.0686    8.2893   14.0484 C   0  0  0  0  0  0  0  0  0  0  0  0
   18.8647   11.4995   11.9390 O   0  0  0  0  0  0  0  0  0  0  0  0
   19.6660   10.6801   12.8115 S   0  0  0  0  0  0  0  0  0  0  0  0
   21.0068   10.3385   12.3835 O   0  0  0  0  0  0  0  0  0  0  0  0
   19.7265   11.3127   14.2846 N   0  0  0  0  0  0  0  0  0  0  0  0
   18.7838   11.5547   14.5897 H   0  0  0  0  0  0  0  0  0  0  0  0
   20.3054   12.1524   14.2705 H   0  0  0  0  0  0  0  0  0  0  0  0
   16.7134    5.5900   13.5187 N   0  0  0  0  0  0  0  0  0  0  0  0
   15.8370    5.5524   14.5457 N   0  0  0  0  0  0  0  0  0  0  0  0
   15.6422    4.4490   15.3035 C   0  0  0  0  0  0  0  0  0  0  0  0
   14.4494    4.1595   15.9902 C   0  0  0  0  0  0  0  0  0  0  0  0
   14.3226    2.9800   16.7491 C   0  0  0  0  0  0  0  0  0  0  0  0
   15.3942    2.0743   16.8104 C   0  0  0  0  0  0  0  0  0  0  0  0
   15.2834    0.8857   17.5722 N   0  0  0  0  0  0  0  0  0  0  0  0
   16.5836    2.3624   16.1188 C   0  0  0  0  0  0  0  0  0  0  0  0
   16.6995    3.5392   15.3642 C   0  0  0  0  0  0  0  0  0  0  0  0
   16.0376    0.2543   17.6118 H   0  0  0  0  0  0  0  0  0  0  0  0
   14.4520    0.6909   18.0623 H   0  0  0  0  0  0  0  0  0  0  0  0
 20 21  2  0  0  0
 20 18  1  0  0  0
 21 15  1  0  0  0
 19 18  1  0  0  0
 18 17  2  0  0  0
 14 15  1  0  0  0
 14 13  2  0  0  0
 15 16  2  0  0  0
 13  4  1  0  0  0
 17 16  1  0  0  0
  4  5  2  0  0  0
  4  3  1  0  0  0
  5  6  1  0  0  0
  3  2  2  0  0  0
  6  1  2  0  0  0
  2  1  1  0  0  0
  1  8  1  0  0  0
 10  8  1  0  0  0
  7  8  2  0  0  0
  8  9  2  0  0  0
 10 11  1  0  0  0
 10 12  1  0  0  0
 19 22  1  0  0  0
 19 23  1  0  0  0
M  END
> <minimizedAffinity>
-6.34008

$$$$
5BYI_4WA_A_303


 23 24  0  0  0  0  0  0  0  0999 V2000
   17.9120    9.0957   12.0247 C   0  0  0  0  0  0  0  0  0  0  0  0
   18.4792    8.3201   13.0421 C   0  0  0  0  0  0  0  0  0  0  0  0
   17.8688    7.1182   13.4406 C   0  0  0  0  0  0  0  0  0  0  0  0
   16.6967    6.6787   12.8012 C   0  0  0  0  0  0  0  0  0  0  0  0
   16.1074    7.4597   11.8166 C   0  0  0  0  0  0  0  0  0  0  0  0
   16.7184    8.6530   11.4249 C   0  0  0  0  0  0  0  0  0  0  0  0
   18.9393   11.3687   12.6403 O   0  0  0  0  0  0  0  0  0  0  0  0
   18.6968   10.5731   11.4642 S   0  0  0  0  0  0  0  0  0  0  0  0
   17.8183   11.1120   10.4467 O   0  0  0  0  0  0  0  0  0  0  0  0
   20.0812   10.1288   10.7860 N   0  0  0  0  0  0  0  0  0  0  0  0
   20.7028    9.7485   11.4997 H   0  0  0  0  0  0  0  0  0  0  0  0
   20.5208   10.9386   10.3487 H   0  0  0  0  0  0  0  0  0  0  0  0
   16.0892    5.5140   13.1174 N   0  0  0  0  0  0  0  0  0  0  0  0
   15.4751    5.4178   14.3165 N   0  0  0  0  0  0  0  0  0  0  0  0
   15.4594    4.2768   15.0429 C   0  0  0  0  0  0  0  0  0  0  0  0
   16.3536    3.2071   14.8580 C   0  0  0  0  0  0  0  0  0  0  0  0
   16.2785    2.0567   15.6668 C   0  0  0  0  0  0  0  0  0  0  0  0
   15.3085    1.9812   16.6797 C   0  0  0  0  0  0  0  0  0  0  0  0
   15.2179    0.8296   17.4988 N   0  0  0  0  0  0  0  0  0  0  0  0
   14.4192    3.0537   16.8668 C   0  0  0  0  0  0  0  0  0  0  0  0
   14.5033    4.1960   16.0571 C   0  0  0  0  0  0  0  0  0  0  0  0
   14.5360    0.7820   18.2073 H   0  0  0  0  0  0  0  0  0  0  0  0
   15.8367    0.0767   17.3597 H   0  0  0  0  0  0  0  0  0  0  0  0
 20 21  2  0  0  0
 20 18  1  0  0  0
 21 15  1  0  0  0
 19 18  1  0  0  0
 18 17  2  0  0  0
 14 15  1  0  0  0
 14 13  2  0  0  0
 15 16  2  0  0  0
 13  4  1  0  0  0
 17 16  1  0  0  0
  4  5  2  0  0  0
  4  3  1  0  0  0
  5  6  1  0  0  0
  3  2  2  0  0  0
  6  1  2  0  0  0
  2  1  1  0  0  0
  1  8  1  0  0  0
 10  8  1  0  0  0
  7  8  2  0  0  0
  8  9  2  0  0  0
 10 11  1  0  0  0
 10 12  1  0  0  0
 19 22  1  0  0  0
 19 23  1  0  0  0
M  END
> <minimizedAffinity>
-6.27882

$$$$
5BYI_4WA_A_303


 23 24  0  0  0  0  0  0  0  0999 V2000
   19.6729   11.0811   13.9503 C   0  0  0  0  0  0  0  0  0  0  0  0
   19.6471   10.4349   15.1914 C   0  0  0  0  0  0  0  0  0  0  0  0
   19.2435    9.0915   15.2824 C   0  0  0  0  0  0  0  0  0  0  0  0
   18.8860    8.3842   14.1215 C   0  0  0  0  0  0  0  0  0  0  0  0
   18.8736    9.0277   12.8917 C   0  0  0  0  0  0  0  0  0  0  0  0
   19.2754   10.3626   12.8075 C   0  0  0  0  0  0  0  0  0  0  0  0
   21.1960   12.9375   14.8640 O   0  0  0  0  0  0  0  0  0  0  0  0
   20.2387   12.7458   13.8048 S   0  0  0  0  0  0  0  0  0  0  0  0
   19.0412   13.5603   13.8136 O   0  0  0  0  0  0  0  0  0  0  0  0
   20.9491   12.8658   12.3713 N   0  0  0  0  0  0  0  0  0  0  0  0
   21.7932   12.2934   12.3612 H   0  0  0  0  0  0  0  0  0  0  0  0
   21.1964   13.8395   12.1949 H   0  0  0  0  0  0  0  0  0  0  0  0
   18.5269    7.0819   14.1455 N   0  0  0  0  0  0  0  0  0  0  0  0
   17.2295    6.7720   13.9340 N   0  0  0  0  0  0  0  0  0  0  0  0
   16.6068    5.7513   14.5664 C   0  0  0  0  0  0  0  0  0  0  0  0
   15.2448    5.7491   14.9171 C   0  0  0  0  0  0  0  0  0  0  0  0
   14.6688    4.6388   15.5642 C   0  0  0  0  0  0  0  0  0  0  0  0
   15.4594    3.5140   15.8508 C   0  0  0  0  0  0  0  0  0  0  0  0
   14.8957    2.3913   16.5043 N   0  0  0  0  0  0  0  0  0  0  0  0
   16.8191    3.5155   15.4944 C   0  0  0  0  0  0  0  0  0  0  0  0
   17.3831    4.6257   14.8487 C   0  0  0  0  0  0  0  0  0  0  0  0
   15.4544    1.6054   16.7028 H   0  0  0  0  0  0  0  0  0  0  0  0
   13.9450    2.3966   16.7601 H   0  0  0  0  0  0  0  0  0  0  0  0
 20 21  2  0  0  0
 20 18  1  0  0  0
 21 15  1  0  0  0
 19 18  1  0  0  0
 18 17  2  0  0  0
 14 15  1  0  0  0
 14 13  2  0  0  0
 15 16  2  0  0  0
 13  4  1  0  0  0
 17 16  1  0  0  0
  4  5  2  0  0  0
  4  3  1  0  0  0
  5  6  1  0  0  0
  3  2  2  0  0  0
  6  1  2  0  0  0
  2  1  1  0  0  0
  1  8  1  0  0  0
 10  8  1  0  0  0
  7  8  2  0  0  0
  8  9  2  0  0  0
 10 11  1  0  0  0
 10 12  1  0  0  0
 19 22  1  0  0  0
 19 23  1  0  0  0
M  END
> <minimizedAffinity>
-6.20585

$$$$
5BYI_4WA_A_303


 23 24  0  0  0  0  0  0  0  0999 V2000
   21.3050    6.0760   11.6088 C   0  0  0  0  0  0  0  0  0  0  0  0
   20.6230    7.1186   12.2463 C   0  0  0  0  0  0  0  0  0  0  0  0
   19.3437    6.9021   12.7870 C   0  0  0  0  0  0  0  0  0  0  0  0
   18.7535    5.6287   12.7095 C   0  0  0  0  0  0  0  0  0  0  0  0
   19.4070    4.5989   12.0470 C   0  0  0  0  0  0  0  0  0  0  0  0
   20.6779    4.8199   11.5116 C   0  0  0  0  0  0  0  0  0  0  0  0
   23.7220    6.8072   12.0823 O   0  0  0  0  0  0  0  0  0  0  0  0
   22.9377    6.3083   10.9819 S   0  0  0  0  0  0  0  0  0  0  0  0
   22.7844    7.1542    9.8163 O   0  0  0  0  0  0  0  0  0  0  0  0
   23.4627    4.8639   10.5215 N   0  0  0  0  0  0  0  0  0  0  0  0
   23.5719    4.2651   11.3399 H   0  0  0  0  0  0  0  0  0  0  0  0
   24.3619    4.9633   10.0504 H   0  0  0  0  0  0  0  0  0  0  0  0
   17.5435    5.3547   13.2447 N   0  0  0  0  0  0  0  0  0  0  0  0
   17.4450    5.2596   14.5884 N   0  0  0  0  0  0  0  0  0  0  0  0
   16.6196    4.3816   15.2028 C   0  0  0  0  0  0  0  0  0  0  0  0
   17.0360    3.1597   15.7610 C   0  0  0  0  0  0  0  0  0  0  0  0
   16.1137    2.3058   16.3962 C   0  0  0  0  0  0  0  0  0  0  0  0
   14.7642    2.6841   16.4865 C   0  0  0  0  0  0  0  0  0  0  0  0
   13.8241    1.8348   17.1190 N   0  0  0  0  0  0  0  0  0  0  0  0
   14.3508    3.9085   15.9332 C   0  0  0  0  0  0  0  0  0  0  0  0
   15.2775    4.7528   15.3039 C   0  0  0  0  0  0  0  0  0  0  0  0
   12.8793    2.1049   17.1795 H   0  0  0  0  0  0  0  0  0  0  0  0
   14.1153    0.9742   17.4982 H   0  0  0  0  0  0  0  0  0  0  0  0
 20 21  2  0  0  0
 20 18  1  0  0  0
 21 15  1  0  0  0
 19 18  1  0  0  0
 18 17  2  0  0  0
 14 15  1  0  0  0
 14 13  2  0  0  0
 15 16  2  0  0  0
 13  4  1  0  0  0
 17 16  1  0  0  0
  4  5  2  0  0  0
  4  3  1  0  0  0
  5  6  1  0  0  0
  3  2  2  0  0  0
  6  1  2  0  0  0
  2  1  1  0  0  0
  1  8  1  0  0  0
 10  8  1  0  0  0
  7  8  2  0  0  0
  8  9  2  0  0  0
 10 11  1  0  0  0
 10 12  1  0  0  0
 19 22  1  0  0  0
 19 23  1  0  0  0
M  END
> <minimizedAffinity>
-6.18089

$$$$
5BYI_4WA_A_303


 23 24  0  0  0  0  0  0  0  0999 V2000
   17.5891    5.2009   14.0398 C   0  0  0  0  0  0  0  0  0  0  0  0
   17.1526    6.4075   14.5985 C   0  0  0  0  0  0  0  0  0  0  0  0
   17.8821    7.5905   14.3881 C   0  0  0  0  0  0  0  0  0  0  0  0
   19.0422    7.5699   13.5947 C   0  0  0  0  0  0  0  0  0  0  0  0
   19.5023    6.3713   13.0672 C   0  0  0  0  0  0  0  0  0  0  0  0
   18.7735    5.1990   13.2797 C   0  0  0  0  0  0  0  0  0  0  0  0
   17.0800    2.8328   13.1832 O   0  0  0  0  0  0  0  0  0  0  0  0
   16.6535    3.7181   14.2364 S   0  0  0  0  0  0  0  0  0  0  0  0
   15.2676    4.1382   14.2534 O   0  0  0  0  0  0  0  0  0  0  0  0
   17.0414    3.1174   15.6726 N   0  0  0  0  0  0  0  0  0  0  0  0
   18.0171    2.8203   15.6646 H   0  0  0  0  0  0  0  0  0  0  0  0
   16.4439    2.3169   15.8789 H   0  0  0  0  0  0  0  0  0  0  0  0
   19.7605    8.6829   13.3284 N   0  0  0  0  0  0  0  0  0  0  0  0
   20.2254    9.4084   14.3684 N   0  0  0  0  0  0  0  0  0  0  0  0
   20.3072   10.7583   14.3425 C   0  0  0  0  0  0  0  0  0  0  0  0
   19.4661   11.5889   13.5805 C   0  0  0  0  0  0  0  0  0  0  0  0
   19.6088   12.9894   13.6190 C   0  0  0  0  0  0  0  0  0  0  0  0
   20.5932   13.5655   14.4384 C   0  0  0  0  0  0  0  0  0  0  0  0
   20.7515   14.9720   14.4852 N   0  0  0  0  0  0  0  0  0  0  0  0
   21.4292   12.7342   15.2038 C   0  0  0  0  0  0  0  0  0  0  0  0
   21.2781   11.3403   15.1598 C   0  0  0  0  0  0  0  0  0  0  0  0
   21.4431   15.3706   15.0613 H   0  0  0  0  0  0  0  0  0  0  0  0
   20.1698   15.5511   13.9416 H   0  0  0  0  0  0  0  0  0  0  0  0
 20 21  2  0  0  0
 20 18  1  0  0  0
 21 15  1  0  0  0
 19 18  1  0  0  0
 18 17  2  0  0  0
 14 15  1  0  0  0
 14 13  2  0  0  0
 15 16  2  0  0  0
 13  4  1  0  0  0
 17 16  1  0  0  0
  4  5  2  0  0  0
  4  3  1  0  0  0
  5  6  1  0  0  0
  3  2  2  0  0  0
  6  1  2  0  0  0
  2  1  1  0  0  0
  1  8  1  0  0  0
 10  8  1  0  0  0
  7  8  2  0  0  0
  8  9  2  0  0  0
 10 11  1  0  0  0
 10 12  1  0  0  0
 19 22  1  0  0  0
 19 23  1  0  0  0
M  END
> <minimizedAffinity>
-5.67870

$$$$
5BYI_4WA_A_303


 23 24  0  0  0  0  0  0  0  0999 V2000
   19.9186    7.7783   11.9771 C   0  0  0  0  0  0  0  0  0  0  0  0
   19.3698    8.2043   13.1920 C   0  0  0  0  0  0  0  0  0  0  0  0
   18.8838    7.2649   14.1180 C   0  0  0  0  0  0  0  0  0  0  0  0
   18.9688    5.8904   13.8362 C   0  0  0  0  0  0  0  0  0  0  0  0
   19.4779    5.4608   12.6184 C   0  0  0  0  0  0  0  0  0  0  0  0
   19.9592    6.3987   11.7023 C   0  0  0  0  0  0  0  0  0  0  0  0
   20.8524    8.1976    9.6207 O   0  0  0  0  0  0  0  0  0  0  0  0
   20.5940    8.9362   10.8301 S   0  0  0  0  0  0  0  0  0  0  0  0
   21.7195    9.5404   11.5126 O   0  0  0  0  0  0  0  0  0  0  0  0
   19.4657   10.0496   10.5833 N   0  0  0  0  0  0  0  0  0  0  0  0
   18.6711    9.6278   10.1027 H   0  0  0  0  0  0  0  0  0  0  0  0
   19.8494   10.8014   10.0106 H   0  0  0  0  0  0  0  0  0  0  0  0
   18.5524    4.9432   14.7050 N   0  0  0  0  0  0  0  0  0  0  0  0
   17.7618    3.9518   14.2400 N   0  0  0  0  0  0  0  0  0  0  0  0
   16.7633    3.4061   14.9713 C   0  0  0  0  0  0  0  0  0  0  0  0
   16.7616    2.0828   15.4477 C   0  0  0  0  0  0  0  0  0  0  0  0
   15.6866    1.5942   16.2150 C   0  0  0  0  0  0  0  0  0  0  0  0
   14.6091    2.4415   16.5208 C   0  0  0  0  0  0  0  0  0  0  0  0
   13.5190    1.9639   17.2882 N   0  0  0  0  0  0  0  0  0  0  0  0
   14.6151    3.7656   16.0488 C   0  0  0  0  0  0  0  0  0  0  0  0
   15.6914    4.2433   15.2865 C   0  0  0  0  0  0  0  0  0  0  0  0
   12.7663    2.5622   17.4997 H   0  0  0  0  0  0  0  0  0  0  0  0
   13.5139    1.0336   17.6103 H   0  0  0  0  0  0  0  0  0  0  0  0
 20 21  2  0  0  0
 20 18  1  0  0  0
 21 15  1  0  0  0
 19 18  1  0  0  0
 18 17  2  0  0  0
 14 15  1  0  0  0
 14 13  2  0  0  0
 15 16  2  0  0  0
 13  4  1  0  0  0
 17 16  1  0  0  0
  4  5  2  0  0  0
  4  3  1  0  0  0
  5  6  1  0  0  0
  3  2  2  0  0  0
  6  1  2  0  0  0
  2  1  1  0  0  0
  1  8  1  0  0  0
 10  8  1  0  0  0
  7  8  2  0  0  0
  8  9  2  0  0  0
 10 11  1  0  0  0
 10 12  1  0  0  0
 19 22  1  0  0  0
 19 23  1  0  0  0
M  END
> <minimizedAffinity>
-5.62338

$$$$
