3NI5_C1H_A_264
  RCSB PDB12061709553D
Coordinates from PDB:3NI5:A:264 Model:1 without hydrogens
 30 31  0  0  0  0            999 V2000
    4.0640    9.9060   11.7140   O 0  5  0  0  0  0  0  0  0  0  0  0
    3.0920    9.3570   12.5580   N 0  3  0  0  0  0  0  0  0  0  0  0
   -2.9470    9.1130    8.2640   O 0  0  0  0  0  0  0  0  0  0  0  0
   -6.5740    5.2820   12.7820   O 0  0  0  0  0  0  0  0  0  0  0  0
    2.0860    8.6000   12.0180   O 0  0  0  0  0  0  0  0  0  0  0  0
    1.0010    8.0460   12.7800   C 0  0  0  0  0  0  0  0  0  0  0  0
   -0.0090    9.1060   13.2270   C 0  0  0  0  0  0  0  0  0  0  0  0
   -1.2860    9.0800   12.3900   C 0  0  0  0  0  0  0  0  0  0  0  0
   -1.0090    9.2470   10.8910   C 0  0  0  0  0  0  0  0  0  0  0  0
   -2.0820    9.9450   10.2570   O 0  0  0  0  0  0  0  0  0  0  0  0
   -3.0980    9.2360    9.4760   C 0  0  0  0  0  0  0  0  0  0  0  0
   -4.3300    8.6600   10.1360   C 0  0  0  0  0  0  0  0  0  0  0  0
   -4.2130    7.6810   11.1460   C 0  0  0  0  0  0  0  0  0  0  0  0
   -5.3540    7.1230   11.7410   C 0  0  0  0  0  0  0  0  0  0  0  0
   -5.3510    6.0170   12.9260   S 0  0  0  0  0  0  0  0  0  0  0  0
   -4.1910    5.0330   13.1930   N 0  0  0  0  0  0  0  0  0  0  0  0
   -4.3150    3.9260   14.0450   C 0  0  0  0  0  0  0  0  0  0  0  0
   -3.3090    3.0360   14.3480   N 0  0  0  0  0  0  0  0  0  0  0  0
   -3.7040    1.9880   15.2520   N 0  0  0  0  0  0  0  0  0  0  0  0
   -5.3160    1.0230   18.1240   O 0  0  0  0  0  0  0  0  0  0  0  0
   -5.5950    9.0980    9.7130   C 0  0  0  0  0  0  0  0  0  0  0  0
   -6.7400    8.5660   10.2950   C 0  0  0  0  0  0  0  0  0  0  0  0
   -6.6040    7.6050   11.3040   C 0  0  0  0  0  0  0  0  0  0  0  0
   -5.4790    6.7900   14.1280   O 0  0  0  0  0  0  0  0  0  0  0  0
   -5.7530    3.4660   14.8880   S 0  0  0  0  0  0  0  0  0  0  0  0
   -5.0120    2.1020   15.6590   C 0  0  0  0  0  0  0  0  0  0  0  0
   -5.8430    1.0660   16.7120   S 0  0  0  0  0  0  0  0  0  0  0  0
   -5.7120   -0.3010   16.1660   N 0  0  0  0  0  0  0  0  0  0  0  0
   -7.2570    1.5060   16.7620   O 0  0  0  0  0  0  0  0  0  0  0  0
    3.1630    9.5750   13.7630   O 0  0  0  0  0  0  0  0  0  0  0  0
  1  2  1  0  0  0  0
  2  5  1  0  0  0  0
  2 30  2  0  0  0  0
  3 11  2  0  0  0  0
  4 15  2  0  0  0  0
  5  6  1  0  0  0  0
  6  7  1  0  0  0  0
  7  8  1  0  0  0  0
  8  9  1  0  0  0  0
  9 10  1  0  0  0  0
 10 11  1  0  0  0  0
 11 12  1  0  0  0  0
 12 13  2  0  0  0  0
 12 21  1  0  0  0  0
 13 14  1  0  0  0  0
 14 15  1  0  0  0  0
 14 23  2  0  0  0  0
 15 16  1  0  0  0  0
 15 24  2  0  0  0  0
 16 17  1  0  0  0  0
 17 18  2  0  0  0  0
 17 25  1  0  0  0  0
 18 19  1  0  0  0  0
 19 26  2  0  0  0  0
 20 27  2  0  0  0  0
 21 22  2  0  0  0  0
 22 23  1  0  0  0  0
 25 26  1  0  0  0  0
 26 27  1  0  0  0  0
 27 28  1  0  0  0  0
 27 29  2  0  0  0  0
M  CHG  2   1  -1   2   1
A    1
OAA
A    2
NAB
A    3
OAC
A    4
OAD
A    5
OAE
A    6
CAF
A    7
CAG
A    8
CAH
A    9
CAI
A   10
OAJ
A   11
CAK
A   12
CAL
A   13
CAM
A   14
CAN
A   15
SAO
A   16
NAP
A   17
CAQ
A   18
NAR
A   19
NAS
A   20
OAT
A   21
CAU
A   22
CAV
A   23
CAW
A   24
OAX
A   25
SAY
A   26
CAZ
A   27
SBA
A   28
NBB
A   29
OBC
A   30
ONA
M  END
>  <InstanceId>
3NI5_C1H_A_264

>  <ChemCompId>
C1H

>  <PdbId>
3NI5

>  <ChainId>
A

>  <ResidueNumber>
264

>  <InsertionCode>


>  <Model>
1

>  <AltIds>


>  <MissingHeavyAtoms>
0

>  <ObservedFormula>
C13 N5 O9 S3

>  <Name>
4-(nitrooxy)butyl 3-[(5-sulfamoyl-1,3,4-thiadiazol-2-yl)sulfamoyl]benzoate

>  <SystematicName>
4-nitrooxybutyl 3-[(5-sulfamoyl-1,3,4-thiadiazol-2-yl)sulfamoyl]benzoate

>  <Synonyms>


>  <Type>
NON-POLYMER

>  <Formula>
C13 H15 N5 O9 S3

>  <MolecularWeight>
481.481

>  <ModifiedDate>
2011-06-17

>  <Parent>


>  <OneLetterCode>


>  <SubcomponentList>


>  <AmbiguousFlag>
N

>  <InChI>
InChI=1S/C13H15N5O9S3/c14-29(22,23)13-16-15-12(28-13)17-30(24,25)10-5-3-4-9(8-10)11(19)26-6-1-2-7-27-18(20)21/h3-5,8H,1-2,6-7H2,(H,15,17)(H2,14,22,23)

>  <InChIKey>
QCXYDHYYUCXOLH-UHFFFAOYSA-N

>  <SMILES>
c1cc(cc(c1)S(=O)(=O)Nc2nnc(s2)S(=O)(=O)N)C(=O)OCCCCO[N+](=O)[O-]

$$$$
