1G4O_BSB_A_555
  RCSB PDB12061702343D
Coordinates from PDB:1G4O:A:555 Model:1 without hydrogens
 20 21  0  0  0  0            999 V2000
   -3.8480    3.5450   14.6910   C 0  0  0  0  0  0  0  0  0  0  0  0
   -4.2370    2.3650   15.3650   C 0  0  0  0  0  0  0  0  0  0  0  0
   -5.5740    2.3350   15.9180   C 0  0  0  0  0  0  0  0  0  0  0  0
   -6.4120    3.4700   15.7530   C 0  0  0  0  0  0  0  0  0  0  0  0
   -5.9770    4.6190   15.0710   C 0  0  0  0  0  0  0  0  0  0  0  0
   -4.7000    4.6590   14.5450   C 0  0  0  0  0  0  0  0  0  0  0  0
   -4.1860    5.8880   13.8100   C 0  0  0  0  0  0  0  0  0  0  0  0
   -4.9130    6.8570   13.6790   O 0  0  0  0  0  0  0  0  0  0  0  0
   -2.8950    5.8980   13.3010   N 0  0  0  0  0  0  0  0  0  0  0  0
   -2.2190    6.9700   12.5800   C 0  0  0  0  0  0  0  0  0  0  0  0
   -6.0590    0.8320   16.7840   S 0  0  0  0  0  0  0  0  0  0  0  0
   -5.6290   -0.5400   16.0950   N 0  0  0  0  0  0  0  0  0  0  0  0
   -7.5390    1.0910   16.8390   O 0  0  0  0  0  0  0  0  0  0  0  0
   -5.5270    1.1290   18.0940   O 0  0  0  0  0  0  0  0  0  0  0  0
   -1.4690    7.9020   13.3820   C 0  0  0  0  0  0  0  0  0  0  0  0
   -1.8430    8.0700   14.7660   C 0  0  0  0  0  0  0  0  0  0  0  0
   -1.1590    8.9730   15.6310   C 0  0  0  0  0  0  0  0  0  0  0  0
   -0.0750    9.7300   15.1060   C 0  0  0  0  0  0  0  0  0  0  0  0
    0.3390    9.5950   13.7200   C 0  0  0  0  0  0  0  0  0  0  0  0
   -0.3680    8.6670   12.8410   C 0  0  0  0  0  0  0  0  0  0  0  0
  1  2  2  0  0  0  0
  1  6  1  0  0  0  0
  2  3  1  0  0  0  0
  3  4  2  0  0  0  0
  3 11  1  0  0  0  0
  4  5  1  0  0  0  0
  5  6  2  0  0  0  0
  6  7  1  0  0  0  0
  7  8  2  0  0  0  0
  7  9  1  0  0  0  0
  9 10  1  0  0  0  0
 10 15  1  0  0  0  0
 11 12  1  0  0  0  0
 11 13  2  0  0  0  0
 11 14  2  0  0  0  0
 15 16  2  0  0  0  0
 15 20  1  0  0  0  0
 16 17  1  0  0  0  0
 17 18  2  0  0  0  0
 18 19  1  0  0  0  0
 19 20  2  0  0  0  0
A    1
C01
A    2
C02
A    3
C03
A    4
C04
A    5
C05
A    6
C06
A    7
C07
A    8
O08
A    9
N09
A   10
C10
A   11
S11
A   12
NP2
A   13
O13
A   14
O14
A   15
C15
A   16
C16
A   17
C17
A   18
C18
A   19
C19
A   20
C20
M  END
>  <InstanceId>
1G4O_BSB_A_555

>  <ChemCompId>
BSB

>  <PdbId>
1G4O

>  <ChainId>
A

>  <ResidueNumber>
555

>  <InsertionCode>


>  <Model>
1

>  <AltIds>


>  <MissingHeavyAtoms>
0

>  <ObservedFormula>
C14 N2 O3 S

>  <Name>
N-BENZYL-4-SULFAMOYL-BENZAMIDE

>  <SystematicName>
N-(phenylmethyl)-4-sulfamoyl-benzamide

>  <Synonyms>


>  <Type>
NON-POLYMER

>  <Formula>
C14 H14 N2 O3 S

>  <MolecularWeight>
290.338

>  <ModifiedDate>
2011-06-04

>  <Parent>


>  <OneLetterCode>


>  <SubcomponentList>


>  <AmbiguousFlag>
N

>  <InChI>
InChI=1S/C14H14N2O3S/c15-20(18,19)13-8-6-12(7-9-13)14(17)16-10-11-4-2-1-3-5-11/h1-9H,10H2,(H,16,17)(H2,15,18,19)

>  <InChIKey>
CZKNSZUJCJHTTM-UHFFFAOYSA-N

>  <SMILES>
c1ccc(cc1)CNC(=O)c2ccc(cc2)S(=O)(=O)N

$$$$
