4MYD_164_A_301
  RCSB PDB12061713493D
Coordinates from PDB:4MYD:A:301 Model:1 without hydrogens
 17 17  0  0  0  0            999 V2000
   23.4220   76.2480   11.7760   O 0  0  0  0  0  0  0  0  0  0  0  0
   24.4100   75.5300   11.9730   C 0  0  0  0  0  0  0  0  0  0  0  0
   24.5120   74.4810   12.6240   O 0  0  0  0  0  0  0  0  0  0  0  0
   25.6720   75.9730   11.2300   C 0  0  0  0  0  0  0  0  0  0  0  0
   26.1440   77.3360   11.7490   C 0  0  0  0  0  0  0  0  0  0  0  0
   27.0820   77.2430   12.9060   C 0  0  0  0  0  0  0  0  0  0  0  0
   27.8720   76.1770   13.0620   C 0  0  0  0  0  0  0  0  0  0  0  0
   27.8030   75.0680   12.1370   C 0  0  0  0  0  0  0  0  0  0  0  0
   26.7120   78.0780   10.7150   O 0  0  0  0  0  0  0  0  0  0  0  0
   26.7790   74.9430   11.2610   C 0  0  0  0  0  0  0  0  0  0  0  0
   26.7670   73.8210   10.3060   C 0  0  0  0  0  0  0  0  0  0  0  0
   25.7860   73.7520    9.5230   O 0  0  0  0  0  0  0  0  0  0  0  0
   27.8870   72.8000   10.2930   C 0  0  0  0  0  0  0  0  0  0  0  0
   29.1360   73.3130    9.6460   C 0  0  0  0  0  0  0  0  0  0  0  0
   30.2040   72.2960    9.2840   C 0  0  0  0  0  0  0  0  0  0  0  0
   29.9310   71.0850    9.4120   O 0  0  0  0  0  0  0  0  0  0  0  0
   31.2420   72.8800    8.8780   O 0  0  0  0  0  0  0  0  0  0  0  0
  1  2  2  0  0  0  0
  2  3  1  0  0  0  0
  2  4  1  0  0  0  0
  4  5  1  0  0  0  0
  4 10  1  0  0  0  0
  5  6  1  0  0  0  0
  5  9  1  0  0  0  0
  6  7  2  0  0  0  0
  7  8  1  0  0  0  0
  8 10  2  0  0  0  0
 10 11  1  0  0  0  0
 11 12  2  0  0  0  0
 11 13  1  0  0  0  0
 13 14  1  0  0  0  0
 14 15  1  0  0  0  0
 15 16  1  0  0  0  0
 15 17  2  0  0  0  0
A    1
O1
A    2
C7
A    3
O2
A    4
C2
A    5
C3
A    6
C4
A    7
C5
A    8
C6
A    9
O9
A   10
C1
A   11
C8
A   12
O3
A   13
C9
A   14
C10
A   15
C11
A   16
O5
A   17
O4
M  END
>  <InstanceId>
4MYD_164_A_301

>  <ChemCompId>
164

>  <PdbId>
4MYD

>  <ChainId>
A

>  <ResidueNumber>
301

>  <InsertionCode>


>  <Model>
1

>  <AltIds>


>  <MissingHeavyAtoms>
0

>  <ObservedFormula>
C11 O6

>  <Name>
2-(3-CARBOXYPROPIONYL)-6-HYDROXY-CYCLOHEXA-2,4-DIENE CARBOXYLIC ACID

>  <SystematicName>
(1R,6R)-6-hydroxy-2-(4-hydroxy-4-oxo-butanoyl)cyclohexa-2,4-diene-1-carboxylic acid

>  <Synonyms>


>  <Type>
NON-POLYMER

>  <Formula>
C11 H12 O6

>  <MolecularWeight>
240.209

>  <ModifiedDate>
2011-06-04

>  <Parent>


>  <OneLetterCode>


>  <SubcomponentList>


>  <AmbiguousFlag>
N

>  <InChI>
InChI=1S/C11H12O6/c12-7(4-5-9(14)15)6-2-1-3-8(13)10(6)11(16)17/h1-3,8,10,13H,4-5H2,(H,14,15)(H,16,17)/t8-,10-/m1/s1

>  <InChIKey>
QJYRAJSESKVEAE-PSASIEDQSA-N

>  <SMILES>
C1=C[C@H]([C@@H](C(=C1)C(=O)CCC(=O)O)C(=O)O)O

$$$$
