4IPN_1FT_B_501
  RCSB PDB12061713033D
Coordinates from PDB:4IPN:B:501 Model:1 without hydrogens
 27 28  0  0  0  0            999 V2000
   28.8110   -1.6980   15.1760   O 0  0  0  0  0  0  0  0  0  0  0  0
   28.6840   -0.1920   15.1290   P 0  0  0  0  0  0  0  0  0  0  0  0
   28.7860    0.2650   13.6870   O 0  0  0  0  0  0  0  0  0  0  0  0
   29.7910    0.4140   15.9580   O 0  0  0  0  0  0  0  0  0  0  0  0
   27.2900    0.2710   15.7070   O 0  0  0  0  0  0  0  0  0  0  0  0
   27.0730    0.1990   17.0630   C 0  0  0  0  0  0  0  0  0  0  0  0
   27.3230   -1.1530   17.6890   C 0  0  0  0  0  0  0  0  0  0  0  0
   26.1200   -1.8550   17.8170   O 0  0  0  0  0  0  0  0  0  0  0  0
   28.1720   -1.0060   18.9590   C 0  0  0  0  0  0  0  0  0  0  0  0
   28.9380    0.1940   18.8410   O 0  0  0  0  0  0  0  0  0  0  0  0
   27.4900   -1.0420   20.2000   C 0  0  0  0  0  0  0  0  0  0  0  0
   28.4840   -1.4870   21.2350   O 0  0  0  0  0  0  0  0  0  0  0  0
   26.3560   -1.8980   20.2190   C 0  0  0  0  0  0  0  0  0  0  0  0
   25.5920   -1.7530   21.4310   O 0  0  0  0  0  0  0  0  0  0  0  0
   25.4380   -1.6630   19.0290   C 0  0  0  0  0  0  0  0  0  0  0  0
   23.9500   -2.6860   19.1050   S 0  0  0  0  0  0  0  0  0  0  0  0
   23.9040   -3.9240   17.7560   C 0  0  0  0  0  0  0  0  0  0  0  0
   23.2680   -5.1580   18.2770   C 0  0  0  0  0  0  0  0  0  0  0  0
   24.1210   -5.7130   19.3130   O 0  0  0  0  0  0  0  0  0  0  0  0
   23.0440   -6.1330   17.2930   C 0  0  0  0  0  0  0  0  0  0  0  0
   22.2880   -7.2500   17.8510   O 0  0  0  0  0  0  0  0  0  0  0  0
   22.3060   -5.5850   16.1010   C 0  0  0  0  0  0  0  0  0  0  0  0
   22.2690   -6.5260   15.1440   O 0  0  0  0  0  0  0  0  0  0  0  0
   22.9320   -4.3630   15.5670   O 0  0  0  0  0  0  0  0  0  0  0  0
   23.2140   -3.3810   16.5270   C 0  0  0  0  0  0  0  0  0  0  0  0
   24.0880   -2.3210   15.8700   C 0  0  0  0  0  0  0  0  0  0  0  0
   23.4780   -1.2290   15.2700   O 0  0  0  0  0  0  0  0  0  0  0  0
  3  2  2  0  0  0  0
  2  1  1  0  0  0  0
  2  5  1  0  0  0  0
  2  4  1  0  0  0  0
 23 22  1  0  0  0  0
 27 26  1  0  0  0  0
 24 22  1  0  0  0  0
 24 25  1  0  0  0  0
  5  6  1  0  0  0  0
 26 25  1  0  0  0  0
 22 20  1  0  0  0  0
 25 17  1  0  0  0  0
  6  7  1  0  0  0  0
 20 21  1  0  0  0  0
 20 18  1  0  0  0  0
  7  8  1  0  0  0  0
  7  9  1  0  0  0  0
 17 18  1  0  0  0  0
 17 16  1  0  0  0  0
  8 15  1  0  0  0  0
 18 19  1  0  0  0  0
 10  9  1  0  0  0  0
  9 11  1  0  0  0  0
 15 16  1  0  0  0  0
 15 13  1  0  0  0  0
 11 13  1  0  0  0  0
 11 12  1  0  0  0  0
 13 14  1  0  0  0  0
A    1
OAH
A    2
PBA
A    3
OAI
A    4
OAJ
A    5
O6
A    6
C6
A    7
C5
A    8
O5
A    9
C4
A   10
O4
A   11
C3
A   12
O3
A   13
C2
A   14
O2
A   15
C1
A   16
SAP
A   17
CAZ
A   18
CAX
A   19
OAG
A   20
CAT
A   21
OAC
A   22
CAQ
A   23
OAB
A   24
OAN
A   25
CAR
A   26
CAK
A   27
OAA
M  END
>  <InstanceId>
4IPN_1FT_B_501

>  <ChemCompId>
1FT

>  <PdbId>
4IPN

>  <ChainId>
B

>  <ResidueNumber>
501

>  <InsertionCode>


>  <Model>
1

>  <AltIds>


>  <MissingHeavyAtoms>
0

>  <ObservedFormula>
C12 O13 P S

>  <Name>
4-S-(6-O-phosphono-alpha-L-idopyranosyl)-4-thio-beta-D-glucopyranose

>  <SystematicName>
[(2S,3S,4S,5R,6S)-6-[(2R,3S,4R,5R,6R)-2-(hydroxymethyl)-4,5,6-tris(oxidanyl)oxan-3-yl]sulfanyl-3,4,5-tris(oxidanyl)oxan-2-yl]methyl dihydrogen phosphate

>  <Synonyms>
thiocellobiose-6P

>  <Type>
NON-POLYMER

>  <Formula>
C12 H23 O13 P S

>  <MolecularWeight>
438.342

>  <ModifiedDate>
2013-04-19

>  <Parent>


>  <OneLetterCode>


>  <SubcomponentList>


>  <AmbiguousFlag>
N

>  <InChI>
InChI=1S/C12H23O13PS/c13-1-3-10(7(16)8(17)11(19)24-3)27-12-9(18)6(15)5(14)4(25-12)2-23-26(20,21)22/h3-19H,1-2H2,(H2,20,21,22)/t3-,4+,5-,6+,7-,8-,9-,10-,11-,12+/m1/s1

>  <InChIKey>
XGJJBBUPFWZKFA-GABYZZBISA-N

>  <SMILES>
C([C@@H]1[C@H]([C@@H]([C@H]([C@@H](O1)O)O)O)S[C@H]2[C@@H]([C@H]([C@@H]([C@@H](O2)COP(=O)(O)O)O)O)O)O

$$$$
