4B33_1NP_A_1351


 12 13  0  0  0  0  0  0  0  0999 V2000
   18.6515    4.2508   -1.5383 O   0  0  0  0  0  0  0  0  0  0  0  0
   18.9181    5.5664   -1.7247 C   0  0  0  0  0  0  0  0  0  0  0  0
   20.0827    5.9280   -2.3739 C   0  0  0  0  0  0  0  0  0  0  0  0
   20.9375    4.9194   -2.8110 C   0  0  0  0  0  0  0  0  0  0  0  0
   22.1117    5.2660   -3.4629 C   0  0  0  0  0  0  0  0  0  0  0  0
   18.0415    6.5417   -1.2660 C   0  0  0  0  0  0  0  0  0  0  0  0
   18.3509    7.8793   -1.4709 C   0  0  0  0  0  0  0  0  0  0  0  0
   19.5172    8.2531   -2.1170 C   0  0  0  0  0  0  0  0  0  0  0  0
   20.3932    7.2647   -2.5733 C   0  0  0  0  0  0  0  0  0  0  0  0
   21.5735    7.6097   -3.2259 C   0  0  0  0  0  0  0  0  0  0  0  0
   22.4261    6.6022   -3.6705 C   0  0  0  0  0  0  0  0  0  0  0  0
   19.2505    3.6023   -1.8522 H   0  0  0  0  0  0  0  0  0  0  0  0
  1  2  1  0  0  0
  2  3  2  0  0  0
  2  6  1  0  0  0
  3  4  1  0  0  0
  3  9  1  0  0  0
  4  5  2  0  0  0
  5 11  1  0  0  0
  6  7  2  0  0  0
  7  8  1  0  0  0
  8  9  2  0  0  0
  9 10  1  0  0  0
 10 11  2  0  0  0
  1 12  1  0  0  0
M  END
> <minimizedAffinity>
-5.91492

$$$$
4B33_1NP_A_1351


 12 13  0  0  0  0  0  0  0  0999 V2000
   19.2724    9.2409   -2.1621 O   0  0  0  0  0  0  0  0  0  0  0  0
   19.1787    7.8929   -2.0581 C   0  0  0  0  0  0  0  0  0  0  0  0
   20.2081    7.1108   -2.5448 C   0  0  0  0  0  0  0  0  0  0  0  0
   21.3039    7.7446   -3.1250 C   0  0  0  0  0  0  0  0  0  0  0  0
   22.3449    6.9733   -3.6200 C   0  0  0  0  0  0  0  0  0  0  0  0
   18.0638    7.3002   -1.4785 C   0  0  0  0  0  0  0  0  0  0  0  0
   18.0011    5.9160   -1.3942 C   0  0  0  0  0  0  0  0  0  0  0  0
   19.0255    5.1223   -1.8821 C   0  0  0  0  0  0  0  0  0  0  0  0
   20.1418    5.7279   -2.4647 C   0  0  0  0  0  0  0  0  0  0  0  0
   21.1872    4.9562   -2.9645 C   0  0  0  0  0  0  0  0  0  0  0  0
   22.2874    5.5886   -3.5383 C   0  0  0  0  0  0  0  0  0  0  0  0
   20.0294    9.6289   -2.5550 H   0  0  0  0  0  0  0  0  0  0  0  0
  1  2  1  0  0  0
  2  3  2  0  0  0
  2  6  1  0  0  0
  3  4  1  0  0  0
  3  9  1  0  0  0
  4  5  2  0  0  0
  5 11  1  0  0  0
  6  7  2  0  0  0
  7  8  1  0  0  0
  8  9  2  0  0  0
  9 10  1  0  0  0
 10 11  2  0  0  0
  1 12  1  0  0  0
M  END
> <minimizedAffinity>
-5.83133

$$$$
4B33_1NP_A_1351


 12 13  0  0  0  0  0  0  0  0999 V2000
   21.7903    4.2746   -3.0565 O   0  0  0  0  0  0  0  0  0  0  0  0
   21.5045    5.5940   -2.9374 C   0  0  0  0  0  0  0  0  0  0  0  0
   20.2835    5.9697   -2.4116 C   0  0  0  0  0  0  0  0  0  0  0  0
   19.3938    4.9709   -2.0246 C   0  0  0  0  0  0  0  0  0  0  0  0
   18.1630    5.3317   -1.4965 C   0  0  0  0  0  0  0  0  0  0  0  0
   22.4180    6.5589   -3.3429 C   0  0  0  0  0  0  0  0  0  0  0  0
   22.0878    7.9007   -3.2102 C   0  0  0  0  0  0  0  0  0  0  0  0
   20.8655    8.2885   -2.6880 C   0  0  0  0  0  0  0  0  0  0  0  0
   19.9528    7.3104   -2.2845 C   0  0  0  0  0  0  0  0  0  0  0  0
   18.7159    7.6696   -1.7562 C   0  0  0  0  0  0  0  0  0  0  0  0
   17.8276    6.6721   -1.3616 C   0  0  0  0  0  0  0  0  0  0  0  0
   21.1659    3.6332   -2.7794 H   0  0  0  0  0  0  0  0  0  0  0  0
  1  2  1  0  0  0
  2  3  2  0  0  0
  2  6  1  0  0  0
  3  4  1  0  0  0
  3  9  1  0  0  0
  4  5  2  0  0  0
  5 11  1  0  0  0
  6  7  2  0  0  0
  7  8  1  0  0  0
  8  9  2  0  0  0
  9 10  1  0  0  0
 10 11  2  0  0  0
  1 12  1  0  0  0
M  END
> <minimizedAffinity>
-5.74425

$$$$
4B33_1NP_A_1351


 12 13  0  0  0  0  0  0  0  0999 V2000
   21.0232    8.9953   -2.6320 O   0  0  0  0  0  0  0  0  0  0  0  0
   21.0403    7.6422   -2.7047 C   0  0  0  0  0  0  0  0  0  0  0  0
   19.9340    6.9348   -2.2758 C   0  0  0  0  0  0  0  0  0  0  0  0
   18.8428    7.6464   -1.7841 C   0  0  0  0  0  0  0  0  0  0  0  0
   17.7250    6.9507   -1.3479 C   0  0  0  0  0  0  0  0  0  0  0  0
   22.1530    6.9704   -3.1951 C   0  0  0  0  0  0  0  0  0  0  0  0
   22.1357    5.5834   -3.2496 C   0  0  0  0  0  0  0  0  0  0  0  0
   21.0337    4.8641   -2.8189 C   0  0  0  0  0  0  0  0  0  0  0  0
   19.9201    5.5490   -2.3258 C   0  0  0  0  0  0  0  0  0  0  0  0
   18.7976    4.8532   -1.8851 C   0  0  0  0  0  0  0  0  0  0  0  0
   17.7023    5.5636   -1.4000 C   0  0  0  0  0  0  0  0  0  0  0  0
   20.2668    9.4371   -2.2994 H   0  0  0  0  0  0  0  0  0  0  0  0
  1  2  1  0  0  0
  2  3  2  0  0  0
  2  6  1  0  0  0
  3  4  1  0  0  0
  3  9  1  0  0  0
  4  5  2  0  0  0
  5 11  1  0  0  0
  6  7  2  0  0  0
  7  8  1  0  0  0
  8  9  2  0  0  0
  9 10  1  0  0  0
 10 11  2  0  0  0
  1 12  1  0  0  0
M  END
> <minimizedAffinity>
-5.36483

$$$$
4B33_1NP_A_1351


 12 13  0  0  0  0  0  0  0  0999 V2000
   21.9853    4.2861   -3.1496 O   0  0  0  0  0  0  0  0  0  0  0  0
   21.8636    5.2685   -4.0751 C   0  0  0  0  0  0  0  0  0  0  0  0
   21.2022    6.4321   -3.7333 C   0  0  0  0  0  0  0  0  0  0  0  0
   20.6857    6.5461   -2.4452 C   0  0  0  0  0  0  0  0  0  0  0  0
   20.0173    7.7074   -2.0869 C   0  0  0  0  0  0  0  0  0  0  0  0
   22.3873    5.1111   -5.3523 C   0  0  0  0  0  0  0  0  0  0  0  0
   22.2386    6.1374   -6.2752 C   0  0  0  0  0  0  0  0  0  0  0  0
   21.5743    7.3064   -5.9445 C   0  0  0  0  0  0  0  0  0  0  0  0
   21.0497    7.4544   -4.6579 C   0  0  0  0  0  0  0  0  0  0  0  0
   20.3763    8.6179   -4.2962 C   0  0  0  0  0  0  0  0  0  0  0  0
   19.8656    8.7369   -3.0059 C   0  0  0  0  0  0  0  0  0  0  0  0
   21.6278    4.4040   -2.2915 H   0  0  0  0  0  0  0  0  0  0  0  0
  1  2  1  0  0  0
  2  3  2  0  0  0
  2  6  1  0  0  0
  3  4  1  0  0  0
  3  9  1  0  0  0
  4  5  2  0  0  0
  5 11  1  0  0  0
  6  7  2  0  0  0
  7  8  1  0  0  0
  8  9  2  0  0  0
  9 10  1  0  0  0
 10 11  2  0  0  0
  1 12  1  0  0  0
M  END
> <minimizedAffinity>
-4.59188

$$$$
4B33_1NP_A_1351


 12 13  0  0  0  0  0  0  0  0999 V2000
   21.0541    4.9828   -2.4842 O   0  0  0  0  0  0  0  0  0  0  0  0
   20.8234    6.2003   -3.0329 C   0  0  0  0  0  0  0  0  0  0  0  0
   21.2844    6.4575   -4.3094 C   0  0  0  0  0  0  0  0  0  0  0  0
   21.9705    5.4491   -4.9813 C   0  0  0  0  0  0  0  0  0  0  0  0
   22.4414    5.6921   -6.2631 C   0  0  0  0  0  0  0  0  0  0  0  0
   20.1408    7.1816   -2.3249 C   0  0  0  0  0  0  0  0  0  0  0  0
   19.9278    8.4185   -2.9180 C   0  0  0  0  0  0  0  0  0  0  0  0
   20.3888    8.6883   -4.1955 C   0  0  0  0  0  0  0  0  0  0  0  0
   21.0756    7.6953   -4.8987 C   0  0  0  0  0  0  0  0  0  0  0  0
   21.5514    7.9372   -6.1845 C   0  0  0  0  0  0  0  0  0  0  0  0
   22.2312    6.9273   -6.8610 C   0  0  0  0  0  0  0  0  0  0  0  0
   21.5157    4.3291   -2.9716 H   0  0  0  0  0  0  0  0  0  0  0  0
  1  2  1  0  0  0
  2  3  2  0  0  0
  2  6  1  0  0  0
  3  4  1  0  0  0
  3  9  1  0  0  0
  4  5  2  0  0  0
  5 11  1  0  0  0
  6  7  2  0  0  0
  7  8  1  0  0  0
  8  9  2  0  0  0
  9 10  1  0  0  0
 10 11  2  0  0  0
  1 12  1  0  0  0
M  END
> <minimizedAffinity>
-4.45580

$$$$
4B33_1NP_A_1351


 12 13  0  0  0  0  0  0  0  0999 V2000
   19.4485    9.2017   -2.6398 O   0  0  0  0  0  0  0  0  0  0  0  0
   19.9985    8.0177   -3.0033 C   0  0  0  0  0  0  0  0  0  0  0  0
   20.6554    7.9288   -4.2152 C   0  0  0  0  0  0  0  0  0  0  0  0
   20.7242    9.0658   -5.0160 C   0  0  0  0  0  0  0  0  0  0  0  0
   21.3787    8.9925   -6.2367 C   0  0  0  0  0  0  0  0  0  0  0  0
   19.9005    6.9047   -2.1776 C   0  0  0  0  0  0  0  0  0  0  0  0
   20.4721    5.7075   -2.5860 C   0  0  0  0  0  0  0  0  0  0  0  0
   21.1296    5.6061   -3.8004 C   0  0  0  0  0  0  0  0  0  0  0  0
   21.2214    6.7307   -4.6245 C   0  0  0  0  0  0  0  0  0  0  0  0
   21.8757    6.6595   -5.8512 C   0  0  0  0  0  0  0  0  0  0  0  0
   21.9522    7.7977   -6.6502 C   0  0  0  0  0  0  0  0  0  0  0  0
   19.5212    9.9453   -3.2052 H   0  0  0  0  0  0  0  0  0  0  0  0
  1  2  1  0  0  0
  2  3  2  0  0  0
  2  6  1  0  0  0
  3  4  1  0  0  0
  3  9  1  0  0  0
  4  5  2  0  0  0
  5 11  1  0  0  0
  6  7  2  0  0  0
  7  8  1  0  0  0
  8  9  2  0  0  0
  9 10  1  0  0  0
 10 11  2  0  0  0
  1 12  1  0  0  0
M  END
> <minimizedAffinity>
-4.42029

$$$$
4B33_1NP_A_1351


 12 13  0  0  0  0  0  0  0  0999 V2000
   20.8815    9.7496   -6.3467 O   0  0  0  0  0  0  0  0  0  0  0  0
   21.2350    8.4920   -5.9864 C   0  0  0  0  0  0  0  0  0  0  0  0
   20.8693    8.0253   -4.7387 C   0  0  0  0  0  0  0  0  0  0  0  0
   20.1492    8.8721   -3.9000 C   0  0  0  0  0  0  0  0  0  0  0  0
   19.7760    8.4191   -2.6433 C   0  0  0  0  0  0  0  0  0  0  0  0
   21.9606    7.6819   -6.8510 C   0  0  0  0  0  0  0  0  0  0  0  0
   22.3090    6.4010   -6.4449 C   0  0  0  0  0  0  0  0  0  0  0  0
   21.9508    5.9244   -5.1951 C   0  0  0  0  0  0  0  0  0  0  0  0
   21.2226    6.7474   -4.3322 C   0  0  0  0  0  0  0  0  0  0  0  0
   20.8485    6.2962   -3.0694 C   0  0  0  0  0  0  0  0  0  0  0  0
   20.1218    7.1390   -2.2320 C   0  0  0  0  0  0  0  0  0  0  0  0
   20.3921   10.2865   -5.7548 H   0  0  0  0  0  0  0  0  0  0  0  0
  1  2  1  0  0  0
  2  3  2  0  0  0
  2  6  1  0  0  0
  3  4  1  0  0  0
  3  9  1  0  0  0
  4  5  2  0  0  0
  5 11  1  0  0  0
  6  7  2  0  0  0
  7  8  1  0  0  0
  8  9  2  0  0  0
  9 10  1  0  0  0
 10 11  2  0  0  0
  1 12  1  0  0  0
M  END
> <minimizedAffinity>
-4.31430

$$$$
4B33_1NP_A_1351


 12 13  0  0  0  0  0  0  0  0999 V2000
   20.3541    9.3995   -5.5403 O   0  0  0  0  0  0  0  0  0  0  0  0
   20.5105    8.4744   -4.5624 C   0  0  0  0  0  0  0  0  0  0  0  0
   21.1921    7.3072   -4.8479 C   0  0  0  0  0  0  0  0  0  0  0  0
   21.6916    7.1303   -6.1356 C   0  0  0  0  0  0  0  0  0  0  0  0
   22.3768    5.9631   -6.4388 C   0  0  0  0  0  0  0  0  0  0  0  0
   19.9895    8.6871   -3.2922 C   0  0  0  0  0  0  0  0  0  0  0  0
   20.1654    7.7143   -2.3176 C   0  0  0  0  0  0  0  0  0  0  0  0
   20.8436    6.5391   -2.5939 C   0  0  0  0  0  0  0  0  0  0  0  0
   21.3625    6.3339   -3.8749 C   0  0  0  0  0  0  0  0  0  0  0  0
   22.0486    5.1623   -4.1827 C   0  0  0  0  0  0  0  0  0  0  0  0
   22.5555    4.9868   -5.4680 C   0  0  0  0  0  0  0  0  0  0  0  0
   20.7100    9.2446   -6.3930 H   0  0  0  0  0  0  0  0  0  0  0  0
  1  2  1  0  0  0
  2  3  2  0  0  0
  2  6  1  0  0  0
  3  4  1  0  0  0
  3  9  1  0  0  0
  4  5  2  0  0  0
  5 11  1  0  0  0
  6  7  2  0  0  0
  7  8  1  0  0  0
  8  9  2  0  0  0
  9 10  1  0  0  0
 10 11  2  0  0  0
  1 12  1  0  0  0
M  END
> <minimizedAffinity>
-4.31047

$$$$
4B33_1NP_A_1351


 12 13  0  0  0  0  0  0  0  0999 V2000
   22.3415    5.2659   -6.0829 O   0  0  0  0  0  0  0  0  0  0  0  0
   21.9231    6.5463   -5.9347 C   0  0  0  0  0  0  0  0  0  0  0  0
   21.2885    6.9119   -4.7634 C   0  0  0  0  0  0  0  0  0  0  0  0
   21.1047    5.9435   -3.7799 C   0  0  0  0  0  0  0  0  0  0  0  0
   20.4676    6.2942   -2.5988 C   0  0  0  0  0  0  0  0  0  0  0  0
   22.1197    7.4801   -6.9444 C   0  0  0  0  0  0  0  0  0  0  0  0
   21.6728    8.7811   -6.7585 C   0  0  0  0  0  0  0  0  0  0  0  0
   21.0323    9.1576   -5.5901 C   0  0  0  0  0  0  0  0  0  0  0  0
   20.8378    8.2107   -4.5811 C   0  0  0  0  0  0  0  0  0  0  0  0
   20.1967    8.5592   -3.3955 C   0  0  0  0  0  0  0  0  0  0  0  0
   20.0186    7.5939   -2.4076 C   0  0  0  0  0  0  0  0  0  0  0  0
   22.2032    4.6452   -5.3947 H   0  0  0  0  0  0  0  0  0  0  0  0
  1  2  1  0  0  0
  2  3  2  0  0  0
  2  6  1  0  0  0
  3  4  1  0  0  0
  3  9  1  0  0  0
  4  5  2  0  0  0
  5 11  1  0  0  0
  6  7  2  0  0  0
  7  8  1  0  0  0
  8  9  2  0  0  0
  9 10  1  0  0  0
 10 11  2  0  0  0
  1 12  1  0  0  0
M  END
> <minimizedAffinity>
-4.10858

$$$$
