1D4Y_TPV_A_501


 44 47  0  0  0  0  0  0  0  0999 V2000
   14.3359   21.6243    6.0173 C   0  0  0  0  0  0  0  0  0  0  0  0
   11.0003   23.3380    5.8730 O   0  0  0  0  0  0  0  0  0  0  0  0
   11.8678   22.3456    5.8936 C   0  0  0  0  0  0  0  0  0  0  0  0
   13.2846   22.6087    5.5233 C   0  0  0  0  0  0  0  0  0  0  0  0
   13.5707   23.9066    5.0565 C   0  0  0  0  0  0  0  0  0  0  0  0
   12.3941   24.6932    4.4617 C   0  0  0  0  0  0  0  0  0  0  0  0
   11.2724   24.5367    5.0313 C   0  0  0  0  0  0  0  0  0  0  0  0
   11.5298   21.3037    6.4113 O   0  0  0  0  0  0  0  0  0  0  0  0
   14.8020   24.2680    4.6816 O   0  0  0  0  0  0  0  0  0  0  0  0
   15.5476   23.8134    5.0215 H   0  0  0  0  0  0  0  0  0  0  0  0
   11.0105   25.8283    5.8670 C   0  0  0  0  0  0  0  0  0  0  0  0
   10.6845   25.6125    7.1161 C   0  0  0  0  0  0  0  0  0  0  0  0
   11.5777   25.9570    8.2822 C   0  0  0  0  0  0  0  0  0  0  0  0
   10.1163   23.9521    4.2813 C   0  0  0  0  0  0  0  0  0  0  0  0
   10.0725   24.5055    2.9287 C   0  0  0  0  0  0  0  0  0  0  0  0
    8.9456   25.1135    2.2637 C   0  0  0  0  0  0  0  0  0  0  0  0
    8.9485   26.3708    1.6665 C   0  0  0  0  0  0  0  0  0  0  0  0
    7.7923   26.8479    1.0165 C   0  0  0  0  0  0  0  0  0  0  0  0
    6.6239   26.0506    0.9734 C   0  0  0  0  0  0  0  0  0  0  0  0
    6.6415   24.7442    1.5275 C   0  0  0  0  0  0  0  0  0  0  0  0
    7.7073   24.4087    2.3822 C   0  0  0  0  0  0  0  0  0  0  0  0
   14.7129   20.7440    4.8058 C   0  0  0  0  0  0  0  0  0  0  0  0
   14.2728   21.0251    3.5331 C   0  0  0  0  0  0  0  0  0  0  0  0
   14.7520   20.2722    2.4250 C   0  0  0  0  0  0  0  0  0  0  0  0
   15.4771   19.0889    2.6761 C   0  0  0  0  0  0  0  0  0  0  0  0
   15.9743   18.8459    3.9529 C   0  0  0  0  0  0  0  0  0  0  0  0
   15.6530   19.7148    5.0025 C   0  0  0  0  0  0  0  0  0  0  0  0
   16.8760   17.3024    4.1219 N   0  0  0  0  0  0  0  0  0  0  0  0
   16.4819   16.4007    4.1500 H   0  0  0  0  0  0  0  0  0  0  0  0
   18.4424   17.6549    4.2191 S   0  0  0  0  0  0  0  0  0  0  0  0
   18.7475   18.5546    3.0506 O   0  0  0  0  0  0  0  0  0  0  0  0
   19.1600   16.4234    4.2845 O   0  0  0  0  0  0  0  0  0  0  0  0
   18.6945   18.5983    5.6621 C   0  0  0  0  0  0  0  0  0  0  0  0
   19.2668   19.8260    5.5098 N   0  0  0  0  0  0  0  0  0  0  0  0
   19.5083   20.5371    6.6197 C   0  0  0  0  0  0  0  0  0  0  0  0
   19.1053   20.1299    7.8978 C   0  0  0  0  0  0  0  0  0  0  0  0
   18.5950   18.8528    8.0629 C   0  0  0  0  0  0  0  0  0  0  0  0
   18.3794   18.0621    6.9076 C   0  0  0  0  0  0  0  0  0  0  0  0
   19.3170   21.0792    9.0735 C   0  0  0  0  0  0  0  0  0  0  0  0
   20.6096   21.6319    8.8554 F   0  0  0  0  0  0  0  0  0  0  0  0
   19.2286   20.3107   10.2276 F   0  0  0  0  0  0  0  0  0  0  0  0
   18.2944   22.0539    8.9346 F   0  0  0  0  0  0  0  0  0  0  0  0
   15.4878   21.6853    7.0829 C   0  0  0  0  0  0  0  0  0  0  0  0
   15.2068   21.3134    8.5199 C   0  0  0  0  0  0  0  0  0  0  0  0
  2  3  1  0  0  0
  2  7  1  0  0  0
  3  4  1  0  0  0
  3  8  2  0  0  0
  4  5  2  0  0  0
  4  1  1  0  0  0
  5  6  1  0  0  0
  5  9  1  0  0  0
  6  7  1  0  0  0
  7 11  1  0  0  0
  7 14  1  0  0  0
 11 12  1  0  0  0
 12 13  1  0  0  0
 14 15  1  0  0  0
 15 16  1  0  0  0
 16 17  2  0  0  0
 16 21  1  0  0  0
 17 18  1  0  0  0
 18 19  2  0  0  0
 19 20  1  0  0  0
 20 21  2  0  0  0
  1 43  1  0  0  0
  1 22  1  0  0  0
 43 44  1  0  0  0
 22 23  2  0  0  0
 22 27  1  0  0  0
 23 24  1  0  0  0
 24 25  2  0  0  0
 25 26  1  0  0  0
 26 28  1  0  0  0
 26 27  2  0  0  0
 28 30  1  0  0  0
 30 31  2  0  0  0
 30 32  2  0  0  0
 30 33  1  0  0  0
 33 34  2  0  0  0
 33 38  1  0  0  0
 34 35  1  0  0  0
 35 36  2  0  0  0
 36 37  1  0  0  0
 36 39  1  0  0  0
 37 38  2  0  0  0
 39 40  1  0  0  0
 39 41  1  0  0  0
 39 42  1  0  0  0
  9 10  1  0  0  0
 28 29  1  0  0  0
M  END
> <minimizedAffinity>
-12.16769

$$$$
1D4Y_TPV_A_501


 44 47  0  0  0  0  0  0  0  0999 V2000
   11.1036   23.7951    5.2985 C   0  0  0  0  0  0  0  0  0  0  0  0
   13.6721   21.1262    5.9021 O   0  0  0  0  0  0  0  0  0  0  0  0
   12.5527   21.8059    6.0537 C   0  0  0  0  0  0  0  0  0  0  0  0
   12.4833   23.2119    5.5723 C   0  0  0  0  0  0  0  0  0  0  0  0
   13.6863   23.7581    5.0837 C   0  0  0  0  0  0  0  0  0  0  0  0
   14.9844   23.1142    5.5912 C   0  0  0  0  0  0  0  0  0  0  0  0
   14.9612   21.8560    5.7444 C   0  0  0  0  0  0  0  0  0  0  0  0
   11.5587   21.1996    6.3889 O   0  0  0  0  0  0  0  0  0  0  0  0
   13.7607   25.0141    4.6317 O   0  0  0  0  0  0  0  0  0  0  0  0
   12.9913   25.4437    4.3131 H   0  0  0  0  0  0  0  0  0  0  0  0
   15.7615   21.2450    4.5522 C   0  0  0  0  0  0  0  0  0  0  0  0
   15.0353   20.5704    3.6972 C   0  0  0  0  0  0  0  0  0  0  0  0
   14.3823   21.1903    2.4866 C   0  0  0  0  0  0  0  0  0  0  0  0
   15.1701   21.2533    7.0986 C   0  0  0  0  0  0  0  0  0  0  0  0
   16.3710   21.8181    7.7123 C   0  0  0  0  0  0  0  0  0  0  0  0
   17.3131   21.1506    8.5775 C   0  0  0  0  0  0  0  0  0  0  0  0
   18.6816   21.4013    8.6195 C   0  0  0  0  0  0  0  0  0  0  0  0
   19.5006   20.7062    9.5322 C   0  0  0  0  0  0  0  0  0  0  0  0
   18.9332   19.7480   10.4055 C   0  0  0  0  0  0  0  0  0  0  0  0
   17.5296   19.5385   10.4055 C   0  0  0  0  0  0  0  0  0  0  0  0
   16.7906   20.0476    9.3221 C   0  0  0  0  0  0  0  0  0  0  0  0
   10.7660   24.7009    6.5028 C   0  0  0  0  0  0  0  0  0  0  0  0
   11.6725   24.9489    7.5075 C   0  0  0  0  0  0  0  0  0  0  0  0
   11.3734   25.8955    8.5267 C   0  0  0  0  0  0  0  0  0  0  0  0
   10.0529   26.3794    8.6319 C   0  0  0  0  0  0  0  0  0  0  0  0
    9.1626   26.1799    7.5812 C   0  0  0  0  0  0  0  0  0  0  0  0
    9.5454   25.4019    6.4820 C   0  0  0  0  0  0  0  0  0  0  0  0
    7.5199   26.8507    7.8566 N   0  0  0  0  0  0  0  0  0  0  0  0
    6.8198   26.4550    8.4245 H   0  0  0  0  0  0  0  0  0  0  0  0
    7.3959   28.2131    7.0107 S   0  0  0  0  0  0  0  0  0  0  0  0
    8.6161   29.0308    7.3430 O   0  0  0  0  0  0  0  0  0  0  0  0
    6.1302   28.7976    7.3147 O   0  0  0  0  0  0  0  0  0  0  0  0
    7.5037   27.8097    5.3191 C   0  0  0  0  0  0  0  0  0  0  0  0
    8.5502   28.3339    4.6208 N   0  0  0  0  0  0  0  0  0  0  0  0
    8.6128   28.0676    3.3088 C   0  0  0  0  0  0  0  0  0  0  0  0
    7.7284   27.1994    2.6564 C   0  0  0  0  0  0  0  0  0  0  0  0
    6.6229   26.7289    3.3457 C   0  0  0  0  0  0  0  0  0  0  0  0
    6.5079   27.0412    4.7226 C   0  0  0  0  0  0  0  0  0  0  0  0
    7.9723   26.8676    1.1872 C   0  0  0  0  0  0  0  0  0  0  0  0
    8.8834   25.7753    1.2163 F   0  0  0  0  0  0  0  0  0  0  0  0
    8.4965   28.0130    0.6013 F   0  0  0  0  0  0  0  0  0  0  0  0
    6.6992   26.4817    0.6918 F   0  0  0  0  0  0  0  0  0  0  0  0
   10.3254   24.2221    4.0032 C   0  0  0  0  0  0  0  0  0  0  0  0
    9.8321   23.1697    3.0379 C   0  0  0  0  0  0  0  0  0  0  0  0
  2  3  1  0  0  0
  2  7  1  0  0  0
  3  4  1  0  0  0
  3  8  2  0  0  0
  4  5  2  0  0  0
  4  1  1  0  0  0
  5  6  1  0  0  0
  5  9  1  0  0  0
  6  7  1  0  0  0
  7 11  1  0  0  0
  7 14  1  0  0  0
 11 12  1  0  0  0
 12 13  1  0  0  0
 14 15  1  0  0  0
 15 16  1  0  0  0
 16 17  2  0  0  0
 16 21  1  0  0  0
 17 18  1  0  0  0
 18 19  2  0  0  0
 19 20  1  0  0  0
 20 21  2  0  0  0
  1 43  1  0  0  0
  1 22  1  0  0  0
 43 44  1  0  0  0
 22 23  2  0  0  0
 22 27  1  0  0  0
 23 24  1  0  0  0
 24 25  2  0  0  0
 25 26  1  0  0  0
 26 28  1  0  0  0
 26 27  2  0  0  0
 28 30  1  0  0  0
 30 31  2  0  0  0
 30 32  2  0  0  0
 30 33  1  0  0  0
 33 34  2  0  0  0
 33 38  1  0  0  0
 34 35  1  0  0  0
 35 36  2  0  0  0
 36 37  1  0  0  0
 36 39  1  0  0  0
 37 38  2  0  0  0
 39 40  1  0  0  0
 39 41  1  0  0  0
 39 42  1  0  0  0
  9 10  1  0  0  0
 28 29  1  0  0  0
M  END
> <minimizedAffinity>
-11.80371

$$$$
1D4Y_TPV_A_501


 44 47  0  0  0  0  0  0  0  0999 V2000
   10.7714   24.0501    5.3033 C   0  0  0  0  0  0  0  0  0  0  0  0
   14.4029   24.0509    6.2501 O   0  0  0  0  0  0  0  0  0  0  0  0
   13.3159   24.3422    5.5635 C   0  0  0  0  0  0  0  0  0  0  0  0
   12.1239   23.4592    5.6775 C   0  0  0  0  0  0  0  0  0  0  0  0
   12.2935   22.2872    6.4404 C   0  0  0  0  0  0  0  0  0  0  0  0
   13.7314   21.7690    6.5857 C   0  0  0  0  0  0  0  0  0  0  0  0
   14.6339   22.6513    6.7049 C   0  0  0  0  0  0  0  0  0  0  0  0
   13.2534   25.4272    5.0281 O   0  0  0  0  0  0  0  0  0  0  0  0
   11.3035   21.4051    6.6115 O   0  0  0  0  0  0  0  0  0  0  0  0
   10.4115   21.6807    6.5314 H   0  0  0  0  0  0  0  0  0  0  0  0
   15.0593   22.6566    8.2063 C   0  0  0  0  0  0  0  0  0  0  0  0
   15.1790   21.4688    8.7429 C   0  0  0  0  0  0  0  0  0  0  0  0
   16.4949   20.7425    8.8748 C   0  0  0  0  0  0  0  0  0  0  0  0
   15.7171   22.7710    5.6788 C   0  0  0  0  0  0  0  0  0  0  0  0
   16.0248   21.4524    5.1271 C   0  0  0  0  0  0  0  0  0  0  0  0
   15.5176   20.8689    3.9089 C   0  0  0  0  0  0  0  0  0  0  0  0
   15.8558   19.6103    3.4201 C   0  0  0  0  0  0  0  0  0  0  0  0
   15.2695   19.1322    2.2308 C   0  0  0  0  0  0  0  0  0  0  0  0
   14.3382   19.9334    1.5283 C   0  0  0  0  0  0  0  0  0  0  0  0
   13.9469   21.1895    2.0603 C   0  0  0  0  0  0  0  0  0  0  0  0
   14.7322   21.7389    3.0901 C   0  0  0  0  0  0  0  0  0  0  0  0
   10.3192   24.9027    6.5088 C   0  0  0  0  0  0  0  0  0  0  0  0
   11.0861   25.0281    7.6440 C   0  0  0  0  0  0  0  0  0  0  0  0
   10.7007   25.9298    8.6749 C   0  0  0  0  0  0  0  0  0  0  0  0
    9.4093   26.4948    8.6293 C   0  0  0  0  0  0  0  0  0  0  0  0
    8.6677   26.4193    7.4542 C   0  0  0  0  0  0  0  0  0  0  0  0
    9.1571   25.6847    6.3676 C   0  0  0  0  0  0  0  0  0  0  0  0
    7.0447   27.1820    7.5452 N   0  0  0  0  0  0  0  0  0  0  0  0
    6.2912   26.8773    8.1007 H   0  0  0  0  0  0  0  0  0  0  0  0
    7.0408   28.4516    6.5576 S   0  0  0  0  0  0  0  0  0  0  0  0
    8.2783   29.2456    6.8834 O   0  0  0  0  0  0  0  0  0  0  0  0
    5.7901   29.1197    6.7165 O   0  0  0  0  0  0  0  0  0  0  0  0
    7.2303   27.8674    4.9271 C   0  0  0  0  0  0  0  0  0  0  0  0
    8.2645   28.3778    4.2005 N   0  0  0  0  0  0  0  0  0  0  0  0
    8.3876   27.9696    2.9300 C   0  0  0  0  0  0  0  0  0  0  0  0
    7.5820   26.9762    2.3590 C   0  0  0  0  0  0  0  0  0  0  0  0
    6.4860   26.5142    3.0688 C   0  0  0  0  0  0  0  0  0  0  0  0
    6.3056   26.9719    4.3972 C   0  0  0  0  0  0  0  0  0  0  0  0
    7.8954   26.4973    0.9446 C   0  0  0  0  0  0  0  0  0  0  0  0
    6.8071   25.6448    0.6090 F   0  0  0  0  0  0  0  0  0  0  0  0
    9.1176   25.8397    1.0077 F   0  0  0  0  0  0  0  0  0  0  0  0
    7.9023   27.6803    0.1600 F   0  0  0  0  0  0  0  0  0  0  0  0
   10.1122   24.5301    3.9613 C   0  0  0  0  0  0  0  0  0  0  0  0
    9.1683   23.6164    3.2152 C   0  0  0  0  0  0  0  0  0  0  0  0
  2  3  1  0  0  0
  2  7  1  0  0  0
  3  4  1  0  0  0
  3  8  2  0  0  0
  4  5  2  0  0  0
  4  1  1  0  0  0
  5  6  1  0  0  0
  5  9  1  0  0  0
  6  7  1  0  0  0
  7 11  1  0  0  0
  7 14  1  0  0  0
 11 12  1  0  0  0
 12 13  1  0  0  0
 14 15  1  0  0  0
 15 16  1  0  0  0
 16 17  2  0  0  0
 16 21  1  0  0  0
 17 18  1  0  0  0
 18 19  2  0  0  0
 19 20  1  0  0  0
 20 21  2  0  0  0
  1 43  1  0  0  0
  1 22  1  0  0  0
 43 44  1  0  0  0
 22 23  2  0  0  0
 22 27  1  0  0  0
 23 24  1  0  0  0
 24 25  2  0  0  0
 25 26  1  0  0  0
 26 28  1  0  0  0
 26 27  2  0  0  0
 28 30  1  0  0  0
 30 31  2  0  0  0
 30 32  2  0  0  0
 30 33  1  0  0  0
 33 34  2  0  0  0
 33 38  1  0  0  0
 34 35  1  0  0  0
 35 36  2  0  0  0
 36 37  1  0  0  0
 36 39  1  0  0  0
 37 38  2  0  0  0
 39 40  1  0  0  0
 39 41  1  0  0  0
 39 42  1  0  0  0
  9 10  1  0  0  0
 28 29  1  0  0  0
M  END
> <minimizedAffinity>
-11.75947

$$$$
1D4Y_TPV_A_501


 44 47  0  0  0  0  0  0  0  0999 V2000
   14.7348   21.0668    6.1515 C   0  0  0  0  0  0  0  0  0  0  0  0
   13.5520   24.0266    4.1704 O   0  0  0  0  0  0  0  0  0  0  0  0
   14.3390   23.3059    4.9444 C   0  0  0  0  0  0  0  0  0  0  0  0
   13.7698   22.1490    5.6867 C   0  0  0  0  0  0  0  0  0  0  0  0
   12.3745   21.9799    5.5919 C   0  0  0  0  0  0  0  0  0  0  0  0
   11.5566   23.2324    5.2466 C   0  0  0  0  0  0  0  0  0  0  0  0
   12.0825   24.0313    4.4145 C   0  0  0  0  0  0  0  0  0  0  0  0
   15.5350   23.4818    4.8629 O   0  0  0  0  0  0  0  0  0  0  0  0
   11.7382   20.9858    6.2199 O   0  0  0  0  0  0  0  0  0  0  0  0
   12.2012   20.2039    6.4486 H   0  0  0  0  0  0  0  0  0  0  0  0
   11.3307   23.8280    3.0621 C   0  0  0  0  0  0  0  0  0  0  0  0
   10.1140   23.3601    3.1801 C   0  0  0  0  0  0  0  0  0  0  0  0
    8.8909   24.0799    2.6679 C   0  0  0  0  0  0  0  0  0  0  0  0
   12.4150   25.4342    4.8167 C   0  0  0  0  0  0  0  0  0  0  0  0
   11.2507   26.0594    5.4423 C   0  0  0  0  0  0  0  0  0  0  0  0
   10.8972   26.0571    6.8411 C   0  0  0  0  0  0  0  0  0  0  0  0
   11.8002   26.1358    7.8975 C   0  0  0  0  0  0  0  0  0  0  0  0
   11.3332   26.1573    9.2273 C   0  0  0  0  0  0  0  0  0  0  0  0
    9.9443   26.0943    9.4914 C   0  0  0  0  0  0  0  0  0  0  0  0
    9.0220   26.0775    8.4130 C   0  0  0  0  0  0  0  0  0  0  0  0
    9.5209   25.7970    7.1278 C   0  0  0  0  0  0  0  0  0  0  0  0
   15.1400   20.2727    4.8906 C   0  0  0  0  0  0  0  0  0  0  0  0
   14.2550   20.0254    3.8669 C   0  0  0  0  0  0  0  0  0  0  0  0
   14.7020   19.4108    2.6640 C   0  0  0  0  0  0  0  0  0  0  0  0
   15.9905   18.8378    2.6374 C   0  0  0  0  0  0  0  0  0  0  0  0
   16.9005   19.1467    3.6439 C   0  0  0  0  0  0  0  0  0  0  0  0
   16.4955   19.9265    4.7337 C   0  0  0  0  0  0  0  0  0  0  0  0
   18.4983   18.3446    3.4778 N   0  0  0  0  0  0  0  0  0  0  0  0
   19.1244   18.4496    2.7254 H   0  0  0  0  0  0  0  0  0  0  0  0
   18.7248   17.4239    4.7772 S   0  0  0  0  0  0  0  0  0  0  0  0
   20.0406   16.7201    4.5736 O   0  0  0  0  0  0  0  0  0  0  0  0
   17.5719   16.5968    4.9278 O   0  0  0  0  0  0  0  0  0  0  0  0
   18.9211   18.4730    6.1543 C   0  0  0  0  0  0  0  0  0  0  0  0
   19.5209   19.6775    5.9374 N   0  0  0  0  0  0  0  0  0  0  0  0
   19.7191   20.4694    7.0002 C   0  0  0  0  0  0  0  0  0  0  0  0
   19.2463   20.1680    8.2837 C   0  0  0  0  0  0  0  0  0  0  0  0
   18.7068   18.9144    8.5203 C   0  0  0  0  0  0  0  0  0  0  0  0
   18.5354   18.0392    7.4197 C   0  0  0  0  0  0  0  0  0  0  0  0
   19.4155   21.2027    9.3922 C   0  0  0  0  0  0  0  0  0  0  0  0
   20.7101   21.7502    9.1725 F   0  0  0  0  0  0  0  0  0  0  0  0
   19.2979   20.5200   10.5965 F   0  0  0  0  0  0  0  0  0  0  0  0
   18.3906   22.1550    9.1518 F   0  0  0  0  0  0  0  0  0  0  0  0
   15.8192   20.9699    7.2831 C   0  0  0  0  0  0  0  0  0  0  0  0
   15.4123   21.1057    8.7318 C   0  0  0  0  0  0  0  0  0  0  0  0
  2  3  1  0  0  0
  2  7  1  0  0  0
  3  4  1  0  0  0
  3  8  2  0  0  0
  4  5  2  0  0  0
  4  1  1  0  0  0
  5  6  1  0  0  0
  5  9  1  0  0  0
  6  7  1  0  0  0
  7 11  1  0  0  0
  7 14  1  0  0  0
 11 12  1  0  0  0
 12 13  1  0  0  0
 14 15  1  0  0  0
 15 16  1  0  0  0
 16 17  2  0  0  0
 16 21  1  0  0  0
 17 18  1  0  0  0
 18 19  2  0  0  0
 19 20  1  0  0  0
 20 21  2  0  0  0
  1 43  1  0  0  0
  1 22  1  0  0  0
 43 44  1  0  0  0
 22 23  2  0  0  0
 22 27  1  0  0  0
 23 24  1  0  0  0
 24 25  2  0  0  0
 25 26  1  0  0  0
 26 28  1  0  0  0
 26 27  2  0  0  0
 28 30  1  0  0  0
 30 31  2  0  0  0
 30 32  2  0  0  0
 30 33  1  0  0  0
 33 34  2  0  0  0
 33 38  1  0  0  0
 34 35  1  0  0  0
 35 36  2  0  0  0
 36 37  1  0  0  0
 36 39  1  0  0  0
 37 38  2  0  0  0
 39 40  1  0  0  0
 39 41  1  0  0  0
 39 42  1  0  0  0
  9 10  1  0  0  0
 28 29  1  0  0  0
M  END
> <minimizedAffinity>
-11.37163

$$$$
1D4Y_TPV_A_501


 44 47  0  0  0  0  0  0  0  0999 V2000
   10.6587   24.3668    5.5467 C   0  0  0  0  0  0  0  0  0  0  0  0
   14.3357   24.1675    6.2705 O   0  0  0  0  0  0  0  0  0  0  0  0
   13.2243   24.5407    5.6677 C   0  0  0  0  0  0  0  0  0  0  0  0
   12.0036   23.7015    5.8058 C   0  0  0  0  0  0  0  0  0  0  0  0
   12.1660   22.4824    6.4927 C   0  0  0  0  0  0  0  0  0  0  0  0
   13.5858   21.8992    6.5225 C   0  0  0  0  0  0  0  0  0  0  0  0
   14.5314   22.7362    6.6342 C   0  0  0  0  0  0  0  0  0  0  0  0
   13.1782   25.6559    5.1964 O   0  0  0  0  0  0  0  0  0  0  0  0
   11.1500   21.6328    6.6756 O   0  0  0  0  0  0  0  0  0  0  0  0
   10.2678   21.9482    6.6646 H   0  0  0  0  0  0  0  0  0  0  0  0
   15.0434   22.6395    8.1052 C   0  0  0  0  0  0  0  0  0  0  0  0
   14.9642   21.4440    8.6323 C   0  0  0  0  0  0  0  0  0  0  0  0
   16.1422   20.7187    9.2342 C   0  0  0  0  0  0  0  0  0  0  0  0
   15.5573   22.8698    5.5523 C   0  0  0  0  0  0  0  0  0  0  0  0
   15.9208   21.5465    5.0481 C   0  0  0  0  0  0  0  0  0  0  0  0
   15.4228   20.8896    3.8638 C   0  0  0  0  0  0  0  0  0  0  0  0
   15.7347   19.5899    3.4755 C   0  0  0  0  0  0  0  0  0  0  0  0
   15.1601   19.0424    2.3106 C   0  0  0  0  0  0  0  0  0  0  0  0
   14.2677   19.8154    1.5304 C   0  0  0  0  0  0  0  0  0  0  0  0
   13.9017   21.1173    1.9607 C   0  0  0  0  0  0  0  0  0  0  0  0
   14.6806   21.7187    2.9661 C   0  0  0  0  0  0  0  0  0  0  0  0
   10.2132   23.9164    4.1384 C   0  0  0  0  0  0  0  0  0  0  0  0
   10.9773   23.0737    3.3648 C   0  0  0  0  0  0  0  0  0  0  0  0
   10.4710   22.5732    2.1330 C   0  0  0  0  0  0  0  0  0  0  0  0
    9.2960   23.1463    1.6037 C   0  0  0  0  0  0  0  0  0  0  0  0
    8.4955   23.9446    2.4150 C   0  0  0  0  0  0  0  0  0  0  0  0
    8.9195   24.2687    3.7092 C   0  0  0  0  0  0  0  0  0  0  0  0
    7.0344   24.6037    1.6056 N   0  0  0  0  0  0  0  0  0  0  0  0
    6.2709   24.0799    1.2711 H   0  0  0  0  0  0  0  0  0  0  0  0
    7.1949   26.2021    1.5243 S   0  0  0  0  0  0  0  0  0  0  0  0
    5.9767   26.7140    0.8019 O   0  0  0  0  0  0  0  0  0  0  0  0
    8.4596   26.4801    0.9250 O   0  0  0  0  0  0  0  0  0  0  0  0
    7.1233   26.8348    3.1462 C   0  0  0  0  0  0  0  0  0  0  0  0
    5.9578   26.6593    3.8307 N   0  0  0  0  0  0  0  0  0  0  0  0
    5.8784   27.1856    5.0606 C   0  0  0  0  0  0  0  0  0  0  0  0
    6.9585   27.8011    5.7058 C   0  0  0  0  0  0  0  0  0  0  0  0
    8.1155   28.0478    4.9853 C   0  0  0  0  0  0  0  0  0  0  0  0
    8.2025   27.5458    3.6636 C   0  0  0  0  0  0  0  0  0  0  0  0
    6.7923   28.2484    7.1551 C   0  0  0  0  0  0  0  0  0  0  0  0
    7.8593   29.1648    7.3686 F   0  0  0  0  0  0  0  0  0  0  0  0
    6.8777   27.1039    7.9381 F   0  0  0  0  0  0  0  0  0  0  0  0
    5.5275   28.8920    7.1877 F   0  0  0  0  0  0  0  0  0  0  0  0
    9.4395   24.7746    6.4484 C   0  0  0  0  0  0  0  0  0  0  0  0
    9.6743   25.5061    7.7493 C   0  0  0  0  0  0  0  0  0  0  0  0
  2  3  1  0  0  0
  2  7  1  0  0  0
  3  4  1  0  0  0
  3  8  2  0  0  0
  4  5  2  0  0  0
  4  1  1  0  0  0
  5  6  1  0  0  0
  5  9  1  0  0  0
  6  7  1  0  0  0
  7 11  1  0  0  0
  7 14  1  0  0  0
 11 12  1  0  0  0
 12 13  1  0  0  0
 14 15  1  0  0  0
 15 16  1  0  0  0
 16 17  2  0  0  0
 16 21  1  0  0  0
 17 18  1  0  0  0
 18 19  2  0  0  0
 19 20  1  0  0  0
 20 21  2  0  0  0
  1 43  1  0  0  0
  1 22  1  0  0  0
 43 44  1  0  0  0
 22 23  2  0  0  0
 22 27  1  0  0  0
 23 24  1  0  0  0
 24 25  2  0  0  0
 25 26  1  0  0  0
 26 28  1  0  0  0
 26 27  2  0  0  0
 28 30  1  0  0  0
 30 31  2  0  0  0
 30 32  2  0  0  0
 30 33  1  0  0  0
 33 34  2  0  0  0
 33 38  1  0  0  0
 34 35  1  0  0  0
 35 36  2  0  0  0
 36 37  1  0  0  0
 36 39  1  0  0  0
 37 38  2  0  0  0
 39 40  1  0  0  0
 39 41  1  0  0  0
 39 42  1  0  0  0
  9 10  1  0  0  0
 28 29  1  0  0  0
M  END
> <minimizedAffinity>
-10.95643

$$$$
1D4Y_TPV_A_501


 44 47  0  0  0  0  0  0  0  0999 V2000
   13.7616   22.0652    3.4327 C   0  0  0  0  0  0  0  0  0  0  0  0
   13.6968   21.8541    7.1790 O   0  0  0  0  0  0  0  0  0  0  0  0
   13.2337   21.8726    5.9449 C   0  0  0  0  0  0  0  0  0  0  0  0
   14.0577   22.4826    4.8667 C   0  0  0  0  0  0  0  0  0  0  0  0
   15.2484   23.1119    5.2798 C   0  0  0  0  0  0  0  0  0  0  0  0
   15.2981   23.5897    6.7379 C   0  0  0  0  0  0  0  0  0  0  0  0
   14.7348   22.8400    7.5911 C   0  0  0  0  0  0  0  0  0  0  0  0
   12.2506   21.2101    5.6950 O   0  0  0  0  0  0  0  0  0  0  0  0
   16.0720   23.7070    4.4109 O   0  0  0  0  0  0  0  0  0  0  0  0
   16.0730   23.4448    3.5114 H   0  0  0  0  0  0  0  0  0  0  0  0
   15.8746   22.1030    8.3611 C   0  0  0  0  0  0  0  0  0  0  0  0
   15.7147   20.8078    8.4624 C   0  0  0  0  0  0  0  0  0  0  0  0
   15.7014   20.0701    9.7784 C   0  0  0  0  0  0  0  0  0  0  0  0
   13.5722   23.3407    8.3899 C   0  0  0  0  0  0  0  0  0  0  0  0
   13.1330   24.6341    7.8684 C   0  0  0  0  0  0  0  0  0  0  0  0
   11.8128   25.2111    7.9462 C   0  0  0  0  0  0  0  0  0  0  0  0
   11.4016   26.1506    8.8873 C   0  0  0  0  0  0  0  0  0  0  0  0
   10.0910   26.6679    8.8445 C   0  0  0  0  0  0  0  0  0  0  0  0
    9.1886   26.2294    7.8465 C   0  0  0  0  0  0  0  0  0  0  0  0
    9.6278   25.3191    6.8502 C   0  0  0  0  0  0  0  0  0  0  0  0
   10.8373   24.6362    7.0732 C   0  0  0  0  0  0  0  0  0  0  0  0
   14.6371   20.8250    3.1496 C   0  0  0  0  0  0  0  0  0  0  0  0
   14.7561   20.2867    1.8891 C   0  0  0  0  0  0  0  0  0  0  0  0
   15.6773   19.2307    1.6434 C   0  0  0  0  0  0  0  0  0  0  0  0
   16.2721   18.5837    2.7465 C   0  0  0  0  0  0  0  0  0  0  0  0
   16.2020   19.1703    4.0065 C   0  0  0  0  0  0  0  0  0  0  0  0
   15.4448   20.3330    4.1924 C   0  0  0  0  0  0  0  0  0  0  0  0
   17.0037   18.2336    5.3119 N   0  0  0  0  0  0  0  0  0  0  0  0
   16.5917   17.5195    5.8500 H   0  0  0  0  0  0  0  0  0  0  0  0
   18.5146   18.7688    5.4458 S   0  0  0  0  0  0  0  0  0  0  0  0
   18.5622   20.0886    4.7219 O   0  0  0  0  0  0  0  0  0  0  0  0
   19.3815   17.7425    4.9652 O   0  0  0  0  0  0  0  0  0  0  0  0
   18.8213   19.1041    7.1279 C   0  0  0  0  0  0  0  0  0  0  0  0
   18.6390   18.0801    8.0087 N   0  0  0  0  0  0  0  0  0  0  0  0
   18.8260   18.3433    9.3094 C   0  0  0  0  0  0  0  0  0  0  0  0
   19.2993   19.5724    9.7859 C   0  0  0  0  0  0  0  0  0  0  0  0
   19.4105   20.6339    8.9029 C   0  0  0  0  0  0  0  0  0  0  0  0
   19.1668   20.3916    7.5287 C   0  0  0  0  0  0  0  0  0  0  0  0
   19.5991   19.7185   11.2748 C   0  0  0  0  0  0  0  0  0  0  0  0
   20.4187   18.5975   11.5837 F   0  0  0  0  0  0  0  0  0  0  0  0
   18.3746   19.7094   11.9310 F   0  0  0  0  0  0  0  0  0  0  0  0
   20.3138   20.9407   11.3773 F   0  0  0  0  0  0  0  0  0  0  0  0
   12.4905   22.1122    2.5117 C   0  0  0  0  0  0  0  0  0  0  0  0
   11.3332   23.0155    2.8685 C   0  0  0  0  0  0  0  0  0  0  0  0
  2  3  1  0  0  0
  2  7  1  0  0  0
  3  4  1  0  0  0
  3  8  2  0  0  0
  4  5  2  0  0  0
  4  1  1  0  0  0
  5  6  1  0  0  0
  5  9  1  0  0  0
  6  7  1  0  0  0
  7 11  1  0  0  0
  7 14  1  0  0  0
 11 12  1  0  0  0
 12 13  1  0  0  0
 14 15  1  0  0  0
 15 16  1  0  0  0
 16 17  2  0  0  0
 16 21  1  0  0  0
 17 18  1  0  0  0
 18 19  2  0  0  0
 19 20  1  0  0  0
 20 21  2  0  0  0
  1 43  1  0  0  0
  1 22  1  0  0  0
 43 44  1  0  0  0
 22 23  2  0  0  0
 22 27  1  0  0  0
 23 24  1  0  0  0
 24 25  2  0  0  0
 25 26  1  0  0  0
 26 28  1  0  0  0
 26 27  2  0  0  0
 28 30  1  0  0  0
 30 31  2  0  0  0
 30 32  2  0  0  0
 30 33  1  0  0  0
 33 34  2  0  0  0
 33 38  1  0  0  0
 34 35  1  0  0  0
 35 36  2  0  0  0
 36 37  1  0  0  0
 36 39  1  0  0  0
 37 38  2  0  0  0
 39 40  1  0  0  0
 39 41  1  0  0  0
 39 42  1  0  0  0
  9 10  1  0  0  0
 28 29  1  0  0  0
M  END
> <minimizedAffinity>
-10.86153

$$$$
1D4Y_TPV_A_501


 44 47  0  0  0  0  0  0  0  0999 V2000
    7.6629   26.4455    2.7240 C   0  0  0  0  0  0  0  0  0  0  0  0
    6.6646   28.7496    5.5131 O   0  0  0  0  0  0  0  0  0  0  0  0
    7.4573   28.1191    4.6693 C   0  0  0  0  0  0  0  0  0  0  0  0
    6.9813   26.8690    4.0180 C   0  0  0  0  0  0  0  0  0  0  0  0
    5.7331   26.3820    4.4531 C   0  0  0  0  0  0  0  0  0  0  0  0
    5.2821   26.8151    5.8552 C   0  0  0  0  0  0  0  0  0  0  0  0
    5.5692   28.0030    6.1925 C   0  0  0  0  0  0  0  0  0  0  0  0
    8.4598   28.6878    4.2956 O   0  0  0  0  0  0  0  0  0  0  0  0
    5.1981   25.2625    3.9552 O   0  0  0  0  0  0  0  0  0  0  0  0
    5.4466   24.9634    3.1027 H   0  0  0  0  0  0  0  0  0  0  0  0
    4.2463   28.8259    6.1028 C   0  0  0  0  0  0  0  0  0  0  0  0
    3.3792   28.5686    7.0489 C   0  0  0  0  0  0  0  0  0  0  0  0
    3.0095   29.5529    8.1309 C   0  0  0  0  0  0  0  0  0  0  0  0
    6.4674   28.2630    7.3613 C   0  0  0  0  0  0  0  0  0  0  0  0
    7.1594   27.0314    7.7380 C   0  0  0  0  0  0  0  0  0  0  0  0
    8.5288   26.8893    8.1697 C   0  0  0  0  0  0  0  0  0  0  0  0
    9.1361   25.6902    8.5316 C   0  0  0  0  0  0  0  0  0  0  0  0
   10.4945   25.6704    8.9075 C   0  0  0  0  0  0  0  0  0  0  0  0
   11.2431   26.8712    8.9219 C   0  0  0  0  0  0  0  0  0  0  0  0
   10.6406   28.0824    8.4928 C   0  0  0  0  0  0  0  0  0  0  0  0
    9.2388   28.1127    8.3779 C   0  0  0  0  0  0  0  0  0  0  0  0
    8.5137   25.2029    3.0654 C   0  0  0  0  0  0  0  0  0  0  0  0
    8.4699   24.0562    2.3065 C   0  0  0  0  0  0  0  0  0  0  0  0
    9.3678   22.9849    2.5717 C   0  0  0  0  0  0  0  0  0  0  0  0
   10.1184   23.0134    3.7654 C   0  0  0  0  0  0  0  0  0  0  0  0
   10.2098   24.1971    4.4913 C   0  0  0  0  0  0  0  0  0  0  0  0
    9.4643   25.3147    4.0978 C   0  0  0  0  0  0  0  0  0  0  0  0
   11.1979   24.0820    5.9861 N   0  0  0  0  0  0  0  0  0  0  0  0
   10.8632   23.8714    6.8876 H   0  0  0  0  0  0  0  0  0  0  0  0
   12.7273   24.3844    5.5902 S   0  0  0  0  0  0  0  0  0  0  0  0
   13.4712   24.5723    6.8861 O   0  0  0  0  0  0  0  0  0  0  0  0
   12.7300   25.4863    4.6838 O   0  0  0  0  0  0  0  0  0  0  0  0
   13.3815   22.9570    4.8348 C   0  0  0  0  0  0  0  0  0  0  0  0
   13.7954   21.9526    5.6580 N   0  0  0  0  0  0  0  0  0  0  0  0
   14.3443   20.8719    5.0864 C   0  0  0  0  0  0  0  0  0  0  0  0
   14.4095   20.6836    3.7000 C   0  0  0  0  0  0  0  0  0  0  0  0
   14.0611   21.7328    2.8656 C   0  0  0  0  0  0  0  0  0  0  0  0
   13.5267   22.9067    3.4512 C   0  0  0  0  0  0  0  0  0  0  0  0
   14.9373   19.3571    3.1614 C   0  0  0  0  0  0  0  0  0  0  0  0
   14.5142   18.3921    4.1173 F   0  0  0  0  0  0  0  0  0  0  0  0
   16.3180   19.4835    3.0730 F   0  0  0  0  0  0  0  0  0  0  0  0
   14.2794   19.1905    1.9146 F   0  0  0  0  0  0  0  0  0  0  0  0
    7.2675   26.4902    1.2049 C   0  0  0  0  0  0  0  0  0  0  0  0
    8.1610   27.1976    0.2131 C   0  0  0  0  0  0  0  0  0  0  0  0
  2  3  1  0  0  0
  2  7  1  0  0  0
  3  4  1  0  0  0
  3  8  2  0  0  0
  4  5  2  0  0  0
  4  1  1  0  0  0
  5  6  1  0  0  0
  5  9  1  0  0  0
  6  7  1  0  0  0
  7 11  1  0  0  0
  7 14  1  0  0  0
 11 12  1  0  0  0
 12 13  1  0  0  0
 14 15  1  0  0  0
 15 16  1  0  0  0
 16 17  2  0  0  0
 16 21  1  0  0  0
 17 18  1  0  0  0
 18 19  2  0  0  0
 19 20  1  0  0  0
 20 21  2  0  0  0
  1 43  1  0  0  0
  1 22  1  0  0  0
 43 44  1  0  0  0
 22 23  2  0  0  0
 22 27  1  0  0  0
 23 24  1  0  0  0
 24 25  2  0  0  0
 25 26  1  0  0  0
 26 28  1  0  0  0
 26 27  2  0  0  0
 28 30  1  0  0  0
 30 31  2  0  0  0
 30 32  2  0  0  0
 30 33  1  0  0  0
 33 34  2  0  0  0
 33 38  1  0  0  0
 34 35  1  0  0  0
 35 36  2  0  0  0
 36 37  1  0  0  0
 36 39  1  0  0  0
 37 38  2  0  0  0
 39 40  1  0  0  0
 39 41  1  0  0  0
 39 42  1  0  0  0
  9 10  1  0  0  0
 28 29  1  0  0  0
M  END
> <minimizedAffinity>
-10.84414

$$$$
1D4Y_TPV_A_501


 44 47  0  0  0  0  0  0  0  0999 V2000
   14.4719   20.9761    4.9130 C   0  0  0  0  0  0  0  0  0  0  0  0
   12.1915   23.0245    2.7478 O   0  0  0  0  0  0  0  0  0  0  0  0
   13.3226   22.5642    3.2443 C   0  0  0  0  0  0  0  0  0  0  0  0
   13.3199   21.9156    4.5833 C   0  0  0  0  0  0  0  0  0  0  0  0
   12.0979   21.9482    5.2834 C   0  0  0  0  0  0  0  0  0  0  0  0
   11.1190   23.0660    4.8970 C   0  0  0  0  0  0  0  0  0  0  0  0
   11.0679   23.3629    3.6655 C   0  0  0  0  0  0  0  0  0  0  0  0
   14.2829   22.4979    2.5086 O   0  0  0  0  0  0  0  0  0  0  0  0
   11.9654   21.4105    6.5003 O   0  0  0  0  0  0  0  0  0  0  0  0
   12.5428   20.7257    6.7753 H   0  0  0  0  0  0  0  0  0  0  0  0
    9.7431   22.7514    3.1122 C   0  0  0  0  0  0  0  0  0  0  0  0
    8.9253   23.6199    2.5736 C   0  0  0  0  0  0  0  0  0  0  0  0
    7.6606   24.0997    3.2418 C   0  0  0  0  0  0  0  0  0  0  0  0
   11.4432   24.7353    3.2005 C   0  0  0  0  0  0  0  0  0  0  0  0
   12.0348   25.4883    4.3053 C   0  0  0  0  0  0  0  0  0  0  0  0
   11.4163   25.8390    5.5608 C   0  0  0  0  0  0  0  0  0  0  0  0
   10.1532   26.4064    5.7026 C   0  0  0  0  0  0  0  0  0  0  0  0
    9.6393   26.6771    6.9870 C   0  0  0  0  0  0  0  0  0  0  0  0
   10.4091   26.3763    8.1357 C   0  0  0  0  0  0  0  0  0  0  0  0
   11.6697   25.7405    7.9926 C   0  0  0  0  0  0  0  0  0  0  0  0
   12.2547   25.7249    6.7133 C   0  0  0  0  0  0  0  0  0  0  0  0
   15.2184   21.6042    6.1099 C   0  0  0  0  0  0  0  0  0  0  0  0
   15.5463   22.9398    6.1474 C   0  0  0  0  0  0  0  0  0  0  0  0
   16.1102   23.5080    7.3236 C   0  0  0  0  0  0  0  0  0  0  0  0
   16.5558   22.6426    8.3442 C   0  0  0  0  0  0  0  0  0  0  0  0
   16.1642   21.3074    8.3323 C   0  0  0  0  0  0  0  0  0  0  0  0
   15.4313   20.8061    7.2499 C   0  0  0  0  0  0  0  0  0  0  0  0
   16.8074   20.3282    9.6930 N   0  0  0  0  0  0  0  0  0  0  0  0
   16.2972   20.0170   10.4753 H   0  0  0  0  0  0  0  0  0  0  0  0
   18.3656   20.0501    9.4064 S   0  0  0  0  0  0  0  0  0  0  0  0
   18.8299   19.0981   10.4771 O   0  0  0  0  0  0  0  0  0  0  0  0
   19.0259   21.3133    9.3414 O   0  0  0  0  0  0  0  0  0  0  0  0
   18.4924   19.2038    7.8887 C   0  0  0  0  0  0  0  0  0  0  0  0
   18.4842   17.8416    7.9342 N   0  0  0  0  0  0  0  0  0  0  0  0
   18.6302   17.1838    6.7757 C   0  0  0  0  0  0  0  0  0  0  0  0
   18.6789   17.8211    5.5294 C   0  0  0  0  0  0  0  0  0  0  0  0
   18.7648   19.2029    5.4878 C   0  0  0  0  0  0  0  0  0  0  0  0
   18.6652   19.9182    6.7064 C   0  0  0  0  0  0  0  0  0  0  0  0
   18.7155   16.9658    4.2664 C   0  0  0  0  0  0  0  0  0  0  0  0
   19.4542   15.8094    4.6419 F   0  0  0  0  0  0  0  0  0  0  0  0
   19.3377   17.7285    3.2860 F   0  0  0  0  0  0  0  0  0  0  0  0
   17.3546   16.6612    4.0013 F   0  0  0  0  0  0  0  0  0  0  0  0
   14.6819   19.4217    4.8370 C   0  0  0  0  0  0  0  0  0  0  0  0
   14.9466   18.7602    3.5048 C   0  0  0  0  0  0  0  0  0  0  0  0
  2  3  1  0  0  0
  2  7  1  0  0  0
  3  4  1  0  0  0
  3  8  2  0  0  0
  4  5  2  0  0  0
  4  1  1  0  0  0
  5  6  1  0  0  0
  5  9  1  0  0  0
  6  7  1  0  0  0
  7 11  1  0  0  0
  7 14  1  0  0  0
 11 12  1  0  0  0
 12 13  1  0  0  0
 14 15  1  0  0  0
 15 16  1  0  0  0
 16 17  2  0  0  0
 16 21  1  0  0  0
 17 18  1  0  0  0
 18 19  2  0  0  0
 19 20  1  0  0  0
 20 21  2  0  0  0
  1 43  1  0  0  0
  1 22  1  0  0  0
 43 44  1  0  0  0
 22 23  2  0  0  0
 22 27  1  0  0  0
 23 24  1  0  0  0
 24 25  2  0  0  0
 25 26  1  0  0  0
 26 28  1  0  0  0
 26 27  2  0  0  0
 28 30  1  0  0  0
 30 31  2  0  0  0
 30 32  2  0  0  0
 30 33  1  0  0  0
 33 34  2  0  0  0
 33 38  1  0  0  0
 34 35  1  0  0  0
 35 36  2  0  0  0
 36 37  1  0  0  0
 36 39  1  0  0  0
 37 38  2  0  0  0
 39 40  1  0  0  0
 39 41  1  0  0  0
 39 42  1  0  0  0
  9 10  1  0  0  0
 28 29  1  0  0  0
M  END
> <minimizedAffinity>
-10.61533

$$$$
1D4Y_TPV_A_501


 44 47  0  0  0  0  0  0  0  0999 V2000
   10.8698   24.4448    5.5692 C   0  0  0  0  0  0  0  0  0  0  0  0
   14.5667   23.8141    5.7069 O   0  0  0  0  0  0  0  0  0  0  0  0
   13.4232   24.3058    5.2727 C   0  0  0  0  0  0  0  0  0  0  0  0
   12.1517   23.6262    5.6402 C   0  0  0  0  0  0  0  0  0  0  0  0
   12.2803   22.4137    6.3455 C   0  0  0  0  0  0  0  0  0  0  0  0
   13.6079   21.6618    6.1748 C   0  0  0  0  0  0  0  0  0  0  0  0
   14.6504   22.3791    6.0976 C   0  0  0  0  0  0  0  0  0  0  0  0
   13.4316   25.4063    4.7660 O   0  0  0  0  0  0  0  0  0  0  0  0
   11.2156   21.6998    6.7251 O   0  0  0  0  0  0  0  0  0  0  0  0
   10.3864   22.1206    6.8407 H   0  0  0  0  0  0  0  0  0  0  0  0
   15.3808   22.2565    7.4712 C   0  0  0  0  0  0  0  0  0  0  0  0
   15.3135   21.0702    8.0203 C   0  0  0  0  0  0  0  0  0  0  0  0
   16.5249   20.2289    8.3380 C   0  0  0  0  0  0  0  0  0  0  0  0
   15.4944   22.3593    4.8615 C   0  0  0  0  0  0  0  0  0  0  0  0
   15.1687   21.1819    4.0581 C   0  0  0  0  0  0  0  0  0  0  0  0
   16.0408   20.0865    3.7099 C   0  0  0  0  0  0  0  0  0  0  0  0
   15.9761   19.3530    2.5287 C   0  0  0  0  0  0  0  0  0  0  0  0
   16.9055   18.3217    2.2845 C   0  0  0  0  0  0  0  0  0  0  0  0
   17.9044   18.0269    3.2425 C   0  0  0  0  0  0  0  0  0  0  0  0
   18.0087   18.8160    4.4175 C   0  0  0  0  0  0  0  0  0  0  0  0
   16.9242   19.6497    4.7458 C   0  0  0  0  0  0  0  0  0  0  0  0
   10.2654   24.1888    4.1714 C   0  0  0  0  0  0  0  0  0  0  0  0
   10.4550   23.0036    3.4991 C   0  0  0  0  0  0  0  0  0  0  0  0
    9.7704   22.7539    2.2771 C   0  0  0  0  0  0  0  0  0  0  0  0
    9.1029   23.8244    1.6466 C   0  0  0  0  0  0  0  0  0  0  0  0
    8.8581   24.9953    2.3574 C   0  0  0  0  0  0  0  0  0  0  0  0
    9.3768   25.1475    3.6488 C   0  0  0  0  0  0  0  0  0  0  0  0
    8.0003   26.2687    1.4264 N   0  0  0  0  0  0  0  0  0  0  0  0
    8.4223   26.9892    0.9049 H   0  0  0  0  0  0  0  0  0  0  0  0
    6.4198   26.0227    1.5959 S   0  0  0  0  0  0  0  0  0  0  0  0
    6.2213   24.5298    1.5990 O   0  0  0  0  0  0  0  0  0  0  0  0
    5.7550   26.7557    0.5680 O   0  0  0  0  0  0  0  0  0  0  0  0
    5.9502   26.5978    3.1722 C   0  0  0  0  0  0  0  0  0  0  0  0
    6.6345   27.6647    3.6735 N   0  0  0  0  0  0  0  0  0  0  0  0
    6.3116   28.0821    4.9054 C   0  0  0  0  0  0  0  0  0  0  0  0
    5.2465   27.5511    5.6438 C   0  0  0  0  0  0  0  0  0  0  0  0
    4.6023   26.4203    5.1696 C   0  0  0  0  0  0  0  0  0  0  0  0
    4.9632   25.9291    3.8909 C   0  0  0  0  0  0  0  0  0  0  0  0
    4.8872   28.1907    6.9817 C   0  0  0  0  0  0  0  0  0  0  0  0
    6.0544   28.0269    7.7784 F   0  0  0  0  0  0  0  0  0  0  0  0
    3.7816   27.5041    7.4679 F   0  0  0  0  0  0  0  0  0  0  0  0
    4.6450   29.5547    6.6722 F   0  0  0  0  0  0  0  0  0  0  0  0
    9.7789   24.8760    6.6132 C   0  0  0  0  0  0  0  0  0  0  0  0
   10.1872   25.5938    7.8784 C   0  0  0  0  0  0  0  0  0  0  0  0
  2  3  1  0  0  0
  2  7  1  0  0  0
  3  4  1  0  0  0
  3  8  2  0  0  0
  4  5  2  0  0  0
  4  1  1  0  0  0
  5  6  1  0  0  0
  5  9  1  0  0  0
  6  7  1  0  0  0
  7 11  1  0  0  0
  7 14  1  0  0  0
 11 12  1  0  0  0
 12 13  1  0  0  0
 14 15  1  0  0  0
 15 16  1  0  0  0
 16 17  2  0  0  0
 16 21  1  0  0  0
 17 18  1  0  0  0
 18 19  2  0  0  0
 19 20  1  0  0  0
 20 21  2  0  0  0
  1 43  1  0  0  0
  1 22  1  0  0  0
 43 44  1  0  0  0
 22 23  2  0  0  0
 22 27  1  0  0  0
 23 24  1  0  0  0
 24 25  2  0  0  0
 25 26  1  0  0  0
 26 28  1  0  0  0
 26 27  2  0  0  0
 28 30  1  0  0  0
 30 31  2  0  0  0
 30 32  2  0  0  0
 30 33  1  0  0  0
 33 34  2  0  0  0
 33 38  1  0  0  0
 34 35  1  0  0  0
 35 36  2  0  0  0
 36 37  1  0  0  0
 36 39  1  0  0  0
 37 38  2  0  0  0
 39 40  1  0  0  0
 39 41  1  0  0  0
 39 42  1  0  0  0
  9 10  1  0  0  0
 28 29  1  0  0  0
M  END
> <minimizedAffinity>
-10.38224

$$$$
1D4Y_TPV_A_501


 44 47  0  0  0  0  0  0  0  0999 V2000
   11.0250   24.5337    5.7131 C   0  0  0  0  0  0  0  0  0  0  0  0
   14.5872   23.4273    5.2994 O   0  0  0  0  0  0  0  0  0  0  0  0
   13.4806   24.1059    5.0693 C   0  0  0  0  0  0  0  0  0  0  0  0
   12.1789   23.5563    5.5352 C   0  0  0  0  0  0  0  0  0  0  0  0
   12.2189   22.2656    6.0982 C   0  0  0  0  0  0  0  0  0  0  0  0
   13.3984   21.3752    5.6822 C   0  0  0  0  0  0  0  0  0  0  0  0
   14.5146   21.9585    5.5366 C   0  0  0  0  0  0  0  0  0  0  0  0
   13.5832   25.2464    4.6735 O   0  0  0  0  0  0  0  0  0  0  0  0
   11.1170   21.6545    6.5452 O   0  0  0  0  0  0  0  0  0  0  0  0
   10.3746   22.1615    6.8093 H   0  0  0  0  0  0  0  0  0  0  0  0
   15.3779   21.5904    6.7834 C   0  0  0  0  0  0  0  0  0  0  0  0
   16.4195   22.3603    6.9715 C   0  0  0  0  0  0  0  0  0  0  0  0
   16.5925   23.2484    8.1788 C   0  0  0  0  0  0  0  0  0  0  0  0
   15.1952   21.9709    4.2035 C   0  0  0  0  0  0  0  0  0  0  0  0
   15.0477   20.6665    3.5598 C   0  0  0  0  0  0  0  0  0  0  0  0
   16.0674   19.6660    3.3566 C   0  0  0  0  0  0  0  0  0  0  0  0
   16.2783   18.9635    2.1736 C   0  0  0  0  0  0  0  0  0  0  0  0
   17.3300   18.0293    2.0835 C   0  0  0  0  0  0  0  0  0  0  0  0
   18.1716   17.8004    3.1979 C   0  0  0  0  0  0  0  0  0  0  0  0
   17.9952   18.5621    4.3823 C   0  0  0  0  0  0  0  0  0  0  0  0
   16.7958   19.2831    4.5257 C   0  0  0  0  0  0  0  0  0  0  0  0
   10.1434   24.4021    4.4521 C   0  0  0  0  0  0  0  0  0  0  0  0
   10.5947   23.7907    3.3054 C   0  0  0  0  0  0  0  0  0  0  0  0
    9.7090   23.5673    2.2145 C   0  0  0  0  0  0  0  0  0  0  0  0
    8.4486   24.2001    2.2281 C   0  0  0  0  0  0  0  0  0  0  0  0
    7.9731   24.7583    3.4108 C   0  0  0  0  0  0  0  0  0  0  0  0
    8.7939   24.7924    4.5443 C   0  0  0  0  0  0  0  0  0  0  0  0
    6.3563   25.5277    3.2762 N   0  0  0  0  0  0  0  0  0  0  0  0
    5.5044   25.0622    3.1126 H   0  0  0  0  0  0  0  0  0  0  0  0
    6.5474   27.1130    3.4705 S   0  0  0  0  0  0  0  0  0  0  0  0
    5.1699   27.7176    3.3994 O   0  0  0  0  0  0  0  0  0  0  0  0
    7.4934   27.5571    2.4991 O   0  0  0  0  0  0  0  0  0  0  0  0
    7.1383   27.3913    5.0858 C   0  0  0  0  0  0  0  0  0  0  0  0
    8.3857   27.9270    5.2074 N   0  0  0  0  0  0  0  0  0  0  0  0
    8.8662   28.0988    6.4466 C   0  0  0  0  0  0  0  0  0  0  0  0
    8.1143   27.8600    7.6039 C   0  0  0  0  0  0  0  0  0  0  0  0
    6.8790   27.2449    7.4837 C   0  0  0  0  0  0  0  0  0  0  0  0
    6.3726   27.0055    6.1826 C   0  0  0  0  0  0  0  0  0  0  0  0
    8.7178   28.2138    8.9598 C   0  0  0  0  0  0  0  0  0  0  0  0
    7.6748   28.8960    9.6458 F   0  0  0  0  0  0  0  0  0  0  0  0
    9.8290   29.0084    8.7067 F   0  0  0  0  0  0  0  0  0  0  0  0
    9.0130   26.9606    9.5577 F   0  0  0  0  0  0  0  0  0  0  0  0
   10.2133   25.0668    6.9470 C   0  0  0  0  0  0  0  0  0  0  0  0
   10.9341   25.4338    8.2230 C   0  0  0  0  0  0  0  0  0  0  0  0
  2  3  1  0  0  0
  2  7  1  0  0  0
  3  4  1  0  0  0
  3  8  2  0  0  0
  4  5  2  0  0  0
  4  1  1  0  0  0
  5  6  1  0  0  0
  5  9  1  0  0  0
  6  7  1  0  0  0
  7 11  1  0  0  0
  7 14  1  0  0  0
 11 12  1  0  0  0
 12 13  1  0  0  0
 14 15  1  0  0  0
 15 16  1  0  0  0
 16 17  2  0  0  0
 16 21  1  0  0  0
 17 18  1  0  0  0
 18 19  2  0  0  0
 19 20  1  0  0  0
 20 21  2  0  0  0
  1 43  1  0  0  0
  1 22  1  0  0  0
 43 44  1  0  0  0
 22 23  2  0  0  0
 22 27  1  0  0  0
 23 24  1  0  0  0
 24 25  2  0  0  0
 25 26  1  0  0  0
 26 28  1  0  0  0
 26 27  2  0  0  0
 28 30  1  0  0  0
 30 31  2  0  0  0
 30 32  2  0  0  0
 30 33  1  0  0  0
 33 34  2  0  0  0
 33 38  1  0  0  0
 34 35  1  0  0  0
 35 36  2  0  0  0
 36 37  1  0  0  0
 36 39  1  0  0  0
 37 38  2  0  0  0
 39 40  1  0  0  0
 39 41  1  0  0  0
 39 42  1  0  0  0
  9 10  1  0  0  0
 28 29  1  0  0  0
M  END
> <minimizedAffinity>
-10.14841

$$$$
