1SBG_IM1_A_400
  RCSB PDB12061703593D
Coordinates from PDB:1SBG:A:400 Model:1 without hydrogens
 39 41  0  0  0  0            999 V2000
   -9.3770   16.1320   32.9290   C 0  0  0  0  0  0  0  0  0  0  0  0
   -8.1940   15.2270   33.2470   C 0  0  0  0  0  0  0  0  0  0  0  0
   -8.8030   17.3840   32.3150   C 0  0  0  0  0  0  0  0  0  0  0  0
   -9.9550   16.4170   34.3030   C 0  0  0  0  0  0  0  0  0  0  0  0
  -10.3690   15.5620   32.1090   O 0  0  0  0  0  0  0  0  0  0  0  0
  -10.3410   15.5740   30.6980   C 0  0  0  0  0  0  0  0  0  0  0  0
   -9.4330   14.9910   30.0760   O 0  0  0  0  0  0  0  0  0  0  0  0
  -11.2880   16.2180   29.9740   N 0  0  0  0  0  0  0  0  0  0  0  0
  -11.2530   16.2170   28.4840   C 0  0  0  0  0  0  0  0  0  0  0  0
  -12.6630   15.8180   27.9700   C 0  0  0  0  0  0  0  0  0  0  0  0
  -13.1940   14.6250   28.7790   C 0  0  0  0  0  0  0  0  0  0  0  0
  -12.5660   13.3720   28.6980   C 0  0  0  0  0  0  0  0  0  0  0  0
  -12.9720   12.3190   29.5260   C 0  0  0  0  0  0  0  0  0  0  0  0
  -14.0090   12.5140   30.4280   C 0  0  0  0  0  0  0  0  0  0  0  0
  -14.6490   13.7610   30.5080   C 0  0  0  0  0  0  0  0  0  0  0  0
  -14.2500   14.8170   29.6910   C 0  0  0  0  0  0  0  0  0  0  0  0
  -10.7480   17.4760   27.7290   C 0  0  0  0  0  0  0  0  0  0  0  0
  -11.1280   18.6940   28.3500   O 0  0  0  0  0  0  0  0  0  0  0  0
   -9.2750   17.4280   27.8840   C 0  0  0  0  0  0  0  0  0  0  0  0
   -8.3950   18.0100   26.8520   C 0  0  0  0  0  0  0  0  0  0  0  0
   -7.0860   18.3190   27.6090   C 0  0  0  0  0  0  0  0  0  0  0  0
   -5.8530   18.5510   26.7390   C 0  0  0  0  0  0  0  0  0  0  0  0
   -5.6750   19.7570   26.0430   C 0  0  0  0  0  0  0  0  0  0  0  0
   -4.5370   19.9130   25.2450   C 0  0  0  0  0  0  0  0  0  0  0  0
   -3.5820   18.8760   25.1420   C 0  0  0  0  0  0  0  0  0  0  0  0
   -3.7630   17.6880   25.8340   C 0  0  0  0  0  0  0  0  0  0  0  0
   -4.8960   17.5280   26.6290   C 0  0  0  0  0  0  0  0  0  0  0  0
   -8.2370   17.0300   25.6550   C 0  0  0  0  0  0  0  0  0  0  0  0
   -8.2100   15.7820   25.7390   O 0  0  0  0  0  0  0  0  0  0  0  0
   -8.1120   17.6080   24.4690   N 0  0  0  0  0  0  0  0  0  0  0  0
   -7.9260   16.8390   23.2670   C 0  0  0  0  0  0  0  0  0  0  0  0
   -9.2330   16.6760   22.5340   C 0  0  0  0  0  0  0  0  0  0  0  0
   -9.0190   16.6450   21.0380   C 0  0  0  0  0  0  0  0  0  0  0  0
   -9.8750   15.3700   23.0100   C 0  0  0  0  0  0  0  0  0  0  0  0
   -6.9600   17.7470   22.5340   C 0  0  0  0  0  0  0  0  0  0  0  0
   -7.1040   19.0700   22.4050   N 0  0  0  0  0  0  0  0  0  0  0  0
   -5.9450   19.3470   21.8490   C 0  0  0  0  0  0  0  0  0  0  0  0
   -5.1310   18.2030   21.6420   C 0  0  0  0  0  0  0  0  0  0  0  0
   -5.8300   17.1880   22.1020   N 0  0  0  0  0  0  0  0  0  0  0  0
  1  2  1  0  0  0  0
  1  3  1  0  0  0  0
  1  4  1  0  0  0  0
  1  5  1  0  0  0  0
  5  6  1  0  0  0  0
  6  7  2  0  0  0  0
  6  8  1  0  0  0  0
  8  9  1  0  0  0  0
  9 10  1  0  0  0  0
  9 17  1  0  0  0  0
 10 11  1  0  0  0  0
 11 12  2  0  0  0  0
 11 16  1  0  0  0  0
 12 13  1  0  0  0  0
 13 14  2  0  0  0  0
 14 15  1  0  0  0  0
 15 16  2  0  0  0  0
 17 18  1  0  0  0  0
 17 19  1  0  0  0  0
 19 20  1  0  0  0  0
 20 21  1  0  0  0  0
 20 28  1  0  0  0  0
 21 22  1  0  0  0  0
 22 23  2  0  0  0  0
 22 27  1  0  0  0  0
 23 24  1  0  0  0  0
 24 25  2  0  0  0  0
 25 26  1  0  0  0  0
 26 27  2  0  0  0  0
 28 29  2  0  0  0  0
 28 30  1  0  0  0  0
 30 31  1  0  0  0  0
 31 32  1  0  0  0  0
 31 35  1  0  0  0  0
 32 33  1  0  0  0  0
 32 34  1  0  0  0  0
 35 36  1  0  0  0  0
 35 39  2  0  0  0  0
 36 37  1  0  0  0  0
 37 38  2  0  0  0  0
 38 39  1  0  0  0  0
A    1
C1
A    2
C2
A    3
C3
A    4
C4
A    5
O5
A    6
C6
A    7
O7
A    8
N8
A    9
C9
A   10
C10
A   11
C11
A   12
C12
A   13
C13
A   14
C14
A   15
C15
A   16
C16
A   17
C17
A   18
O18
A   19
C19
A   20
C20
A   21
C21
A   22
C22
A   23
C23
A   24
C24
A   25
C25
A   26
C26
A   27
C27
A   28
C28
A   29
O29
A   30
N30
A   31
C31
A   32
C32
A   33
C33
A   34
C34
A   35
C35
A   36
N36
A   37
C37
A   38
C38
A   39
N39
M  END
>  <InstanceId>
1SBG_IM1_A_400

>  <ChemCompId>
IM1

>  <PdbId>
1SBG

>  <ChainId>
A

>  <ResidueNumber>
400

>  <InsertionCode>


>  <Model>
1

>  <AltIds>


>  <MissingHeavyAtoms>
0

>  <ObservedFormula>
C31 N4 O4

>  <Name>
(2R,4S,5S,1'S)-2-PHENYLMETHYL-4-HYDROXY-5-(TERT-BUTOXYCARBONYL)AMINO-6-PHENYL HEXANOYL-N-(1'-IMIDAZO-2-YL)-2'-METHYLPROPANAMIDE

>  <SystematicName>
tert-butyl N-[(2S,3S,5R)-3-hydroxy-6-[[(1S)-1-(1H-imidazol-2-yl)-2-methyl-propyl]amino]-6-oxo-1-phenyl-5-(phenylmethyl)hexan-2-yl]carbamate

>  <Synonyms>


>  <Type>
NON-POLYMER

>  <Formula>
C31 H42 N4 O4

>  <MolecularWeight>
534.69

>  <ModifiedDate>
2011-06-04

>  <Parent>


>  <OneLetterCode>


>  <SubcomponentList>


>  <AmbiguousFlag>
N

>  <InChI>
InChI=1S/C31H42N4O4/c1-21(2)27(28-32-16-17-33-28)35-29(37)24(18-22-12-8-6-9-13-22)20-26(36)25(19-23-14-10-7-11-15-23)34-30(38)39-31(3,4)5/h6-17,21,24-27,36H,18-20H2,1-5H3,(H,32,33)(H,34,38)(H,35,37)/t24-,25+,26+,27+/m1/s1

>  <InChIKey>
QAHXABIFJPGWDD-WKAQUBQDSA-N

>  <SMILES>
CC(C)[C@@H](c1[nH]ccn1)NC(=O)[C@H](Cc2ccccc2)C[C@@H]([C@H](Cc3ccccc3)NC(=O)OC(C)(C)C)O

$$$$
