1SBG_IM1_A_400


 43 45  0  0  0  0  0  0  0  0999 V2000
  -11.8517   16.3002   28.3077 C   0  0  0  0  0  0  0  0  0  0  0  0
  -10.8253   15.6837   29.2999 C   0  0  0  0  0  0  0  0  0  0  0  0
   -9.9985   14.7866   29.0227 O   0  0  0  0  0  0  0  0  0  0  0  0
  -10.8738   16.1698   30.5319 N   0  0  0  0  0  0  0  0  0  0  0  0
  -11.5178   16.8848   30.7396 H   0  0  0  0  0  0  0  0  0  0  0  0
  -10.0105   15.6806   31.5741 C   0  0  0  0  0  0  0  0  0  0  0  0
  -11.0542   15.2452   32.5820 C   0  0  0  0  0  0  0  0  0  0  0  0
  -11.8069   14.1453   32.4751 N   0  0  0  0  0  0  0  0  0  0  0  0
  -12.3859   14.1801   33.6552 C   0  0  0  0  0  0  0  0  0  0  0  0
  -11.9898   15.2907   34.4452 C   0  0  0  0  0  0  0  0  0  0  0  0
  -11.1247   15.9536   33.7086 N   0  0  0  0  0  0  0  0  0  0  0  0
  -11.8996   13.5024   31.7352 H   0  0  0  0  0  0  0  0  0  0  0  0
   -9.1305   16.7871   32.0969 C   0  0  0  0  0  0  0  0  0  0  0  0
   -7.8127   16.2442   32.6000 C   0  0  0  0  0  0  0  0  0  0  0  0
   -8.8993   17.7789   30.9535 C   0  0  0  0  0  0  0  0  0  0  0  0
  -11.1710   16.7707   27.0856 C   0  0  0  0  0  0  0  0  0  0  0  0
   -9.9167   17.5543   27.1790 C   0  0  0  0  0  0  0  0  0  0  0  0
  -10.3309   18.9023   27.0209 O   0  0  0  0  0  0  0  0  0  0  0  0
  -10.8433   18.9892   26.2019 H   0  0  0  0  0  0  0  0  0  0  0  0
   -9.0523   17.0341   25.9990 C   0  0  0  0  0  0  0  0  0  0  0  0
   -6.7645   17.5323   25.1837 C   0  0  0  0  0  0  0  0  0  0  0  0
   -7.3080   18.0653   24.1979 O   0  0  0  0  0  0  0  0  0  0  0  0
   -7.5685   16.9983   26.1345 N   0  0  0  0  0  0  0  0  0  0  0  0
   -7.1655   16.5791   26.9289 H   0  0  0  0  0  0  0  0  0  0  0  0
   -5.3583   17.4969   25.2982 O   0  0  0  0  0  0  0  0  0  0  0  0
   -4.5989   18.4078   26.0563 C   0  0  0  0  0  0  0  0  0  0  0  0
   -5.2264   19.7828   26.2442 C   0  0  0  0  0  0  0  0  0  0  0  0
   -4.3149   17.8764   27.4387 C   0  0  0  0  0  0  0  0  0  0  0  0
   -3.3097   18.7293   25.3229 C   0  0  0  0  0  0  0  0  0  0  0  0
   -9.5307   15.6199   25.5718 C   0  0  0  0  0  0  0  0  0  0  0  0
   -9.6340   15.5453   24.0410 C   0  0  0  0  0  0  0  0  0  0  0  0
  -10.7791   16.0165   23.3795 C   0  0  0  0  0  0  0  0  0  0  0  0
  -10.8235   16.0625   21.9812 C   0  0  0  0  0  0  0  0  0  0  0  0
   -9.7293   15.6309   21.2440 C   0  0  0  0  0  0  0  0  0  0  0  0
   -8.5842   15.1487   21.8977 C   0  0  0  0  0  0  0  0  0  0  0  0
   -8.5283   15.1024   23.2893 C   0  0  0  0  0  0  0  0  0  0  0  0
  -12.9161   15.3124   27.7850 C   0  0  0  0  0  0  0  0  0  0  0  0
  -13.5228   14.3753   28.8265 C   0  0  0  0  0  0  0  0  0  0  0  0
  -13.1823   13.0139   28.8607 C   0  0  0  0  0  0  0  0  0  0  0  0
  -13.7797   12.1937   29.8233 C   0  0  0  0  0  0  0  0  0  0  0  0
  -14.7086   12.7257   30.7464 C   0  0  0  0  0  0  0  0  0  0  0  0
  -15.0389   14.0719   30.7084 C   0  0  0  0  0  0  0  0  0  0  0  0
  -14.4470   14.8922   29.7502 C   0  0  0  0  0  0  0  0  0  0  0  0
 26 27  1  0  0  0
 26 28  1  0  0  0
 26 29  1  0  0  0
 26 25  1  0  0  0
 25 21  1  0  0  0
 21 22  2  0  0  0
 21 23  1  0  0  0
 23 20  1  0  0  0
 20 30  1  0  0  0
 20 17  1  0  0  0
 30 31  1  0  0  0
 31 32  2  0  0  0
 31 36  1  0  0  0
 32 33  1  0  0  0
 33 34  2  0  0  0
 34 35  1  0  0  0
 35 36  2  0  0  0
 17 18  1  0  0  0
 17 16  1  0  0  0
 16  1  1  0  0  0
  1 37  1  0  0  0
  1  2  1  0  0  0
 37 38  1  0  0  0
 38 39  2  0  0  0
 38 43  1  0  0  0
 39 40  1  0  0  0
 40 41  2  0  0  0
 41 42  1  0  0  0
 42 43  2  0  0  0
  2  3  2  0  0  0
  2  4  1  0  0  0
  4  6  1  0  0  0
  6 13  1  0  0  0
  6  7  1  0  0  0
 13 14  1  0  0  0
 13 15  1  0  0  0
  7  8  1  0  0  0
  7 11  2  0  0  0
  8  9  1  0  0  0
  9 10  2  0  0  0
 10 11  1  0  0  0
 23 24  1  0  0  0
 18 19  1  0  0  0
  4  5  1  0  0  0
  8 12  1  0  0  0
M  END
> <minimizedAffinity>
-9.86499

$$$$
1SBG_IM1_A_400


 43 45  0  0  0  0  0  0  0  0999 V2000
   -8.4301   18.1050   27.1230 C   0  0  0  0  0  0  0  0  0  0  0  0
   -8.2468   16.9861   26.0588 C   0  0  0  0  0  0  0  0  0  0  0  0
   -7.8685   15.8170   26.2943 O   0  0  0  0  0  0  0  0  0  0  0  0
   -8.5129   17.3481   24.8120 N   0  0  0  0  0  0  0  0  0  0  0  0
   -8.8228   18.2658   24.6355 H   0  0  0  0  0  0  0  0  0  0  0  0
   -8.3610   16.4362   23.7093 C   0  0  0  0  0  0  0  0  0  0  0  0
   -7.4745   17.2734   22.8103 C   0  0  0  0  0  0  0  0  0  0  0  0
   -6.1681   17.4810   23.0052 N   0  0  0  0  0  0  0  0  0  0  0  0
   -5.8931   18.1102   21.8838 C   0  0  0  0  0  0  0  0  0  0  0  0
   -7.0227   18.2822   21.0420 C   0  0  0  0  0  0  0  0  0  0  0  0
   -8.0259   17.7233   21.6836 N   0  0  0  0  0  0  0  0  0  0  0  0
   -5.5867   17.2362   23.7611 H   0  0  0  0  0  0  0  0  0  0  0  0
   -9.6981   16.1353   23.0818 C   0  0  0  0  0  0  0  0  0  0  0  0
   -9.7341   14.7319   22.5217 C   0  0  0  0  0  0  0  0  0  0  0  0
  -10.7696   16.3082   24.1618 C   0  0  0  0  0  0  0  0  0  0  0  0
   -9.3729   17.6710   28.1723 C   0  0  0  0  0  0  0  0  0  0  0  0
  -10.8104   17.4890   27.8617 C   0  0  0  0  0  0  0  0  0  0  0  0
  -11.4268   18.6747   28.3390 O   0  0  0  0  0  0  0  0  0  0  0  0
  -11.1921   18.8087   29.2706 H   0  0  0  0  0  0  0  0  0  0  0  0
  -11.2163   16.2208   28.6599 C   0  0  0  0  0  0  0  0  0  0  0  0
  -10.3025   15.5683   30.8704 C   0  0  0  0  0  0  0  0  0  0  0  0
   -9.4506   14.9094   30.2449 O   0  0  0  0  0  0  0  0  0  0  0  0
  -11.2186   16.2592   30.1498 N   0  0  0  0  0  0  0  0  0  0  0  0
  -11.8977   16.7961   30.6186 H   0  0  0  0  0  0  0  0  0  0  0  0
  -10.3004   15.5914   32.2815 O   0  0  0  0  0  0  0  0  0  0  0  0
   -9.3018   16.1994   33.0655 C   0  0  0  0  0  0  0  0  0  0  0  0
   -8.5395   17.3308   32.3885 C   0  0  0  0  0  0  0  0  0  0  0  0
   -9.8698   16.7709   34.3401 C   0  0  0  0  0  0  0  0  0  0  0  0
   -8.2058   15.1928   33.3630 C   0  0  0  0  0  0  0  0  0  0  0  0
  -12.6085   15.7188   28.1895 C   0  0  0  0  0  0  0  0  0  0  0  0
  -13.0027   14.4612   28.9787 C   0  0  0  0  0  0  0  0  0  0  0  0
  -14.1095   14.4785   29.8421 C   0  0  0  0  0  0  0  0  0  0  0  0
  -14.5425   13.3026   30.4658 C   0  0  0  0  0  0  0  0  0  0  0  0
  -13.8667   12.1124   30.2343 C   0  0  0  0  0  0  0  0  0  0  0  0
  -12.7527   12.0886   29.3802 C   0  0  0  0  0  0  0  0  0  0  0  0
  -12.3157   13.2528   28.7514 C   0  0  0  0  0  0  0  0  0  0  0  0
   -7.1484   18.4705   27.9012 C   0  0  0  0  0  0  0  0  0  0  0  0
   -5.8851   18.6400   27.0607 C   0  0  0  0  0  0  0  0  0  0  0  0
   -5.7520   19.7102   26.1621 C   0  0  0  0  0  0  0  0  0  0  0  0
   -4.5822   19.8105   25.4020 C   0  0  0  0  0  0  0  0  0  0  0  0
   -3.5514   18.8528   25.5368 C   0  0  0  0  0  0  0  0  0  0  0  0
   -3.6886   17.7992   26.4280 C   0  0  0  0  0  0  0  0  0  0  0  0
   -4.8529   17.6948   27.1861 C   0  0  0  0  0  0  0  0  0  0  0  0
 26 27  1  0  0  0
 26 28  1  0  0  0
 26 29  1  0  0  0
 26 25  1  0  0  0
 25 21  1  0  0  0
 21 22  2  0  0  0
 21 23  1  0  0  0
 23 20  1  0  0  0
 20 30  1  0  0  0
 20 17  1  0  0  0
 30 31  1  0  0  0
 31 32  2  0  0  0
 31 36  1  0  0  0
 32 33  1  0  0  0
 33 34  2  0  0  0
 34 35  1  0  0  0
 35 36  2  0  0  0
 17 18  1  0  0  0
 17 16  1  0  0  0
 16  1  1  0  0  0
  1 37  1  0  0  0
  1  2  1  0  0  0
 37 38  1  0  0  0
 38 39  2  0  0  0
 38 43  1  0  0  0
 39 40  1  0  0  0
 40 41  2  0  0  0
 41 42  1  0  0  0
 42 43  2  0  0  0
  2  3  2  0  0  0
  2  4  1  0  0  0
  4  6  1  0  0  0
  6 13  1  0  0  0
  6  7  1  0  0  0
 13 14  1  0  0  0
 13 15  1  0  0  0
  7  8  1  0  0  0
  7 11  2  0  0  0
  8  9  1  0  0  0
  9 10  2  0  0  0
 10 11  1  0  0  0
 23 24  1  0  0  0
 18 19  1  0  0  0
  4  5  1  0  0  0
  8 12  1  0  0  0
M  END
> <minimizedAffinity>
-9.81744

$$$$
1SBG_IM1_A_400


 43 45  0  0  0  0  0  0  0  0999 V2000
   -7.9433   18.1617   27.7476 C   0  0  0  0  0  0  0  0  0  0  0  0
   -8.0097   17.0627   26.6494 C   0  0  0  0  0  0  0  0  0  0  0  0
   -7.6500   15.8730   26.7923 O   0  0  0  0  0  0  0  0  0  0  0  0
   -8.4812   17.4668   25.4787 N   0  0  0  0  0  0  0  0  0  0  0  0
   -8.7747   18.4010   25.3772 H   0  0  0  0  0  0  0  0  0  0  0  0
   -8.5758   16.5769   24.3518 C   0  0  0  0  0  0  0  0  0  0  0  0
   -7.6434   17.2864   23.3915 C   0  0  0  0  0  0  0  0  0  0  0  0
   -6.3105   17.3061   23.4957 N   0  0  0  0  0  0  0  0  0  0  0  0
   -6.0267   17.8976   22.3560 C   0  0  0  0  0  0  0  0  0  0  0  0
   -7.1755   18.2329   21.5932 C   0  0  0  0  0  0  0  0  0  0  0  0
   -8.2014   17.8170   22.3039 N   0  0  0  0  0  0  0  0  0  0  0  0
   -5.7193   16.9767   24.2107 H   0  0  0  0  0  0  0  0  0  0  0  0
   -9.9927   16.5166   23.8409 C   0  0  0  0  0  0  0  0  0  0  0  0
  -10.2849   15.1792   23.2002 C   0  0  0  0  0  0  0  0  0  0  0  0
  -10.9276   16.7564   25.0295 C   0  0  0  0  0  0  0  0  0  0  0  0
   -8.6171   17.7041   28.9784 C   0  0  0  0  0  0  0  0  0  0  0  0
  -10.0155   17.2160   28.9319 C   0  0  0  0  0  0  0  0  0  0  0  0
  -10.8025   18.3867   29.0861 O   0  0  0  0  0  0  0  0  0  0  0  0
  -10.5279   18.8575   29.8885 H   0  0  0  0  0  0  0  0  0  0  0  0
  -10.1204   16.2414   30.1357 C   0  0  0  0  0  0  0  0  0  0  0  0
  -11.7288   14.4864   30.8286 C   0  0  0  0  0  0  0  0  0  0  0  0
  -12.0270   15.2341   31.7790 O   0  0  0  0  0  0  0  0  0  0  0  0
  -10.7872   14.9206   29.9564 N   0  0  0  0  0  0  0  0  0  0  0  0
  -10.5391   14.3536   29.1908 H   0  0  0  0  0  0  0  0  0  0  0  0
  -12.3608   13.2341   30.6726 O   0  0  0  0  0  0  0  0  0  0  0  0
  -13.4768   13.0039   29.8463 C   0  0  0  0  0  0  0  0  0  0  0  0
  -14.5173   14.1160   29.8303 C   0  0  0  0  0  0  0  0  0  0  0  0
  -13.0675   12.7825   28.4119 C   0  0  0  0  0  0  0  0  0  0  0  0
  -14.2652   11.8198   30.3748 C   0  0  0  0  0  0  0  0  0  0  0  0
   -8.7130   15.9913   30.7423 C   0  0  0  0  0  0  0  0  0  0  0  0
   -8.8201   15.8562   32.2687 C   0  0  0  0  0  0  0  0  0  0  0  0
   -9.1418   16.9685   33.0626 C   0  0  0  0  0  0  0  0  0  0  0  0
   -9.3603   16.8209   34.4372 C   0  0  0  0  0  0  0  0  0  0  0  0
   -9.2499   15.5660   35.0203 C   0  0  0  0  0  0  0  0  0  0  0  0
   -8.9185   14.4503   34.2351 C   0  0  0  0  0  0  0  0  0  0  0  0
   -8.7027   14.5856   32.8651 C   0  0  0  0  0  0  0  0  0  0  0  0
   -6.5168   18.5207   28.2147 C   0  0  0  0  0  0  0  0  0  0  0  0
   -5.4964   18.7692   27.1065 C   0  0  0  0  0  0  0  0  0  0  0  0
   -4.3827   17.9297   26.9468 C   0  0  0  0  0  0  0  0  0  0  0  0
   -3.4674   18.2109   25.9273 C   0  0  0  0  0  0  0  0  0  0  0  0
   -3.6606   19.3194   25.0717 C   0  0  0  0  0  0  0  0  0  0  0  0
   -4.7642   20.1433   25.2337 C   0  0  0  0  0  0  0  0  0  0  0  0
   -5.6777   19.8674   26.2489 C   0  0  0  0  0  0  0  0  0  0  0  0
 26 27  1  0  0  0
 26 28  1  0  0  0
 26 29  1  0  0  0
 26 25  1  0  0  0
 25 21  1  0  0  0
 21 22  2  0  0  0
 21 23  1  0  0  0
 23 20  1  0  0  0
 20 30  1  0  0  0
 20 17  1  0  0  0
 30 31  1  0  0  0
 31 32  2  0  0  0
 31 36  1  0  0  0
 32 33  1  0  0  0
 33 34  2  0  0  0
 34 35  1  0  0  0
 35 36  2  0  0  0
 17 18  1  0  0  0
 17 16  1  0  0  0
 16  1  1  0  0  0
  1 37  1  0  0  0
  1  2  1  0  0  0
 37 38  1  0  0  0
 38 39  2  0  0  0
 38 43  1  0  0  0
 39 40  1  0  0  0
 40 41  2  0  0  0
 41 42  1  0  0  0
 42 43  2  0  0  0
  2  3  2  0  0  0
  2  4  1  0  0  0
  4  6  1  0  0  0
  6 13  1  0  0  0
  6  7  1  0  0  0
 13 14  1  0  0  0
 13 15  1  0  0  0
  7  8  1  0  0  0
  7 11  2  0  0  0
  8  9  1  0  0  0
  9 10  2  0  0  0
 10 11  1  0  0  0
 23 24  1  0  0  0
 18 19  1  0  0  0
  4  5  1  0  0  0
  8 12  1  0  0  0
M  END
> <minimizedAffinity>
-9.79111

$$$$
1SBG_IM1_A_400


 43 45  0  0  0  0  0  0  0  0999 V2000
   -9.2125   15.6731   29.6336 C   0  0  0  0  0  0  0  0  0  0  0  0
  -10.7466   15.4451   29.5212 C   0  0  0  0  0  0  0  0  0  0  0  0
  -11.5473   16.1905   28.9140 O   0  0  0  0  0  0  0  0  0  0  0  0
  -11.2012   14.3676   30.1446 N   0  0  0  0  0  0  0  0  0  0  0  0
  -10.5638   13.7785   30.6092 H   0  0  0  0  0  0  0  0  0  0  0  0
  -12.6013   14.0355   30.1606 C   0  0  0  0  0  0  0  0  0  0  0  0
  -12.8733   14.1624   31.6454 C   0  0  0  0  0  0  0  0  0  0  0  0
  -12.0383   13.7655   32.6113 N   0  0  0  0  0  0  0  0  0  0  0  0
  -12.6844   14.2490   33.6495 C   0  0  0  0  0  0  0  0  0  0  0  0
  -13.8901   14.9134   33.3041 C   0  0  0  0  0  0  0  0  0  0  0  0
  -13.9712   14.8327   31.9936 N   0  0  0  0  0  0  0  0  0  0  0  0
  -11.1936   13.2623   32.5606 H   0  0  0  0  0  0  0  0  0  0  0  0
  -12.8197   12.6333   29.6523 C   0  0  0  0  0  0  0  0  0  0  0  0
  -14.1569   12.0919   30.1033 C   0  0  0  0  0  0  0  0  0  0  0  0
  -12.7471   12.6748   28.1234 C   0  0  0  0  0  0  0  0  0  0  0  0
   -8.6939   16.3139   28.4095 C   0  0  0  0  0  0  0  0  0  0  0  0
   -8.5912   17.7896   28.3201 C   0  0  0  0  0  0  0  0  0  0  0  0
   -9.9185   18.2200   28.0620 O   0  0  0  0  0  0  0  0  0  0  0  0
  -10.2634   17.7556   27.2834 H   0  0  0  0  0  0  0  0  0  0  0  0
   -7.6233   18.0340   27.1311 C   0  0  0  0  0  0  0  0  0  0  0  0
   -7.9129   17.1806   24.8214 C   0  0  0  0  0  0  0  0  0  0  0  0
   -7.2159   16.2086   25.1685 O   0  0  0  0  0  0  0  0  0  0  0  0
   -8.1689   18.1355   25.7479 N   0  0  0  0  0  0  0  0  0  0  0  0
   -8.7250   18.9101   25.5030 H   0  0  0  0  0  0  0  0  0  0  0  0
   -8.4179   17.2708   23.5066 O   0  0  0  0  0  0  0  0  0  0  0  0
   -9.1101   16.2371   22.8479 C   0  0  0  0  0  0  0  0  0  0  0  0
   -8.2768   15.0093   22.5047 C   0  0  0  0  0  0  0  0  0  0  0  0
  -10.2783   15.7447   23.6646 C   0  0  0  0  0  0  0  0  0  0  0  0
   -9.5666   16.7198   21.4835 C   0  0  0  0  0  0  0  0  0  0  0  0
   -6.7572   19.2945   27.4003 C   0  0  0  0  0  0  0  0  0  0  0  0
   -5.4502   19.2096   26.5978 C   0  0  0  0  0  0  0  0  0  0  0  0
   -4.5950   18.1055   26.7419 C   0  0  0  0  0  0  0  0  0  0  0  0
   -3.4683   17.9679   25.9228 C   0  0  0  0  0  0  0  0  0  0  0  0
   -3.1910   18.9352   24.9666 C   0  0  0  0  0  0  0  0  0  0  0  0
   -4.0356   20.0475   24.8230 C   0  0  0  0  0  0  0  0  0  0  0  0
   -5.1619   20.1921   25.6307 C   0  0  0  0  0  0  0  0  0  0  0  0
   -8.7845   16.6306   30.7659 C   0  0  0  0  0  0  0  0  0  0  0  0
   -8.9210   16.0856   32.1855 C   0  0  0  0  0  0  0  0  0  0  0  0
   -8.5494   14.7674   32.4934 C   0  0  0  0  0  0  0  0  0  0  0  0
   -8.7111   14.3106   33.8054 C   0  0  0  0  0  0  0  0  0  0  0  0
   -9.2375   15.1609   34.8043 C   0  0  0  0  0  0  0  0  0  0  0  0
   -9.6005   16.4627   34.4938 C   0  0  0  0  0  0  0  0  0  0  0  0
   -9.4424   16.9213   33.1876 C   0  0  0  0  0  0  0  0  0  0  0  0
 26 27  1  0  0  0
 26 28  1  0  0  0
 26 29  1  0  0  0
 26 25  1  0  0  0
 25 21  1  0  0  0
 21 22  2  0  0  0
 21 23  1  0  0  0
 23 20  1  0  0  0
 20 30  1  0  0  0
 20 17  1  0  0  0
 30 31  1  0  0  0
 31 32  2  0  0  0
 31 36  1  0  0  0
 32 33  1  0  0  0
 33 34  2  0  0  0
 34 35  1  0  0  0
 35 36  2  0  0  0
 17 18  1  0  0  0
 17 16  1  0  0  0
 16  1  1  0  0  0
  1 37  1  0  0  0
  1  2  1  0  0  0
 37 38  1  0  0  0
 38 39  2  0  0  0
 38 43  1  0  0  0
 39 40  1  0  0  0
 40 41  2  0  0  0
 41 42  1  0  0  0
 42 43  2  0  0  0
  2  3  2  0  0  0
  2  4  1  0  0  0
  4  6  1  0  0  0
  6 13  1  0  0  0
  6  7  1  0  0  0
 13 14  1  0  0  0
 13 15  1  0  0  0
  7  8  1  0  0  0
  7 11  2  0  0  0
  8  9  1  0  0  0
  9 10  2  0  0  0
 10 11  1  0  0  0
 23 24  1  0  0  0
 18 19  1  0  0  0
  4  5  1  0  0  0
  8 12  1  0  0  0
M  END
> <minimizedAffinity>
-9.53233

$$$$
1SBG_IM1_A_400


 43 45  0  0  0  0  0  0  0  0999 V2000
  -11.2640   15.8396   28.9258 C   0  0  0  0  0  0  0  0  0  0  0  0
  -10.2809   15.2717   29.9884 C   0  0  0  0  0  0  0  0  0  0  0  0
   -9.2769   14.5666   29.7431 O   0  0  0  0  0  0  0  0  0  0  0  0
  -10.5759   15.5742   31.2445 N   0  0  0  0  0  0  0  0  0  0  0  0
  -11.3598   16.1404   31.4294 H   0  0  0  0  0  0  0  0  0  0  0  0
   -9.7812   15.0975   32.3455 C   0  0  0  0  0  0  0  0  0  0  0  0
  -10.8868   14.7327   33.3147 C   0  0  0  0  0  0  0  0  0  0  0  0
  -10.7752   13.8318   34.2964 N   0  0  0  0  0  0  0  0  0  0  0  0
  -11.9292   14.0371   34.8924 C   0  0  0  0  0  0  0  0  0  0  0  0
  -12.7173   15.0376   34.2662 C   0  0  0  0  0  0  0  0  0  0  0  0
  -12.0008   15.4611   33.2476 N   0  0  0  0  0  0  0  0  0  0  0  0
  -10.0476   13.2036   34.5091 H   0  0  0  0  0  0  0  0  0  0  0  0
   -8.8919   16.1948   32.8720 C   0  0  0  0  0  0  0  0  0  0  0  0
   -7.4932   15.6848   33.1335 C   0  0  0  0  0  0  0  0  0  0  0  0
   -8.8667   17.3156   31.8291 C   0  0  0  0  0  0  0  0  0  0  0  0
  -10.5205   16.4830   27.8252 C   0  0  0  0  0  0  0  0  0  0  0  0
   -9.9172   17.8239   28.0096 C   0  0  0  0  0  0  0  0  0  0  0  0
  -10.9430   18.7271   27.6283 O   0  0  0  0  0  0  0  0  0  0  0  0
  -11.2551   18.5045   26.7372 H   0  0  0  0  0  0  0  0  0  0  0  0
   -8.7009   17.8317   27.0448 C   0  0  0  0  0  0  0  0  0  0  0  0
   -8.5464   16.9998   24.7144 C   0  0  0  0  0  0  0  0  0  0  0  0
   -8.0125   15.9795   25.1887 O   0  0  0  0  0  0  0  0  0  0  0  0
   -8.9267   17.9718   25.5783 N   0  0  0  0  0  0  0  0  0  0  0  0
   -9.3598   18.7850   25.2312 H   0  0  0  0  0  0  0  0  0  0  0  0
   -8.7483   17.1257   23.3232 O   0  0  0  0  0  0  0  0  0  0  0  0
   -9.4169   16.1764   22.5276 C   0  0  0  0  0  0  0  0  0  0  0  0
   -8.6651   14.8719   22.2979 C   0  0  0  0  0  0  0  0  0  0  0  0
  -10.7523   15.8004   23.1186 C   0  0  0  0  0  0  0  0  0  0  0  0
   -9.5797   16.7175   21.1191 C   0  0  0  0  0  0  0  0  0  0  0  0
   -7.6827   18.9200   27.4809 C   0  0  0  0  0  0  0  0  0  0  0  0
   -6.2884   18.5777   26.9345 C   0  0  0  0  0  0  0  0  0  0  0  0
   -5.6199   19.4666   26.0779 C   0  0  0  0  0  0  0  0  0  0  0  0
   -4.3023   19.2133   25.6791 C   0  0  0  0  0  0  0  0  0  0  0  0
   -3.6556   18.0700   26.1281 C   0  0  0  0  0  0  0  0  0  0  0  0
   -4.3206   17.1709   26.9768 C   0  0  0  0  0  0  0  0  0  0  0  0
   -5.6310   17.4155   27.3829 C   0  0  0  0  0  0  0  0  0  0  0  0
  -12.1324   14.7776   28.2186 C   0  0  0  0  0  0  0  0  0  0  0  0
  -13.1217   14.0276   29.1074 C   0  0  0  0  0  0  0  0  0  0  0  0
  -13.0357   12.6362   29.2720 C   0  0  0  0  0  0  0  0  0  0  0  0
  -13.9773   11.9939   30.0826 C   0  0  0  0  0  0  0  0  0  0  0  0
  -14.9965   12.7321   30.7261 C   0  0  0  0  0  0  0  0  0  0  0  0
  -15.0743   14.1068   30.5609 C   0  0  0  0  0  0  0  0  0  0  0  0
  -14.1391   14.7503   29.7531 C   0  0  0  0  0  0  0  0  0  0  0  0
 26 27  1  0  0  0
 26 28  1  0  0  0
 26 29  1  0  0  0
 26 25  1  0  0  0
 25 21  1  0  0  0
 21 22  2  0  0  0
 21 23  1  0  0  0
 23 20  1  0  0  0
 20 30  1  0  0  0
 20 17  1  0  0  0
 30 31  1  0  0  0
 31 32  2  0  0  0
 31 36  1  0  0  0
 32 33  1  0  0  0
 33 34  2  0  0  0
 34 35  1  0  0  0
 35 36  2  0  0  0
 17 18  1  0  0  0
 17 16  1  0  0  0
 16  1  1  0  0  0
  1 37  1  0  0  0
  1  2  1  0  0  0
 37 38  1  0  0  0
 38 39  2  0  0  0
 38 43  1  0  0  0
 39 40  1  0  0  0
 40 41  2  0  0  0
 41 42  1  0  0  0
 42 43  2  0  0  0
  2  3  2  0  0  0
  2  4  1  0  0  0
  4  6  1  0  0  0
  6 13  1  0  0  0
  6  7  1  0  0  0
 13 14  1  0  0  0
 13 15  1  0  0  0
  7  8  1  0  0  0
  7 11  2  0  0  0
  8  9  1  0  0  0
  9 10  2  0  0  0
 10 11  1  0  0  0
 23 24  1  0  0  0
 18 19  1  0  0  0
  4  5  1  0  0  0
  8 12  1  0  0  0
M  END
> <minimizedAffinity>
-9.25143

$$$$
1SBG_IM1_A_400


 43 45  0  0  0  0  0  0  0  0999 V2000
   -8.7511   17.1459   26.8600 C   0  0  0  0  0  0  0  0  0  0  0  0
   -7.5403   18.1210   26.8998 C   0  0  0  0  0  0  0  0  0  0  0  0
   -7.4630   19.1517   27.6047 O   0  0  0  0  0  0  0  0  0  0  0  0
   -6.5358   17.8017   26.0965 N   0  0  0  0  0  0  0  0  0  0  0  0
   -6.5978   16.9822   25.5545 H   0  0  0  0  0  0  0  0  0  0  0  0
   -5.3567   18.6204   25.9953 C   0  0  0  0  0  0  0  0  0  0  0  0
   -5.6715   19.3575   24.7098 C   0  0  0  0  0  0  0  0  0  0  0  0
   -5.6833   20.6877   24.5756 N   0  0  0  0  0  0  0  0  0  0  0  0
   -5.8469   20.7588   23.2727 C   0  0  0  0  0  0  0  0  0  0  0  0
   -5.9414   19.4889   22.6461 C   0  0  0  0  0  0  0  0  0  0  0  0
   -5.8218   18.6095   23.6171 N   0  0  0  0  0  0  0  0  0  0  0  0
   -5.5957   21.4000   25.2496 H   0  0  0  0  0  0  0  0  0  0  0  0
   -4.1231   17.7620   25.8803 C   0  0  0  0  0  0  0  0  0  0  0  0
   -2.8936   18.6049   25.6302 C   0  0  0  0  0  0  0  0  0  0  0  0
   -3.9773   16.9774   27.1871 C   0  0  0  0  0  0  0  0  0  0  0  0
   -9.5749   17.2946   28.0754 C   0  0  0  0  0  0  0  0  0  0  0  0
  -11.0539   17.2622   27.9889 C   0  0  0  0  0  0  0  0  0  0  0  0
  -11.4677   18.4891   28.5692 O   0  0  0  0  0  0  0  0  0  0  0  0
  -11.0812   18.5746   29.4548 H   0  0  0  0  0  0  0  0  0  0  0  0
  -11.4585   16.0187   28.8256 C   0  0  0  0  0  0  0  0  0  0  0  0
  -10.4255   15.4428   31.0047 C   0  0  0  0  0  0  0  0  0  0  0  0
   -9.5739   14.8087   30.3535 O   0  0  0  0  0  0  0  0  0  0  0  0
  -11.3994   16.0827   30.3135 N   0  0  0  0  0  0  0  0  0  0  0  0
  -12.0800   16.5992   30.8027 H   0  0  0  0  0  0  0  0  0  0  0  0
  -10.3647   15.4904   32.4139 O   0  0  0  0  0  0  0  0  0  0  0  0
   -9.3539   16.1426   33.1447 C   0  0  0  0  0  0  0  0  0  0  0  0
   -8.6134   17.2426   32.3956 C   0  0  0  0  0  0  0  0  0  0  0  0
   -9.8986   16.7745   34.4009 C   0  0  0  0  0  0  0  0  0  0  0  0
   -8.2452   15.1583   33.4690 C   0  0  0  0  0  0  0  0  0  0  0  0
  -12.8807   15.5444   28.4207 C   0  0  0  0  0  0  0  0  0  0  0  0
  -13.2746   14.3125   29.2495 C   0  0  0  0  0  0  0  0  0  0  0  0
  -14.4082   14.3423   30.0771 C   0  0  0  0  0  0  0  0  0  0  0  0
  -14.8374   13.1843   30.7360 C   0  0  0  0  0  0  0  0  0  0  0  0
  -14.1313   12.0000   30.5754 C   0  0  0  0  0  0  0  0  0  0  0  0
  -12.9907   11.9643   29.7576 C   0  0  0  0  0  0  0  0  0  0  0  0
  -12.5572   13.1105   29.0942 C   0  0  0  0  0  0  0  0  0  0  0  0
   -9.7427   17.3967   25.7042 C   0  0  0  0  0  0  0  0  0  0  0  0
   -9.6350   16.4436   24.5163 C   0  0  0  0  0  0  0  0  0  0  0  0
  -10.7816   15.9973   23.8404 C   0  0  0  0  0  0  0  0  0  0  0  0
  -10.6302   15.1104   22.7696 C   0  0  0  0  0  0  0  0  0  0  0  0
   -9.3461   14.6722   22.3735 C   0  0  0  0  0  0  0  0  0  0  0  0
   -8.2175   15.1187   23.0442 C   0  0  0  0  0  0  0  0  0  0  0  0
   -8.3640   16.0013   24.1124 C   0  0  0  0  0  0  0  0  0  0  0  0
 26 27  1  0  0  0
 26 28  1  0  0  0
 26 29  1  0  0  0
 26 25  1  0  0  0
 25 21  1  0  0  0
 21 22  2  0  0  0
 21 23  1  0  0  0
 23 20  1  0  0  0
 20 30  1  0  0  0
 20 17  1  0  0  0
 30 31  1  0  0  0
 31 32  2  0  0  0
 31 36  1  0  0  0
 32 33  1  0  0  0
 33 34  2  0  0  0
 34 35  1  0  0  0
 35 36  2  0  0  0
 17 18  1  0  0  0
 17 16  1  0  0  0
 16  1  1  0  0  0
  1 37  1  0  0  0
  1  2  1  0  0  0
 37 38  1  0  0  0
 38 39  2  0  0  0
 38 43  1  0  0  0
 39 40  1  0  0  0
 40 41  2  0  0  0
 41 42  1  0  0  0
 42 43  2  0  0  0
  2  3  2  0  0  0
  2  4  1  0  0  0
  4  6  1  0  0  0
  6 13  1  0  0  0
  6  7  1  0  0  0
 13 14  1  0  0  0
 13 15  1  0  0  0
  7  8  1  0  0  0
  7 11  2  0  0  0
  8  9  1  0  0  0
  9 10  2  0  0  0
 10 11  1  0  0  0
 23 24  1  0  0  0
 18 19  1  0  0  0
  4  5  1  0  0  0
  8 12  1  0  0  0
M  END
> <minimizedAffinity>
-9.24064

$$$$
1SBG_IM1_A_400


 43 45  0  0  0  0  0  0  0  0999 V2000
   -9.4640   15.4967   25.7041 C   0  0  0  0  0  0  0  0  0  0  0  0
   -8.9508   16.9634   25.7648 C   0  0  0  0  0  0  0  0  0  0  0  0
   -9.6700   17.9775   25.9049 O   0  0  0  0  0  0  0  0  0  0  0  0
   -7.6388   17.1046   25.6419 N   0  0  0  0  0  0  0  0  0  0  0  0
   -7.0776   16.3015   25.5451 H   0  0  0  0  0  0  0  0  0  0  0  0
   -7.0123   18.4000   25.6461 C   0  0  0  0  0  0  0  0  0  0  0  0
   -6.4504   18.4126   24.2393 C   0  0  0  0  0  0  0  0  0  0  0  0
   -7.1492   18.7160   23.1406 N   0  0  0  0  0  0  0  0  0  0  0  0
   -6.1638   18.7272   22.2700 C   0  0  0  0  0  0  0  0  0  0  0  0
   -4.9014   18.4242   22.8431 C   0  0  0  0  0  0  0  0  0  0  0  0
   -5.1357   18.2279   24.1226 N   0  0  0  0  0  0  0  0  0  0  0  0
   -8.1122   18.8814   23.0197 H   0  0  0  0  0  0  0  0  0  0  0  0
   -5.9346   18.4647   26.6979 C   0  0  0  0  0  0  0  0  0  0  0  0
   -6.2032   19.5765   27.6862 C   0  0  0  0  0  0  0  0  0  0  0  0
   -5.8982   17.1109   27.4123 C   0  0  0  0  0  0  0  0  0  0  0  0
  -10.3319   15.2043   26.8614 C   0  0  0  0  0  0  0  0  0  0  0  0
   -9.7812   15.2241   28.2371 C   0  0  0  0  0  0  0  0  0  0  0  0
   -8.5883   14.4605   28.1499 O   0  0  0  0  0  0  0  0  0  0  0  0
   -8.7881   13.5911   27.7690 H   0  0  0  0  0  0  0  0  0  0  0  0
  -10.8818   14.5491   29.0991 C   0  0  0  0  0  0  0  0  0  0  0  0
  -10.6364   15.9606   31.1226 C   0  0  0  0  0  0  0  0  0  0  0  0
  -10.4225   16.9116   30.3472 O   0  0  0  0  0  0  0  0  0  0  0  0
  -10.8819   14.7452   30.5766 N   0  0  0  0  0  0  0  0  0  0  0  0
  -11.0635   13.9780   31.1662 H   0  0  0  0  0  0  0  0  0  0  0  0
  -10.6263   16.1557   32.5203 O   0  0  0  0  0  0  0  0  0  0  0  0
   -9.4711   16.1003   33.3227 C   0  0  0  0  0  0  0  0  0  0  0  0
   -8.2156   16.6976   32.7011 C   0  0  0  0  0  0  0  0  0  0  0  0
   -9.6753   16.8104   34.6372 C   0  0  0  0  0  0  0  0  0  0  0  0
   -9.0747   14.6521   33.5439 C   0  0  0  0  0  0  0  0  0  0  0  0
  -12.2878   14.9328   28.5629 C   0  0  0  0  0  0  0  0  0  0  0  0
  -13.3639   14.1100   29.2872 C   0  0  0  0  0  0  0  0  0  0  0  0
  -13.2922   12.7082   29.3141 C   0  0  0  0  0  0  0  0  0  0  0  0
  -14.2014   11.9648   30.0758 C   0  0  0  0  0  0  0  0  0  0  0  0
  -15.1860   12.6194   30.8032 C   0  0  0  0  0  0  0  0  0  0  0  0
  -15.2708   14.0205   30.7734 C   0  0  0  0  0  0  0  0  0  0  0  0
  -14.3683   14.7701   30.0215 C   0  0  0  0  0  0  0  0  0  0  0  0
  -10.3501   15.1740   24.4823 C   0  0  0  0  0  0  0  0  0  0  0  0
   -9.7511   15.5094   23.1186 C   0  0  0  0  0  0  0  0  0  0  0  0
  -10.5201   16.1347   22.1245 C   0  0  0  0  0  0  0  0  0  0  0  0
   -9.9296   16.4042   20.8856 C   0  0  0  0  0  0  0  0  0  0  0  0
   -8.5823   16.0552   20.6388 C   0  0  0  0  0  0  0  0  0  0  0  0
   -7.8278   15.4397   21.6261 C   0  0  0  0  0  0  0  0  0  0  0  0
   -8.4126   15.1681   22.8612 C   0  0  0  0  0  0  0  0  0  0  0  0
 26 27  1  0  0  0
 26 28  1  0  0  0
 26 29  1  0  0  0
 26 25  1  0  0  0
 25 21  1  0  0  0
 21 22  2  0  0  0
 21 23  1  0  0  0
 23 20  1  0  0  0
 20 30  1  0  0  0
 20 17  1  0  0  0
 30 31  1  0  0  0
 31 32  2  0  0  0
 31 36  1  0  0  0
 32 33  1  0  0  0
 33 34  2  0  0  0
 34 35  1  0  0  0
 35 36  2  0  0  0
 17 18  1  0  0  0
 17 16  1  0  0  0
 16  1  1  0  0  0
  1 37  1  0  0  0
  1  2  1  0  0  0
 37 38  1  0  0  0
 38 39  2  0  0  0
 38 43  1  0  0  0
 39 40  1  0  0  0
 40 41  2  0  0  0
 41 42  1  0  0  0
 42 43  2  0  0  0
  2  3  2  0  0  0
  2  4  1  0  0  0
  4  6  1  0  0  0
  6 13  1  0  0  0
  6  7  1  0  0  0
 13 14  1  0  0  0
 13 15  1  0  0  0
  7  8  1  0  0  0
  7 11  2  0  0  0
  8  9  1  0  0  0
  9 10  2  0  0  0
 10 11  1  0  0  0
 23 24  1  0  0  0
 18 19  1  0  0  0
  4  5  1  0  0  0
  8 12  1  0  0  0
M  END
> <minimizedAffinity>
-9.16371

$$$$
1SBG_IM1_A_400


 43 45  0  0  0  0  0  0  0  0999 V2000
  -11.0051   14.9324   29.7643 C   0  0  0  0  0  0  0  0  0  0  0  0
  -12.4147   14.4250   30.1812 C   0  0  0  0  0  0  0  0  0  0  0  0
  -13.4993   14.8222   29.7003 O   0  0  0  0  0  0  0  0  0  0  0  0
  -12.4208   13.5054   31.1355 N   0  0  0  0  0  0  0  0  0  0  0  0
  -11.5632   13.1879   31.5001 H   0  0  0  0  0  0  0  0  0  0  0  0
  -13.6470   12.9585   31.6531 C   0  0  0  0  0  0  0  0  0  0  0  0
  -13.3547   13.0447   33.1370 C   0  0  0  0  0  0  0  0  0  0  0  0
  -12.2587   13.5960   33.6686 N   0  0  0  0  0  0  0  0  0  0  0  0
  -12.5995   13.5422   34.9375 C   0  0  0  0  0  0  0  0  0  0  0  0
  -13.8744   12.9577   35.1547 C   0  0  0  0  0  0  0  0  0  0  0  0
  -14.3273   12.6507   33.9585 N   0  0  0  0  0  0  0  0  0  0  0  0
  -11.4419   13.9391   33.2391 H   0  0  0  0  0  0  0  0  0  0  0  0
  -13.8341   11.5383   31.1840 C   0  0  0  0  0  0  0  0  0  0  0  0
  -15.1894   11.3503   30.5416 C   0  0  0  0  0  0  0  0  0  0  0  0
  -12.7191   11.2274   30.1817 C   0  0  0  0  0  0  0  0  0  0  0  0
  -11.0324   15.4610   28.3866 C   0  0  0  0  0  0  0  0  0  0  0  0
  -11.0429   16.9227   28.1432 C   0  0  0  0  0  0  0  0  0  0  0  0
  -12.4185   17.2504   28.0256 O   0  0  0  0  0  0  0  0  0  0  0  0
  -12.8278   16.6893   27.3484 H   0  0  0  0  0  0  0  0  0  0  0  0
  -10.2541   17.0950   26.8172 C   0  0  0  0  0  0  0  0  0  0  0  0
   -8.0142   17.9128   27.4963 C   0  0  0  0  0  0  0  0  0  0  0  0
   -7.9483   16.9093   28.2310 O   0  0  0  0  0  0  0  0  0  0  0  0
   -9.1336   18.0754   26.7503 N   0  0  0  0  0  0  0  0  0  0  0  0
   -9.2080   18.8550   26.1537 H   0  0  0  0  0  0  0  0  0  0  0  0
   -6.9506   18.8392   27.4465 O   0  0  0  0  0  0  0  0  0  0  0  0
   -5.8137   18.7015   26.6281 C   0  0  0  0  0  0  0  0  0  0  0  0
   -5.9407   17.6859   25.5003 C   0  0  0  0  0  0  0  0  0  0  0  0
   -5.4343   20.0104   25.9825 C   0  0  0  0  0  0  0  0  0  0  0  0
   -4.6625   18.1460   27.4463 C   0  0  0  0  0  0  0  0  0  0  0  0
   -9.7193   15.7197   26.3334 C   0  0  0  0  0  0  0  0  0  0  0  0
   -9.6153   15.7110   24.8009 C   0  0  0  0  0  0  0  0  0  0  0  0
   -8.4024   15.3920   24.1700 C   0  0  0  0  0  0  0  0  0  0  0  0
   -8.3380   15.2636   22.7777 C   0  0  0  0  0  0  0  0  0  0  0  0
   -9.4811   15.4614   22.0153 C   0  0  0  0  0  0  0  0  0  0  0  0
  -10.6957   15.7907   22.6377 C   0  0  0  0  0  0  0  0  0  0  0  0
  -10.7715   15.9172   24.0234 C   0  0  0  0  0  0  0  0  0  0  0  0
  -10.4696   16.1106   30.6053 C   0  0  0  0  0  0  0  0  0  0  0  0
   -9.9160   15.7485   31.9813 C   0  0  0  0  0  0  0  0  0  0  0  0
   -9.0443   14.6608   32.1473 C   0  0  0  0  0  0  0  0  0  0  0  0
   -8.5794   14.3595   33.4316 C   0  0  0  0  0  0  0  0  0  0  0  0
   -8.9784   15.1369   34.5426 C   0  0  0  0  0  0  0  0  0  0  0  0
   -9.8380   16.2114   34.3712 C   0  0  0  0  0  0  0  0  0  0  0  0
  -10.3046   16.5140   33.0937 C   0  0  0  0  0  0  0  0  0  0  0  0
 26 27  1  0  0  0
 26 28  1  0  0  0
 26 29  1  0  0  0
 26 25  1  0  0  0
 25 21  1  0  0  0
 21 22  2  0  0  0
 21 23  1  0  0  0
 23 20  1  0  0  0
 20 30  1  0  0  0
 20 17  1  0  0  0
 30 31  1  0  0  0
 31 32  2  0  0  0
 31 36  1  0  0  0
 32 33  1  0  0  0
 33 34  2  0  0  0
 34 35  1  0  0  0
 35 36  2  0  0  0
 17 18  1  0  0  0
 17 16  1  0  0  0
 16  1  1  0  0  0
  1 37  1  0  0  0
  1  2  1  0  0  0
 37 38  1  0  0  0
 38 39  2  0  0  0
 38 43  1  0  0  0
 39 40  1  0  0  0
 40 41  2  0  0  0
 41 42  1  0  0  0
 42 43  2  0  0  0
  2  3  2  0  0  0
  2  4  1  0  0  0
  4  6  1  0  0  0
  6 13  1  0  0  0
  6  7  1  0  0  0
 13 14  1  0  0  0
 13 15  1  0  0  0
  7  8  1  0  0  0
  7 11  2  0  0  0
  8  9  1  0  0  0
  9 10  2  0  0  0
 10 11  1  0  0  0
 23 24  1  0  0  0
 18 19  1  0  0  0
  4  5  1  0  0  0
  8 12  1  0  0  0
M  END
> <minimizedAffinity>
-9.06942

$$$$
1SBG_IM1_A_400


 43 45  0  0  0  0  0  0  0  0999 V2000
  -11.2338   14.7307   29.7355 C   0  0  0  0  0  0  0  0  0  0  0  0
  -12.6227   14.2252   30.2187 C   0  0  0  0  0  0  0  0  0  0  0  0
  -13.7267   14.5816   29.7501 O   0  0  0  0  0  0  0  0  0  0  0  0
  -12.5871   13.3559   31.2183 N   0  0  0  0  0  0  0  0  0  0  0  0
  -11.7146   13.0698   31.5734 H   0  0  0  0  0  0  0  0  0  0  0  0
  -13.7893   12.8187   31.7988 C   0  0  0  0  0  0  0  0  0  0  0  0
  -13.4459   12.9622   33.2672 C   0  0  0  0  0  0  0  0  0  0  0  0
  -13.2165   11.9423   34.1009 N   0  0  0  0  0  0  0  0  0  0  0  0
  -12.8224   12.6252   35.1533 C   0  0  0  0  0  0  0  0  0  0  0  0
  -12.8288   14.0297   34.9490 C   0  0  0  0  0  0  0  0  0  0  0  0
  -13.2397   14.2016   33.7113 N   0  0  0  0  0  0  0  0  0  0  0  0
  -13.3134   10.9718   33.9671 H   0  0  0  0  0  0  0  0  0  0  0  0
  -13.9796   11.3807   31.3890 C   0  0  0  0  0  0  0  0  0  0  0  0
  -15.3120   11.1806   30.7039 C   0  0  0  0  0  0  0  0  0  0  0  0
  -12.8318   11.0085   30.4464 C   0  0  0  0  0  0  0  0  0  0  0  0
  -11.2880   15.1070   28.3095 C   0  0  0  0  0  0  0  0  0  0  0  0
  -11.5609   16.5084   27.9125 C   0  0  0  0  0  0  0  0  0  0  0  0
  -12.7765   16.4377   27.1839 O   0  0  0  0  0  0  0  0  0  0  0  0
  -12.6878   15.7879   26.4692 H   0  0  0  0  0  0  0  0  0  0  0  0
  -10.3410   16.9021   27.0367 C   0  0  0  0  0  0  0  0  0  0  0  0
   -9.9898   16.0673   24.7287 C   0  0  0  0  0  0  0  0  0  0  0  0
   -9.3921   15.1036   25.2438 O   0  0  0  0  0  0  0  0  0  0  0  0
  -10.5008   17.0085   25.5587 N   0  0  0  0  0  0  0  0  0  0  0  0
  -10.9862   17.7761   25.1788 H   0  0  0  0  0  0  0  0  0  0  0  0
  -10.1285   16.1623   23.3275 O   0  0  0  0  0  0  0  0  0  0  0  0
   -9.0638   16.3966   22.4370 C   0  0  0  0  0  0  0  0  0  0  0  0
   -9.4696   16.8324   21.0352 C   0  0  0  0  0  0  0  0  0  0  0  0
   -8.1283   17.4577   22.9592 C   0  0  0  0  0  0  0  0  0  0  0  0
   -8.3218   15.0982   22.1786 C   0  0  0  0  0  0  0  0  0  0  0  0
   -9.7236   18.2311   27.5506 C   0  0  0  0  0  0  0  0  0  0  0  0
   -8.1910   18.1559   27.4780 C   0  0  0  0  0  0  0  0  0  0  0  0
   -7.4209   19.3285   27.4266 C   0  0  0  0  0  0  0  0  0  0  0  0
   -6.0238   19.2641   27.4848 C   0  0  0  0  0  0  0  0  0  0  0  0
   -5.3960   18.0301   27.5857 C   0  0  0  0  0  0  0  0  0  0  0  0
   -6.1586   16.8521   27.6273 C   0  0  0  0  0  0  0  0  0  0  0  0
   -7.5500   16.9054   27.5740 C   0  0  0  0  0  0  0  0  0  0  0  0
  -10.7325   16.0092   30.4399 C   0  0  0  0  0  0  0  0  0  0  0  0
   -9.6056   15.8135   31.4513 C   0  0  0  0  0  0  0  0  0  0  0  0
   -9.5440   14.6623   32.2523 C   0  0  0  0  0  0  0  0  0  0  0  0
   -8.5014   14.5392   33.1764 C   0  0  0  0  0  0  0  0  0  0  0  0
   -7.5259   15.5545   33.3009 C   0  0  0  0  0  0  0  0  0  0  0  0
   -7.5915   16.6881   32.5050 C   0  0  0  0  0  0  0  0  0  0  0  0
   -8.6294   16.8153   31.5841 C   0  0  0  0  0  0  0  0  0  0  0  0
 26 27  1  0  0  0
 26 28  1  0  0  0
 26 29  1  0  0  0
 26 25  1  0  0  0
 25 21  1  0  0  0
 21 22  2  0  0  0
 21 23  1  0  0  0
 23 20  1  0  0  0
 20 30  1  0  0  0
 20 17  1  0  0  0
 30 31  1  0  0  0
 31 32  2  0  0  0
 31 36  1  0  0  0
 32 33  1  0  0  0
 33 34  2  0  0  0
 34 35  1  0  0  0
 35 36  2  0  0  0
 17 18  1  0  0  0
 17 16  1  0  0  0
 16  1  1  0  0  0
  1 37  1  0  0  0
  1  2  1  0  0  0
 37 38  1  0  0  0
 38 39  2  0  0  0
 38 43  1  0  0  0
 39 40  1  0  0  0
 40 41  2  0  0  0
 41 42  1  0  0  0
 42 43  2  0  0  0
  2  3  2  0  0  0
  2  4  1  0  0  0
  4  6  1  0  0  0
  6 13  1  0  0  0
  6  7  1  0  0  0
 13 14  1  0  0  0
 13 15  1  0  0  0
  7  8  1  0  0  0
  7 11  2  0  0  0
  8  9  1  0  0  0
  9 10  2  0  0  0
 10 11  1  0  0  0
 23 24  1  0  0  0
 18 19  1  0  0  0
  4  5  1  0  0  0
  8 12  1  0  0  0
M  END
> <minimizedAffinity>
-8.93818

$$$$
1SBG_IM1_A_400


 43 45  0  0  0  0  0  0  0  0999 V2000
   -9.2318   15.5531   25.7390 C   0  0  0  0  0  0  0  0  0  0  0  0
   -8.7495   17.0315   25.7299 C   0  0  0  0  0  0  0  0  0  0  0  0
   -9.4921   18.0363   25.7942 O   0  0  0  0  0  0  0  0  0  0  0  0
   -7.4377   17.1934   25.6329 N   0  0  0  0  0  0  0  0  0  0  0  0
   -6.8584   16.3983   25.5960 H   0  0  0  0  0  0  0  0  0  0  0  0
   -6.8373   18.5001   25.5800 C   0  0  0  0  0  0  0  0  0  0  0  0
   -6.3325   18.4877   24.1517 C   0  0  0  0  0  0  0  0  0  0  0  0
   -7.0558   18.8381   23.0832 N   0  0  0  0  0  0  0  0  0  0  0  0
   -6.1072   18.7962   22.1735 C   0  0  0  0  0  0  0  0  0  0  0  0
   -4.8428   18.4161   22.6941 C   0  0  0  0  0  0  0  0  0  0  0  0
   -5.0368   18.2265   23.9813 N   0  0  0  0  0  0  0  0  0  0  0  0
   -8.0114   19.0606   23.0019 H   0  0  0  0  0  0  0  0  0  0  0  0
   -5.7198   18.6115   26.5854 C   0  0  0  0  0  0  0  0  0  0  0  0
   -5.9958   19.7083   27.5882 C   0  0  0  0  0  0  0  0  0  0  0  0
   -5.5922   17.2594   27.2926 C   0  0  0  0  0  0  0  0  0  0  0  0
  -10.0281   15.2765   26.9504 C   0  0  0  0  0  0  0  0  0  0  0  0
   -9.4815   15.5802   28.2940 C   0  0  0  0  0  0  0  0  0  0  0  0
   -8.8086   14.3911   28.6774 O   0  0  0  0  0  0  0  0  0  0  0  0
   -9.4176   13.6391   28.6106 H   0  0  0  0  0  0  0  0  0  0  0  0
  -10.7356   15.8829   29.1574 C   0  0  0  0  0  0  0  0  0  0  0  0
  -12.6937   14.3833   29.4115 C   0  0  0  0  0  0  0  0  0  0  0  0
  -13.1988   14.9966   28.4523 O   0  0  0  0  0  0  0  0  0  0  0  0
  -11.4590   14.7618   29.8216 N   0  0  0  0  0  0  0  0  0  0  0  0
  -11.0322   14.2878   30.5715 H   0  0  0  0  0  0  0  0  0  0  0  0
  -13.3907   13.3283   30.0383 O   0  0  0  0  0  0  0  0  0  0  0  0
  -14.3785   13.5038   31.0257 C   0  0  0  0  0  0  0  0  0  0  0  0
  -15.2901   14.7080   30.8300 C   0  0  0  0  0  0  0  0  0  0  0  0
  -15.2797   12.2990   31.1277 C   0  0  0  0  0  0  0  0  0  0  0  0
  -13.7175   13.8016   32.3589 C   0  0  0  0  0  0  0  0  0  0  0  0
  -10.3936   16.9428   30.2396 C   0  0  0  0  0  0  0  0  0  0  0  0
   -9.7903   16.2527   31.4723 C   0  0  0  0  0  0  0  0  0  0  0  0
   -8.3990   16.1225   31.6074 C   0  0  0  0  0  0  0  0  0  0  0  0
   -7.8448   15.6058   32.7843 C   0  0  0  0  0  0  0  0  0  0  0  0
   -8.6787   15.2119   33.8219 C   0  0  0  0  0  0  0  0  0  0  0  0
  -10.0715   15.3293   33.6907 C   0  0  0  0  0  0  0  0  0  0  0  0
  -10.6333   15.8460   32.5248 C   0  0  0  0  0  0  0  0  0  0  0  0
  -10.1760   15.1762   24.5778 C   0  0  0  0  0  0  0  0  0  0  0  0
   -9.6668   15.4977   23.1749 C   0  0  0  0  0  0  0  0  0  0  0  0
  -10.5225   16.0338   22.1997 C   0  0  0  0  0  0  0  0  0  0  0  0
  -10.0114   16.2939   20.9240 C   0  0  0  0  0  0  0  0  0  0  0  0
   -8.6573   16.0235   20.6218 C   0  0  0  0  0  0  0  0  0  0  0  0
   -7.8170   15.4959   21.5906 C   0  0  0  0  0  0  0  0  0  0  0  0
   -8.3225   15.2341   22.8623 C   0  0  0  0  0  0  0  0  0  0  0  0
 26 27  1  0  0  0
 26 28  1  0  0  0
 26 29  1  0  0  0
 26 25  1  0  0  0
 25 21  1  0  0  0
 21 22  2  0  0  0
 21 23  1  0  0  0
 23 20  1  0  0  0
 20 30  1  0  0  0
 20 17  1  0  0  0
 30 31  1  0  0  0
 31 32  2  0  0  0
 31 36  1  0  0  0
 32 33  1  0  0  0
 33 34  2  0  0  0
 34 35  1  0  0  0
 35 36  2  0  0  0
 17 18  1  0  0  0
 17 16  1  0  0  0
 16  1  1  0  0  0
  1 37  1  0  0  0
  1  2  1  0  0  0
 37 38  1  0  0  0
 38 39  2  0  0  0
 38 43  1  0  0  0
 39 40  1  0  0  0
 40 41  2  0  0  0
 41 42  1  0  0  0
 42 43  2  0  0  0
  2  3  2  0  0  0
  2  4  1  0  0  0
  4  6  1  0  0  0
  6 13  1  0  0  0
  6  7  1  0  0  0
 13 14  1  0  0  0
 13 15  1  0  0  0
  7  8  1  0  0  0
  7 11  2  0  0  0
  8  9  1  0  0  0
  9 10  2  0  0  0
 10 11  1  0  0  0
 23 24  1  0  0  0
 18 19  1  0  0  0
  4  5  1  0  0  0
  8 12  1  0  0  0
M  END
> <minimizedAffinity>
-8.82412

$$$$
