5KQX_ROC_A_101


 55 59  0  0  0  0  0  0  0  0999 V2000
  -18.2418   12.1223  -19.1910 C   0  0  0  0  0  0  0  0  0  0  0  0
  -16.7952   10.3621  -18.2366 C   0  0  0  0  0  0  0  0  0  0  0  0
  -16.0391   10.3883  -19.1915 O   0  0  0  0  0  0  0  0  0  0  0  0
  -17.9628   11.2047  -18.1544 N   0  0  0  0  0  0  0  0  0  0  0  0
  -18.5640   11.1403  -17.3775 H   0  0  0  0  0  0  0  0  0  0  0  0
  -16.5584    9.4117  -17.0731 C   0  0  0  0  0  0  0  0  0  0  0  0
  -18.5200    8.0581  -16.4260 C   0  0  0  0  0  0  0  0  0  0  0  0
  -18.6880    8.7047  -15.4046 O   0  0  0  0  0  0  0  0  0  0  0  0
  -17.4546    8.3557  -17.3264 N   0  0  0  0  0  0  0  0  0  0  0  0
  -17.3438    7.8126  -18.1401 H   0  0  0  0  0  0  0  0  0  0  0  0
  -18.8510    6.0690  -17.7917 N   0  0  0  0  0  0  0  0  0  0  0  0
  -19.4225    6.8977  -16.8724 C   0  0  0  0  0  0  0  0  0  0  0  0
  -20.7315    6.7021  -16.4640 C   0  0  0  0  0  0  0  0  0  0  0  0
  -21.4458    5.6491  -16.9567 C   0  0  0  0  0  0  0  0  0  0  0  0
  -21.6029    3.7013  -18.3898 C   0  0  0  0  0  0  0  0  0  0  0  0
  -21.0189    2.8369  -19.3133 C   0  0  0  0  0  0  0  0  0  0  0  0
  -19.7113    3.0516  -19.7399 C   0  0  0  0  0  0  0  0  0  0  0  0
  -18.9768    4.1357  -19.2377 C   0  0  0  0  0  0  0  0  0  0  0  0
  -20.8659    4.7920  -17.8768 C   0  0  0  0  0  0  0  0  0  0  0  0
  -19.5718    5.0044  -18.2972 C   0  0  0  0  0  0  0  0  0  0  0  0
  -15.1279    8.9758  -17.0588 C   0  0  0  0  0  0  0  0  0  0  0  0
  -14.7859    8.5458  -15.6523 C   0  0  0  0  0  0  0  0  0  0  0  0
  -15.5115    8.8379  -14.7112 O   0  0  0  0  0  0  0  0  0  0  0  0
  -13.6113    7.7753  -15.4398 N   0  0  0  0  0  0  0  0  0  0  0  0
  -13.0308    7.5429  -16.2003 H   0  0  0  0  0  0  0  0  0  0  0  0
  -13.3779    7.4737  -14.5322 H   0  0  0  0  0  0  0  0  0  0  0  0
  -17.6075   13.4419  -18.7433 C   0  0  0  0  0  0  0  0  0  0  0  0
  -18.1995   13.9279  -17.5772 O   0  0  0  0  0  0  0  0  0  0  0  0
  -19.1390   14.1049  -17.7411 H   0  0  0  0  0  0  0  0  0  0  0  0
  -17.7122   14.4780  -19.8727 C   0  0  0  0  0  0  0  0  0  0  0  0
  -16.4956   14.3849  -20.6978 N   0  0  0  0  0  0  0  0  0  0  0  0
  -16.7264   15.2669  -21.9020 C   0  0  0  0  0  0  0  0  0  0  0  0
  -15.4692   15.4928  -22.7540 C   0  0  0  0  0  0  0  0  0  0  0  0
  -14.3254   15.9900  -21.9173 C   0  0  0  0  0  0  0  0  0  0  0  0
  -13.0896   16.0670  -22.8542 C   0  0  0  0  0  0  0  0  0  0  0  0
  -12.5794   14.6717  -23.2214 C   0  0  0  0  0  0  0  0  0  0  0  0
  -12.2689   13.8563  -21.9822 C   0  0  0  0  0  0  0  0  0  0  0  0
  -13.5322   13.7218  -21.1305 C   0  0  0  0  0  0  0  0  0  0  0  0
  -14.0817   15.1093  -20.7232 C   0  0  0  0  0  0  0  0  0  0  0  0
  -15.3419   14.8639  -19.8874 C   0  0  0  0  0  0  0  0  0  0  0  0
  -17.8181   14.6905  -22.7270 C   0  0  0  0  0  0  0  0  0  0  0  0
  -17.8321   13.5186  -23.0237 O   0  0  0  0  0  0  0  0  0  0  0  0
  -18.8337   15.6425  -23.1277 N   0  0  0  0  0  0  0  0  0  0  0  0
  -18.7284   16.5733  -22.8247 H   0  0  0  0  0  0  0  0  0  0  0  0
  -19.9920   15.3314  -23.9396 C   0  0  0  0  0  0  0  0  0  0  0  0
  -19.5555   14.6783  -25.2425 C   0  0  0  0  0  0  0  0  0  0  0  0
  -20.9494   14.4342  -23.1643 C   0  0  0  0  0  0  0  0  0  0  0  0
  -20.6615   16.6510  -24.2302 C   0  0  0  0  0  0  0  0  0  0  0  0
  -19.7410   12.2240  -19.3047 C   0  0  0  0  0  0  0  0  0  0  0  0
  -20.4024   10.8660  -19.6251 C   0  0  0  0  0  0  0  0  0  0  0  0
  -20.1318   10.2112  -20.8251 C   0  0  0  0  0  0  0  0  0  0  0  0
  -21.2334   10.2617  -18.6914 C   0  0  0  0  0  0  0  0  0  0  0  0
  -20.7139    8.9771  -21.0931 C   0  0  0  0  0  0  0  0  0  0  0  0
  -21.8087    9.0235  -18.9473 C   0  0  0  0  0  0  0  0  0  0  0  0
  -21.5545    8.3881  -20.1535 C   0  0  0  0  0  0  0  0  0  0  0  0
  8  7  2  0  0  0
  7 12  1  0  0  0
 11 12  2  0  0  0
 11 20  1  0  0  0
 12 13  1  0  0  0
 13 14  2  0  0  0
 14 19  1  0  0  0
 19 15  2  0  0  0
 19 20  1  0  0  0
 15 16  1  0  0  0
 16 17  2  0  0  0
 17 18  1  0  0  0
 18 20  2  0  0  0
  9  6  1  0  0  0
  6  2  1  0  0  0
  6 21  1  0  0  0
  2  3  2  0  0  0
 21 22  1  0  0  0
 22 23  2  0  0  0
 22 24  1  0  0  0
 27 28  1  0  0  0
 27  1  1  0  0  0
  1  4  1  0  0  0
  1 49  1  0  0  0
 49 50  1  0  0  0
 50 51  2  0  0  0
 50 52  1  0  0  0
 51 53  1  0  0  0
 52 54  2  0  0  0
 53 55  2  0  0  0
 54 55  1  0  0  0
 31 30  1  0  0  0
 31 32  1  0  0  0
 31 40  1  0  0  0
 32 41  1  0  0  0
 32 33  1  0  0  0
 41 42  2  0  0  0
 33 34  1  0  0  0
 34 35  1  0  0  0
 34 39  1  0  0  0
 35 36  1  0  0  0
 36 37  1  0  0  0
 37 38  1  0  0  0
 38 39  1  0  0  0
 39 40  1  0  0  0
 43 45  1  0  0  0
 45 46  1  0  0  0
 45 47  1  0  0  0
 45 48  1  0  0  0
  7  9  1  0  0  0
  2  4  1  0  0  0
 27 30  1  0  0  0
 41 43  1  0  0  0
  9 10  1  0  0  0
 24 25  1  0  0  0
 24 26  1  0  0  0
 28 29  1  0  0  0
  4  5  1  0  0  0
 43 44  1  0  0  0
M  END
> <minimizedAffinity>
-12.18566

$$$$
5KQX_ROC_A_101


 55 59  0  0  0  0  0  0  0  0999 V2000
  -16.7083   14.1613  -20.3103 C   0  0  0  0  0  0  0  0  0  0  0  0
  -17.8220   15.1767  -22.2675 C   0  0  0  0  0  0  0  0  0  0  0  0
  -18.2458   14.1017  -22.6536 O   0  0  0  0  0  0  0  0  0  0  0  0
  -17.0095   15.3045  -21.0828 N   0  0  0  0  0  0  0  0  0  0  0  0
  -16.6655   16.1867  -20.8133 H   0  0  0  0  0  0  0  0  0  0  0  0
  -18.1121   16.4570  -23.0353 C   0  0  0  0  0  0  0  0  0  0  0  0
  -16.4374   18.2666  -23.1751 C   0  0  0  0  0  0  0  0  0  0  0  0
  -17.1960   19.0722  -22.6601 O   0  0  0  0  0  0  0  0  0  0  0  0
  -16.8321   16.9150  -23.4022 N   0  0  0  0  0  0  0  0  0  0  0  0
  -16.1979   16.2907  -23.8232 H   0  0  0  0  0  0  0  0  0  0  0  0
  -14.5131   17.7732  -24.5840 N   0  0  0  0  0  0  0  0  0  0  0  0
  -14.9974   18.5875  -23.6038 C   0  0  0  0  0  0  0  0  0  0  0  0
  -14.1924   19.5590  -23.0323 C   0  0  0  0  0  0  0  0  0  0  0  0
  -12.9141   19.7296  -23.4784 C   0  0  0  0  0  0  0  0  0  0  0  0
  -11.0979   19.0916  -24.9502 C   0  0  0  0  0  0  0  0  0  0  0  0
  -10.6023   18.2780  -25.9667 C   0  0  0  0  0  0  0  0  0  0  0  0
  -11.4067   17.2862  -26.5213 C   0  0  0  0  0  0  0  0  0  0  0  0
  -12.7194   17.1068  -26.0614 C   0  0  0  0  0  0  0  0  0  0  0  0
  -12.4211   18.9186  -24.4867 C   0  0  0  0  0  0  0  0  0  0  0  0
  -13.2181   17.9387  -25.0356 C   0  0  0  0  0  0  0  0  0  0  0  0
  -18.9858   16.1552  -24.2110 C   0  0  0  0  0  0  0  0  0  0  0  0
  -20.1099   17.1633  -24.2270 C   0  0  0  0  0  0  0  0  0  0  0  0
  -19.8778   18.3635  -24.2827 O   0  0  0  0  0  0  0  0  0  0  0  0
  -21.4502   16.6929  -24.1960 N   0  0  0  0  0  0  0  0  0  0  0  0
  -21.6317   15.7263  -24.1513 H   0  0  0  0  0  0  0  0  0  0  0  0
  -22.1974   17.3335  -24.2193 H   0  0  0  0  0  0  0  0  0  0  0  0
  -17.8268   14.0722  -19.2685 C   0  0  0  0  0  0  0  0  0  0  0  0
  -17.9184   15.2400  -18.5107 O   0  0  0  0  0  0  0  0  0  0  0  0
  -17.0890   15.3774  -18.0269 H   0  0  0  0  0  0  0  0  0  0  0  0
  -17.5934   12.8566  -18.3586 C   0  0  0  0  0  0  0  0  0  0  0  0
  -18.2447   11.6880  -18.9748 N   0  0  0  0  0  0  0  0  0  0  0  0
  -17.9195   10.5036  -18.0957 C   0  0  0  0  0  0  0  0  0  0  0  0
  -18.7179    9.2384  -18.4412 C   0  0  0  0  0  0  0  0  0  0  0  0
  -20.1937    9.5155  -18.4697 C   0  0  0  0  0  0  0  0  0  0  0  0
  -20.8829    8.2067  -18.9419 C   0  0  0  0  0  0  0  0  0  0  0  0
  -20.6211    7.9418  -20.4262 C   0  0  0  0  0  0  0  0  0  0  0  0
  -21.0523    9.1183  -21.2788 C   0  0  0  0  0  0  0  0  0  0  0  0
  -20.2843   10.3690  -20.8480 C   0  0  0  0  0  0  0  0  0  0  0  0
  -20.5261   10.6858  -19.3533 C   0  0  0  0  0  0  0  0  0  0  0  0
  -19.7113   11.9407  -19.0243 C   0  0  0  0  0  0  0  0  0  0  0  0
  -16.4611   10.2333  -18.1609 C   0  0  0  0  0  0  0  0  0  0  0  0
  -15.8903   10.1075  -19.2192 O   0  0  0  0  0  0  0  0  0  0  0  0
  -15.8102   10.1390  -16.8702 N   0  0  0  0  0  0  0  0  0  0  0  0
  -16.3691   10.2647  -16.0696 H   0  0  0  0  0  0  0  0  0  0  0  0
  -14.4009    9.8743  -16.6662 C   0  0  0  0  0  0  0  0  0  0  0  0
  -13.9688    8.6781  -17.5010 C   0  0  0  0  0  0  0  0  0  0  0  0
  -13.5806   11.1125  -17.0072 C   0  0  0  0  0  0  0  0  0  0  0  0
  -14.2467    9.5552  -15.2005 C   0  0  0  0  0  0  0  0  0  0  0  0
  -15.3610   14.3938  -19.6767 C   0  0  0  0  0  0  0  0  0  0  0  0
  -14.2750   14.7538  -20.7137 C   0  0  0  0  0  0  0  0  0  0  0  0
  -13.7754   16.0521  -20.7957 C   0  0  0  0  0  0  0  0  0  0  0  0
  -13.7500   13.7683  -21.5388 C   0  0  0  0  0  0  0  0  0  0  0  0
  -12.7803   16.3599  -21.7169 C   0  0  0  0  0  0  0  0  0  0  0  0
  -12.7473   14.0659  -22.4529 C   0  0  0  0  0  0  0  0  0  0  0  0
  -12.2713   15.3652  -22.5461 C   0  0  0  0  0  0  0  0  0  0  0  0
  8  7  2  0  0  0
  7 12  1  0  0  0
 11 12  2  0  0  0
 11 20  1  0  0  0
 12 13  1  0  0  0
 13 14  2  0  0  0
 14 19  1  0  0  0
 19 15  2  0  0  0
 19 20  1  0  0  0
 15 16  1  0  0  0
 16 17  2  0  0  0
 17 18  1  0  0  0
 18 20  2  0  0  0
  9  6  1  0  0  0
  6  2  1  0  0  0
  6 21  1  0  0  0
  2  3  2  0  0  0
 21 22  1  0  0  0
 22 23  2  0  0  0
 22 24  1  0  0  0
 27 28  1  0  0  0
 27  1  1  0  0  0
  1  4  1  0  0  0
  1 49  1  0  0  0
 49 50  1  0  0  0
 50 51  2  0  0  0
 50 52  1  0  0  0
 51 53  1  0  0  0
 52 54  2  0  0  0
 53 55  2  0  0  0
 54 55  1  0  0  0
 31 30  1  0  0  0
 31 32  1  0  0  0
 31 40  1  0  0  0
 32 41  1  0  0  0
 32 33  1  0  0  0
 41 42  2  0  0  0
 33 34  1  0  0  0
 34 35  1  0  0  0
 34 39  1  0  0  0
 35 36  1  0  0  0
 36 37  1  0  0  0
 37 38  1  0  0  0
 38 39  1  0  0  0
 39 40  1  0  0  0
 43 45  1  0  0  0
 45 46  1  0  0  0
 45 47  1  0  0  0
 45 48  1  0  0  0
  7  9  1  0  0  0
  2  4  1  0  0  0
 27 30  1  0  0  0
 41 43  1  0  0  0
  9 10  1  0  0  0
 24 25  1  0  0  0
 24 26  1  0  0  0
 28 29  1  0  0  0
  4  5  1  0  0  0
 43 44  1  0  0  0
M  END
> <minimizedAffinity>
-11.43439

$$$$
5KQX_ROC_A_101


 55 59  0  0  0  0  0  0  0  0999 V2000
  -16.9742   14.7876  -20.7578 C   0  0  0  0  0  0  0  0  0  0  0  0
  -17.9241   15.1907  -23.0022 C   0  0  0  0  0  0  0  0  0  0  0  0
  -17.1769   14.3824  -23.5243 O   0  0  0  0  0  0  0  0  0  0  0  0
  -17.8829   15.4783  -21.5895 N   0  0  0  0  0  0  0  0  0  0  0  0
  -18.4869   16.1545  -21.2059 H   0  0  0  0  0  0  0  0  0  0  0  0
  -18.9401   15.9671  -23.8255 C   0  0  0  0  0  0  0  0  0  0  0  0
  -18.1742   17.8497  -25.2285 C   0  0  0  0  0  0  0  0  0  0  0  0
  -18.8324   18.6548  -24.5896 O   0  0  0  0  0  0  0  0  0  0  0  0
  -18.1789   16.4613  -24.9022 N   0  0  0  0  0  0  0  0  0  0  0  0
  -17.6399   15.8368  -25.4396 H   0  0  0  0  0  0  0  0  0  0  0  0
  -15.9390   17.9882  -26.1856 N   0  0  0  0  0  0  0  0  0  0  0  0
  -17.2636   18.2209  -26.4089 C   0  0  0  0  0  0  0  0  0  0  0  0
  -17.6874   18.8070  -27.5901 C   0  0  0  0  0  0  0  0  0  0  0  0
  -16.7767   19.1215  -28.5564 C   0  0  0  0  0  0  0  0  0  0  0  0
  -14.4857   19.1964  -29.3423 C   0  0  0  0  0  0  0  0  0  0  0  0
  -13.1324   18.9419  -29.1309 C   0  0  0  0  0  0  0  0  0  0  0  0
  -12.7079   18.3755  -27.9321 C   0  0  0  0  0  0  0  0  0  0  0  0
  -13.6419   18.0552  -26.9361 C   0  0  0  0  0  0  0  0  0  0  0  0
  -15.4314   18.8711  -28.3445 C   0  0  0  0  0  0  0  0  0  0  0  0
  -15.0127   18.3094  -27.1588 C   0  0  0  0  0  0  0  0  0  0  0  0
  -20.0440   15.0555  -24.2579 C   0  0  0  0  0  0  0  0  0  0  0  0
  -21.0450   14.9687  -23.1307 C   0  0  0  0  0  0  0  0  0  0  0  0
  -20.8312   14.2655  -22.1523 O   0  0  0  0  0  0  0  0  0  0  0  0
  -22.2375   15.7364  -23.2152 N   0  0  0  0  0  0  0  0  0  0  0  0
  -22.4048   16.3006  -24.0044 H   0  0  0  0  0  0  0  0  0  0  0  0
  -22.8966   15.7041  -22.4846 H   0  0  0  0  0  0  0  0  0  0  0  0
  -17.7907   14.3612  -19.5348 C   0  0  0  0  0  0  0  0  0  0  0  0
  -17.8914   15.3910  -18.5989 O   0  0  0  0  0  0  0  0  0  0  0  0
  -17.0058   15.6274  -18.2816 H   0  0  0  0  0  0  0  0  0  0  0  0
  -17.1590   13.1142  -18.8976 C   0  0  0  0  0  0  0  0  0  0  0  0
  -17.9134   11.9329  -19.3506 N   0  0  0  0  0  0  0  0  0  0  0  0
  -17.7165   10.8692  -18.2964 C   0  0  0  0  0  0  0  0  0  0  0  0
  -18.6301    9.6477  -18.4715 C   0  0  0  0  0  0  0  0  0  0  0  0
  -20.0714   10.0556  -18.5810 C   0  0  0  0  0  0  0  0  0  0  0  0
  -20.8789    8.7617  -18.8718 C   0  0  0  0  0  0  0  0  0  0  0  0
  -20.6254    8.2526  -20.2925 C   0  0  0  0  0  0  0  0  0  0  0  0
  -20.9288    9.3226  -21.3222 C   0  0  0  0  0  0  0  0  0  0  0  0
  -20.0479   10.5456  -21.0615 C   0  0  0  0  0  0  0  0  0  0  0  0
  -20.2767   11.1055  -19.6377 C   0  0  0  0  0  0  0  0  0  0  0  0
  -19.3475   12.3129  -19.4770 C   0  0  0  0  0  0  0  0  0  0  0  0
  -16.2907   10.4555  -18.2810 C   0  0  0  0  0  0  0  0  0  0  0  0
  -15.6976   10.2002  -19.3030 O   0  0  0  0  0  0  0  0  0  0  0  0
  -15.6992   10.3909  -16.9603 N   0  0  0  0  0  0  0  0  0  0  0  0
  -16.2713   10.6265  -16.1945 H   0  0  0  0  0  0  0  0  0  0  0  0
  -14.3314   10.0065  -16.6789 C   0  0  0  0  0  0  0  0  0  0  0  0
  -13.9359    8.8172  -17.5413 C   0  0  0  0  0  0  0  0  0  0  0  0
  -13.3977   11.1894  -16.9055 C   0  0  0  0  0  0  0  0  0  0  0  0
  -14.3022    9.6127  -15.2235 C   0  0  0  0  0  0  0  0  0  0  0  0
  -15.8764   15.7549  -20.3972 C   0  0  0  0  0  0  0  0  0  0  0  0
  -14.4941   15.2975  -20.9113 C   0  0  0  0  0  0  0  0  0  0  0  0
  -14.1259   13.9547  -20.8564 C   0  0  0  0  0  0  0  0  0  0  0  0
  -13.6269   16.2190  -21.4827 C   0  0  0  0  0  0  0  0  0  0  0  0
  -12.8882   13.5501  -21.3443 C   0  0  0  0  0  0  0  0  0  0  0  0
  -12.3941   15.8201  -21.9831 C   0  0  0  0  0  0  0  0  0  0  0  0
  -12.0237   14.4860  -21.9036 C   0  0  0  0  0  0  0  0  0  0  0  0
  8  7  2  0  0  0
  7 12  1  0  0  0
 11 12  2  0  0  0
 11 20  1  0  0  0
 12 13  1  0  0  0
 13 14  2  0  0  0
 14 19  1  0  0  0
 19 15  2  0  0  0
 19 20  1  0  0  0
 15 16  1  0  0  0
 16 17  2  0  0  0
 17 18  1  0  0  0
 18 20  2  0  0  0
  9  6  1  0  0  0
  6  2  1  0  0  0
  6 21  1  0  0  0
  2  3  2  0  0  0
 21 22  1  0  0  0
 22 23  2  0  0  0
 22 24  1  0  0  0
 27 28  1  0  0  0
 27  1  1  0  0  0
  1  4  1  0  0  0
  1 49  1  0  0  0
 49 50  1  0  0  0
 50 51  2  0  0  0
 50 52  1  0  0  0
 51 53  1  0  0  0
 52 54  2  0  0  0
 53 55  2  0  0  0
 54 55  1  0  0  0
 31 30  1  0  0  0
 31 32  1  0  0  0
 31 40  1  0  0  0
 32 41  1  0  0  0
 32 33  1  0  0  0
 41 42  2  0  0  0
 33 34  1  0  0  0
 34 35  1  0  0  0
 34 39  1  0  0  0
 35 36  1  0  0  0
 36 37  1  0  0  0
 37 38  1  0  0  0
 38 39  1  0  0  0
 39 40  1  0  0  0
 43 45  1  0  0  0
 45 46  1  0  0  0
 45 47  1  0  0  0
 45 48  1  0  0  0
  7  9  1  0  0  0
  2  4  1  0  0  0
 27 30  1  0  0  0
 41 43  1  0  0  0
  9 10  1  0  0  0
 24 25  1  0  0  0
 24 26  1  0  0  0
 28 29  1  0  0  0
  4  5  1  0  0  0
 43 44  1  0  0  0
M  END
> <minimizedAffinity>
-10.87717

$$$$
5KQX_ROC_A_101


 55 59  0  0  0  0  0  0  0  0999 V2000
  -16.6363   14.0339  -21.5169 C   0  0  0  0  0  0  0  0  0  0  0  0
  -15.7063   16.2818  -21.9453 C   0  0  0  0  0  0  0  0  0  0  0  0
  -16.8032   16.8082  -21.8827 O   0  0  0  0  0  0  0  0  0  0  0  0
  -15.5232   14.8601  -21.7865 N   0  0  0  0  0  0  0  0  0  0  0  0
  -14.6243   14.4665  -21.8660 H   0  0  0  0  0  0  0  0  0  0  0  0
  -14.4557   17.1027  -22.2194 C   0  0  0  0  0  0  0  0  0  0  0  0
  -13.6824   17.3338  -24.5534 C   0  0  0  0  0  0  0  0  0  0  0  0
  -12.6491   16.7274  -24.3205 O   0  0  0  0  0  0  0  0  0  0  0  0
  -14.6520   17.5678  -23.5339 N   0  0  0  0  0  0  0  0  0  0  0  0
  -15.4737   18.0638  -23.7533 H   0  0  0  0  0  0  0  0  0  0  0  0
  -15.2940   18.4810  -25.9739 N   0  0  0  0  0  0  0  0  0  0  0  0
  -14.0714   17.8792  -25.9360 C   0  0  0  0  0  0  0  0  0  0  0  0
  -13.3183   17.7390  -27.0900 C   0  0  0  0  0  0  0  0  0  0  0  0
  -13.7854   18.2398  -28.2702 C   0  0  0  0  0  0  0  0  0  0  0  0
  -15.5056   19.3877  -29.5334 C   0  0  0  0  0  0  0  0  0  0  0  0
  -16.7445   20.0234  -29.5765 C   0  0  0  0  0  0  0  0  0  0  0  0
  -17.5094   20.1403  -28.4192 C   0  0  0  0  0  0  0  0  0  0  0  0
  -17.0327   19.6227  -27.2060 C   0  0  0  0  0  0  0  0  0  0  0  0
  -15.0183   18.8690  -28.3130 C   0  0  0  0  0  0  0  0  0  0  0  0
  -15.7736   18.9853  -27.1673 C   0  0  0  0  0  0  0  0  0  0  0  0
  -14.3455   18.2072  -21.2172 C   0  0  0  0  0  0  0  0  0  0  0  0
  -14.8148   19.4824  -21.8757 C   0  0  0  0  0  0  0  0  0  0  0  0
  -14.0525   20.1574  -22.5545 O   0  0  0  0  0  0  0  0  0  0  0  0
  -16.1691   19.8786  -21.7100 N   0  0  0  0  0  0  0  0  0  0  0  0
  -16.7785   19.3321  -21.1630 H   0  0  0  0  0  0  0  0  0  0  0  0
  -16.4982   20.6996  -22.1423 H   0  0  0  0  0  0  0  0  0  0  0  0
  -16.1068   12.9315  -20.5957 C   0  0  0  0  0  0  0  0  0  0  0  0
  -15.9756   11.7168  -21.2694 O   0  0  0  0  0  0  0  0  0  0  0  0
  -16.8451   11.4282  -21.5881 H   0  0  0  0  0  0  0  0  0  0  0  0
  -17.0369   12.7768  -19.3828 C   0  0  0  0  0  0  0  0  0  0  0  0
  -17.8852   11.5925  -19.6007 N   0  0  0  0  0  0  0  0  0  0  0  0
  -17.7510   10.7364  -18.3635 C   0  0  0  0  0  0  0  0  0  0  0  0
  -18.7563    9.5777  -18.3005 C   0  0  0  0  0  0  0  0  0  0  0  0
  -20.1646   10.0667  -18.4827 C   0  0  0  0  0  0  0  0  0  0  0  0
  -21.0716    8.8070  -18.5198 C   0  0  0  0  0  0  0  0  0  0  0  0
  -20.8807    8.0194  -19.8179 C   0  0  0  0  0  0  0  0  0  0  0  0
  -21.1203    8.8944  -21.0320 C   0  0  0  0  0  0  0  0  0  0  0  0
  -20.1460   10.0734  -21.0111 C   0  0  0  0  0  0  0  0  0  0  0  0
  -20.3083   10.9094  -19.7198 C   0  0  0  0  0  0  0  0  0  0  0  0
  -19.2888   12.0504  -19.7942 C   0  0  0  0  0  0  0  0  0  0  0  0
  -16.3601   10.2250  -18.2725 C   0  0  0  0  0  0  0  0  0  0  0  0
  -15.8118    9.7177  -19.2231 O   0  0  0  0  0  0  0  0  0  0  0  0
  -15.7443   10.3899  -16.9718 N   0  0  0  0  0  0  0  0  0  0  0  0
  -16.2791   10.8232  -16.2678 H   0  0  0  0  0  0  0  0  0  0  0  0
  -14.4028    9.9668  -16.6264 C   0  0  0  0  0  0  0  0  0  0  0  0
  -13.9945    8.7773  -17.4826 C   0  0  0  0  0  0  0  0  0  0  0  0
  -13.4289   11.1274  -16.7906 C   0  0  0  0  0  0  0  0  0  0  0  0
  -14.4578    9.5560  -15.1765 C   0  0  0  0  0  0  0  0  0  0  0  0
  -17.1160   13.4875  -22.8368 C   0  0  0  0  0  0  0  0  0  0  0  0
  -18.5297   13.9882  -23.2044 C   0  0  0  0  0  0  0  0  0  0  0  0
  -19.4999   14.1590  -22.2189 C   0  0  0  0  0  0  0  0  0  0  0  0
  -18.8270   14.3231  -24.5187 C   0  0  0  0  0  0  0  0  0  0  0  0
  -20.7624   14.6335  -22.5576 C   0  0  0  0  0  0  0  0  0  0  0  0
  -20.0820   14.8091  -24.8622 C   0  0  0  0  0  0  0  0  0  0  0  0
  -21.0509   14.9540  -23.8805 C   0  0  0  0  0  0  0  0  0  0  0  0
  8  7  2  0  0  0
  7 12  1  0  0  0
 11 12  2  0  0  0
 11 20  1  0  0  0
 12 13  1  0  0  0
 13 14  2  0  0  0
 14 19  1  0  0  0
 19 15  2  0  0  0
 19 20  1  0  0  0
 15 16  1  0  0  0
 16 17  2  0  0  0
 17 18  1  0  0  0
 18 20  2  0  0  0
  9  6  1  0  0  0
  6  2  1  0  0  0
  6 21  1  0  0  0
  2  3  2  0  0  0
 21 22  1  0  0  0
 22 23  2  0  0  0
 22 24  1  0  0  0
 27 28  1  0  0  0
 27  1  1  0  0  0
  1  4  1  0  0  0
  1 49  1  0  0  0
 49 50  1  0  0  0
 50 51  2  0  0  0
 50 52  1  0  0  0
 51 53  1  0  0  0
 52 54  2  0  0  0
 53 55  2  0  0  0
 54 55  1  0  0  0
 31 30  1  0  0  0
 31 32  1  0  0  0
 31 40  1  0  0  0
 32 41  1  0  0  0
 32 33  1  0  0  0
 41 42  2  0  0  0
 33 34  1  0  0  0
 34 35  1  0  0  0
 34 39  1  0  0  0
 35 36  1  0  0  0
 36 37  1  0  0  0
 37 38  1  0  0  0
 38 39  1  0  0  0
 39 40  1  0  0  0
 43 45  1  0  0  0
 45 46  1  0  0  0
 45 47  1  0  0  0
 45 48  1  0  0  0
  7  9  1  0  0  0
  2  4  1  0  0  0
 27 30  1  0  0  0
 41 43  1  0  0  0
  9 10  1  0  0  0
 24 25  1  0  0  0
 24 26  1  0  0  0
 28 29  1  0  0  0
  4  5  1  0  0  0
 43 44  1  0  0  0
M  END
> <minimizedAffinity>
-10.80422

$$$$
5KQX_ROC_A_101


 55 59  0  0  0  0  0  0  0  0999 V2000
  -14.9477   18.2561  -21.1841 C   0  0  0  0  0  0  0  0  0  0  0  0
  -15.8365   16.0846  -20.4119 C   0  0  0  0  0  0  0  0  0  0  0  0
  -15.5122   16.2996  -19.2575 O   0  0  0  0  0  0  0  0  0  0  0  0
  -15.5735   17.0238  -21.4743 N   0  0  0  0  0  0  0  0  0  0  0  0
  -15.8297   16.8064  -22.3997 H   0  0  0  0  0  0  0  0  0  0  0  0
  -16.5262   14.7874  -20.8054 C   0  0  0  0  0  0  0  0  0  0  0  0
  -15.6230   12.6102  -20.0687 C   0  0  0  0  0  0  0  0  0  0  0  0
  -15.4651   12.2336  -21.2188 O   0  0  0  0  0  0  0  0  0  0  0  0
  -16.1612   13.8983  -19.7763 N   0  0  0  0  0  0  0  0  0  0  0  0
  -16.2796   14.1708  -18.8378 H   0  0  0  0  0  0  0  0  0  0  0  0
  -16.1751   10.8470  -18.4820 N   0  0  0  0  0  0  0  0  0  0  0  0
  -15.2473   11.7835  -18.8294 C   0  0  0  0  0  0  0  0  0  0  0  0
  -14.1151   11.9757  -18.0551 C   0  0  0  0  0  0  0  0  0  0  0  0
  -13.9053   11.1967  -16.9547 C   0  0  0  0  0  0  0  0  0  0  0  0
  -14.6207    9.4230  -15.4665 C   0  0  0  0  0  0  0  0  0  0  0  0
  -15.5533    8.4489  -15.1169 C   0  0  0  0  0  0  0  0  0  0  0  0
  -16.7022    8.2757  -15.8837 C   0  0  0  0  0  0  0  0  0  0  0  0
  -16.9216    9.0781  -17.0129 C   0  0  0  0  0  0  0  0  0  0  0  0
  -14.8341   10.2306  -16.6058 C   0  0  0  0  0  0  0  0  0  0  0  0
  -15.9697   10.0592  -17.3659 C   0  0  0  0  0  0  0  0  0  0  0  0
  -18.0029   15.0063  -20.8945 C   0  0  0  0  0  0  0  0  0  0  0  0
  -18.6684   13.6551  -21.0026 C   0  0  0  0  0  0  0  0  0  0  0  0
  -19.3579   13.2187  -20.0907 O   0  0  0  0  0  0  0  0  0  0  0  0
  -18.4963   12.9022  -22.1951 N   0  0  0  0  0  0  0  0  0  0  0  0
  -17.9406   13.2576  -22.9259 H   0  0  0  0  0  0  0  0  0  0  0  0
  -18.9328   12.0249  -22.2906 H   0  0  0  0  0  0  0  0  0  0  0  0
  -15.6280   19.2792  -22.0978 C   0  0  0  0  0  0  0  0  0  0  0  0
  -16.0742   20.3910  -21.3828 O   0  0  0  0  0  0  0  0  0  0  0  0
  -16.7331   20.1114  -20.7282 H   0  0  0  0  0  0  0  0  0  0  0  0
  -16.7952   18.6145  -22.8434 C   0  0  0  0  0  0  0  0  0  0  0  0
  -16.4408   18.5282  -24.2705 N   0  0  0  0  0  0  0  0  0  0  0  0
  -17.5799   19.1619  -25.0335 C   0  0  0  0  0  0  0  0  0  0  0  0
  -17.2779   19.3883  -26.5218 C   0  0  0  0  0  0  0  0  0  0  0  0
  -15.9973   20.1502  -26.7089 C   0  0  0  0  0  0  0  0  0  0  0  0
  -15.7371   20.2139  -28.2383 C   0  0  0  0  0  0  0  0  0  0  0  0
  -15.3306   18.8468  -28.7930 C   0  0  0  0  0  0  0  0  0  0  0  0
  -14.1241   18.2934  -28.0615 C   0  0  0  0  0  0  0  0  0  0  0  0
  -14.4490   18.1559  -26.5732 C   0  0  0  0  0  0  0  0  0  0  0  0
  -14.8559   19.5175  -25.9621 C   0  0  0  0  0  0  0  0  0  0  0  0
  -15.1668   19.2691  -24.4827 C   0  0  0  0  0  0  0  0  0  0  0  0
  -18.7992   18.3306  -24.8699 C   0  0  0  0  0  0  0  0  0  0  0  0
  -19.8308   18.8009  -24.4500 O   0  0  0  0  0  0  0  0  0  0  0  0
  -18.6349   16.9431  -25.2523 N   0  0  0  0  0  0  0  0  0  0  0  0
  -17.7521   16.6664  -25.5889 H   0  0  0  0  0  0  0  0  0  0  0  0
  -19.6686   15.9314  -25.1779 C   0  0  0  0  0  0  0  0  0  0  0  0
  -20.1278   15.7598  -23.7377 C   0  0  0  0  0  0  0  0  0  0  0  0
  -20.8321   16.3032  -26.0893 C   0  0  0  0  0  0  0  0  0  0  0  0
  -19.0342   14.6534  -25.6661 C   0  0  0  0  0  0  0  0  0  0  0  0
  -13.4832   18.0980  -21.5021 C   0  0  0  0  0  0  0  0  0  0  0  0
  -13.1390   16.6812  -22.0105 C   0  0  0  0  0  0  0  0  0  0  0  0
  -13.2249   16.3743  -23.3671 C   0  0  0  0  0  0  0  0  0  0  0  0
  -12.6888   15.7153  -21.1205 C   0  0  0  0  0  0  0  0  0  0  0  0
  -12.8893   15.1021  -23.8172 C   0  0  0  0  0  0  0  0  0  0  0  0
  -12.3403   14.4461  -21.5648 C   0  0  0  0  0  0  0  0  0  0  0  0
  -12.4510   14.1398  -22.9128 C   0  0  0  0  0  0  0  0  0  0  0  0
  8  7  2  0  0  0
  7 12  1  0  0  0
 11 12  2  0  0  0
 11 20  1  0  0  0
 12 13  1  0  0  0
 13 14  2  0  0  0
 14 19  1  0  0  0
 19 15  2  0  0  0
 19 20  1  0  0  0
 15 16  1  0  0  0
 16 17  2  0  0  0
 17 18  1  0  0  0
 18 20  2  0  0  0
  9  6  1  0  0  0
  6  2  1  0  0  0
  6 21  1  0  0  0
  2  3  2  0  0  0
 21 22  1  0  0  0
 22 23  2  0  0  0
 22 24  1  0  0  0
 27 28  1  0  0  0
 27  1  1  0  0  0
  1  4  1  0  0  0
  1 49  1  0  0  0
 49 50  1  0  0  0
 50 51  2  0  0  0
 50 52  1  0  0  0
 51 53  1  0  0  0
 52 54  2  0  0  0
 53 55  2  0  0  0
 54 55  1  0  0  0
 31 30  1  0  0  0
 31 32  1  0  0  0
 31 40  1  0  0  0
 32 41  1  0  0  0
 32 33  1  0  0  0
 41 42  2  0  0  0
 33 34  1  0  0  0
 34 35  1  0  0  0
 34 39  1  0  0  0
 35 36  1  0  0  0
 36 37  1  0  0  0
 37 38  1  0  0  0
 38 39  1  0  0  0
 39 40  1  0  0  0
 43 45  1  0  0  0
 45 46  1  0  0  0
 45 47  1  0  0  0
 45 48  1  0  0  0
  7  9  1  0  0  0
  2  4  1  0  0  0
 27 30  1  0  0  0
 41 43  1  0  0  0
  9 10  1  0  0  0
 24 25  1  0  0  0
 24 26  1  0  0  0
 28 29  1  0  0  0
  4  5  1  0  0  0
 43 44  1  0  0  0
M  END
> <minimizedAffinity>
-10.75445

$$$$
5KQX_ROC_A_101


 55 59  0  0  0  0  0  0  0  0999 V2000
  -17.6377   10.9915  -19.6412 C   0  0  0  0  0  0  0  0  0  0  0  0
  -18.7963    9.2626  -18.3106 C   0  0  0  0  0  0  0  0  0  0  0  0
  -18.1612    9.5312  -17.3062 O   0  0  0  0  0  0  0  0  0  0  0  0
  -18.5858    9.9478  -19.5621 N   0  0  0  0  0  0  0  0  0  0  0  0
  -19.1018    9.6886  -20.3594 H   0  0  0  0  0  0  0  0  0  0  0  0
  -19.8447    8.1608  -18.3058 C   0  0  0  0  0  0  0  0  0  0  0  0
  -19.3574    5.7523  -18.5526 C   0  0  0  0  0  0  0  0  0  0  0  0
  -20.2105    5.6203  -19.4153 O   0  0  0  0  0  0  0  0  0  0  0  0
  -19.1131    7.0156  -17.9370 N   0  0  0  0  0  0  0  0  0  0  0  0
  -18.4203    7.0881  -17.2413 H   0  0  0  0  0  0  0  0  0  0  0  0
  -17.6954    4.9434  -16.9668 N   0  0  0  0  0  0  0  0  0  0  0  0
  -18.4474    4.6183  -18.0565 C   0  0  0  0  0  0  0  0  0  0  0  0
  -18.3106    3.3811  -18.6640 C   0  0  0  0  0  0  0  0  0  0  0  0
  -17.4431    2.4635  -18.1470 C   0  0  0  0  0  0  0  0  0  0  0  0
  -15.7894    1.8325  -16.4920 C   0  0  0  0  0  0  0  0  0  0  0  0
  -15.0331    2.1489  -15.3656 C   0  0  0  0  0  0  0  0  0  0  0  0
  -15.1553    3.4026  -14.7727 C   0  0  0  0  0  0  0  0  0  0  0  0
  -16.0435    4.3485  -15.3049 C   0  0  0  0  0  0  0  0  0  0  0  0
  -16.6894    2.7796  -17.0292 C   0  0  0  0  0  0  0  0  0  0  0  0
  -16.8121    4.0196  -16.4427 C   0  0  0  0  0  0  0  0  0  0  0  0
  -20.9310    8.5001  -17.3355 C   0  0  0  0  0  0  0  0  0  0  0  0
  -20.5195    7.9853  -15.9769 C   0  0  0  0  0  0  0  0  0  0  0  0
  -20.7272    6.8230  -15.6552 O   0  0  0  0  0  0  0  0  0  0  0  0
  -19.8658    8.8718  -15.0795 N   0  0  0  0  0  0  0  0  0  0  0  0
  -19.7011    9.8060  -15.3430 H   0  0  0  0  0  0  0  0  0  0  0  0
  -19.5776    8.5520  -14.1941 H   0  0  0  0  0  0  0  0  0  0  0  0
  -18.1109   11.8799  -20.7948 C   0  0  0  0  0  0  0  0  0  0  0  0
  -17.4881   11.5390  -21.9958 O   0  0  0  0  0  0  0  0  0  0  0  0
  -16.5305   11.6682  -21.9114 H   0  0  0  0  0  0  0  0  0  0  0  0
  -17.8524   13.3554  -20.4539 C   0  0  0  0  0  0  0  0  0  0  0  0
  -16.5958   13.7652  -21.1040 N   0  0  0  0  0  0  0  0  0  0  0  0
  -16.9032   15.0296  -21.8710 C   0  0  0  0  0  0  0  0  0  0  0  0
  -15.6565   15.7434  -22.4129 C   0  0  0  0  0  0  0  0  0  0  0  0
  -14.6520   15.9893  -21.3238 C   0  0  0  0  0  0  0  0  0  0  0  0
  -13.3981   16.6012  -22.0052 C   0  0  0  0  0  0  0  0  0  0  0  0
  -12.6521   15.5588  -22.8411 C   0  0  0  0  0  0  0  0  0  0  0  0
  -12.2787   14.3500  -22.0067 C   0  0  0  0  0  0  0  0  0  0  0  0
  -13.5461   13.7179  -21.4289 C   0  0  0  0  0  0  0  0  0  0  0  0
  -14.3316   14.7319  -20.5641 C   0  0  0  0  0  0  0  0  0  0  0  0
  -15.5773   14.0068  -20.0449 C   0  0  0  0  0  0  0  0  0  0  0  0
  -17.8441   14.7140  -22.9752 C   0  0  0  0  0  0  0  0  0  0  0  0
  -17.6798   13.7508  -23.6872 O   0  0  0  0  0  0  0  0  0  0  0  0
  -18.9450   15.6458  -23.1099 N   0  0  0  0  0  0  0  0  0  0  0  0
  -18.9875   16.3938  -22.4713 H   0  0  0  0  0  0  0  0  0  0  0  0
  -19.9882   15.5623  -24.1112 C   0  0  0  0  0  0  0  0  0  0  0  0
  -19.3815   15.2550  -25.4721 C   0  0  0  0  0  0  0  0  0  0  0  0
  -21.0144   14.5087  -23.7119 C   0  0  0  0  0  0  0  0  0  0  0  0
  -20.6445   16.9197  -24.1406 C   0  0  0  0  0  0  0  0  0  0  0  0
  -16.3002   10.3581  -19.9256 C   0  0  0  0  0  0  0  0  0  0  0  0
  -15.3307   10.4631  -18.7284 C   0  0  0  0  0  0  0  0  0  0  0  0
  -15.1114   11.6867  -18.0987 C   0  0  0  0  0  0  0  0  0  0  0  0
  -14.7094    9.3228  -18.2369 C   0  0  0  0  0  0  0  0  0  0  0  0
  -14.2548   11.7655  -17.0061 C   0  0  0  0  0  0  0  0  0  0  0  0
  -13.8620    9.3920  -17.1385 C   0  0  0  0  0  0  0  0  0  0  0  0
  -13.6292   10.6169  -16.5312 C   0  0  0  0  0  0  0  0  0  0  0  0
  8  7  2  0  0  0
  7 12  1  0  0  0
 11 12  2  0  0  0
 11 20  1  0  0  0
 12 13  1  0  0  0
 13 14  2  0  0  0
 14 19  1  0  0  0
 19 15  2  0  0  0
 19 20  1  0  0  0
 15 16  1  0  0  0
 16 17  2  0  0  0
 17 18  1  0  0  0
 18 20  2  0  0  0
  9  6  1  0  0  0
  6  2  1  0  0  0
  6 21  1  0  0  0
  2  3  2  0  0  0
 21 22  1  0  0  0
 22 23  2  0  0  0
 22 24  1  0  0  0
 27 28  1  0  0  0
 27  1  1  0  0  0
  1  4  1  0  0  0
  1 49  1  0  0  0
 49 50  1  0  0  0
 50 51  2  0  0  0
 50 52  1  0  0  0
 51 53  1  0  0  0
 52 54  2  0  0  0
 53 55  2  0  0  0
 54 55  1  0  0  0
 31 30  1  0  0  0
 31 32  1  0  0  0
 31 40  1  0  0  0
 32 41  1  0  0  0
 32 33  1  0  0  0
 41 42  2  0  0  0
 33 34  1  0  0  0
 34 35  1  0  0  0
 34 39  1  0  0  0
 35 36  1  0  0  0
 36 37  1  0  0  0
 37 38  1  0  0  0
 38 39  1  0  0  0
 39 40  1  0  0  0
 43 45  1  0  0  0
 45 46  1  0  0  0
 45 47  1  0  0  0
 45 48  1  0  0  0
  7  9  1  0  0  0
  2  4  1  0  0  0
 27 30  1  0  0  0
 41 43  1  0  0  0
  9 10  1  0  0  0
 24 25  1  0  0  0
 24 26  1  0  0  0
 28 29  1  0  0  0
  4  5  1  0  0  0
 43 44  1  0  0  0
M  END
> <minimizedAffinity>
-10.75429

$$$$
5KQX_ROC_A_101


 55 59  0  0  0  0  0  0  0  0999 V2000
  -20.7256    8.6701  -17.3253 C   0  0  0  0  0  0  0  0  0  0  0  0
  -19.8453   10.6060  -18.5819 C   0  0  0  0  0  0  0  0  0  0  0  0
  -20.9494   11.1100  -18.6874 O   0  0  0  0  0  0  0  0  0  0  0  0
  -19.6338    9.3457  -17.9133 N   0  0  0  0  0  0  0  0  0  0  0  0
  -18.7304    8.9573  -17.8670 H   0  0  0  0  0  0  0  0  0  0  0  0
  -18.6161   11.2760  -19.1761 C   0  0  0  0  0  0  0  0  0  0  0  0
  -18.7270   12.3353  -21.4042 C   0  0  0  0  0  0  0  0  0  0  0  0
  -17.8708   11.5901  -21.8529 O   0  0  0  0  0  0  0  0  0  0  0  0
  -19.1586   12.2392  -20.0482 N   0  0  0  0  0  0  0  0  0  0  0  0
  -19.8486   12.8578  -19.7158 H   0  0  0  0  0  0  0  0  0  0  0  0
  -18.7331   13.8743  -23.2918 N   0  0  0  0  0  0  0  0  0  0  0  0
  -19.4466   13.4173  -22.2238 C   0  0  0  0  0  0  0  0  0  0  0  0
  -20.6794   13.9666  -21.9122 C   0  0  0  0  0  0  0  0  0  0  0  0
  -21.2038   14.9485  -22.7014 C   0  0  0  0  0  0  0  0  0  0  0  0
  -21.0326   16.4222  -24.6174 C   0  0  0  0  0  0  0  0  0  0  0  0
  -20.3195   16.8797  -25.7233 C   0  0  0  0  0  0  0  0  0  0  0  0
  -19.0697   16.3423  -26.0187 C   0  0  0  0  0  0  0  0  0  0  0  0
  -18.5273   15.3358  -25.2065 C   0  0  0  0  0  0  0  0  0  0  0  0
  -20.4932   15.4049  -23.7988 C   0  0  0  0  0  0  0  0  0  0  0  0
  -19.2575   14.8717  -24.0909 C   0  0  0  0  0  0  0  0  0  0  0  0
  -17.7881   11.8744  -18.0839 C   0  0  0  0  0  0  0  0  0  0  0  0
  -17.2165   13.1761  -18.5925 C   0  0  0  0  0  0  0  0  0  0  0  0
  -17.7843   14.2388  -18.3786 O   0  0  0  0  0  0  0  0  0  0  0  0
  -15.9912   13.1499  -19.3112 N   0  0  0  0  0  0  0  0  0  0  0  0
  -15.5382   12.2924  -19.4808 H   0  0  0  0  0  0  0  0  0  0  0  0
  -15.5951   13.9892  -19.6396 H   0  0  0  0  0  0  0  0  0  0  0  0
  -20.1017    7.6580  -16.3605 C   0  0  0  0  0  0  0  0  0  0  0  0
  -20.8294    7.5619  -15.1741 O   0  0  0  0  0  0  0  0  0  0  0  0
  -20.8294    8.4213  -14.7243 H   0  0  0  0  0  0  0  0  0  0  0  0
  -18.6448    8.0486  -16.0687 C   0  0  0  0  0  0  0  0  0  0  0  0
  -17.8052    6.8491  -16.2291 N   0  0  0  0  0  0  0  0  0  0  0  0
  -16.7249    6.9389  -15.1772 C   0  0  0  0  0  0  0  0  0  0  0  0
  -15.8990    5.6533  -15.0268 C   0  0  0  0  0  0  0  0  0  0  0  0
  -16.7833    4.4592  -14.8087 C   0  0  0  0  0  0  0  0  0  0  0  0
  -15.8542    3.2152  -14.7906 C   0  0  0  0  0  0  0  0  0  0  0  0
  -15.3083    2.9056  -16.1863 C   0  0  0  0  0  0  0  0  0  0  0  0
  -16.4311    2.7277  -17.1887 C   0  0  0  0  0  0  0  0  0  0  0  0
  -17.2685    4.0063  -17.2485 C   0  0  0  0  0  0  0  0  0  0  0  0
  -17.8535    4.3563  -15.8599 C   0  0  0  0  0  0  0  0  0  0  0  0
  -18.6610    5.6475  -16.0269 C   0  0  0  0  0  0  0  0  0  0  0  0
  -15.8418    8.0928  -15.4820 C   0  0  0  0  0  0  0  0  0  0  0  0
  -15.4338    8.8220  -14.6082 O   0  0  0  0  0  0  0  0  0  0  0  0
  -15.5269    8.2526  -16.8868 N   0  0  0  0  0  0  0  0  0  0  0  0
  -15.9074    7.5968  -17.5149 H   0  0  0  0  0  0  0  0  0  0  0  0
  -14.6956    9.3022  -17.4393 C   0  0  0  0  0  0  0  0  0  0  0  0
  -15.2561    9.7617  -18.7769 C   0  0  0  0  0  0  0  0  0  0  0  0
  -14.5920   10.4610  -16.4550 C   0  0  0  0  0  0  0  0  0  0  0  0
  -13.3329    8.6889  -17.6414 C   0  0  0  0  0  0  0  0  0  0  0  0
  -21.4856    7.9971  -18.4390 C   0  0  0  0  0  0  0  0  0  0  0  0
  -21.0065    6.5510  -18.6910 C   0  0  0  0  0  0  0  0  0  0  0  0
  -19.8684    6.3042  -19.4563 C   0  0  0  0  0  0  0  0  0  0  0  0
  -21.6806    5.4857  -18.1092 C   0  0  0  0  0  0  0  0  0  0  0  0
  -19.4319    4.9993  -19.6568 C   0  0  0  0  0  0  0  0  0  0  0  0
  -21.2432    4.1805  -18.2952 C   0  0  0  0  0  0  0  0  0  0  0  0
  -20.1238    3.9399  -19.0778 C   0  0  0  0  0  0  0  0  0  0  0  0
  8  7  2  0  0  0
  7 12  1  0  0  0
 11 12  2  0  0  0
 11 20  1  0  0  0
 12 13  1  0  0  0
 13 14  2  0  0  0
 14 19  1  0  0  0
 19 15  2  0  0  0
 19 20  1  0  0  0
 15 16  1  0  0  0
 16 17  2  0  0  0
 17 18  1  0  0  0
 18 20  2  0  0  0
  9  6  1  0  0  0
  6  2  1  0  0  0
  6 21  1  0  0  0
  2  3  2  0  0  0
 21 22  1  0  0  0
 22 23  2  0  0  0
 22 24  1  0  0  0
 27 28  1  0  0  0
 27  1  1  0  0  0
  1  4  1  0  0  0
  1 49  1  0  0  0
 49 50  1  0  0  0
 50 51  2  0  0  0
 50 52  1  0  0  0
 51 53  1  0  0  0
 52 54  2  0  0  0
 53 55  2  0  0  0
 54 55  1  0  0  0
 31 30  1  0  0  0
 31 32  1  0  0  0
 31 40  1  0  0  0
 32 41  1  0  0  0
 32 33  1  0  0  0
 41 42  2  0  0  0
 33 34  1  0  0  0
 34 35  1  0  0  0
 34 39  1  0  0  0
 35 36  1  0  0  0
 36 37  1  0  0  0
 37 38  1  0  0  0
 38 39  1  0  0  0
 39 40  1  0  0  0
 43 45  1  0  0  0
 45 46  1  0  0  0
 45 47  1  0  0  0
 45 48  1  0  0  0
  7  9  1  0  0  0
  2  4  1  0  0  0
 27 30  1  0  0  0
 41 43  1  0  0  0
  9 10  1  0  0  0
 24 25  1  0  0  0
 24 26  1  0  0  0
 28 29  1  0  0  0
  4  5  1  0  0  0
 43 44  1  0  0  0
M  END
> <minimizedAffinity>
-10.42480

$$$$
5KQX_ROC_A_101


 55 59  0  0  0  0  0  0  0  0999 V2000
  -16.2489   15.1151  -20.9130 C   0  0  0  0  0  0  0  0  0  0  0  0
  -15.6733   13.1223  -19.5715 C   0  0  0  0  0  0  0  0  0  0  0  0
  -15.1200   12.5806  -20.5120 O   0  0  0  0  0  0  0  0  0  0  0  0
  -16.2968   14.4178  -19.6859 N   0  0  0  0  0  0  0  0  0  0  0  0
  -16.7547   14.8152  -18.9102 H   0  0  0  0  0  0  0  0  0  0  0  0
  -15.7571   12.4442  -18.2128 C   0  0  0  0  0  0  0  0  0  0  0  0
  -18.1487   11.8778  -18.4550 C   0  0  0  0  0  0  0  0  0  0  0  0
  -18.4835   13.0477  -18.3608 O   0  0  0  0  0  0  0  0  0  0  0  0
  -16.7779   11.4899  -18.3866 N   0  0  0  0  0  0  0  0  0  0  0  0
  -16.5410   10.5373  -18.4623 H   0  0  0  0  0  0  0  0  0  0  0  0
  -18.6905    9.5175  -18.1963 N   0  0  0  0  0  0  0  0  0  0  0  0
  -19.1266   10.7147  -18.6812 C   0  0  0  0  0  0  0  0  0  0  0  0
  -20.3248   10.8021  -19.3705 C   0  0  0  0  0  0  0  0  0  0  0  0
  -21.0958    9.6883  -19.5349 C   0  0  0  0  0  0  0  0  0  0  0  0
  -21.4635    7.3169  -19.1984 C   0  0  0  0  0  0  0  0  0  0  0  0
  -21.0354    6.0938  -18.6869 C   0  0  0  0  0  0  0  0  0  0  0  0
  -19.8185    6.0054  -18.0164 C   0  0  0  0  0  0  0  0  0  0  0  0
  -19.0228    7.1482  -17.8498 C   0  0  0  0  0  0  0  0  0  0  0  0
  -20.6684    8.4723  -19.0290 C   0  0  0  0  0  0  0  0  0  0  0  0
  -19.4651    8.3862  -18.3646 C   0  0  0  0  0  0  0  0  0  0  0  0
  -14.4359   11.8332  -17.8697 C   0  0  0  0  0  0  0  0  0  0  0  0
  -14.6662   10.3763  -17.5466 C   0  0  0  0  0  0  0  0  0  0  0  0
  -14.7626    9.5422  -18.4367 O   0  0  0  0  0  0  0  0  0  0  0  0
  -14.7501    9.9836  -16.1838 N   0  0  0  0  0  0  0  0  0  0  0  0
  -14.6719   10.6585  -15.4713 H   0  0  0  0  0  0  0  0  0  0  0  0
  -14.8865    9.0366  -15.9519 H   0  0  0  0  0  0  0  0  0  0  0  0
  -15.1186   16.1354  -20.7536 C   0  0  0  0  0  0  0  0  0  0  0  0
  -15.0031   16.5734  -19.4340 O   0  0  0  0  0  0  0  0  0  0  0  0
  -15.8246   17.0146  -19.1667 H   0  0  0  0  0  0  0  0  0  0  0  0
  -15.3553   17.3245  -21.6970 C   0  0  0  0  0  0  0  0  0  0  0  0
  -14.6088   17.0798  -22.9430 N   0  0  0  0  0  0  0  0  0  0  0  0
  -14.4643   18.4195  -23.6256 C   0  0  0  0  0  0  0  0  0  0  0  0
  -13.4980   18.4053  -24.8187 C   0  0  0  0  0  0  0  0  0  0  0  0
  -12.1629   17.8359  -24.4328 C   0  0  0  0  0  0  0  0  0  0  0  0
  -11.3182   17.7620  -25.7335 C   0  0  0  0  0  0  0  0  0  0  0  0
  -11.8286   16.6639  -26.6692 C   0  0  0  0  0  0  0  0  0  0  0  0
  -11.8649   15.3194  -25.9706 C   0  0  0  0  0  0  0  0  0  0  0  0
  -12.7806   15.4045  -24.7484 C   0  0  0  0  0  0  0  0  0  0  0  0
  -12.2985   16.4960  -23.7640 C   0  0  0  0  0  0  0  0  0  0  0  0
  -13.2816   16.5050  -22.5891 C   0  0  0  0  0  0  0  0  0  0  0  0
  -15.8046   18.8999  -24.0463 C   0  0  0  0  0  0  0  0  0  0  0  0
  -16.2545   19.9465  -23.6414 O   0  0  0  0  0  0  0  0  0  0  0  0
  -16.4978   18.0176  -24.9625 N   0  0  0  0  0  0  0  0  0  0  0  0
  -16.0362   17.1915  -25.2341 H   0  0  0  0  0  0  0  0  0  0  0  0
  -17.8172   18.2564  -25.5100 C   0  0  0  0  0  0  0  0  0  0  0  0
  -17.8559   19.6083  -26.2067 C   0  0  0  0  0  0  0  0  0  0  0  0
  -18.2001   17.1311  -26.4638 C   0  0  0  0  0  0  0  0  0  0  0  0
  -18.7599   18.2625  -24.3331 C   0  0  0  0  0  0  0  0  0  0  0  0
  -17.5888   15.7785  -21.1013 C   0  0  0  0  0  0  0  0  0  0  0  0
  -18.4033   15.1480  -22.2517 C   0  0  0  0  0  0  0  0  0  0  0  0
  -19.7788   14.9622  -22.1277 C   0  0  0  0  0  0  0  0  0  0  0  0
  -17.7746   14.8099  -23.4425 C   0  0  0  0  0  0  0  0  0  0  0  0
  -20.5066   14.4158  -23.1791 C   0  0  0  0  0  0  0  0  0  0  0  0
  -18.4974   14.2750  -24.5013 C   0  0  0  0  0  0  0  0  0  0  0  0
  -19.8620   14.0702  -24.3628 C   0  0  0  0  0  0  0  0  0  0  0  0
  8  7  2  0  0  0
  7 12  1  0  0  0
 11 12  2  0  0  0
 11 20  1  0  0  0
 12 13  1  0  0  0
 13 14  2  0  0  0
 14 19  1  0  0  0
 19 15  2  0  0  0
 19 20  1  0  0  0
 15 16  1  0  0  0
 16 17  2  0  0  0
 17 18  1  0  0  0
 18 20  2  0  0  0
  9  6  1  0  0  0
  6  2  1  0  0  0
  6 21  1  0  0  0
  2  3  2  0  0  0
 21 22  1  0  0  0
 22 23  2  0  0  0
 22 24  1  0  0  0
 27 28  1  0  0  0
 27  1  1  0  0  0
  1  4  1  0  0  0
  1 49  1  0  0  0
 49 50  1  0  0  0
 50 51  2  0  0  0
 50 52  1  0  0  0
 51 53  1  0  0  0
 52 54  2  0  0  0
 53 55  2  0  0  0
 54 55  1  0  0  0
 31 30  1  0  0  0
 31 32  1  0  0  0
 31 40  1  0  0  0
 32 41  1  0  0  0
 32 33  1  0  0  0
 41 42  2  0  0  0
 33 34  1  0  0  0
 34 35  1  0  0  0
 34 39  1  0  0  0
 35 36  1  0  0  0
 36 37  1  0  0  0
 37 38  1  0  0  0
 38 39  1  0  0  0
 39 40  1  0  0  0
 43 45  1  0  0  0
 45 46  1  0  0  0
 45 47  1  0  0  0
 45 48  1  0  0  0
  7  9  1  0  0  0
  2  4  1  0  0  0
 27 30  1  0  0  0
 41 43  1  0  0  0
  9 10  1  0  0  0
 24 25  1  0  0  0
 24 26  1  0  0  0
 28 29  1  0  0  0
  4  5  1  0  0  0
 43 44  1  0  0  0
M  END
> <minimizedAffinity>
-10.10191

$$$$
5KQX_ROC_A_101


 55 59  0  0  0  0  0  0  0  0999 V2000
  -16.5033   11.7214  -18.2520 C   0  0  0  0  0  0  0  0  0  0  0  0
  -18.0091    9.8129  -17.8142 C   0  0  0  0  0  0  0  0  0  0  0  0
  -17.6507    9.7251  -16.6531 O   0  0  0  0  0  0  0  0  0  0  0  0
  -17.4641   10.7968  -18.7169 N   0  0  0  0  0  0  0  0  0  0  0  0
  -17.7612   10.8237  -19.6551 H   0  0  0  0  0  0  0  0  0  0  0  0
  -19.0488    8.8635  -18.3892 C   0  0  0  0  0  0  0  0  0  0  0  0
  -19.2422    6.4016  -18.3631 C   0  0  0  0  0  0  0  0  0  0  0  0
  -20.0792    6.4111  -19.2513 O   0  0  0  0  0  0  0  0  0  0  0  0
  -18.6714    7.6111  -17.8676 N   0  0  0  0  0  0  0  0  0  0  0  0
  -18.0011    7.5697  -17.1477 H   0  0  0  0  0  0  0  0  0  0  0  0
  -17.5248    5.3066  -17.0278 N   0  0  0  0  0  0  0  0  0  0  0  0
  -18.6930    5.1256  -17.7069 C   0  0  0  0  0  0  0  0  0  0  0  0
  -19.2546    3.8646  -17.8205 C   0  0  0  0  0  0  0  0  0  0  0  0
  -18.6551    2.7979  -17.2167 C   0  0  0  0  0  0  0  0  0  0  0  0
  -16.8541    1.8747  -15.8839 C   0  0  0  0  0  0  0  0  0  0  0  0
  -15.6716    2.0548  -15.1696 C   0  0  0  0  0  0  0  0  0  0  0  0
  -15.0971    3.3196  -15.0788 C   0  0  0  0  0  0  0  0  0  0  0  0
  -15.7097    4.4166  -15.7020 C   0  0  0  0  0  0  0  0  0  0  0  0
  -17.4782    2.9770  -16.5094 C   0  0  0  0  0  0  0  0  0  0  0  0
  -16.9114    4.2289  -16.4189 C   0  0  0  0  0  0  0  0  0  0  0  0
  -20.4162    9.2896  -17.9588 C   0  0  0  0  0  0  0  0  0  0  0  0
  -20.9336   10.2851  -18.9695 C   0  0  0  0  0  0  0  0  0  0  0  0
  -21.4008    9.9124  -20.0373 O   0  0  0  0  0  0  0  0  0  0  0  0
  -20.8870   11.6689  -18.6511 N   0  0  0  0  0  0  0  0  0  0  0  0
  -20.5101   11.9637  -17.7907 H   0  0  0  0  0  0  0  0  0  0  0  0
  -21.2316   12.3331  -19.2909 H   0  0  0  0  0  0  0  0  0  0  0  0
  -16.8287   13.0355  -18.9674 C   0  0  0  0  0  0  0  0  0  0  0  0
  -18.1513   13.4241  -18.7531 O   0  0  0  0  0  0  0  0  0  0  0  0
  -18.7488   12.7493  -19.1117 H   0  0  0  0  0  0  0  0  0  0  0  0
  -16.5461   12.8922  -20.4706 C   0  0  0  0  0  0  0  0  0  0  0  0
  -17.5668   13.6583  -21.2063 N   0  0  0  0  0  0  0  0  0  0  0  0
  -16.8435   14.3715  -22.3242 C   0  0  0  0  0  0  0  0  0  0  0  0
  -17.7805   15.0243  -23.3504 C   0  0  0  0  0  0  0  0  0  0  0  0
  -18.7802   14.0374  -23.8816 C   0  0  0  0  0  0  0  0  0  0  0  0
  -19.7387   14.8312  -24.8101 C   0  0  0  0  0  0  0  0  0  0  0  0
  -20.6584   15.7532  -24.0064 C   0  0  0  0  0  0  0  0  0  0  0  0
  -21.4360   14.9786  -22.9612 C   0  0  0  0  0  0  0  0  0  0  0  0
  -20.4599   14.2868  -22.0082 C   0  0  0  0  0  0  0  0  0  0  0  0
  -19.5132   13.3326  -22.7739 C   0  0  0  0  0  0  0  0  0  0  0  0
  -18.5780   12.7027  -21.7368 C   0  0  0  0  0  0  0  0  0  0  0  0
  -15.9224   15.3809  -21.7436 C   0  0  0  0  0  0  0  0  0  0  0  0
  -16.3310   16.2779  -21.0435 O   0  0  0  0  0  0  0  0  0  0  0  0
  -14.5285   15.1895  -22.0882 N   0  0  0  0  0  0  0  0  0  0  0  0
  -14.3038   14.4208  -22.6608 H   0  0  0  0  0  0  0  0  0  0  0  0
  -13.4397   16.0412  -21.6558 C   0  0  0  0  0  0  0  0  0  0  0  0
  -13.7091   16.5591  -20.2509 C   0  0  0  0  0  0  0  0  0  0  0  0
  -12.1212   15.2799  -21.7218 C   0  0  0  0  0  0  0  0  0  0  0  0
  -13.4050   17.1949  -22.6262 C   0  0  0  0  0  0  0  0  0  0  0  0
  -15.1478   11.1873  -18.6370 C   0  0  0  0  0  0  0  0  0  0  0  0
  -14.6104   10.1543  -17.6227 C   0  0  0  0  0  0  0  0  0  0  0  0
  -14.3449   10.5253  -16.3060 C   0  0  0  0  0  0  0  0  0  0  0  0
  -14.4382    8.8310  -18.0058 C   0  0  0  0  0  0  0  0  0  0  0  0
  -13.8842    9.5815  -15.3946 C   0  0  0  0  0  0  0  0  0  0  0  0
  -13.9899    7.8803  -17.0976 C   0  0  0  0  0  0  0  0  0  0  0  0
  -13.7045    8.2610  -15.7949 C   0  0  0  0  0  0  0  0  0  0  0  0
  8  7  2  0  0  0
  7 12  1  0  0  0
 11 12  2  0  0  0
 11 20  1  0  0  0
 12 13  1  0  0  0
 13 14  2  0  0  0
 14 19  1  0  0  0
 19 15  2  0  0  0
 19 20  1  0  0  0
 15 16  1  0  0  0
 16 17  2  0  0  0
 17 18  1  0  0  0
 18 20  2  0  0  0
  9  6  1  0  0  0
  6  2  1  0  0  0
  6 21  1  0  0  0
  2  3  2  0  0  0
 21 22  1  0  0  0
 22 23  2  0  0  0
 22 24  1  0  0  0
 27 28  1  0  0  0
 27  1  1  0  0  0
  1  4  1  0  0  0
  1 49  1  0  0  0
 49 50  1  0  0  0
 50 51  2  0  0  0
 50 52  1  0  0  0
 51 53  1  0  0  0
 52 54  2  0  0  0
 53 55  2  0  0  0
 54 55  1  0  0  0
 31 30  1  0  0  0
 31 32  1  0  0  0
 31 40  1  0  0  0
 32 41  1  0  0  0
 32 33  1  0  0  0
 41 42  2  0  0  0
 33 34  1  0  0  0
 34 35  1  0  0  0
 34 39  1  0  0  0
 35 36  1  0  0  0
 36 37  1  0  0  0
 37 38  1  0  0  0
 38 39  1  0  0  0
 39 40  1  0  0  0
 43 45  1  0  0  0
 45 46  1  0  0  0
 45 47  1  0  0  0
 45 48  1  0  0  0
  7  9  1  0  0  0
  2  4  1  0  0  0
 27 30  1  0  0  0
 41 43  1  0  0  0
  9 10  1  0  0  0
 24 25  1  0  0  0
 24 26  1  0  0  0
 28 29  1  0  0  0
  4  5  1  0  0  0
 43 44  1  0  0  0
M  END
> <minimizedAffinity>
-9.96480

$$$$
5KQX_ROC_A_101


 55 59  0  0  0  0  0  0  0  0999 V2000
  -17.0718   14.2426  -21.1850 C   0  0  0  0  0  0  0  0  0  0  0  0
  -18.1720   14.9428  -23.2829 C   0  0  0  0  0  0  0  0  0  0  0  0
  -17.7009   14.0084  -23.9067 O   0  0  0  0  0  0  0  0  0  0  0  0
  -17.8923   15.1550  -21.8840 N   0  0  0  0  0  0  0  0  0  0  0  0
  -18.2725   15.9342  -21.4175 H   0  0  0  0  0  0  0  0  0  0  0  0
  -19.0753   15.9627  -23.9587 C   0  0  0  0  0  0  0  0  0  0  0  0
  -18.2555   17.8504  -25.3239 C   0  0  0  0  0  0  0  0  0  0  0  0
  -18.9275   18.6551  -24.6991 O   0  0  0  0  0  0  0  0  0  0  0  0
  -18.2788   16.4596  -25.0083 N   0  0  0  0  0  0  0  0  0  0  0  0
  -17.7278   15.8356  -25.5338 H   0  0  0  0  0  0  0  0  0  0  0  0
  -15.9893   18.0065  -26.2021 N   0  0  0  0  0  0  0  0  0  0  0  0
  -17.3074   18.2241  -26.4736 C   0  0  0  0  0  0  0  0  0  0  0  0
  -17.6949   18.7990  -27.6727 C   0  0  0  0  0  0  0  0  0  0  0  0
  -16.7537   19.1173  -28.6080 C   0  0  0  0  0  0  0  0  0  0  0  0
  -14.4371   19.2114  -29.3126 C   0  0  0  0  0  0  0  0  0  0  0  0
  -13.0896   18.9721  -29.0518 C   0  0  0  0  0  0  0  0  0  0  0  0
  -12.7023   18.4171  -27.8353 C   0  0  0  0  0  0  0  0  0  0  0  0
  -13.6678   18.0929  -26.8711 C   0  0  0  0  0  0  0  0  0  0  0  0
  -15.4143   18.8821  -28.3470 C   0  0  0  0  0  0  0  0  0  0  0  0
  -15.0323   18.3316  -27.1438 C   0  0  0  0  0  0  0  0  0  0  0  0
  -20.3245   15.2940  -24.4371 C   0  0  0  0  0  0  0  0  0  0  0  0
  -21.1838   14.9954  -23.2319 C   0  0  0  0  0  0  0  0  0  0  0  0
  -20.8203   14.1919  -22.3836 O   0  0  0  0  0  0  0  0  0  0  0  0
  -22.4200   15.6807  -23.0873 N   0  0  0  0  0  0  0  0  0  0  0  0
  -22.7080   16.3262  -23.7726 H   0  0  0  0  0  0  0  0  0  0  0  0
  -22.9885   15.5101  -22.3019 H   0  0  0  0  0  0  0  0  0  0  0  0
  -18.0374   13.3550  -20.3951 C   0  0  0  0  0  0  0  0  0  0  0  0
  -18.0846   13.7170  -19.0485 O   0  0  0  0  0  0  0  0  0  0  0  0
  -17.2062   13.6048  -18.6526 H   0  0  0  0  0  0  0  0  0  0  0  0
  -17.6275   11.8818  -20.5427 C   0  0  0  0  0  0  0  0  0  0  0  0
  -16.8939   11.4838  -19.3289 N   0  0  0  0  0  0  0  0  0  0  0  0
  -17.3214   10.0696  -19.0147 C   0  0  0  0  0  0  0  0  0  0  0  0
  -16.4763    9.3951  -17.9247 C   0  0  0  0  0  0  0  0  0  0  0  0
  -15.0111    9.4699  -18.2460 C   0  0  0  0  0  0  0  0  0  0  0  0
  -14.2576    8.8684  -17.0288 C   0  0  0  0  0  0  0  0  0  0  0  0
  -14.3240    9.7988  -15.8156 C   0  0  0  0  0  0  0  0  0  0  0  0
  -13.7947   11.1787  -16.1514 C   0  0  0  0  0  0  0  0  0  0  0  0
  -14.6207   11.7783  -17.2907 C   0  0  0  0  0  0  0  0  0  0  0  0
  -14.5758   10.8773  -18.5474 C   0  0  0  0  0  0  0  0  0  0  0  0
  -15.4350   11.5584  -19.6173 C   0  0  0  0  0  0  0  0  0  0  0  0
  -18.7573   10.0663  -18.6373 C   0  0  0  0  0  0  0  0  0  0  0  0
  -19.3040   11.0646  -18.2297 O   0  0  0  0  0  0  0  0  0  0  0  0
  -19.4178    8.7876  -18.8017 N   0  0  0  0  0  0  0  0  0  0  0  0
  -18.8795    8.0398  -19.1484 H   0  0  0  0  0  0  0  0  0  0  0  0
  -20.8087    8.5239  -18.4957 C   0  0  0  0  0  0  0  0  0  0  0  0
  -21.0415    8.6275  -16.9958 C   0  0  0  0  0  0  0  0  0  0  0  0
  -21.7058    9.4879  -19.2629 C   0  0  0  0  0  0  0  0  0  0  0  0
  -21.0745    7.1128  -18.9563 C   0  0  0  0  0  0  0  0  0  0  0  0
  -16.1765   15.0503  -20.2812 C   0  0  0  0  0  0  0  0  0  0  0  0
  -14.7142   15.0848  -20.7762 C   0  0  0  0  0  0  0  0  0  0  0  0
  -14.0418   13.9038  -21.0842 C   0  0  0  0  0  0  0  0  0  0  0  0
  -14.0756   16.3026  -20.9684 C   0  0  0  0  0  0  0  0  0  0  0  0
  -12.7331   13.9478  -21.5523 C   0  0  0  0  0  0  0  0  0  0  0  0
  -12.7727   16.3546  -21.4471 C   0  0  0  0  0  0  0  0  0  0  0  0
  -12.1007   15.1746  -21.7290 C   0  0  0  0  0  0  0  0  0  0  0  0
  8  7  2  0  0  0
  7 12  1  0  0  0
 11 12  2  0  0  0
 11 20  1  0  0  0
 12 13  1  0  0  0
 13 14  2  0  0  0
 14 19  1  0  0  0
 19 15  2  0  0  0
 19 20  1  0  0  0
 15 16  1  0  0  0
 16 17  2  0  0  0
 17 18  1  0  0  0
 18 20  2  0  0  0
  9  6  1  0  0  0
  6  2  1  0  0  0
  6 21  1  0  0  0
  2  3  2  0  0  0
 21 22  1  0  0  0
 22 23  2  0  0  0
 22 24  1  0  0  0
 27 28  1  0  0  0
 27  1  1  0  0  0
  1  4  1  0  0  0
  1 49  1  0  0  0
 49 50  1  0  0  0
 50 51  2  0  0  0
 50 52  1  0  0  0
 51 53  1  0  0  0
 52 54  2  0  0  0
 53 55  2  0  0  0
 54 55  1  0  0  0
 31 30  1  0  0  0
 31 32  1  0  0  0
 31 40  1  0  0  0
 32 41  1  0  0  0
 32 33  1  0  0  0
 41 42  2  0  0  0
 33 34  1  0  0  0
 34 35  1  0  0  0
 34 39  1  0  0  0
 35 36  1  0  0  0
 36 37  1  0  0  0
 37 38  1  0  0  0
 38 39  1  0  0  0
 39 40  1  0  0  0
 43 45  1  0  0  0
 45 46  1  0  0  0
 45 47  1  0  0  0
 45 48  1  0  0  0
  7  9  1  0  0  0
  2  4  1  0  0  0
 27 30  1  0  0  0
 41 43  1  0  0  0
  9 10  1  0  0  0
 24 25  1  0  0  0
 24 26  1  0  0  0
 28 29  1  0  0  0
  4  5  1  0  0  0
 43 44  1  0  0  0
M  END
> <minimizedAffinity>
-9.83241

$$$$
