2E94_364_A_1101


 34 36  0  0  0  0  0  0  0  0999 V2000
   31.3970   50.4186    9.4189 C   0  0  0  0  0  0  0  0  0  0  0  0
   30.4717   49.9455    8.4935 C   0  0  0  0  0  0  0  0  0  0  0  0
   31.1403   50.2823   10.7791 C   0  0  0  0  0  0  0  0  0  0  0  0
   29.9711   49.6766   11.2228 C   0  0  0  0  0  0  0  0  0  0  0  0
   29.0450   49.1957   10.3043 C   0  0  0  0  0  0  0  0  0  0  0  0
   29.2947   49.3254    8.9326 N   0  0  0  0  0  0  0  0  0  0  0  0
   34.7293   52.0017    9.4518 C   0  0  0  0  0  0  0  0  0  0  0  0
   33.5430   51.4242    9.8956 C   0  0  0  0  0  0  0  0  0  0  0  0
   34.9666   52.1217    8.0854 C   0  0  0  0  0  0  0  0  0  0  0  0
   34.0281   51.6613    7.1701 C   0  0  0  0  0  0  0  0  0  0  0  0
   32.8467   51.0806    7.6189 C   0  0  0  0  0  0  0  0  0  0  0  0
   32.6003   50.9628    8.9820 C   0  0  0  0  0  0  0  0  0  0  0  0
   36.6541   53.3661    9.9479 C   0  0  0  0  0  0  0  0  0  0  0  0
   37.6502   53.7713   10.8278 C   0  0  0  0  0  0  0  0  0  0  0  0
   37.6714   53.2721   12.1264 C   0  0  0  0  0  0  0  0  0  0  0  0
   36.6957   52.3718   12.5394 C   0  0  0  0  0  0  0  0  0  0  0  0
   35.6995   51.9680   11.6569 C   0  0  0  0  0  0  0  0  0  0  0  0
   35.6764   52.4628   10.3568 C   0  0  0  0  0  0  0  0  0  0  0  0
   28.3648   48.7096    7.9571 C   0  0  0  0  0  0  0  0  0  0  0  0
   28.8608   47.4066    7.3219 C   0  0  0  0  0  0  0  0  0  0  0  0
   29.8636   46.8067    8.1500 O   0  0  0  0  0  0  0  0  0  0  0  0
   29.4999   46.6489    9.0353 H   0  0  0  0  0  0  0  0  0  0  0  0
   27.3805   46.2713    7.2271 P   0  0  0  0  0  0  0  0  0  0  0  0
   26.3627   46.8966    6.1487 O   0  0  0  0  0  0  0  0  0  0  0  0
   27.9093   44.8984    6.5766 O   0  0  0  0  0  0  0  0  0  0  0  0
   26.7387   46.0543    8.5432 O   0  0  0  0  0  0  0  0  0  0  0  0
   28.3213   45.0848    5.7185 H   0  0  0  0  0  0  0  0  0  0  0  0
   26.4353   46.9041    8.8991 H   0  0  0  0  0  0  0  0  0  0  0  0
   29.6124   47.6876    5.6349 P   0  0  0  0  0  0  0  0  0  0  0  0
   29.0508   46.5578    4.6337 O   0  0  0  0  0  0  0  0  0  0  0  0
   29.0045   49.0836    5.1078 O   0  0  0  0  0  0  0  0  0  0  0  0
   31.0907   47.7303    5.6872 O   0  0  0  0  0  0  0  0  0  0  0  0
   29.3871   45.6893    4.9049 H   0  0  0  0  0  0  0  0  0  0  0  0
   29.3119   49.8058    5.6778 H   0  0  0  0  0  0  0  0  0  0  0  0
 13 18  2  0  0  0
 13 14  1  0  0  0
 14 15  2  0  0  0
 15 16  1  0  0  0
 16 17  2  0  0  0
 17 18  1  0  0  0
 18  7  1  0  0  0
  7  9  2  0  0  0
  7  8  1  0  0  0
  8 12  2  0  0  0
  9 10  1  0  0  0
 10 11  2  0  0  0
 11 12  1  0  0  0
 12  1  1  0  0  0
  1  2  1  0  0  0
  1  3  2  0  0  0
  2  6  2  0  0  0
  3  4  1  0  0  0
  4  5  2  0  0  0
  5  6  1  0  0  0
  6 19  1  0  0  0
 19 20  1  0  0  0
 20 23  1  0  0  0
 20 21  1  0  0  0
 20 29  1  0  0  0
 23 24  2  0  0  0
 23 25  1  0  0  0
 23 26  1  0  0  0
 29 32  2  0  0  0
 29 30  1  0  0  0
 29 31  1  0  0  0
 25 27  1  0  0  0
 26 28  1  0  0  0
 30 33  1  0  0  0
 31 34  1  0  0  0
 21 22  1  0  0  0
M  CHG 1   6   1
M  END
> <minimizedAffinity>
-10.66204

$$$$
2E94_364_A_1101


 34 36  0  0  0  0  0  0  0  0999 V2000
   31.2019   49.6371    8.7889 C   0  0  0  0  0  0  0  0  0  0  0  0
   31.0561   48.4446    8.0867 C   0  0  0  0  0  0  0  0  0  0  0  0
   30.2125   50.0343    9.6822 C   0  0  0  0  0  0  0  0  0  0  0  0
   29.0820   49.2515    9.8822 C   0  0  0  0  0  0  0  0  0  0  0  0
   28.9323   48.0558    9.1892 C   0  0  0  0  0  0  0  0  0  0  0  0
   29.9237   47.6452    8.2894 N   0  0  0  0  0  0  0  0  0  0  0  0
   34.2209   51.5905    9.6142 C   0  0  0  0  0  0  0  0  0  0  0  0
   33.0808   50.8057    9.7625 C   0  0  0  0  0  0  0  0  0  0  0  0
   34.6376   51.9642    8.3396 C   0  0  0  0  0  0  0  0  0  0  0  0
   33.9235   51.5505    7.2218 C   0  0  0  0  0  0  0  0  0  0  0  0
   32.7879   50.7623    7.3754 C   0  0  0  0  0  0  0  0  0  0  0  0
   32.3626   50.3902    8.6455 C   0  0  0  0  0  0  0  0  0  0  0  0
   35.1368   53.3658   10.9641 C   0  0  0  0  0  0  0  0  0  0  0  0
   35.9244   53.7876   12.0281 C   0  0  0  0  0  0  0  0  0  0  0  0
   36.5253   52.8477   12.8597 C   0  0  0  0  0  0  0  0  0  0  0  0
   36.3342   51.4908   12.6244 C   0  0  0  0  0  0  0  0  0  0  0  0
   35.5450   51.0710   11.5589 C   0  0  0  0  0  0  0  0  0  0  0  0
   34.9447   52.0077   10.7236 C   0  0  0  0  0  0  0  0  0  0  0  0
   29.8195   46.3172    7.6404 C   0  0  0  0  0  0  0  0  0  0  0  0
   29.2725   46.3361    6.2093 C   0  0  0  0  0  0  0  0  0  0  0  0
   29.5699   47.5908    5.5860 O   0  0  0  0  0  0  0  0  0  0  0  0
   30.5286   47.7380    5.5969 H   0  0  0  0  0  0  0  0  0  0  0  0
   30.1540   44.9685    5.2917 P   0  0  0  0  0  0  0  0  0  0  0  0
   30.1684   45.3665    3.7325 O   0  0  0  0  0  0  0  0  0  0  0  0
   31.6898   45.0272    5.7667 O   0  0  0  0  0  0  0  0  0  0  0  0
   29.5483   43.6380    5.5248 O   0  0  0  0  0  0  0  0  0  0  0  0
   32.0471   45.9128    5.5969 H   0  0  0  0  0  0  0  0  0  0  0  0
   28.6256   43.6459    5.2255 H   0  0  0  0  0  0  0  0  0  0  0  0
   27.4196   46.1041    6.1609 P   0  0  0  0  0  0  0  0  0  0  0  0
   26.7391   47.5203    5.8062 O   0  0  0  0  0  0  0  0  0  0  0  0
   27.1273   45.1472    4.8978 O   0  0  0  0  0  0  0  0  0  0  0  0
   26.9024   45.5124    7.4148 O   0  0  0  0  0  0  0  0  0  0  0  0
   26.8845   48.1410    6.5372 H   0  0  0  0  0  0  0  0  0  0  0  0
   27.5173   44.2735    5.0570 H   0  0  0  0  0  0  0  0  0  0  0  0
 13 18  2  0  0  0
 13 14  1  0  0  0
 14 15  2  0  0  0
 15 16  1  0  0  0
 16 17  2  0  0  0
 17 18  1  0  0  0
 18  7  1  0  0  0
  7  9  2  0  0  0
  7  8  1  0  0  0
  8 12  2  0  0  0
  9 10  1  0  0  0
 10 11  2  0  0  0
 11 12  1  0  0  0
 12  1  1  0  0  0
  1  2  1  0  0  0
  1  3  2  0  0  0
  2  6  2  0  0  0
  3  4  1  0  0  0
  4  5  2  0  0  0
  5  6  1  0  0  0
  6 19  1  0  0  0
 19 20  1  0  0  0
 20 23  1  0  0  0
 20 21  1  0  0  0
 20 29  1  0  0  0
 23 24  2  0  0  0
 23 25  1  0  0  0
 23 26  1  0  0  0
 29 32  2  0  0  0
 29 30  1  0  0  0
 29 31  1  0  0  0
 25 27  1  0  0  0
 26 28  1  0  0  0
 30 33  1  0  0  0
 31 34  1  0  0  0
 21 22  1  0  0  0
M  CHG 1   6   1
M  END
> <minimizedAffinity>
-10.59935

$$$$
2E94_364_A_1101


 34 36  0  0  0  0  0  0  0  0999 V2000
   31.7968   50.3501    9.3438 C   0  0  0  0  0  0  0  0  0  0  0  0
   31.2681   49.2899    8.6141 C   0  0  0  0  0  0  0  0  0  0  0  0
   31.2009   50.7236   10.5439 C   0  0  0  0  0  0  0  0  0  0  0  0
   30.0854   50.0472   11.0223 C   0  0  0  0  0  0  0  0  0  0  0  0
   29.5554   48.9829   10.3021 C   0  0  0  0  0  0  0  0  0  0  0  0
   30.1491   48.5969    9.0940 N   0  0  0  0  0  0  0  0  0  0  0  0
   35.0097   52.1632    9.3752 C   0  0  0  0  0  0  0  0  0  0  0  0
   33.8722   51.4951    9.8192 C   0  0  0  0  0  0  0  0  0  0  0  0
   35.2225   52.3260    8.0091 C   0  0  0  0  0  0  0  0  0  0  0  0
   34.3083   51.8184    7.0943 C   0  0  0  0  0  0  0  0  0  0  0  0
   33.1758   51.1473    7.5431 C   0  0  0  0  0  0  0  0  0  0  0  0
   32.9538   50.9862    8.9060 C   0  0  0  0  0  0  0  0  0  0  0  0
   37.0197   53.4155    9.8275 C   0  0  0  0  0  0  0  0  0  0  0  0
   37.9872   53.8615   10.7195 C   0  0  0  0  0  0  0  0  0  0  0  0
   37.8694   53.5647   12.0737 C   0  0  0  0  0  0  0  0  0  0  0  0
   36.7841   52.8250   12.5298 C   0  0  0  0  0  0  0  0  0  0  0  0
   35.8167   52.3799   11.6350 C   0  0  0  0  0  0  0  0  0  0  0  0
   35.9323   52.6724   10.2798 C   0  0  0  0  0  0  0  0  0  0  0  0
   29.6560   47.3914    8.3876 C   0  0  0  0  0  0  0  0  0  0  0  0
   28.5242   47.6441    7.3862 C   0  0  0  0  0  0  0  0  0  0  0  0
   27.8876   48.8953    7.6696 O   0  0  0  0  0  0  0  0  0  0  0  0
   28.5461   49.6069    7.6413 H   0  0  0  0  0  0  0  0  0  0  0  0
   29.3233   47.7278    5.7000 P   0  0  0  0  0  0  0  0  0  0  0  0
   28.4747   46.7768    4.7175 O   0  0  0  0  0  0  0  0  0  0  0  0
   29.0842   49.2256    5.1643 O   0  0  0  0  0  0  0  0  0  0  0  0
   30.7588   47.3672    5.7267 O   0  0  0  0  0  0  0  0  0  0  0  0
   28.1340   49.4206    5.1627 H   0  0  0  0  0  0  0  0  0  0  0  0
   30.8582   46.4598    6.0546 H   0  0  0  0  0  0  0  0  0  0  0  0
   27.2147   46.3136    7.4537 P   0  0  0  0  0  0  0  0  0  0  0  0
   26.0187   46.7266    6.4570 O   0  0  0  0  0  0  0  0  0  0  0  0
   27.8882   44.9983    6.8112 O   0  0  0  0  0  0  0  0  0  0  0  0
   26.7530   46.0603    8.8367 O   0  0  0  0  0  0  0  0  0  0  0  0
   25.5739   47.5189    6.7965 H   0  0  0  0  0  0  0  0  0  0  0  0
   28.6207   44.7024    7.3739 H   0  0  0  0  0  0  0  0  0  0  0  0
 13 18  2  0  0  0
 13 14  1  0  0  0
 14 15  2  0  0  0
 15 16  1  0  0  0
 16 17  2  0  0  0
 17 18  1  0  0  0
 18  7  1  0  0  0
  7  9  2  0  0  0
  7  8  1  0  0  0
  8 12  2  0  0  0
  9 10  1  0  0  0
 10 11  2  0  0  0
 11 12  1  0  0  0
 12  1  1  0  0  0
  1  2  1  0  0  0
  1  3  2  0  0  0
  2  6  2  0  0  0
  3  4  1  0  0  0
  4  5  2  0  0  0
  5  6  1  0  0  0
  6 19  1  0  0  0
 19 20  1  0  0  0
 20 23  1  0  0  0
 20 21  1  0  0  0
 20 29  1  0  0  0
 23 24  2  0  0  0
 23 25  1  0  0  0
 23 26  1  0  0  0
 29 32  2  0  0  0
 29 30  1  0  0  0
 29 31  1  0  0  0
 25 27  1  0  0  0
 26 28  1  0  0  0
 30 33  1  0  0  0
 31 34  1  0  0  0
 21 22  1  0  0  0
M  CHG 1   6   1
M  END
> <minimizedAffinity>
-10.57895

$$$$
2E94_364_A_1101


 34 36  0  0  0  0  0  0  0  0999 V2000
   32.2711   48.5934    7.7596 C   0  0  0  0  0  0  0  0  0  0  0  0
   31.2180   47.6891    7.6622 C   0  0  0  0  0  0  0  0  0  0  0  0
   33.3459   48.4940    6.8825 C   0  0  0  0  0  0  0  0  0  0  0  0
   33.3774   47.5032    5.9089 C   0  0  0  0  0  0  0  0  0  0  0  0
   32.3260   46.6002    5.8012 C   0  0  0  0  0  0  0  0  0  0  0  0
   31.2377   46.6928    6.6775 N   0  0  0  0  0  0  0  0  0  0  0  0
   33.2773   51.4336    9.8885 C   0  0  0  0  0  0  0  0  0  0  0  0
   33.3301   50.4220    8.9338 C   0  0  0  0  0  0  0  0  0  0  0  0
   32.1003   51.6460   10.6011 C   0  0  0  0  0  0  0  0  0  0  0  0
   30.9830   50.8575   10.3556 C   0  0  0  0  0  0  0  0  0  0  0  0
   31.0397   49.8514    9.3970 C   0  0  0  0  0  0  0  0  0  0  0  0
   32.2134   49.6297    8.6859 C   0  0  0  0  0  0  0  0  0  0  0  0
   34.4583   52.9802   11.3119 C   0  0  0  0  0  0  0  0  0  0  0  0
   35.5286   53.8380   11.5339 C   0  0  0  0  0  0  0  0  0  0  0  0
   36.5359   53.9487   10.5805 C   0  0  0  0  0  0  0  0  0  0  0  0
   36.4693   53.2001    9.4109 C   0  0  0  0  0  0  0  0  0  0  0  0
   35.3971   52.3419    9.1911 C   0  0  0  0  0  0  0  0  0  0  0  0
   34.3865   52.2303   10.1407 C   0  0  0  0  0  0  0  0  0  0  0  0
   30.0662   45.8057    6.4873 C   0  0  0  0  0  0  0  0  0  0  0  0
   28.9102   46.4199    5.6911 C   0  0  0  0  0  0  0  0  0  0  0  0
   29.3586   47.5893    4.9964 O   0  0  0  0  0  0  0  0  0  0  0  0
   30.0995   47.3561    4.4154 H   0  0  0  0  0  0  0  0  0  0  0  0
   28.3840   45.1290    4.4478 P   0  0  0  0  0  0  0  0  0  0  0  0
   27.4674   45.8649    3.3487 O   0  0  0  0  0  0  0  0  0  0  0  0
   29.7199   44.6854    3.6693 O   0  0  0  0  0  0  0  0  0  0  0  0
   27.6941   43.9780    5.0728 O   0  0  0  0  0  0  0  0  0  0  0  0
   30.1394   45.4666    3.2760 H   0  0  0  0  0  0  0  0  0  0  0  0
   26.8969   44.2883    5.5301 H   0  0  0  0  0  0  0  0  0  0  0  0
   27.4878   46.9249    6.7917 P   0  0  0  0  0  0  0  0  0  0  0  0
   26.3174   47.5291    5.8646 O   0  0  0  0  0  0  0  0  0  0  0  0
   26.8989   45.5572    7.4074 O   0  0  0  0  0  0  0  0  0  0  0  0
   27.9168   47.8546    7.8600 O   0  0  0  0  0  0  0  0  0  0  0  0
   26.6183   48.3600    5.4645 H   0  0  0  0  0  0  0  0  0  0  0  0
   27.5662   45.1463    7.9790 H   0  0  0  0  0  0  0  0  0  0  0  0
 13 18  2  0  0  0
 13 14  1  0  0  0
 14 15  2  0  0  0
 15 16  1  0  0  0
 16 17  2  0  0  0
 17 18  1  0  0  0
 18  7  1  0  0  0
  7  9  2  0  0  0
  7  8  1  0  0  0
  8 12  2  0  0  0
  9 10  1  0  0  0
 10 11  2  0  0  0
 11 12  1  0  0  0
 12  1  1  0  0  0
  1  2  1  0  0  0
  1  3  2  0  0  0
  2  6  2  0  0  0
  3  4  1  0  0  0
  4  5  2  0  0  0
  5  6  1  0  0  0
  6 19  1  0  0  0
 19 20  1  0  0  0
 20 23  1  0  0  0
 20 21  1  0  0  0
 20 29  1  0  0  0
 23 24  2  0  0  0
 23 25  1  0  0  0
 23 26  1  0  0  0
 29 32  2  0  0  0
 29 30  1  0  0  0
 29 31  1  0  0  0
 25 27  1  0  0  0
 26 28  1  0  0  0
 30 33  1  0  0  0
 31 34  1  0  0  0
 21 22  1  0  0  0
M  CHG 1   6   1
M  END
> <minimizedAffinity>
-10.45923

$$$$
2E94_364_A_1101


 34 36  0  0  0  0  0  0  0  0999 V2000
   32.1268   49.1500    7.7239 C   0  0  0  0  0  0  0  0  0  0  0  0
   30.8879   48.7519    7.2310 C   0  0  0  0  0  0  0  0  0  0  0  0
   33.2893   48.6879    7.1160 C   0  0  0  0  0  0  0  0  0  0  0  0
   33.2260   47.8353    6.0206 C   0  0  0  0  0  0  0  0  0  0  0  0
   31.9920   47.4383    5.5186 C   0  0  0  0  0  0  0  0  0  0  0  0
   30.8153   47.8998    6.1214 N   0  0  0  0  0  0  0  0  0  0  0  0
   33.4238   51.6943   10.0596 C   0  0  0  0  0  0  0  0  0  0  0  0
   33.3458   50.8147    8.9836 C   0  0  0  0  0  0  0  0  0  0  0  0
   32.3462   51.8094   10.9334 C   0  0  0  0  0  0  0  0  0  0  0  0
   31.1970   51.0558   10.7284 C   0  0  0  0  0  0  0  0  0  0  0  0
   31.1224   50.1822    9.6489 C   0  0  0  0  0  0  0  0  0  0  0  0
   32.1969   50.0577    8.7756 C   0  0  0  0  0  0  0  0  0  0  0  0
   35.5453   52.5399    9.2870 C   0  0  0  0  0  0  0  0  0  0  0  0
   36.7244   53.2356    9.5241 C   0  0  0  0  0  0  0  0  0  0  0  0
   36.9286   53.8525   10.7544 C   0  0  0  0  0  0  0  0  0  0  0  0
   35.9522   53.7722   11.7410 C   0  0  0  0  0  0  0  0  0  0  0  0
   34.7726   53.0755   11.5012 C   0  0  0  0  0  0  0  0  0  0  0  0
   34.5659   52.4551   10.2732 C   0  0  0  0  0  0  0  0  0  0  0  0
   29.5039   47.5709    5.5152 C   0  0  0  0  0  0  0  0  0  0  0  0
   28.8817   46.2540    5.9908 C   0  0  0  0  0  0  0  0  0  0  0  0
   29.7607   45.6000    6.9131 O   0  0  0  0  0  0  0  0  0  0  0  0
   29.9436   46.1912    7.6600 H   0  0  0  0  0  0  0  0  0  0  0  0
   27.2962   46.7084    6.8678 P   0  0  0  0  0  0  0  0  0  0  0  0
   27.6683   47.7779    8.0113 O   0  0  0  0  0  0  0  0  0  0  0  0
   26.4060   47.5133    5.7967 O   0  0  0  0  0  0  0  0  0  0  0  0
   26.5841   45.5305    7.4126 O   0  0  0  0  0  0  0  0  0  0  0  0
   26.9081   48.2744    5.4658 H   0  0  0  0  0  0  0  0  0  0  0  0
   27.1540   45.0754    8.0521 H   0  0  0  0  0  0  0  0  0  0  0  0
   28.5639   45.0749    4.5772 P   0  0  0  0  0  0  0  0  0  0  0  0
   27.6513   43.8640    5.1207 O   0  0  0  0  0  0  0  0  0  0  0  0
   27.6448   45.8813    3.5278 O   0  0  0  0  0  0  0  0  0  0  0  0
   29.8209   44.6135    3.9473 O   0  0  0  0  0  0  0  0  0  0  0  0
   28.1572   43.3402    5.7614 H   0  0  0  0  0  0  0  0  0  0  0  0
   28.1469   46.6279    3.1653 H   0  0  0  0  0  0  0  0  0  0  0  0
 13 18  2  0  0  0
 13 14  1  0  0  0
 14 15  2  0  0  0
 15 16  1  0  0  0
 16 17  2  0  0  0
 17 18  1  0  0  0
 18  7  1  0  0  0
  7  9  2  0  0  0
  7  8  1  0  0  0
  8 12  2  0  0  0
  9 10  1  0  0  0
 10 11  2  0  0  0
 11 12  1  0  0  0
 12  1  1  0  0  0
  1  2  1  0  0  0
  1  3  2  0  0  0
  2  6  2  0  0  0
  3  4  1  0  0  0
  4  5  2  0  0  0
  5  6  1  0  0  0
  6 19  1  0  0  0
 19 20  1  0  0  0
 20 23  1  0  0  0
 20 21  1  0  0  0
 20 29  1  0  0  0
 23 24  2  0  0  0
 23 25  1  0  0  0
 23 26  1  0  0  0
 29 32  2  0  0  0
 29 30  1  0  0  0
 29 31  1  0  0  0
 25 27  1  0  0  0
 26 28  1  0  0  0
 30 33  1  0  0  0
 31 34  1  0  0  0
 21 22  1  0  0  0
M  CHG 1   6   1
M  END
> <minimizedAffinity>
-10.30263

$$$$
2E94_364_A_1101


 34 36  0  0  0  0  0  0  0  0999 V2000
   31.8686   50.4060    9.6956 C   0  0  0  0  0  0  0  0  0  0  0  0
   31.5826   49.3647    8.8181 C   0  0  0  0  0  0  0  0  0  0  0  0
   31.0203   50.6522   10.7701 C   0  0  0  0  0  0  0  0  0  0  0  0
   29.8924   49.8675   10.9773 C   0  0  0  0  0  0  0  0  0  0  0  0
   29.6037   48.8213   10.1086 C   0  0  0  0  0  0  0  0  0  0  0  0
   30.4525   48.5631    9.0251 N   0  0  0  0  0  0  0  0  0  0  0  0
   34.8891   51.8773    8.1716 C   0  0  0  0  0  0  0  0  0  0  0  0
   33.7050   51.1600    8.3161 C   0  0  0  0  0  0  0  0  0  0  0  0
   35.4026   52.5829    9.2562 C   0  0  0  0  0  0  0  0  0  0  0  0
   34.7332   52.5768   10.4738 C   0  0  0  0  0  0  0  0  0  0  0  0
   33.5478   51.8624   10.6114 C   0  0  0  0  0  0  0  0  0  0  0  0
   33.0324   51.1507    9.5342 C   0  0  0  0  0  0  0  0  0  0  0  0
   35.9643   53.1032    6.3956 C   0  0  0  0  0  0  0  0  0  0  0  0
   36.5724   53.1316    5.1466 C   0  0  0  0  0  0  0  0  0  0  0  0
   36.7852   51.9440    4.4535 C   0  0  0  0  0  0  0  0  0  0  0  0
   36.3907   50.7340    5.0132 C   0  0  0  0  0  0  0  0  0  0  0  0
   35.7826   50.7082    6.2638 C   0  0  0  0  0  0  0  0  0  0  0  0
   35.5656   51.8937    6.9588 C   0  0  0  0  0  0  0  0  0  0  0  0
   30.2088   47.3781    8.1697 C   0  0  0  0  0  0  0  0  0  0  0  0
   29.3549   47.6414    6.9250 C   0  0  0  0  0  0  0  0  0  0  0  0
   29.1767   49.0504    6.7404 O   0  0  0  0  0  0  0  0  0  0  0  0
   30.0438   49.4793    6.6679 H   0  0  0  0  0  0  0  0  0  0  0  0
   30.3084   46.9464    5.4769 P   0  0  0  0  0  0  0  0  0  0  0  0
   31.5134   47.9651    5.1606 O   0  0  0  0  0  0  0  0  0  0  0  0
   31.0096   45.5991    6.0068 O   0  0  0  0  0  0  0  0  0  0  0  0
   29.4552   46.7026    4.2920 O   0  0  0  0  0  0  0  0  0  0  0  0
   31.5573   45.8026    6.7810 H   0  0  0  0  0  0  0  0  0  0  0  0
   29.0530   47.5376    4.0059 H   0  0  0  0  0  0  0  0  0  0  0  0
   27.6596   46.8682    7.0581 P   0  0  0  0  0  0  0  0  0  0  0  0
   26.7195   47.5050    5.9157 O   0  0  0  0  0  0  0  0  0  0  0  0
   27.8486   45.3187    6.6587 O   0  0  0  0  0  0  0  0  0  0  0  0
   27.0922   47.0078    8.4176 O   0  0  0  0  0  0  0  0  0  0  0  0
   26.5707   48.4444    6.1059 H   0  0  0  0  0  0  0  0  0  0  0  0
   28.4110   44.8814    7.3171 H   0  0  0  0  0  0  0  0  0  0  0  0
 13 18  2  0  0  0
 13 14  1  0  0  0
 14 15  2  0  0  0
 15 16  1  0  0  0
 16 17  2  0  0  0
 17 18  1  0  0  0
 18  7  1  0  0  0
  7  9  2  0  0  0
  7  8  1  0  0  0
  8 12  2  0  0  0
  9 10  1  0  0  0
 10 11  2  0  0  0
 11 12  1  0  0  0
 12  1  1  0  0  0
  1  2  1  0  0  0
  1  3  2  0  0  0
  2  6  2  0  0  0
  3  4  1  0  0  0
  4  5  2  0  0  0
  5  6  1  0  0  0
  6 19  1  0  0  0
 19 20  1  0  0  0
 20 23  1  0  0  0
 20 21  1  0  0  0
 20 29  1  0  0  0
 23 24  2  0  0  0
 23 25  1  0  0  0
 23 26  1  0  0  0
 29 32  2  0  0  0
 29 30  1  0  0  0
 29 31  1  0  0  0
 25 27  1  0  0  0
 26 28  1  0  0  0
 30 33  1  0  0  0
 31 34  1  0  0  0
 21 22  1  0  0  0
M  CHG 1   6   1
M  END
> <minimizedAffinity>
-9.97313

$$$$
2E94_364_A_1101


 34 36  0  0  0  0  0  0  0  0999 V2000
   31.6584   50.7082    9.2093 C   0  0  0  0  0  0  0  0  0  0  0  0
   31.0394   50.2191    8.0630 C   0  0  0  0  0  0  0  0  0  0  0  0
   31.0358   50.5584   10.4440 C   0  0  0  0  0  0  0  0  0  0  0  0
   29.8041   49.9232   10.5446 C   0  0  0  0  0  0  0  0  0  0  0  0
   29.1825   49.4262    9.4048 C   0  0  0  0  0  0  0  0  0  0  0  0
   29.8018   49.5694    8.1571 N   0  0  0  0  0  0  0  0  0  0  0  0
   34.8511   51.9340    7.8254 C   0  0  0  0  0  0  0  0  0  0  0  0
   33.5711   51.3921    7.8986 C   0  0  0  0  0  0  0  0  0  0  0  0
   35.4843   52.3620    8.9890 C   0  0  0  0  0  0  0  0  0  0  0  0
   34.8394   52.2552   10.2151 C   0  0  0  0  0  0  0  0  0  0  0  0
   33.5585   51.7176   10.2819 C   0  0  0  0  0  0  0  0  0  0  0  0
   32.9224   51.2827    9.1248 C   0  0  0  0  0  0  0  0  0  0  0  0
   35.8930   50.9072    5.9090 C   0  0  0  0  0  0  0  0  0  0  0  0
   36.6150   51.0154    4.7268 C   0  0  0  0  0  0  0  0  0  0  0  0
   36.9524   52.2724    4.2346 C   0  0  0  0  0  0  0  0  0  0  0  0
   36.5648   53.4148    4.9258 C   0  0  0  0  0  0  0  0  0  0  0  0
   35.8417   53.3038    6.1087 C   0  0  0  0  0  0  0  0  0  0  0  0
   35.5048   52.0488    6.6055 C   0  0  0  0  0  0  0  0  0  0  0  0
   29.1957   48.9376    6.9616 C   0  0  0  0  0  0  0  0  0  0  0  0
   29.3845   47.4203    6.8640 C   0  0  0  0  0  0  0  0  0  0  0  0
   30.1942   46.9549    7.9498 O   0  0  0  0  0  0  0  0  0  0  0  0
   29.7804   47.2033    8.7912 H   0  0  0  0  0  0  0  0  0  0  0  0
   27.6800   46.6687    7.0006 P   0  0  0  0  0  0  0  0  0  0  0  0
   27.1166   47.0170    8.4673 O   0  0  0  0  0  0  0  0  0  0  0  0
   26.7469   47.4838    5.9747 O   0  0  0  0  0  0  0  0  0  0  0  0
   27.6709   45.2137    6.7279 O   0  0  0  0  0  0  0  0  0  0  0  0
   26.7813   48.4295    6.1878 H   0  0  0  0  0  0  0  0  0  0  0  0
   28.2439   44.7614    7.3666 H   0  0  0  0  0  0  0  0  0  0  0  0
   30.2252   46.9166    5.2736 P   0  0  0  0  0  0  0  0  0  0  0  0
   31.1739   45.6512    5.5789 O   0  0  0  0  0  0  0  0  0  0  0  0
   29.0556   46.3671    4.3110 O   0  0  0  0  0  0  0  0  0  0  0  0
   30.9502   48.0451    4.6487 O   0  0  0  0  0  0  0  0  0  0  0  0
   31.9015   45.9251    6.1589 H   0  0  0  0  0  0  0  0  0  0  0  0
   28.4493   47.0921    4.0926 H   0  0  0  0  0  0  0  0  0  0  0  0
 13 18  2  0  0  0
 13 14  1  0  0  0
 14 15  2  0  0  0
 15 16  1  0  0  0
 16 17  2  0  0  0
 17 18  1  0  0  0
 18  7  1  0  0  0
  7  9  2  0  0  0
  7  8  1  0  0  0
  8 12  2  0  0  0
  9 10  1  0  0  0
 10 11  2  0  0  0
 11 12  1  0  0  0
 12  1  1  0  0  0
  1  2  1  0  0  0
  1  3  2  0  0  0
  2  6  2  0  0  0
  3  4  1  0  0  0
  4  5  2  0  0  0
  5  6  1  0  0  0
  6 19  1  0  0  0
 19 20  1  0  0  0
 20 23  1  0  0  0
 20 21  1  0  0  0
 20 29  1  0  0  0
 23 24  2  0  0  0
 23 25  1  0  0  0
 23 26  1  0  0  0
 29 32  2  0  0  0
 29 30  1  0  0  0
 29 31  1  0  0  0
 25 27  1  0  0  0
 26 28  1  0  0  0
 30 33  1  0  0  0
 31 34  1  0  0  0
 21 22  1  0  0  0
M  CHG 1   6   1
M  END
> <minimizedAffinity>
-9.84752

$$$$
2E94_364_A_1101


 34 36  0  0  0  0  0  0  0  0999 V2000
   29.5297   48.1912    8.8018 C   0  0  0  0  0  0  0  0  0  0  0  0
   30.1622   47.3431    7.8980 C   0  0  0  0  0  0  0  0  0  0  0  0
   28.1998   47.9659    9.1410 C   0  0  0  0  0  0  0  0  0  0  0  0
   27.4978   46.9014    8.5889 C   0  0  0  0  0  0  0  0  0  0  0  0
   28.1247   46.0460    7.6902 C   0  0  0  0  0  0  0  0  0  0  0  0
   29.4642   46.2622    7.3438 N   0  0  0  0  0  0  0  0  0  0  0  0
   32.1371   50.7180    9.4563 C   0  0  0  0  0  0  0  0  0  0  0  0
   31.4041   49.7178    8.8239 C   0  0  0  0  0  0  0  0  0  0  0  0
   31.7090   51.2118   10.6854 C   0  0  0  0  0  0  0  0  0  0  0  0
   30.5529   50.7142   11.2740 C   0  0  0  0  0  0  0  0  0  0  0  0
   29.8214   49.7184   10.6354 C   0  0  0  0  0  0  0  0  0  0  0  0
   30.2463   49.2163    9.4107 C   0  0  0  0  0  0  0  0  0  0  0  0
   34.3240   51.7085    9.6779 C   0  0  0  0  0  0  0  0  0  0  0  0
   35.4488   52.2880    9.1038 C   0  0  0  0  0  0  0  0  0  0  0  0
   35.5463   52.3865    7.7194 C   0  0  0  0  0  0  0  0  0  0  0  0
   34.5197   51.9036    6.9157 C   0  0  0  0  0  0  0  0  0  0  0  0
   33.3950   51.3235    7.4926 C   0  0  0  0  0  0  0  0  0  0  0  0
   33.2926   51.2256    8.8766 C   0  0  0  0  0  0  0  0  0  0  0  0
   30.1642   45.2842    6.4784 C   0  0  0  0  0  0  0  0  0  0  0  0
   29.9145   45.4524    4.9761 C   0  0  0  0  0  0  0  0  0  0  0  0
   28.9965   46.5276    4.7478 O   0  0  0  0  0  0  0  0  0  0  0  0
   29.3495   47.3425    5.1379 H   0  0  0  0  0  0  0  0  0  0  0  0
   31.5653   45.8798    4.2136 P   0  0  0  0  0  0  0  0  0  0  0  0
   32.6670   45.8180    5.3851 O   0  0  0  0  0  0  0  0  0  0  0  0
   31.9259   44.6695    3.2173 O   0  0  0  0  0  0  0  0  0  0  0  0
   31.5561   47.1884    3.5216 O   0  0  0  0  0  0  0  0  0  0  0  0
   31.9211   43.8335    3.7091 H   0  0  0  0  0  0  0  0  0  0  0  0
   31.3351   47.8881    4.1560 H   0  0  0  0  0  0  0  0  0  0  0  0
   29.1875   43.9132    4.2068 P   0  0  0  0  0  0  0  0  0  0  0  0
   27.7682   43.6162    4.9082 O   0  0  0  0  0  0  0  0  0  0  0  0
   28.8506   44.3000    2.6793 O   0  0  0  0  0  0  0  0  0  0  0  0
   30.1187   42.7653    4.2780 O   0  0  0  0  0  0  0  0  0  0  0  0
   27.9106   43.3762    5.8372 H   0  0  0  0  0  0  0  0  0  0  0  0
   29.6748   44.4906    2.2047 H   0  0  0  0  0  0  0  0  0  0  0  0
 13 18  2  0  0  0
 13 14  1  0  0  0
 14 15  2  0  0  0
 15 16  1  0  0  0
 16 17  2  0  0  0
 17 18  1  0  0  0
 18  7  1  0  0  0
  7  9  2  0  0  0
  7  8  1  0  0  0
  8 12  2  0  0  0
  9 10  1  0  0  0
 10 11  2  0  0  0
 11 12  1  0  0  0
 12  1  1  0  0  0
  1  2  1  0  0  0
  1  3  2  0  0  0
  2  6  2  0  0  0
  3  4  1  0  0  0
  4  5  2  0  0  0
  5  6  1  0  0  0
  6 19  1  0  0  0
 19 20  1  0  0  0
 20 23  1  0  0  0
 20 21  1  0  0  0
 20 29  1  0  0  0
 23 24  2  0  0  0
 23 25  1  0  0  0
 23 26  1  0  0  0
 29 32  2  0  0  0
 29 30  1  0  0  0
 29 31  1  0  0  0
 25 27  1  0  0  0
 26 28  1  0  0  0
 30 33  1  0  0  0
 31 34  1  0  0  0
 21 22  1  0  0  0
M  CHG 1   6   1
M  END
> <minimizedAffinity>
-9.83251

$$$$
2E94_364_A_1101


 34 36  0  0  0  0  0  0  0  0999 V2000
   36.7405   53.1247    8.1170 C   0  0  0  0  0  0  0  0  0  0  0  0
   36.7477   52.3059    6.9920 C   0  0  0  0  0  0  0  0  0  0  0  0
   37.6157   54.2034    8.1879 C   0  0  0  0  0  0  0  0  0  0  0  0
   38.4947   54.4729    7.1461 C   0  0  0  0  0  0  0  0  0  0  0  0
   38.5033   53.6633    6.0161 C   0  0  0  0  0  0  0  0  0  0  0  0
   37.6244   52.5762    5.9333 N   0  0  0  0  0  0  0  0  0  0  0  0
   33.7573   51.9145    9.9191 C   0  0  0  0  0  0  0  0  0  0  0  0
   34.6982   52.1034    8.9108 C   0  0  0  0  0  0  0  0  0  0  0  0
   33.9368   52.5349   11.1523 C   0  0  0  0  0  0  0  0  0  0  0  0
   35.0521   53.3323   11.3775 C   0  0  0  0  0  0  0  0  0  0  0  0
   35.9917   53.5138   10.3682 C   0  0  0  0  0  0  0  0  0  0  0  0
   35.8159   52.9021    9.1323 C   0  0  0  0  0  0  0  0  0  0  0  0
   32.1580   50.3017   10.7277 C   0  0  0  0  0  0  0  0  0  0  0  0
   31.0886   49.4449   10.4981 C   0  0  0  0  0  0  0  0  0  0  0  0
   30.4943   49.4012    9.2408 C   0  0  0  0  0  0  0  0  0  0  0  0
   30.9710   50.2156    8.2197 C   0  0  0  0  0  0  0  0  0  0  0  0
   32.0415   51.0727    8.4521 C   0  0  0  0  0  0  0  0  0  0  0  0
   32.6400   51.1173    9.7071 C   0  0  0  0  0  0  0  0  0  0  0  0
   37.5528   51.7857    4.6821 C   0  0  0  0  0  0  0  0  0  0  0  0
   38.3680   50.4884    4.6872 C   0  0  0  0  0  0  0  0  0  0  0  0
   39.4134   50.5687    5.6628 O   0  0  0  0  0  0  0  0  0  0  0  0
   39.0283   50.7442    6.5356 H   0  0  0  0  0  0  0  0  0  0  0  0
   37.1836   49.1252    5.1646 P   0  0  0  0  0  0  0  0  0  0  0  0
   35.9262   49.2077    4.1636 O   0  0  0  0  0  0  0  0  0  0  0  0
   37.9261   47.7423    4.8124 O   0  0  0  0  0  0  0  0  0  0  0  0
   36.7740   49.1925    6.5855 O   0  0  0  0  0  0  0  0  0  0  0  0
   38.1768   47.7394    3.8754 H   0  0  0  0  0  0  0  0  0  0  0  0
   36.3317   50.0391    6.7547 H   0  0  0  0  0  0  0  0  0  0  0  0
   39.1632   50.1504    3.0309 P   0  0  0  0  0  0  0  0  0  0  0  0
   40.4464   49.2059    3.2665 O   0  0  0  0  0  0  0  0  0  0  0  0
   38.1049   49.2570    2.2074 O   0  0  0  0  0  0  0  0  0  0  0  0
   39.4899   51.3996    2.3080 O   0  0  0  0  0  0  0  0  0  0  0  0
   41.1217   49.6955    3.7617 H   0  0  0  0  0  0  0  0  0  0  0  0
   37.3056   49.7789    2.0357 H   0  0  0  0  0  0  0  0  0  0  0  0
 13 18  2  0  0  0
 13 14  1  0  0  0
 14 15  2  0  0  0
 15 16  1  0  0  0
 16 17  2  0  0  0
 17 18  1  0  0  0
 18  7  1  0  0  0
  7  9  2  0  0  0
  7  8  1  0  0  0
  8 12  2  0  0  0
  9 10  1  0  0  0
 10 11  2  0  0  0
 11 12  1  0  0  0
 12  1  1  0  0  0
  1  2  1  0  0  0
  1  3  2  0  0  0
  2  6  2  0  0  0
  3  4  1  0  0  0
  4  5  2  0  0  0
  5  6  1  0  0  0
  6 19  1  0  0  0
 19 20  1  0  0  0
 20 23  1  0  0  0
 20 21  1  0  0  0
 20 29  1  0  0  0
 23 24  2  0  0  0
 23 25  1  0  0  0
 23 26  1  0  0  0
 29 32  2  0  0  0
 29 30  1  0  0  0
 29 31  1  0  0  0
 25 27  1  0  0  0
 26 28  1  0  0  0
 30 33  1  0  0  0
 31 34  1  0  0  0
 21 22  1  0  0  0
M  CHG 1   6   1
M  END
> <minimizedAffinity>
-9.82262

$$$$
2E94_364_A_1101


 34 36  0  0  0  0  0  0  0  0999 V2000
   31.4120   49.7815    8.1466 C   0  0  0  0  0  0  0  0  0  0  0  0
   30.8819   49.1888    7.0048 C   0  0  0  0  0  0  0  0  0  0  0  0
   30.6235   49.9065    9.2856 C   0  0  0  0  0  0  0  0  0  0  0  0
   29.3135   49.4433    9.2955 C   0  0  0  0  0  0  0  0  0  0  0  0
   28.7790   48.8441    8.1607 C   0  0  0  0  0  0  0  0  0  0  0  0
   29.5650   48.7109    7.0094 N   0  0  0  0  0  0  0  0  0  0  0  0
   34.6178   51.1878    9.3112 C   0  0  0  0  0  0  0  0  0  0  0  0
   33.2955   50.7529    9.3097 C   0  0  0  0  0  0  0  0  0  0  0  0
   35.3864   51.0564    8.1579 C   0  0  0  0  0  0  0  0  0  0  0  0
   34.8387   50.4881    7.0144 C   0  0  0  0  0  0  0  0  0  0  0  0
   33.5185   50.0507    7.0198 C   0  0  0  0  0  0  0  0  0  0  0  0
   32.7433   50.1841    8.1660 C   0  0  0  0  0  0  0  0  0  0  0  0
   35.6905   50.9417   11.4563 C   0  0  0  0  0  0  0  0  0  0  0  0
   36.1809   51.5003   12.6302 C   0  0  0  0  0  0  0  0  0  0  0  0
   36.1601   52.8810   12.8009 C   0  0  0  0  0  0  0  0  0  0  0  0
   35.6508   53.6965   11.7965 C   0  0  0  0  0  0  0  0  0  0  0  0
   35.1608   53.1349   10.6222 C   0  0  0  0  0  0  0  0  0  0  0  0
   35.1774   51.7546   10.4489 C   0  0  0  0  0  0  0  0  0  0  0  0
   29.0342   47.9690    5.8418 C   0  0  0  0  0  0  0  0  0  0  0  0
   29.4687   46.5024    5.7533 C   0  0  0  0  0  0  0  0  0  0  0  0
   29.8496   46.0237    7.0482 O   0  0  0  0  0  0  0  0  0  0  0  0
   29.1084   46.1332    7.6643 H   0  0  0  0  0  0  0  0  0  0  0  0
   27.9778   45.5475    5.1578 P   0  0  0  0  0  0  0  0  0  0  0  0
   26.7090   46.0585    6.0055 O   0  0  0  0  0  0  0  0  0  0  0  0
   27.7105   46.0301    3.6467 O   0  0  0  0  0  0  0  0  0  0  0  0
   28.1605   44.0815    5.2512 O   0  0  0  0  0  0  0  0  0  0  0  0
   27.5967   46.9933    3.6303 H   0  0  0  0  0  0  0  0  0  0  0  0
   28.3186   43.8337    6.1756 H   0  0  0  0  0  0  0  0  0  0  0  0
   30.9279   46.2684    4.6106 P   0  0  0  0  0  0  0  0  0  0  0  0
   32.1341   45.6141    5.4541 O   0  0  0  0  0  0  0  0  0  0  0  0
   30.4782   45.1472    3.5443 O   0  0  0  0  0  0  0  0  0  0  0  0
   31.3113   47.5286    3.9364 O   0  0  0  0  0  0  0  0  0  0  0  0
   32.4473   46.2496    6.1166 H   0  0  0  0  0  0  0  0  0  0  0  0
   29.7485   45.4888    3.0042 H   0  0  0  0  0  0  0  0  0  0  0  0
 13 18  2  0  0  0
 13 14  1  0  0  0
 14 15  2  0  0  0
 15 16  1  0  0  0
 16 17  2  0  0  0
 17 18  1  0  0  0
 18  7  1  0  0  0
  7  9  2  0  0  0
  7  8  1  0  0  0
  8 12  2  0  0  0
  9 10  1  0  0  0
 10 11  2  0  0  0
 11 12  1  0  0  0
 12  1  1  0  0  0
  1  2  1  0  0  0
  1  3  2  0  0  0
  2  6  2  0  0  0
  3  4  1  0  0  0
  4  5  2  0  0  0
  5  6  1  0  0  0
  6 19  1  0  0  0
 19 20  1  0  0  0
 20 23  1  0  0  0
 20 21  1  0  0  0
 20 29  1  0  0  0
 23 24  2  0  0  0
 23 25  1  0  0  0
 23 26  1  0  0  0
 29 32  2  0  0  0
 29 30  1  0  0  0
 29 31  1  0  0  0
 25 27  1  0  0  0
 26 28  1  0  0  0
 30 33  1  0  0  0
 31 34  1  0  0  0
 21 22  1  0  0  0
M  CHG 1   6   1
M  END
> <minimizedAffinity>
-9.81968

$$$$
