1QF2_TI3_A_317


 32 34  0  0  0  0  0  0  0  0999 V2000
   34.7928   39.7752   -7.4424 C   0  0  0  0  0  0  0  0  0  0  0  0
   35.8548   39.1882   -7.2209 O   0  0  0  0  0  0  0  0  0  0  0  0
   33.8604   39.2512   -8.2444 N   0  0  0  0  0  0  0  0  0  0  0  0
   32.6035   39.8433   -8.7580 C   0  0  0  0  0  0  0  0  0  0  0  0
   34.1270   37.9354   -8.8433 C   0  0  0  0  0  0  0  0  0  0  0  0
   32.7507   37.5161   -9.3529 C   0  0  0  0  0  0  0  0  0  0  0  0
   32.1461   38.8073   -9.7731 C   0  0  0  0  0  0  0  0  0  0  0  0
   32.7349   41.2023   -9.4190 C   0  0  0  0  0  0  0  0  0  0  0  0
   33.1669   41.3174  -10.7436 C   0  0  0  0  0  0  0  0  0  0  0  0
   32.3622   42.3561   -8.7397 C   0  0  0  0  0  0  0  0  0  0  0  0
   33.2241   42.5524  -11.3764 C   0  0  0  0  0  0  0  0  0  0  0  0
   32.4125   43.5986   -9.3639 C   0  0  0  0  0  0  0  0  0  0  0  0
   32.8431   43.6967  -10.6840 C   0  0  0  0  0  0  0  0  0  0  0  0
   35.2067   37.9073   -9.9441 C   0  0  0  0  0  0  0  0  0  0  0  0
   34.8604   38.0902  -11.1350 O   0  0  0  0  0  0  0  0  0  0  0  0
   36.4022   37.7461   -9.5943 O   0  0  0  0  0  0  0  0  0  0  0  0
   36.6121   37.6125   -8.6909 H   0  0  0  0  0  0  0  0  0  0  0  0
   34.5396   41.1279   -6.8057 C   0  0  0  0  0  0  0  0  0  0  0  0
   36.1261   41.7550   -5.0942 C   0  0  0  0  0  0  0  0  0  0  0  0
   36.7347   42.5176   -5.8419 O   0  0  0  0  0  0  0  0  0  0  0  0
   35.1154   40.9942   -5.4867 N   0  0  0  0  0  0  0  0  0  0  0  0
   34.7485   40.3232   -4.8667 H   0  0  0  0  0  0  0  0  0  0  0  0
   38.1796   40.5879   -3.4121 S   0  0  0  0  0  0  0  0  0  0  0  0
   36.5916   41.5357   -3.6614 C   0  0  0  0  0  0  0  0  0  0  0  0
   38.4429   40.4862   -2.0817 H   0  0  0  0  0  0  0  0  0  0  0  0
   36.5669   42.8930   -2.9641 C   0  0  0  0  0  0  0  0  0  0  0  0
   36.8796   42.8162   -1.4929 C   0  0  0  0  0  0  0  0  0  0  0  0
   37.8031   43.6945   -0.9196 C   0  0  0  0  0  0  0  0  0  0  0  0
   36.2825   41.8487   -0.6893 C   0  0  0  0  0  0  0  0  0  0  0  0
   38.1245   43.6032    0.4279 C   0  0  0  0  0  0  0  0  0  0  0  0
   36.5978   41.7485    0.6600 C   0  0  0  0  0  0  0  0  0  0  0  0
   37.5176   42.6213    1.2215 C   0  0  0  0  0  0  0  0  0  0  0  0
 23 24  1  0  0  0
 24 26  1  0  0  0
 24 19  1  0  0  0
 26 27  1  0  0  0
 27 28  2  0  0  0
 27 29  1  0  0  0
 28 30  1  0  0  0
 29 31  2  0  0  0
 30 32  2  0  0  0
 31 32  1  0  0  0
 19 20  2  0  0  0
 19 21  1  0  0  0
 21 18  1  0  0  0
 18  1  1  0  0  0
  1  2  2  0  0  0
  1  3  1  0  0  0
  3  4  1  0  0  0
  3  5  1  0  0  0
  4  7  1  0  0  0
  4  8  1  0  0  0
  5  6  1  0  0  0
  5 14  1  0  0  0
  6  7  1  0  0  0
  8  9  1  0  0  0
  8 10  2  0  0  0
  9 11  2  0  0  0
 10 12  1  0  0  0
 11 13  1  0  0  0
 12 13  2  0  0  0
 14 15  2  0  0  0
 14 16  1  0  0  0
 23 25  1  0  0  0
 21 22  1  0  0  0
 16 17  1  0  0  0
M  END
> <minimizedAffinity>
-9.12911

$$$$
1QF2_TI3_A_317


 32 34  0  0  0  0  0  0  0  0999 V2000
   38.2715   38.3094   -4.6609 C   0  0  0  0  0  0  0  0  0  0  0  0
   37.3991   38.6183   -5.4762 O   0  0  0  0  0  0  0  0  0  0  0  0
   39.2347   37.4346   -4.9679 N   0  0  0  0  0  0  0  0  0  0  0  0
   40.2716   36.8186   -4.1080 C   0  0  0  0  0  0  0  0  0  0  0  0
   39.2394   36.8619   -6.3219 C   0  0  0  0  0  0  0  0  0  0  0  0
   40.6310   36.2419   -6.4166 C   0  0  0  0  0  0  0  0  0  0  0  0
   40.8786   35.7712   -5.0287 C   0  0  0  0  0  0  0  0  0  0  0  0
   39.7713   36.1681   -2.8321 C   0  0  0  0  0  0  0  0  0  0  0  0
   40.2923   36.5346   -1.5876 C   0  0  0  0  0  0  0  0  0  0  0  0
   38.7353   35.2426   -2.8715 C   0  0  0  0  0  0  0  0  0  0  0  0
   39.7915   35.9931   -0.4109 C   0  0  0  0  0  0  0  0  0  0  0  0
   38.2233   34.6954   -1.6993 C   0  0  0  0  0  0  0  0  0  0  0  0
   38.7513   35.0717   -0.4675 C   0  0  0  0  0  0  0  0  0  0  0  0
   38.1131   35.8534   -6.6261 C   0  0  0  0  0  0  0  0  0  0  0  0
   38.1628   35.1953   -7.6920 O   0  0  0  0  0  0  0  0  0  0  0  0
   37.2104   35.6997   -5.7663 O   0  0  0  0  0  0  0  0  0  0  0  0
   37.2156   36.2157   -4.9842 H   0  0  0  0  0  0  0  0  0  0  0  0
   38.2481   38.9207   -3.2734 C   0  0  0  0  0  0  0  0  0  0  0  0
   37.6546   41.2448   -3.5661 C   0  0  0  0  0  0  0  0  0  0  0  0
   38.8232   41.6214   -3.5058 O   0  0  0  0  0  0  0  0  0  0  0  0
   37.2791   39.9870   -3.3898 N   0  0  0  0  0  0  0  0  0  0  0  0
   36.3195   39.7737   -3.3369 H   0  0  0  0  0  0  0  0  0  0  0  0
   35.5305   42.1819   -5.3034 S   0  0  0  0  0  0  0  0  0  0  0  0
   36.5217   42.2494   -3.7237 C   0  0  0  0  0  0  0  0  0  0  0  0
   34.5675   43.1419   -5.2758 H   0  0  0  0  0  0  0  0  0  0  0  0
   35.6719   42.1765   -2.4582 C   0  0  0  0  0  0  0  0  0  0  0  0
   36.4174   42.5769   -1.2124 C   0  0  0  0  0  0  0  0  0  0  0  0
   37.1161   43.7862   -1.1644 C   0  0  0  0  0  0  0  0  0  0  0  0
   36.4522   41.7351   -0.1040 C   0  0  0  0  0  0  0  0  0  0  0  0
   37.8372   44.1427   -0.0329 C   0  0  0  0  0  0  0  0  0  0  0  0
   37.1715   42.0823    1.0329 C   0  0  0  0  0  0  0  0  0  0  0  0
   37.8652   43.2823    1.0722 C   0  0  0  0  0  0  0  0  0  0  0  0
 23 24  1  0  0  0
 24 26  1  0  0  0
 24 19  1  0  0  0
 26 27  1  0  0  0
 27 28  2  0  0  0
 27 29  1  0  0  0
 28 30  1  0  0  0
 29 31  2  0  0  0
 30 32  2  0  0  0
 31 32  1  0  0  0
 19 20  2  0  0  0
 19 21  1  0  0  0
 21 18  1  0  0  0
 18  1  1  0  0  0
  1  2  2  0  0  0
  1  3  1  0  0  0
  3  4  1  0  0  0
  3  5  1  0  0  0
  4  7  1  0  0  0
  4  8  1  0  0  0
  5  6  1  0  0  0
  5 14  1  0  0  0
  6  7  1  0  0  0
  8  9  1  0  0  0
  8 10  2  0  0  0
  9 11  2  0  0  0
 10 12  1  0  0  0
 11 13  1  0  0  0
 12 13  2  0  0  0
 14 15  2  0  0  0
 14 16  1  0  0  0
 23 25  1  0  0  0
 21 22  1  0  0  0
 16 17  1  0  0  0
M  END
> <minimizedAffinity>
-8.52078

$$$$
1QF2_TI3_A_317


 32 34  0  0  0  0  0  0  0  0999 V2000
   38.1551   37.9522   -2.7832 C   0  0  0  0  0  0  0  0  0  0  0  0
   37.8310   38.3969   -1.6793 O   0  0  0  0  0  0  0  0  0  0  0  0
   38.2021   36.6372   -3.0190 N   0  0  0  0  0  0  0  0  0  0  0  0
   38.7013   35.8986   -4.2019 C   0  0  0  0  0  0  0  0  0  0  0  0
   37.8330   35.7273   -1.9249 C   0  0  0  0  0  0  0  0  0  0  0  0
   37.6433   34.3965   -2.6478 C   0  0  0  0  0  0  0  0  0  0  0  0
   38.6675   34.4554   -3.7234 C   0  0  0  0  0  0  0  0  0  0  0  0
   40.0981   36.2637   -4.6679 C   0  0  0  0  0  0  0  0  0  0  0  0
   41.1724   36.2775   -3.7733 C   0  0  0  0  0  0  0  0  0  0  0  0
   40.3482   36.5255   -6.0096 C   0  0  0  0  0  0  0  0  0  0  0  0
   42.4649   36.5438   -4.2060 C   0  0  0  0  0  0  0  0  0  0  0  0
   41.6392   36.7909   -6.4556 C   0  0  0  0  0  0  0  0  0  0  0  0
   42.6988   36.7991   -5.5530 C   0  0  0  0  0  0  0  0  0  0  0  0
   38.8401   35.6375   -0.7605 C   0  0  0  0  0  0  0  0  0  0  0  0
   38.8024   34.6381   -0.0046 O   0  0  0  0  0  0  0  0  0  0  0  0
   39.6911   36.5540   -0.6442 O   0  0  0  0  0  0  0  0  0  0  0  0
   39.6791   37.2820   -1.2339 H   0  0  0  0  0  0  0  0  0  0  0  0
   38.5236   38.9129   -3.8971 C   0  0  0  0  0  0  0  0  0  0  0  0
   37.7418   41.1982   -3.8225 C   0  0  0  0  0  0  0  0  0  0  0  0
   38.8759   41.6536   -3.6900 O   0  0  0  0  0  0  0  0  0  0  0  0
   37.4706   39.9021   -3.8529 N   0  0  0  0  0  0  0  0  0  0  0  0
   36.5317   39.6062   -3.8454 H   0  0  0  0  0  0  0  0  0  0  0  0
   35.4537   42.1063   -5.3550 S   0  0  0  0  0  0  0  0  0  0  0  0
   36.5303   42.1201   -3.8308 C   0  0  0  0  0  0  0  0  0  0  0  0
   34.4258   42.9818   -5.1920 H   0  0  0  0  0  0  0  0  0  0  0  0
   35.7658   41.8755   -2.5328 C   0  0  0  0  0  0  0  0  0  0  0  0
   36.4904   42.3701   -1.3087 C   0  0  0  0  0  0  0  0  0  0  0  0
   36.5246   41.5955   -0.1461 C   0  0  0  0  0  0  0  0  0  0  0  0
   37.1058   43.6190   -1.3038 C   0  0  0  0  0  0  0  0  0  0  0  0
   37.1576   42.0632    0.9976 C   0  0  0  0  0  0  0  0  0  0  0  0
   37.7413   44.0963   -0.1642 C   0  0  0  0  0  0  0  0  0  0  0  0
   37.7684   43.3237    0.9869 C   0  0  0  0  0  0  0  0  0  0  0  0
 23 24  1  0  0  0
 24 26  1  0  0  0
 24 19  1  0  0  0
 26 27  1  0  0  0
 27 28  2  0  0  0
 27 29  1  0  0  0
 28 30  1  0  0  0
 29 31  2  0  0  0
 30 32  2  0  0  0
 31 32  1  0  0  0
 19 20  2  0  0  0
 19 21  1  0  0  0
 21 18  1  0  0  0
 18  1  1  0  0  0
  1  2  2  0  0  0
  1  3  1  0  0  0
  3  4  1  0  0  0
  3  5  1  0  0  0
  4  7  1  0  0  0
  4  8  1  0  0  0
  5  6  1  0  0  0
  5 14  1  0  0  0
  6  7  1  0  0  0
  8  9  1  0  0  0
  8 10  2  0  0  0
  9 11  2  0  0  0
 10 12  1  0  0  0
 11 13  1  0  0  0
 12 13  2  0  0  0
 14 15  2  0  0  0
 14 16  1  0  0  0
 23 25  1  0  0  0
 21 22  1  0  0  0
 16 17  1  0  0  0
M  END
> <minimizedAffinity>
-8.05108

$$$$
1QF2_TI3_A_317


 32 34  0  0  0  0  0  0  0  0999 V2000
   38.2441   38.0156   -2.4532 C   0  0  0  0  0  0  0  0  0  0  0  0
   37.3577   38.0799   -1.5980 O   0  0  0  0  0  0  0  0  0  0  0  0
   38.7246   36.8408   -2.8728 N   0  0  0  0  0  0  0  0  0  0  0  0
   39.8713   36.5432   -3.7619 C   0  0  0  0  0  0  0  0  0  0  0  0
   38.1482   35.6160   -2.2992 C   0  0  0  0  0  0  0  0  0  0  0  0
   38.6488   34.5340   -3.2522 C   0  0  0  0  0  0  0  0  0  0  0  0
   39.9942   35.0321   -3.6409 C   0  0  0  0  0  0  0  0  0  0  0  0
   41.1842   37.2070   -3.3919 C   0  0  0  0  0  0  0  0  0  0  0  0
   41.9385   36.7505   -2.3069 C   0  0  0  0  0  0  0  0  0  0  0  0
   41.6956   38.2402   -4.1679 C   0  0  0  0  0  0  0  0  0  0  0  0
   43.1735   37.3089   -2.0042 C   0  0  0  0  0  0  0  0  0  0  0  0
   42.9329   38.8058   -3.8763 C   0  0  0  0  0  0  0  0  0  0  0  0
   43.6731   38.3391   -2.7939 C   0  0  0  0  0  0  0  0  0  0  0  0
   38.5105   35.3314   -0.8275 C   0  0  0  0  0  0  0  0  0  0  0  0
   39.5450   35.8526   -0.3481 O   0  0  0  0  0  0  0  0  0  0  0  0
   37.7245   34.6208   -0.1530 O   0  0  0  0  0  0  0  0  0  0  0  0
   36.9631   34.2523   -0.5560 H   0  0  0  0  0  0  0  0  0  0  0  0
   38.8160   39.2940   -3.0345 C   0  0  0  0  0  0  0  0  0  0  0  0
   37.7388   41.3398   -3.7372 C   0  0  0  0  0  0  0  0  0  0  0  0
   38.7879   41.8313   -4.1480 O   0  0  0  0  0  0  0  0  0  0  0  0
   37.6685   40.1685   -3.1229 N   0  0  0  0  0  0  0  0  0  0  0  0
   36.8163   39.8874   -2.7178 H   0  0  0  0  0  0  0  0  0  0  0  0
   35.3414   41.8616   -5.2828 S   0  0  0  0  0  0  0  0  0  0  0  0
   36.4368   42.1268   -3.7954 C   0  0  0  0  0  0  0  0  0  0  0  0
   34.2299   42.6374   -5.1713 H   0  0  0  0  0  0  0  0  0  0  0  0
   35.7250   41.9247   -2.4607 C   0  0  0  0  0  0  0  0  0  0  0  0
   36.4476   42.5492   -1.2962 C   0  0  0  0  0  0  0  0  0  0  0  0
   36.9825   43.8357   -1.4036 C   0  0  0  0  0  0  0  0  0  0  0  0
   36.6249   41.8435   -0.1092 C   0  0  0  0  0  0  0  0  0  0  0  0
   37.6833   44.4014   -0.3470 C   0  0  0  0  0  0  0  0  0  0  0  0
   37.3252   42.4003    0.9538 C   0  0  0  0  0  0  0  0  0  0  0  0
   37.8562   43.6761    0.8389 C   0  0  0  0  0  0  0  0  0  0  0  0
 23 24  1  0  0  0
 24 26  1  0  0  0
 24 19  1  0  0  0
 26 27  1  0  0  0
 27 28  2  0  0  0
 27 29  1  0  0  0
 28 30  1  0  0  0
 29 31  2  0  0  0
 30 32  2  0  0  0
 31 32  1  0  0  0
 19 20  2  0  0  0
 19 21  1  0  0  0
 21 18  1  0  0  0
 18  1  1  0  0  0
  1  2  2  0  0  0
  1  3  1  0  0  0
  3  4  1  0  0  0
  3  5  1  0  0  0
  4  7  1  0  0  0
  4  8  1  0  0  0
  5  6  1  0  0  0
  5 14  1  0  0  0
  6  7  1  0  0  0
  8  9  1  0  0  0
  8 10  2  0  0  0
  9 11  2  0  0  0
 10 12  1  0  0  0
 11 13  1  0  0  0
 12 13  2  0  0  0
 14 15  2  0  0  0
 14 16  1  0  0  0
 23 25  1  0  0  0
 21 22  1  0  0  0
 16 17  1  0  0  0
M  END
> <minimizedAffinity>
-7.97048

$$$$
1QF2_TI3_A_317


 32 34  0  0  0  0  0  0  0  0999 V2000
   39.7245   37.6902   -4.4140 C   0  0  0  0  0  0  0  0  0  0  0  0
   39.7067   37.7791   -5.6441 O   0  0  0  0  0  0  0  0  0  0  0  0
   40.8749   37.6295   -3.7357 N   0  0  0  0  0  0  0  0  0  0  0  0
   41.1206   37.3727   -2.2977 C   0  0  0  0  0  0  0  0  0  0  0  0
   42.1294   37.6941   -4.4994 C   0  0  0  0  0  0  0  0  0  0  0  0
   43.1661   37.9728   -3.4143 C   0  0  0  0  0  0  0  0  0  0  0  0
   42.6332   37.2226   -2.2470 C   0  0  0  0  0  0  0  0  0  0  0  0
   40.4519   36.1383   -1.7231 C   0  0  0  0  0  0  0  0  0  0  0  0
   40.6050   34.8895   -2.3329 C   0  0  0  0  0  0  0  0  0  0  0  0
   39.7288   36.2143   -0.5387 C   0  0  0  0  0  0  0  0  0  0  0  0
   40.0525   33.7442   -1.7745 C   0  0  0  0  0  0  0  0  0  0  0  0
   39.1730   35.0736    0.0318 C   0  0  0  0  0  0  0  0  0  0  0  0
   39.3357   33.8370   -0.5862 C   0  0  0  0  0  0  0  0  0  0  0  0
   42.4653   36.4467   -5.3416 C   0  0  0  0  0  0  0  0  0  0  0  0
   42.9217   35.4322   -4.7635 O   0  0  0  0  0  0  0  0  0  0  0  0
   42.2239   36.4839   -6.5737 O   0  0  0  0  0  0  0  0  0  0  0  0
   41.8829   37.2660   -6.9609 H   0  0  0  0  0  0  0  0  0  0  0  0
   38.4161   37.6332   -3.6498 C   0  0  0  0  0  0  0  0  0  0  0  0
   37.3596   39.7512   -4.1374 C   0  0  0  0  0  0  0  0  0  0  0  0
   36.9369   39.3671   -5.2259 O   0  0  0  0  0  0  0  0  0  0  0  0
   38.1370   39.0200   -3.3528 N   0  0  0  0  0  0  0  0  0  0  0  0
   38.5332   39.4300   -2.5502 H   0  0  0  0  0  0  0  0  0  0  0  0
   36.4442   42.3887   -4.9210 S   0  0  0  0  0  0  0  0  0  0  0  0
   37.1150   41.1788   -3.6686 C   0  0  0  0  0  0  0  0  0  0  0  0
   36.2875   43.6064   -4.3361 H   0  0  0  0  0  0  0  0  0  0  0  0
   36.2933   41.0997   -2.3850 C   0  0  0  0  0  0  0  0  0  0  0  0
   36.8891   41.8807   -1.2435 C   0  0  0  0  0  0  0  0  0  0  0  0
   36.6913   41.4661    0.0763 C   0  0  0  0  0  0  0  0  0  0  0  0
   37.6145   43.0450   -1.4817 C   0  0  0  0  0  0  0  0  0  0  0  0
   37.2051   42.2036    1.1345 C   0  0  0  0  0  0  0  0  0  0  0  0
   38.1322   43.7905   -0.4297 C   0  0  0  0  0  0  0  0  0  0  0  0
   37.9291   43.3749    0.8775 C   0  0  0  0  0  0  0  0  0  0  0  0
 23 24  1  0  0  0
 24 26  1  0  0  0
 24 19  1  0  0  0
 26 27  1  0  0  0
 27 28  2  0  0  0
 27 29  1  0  0  0
 28 30  1  0  0  0
 29 31  2  0  0  0
 30 32  2  0  0  0
 31 32  1  0  0  0
 19 20  2  0  0  0
 19 21  1  0  0  0
 21 18  1  0  0  0
 18  1  1  0  0  0
  1  2  2  0  0  0
  1  3  1  0  0  0
  3  4  1  0  0  0
  3  5  1  0  0  0
  4  7  1  0  0  0
  4  8  1  0  0  0
  5  6  1  0  0  0
  5 14  1  0  0  0
  6  7  1  0  0  0
  8  9  1  0  0  0
  8 10  2  0  0  0
  9 11  2  0  0  0
 10 12  1  0  0  0
 11 13  1  0  0  0
 12 13  2  0  0  0
 14 15  2  0  0  0
 14 16  1  0  0  0
 23 25  1  0  0  0
 21 22  1  0  0  0
 16 17  1  0  0  0
M  END
> <minimizedAffinity>
-7.24764

$$$$
1QF2_TI3_A_317


 32 34  0  0  0  0  0  0  0  0999 V2000
   39.3379   34.3206   -3.3772 C   0  0  0  0  0  0  0  0  0  0  0  0
   38.6973   33.2720   -3.4844 O   0  0  0  0  0  0  0  0  0  0  0  0
   39.8653   34.6994   -2.2087 N   0  0  0  0  0  0  0  0  0  0  0  0
   40.5280   35.9687   -1.8293 C   0  0  0  0  0  0  0  0  0  0  0  0
   39.6788   33.8148   -1.0494 C   0  0  0  0  0  0  0  0  0  0  0  0
   40.6943   34.3589   -0.0482 C   0  0  0  0  0  0  0  0  0  0  0  0
   40.6803   35.8195   -0.3234 C   0  0  0  0  0  0  0  0  0  0  0  0
   39.7624   37.2370   -2.1555 C   0  0  0  0  0  0  0  0  0  0  0  0
   40.2463   38.1436   -3.1035 C   0  0  0  0  0  0  0  0  0  0  0  0
   38.5293   37.4881   -1.5660 C   0  0  0  0  0  0  0  0  0  0  0  0
   39.5176   39.2719   -3.4567 C   0  0  0  0  0  0  0  0  0  0  0  0
   37.7887   38.6135   -1.9137 C   0  0  0  0  0  0  0  0  0  0  0  0
   38.2829   39.5059   -2.8607 C   0  0  0  0  0  0  0  0  0  0  0  0
   38.2480   33.7539   -0.4773 C   0  0  0  0  0  0  0  0  0  0  0  0
   38.0594   33.1746    0.6184 O   0  0  0  0  0  0  0  0  0  0  0  0
   37.3322   34.3301   -1.1152 O   0  0  0  0  0  0  0  0  0  0  0  0
   37.5222   34.7499   -1.9311 H   0  0  0  0  0  0  0  0  0  0  0  0
   39.5222   35.2111   -4.5906 C   0  0  0  0  0  0  0  0  0  0  0  0
   41.5323   35.8424   -5.7741 C   0  0  0  0  0  0  0  0  0  0  0  0
   40.9630   36.7298   -6.4062 O   0  0  0  0  0  0  0  0  0  0  0  0
   40.9106   35.0187   -4.9438 N   0  0  0  0  0  0  0  0  0  0  0  0
   41.4047   34.2592   -4.5589 H   0  0  0  0  0  0  0  0  0  0  0  0
   43.4469   34.5543   -7.5300 S   0  0  0  0  0  0  0  0  0  0  0  0
   43.0062   35.5434   -6.0102 C   0  0  0  0  0  0  0  0  0  0  0  0
   44.7949   34.3816   -7.5834 H   0  0  0  0  0  0  0  0  0  0  0  0
   43.7611   36.8645   -5.8931 C   0  0  0  0  0  0  0  0  0  0  0  0
   43.8645   37.3719   -4.4789 C   0  0  0  0  0  0  0  0  0  0  0  0
   44.0725   36.4819   -3.4218 C   0  0  0  0  0  0  0  0  0  0  0  0
   43.7194   38.7279   -4.1984 C   0  0  0  0  0  0  0  0  0  0  0  0
   44.1297   36.9392   -2.1122 C   0  0  0  0  0  0  0  0  0  0  0  0
   43.7744   39.1956   -2.8913 C   0  0  0  0  0  0  0  0  0  0  0  0
   43.9777   38.3062   -1.8470 C   0  0  0  0  0  0  0  0  0  0  0  0
 23 24  1  0  0  0
 24 26  1  0  0  0
 24 19  1  0  0  0
 26 27  1  0  0  0
 27 28  2  0  0  0
 27 29  1  0  0  0
 28 30  1  0  0  0
 29 31  2  0  0  0
 30 32  2  0  0  0
 31 32  1  0  0  0
 19 20  2  0  0  0
 19 21  1  0  0  0
 21 18  1  0  0  0
 18  1  1  0  0  0
  1  2  2  0  0  0
  1  3  1  0  0  0
  3  4  1  0  0  0
  3  5  1  0  0  0
  4  7  1  0  0  0
  4  8  1  0  0  0
  5  6  1  0  0  0
  5 14  1  0  0  0
  6  7  1  0  0  0
  8  9  1  0  0  0
  8 10  2  0  0  0
  9 11  2  0  0  0
 10 12  1  0  0  0
 11 13  1  0  0  0
 12 13  2  0  0  0
 14 15  2  0  0  0
 14 16  1  0  0  0
 23 25  1  0  0  0
 21 22  1  0  0  0
 16 17  1  0  0  0
M  END
> <minimizedAffinity>
-6.88792

$$$$
1QF2_TI3_A_317


 32 34  0  0  0  0  0  0  0  0999 V2000
   41.7756   36.6679   -5.6195 C   0  0  0  0  0  0  0  0  0  0  0  0
   42.3967   35.7200   -6.1065 O   0  0  0  0  0  0  0  0  0  0  0  0
   42.3516   37.5082   -4.7539 N   0  0  0  0  0  0  0  0  0  0  0  0
   41.7584   38.6004   -3.9481 C   0  0  0  0  0  0  0  0  0  0  0  0
   43.7635   37.2838   -4.4114 C   0  0  0  0  0  0  0  0  0  0  0  0
   44.1557   38.5962   -3.7379 C   0  0  0  0  0  0  0  0  0  0  0  0
   42.9084   38.9920   -3.0330 C   0  0  0  0  0  0  0  0  0  0  0  0
   40.5386   38.2281   -3.1267 C   0  0  0  0  0  0  0  0  0  0  0  0
   40.6143   37.2475   -2.1331 C   0  0  0  0  0  0  0  0  0  0  0  0
   39.3373   38.9047   -3.3013 C   0  0  0  0  0  0  0  0  0  0  0  0
   39.5198   36.9501   -1.3317 C   0  0  0  0  0  0  0  0  0  0  0  0
   38.2347   38.6176   -2.5027 C   0  0  0  0  0  0  0  0  0  0  0  0
   38.3263   37.6399   -1.5162 C   0  0  0  0  0  0  0  0  0  0  0  0
   44.0509   36.0505   -3.5314 C   0  0  0  0  0  0  0  0  0  0  0  0
   43.8905   36.1422   -2.2914 O   0  0  0  0  0  0  0  0  0  0  0  0
   44.3929   34.9850   -4.1020 O   0  0  0  0  0  0  0  0  0  0  0  0
   44.5004   34.9656   -5.0326 H   0  0  0  0  0  0  0  0  0  0  0  0
   40.3223   36.8815   -5.9958 C   0  0  0  0  0  0  0  0  0  0  0  0
   38.3220   35.7863   -5.1965 C   0  0  0  0  0  0  0  0  0  0  0  0
   37.6041   36.7445   -5.4749 O   0  0  0  0  0  0  0  0  0  0  0  0
   39.6388   35.7903   -5.3388 N   0  0  0  0  0  0  0  0  0  0  0  0
   40.1634   35.0339   -4.9896 H   0  0  0  0  0  0  0  0  0  0  0  0
   36.4818   33.5658   -5.4995 S   0  0  0  0  0  0  0  0  0  0  0  0
   37.7400   34.5466   -4.5314 C   0  0  0  0  0  0  0  0  0  0  0  0
   36.0712   32.5006   -4.7605 H   0  0  0  0  0  0  0  0  0  0  0  0
   38.9124   33.7134   -4.0211 C   0  0  0  0  0  0  0  0  0  0  0  0
   38.9644   33.6092   -2.5196 C   0  0  0  0  0  0  0  0  0  0  0  0
   37.8089   33.7999   -1.7572 C   0  0  0  0  0  0  0  0  0  0  0  0
   40.1678   33.3574   -1.8663 C   0  0  0  0  0  0  0  0  0  0  0  0
   37.8582   33.7436   -0.3709 C   0  0  0  0  0  0  0  0  0  0  0  0
   40.2280   33.2998   -0.4795 C   0  0  0  0  0  0  0  0  0  0  0  0
   39.0780   33.4933    0.2708 C   0  0  0  0  0  0  0  0  0  0  0  0
 23 24  1  0  0  0
 24 26  1  0  0  0
 24 19  1  0  0  0
 26 27  1  0  0  0
 27 28  2  0  0  0
 27 29  1  0  0  0
 28 30  1  0  0  0
 29 31  2  0  0  0
 30 32  2  0  0  0
 31 32  1  0  0  0
 19 20  2  0  0  0
 19 21  1  0  0  0
 21 18  1  0  0  0
 18  1  1  0  0  0
  1  2  2  0  0  0
  1  3  1  0  0  0
  3  4  1  0  0  0
  3  5  1  0  0  0
  4  7  1  0  0  0
  4  8  1  0  0  0
  5  6  1  0  0  0
  5 14  1  0  0  0
  6  7  1  0  0  0
  8  9  1  0  0  0
  8 10  2  0  0  0
  9 11  2  0  0  0
 10 12  1  0  0  0
 11 13  1  0  0  0
 12 13  2  0  0  0
 14 15  2  0  0  0
 14 16  1  0  0  0
 23 25  1  0  0  0
 21 22  1  0  0  0
 16 17  1  0  0  0
M  END
> <minimizedAffinity>
-6.85655

$$$$
1QF2_TI3_A_317


 32 34  0  0  0  0  0  0  0  0999 V2000
   38.4145   36.6956   -6.6441 C   0  0  0  0  0  0  0  0  0  0  0  0
   38.1498   35.8265   -7.4784 O   0  0  0  0  0  0  0  0  0  0  0  0
   39.6606   36.8738   -6.1939 N   0  0  0  0  0  0  0  0  0  0  0  0
   40.1648   37.7395   -5.1028 C   0  0  0  0  0  0  0  0  0  0  0  0
   40.7203   36.0137   -6.7403 C   0  0  0  0  0  0  0  0  0  0  0  0
   41.9929   36.7329   -6.3011 C   0  0  0  0  0  0  0  0  0  0  0  0
   41.6146   37.2971   -4.9790 C   0  0  0  0  0  0  0  0  0  0  0  0
   39.4581   37.5991   -3.7678 C   0  0  0  0  0  0  0  0  0  0  0  0
   38.6971   38.6488   -3.2447 C   0  0  0  0  0  0  0  0  0  0  0  0
   39.4989   36.3974   -3.0710 C   0  0  0  0  0  0  0  0  0  0  0  0
   37.9922   38.5033   -2.0570 C   0  0  0  0  0  0  0  0  0  0  0  0
   38.7948   36.2387   -1.8815 C   0  0  0  0  0  0  0  0  0  0  0  0
   38.0398   37.2925   -1.3744 C   0  0  0  0  0  0  0  0  0  0  0  0
   40.6821   34.5384   -6.2929 C   0  0  0  0  0  0  0  0  0  0  0  0
   41.1247   34.2391   -5.1588 O   0  0  0  0  0  0  0  0  0  0  0  0
   40.1643   33.6989   -7.0708 O   0  0  0  0  0  0  0  0  0  0  0  0
   39.8473   33.9707   -7.9096 H   0  0  0  0  0  0  0  0  0  0  0  0
   37.3041   37.5747   -6.1025 C   0  0  0  0  0  0  0  0  0  0  0  0
   35.7078   38.8018   -7.4388 C   0  0  0  0  0  0  0  0  0  0  0  0
   35.6884   39.7551   -6.6630 O   0  0  0  0  0  0  0  0  0  0  0  0
   36.3888   37.6879   -7.2156 N   0  0  0  0  0  0  0  0  0  0  0  0
   36.2691   36.9207   -7.8207 H   0  0  0  0  0  0  0  0  0  0  0  0
   34.3281   37.1258   -9.3613 S   0  0  0  0  0  0  0  0  0  0  0  0
   34.8233   38.7902   -8.6779 C   0  0  0  0  0  0  0  0  0  0  0  0
   33.5451   37.3014  -10.4593 H   0  0  0  0  0  0  0  0  0  0  0  0
   33.6448   39.7198   -8.4021 C   0  0  0  0  0  0  0  0  0  0  0  0
   33.4846   40.8057   -9.4333 C   0  0  0  0  0  0  0  0  0  0  0  0
   33.6897   42.1442   -9.0882 C   0  0  0  0  0  0  0  0  0  0  0  0
   33.0960   40.4980  -10.7343 C   0  0  0  0  0  0  0  0  0  0  0  0
   33.5056   43.1528  -10.0244 C   0  0  0  0  0  0  0  0  0  0  0  0
   32.9083   41.4999  -11.6784 C   0  0  0  0  0  0  0  0  0  0  0  0
   33.1104   42.8263  -11.3280 C   0  0  0  0  0  0  0  0  0  0  0  0
 23 24  1  0  0  0
 24 26  1  0  0  0
 24 19  1  0  0  0
 26 27  1  0  0  0
 27 28  2  0  0  0
 27 29  1  0  0  0
 28 30  1  0  0  0
 29 31  2  0  0  0
 30 32  2  0  0  0
 31 32  1  0  0  0
 19 20  2  0  0  0
 19 21  1  0  0  0
 21 18  1  0  0  0
 18  1  1  0  0  0
  1  2  2  0  0  0
  1  3  1  0  0  0
  3  4  1  0  0  0
  3  5  1  0  0  0
  4  7  1  0  0  0
  4  8  1  0  0  0
  5  6  1  0  0  0
  5 14  1  0  0  0
  6  7  1  0  0  0
  8  9  1  0  0  0
  8 10  2  0  0  0
  9 11  2  0  0  0
 10 12  1  0  0  0
 11 13  1  0  0  0
 12 13  2  0  0  0
 14 15  2  0  0  0
 14 16  1  0  0  0
 23 25  1  0  0  0
 21 22  1  0  0  0
 16 17  1  0  0  0
M  END
> <minimizedAffinity>
-6.79548

$$$$
1QF2_TI3_A_317


 32 34  0  0  0  0  0  0  0  0999 V2000
   38.7243   36.0547   -4.0901 C   0  0  0  0  0  0  0  0  0  0  0  0
   37.5958   36.0573   -3.5923 O   0  0  0  0  0  0  0  0  0  0  0  0
   39.6842   35.2414   -3.6382 N   0  0  0  0  0  0  0  0  0  0  0  0
   41.1236   35.1827   -3.9827 C   0  0  0  0  0  0  0  0  0  0  0  0
   39.3502   34.3265   -2.5369 C   0  0  0  0  0  0  0  0  0  0  0  0
   40.5168   33.3424   -2.5558 C   0  0  0  0  0  0  0  0  0  0  0  0
   41.6642   34.1972   -2.9582 C   0  0  0  0  0  0  0  0  0  0  0  0
   41.8781   36.4959   -3.8955 C   0  0  0  0  0  0  0  0  0  0  0  0
   41.7545   37.3216   -2.7741 C   0  0  0  0  0  0  0  0  0  0  0  0
   42.7606   36.8705   -4.9015 C   0  0  0  0  0  0  0  0  0  0  0  0
   42.4942   38.4912   -2.6575 C   0  0  0  0  0  0  0  0  0  0  0  0
   43.5093   38.0385   -4.7948 C   0  0  0  0  0  0  0  0  0  0  0  0
   43.3766   38.8492   -3.6711 C   0  0  0  0  0  0  0  0  0  0  0  0
   39.1456   34.9856   -1.1578 C   0  0  0  0  0  0  0  0  0  0  0  0
   40.1537   35.2824   -0.4744 O   0  0  0  0  0  0  0  0  0  0  0  0
   37.9707   35.2403   -0.7939 O   0  0  0  0  0  0  0  0  0  0  0  0
   37.2484   34.9986   -1.3396 H   0  0  0  0  0  0  0  0  0  0  0  0
   39.0403   37.0030   -5.2304 C   0  0  0  0  0  0  0  0  0  0  0  0
   37.6759   38.9802   -4.9685 C   0  0  0  0  0  0  0  0  0  0  0  0
   36.8770   38.6263   -5.8331 O   0  0  0  0  0  0  0  0  0  0  0  0
   38.7770   38.3082   -4.6678 N   0  0  0  0  0  0  0  0  0  0  0  0
   39.4301   38.7063   -4.0480 H   0  0  0  0  0  0  0  0  0  0  0  0
   36.0421   41.3644   -4.7346 S   0  0  0  0  0  0  0  0  0  0  0  0
   37.5115   40.3171   -4.2589 C   0  0  0  0  0  0  0  0  0  0  0  0
   36.0510   42.5144   -4.0086 H   0  0  0  0  0  0  0  0  0  0  0  0
   37.6208   40.0511   -2.7601 C   0  0  0  0  0  0  0  0  0  0  0  0
   37.3462   41.2668   -1.9146 C   0  0  0  0  0  0  0  0  0  0  0  0
   37.8965   42.5049   -2.2567 C   0  0  0  0  0  0  0  0  0  0  0  0
   36.5712   41.1700   -0.7620 C   0  0  0  0  0  0  0  0  0  0  0  0
   37.6789   43.6207   -1.4597 C   0  0  0  0  0  0  0  0  0  0  0  0
   36.3482   42.2805    0.0427 C   0  0  0  0  0  0  0  0  0  0  0  0
   36.9002   43.5052   -0.3012 C   0  0  0  0  0  0  0  0  0  0  0  0
 23 24  1  0  0  0
 24 26  1  0  0  0
 24 19  1  0  0  0
 26 27  1  0  0  0
 27 28  2  0  0  0
 27 29  1  0  0  0
 28 30  1  0  0  0
 29 31  2  0  0  0
 30 32  2  0  0  0
 31 32  1  0  0  0
 19 20  2  0  0  0
 19 21  1  0  0  0
 21 18  1  0  0  0
 18  1  1  0  0  0
  1  2  2  0  0  0
  1  3  1  0  0  0
  3  4  1  0  0  0
  3  5  1  0  0  0
  4  7  1  0  0  0
  4  8  1  0  0  0
  5  6  1  0  0  0
  5 14  1  0  0  0
  6  7  1  0  0  0
  8  9  1  0  0  0
  8 10  2  0  0  0
  9 11  2  0  0  0
 10 12  1  0  0  0
 11 13  1  0  0  0
 12 13  2  0  0  0
 14 15  2  0  0  0
 14 16  1  0  0  0
 23 25  1  0  0  0
 21 22  1  0  0  0
 16 17  1  0  0  0
M  END
> <minimizedAffinity>
-6.74566

$$$$
1QF2_TI3_A_317


 32 34  0  0  0  0  0  0  0  0999 V2000
   41.6470   37.2044   -5.4963 C   0  0  0  0  0  0  0  0  0  0  0  0
   42.1729   36.8846   -6.5652 O   0  0  0  0  0  0  0  0  0  0  0  0
   42.3486   37.7933   -4.5225 N   0  0  0  0  0  0  0  0  0  0  0  0
   41.9598   38.1172   -3.1304 C   0  0  0  0  0  0  0  0  0  0  0  0
   43.7707   38.0720   -4.7696 C   0  0  0  0  0  0  0  0  0  0  0  0
   44.1199   39.0442   -3.6459 C   0  0  0  0  0  0  0  0  0  0  0  0
   43.2791   38.5628   -2.5187 C   0  0  0  0  0  0  0  0  0  0  0  0
   41.3689   36.9745   -2.3264 C   0  0  0  0  0  0  0  0  0  0  0  0
   42.0612   35.7692   -2.1765 C   0  0  0  0  0  0  0  0  0  0  0  0
   40.1560   37.1299   -1.6660 C   0  0  0  0  0  0  0  0  0  0  0  0
   41.5576   34.7444   -1.3859 C   0  0  0  0  0  0  0  0  0  0  0  0
   39.6427   36.1116   -0.8689 C   0  0  0  0  0  0  0  0  0  0  0  0
   40.3446   34.9179   -0.7279 C   0  0  0  0  0  0  0  0  0  0  0  0
   44.6979   36.8402   -4.8048 C   0  0  0  0  0  0  0  0  0  0  0  0
   45.1718   36.4717   -5.9053 O   0  0  0  0  0  0  0  0  0  0  0  0
   44.9775   36.2807   -3.7155 O   0  0  0  0  0  0  0  0  0  0  0  0
   44.5978   36.5924   -2.9176 H   0  0  0  0  0  0  0  0  0  0  0  0
   40.1763   36.9126   -5.2701 C   0  0  0  0  0  0  0  0  0  0  0  0
   38.3445   38.3503   -4.6242 C   0  0  0  0  0  0  0  0  0  0  0  0
   37.5206   37.4397   -4.6803 O   0  0  0  0  0  0  0  0  0  0  0  0
   39.6176   38.2095   -4.9616 N   0  0  0  0  0  0  0  0  0  0  0  0
   40.1957   39.0054   -5.0032 H   0  0  0  0  0  0  0  0  0  0  0  0
   36.3464   40.4048   -5.0659 S   0  0  0  0  0  0  0  0  0  0  0  0
   37.9131   39.7683   -4.2767 C   0  0  0  0  0  0  0  0  0  0  0  0
   36.1131   41.6778   -4.6480 H   0  0  0  0  0  0  0  0  0  0  0  0
   37.9303   39.8872   -2.7553 C   0  0  0  0  0  0  0  0  0  0  0  0
   37.3357   41.1747   -2.2485 C   0  0  0  0  0  0  0  0  0  0  0  0
   36.2934   41.1541   -1.3179 C   0  0  0  0  0  0  0  0  0  0  0  0
   37.7891   42.4022   -2.7242 C   0  0  0  0  0  0  0  0  0  0  0  0
   35.7150   42.3365   -0.8765 C   0  0  0  0  0  0  0  0  0  0  0  0
   37.2166   43.5911   -2.2893 C   0  0  0  0  0  0  0  0  0  0  0  0
   36.1804   43.5629   -1.3683 C   0  0  0  0  0  0  0  0  0  0  0  0
 23 24  1  0  0  0
 24 26  1  0  0  0
 24 19  1  0  0  0
 26 27  1  0  0  0
 27 28  2  0  0  0
 27 29  1  0  0  0
 28 30  1  0  0  0
 29 31  2  0  0  0
 30 32  2  0  0  0
 31 32  1  0  0  0
 19 20  2  0  0  0
 19 21  1  0  0  0
 21 18  1  0  0  0
 18  1  1  0  0  0
  1  2  2  0  0  0
  1  3  1  0  0  0
  3  4  1  0  0  0
  3  5  1  0  0  0
  4  7  1  0  0  0
  4  8  1  0  0  0
  5  6  1  0  0  0
  5 14  1  0  0  0
  6  7  1  0  0  0
  8  9  1  0  0  0
  8 10  2  0  0  0
  9 11  2  0  0  0
 10 12  1  0  0  0
 11 13  1  0  0  0
 12 13  2  0  0  0
 14 15  2  0  0  0
 14 16  1  0  0  0
 23 25  1  0  0  0
 21 22  1  0  0  0
 16 17  1  0  0  0
M  END
> <minimizedAffinity>
-6.56118

$$$$
