1YC4_43P_A_301
  RCSB PDB12061704443D
Coordinates from PDB:1YC4:A:301 Model:1 without hydrogens
 20 22  0  0  0  0            999 V2000
   32.7690   32.2390   -3.8380   O 0  0  0  0  0  0  0  0  0  0  0  0
   33.9300   32.1240   -3.1370   C 0  0  0  0  0  0  0  0  0  0  0  0
   33.8620   31.7060   -1.8070   C 0  0  0  0  0  0  0  0  0  0  0  0
   35.0320   31.5290   -1.0690   C 0  0  0  0  0  0  0  0  0  0  0  0
   34.9460   31.2410    0.2620   O 0  0  0  0  0  0  0  0  0  0  0  0
   36.2710   31.7420   -1.6720   C 0  0  0  0  0  0  0  0  0  0  0  0
   37.5870   31.3210   -1.0050   C 0  0  0  0  0  0  0  0  0  0  0  0
   37.7730   29.8000   -1.0560   C 0  0  0  0  0  0  0  0  0  0  0  0
   36.3180   32.2020   -2.9890   C 0  0  0  0  0  0  0  0  0  0  0  0
   35.1570   32.3960   -3.7360   C 0  0  0  0  0  0  0  0  0  0  0  0
   35.2030   32.8350   -5.0630   C 0  0  0  0  0  0  0  0  0  0  0  0
   34.8650   32.1240   -6.1400   N 0  0  0  0  0  0  0  0  0  0  0  0
   35.0220   32.7870   -7.1700   N 0  0  0  0  0  0  0  0  0  0  0  0
   35.4930   33.9940   -6.8710   C 0  0  0  0  0  0  0  0  0  0  0  0
   35.6180   34.0750   -5.5490   C 0  0  0  0  0  0  0  0  0  0  0  0
   35.9810   35.2120   -4.8340   C 0  0  0  0  0  0  0  0  0  0  0  0
   36.6170   36.2670   -5.3390   C 0  0  0  0  0  0  0  0  0  0  0  0
   36.7480   37.1850   -4.3850   N 0  0  0  0  0  0  0  0  0  0  0  0
   36.1990   36.7030   -3.2730   C 0  0  0  0  0  0  0  0  0  0  0  0
   35.7300   35.4900   -3.5570   N 0  0  0  0  0  0  0  0  0  0  0  0
  1  2  1  0  0  0  0
  2  3  2  0  0  0  0
  2 10  1  0  0  0  0
  3  4  1  0  0  0  0
  4  5  1  0  0  0  0
  4  6  2  0  0  0  0
  6  7  1  0  0  0  0
  6  9  1  0  0  0  0
  7  8  1  0  0  0  0
  9 10  2  0  0  0  0
 10 11  1  0  0  0  0
 11 12  2  0  0  0  0
 11 15  1  0  0  0  0
 12 13  1  0  0  0  0
 13 14  1  0  0  0  0
 14 15  2  0  0  0  0
 15 16  1  0  0  0  0
 16 17  2  0  0  0  0
 16 20  1  0  0  0  0
 17 18  1  0  0  0  0
 18 19  1  0  0  0  0
 19 20  2  0  0  0  0
A    1
OAQ
A    2
CAF
A    3
CAJ
A    4
CAL
A    5
OAR
A    6
CAM
A    7
CAS
A    8
CAT
A    9
CAG
A   10
CAC
A   11
CAB
A   12
NAE
A   13
NAI
A   14
CAK
A   15
CAA
A   16
CAD
A   17
CAP
A   18
NAN
A   19
CAO
A   20
NAH
M  END
>  <InstanceId>
1YC4_43P_A_301

>  <ChemCompId>
43P

>  <PdbId>
1YC4

>  <ChainId>
A

>  <ResidueNumber>
301

>  <InsertionCode>


>  <Model>
1

>  <AltIds>


>  <MissingHeavyAtoms>
0

>  <ObservedFormula>
C14 N4 O2

>  <Name>
4-(1H-IMIDAZOL-4-YL)-3-(5-ETHYL-2,4-DIHYDROXY-PHENYL)-1H-PYRAZOLE

>  <SystematicName>
4-ethyl-6-[4-(1H-imidazol-4-yl)-1H-pyrazol-3-yl]benzene-1,3-diol

>  <Synonyms>


>  <Type>
NON-POLYMER

>  <Formula>
C14 H14 N4 O2

>  <MolecularWeight>
270.287

>  <ModifiedDate>
2011-06-04

>  <Parent>


>  <OneLetterCode>


>  <SubcomponentList>


>  <AmbiguousFlag>
N

>  <InChI>
InChI=1S/C14H14N4O2/c1-2-8-3-9(13(20)4-12(8)19)14-10(5-17-18-14)11-6-15-7-16-11/h3-7,19-20H,2H2,1H3,(H,15,16)(H,17,18)

>  <InChIKey>
ATORUNMAUREKMH-UHFFFAOYSA-N

>  <SMILES>
CCc1cc(c(cc1O)O)c2c(c[nH]n2)c3c[nH]cn3

$$$$
