1YC4_43P_A_301


 24 26  0  0  0  0  0  0  0  0999 V2000
   32.8329   32.4137   -3.5311 O   0  0  0  0  0  0  0  0  0  0  0  0
   34.0009   32.1729   -2.8751 C   0  0  0  0  0  0  0  0  0  0  0  0
   33.9390   31.7423   -1.5488 C   0  0  0  0  0  0  0  0  0  0  0  0
   35.1110   31.4383   -0.8569 C   0  0  0  0  0  0  0  0  0  0  0  0
   35.0442   31.1388    0.4727 O   0  0  0  0  0  0  0  0  0  0  0  0
   36.3428   31.5372   -1.5026 C   0  0  0  0  0  0  0  0  0  0  0  0
   36.3885   32.0115   -2.8146 C   0  0  0  0  0  0  0  0  0  0  0  0
   35.2268   32.3317   -3.5156 C   0  0  0  0  0  0  0  0  0  0  0  0
   32.0150   32.3029   -3.0876 H   0  0  0  0  0  0  0  0  0  0  0  0
   34.2113   31.0746    0.8972 H   0  0  0  0  0  0  0  0  0  0  0  0
   35.2691   32.7853   -4.8378 C   0  0  0  0  0  0  0  0  0  0  0  0
   34.8971   32.0977   -5.9187 N   0  0  0  0  0  0  0  0  0  0  0  0
   35.0605   32.7684   -6.9427 N   0  0  0  0  0  0  0  0  0  0  0  0
   35.5702   33.9575   -6.6355 C   0  0  0  0  0  0  0  0  0  0  0  0
   35.7140   34.0186   -5.3143 C   0  0  0  0  0  0  0  0  0  0  0  0
   34.8447   32.4664   -7.8545 H   0  0  0  0  0  0  0  0  0  0  0  0
   36.1188   35.1358   -4.5906 C   0  0  0  0  0  0  0  0  0  0  0  0
   35.3753   36.2172   -4.3664 C   0  0  0  0  0  0  0  0  0  0  0  0
   36.0611   37.0558   -3.5942 N   0  0  0  0  0  0  0  0  0  0  0  0
   37.2440   36.5035   -3.3373 C   0  0  0  0  0  0  0  0  0  0  0  0
   37.2719   35.3237   -3.9532 N   0  0  0  0  0  0  0  0  0  0  0  0
   35.7484   37.9312   -3.2698 H   0  0  0  0  0  0  0  0  0  0  0  0
   37.6332   30.9771   -0.8901 C   0  0  0  0  0  0  0  0  0  0  0  0
   37.9607   29.5911   -1.4579 C   0  0  0  0  0  0  0  0  0  0  0  0
  1  2  1  0  0  0
  2  3  2  0  0  0
  2  8  1  0  0  0
  3  4  1  0  0  0
  4  5  1  0  0  0
  4  6  2  0  0  0
  6 23  1  0  0  0
  6  7  1  0  0  0
 23 24  1  0  0  0
  7  8  2  0  0  0
  8 11  1  0  0  0
 11 12  2  0  0  0
 11 15  1  0  0  0
 12 13  1  0  0  0
 13 14  1  0  0  0
 14 15  2  0  0  0
 15 17  1  0  0  0
 17 18  2  0  0  0
 17 21  1  0  0  0
 18 19  1  0  0  0
 19 20  1  0  0  0
 20 21  2  0  0  0
  1  9  1  0  0  0
  5 10  1  0  0  0
 13 16  1  0  0  0
 19 22  1  0  0  0
M  END
> <minimizedAffinity>
-8.75612

$$$$
1YC4_43P_A_301


 24 26  0  0  0  0  0  0  0  0999 V2000
   35.0403   31.6445   -5.3684 O   0  0  0  0  0  0  0  0  0  0  0  0
   35.4258   32.8956   -4.9957 C   0  0  0  0  0  0  0  0  0  0  0  0
   36.0756   33.6962   -5.9366 C   0  0  0  0  0  0  0  0  0  0  0  0
   36.4433   35.0010   -5.6096 C   0  0  0  0  0  0  0  0  0  0  0  0
   37.1859   35.7281   -6.4938 O   0  0  0  0  0  0  0  0  0  0  0  0
   36.1338   35.5138   -4.3504 C   0  0  0  0  0  0  0  0  0  0  0  0
   35.5234   34.6845   -3.4081 C   0  0  0  0  0  0  0  0  0  0  0  0
   35.1610   33.3739   -3.7153 C   0  0  0  0  0  0  0  0  0  0  0  0
   35.2251   31.3355   -6.2334 H   0  0  0  0  0  0  0  0  0  0  0  0
   37.3884   35.3743   -7.3375 H   0  0  0  0  0  0  0  0  0  0  0  0
   34.5287   32.5488   -2.7798 C   0  0  0  0  0  0  0  0  0  0  0  0
   33.2136   32.3621   -2.6558 N   0  0  0  0  0  0  0  0  0  0  0  0
   32.9669   31.5808   -1.7318 N   0  0  0  0  0  0  0  0  0  0  0  0
   34.0959   31.1893   -1.1486 C   0  0  0  0  0  0  0  0  0  0  0  0
   35.1125   31.7697   -1.7807 C   0  0  0  0  0  0  0  0  0  0  0  0
   32.0649   31.2899   -1.4655 H   0  0  0  0  0  0  0  0  0  0  0  0
   36.4623   31.5343   -1.5389 C   0  0  0  0  0  0  0  0  0  0  0  0
   37.0694   30.3549   -1.6533 C   0  0  0  0  0  0  0  0  0  0  0  0
   38.3659   30.5145   -1.4010 N   0  0  0  0  0  0  0  0  0  0  0  0
   38.5746   31.7979   -1.1193 C   0  0  0  0  0  0  0  0  0  0  0  0
   37.3999   32.4181   -1.2059 N   0  0  0  0  0  0  0  0  0  0  0  0
   39.0505   29.8072   -1.4196 H   0  0  0  0  0  0  0  0  0  0  0  0
   36.2754   37.0050   -4.0185 C   0  0  0  0  0  0  0  0  0  0  0  0
   36.2686   37.2391   -2.5034 C   0  0  0  0  0  0  0  0  0  0  0  0
  1  2  1  0  0  0
  2  3  2  0  0  0
  2  8  1  0  0  0
  3  4  1  0  0  0
  4  5  1  0  0  0
  4  6  2  0  0  0
  6 23  1  0  0  0
  6  7  1  0  0  0
 23 24  1  0  0  0
  7  8  2  0  0  0
  8 11  1  0  0  0
 11 12  2  0  0  0
 11 15  1  0  0  0
 12 13  1  0  0  0
 13 14  1  0  0  0
 14 15  2  0  0  0
 15 17  1  0  0  0
 17 18  2  0  0  0
 17 21  1  0  0  0
 18 19  1  0  0  0
 19 20  1  0  0  0
 20 21  2  0  0  0
  1  9  1  0  0  0
  5 10  1  0  0  0
 13 16  1  0  0  0
 19 22  1  0  0  0
M  END
> <minimizedAffinity>
-8.00905

$$$$
1YC4_43P_A_301


 24 26  0  0  0  0  0  0  0  0999 V2000
   34.7553   36.2705   -4.1252 O   0  0  0  0  0  0  0  0  0  0  0  0
   35.9647   35.9272   -3.6037 C   0  0  0  0  0  0  0  0  0  0  0  0
   36.5558   36.7891   -2.6785 C   0  0  0  0  0  0  0  0  0  0  0  0
   37.7713   36.4504   -2.0846 C   0  0  0  0  0  0  0  0  0  0  0  0
   38.3969   37.3560   -1.2782 O   0  0  0  0  0  0  0  0  0  0  0  0
   38.3797   35.2349   -2.3951 C   0  0  0  0  0  0  0  0  0  0  0  0
   37.7965   34.4062   -3.3550 C   0  0  0  0  0  0  0  0  0  0  0  0
   36.5882   34.7366   -3.9670 C   0  0  0  0  0  0  0  0  0  0  0  0
   34.3471   37.0749   -3.8717 H   0  0  0  0  0  0  0  0  0  0  0  0
   37.9794   38.1700   -1.0756 H   0  0  0  0  0  0  0  0  0  0  0  0
   35.9907   33.8968   -4.9123 C   0  0  0  0  0  0  0  0  0  0  0  0
   36.0976   34.0012   -6.2380 N   0  0  0  0  0  0  0  0  0  0  0  0
   35.4478   33.1150   -6.8014 N   0  0  0  0  0  0  0  0  0  0  0  0
   34.8381   32.3504   -5.9004 C   0  0  0  0  0  0  0  0  0  0  0  0
   35.1564   32.8012   -4.6899 C   0  0  0  0  0  0  0  0  0  0  0  0
   35.3897   32.9923   -7.7764 H   0  0  0  0  0  0  0  0  0  0  0  0
   34.8033   32.2082   -3.4818 C   0  0  0  0  0  0  0  0  0  0  0  0
   35.6238   31.5102   -2.6995 C   0  0  0  0  0  0  0  0  0  0  0  0
   34.9628   31.1436   -1.6046 N   0  0  0  0  0  0  0  0  0  0  0  0
   33.7191   31.6062   -1.7015 C   0  0  0  0  0  0  0  0  0  0  0  0
   33.6288   32.2592   -2.8580 N   0  0  0  0  0  0  0  0  0  0  0  0
   35.3295   30.6217   -0.8546 H   0  0  0  0  0  0  0  0  0  0  0  0
   39.5698   34.6894   -1.5950 C   0  0  0  0  0  0  0  0  0  0  0  0
   40.8824   34.8570   -2.3694 C   0  0  0  0  0  0  0  0  0  0  0  0
  1  2  1  0  0  0
  2  3  2  0  0  0
  2  8  1  0  0  0
  3  4  1  0  0  0
  4  5  1  0  0  0
  4  6  2  0  0  0
  6 23  1  0  0  0
  6  7  1  0  0  0
 23 24  1  0  0  0
  7  8  2  0  0  0
  8 11  1  0  0  0
 11 12  2  0  0  0
 11 15  1  0  0  0
 12 13  1  0  0  0
 13 14  1  0  0  0
 14 15  2  0  0  0
 15 17  1  0  0  0
 17 18  2  0  0  0
 17 21  1  0  0  0
 18 19  1  0  0  0
 19 20  1  0  0  0
 20 21  2  0  0  0
  1  9  1  0  0  0
  5 10  1  0  0  0
 13 16  1  0  0  0
 19 22  1  0  0  0
M  END
> <minimizedAffinity>
-7.73475

$$$$
1YC4_43P_A_301


 24 26  0  0  0  0  0  0  0  0999 V2000
   35.4125   31.6258   -4.7706 O   0  0  0  0  0  0  0  0  0  0  0  0
   35.7098   32.8538   -4.2645 C   0  0  0  0  0  0  0  0  0  0  0  0
   35.2067   33.9794   -4.9190 C   0  0  0  0  0  0  0  0  0  0  0  0
   35.4480   35.2531   -4.4051 C   0  0  0  0  0  0  0  0  0  0  0  0
   35.0573   36.3478   -5.1199 O   0  0  0  0  0  0  0  0  0  0  0  0
   36.1676   35.3976   -3.2196 C   0  0  0  0  0  0  0  0  0  0  0  0
   36.7002   34.2642   -2.6031 C   0  0  0  0  0  0  0  0  0  0  0  0
   36.4787   32.9851   -3.1114 C   0  0  0  0  0  0  0  0  0  0  0  0
   34.8940   31.5522   -5.5476 H   0  0  0  0  0  0  0  0  0  0  0  0
   34.5739   36.2398   -5.9154 H   0  0  0  0  0  0  0  0  0  0  0  0
   36.9923   31.8465   -2.4824 C   0  0  0  0  0  0  0  0  0  0  0  0
   38.2065   31.3253   -2.6660 N   0  0  0  0  0  0  0  0  0  0  0  0
   38.3595   30.3151   -1.9724 N   0  0  0  0  0  0  0  0  0  0  0  0
   37.2545   30.0653   -1.2762 C   0  0  0  0  0  0  0  0  0  0  0  0
   36.3626   31.0108   -1.5598 C   0  0  0  0  0  0  0  0  0  0  0  0
   39.1807   29.7731   -1.9396 H   0  0  0  0  0  0  0  0  0  0  0  0
   35.1181   31.1629   -0.9566 C   0  0  0  0  0  0  0  0  0  0  0  0
   33.9561   31.2438   -1.6016 C   0  0  0  0  0  0  0  0  0  0  0  0
   32.9748   31.3270   -0.7070 N   0  0  0  0  0  0  0  0  0  0  0  0
   33.5217   31.3060    0.5057 C   0  0  0  0  0  0  0  0  0  0  0  0
   34.8391   31.2052    0.3439 N   0  0  0  0  0  0  0  0  0  0  0  0
   32.0131   31.3925   -0.9073 H   0  0  0  0  0  0  0  0  0  0  0  0
   36.2465   36.7339   -2.4698 C   0  0  0  0  0  0  0  0  0  0  0  0
   37.7016   37.1294   -2.1925 C   0  0  0  0  0  0  0  0  0  0  0  0
  1  2  1  0  0  0
  2  3  2  0  0  0
  2  8  1  0  0  0
  3  4  1  0  0  0
  4  5  1  0  0  0
  4  6  2  0  0  0
  6 23  1  0  0  0
  6  7  1  0  0  0
 23 24  1  0  0  0
  7  8  2  0  0  0
  8 11  1  0  0  0
 11 12  2  0  0  0
 11 15  1  0  0  0
 12 13  1  0  0  0
 13 14  1  0  0  0
 14 15  2  0  0  0
 15 17  1  0  0  0
 17 18  2  0  0  0
 17 21  1  0  0  0
 18 19  1  0  0  0
 19 20  1  0  0  0
 20 21  2  0  0  0
  1  9  1  0  0  0
  5 10  1  0  0  0
 13 16  1  0  0  0
 19 22  1  0  0  0
M  END
> <minimizedAffinity>
-7.21920

$$$$
1YC4_43P_A_301


 24 26  0  0  0  0  0  0  0  0999 V2000
   37.0559   36.2247   -5.5576 O   0  0  0  0  0  0  0  0  0  0  0  0
   36.4595   35.1721   -4.9338 C   0  0  0  0  0  0  0  0  0  0  0  0
   36.0318   34.0961   -5.7132 C   0  0  0  0  0  0  0  0  0  0  0  0
   35.4601   32.9776   -5.1075 C   0  0  0  0  0  0  0  0  0  0  0  0
   34.9349   31.9894   -5.8882 O   0  0  0  0  0  0  0  0  0  0  0  0
   35.3440   32.9244   -3.7190 C   0  0  0  0  0  0  0  0  0  0  0  0
   35.7366   34.0276   -2.9594 C   0  0  0  0  0  0  0  0  0  0  0  0
   36.2981   35.1583   -3.5510 C   0  0  0  0  0  0  0  0  0  0  0  0
   37.1580   36.2207   -6.4890 H   0  0  0  0  0  0  0  0  0  0  0  0
   35.0183   32.0346   -6.8204 H   0  0  0  0  0  0  0  0  0  0  0  0
   36.7130   36.2555   -2.7896 C   0  0  0  0  0  0  0  0  0  0  0  0
   36.0020   37.3570   -2.5428 N   0  0  0  0  0  0  0  0  0  0  0  0
   36.6457   38.1471   -1.8452 N   0  0  0  0  0  0  0  0  0  0  0  0
   37.8488   37.6478   -1.5781 C   0  0  0  0  0  0  0  0  0  0  0  0
   37.9367   36.4491   -2.1484 C   0  0  0  0  0  0  0  0  0  0  0  0
   36.3158   39.0203   -1.5323 H   0  0  0  0  0  0  0  0  0  0  0  0
   38.9985   35.5600   -2.0145 C   0  0  0  0  0  0  0  0  0  0  0  0
   40.0526   35.4941   -2.8251 C   0  0  0  0  0  0  0  0  0  0  0  0
   40.8911   34.5704   -2.3629 N   0  0  0  0  0  0  0  0  0  0  0  0
   40.3592   34.0474   -1.2611 C   0  0  0  0  0  0  0  0  0  0  0  0
   39.1961   34.6606   -1.0537 N   0  0  0  0  0  0  0  0  0  0  0  0
   41.7535   34.3182   -2.7653 H   0  0  0  0  0  0  0  0  0  0  0  0
   34.9683   31.6335   -2.9798 C   0  0  0  0  0  0  0  0  0  0  0  0
   33.8700   31.8888   -1.9409 C   0  0  0  0  0  0  0  0  0  0  0  0
  1  2  1  0  0  0
  2  3  2  0  0  0
  2  8  1  0  0  0
  3  4  1  0  0  0
  4  5  1  0  0  0
  4  6  2  0  0  0
  6 23  1  0  0  0
  6  7  1  0  0  0
 23 24  1  0  0  0
  7  8  2  0  0  0
  8 11  1  0  0  0
 11 12  2  0  0  0
 11 15  1  0  0  0
 12 13  1  0  0  0
 13 14  1  0  0  0
 14 15  2  0  0  0
 15 17  1  0  0  0
 17 18  2  0  0  0
 17 21  1  0  0  0
 18 19  1  0  0  0
 19 20  1  0  0  0
 20 21  2  0  0  0
  1  9  1  0  0  0
  5 10  1  0  0  0
 13 16  1  0  0  0
 19 22  1  0  0  0
M  END
> <minimizedAffinity>
-7.16971

$$$$
1YC4_43P_A_301


 24 26  0  0  0  0  0  0  0  0999 V2000
   38.7043   33.0527   -3.9107 O   0  0  0  0  0  0  0  0  0  0  0  0
   38.1122   34.1865   -3.4453 C   0  0  0  0  0  0  0  0  0  0  0  0
   38.7788   34.9290   -2.4692 C   0  0  0  0  0  0  0  0  0  0  0  0
   38.2288   36.1220   -2.0013 C   0  0  0  0  0  0  0  0  0  0  0  0
   38.8275   36.7719   -0.9616 O   0  0  0  0  0  0  0  0  0  0  0  0
   37.0261   36.5863   -2.5324 C   0  0  0  0  0  0  0  0  0  0  0  0
   36.3522   35.8087   -3.4755 C   0  0  0  0  0  0  0  0  0  0  0  0
   36.8825   34.6076   -3.9440 C   0  0  0  0  0  0  0  0  0  0  0  0
   39.5322   32.7811   -3.5660 H   0  0  0  0  0  0  0  0  0  0  0  0
   39.6357   36.4517   -0.6119 H   0  0  0  0  0  0  0  0  0  0  0  0
   36.2198   33.8384   -4.9058 C   0  0  0  0  0  0  0  0  0  0  0  0
   36.3629   33.9367   -6.2284 N   0  0  0  0  0  0  0  0  0  0  0  0
   35.6359   33.1251   -6.8097 N   0  0  0  0  0  0  0  0  0  0  0  0
   34.9327   32.4241   -5.9253 C   0  0  0  0  0  0  0  0  0  0  0  0
   35.2722   32.8343   -4.7061 C   0  0  0  0  0  0  0  0  0  0  0  0
   35.5845   33.0132   -7.7864 H   0  0  0  0  0  0  0  0  0  0  0  0
   34.8359   32.2760   -3.5087 C   0  0  0  0  0  0  0  0  0  0  0  0
   35.5868   31.5564   -2.6776 C   0  0  0  0  0  0  0  0  0  0  0  0
   34.8585   31.2356   -1.6115 N   0  0  0  0  0  0  0  0  0  0  0  0
   33.6419   31.7487   -1.7756 C   0  0  0  0  0  0  0  0  0  0  0  0
   33.6359   32.3865   -2.9440 N   0  0  0  0  0  0  0  0  0  0  0  0
   35.1657   30.7107   -0.8373 H   0  0  0  0  0  0  0  0  0  0  0  0
   36.5027   38.0014   -2.2539 C   0  0  0  0  0  0  0  0  0  0  0  0
   36.8522   38.9577   -3.4002 C   0  0  0  0  0  0  0  0  0  0  0  0
  1  2  1  0  0  0
  2  3  2  0  0  0
  2  8  1  0  0  0
  3  4  1  0  0  0
  4  5  1  0  0  0
  4  6  2  0  0  0
  6 23  1  0  0  0
  6  7  1  0  0  0
 23 24  1  0  0  0
  7  8  2  0  0  0
  8 11  1  0  0  0
 11 12  2  0  0  0
 11 15  1  0  0  0
 12 13  1  0  0  0
 13 14  1  0  0  0
 14 15  2  0  0  0
 15 17  1  0  0  0
 17 18  2  0  0  0
 17 21  1  0  0  0
 18 19  1  0  0  0
 19 20  1  0  0  0
 20 21  2  0  0  0
  1  9  1  0  0  0
  5 10  1  0  0  0
 13 16  1  0  0  0
 19 22  1  0  0  0
M  END
> <minimizedAffinity>
-7.14223

$$$$
1YC4_43P_A_301


 24 26  0  0  0  0  0  0  0  0999 V2000
   35.7495   36.0158   -2.7093 O   0  0  0  0  0  0  0  0  0  0  0  0
   37.0598   35.6500   -2.6669 C   0  0  0  0  0  0  0  0  0  0  0  0
   38.0148   36.6358   -2.4132 C   0  0  0  0  0  0  0  0  0  0  0  0
   39.3631   36.2940   -2.3136 C   0  0  0  0  0  0  0  0  0  0  0  0
   40.2961   37.2819   -2.1893 O   0  0  0  0  0  0  0  0  0  0  0  0
   39.7514   34.9606   -2.4386 C   0  0  0  0  0  0  0  0  0  0  0  0
   38.7882   33.9952   -2.7358 C   0  0  0  0  0  0  0  0  0  0  0  0
   37.4380   34.3228   -2.8511 C   0  0  0  0  0  0  0  0  0  0  0  0
   35.5092   36.9127   -2.5837 H   0  0  0  0  0  0  0  0  0  0  0  0
   40.0247   38.1748   -2.1059 H   0  0  0  0  0  0  0  0  0  0  0  0
   36.4685   33.3533   -3.1262 C   0  0  0  0  0  0  0  0  0  0  0  0
   35.8308   32.6001   -2.2285 N   0  0  0  0  0  0  0  0  0  0  0  0
   35.0387   31.8324   -2.7838 N   0  0  0  0  0  0  0  0  0  0  0  0
   35.0896   31.9961   -4.1024 C   0  0  0  0  0  0  0  0  0  0  0  0
   35.9752   32.9526   -4.3681 C   0  0  0  0  0  0  0  0  0  0  0  0
   34.4541   31.1920   -2.3176 H   0  0  0  0  0  0  0  0  0  0  0  0
   36.2409   33.4898   -5.6237 C   0  0  0  0  0  0  0  0  0  0  0  0
   35.4317   33.4156   -6.6783 C   0  0  0  0  0  0  0  0  0  0  0  0
   35.9813   34.0857   -7.6877 N   0  0  0  0  0  0  0  0  0  0  0  0
   37.1447   34.5773   -7.2692 C   0  0  0  0  0  0  0  0  0  0  0  0
   37.2972   34.2067   -5.9998 N   0  0  0  0  0  0  0  0  0  0  0  0
   35.5951   34.1980   -8.5863 H   0  0  0  0  0  0  0  0  0  0  0  0
   41.1674   34.4860   -2.0866 C   0  0  0  0  0  0  0  0  0  0  0  0
   41.2791   34.1286   -0.5999 C   0  0  0  0  0  0  0  0  0  0  0  0
  1  2  1  0  0  0
  2  3  2  0  0  0
  2  8  1  0  0  0
  3  4  1  0  0  0
  4  5  1  0  0  0
  4  6  2  0  0  0
  6 23  1  0  0  0
  6  7  1  0  0  0
 23 24  1  0  0  0
  7  8  2  0  0  0
  8 11  1  0  0  0
 11 12  2  0  0  0
 11 15  1  0  0  0
 12 13  1  0  0  0
 13 14  1  0  0  0
 14 15  2  0  0  0
 15 17  1  0  0  0
 17 18  2  0  0  0
 17 21  1  0  0  0
 18 19  1  0  0  0
 19 20  1  0  0  0
 20 21  2  0  0  0
  1  9  1  0  0  0
  5 10  1  0  0  0
 13 16  1  0  0  0
 19 22  1  0  0  0
M  END
> <minimizedAffinity>
-6.86759

$$$$
1YC4_43P_A_301


 24 26  0  0  0  0  0  0  0  0999 V2000
   39.3250   33.1095   -3.4050 O   0  0  0  0  0  0  0  0  0  0  0  0
   38.2509   32.5729   -2.7639 C   0  0  0  0  0  0  0  0  0  0  0  0
   38.3617   31.2771   -2.2569 C   0  0  0  0  0  0  0  0  0  0  0  0
   37.3011   30.7093   -1.5515 C   0  0  0  0  0  0  0  0  0  0  0  0
   37.3757   29.4014   -1.1700 O   0  0  0  0  0  0  0  0  0  0  0  0
   36.1411   31.4502   -1.3284 C   0  0  0  0  0  0  0  0  0  0  0  0
   36.0314   32.7274   -1.8806 C   0  0  0  0  0  0  0  0  0  0  0  0
   37.0778   33.3041   -2.5990 C   0  0  0  0  0  0  0  0  0  0  0  0
   40.1083   32.6059   -3.5089 H   0  0  0  0  0  0  0  0  0  0  0  0
   38.1599   28.9123   -1.3245 H   0  0  0  0  0  0  0  0  0  0  0  0
   36.9783   34.5926   -3.1335 C   0  0  0  0  0  0  0  0  0  0  0  0
   37.4261   35.7158   -2.5700 N   0  0  0  0  0  0  0  0  0  0  0  0
   37.1815   36.6927   -3.2849 N   0  0  0  0  0  0  0  0  0  0  0  0
   36.5353   36.3080   -4.3815 C   0  0  0  0  0  0  0  0  0  0  0  0
   36.3891   34.9865   -4.3350 C   0  0  0  0  0  0  0  0  0  0  0  0
   37.4291   37.6218   -3.0734 H   0  0  0  0  0  0  0  0  0  0  0  0
   35.8567   34.1907   -5.3444 C   0  0  0  0  0  0  0  0  0  0  0  0
   35.9298   34.4514   -6.6480 C   0  0  0  0  0  0  0  0  0  0  0  0
   35.3643   33.4503   -7.3173 N   0  0  0  0  0  0  0  0  0  0  0  0
   34.9267   32.5593   -6.4313 C   0  0  0  0  0  0  0  0  0  0  0  0
   35.2329   33.0216   -5.2211 N   0  0  0  0  0  0  0  0  0  0  0  0
   35.2839   33.3809   -8.2960 H   0  0  0  0  0  0  0  0  0  0  0  0
   35.0523   30.9882   -0.3512 C   0  0  0  0  0  0  0  0  0  0  0  0
   33.6523   31.3020   -0.8917 C   0  0  0  0  0  0  0  0  0  0  0  0
  1  2  1  0  0  0
  2  3  2  0  0  0
  2  8  1  0  0  0
  3  4  1  0  0  0
  4  5  1  0  0  0
  4  6  2  0  0  0
  6 23  1  0  0  0
  6  7  1  0  0  0
 23 24  1  0  0  0
  7  8  2  0  0  0
  8 11  1  0  0  0
 11 12  2  0  0  0
 11 15  1  0  0  0
 12 13  1  0  0  0
 13 14  1  0  0  0
 14 15  2  0  0  0
 15 17  1  0  0  0
 17 18  2  0  0  0
 17 21  1  0  0  0
 18 19  1  0  0  0
 19 20  1  0  0  0
 20 21  2  0  0  0
  1  9  1  0  0  0
  5 10  1  0  0  0
 13 16  1  0  0  0
 19 22  1  0  0  0
M  END
> <minimizedAffinity>
-6.79001

$$$$
1YC4_43P_A_301


 24 26  0  0  0  0  0  0  0  0999 V2000
   36.4480   35.6847   -4.2885 O   0  0  0  0  0  0  0  0  0  0  0  0
   36.7946   34.6907   -3.4258 C   0  0  0  0  0  0  0  0  0  0  0  0
   35.8182   33.7642   -3.0562 C   0  0  0  0  0  0  0  0  0  0  0  0
   36.1451   32.7028   -2.2128 C   0  0  0  0  0  0  0  0  0  0  0  0
   35.1560   31.8782   -1.7614 O   0  0  0  0  0  0  0  0  0  0  0  0
   37.4565   32.5526   -1.7636 C   0  0  0  0  0  0  0  0  0  0  0  0
   38.4090   33.5131   -2.1078 C   0  0  0  0  0  0  0  0  0  0  0  0
   38.0950   34.5868   -2.9396 C   0  0  0  0  0  0  0  0  0  0  0  0
   35.5690   35.7426   -4.6079 H   0  0  0  0  0  0  0  0  0  0  0  0
   34.2779   31.9875   -2.0695 H   0  0  0  0  0  0  0  0  0  0  0  0
   39.0536   35.5376   -3.3041 C   0  0  0  0  0  0  0  0  0  0  0  0
   39.3845   35.8854   -4.5488 N   0  0  0  0  0  0  0  0  0  0  0  0
   40.2696   36.7467   -4.5427 N   0  0  0  0  0  0  0  0  0  0  0  0
   40.6172   37.0381   -3.2927 C   0  0  0  0  0  0  0  0  0  0  0  0
   39.8708   36.3035   -2.4723 C   0  0  0  0  0  0  0  0  0  0  0  0
   40.6611   37.1580   -5.3469 H   0  0  0  0  0  0  0  0  0  0  0  0
   39.8584   36.3927   -1.0839 C   0  0  0  0  0  0  0  0  0  0  0  0
   39.2600   37.3519   -0.3807 C   0  0  0  0  0  0  0  0  0  0  0  0
   39.4054   37.0870    0.9149 N   0  0  0  0  0  0  0  0  0  0  0  0
   40.1045   35.9606    1.0279 C   0  0  0  0  0  0  0  0  0  0  0  0
   40.3793   35.5402   -0.2048 N   0  0  0  0  0  0  0  0  0  0  0  0
   39.0569   37.6291    1.6592 H   0  0  0  0  0  0  0  0  0  0  0  0
   37.9359   31.2797   -1.0539 C   0  0  0  0  0  0  0  0  0  0  0  0
   37.8721   30.0659   -1.9884 C   0  0  0  0  0  0  0  0  0  0  0  0
  1  2  1  0  0  0
  2  3  2  0  0  0
  2  8  1  0  0  0
  3  4  1  0  0  0
  4  5  1  0  0  0
  4  6  2  0  0  0
  6 23  1  0  0  0
  6  7  1  0  0  0
 23 24  1  0  0  0
  7  8  2  0  0  0
  8 11  1  0  0  0
 11 12  2  0  0  0
 11 15  1  0  0  0
 12 13  1  0  0  0
 13 14  1  0  0  0
 14 15  2  0  0  0
 15 17  1  0  0  0
 17 18  2  0  0  0
 17 21  1  0  0  0
 18 19  1  0  0  0
 19 20  1  0  0  0
 20 21  2  0  0  0
  1  9  1  0  0  0
  5 10  1  0  0  0
 13 16  1  0  0  0
 19 22  1  0  0  0
M  END
> <minimizedAffinity>
-6.78422

$$$$
1YC4_43P_A_301


 24 26  0  0  0  0  0  0  0  0999 V2000
   37.6259   34.3862   -5.6795 O   0  0  0  0  0  0  0  0  0  0  0  0
   36.9615   33.7623   -4.6686 C   0  0  0  0  0  0  0  0  0  0  0  0
   35.7584   33.1194   -4.9643 C   0  0  0  0  0  0  0  0  0  0  0  0
   35.0717   32.4277   -3.9669 C   0  0  0  0  0  0  0  0  0  0  0  0
   33.8387   31.9105   -4.2394 O   0  0  0  0  0  0  0  0  0  0  0  0
   35.6050   32.3549   -2.6807 C   0  0  0  0  0  0  0  0  0  0  0  0
   36.7862   33.0406   -2.3929 C   0  0  0  0  0  0  0  0  0  0  0  0
   37.4779   33.7471   -3.3758 C   0  0  0  0  0  0  0  0  0  0  0  0
   37.2666   34.3886   -6.5449 H   0  0  0  0  0  0  0  0  0  0  0  0
   33.4893   31.9645   -5.1072 H   0  0  0  0  0  0  0  0  0  0  0  0
   38.6735   34.4158   -3.0946 C   0  0  0  0  0  0  0  0  0  0  0  0
   39.8740   33.8536   -2.9447 N   0  0  0  0  0  0  0  0  0  0  0  0
   40.7302   34.7079   -2.6954 N   0  0  0  0  0  0  0  0  0  0  0  0
   40.1727   35.9139   -2.6424 C   0  0  0  0  0  0  0  0  0  0  0  0
   38.8732   35.7819   -2.8952 C   0  0  0  0  0  0  0  0  0  0  0  0
   41.6870   34.5228   -2.5561 H   0  0  0  0  0  0  0  0  0  0  0  0
   37.9614   36.8235   -3.0346 C   0  0  0  0  0  0  0  0  0  0  0  0
   37.5027   37.5816   -2.0409 C   0  0  0  0  0  0  0  0  0  0  0  0
   36.6952   38.5095   -2.5478 N   0  0  0  0  0  0  0  0  0  0  0  0
   36.6392   38.3301   -3.8650 C   0  0  0  0  0  0  0  0  0  0  0  0
   37.4199   37.2920   -4.1564 N   0  0  0  0  0  0  0  0  0  0  0  0
   36.2222   39.2063   -2.0380 H   0  0  0  0  0  0  0  0  0  0  0  0
   35.0411   31.4059   -1.6152 C   0  0  0  0  0  0  0  0  0  0  0  0
   36.0718   31.1335   -0.5134 C   0  0  0  0  0  0  0  0  0  0  0  0
  1  2  1  0  0  0
  2  3  2  0  0  0
  2  8  1  0  0  0
  3  4  1  0  0  0
  4  5  1  0  0  0
  4  6  2  0  0  0
  6 23  1  0  0  0
  6  7  1  0  0  0
 23 24  1  0  0  0
  7  8  2  0  0  0
  8 11  1  0  0  0
 11 12  2  0  0  0
 11 15  1  0  0  0
 12 13  1  0  0  0
 13 14  1  0  0  0
 14 15  2  0  0  0
 15 17  1  0  0  0
 17 18  2  0  0  0
 17 21  1  0  0  0
 18 19  1  0  0  0
 19 20  1  0  0  0
 20 21  2  0  0  0
  1  9  1  0  0  0
  5 10  1  0  0  0
 13 16  1  0  0  0
 19 22  1  0  0  0
M  END
> <minimizedAffinity>
-6.68598

$$$$
