2IHJ_CSF_A_1741


 53 55  0  0  0  0  0  0  0  0999 V2000
   10.6798    4.1073    0.7489 C   0  0  0  0  0  0  0  0  0  0  0  0
   11.4465    3.6362    1.9961 C   0  0  0  0  0  0  0  0  0  0  0  0
   10.1577    1.5346    2.0638 C   0  0  0  0  0  0  0  0  0  0  0  0
    9.5137    1.9658    0.8533 O   0  0  0  0  0  0  0  0  0  0  0  0
   10.2568    2.8403   -0.0174 C   0  0  0  0  0  0  0  0  0  0  0  0
   10.5131    2.7837    2.8690 C   0  0  0  0  0  0  0  0  0  0  0  0
   12.0556    4.6838    2.7661 O   0  0  0  0  0  0  0  0  0  0  0  0
    9.3625    3.4634    3.2270 F   0  0  0  0  0  0  0  0  0  0  0  0
   11.3659    5.2624    3.1272 H   0  0  0  0  0  0  0  0  0  0  0  0
   11.6194    4.8223   -0.1113 N   0  0  0  0  0  0  0  0  0  0  0  0
   11.5867    6.1431   -0.3432 C   0  0  0  0  0  0  0  0  0  0  0  0
   10.7591    6.8983    0.1503 O   0  0  0  0  0  0  0  0  0  0  0  0
   12.6486    6.6541   -1.2746 C   0  0  0  0  0  0  0  0  0  0  0  0
   12.3266    4.2978   -0.5518 H   0  0  0  0  0  0  0  0  0  0  0  0
    9.1817    0.6672    2.8432 C   0  0  0  0  0  0  0  0  0  0  0  0
    8.2425    0.1021    2.2566 O   0  0  0  0  0  0  0  0  0  0  0  0
    9.3375    0.5203    4.0745 O   0  0  0  0  0  0  0  0  0  0  0  0
    8.1305    0.2158    1.3333 H   0  0  0  0  0  0  0  0  0  0  0  0
    9.4261    3.0640   -1.2887 C   0  0  0  0  0  0  0  0  0  0  0  0
    8.6342    4.2442   -1.1261 O   0  0  0  0  0  0  0  0  0  0  0  0
    8.0328    4.1290   -0.3738 H   0  0  0  0  0  0  0  0  0  0  0  0
    8.5187    1.8562   -1.5907 C   0  0  0  0  0  0  0  0  0  0  0  0
    9.3119    0.7003   -1.8991 O   0  0  0  0  0  0  0  0  0  0  0  0
    9.8214    0.8642   -2.7081 H   0  0  0  0  0  0  0  0  0  0  0  0
    7.5287    2.0883   -2.7360 C   0  0  0  0  0  0  0  0  0  0  0  0
    8.2317    2.4875   -3.9204 O   0  0  0  0  0  0  0  0  0  0  0  0
    8.7132    3.3118   -3.7483 H   0  0  0  0  0  0  0  0  0  0  0  0
   11.4198    0.8589    1.8309 O   0  0  0  0  0  0  0  0  0  0  0  0
   12.8985    0.3892   -0.1633 O   0  0  0  0  0  0  0  0  0  0  0  0
   11.7966   -0.2256    0.6698 P   0  0  0  0  0  0  0  0  0  0  0  0
   10.5139   -0.6926    0.0639 O   0  0  0  0  0  0  0  0  0  0  0  0
   10.1284    0.0216   -0.4673 H   0  0  0  0  0  0  0  0  0  0  0  0
   12.4814   -1.3806    1.5670 O   0  0  0  0  0  0  0  0  0  0  0  0
   12.0892   -1.5439    2.9358 C   0  0  0  0  0  0  0  0  0  0  0  0
   13.5826   -3.6080    2.8877 C   0  0  0  0  0  0  0  0  0  0  0  0
   13.2607   -5.0837    3.0010 C   0  0  0  0  0  0  0  0  0  0  0  0
   11.7873   -5.1359    2.6273 C   0  0  0  0  0  0  0  0  0  0  0  0
   11.2559   -3.8457    2.9795 O   0  0  0  0  0  0  0  0  0  0  0  0
   12.3054   -2.9776    3.4223 C   0  0  0  0  0  0  0  0  0  0  0  0
   14.7446   -3.2332    3.6343 O   0  0  0  0  0  0  0  0  0  0  0  0
   13.3914   -5.5121    4.3619 O   0  0  0  0  0  0  0  0  0  0  0  0
   14.6222   -3.4748    4.5657 H   0  0  0  0  0  0  0  0  0  0  0  0
   12.8216   -4.9684    4.9282 H   0  0  0  0  0  0  0  0  0  0  0  0
   11.5894   -5.4573    1.1919 N   0  0  0  0  0  0  0  0  0  0  0  0
   11.6511   -6.8073    0.7689 C   0  0  0  0  0  0  0  0  0  0  0  0
   11.4579   -7.1144   -0.5417 N   0  0  0  0  0  0  0  0  0  0  0  0
   11.1963   -6.1485   -1.4635 C   0  0  0  0  0  0  0  0  0  0  0  0
   11.1364   -4.8127   -1.0621 C   0  0  0  0  0  0  0  0  0  0  0  0
   11.3287   -4.4978    0.2798 C   0  0  0  0  0  0  0  0  0  0  0  0
   11.0123   -6.4686   -2.7704 N   0  0  0  0  0  0  0  0  0  0  0  0
   11.8842   -7.7060    1.6176 O   0  0  0  0  0  0  0  0  0  0  0  0
   11.0538   -7.4094   -3.0574 H   0  0  0  0  0  0  0  0  0  0  0  0
   10.8374   -5.7598   -3.4309 H   0  0  0  0  0  0  0  0  0  0  0  0
  1  2  1  0  0  0
  1  5  1  0  0  0
  1 10  1  0  0  0
  2  6  1  0  0  0
  2  7  1  0  0  0
  3  4  1  0  0  0
  3  6  1  0  0  0
  3 15  1  0  0  0
  3 28  1  0  0  0
  4  5  1  0  0  0
  5 19  1  0  0  0
  6  8  1  0  0  0
 10 11  1  0  0  0
 19 22  1  0  0  0
 19 20  1  0  0  0
 22 25  1  0  0  0
 22 23  1  0  0  0
 25 26  1  0  0  0
 15 16  1  0  0  0
 15 17  2  0  0  0
 28 30  1  0  0  0
 29 30  2  0  0  0
 44 45  1  0  0  0
 44 49  1  0  0  0
 44 37  1  0  0  0
 45 46  1  0  0  0
 45 51  2  0  0  0
 46 47  2  0  0  0
 47 48  1  0  0  0
 47 50  1  0  0  0
 48 49  2  0  0  0
 35 36  1  0  0  0
 35 39  1  0  0  0
 35 40  1  0  0  0
 36 37  1  0  0  0
 36 41  1  0  0  0
 37 38  1  0  0  0
 38 39  1  0  0  0
 39 34  1  0  0  0
 30 33  1  0  0  0
 30 31  1  0  0  0
 33 34  1  0  0  0
 11 12  2  0  0  0
 11 13  1  0  0  0
  7  9  1  0  0  0
 10 14  1  0  0  0
 26 27  1  0  0  0
 23 24  1  0  0  0
 20 21  1  0  0  0
 16 18  1  0  0  0
 40 42  1  0  0  0
 41 43  1  0  0  0
 50 52  1  0  0  0
 50 53  1  0  0  0
 31 32  1  0  0  0
M  END
> <minimizedAffinity>
-11.34723

$$$$
2IHJ_CSF_A_1741


 53 55  0  0  0  0  0  0  0  0999 V2000
   10.7216    1.8471   -1.6897 C   0  0  0  0  0  0  0  0  0  0  0  0
   11.6388    1.5581   -0.4895 C   0  0  0  0  0  0  0  0  0  0  0  0
    9.9228    2.3639    1.0878 C   0  0  0  0  0  0  0  0  0  0  0  0
    9.0595    2.5492   -0.0463 O   0  0  0  0  0  0  0  0  0  0  0  0
    9.2734    1.6976   -1.1882 C   0  0  0  0  0  0  0  0  0  0  0  0
   11.3594    2.5863    0.6170 C   0  0  0  0  0  0  0  0  0  0  0  0
   13.0403    1.5013   -0.7963 O   0  0  0  0  0  0  0  0  0  0  0  0
   11.5207    3.8882    0.1774 F   0  0  0  0  0  0  0  0  0  0  0  0
   13.3386    2.3703   -1.1074 H   0  0  0  0  0  0  0  0  0  0  0  0
   10.9327    0.7932   -2.6790 N   0  0  0  0  0  0  0  0  0  0  0  0
   11.1085   -0.5037   -2.3851 C   0  0  0  0  0  0  0  0  0  0  0  0
   11.1065   -0.9472   -1.2440 O   0  0  0  0  0  0  0  0  0  0  0  0
   11.3211   -1.4034   -3.5690 C   0  0  0  0  0  0  0  0  0  0  0  0
   10.9469    1.0531   -3.6285 H   0  0  0  0  0  0  0  0  0  0  0  0
    9.5516    3.3912    2.1458 C   0  0  0  0  0  0  0  0  0  0  0  0
   10.4354    3.9099    2.8498 O   0  0  0  0  0  0  0  0  0  0  0  0
    8.3539    3.7158    2.2944 O   0  0  0  0  0  0  0  0  0  0  0  0
   11.3317    3.6628    2.7340 H   0  0  0  0  0  0  0  0  0  0  0  0
    8.1686    1.9897   -2.2131 C   0  0  0  0  0  0  0  0  0  0  0  0
    8.0460    0.8718   -3.0973 O   0  0  0  0  0  0  0  0  0  0  0  0
    8.8838    0.7380   -3.5675 H   0  0  0  0  0  0  0  0  0  0  0  0
    8.4678    3.2692   -3.0173 C   0  0  0  0  0  0  0  0  0  0  0  0
    7.5044    4.2883   -2.7112 O   0  0  0  0  0  0  0  0  0  0  0  0
    6.6231    3.9942   -2.9898 H   0  0  0  0  0  0  0  0  0  0  0  0
    8.4941    3.0627   -4.5347 C   0  0  0  0  0  0  0  0  0  0  0  0
    9.7563    2.5116   -4.9342 O   0  0  0  0  0  0  0  0  0  0  0  0
   10.4685    3.1219   -4.6868 H   0  0  0  0  0  0  0  0  0  0  0  0
    9.8978    1.0112    1.6107 O   0  0  0  0  0  0  0  0  0  0  0  0
    8.9525    0.4970    3.8968 O   0  0  0  0  0  0  0  0  0  0  0  0
   10.2494    0.4947    3.1193 P   0  0  0  0  0  0  0  0  0  0  0  0
   11.4496    1.2537    3.5812 O   0  0  0  0  0  0  0  0  0  0  0  0
   11.2025    2.1757    3.7537 H   0  0  0  0  0  0  0  0  0  0  0  0
   10.6076   -1.0509    2.8174 O   0  0  0  0  0  0  0  0  0  0  0  0
   11.9780   -1.4519    2.6932 C   0  0  0  0  0  0  0  0  0  0  0  0
   13.5140   -3.4835    2.7701 C   0  0  0  0  0  0  0  0  0  0  0  0
   13.2197   -4.9595    2.9400 C   0  0  0  0  0  0  0  0  0  0  0  0
   11.7572   -5.0594    2.5345 C   0  0  0  0  0  0  0  0  0  0  0  0
   11.1911   -3.7670    2.8176 O   0  0  0  0  0  0  0  0  0  0  0  0
   12.2115   -2.8582    3.2466 C   0  0  0  0  0  0  0  0  0  0  0  0
   14.6495   -3.0520    3.5267 O   0  0  0  0  0  0  0  0  0  0  0  0
   13.3259   -5.3260    4.3210 O   0  0  0  0  0  0  0  0  0  0  0  0
   14.5095   -3.2558    4.4646 H   0  0  0  0  0  0  0  0  0  0  0  0
   12.7315   -4.7708    4.8495 H   0  0  0  0  0  0  0  0  0  0  0  0
   11.6009   -5.4466    1.1102 N   0  0  0  0  0  0  0  0  0  0  0  0
   11.6847   -6.8135    0.7503 C   0  0  0  0  0  0  0  0  0  0  0  0
   11.5296   -7.1808   -0.5499 N   0  0  0  0  0  0  0  0  0  0  0  0
   11.2856   -6.2595   -1.5210 C   0  0  0  0  0  0  0  0  0  0  0  0
   11.2043   -4.9076   -1.1818 C   0  0  0  0  0  0  0  0  0  0  0  0
   11.3576   -4.5312    0.1492 C   0  0  0  0  0  0  0  0  0  0  0  0
   11.1397   -6.6394   -2.8166 N   0  0  0  0  0  0  0  0  0  0  0  0
   11.9017   -7.6711    1.6445 O   0  0  0  0  0  0  0  0  0  0  0  0
   11.1964   -7.5917   -3.0597 H   0  0  0  0  0  0  0  0  0  0  0  0
   10.9773   -5.9625   -3.5128 H   0  0  0  0  0  0  0  0  0  0  0  0
  1  2  1  0  0  0
  1  5  1  0  0  0
  1 10  1  0  0  0
  2  6  1  0  0  0
  2  7  1  0  0  0
  3  4  1  0  0  0
  3  6  1  0  0  0
  3 15  1  0  0  0
  3 28  1  0  0  0
  4  5  1  0  0  0
  5 19  1  0  0  0
  6  8  1  0  0  0
 10 11  1  0  0  0
 19 22  1  0  0  0
 19 20  1  0  0  0
 22 25  1  0  0  0
 22 23  1  0  0  0
 25 26  1  0  0  0
 15 16  1  0  0  0
 15 17  2  0  0  0
 28 30  1  0  0  0
 29 30  2  0  0  0
 44 45  1  0  0  0
 44 49  1  0  0  0
 44 37  1  0  0  0
 45 46  1  0  0  0
 45 51  2  0  0  0
 46 47  2  0  0  0
 47 48  1  0  0  0
 47 50  1  0  0  0
 48 49  2  0  0  0
 35 36  1  0  0  0
 35 39  1  0  0  0
 35 40  1  0  0  0
 36 37  1  0  0  0
 36 41  1  0  0  0
 37 38  1  0  0  0
 38 39  1  0  0  0
 39 34  1  0  0  0
 30 33  1  0  0  0
 30 31  1  0  0  0
 33 34  1  0  0  0
 11 12  2  0  0  0
 11 13  1  0  0  0
  7  9  1  0  0  0
 10 14  1  0  0  0
 26 27  1  0  0  0
 23 24  1  0  0  0
 20 21  1  0  0  0
 16 18  1  0  0  0
 40 42  1  0  0  0
 41 43  1  0  0  0
 50 52  1  0  0  0
 50 53  1  0  0  0
 31 32  1  0  0  0
M  END
> <minimizedAffinity>
-11.26478

$$$$
2IHJ_CSF_A_1741


 53 55  0  0  0  0  0  0  0  0999 V2000
    9.4750    3.1337   -2.4667 C   0  0  0  0  0  0  0  0  0  0  0  0
    8.9484    1.6903   -2.3989 C   0  0  0  0  0  0  0  0  0  0  0  0
   10.7204    1.0590   -0.8040 C   0  0  0  0  0  0  0  0  0  0  0  0
   11.1412    2.4331   -0.8267 O   0  0  0  0  0  0  0  0  0  0  0  0
   10.1390    3.4285   -1.1090 C   0  0  0  0  0  0  0  0  0  0  0  0
   10.1291    0.7334   -2.1748 C   0  0  0  0  0  0  0  0  0  0  0  0
    8.1596    1.2782   -3.5255 O   0  0  0  0  0  0  0  0  0  0  0  0
   11.0987    0.8573   -3.1538 F   0  0  0  0  0  0  0  0  0  0  0  0
    8.7096    1.2831   -4.3245 H   0  0  0  0  0  0  0  0  0  0  0  0
    8.3234    4.0263   -2.5719 N   0  0  0  0  0  0  0  0  0  0  0  0
    7.7947    4.4550   -3.7278 C   0  0  0  0  0  0  0  0  0  0  0  0
    8.2235    4.1367   -4.8294 O   0  0  0  0  0  0  0  0  0  0  0  0
    6.6189    5.3793   -3.5879 C   0  0  0  0  0  0  0  0  0  0  0  0
    7.9059    4.3351   -1.7355 H   0  0  0  0  0  0  0  0  0  0  0  0
   11.9387    0.1889   -0.5373 C   0  0  0  0  0  0  0  0  0  0  0  0
   11.8602   -1.0468   -0.6493 O   0  0  0  0  0  0  0  0  0  0  0  0
   13.0197    0.7267   -0.2144 O   0  0  0  0  0  0  0  0  0  0  0  0
   11.0472   -1.4446   -0.8916 H   0  0  0  0  0  0  0  0  0  0  0  0
   10.7870    4.8120   -0.9588 C   0  0  0  0  0  0  0  0  0  0  0  0
   12.0664    4.7991   -1.5985 O   0  0  0  0  0  0  0  0  0  0  0  0
   12.6343    4.1380   -1.1726 H   0  0  0  0  0  0  0  0  0  0  0  0
   10.9407    5.2062    0.5225 C   0  0  0  0  0  0  0  0  0  0  0  0
   12.0027    4.4565    1.1313 O   0  0  0  0  0  0  0  0  0  0  0  0
   11.7774    3.5131    1.1250 H   0  0  0  0  0  0  0  0  0  0  0  0
    9.6697    5.0163    1.3558 C   0  0  0  0  0  0  0  0  0  0  0  0
   10.0061    4.5281    2.6615 O   0  0  0  0  0  0  0  0  0  0  0  0
   10.4602    3.6748    2.5806 H   0  0  0  0  0  0  0  0  0  0  0  0
    9.6517    0.8036    0.1429 O   0  0  0  0  0  0  0  0  0  0  0  0
    8.3212    0.5061    2.2701 O   0  0  0  0  0  0  0  0  0  0  0  0
    9.7355    0.6952    1.7700 P   0  0  0  0  0  0  0  0  0  0  0  0
   10.5997    1.8160    2.2467 O   0  0  0  0  0  0  0  0  0  0  0  0
   10.1270    2.6563    2.1409 H   0  0  0  0  0  0  0  0  0  0  0  0
   10.4779   -0.7307    1.9249 O   0  0  0  0  0  0  0  0  0  0  0  0
    9.9599   -1.7065    2.8378 C   0  0  0  0  0  0  0  0  0  0  0  0
   12.3543   -2.5241    2.5357 C   0  0  0  0  0  0  0  0  0  0  0  0
   12.9670   -3.9042    2.6539 C   0  0  0  0  0  0  0  0  0  0  0  0
   11.7658   -4.8210    2.4814 C   0  0  0  0  0  0  0  0  0  0  0  0
   10.6326   -4.0587    2.9350 O   0  0  0  0  0  0  0  0  0  0  0  0
   11.0274   -2.7194    3.2539 C   0  0  0  0  0  0  0  0  0  0  0  0
   13.1641   -1.5034    3.1278 O   0  0  0  0  0  0  0  0  0  0  0  0
   13.4907   -4.0981    3.9732 O   0  0  0  0  0  0  0  0  0  0  0  0
   13.3221   -1.7167    4.0607 H   0  0  0  0  0  0  0  0  0  0  0  0
   12.7871   -3.9527    4.6250 H   0  0  0  0  0  0  0  0  0  0  0  0
   11.6144   -5.2803    1.0782 N   0  0  0  0  0  0  0  0  0  0  0  0
   11.7166   -6.6622    0.7863 C   0  0  0  0  0  0  0  0  0  0  0  0
   11.5663   -7.0954   -0.4939 N   0  0  0  0  0  0  0  0  0  0  0  0
   11.3096   -6.2267   -1.5092 C   0  0  0  0  0  0  0  0  0  0  0  0
   11.2101   -4.8610   -1.2374 C   0  0  0  0  0  0  0  0  0  0  0  0
   11.3585   -4.4171    0.0733 C   0  0  0  0  0  0  0  0  0  0  0  0
   11.1686   -6.6723   -2.7843 N   0  0  0  0  0  0  0  0  0  0  0  0
   11.9455   -7.4714    1.7217 O   0  0  0  0  0  0  0  0  0  0  0  0
   11.2381   -7.6346   -2.9800 H   0  0  0  0  0  0  0  0  0  0  0  0
   10.9969   -6.0329   -3.5130 H   0  0  0  0  0  0  0  0  0  0  0  0
  1  2  1  0  0  0
  1  5  1  0  0  0
  1 10  1  0  0  0
  2  6  1  0  0  0
  2  7  1  0  0  0
  3  4  1  0  0  0
  3  6  1  0  0  0
  3 15  1  0  0  0
  3 28  1  0  0  0
  4  5  1  0  0  0
  5 19  1  0  0  0
  6  8  1  0  0  0
 10 11  1  0  0  0
 19 22  1  0  0  0
 19 20  1  0  0  0
 22 25  1  0  0  0
 22 23  1  0  0  0
 25 26  1  0  0  0
 15 16  1  0  0  0
 15 17  2  0  0  0
 28 30  1  0  0  0
 29 30  2  0  0  0
 44 45  1  0  0  0
 44 49  1  0  0  0
 44 37  1  0  0  0
 45 46  1  0  0  0
 45 51  2  0  0  0
 46 47  2  0  0  0
 47 48  1  0  0  0
 47 50  1  0  0  0
 48 49  2  0  0  0
 35 36  1  0  0  0
 35 39  1  0  0  0
 35 40  1  0  0  0
 36 37  1  0  0  0
 36 41  1  0  0  0
 37 38  1  0  0  0
 38 39  1  0  0  0
 39 34  1  0  0  0
 30 33  1  0  0  0
 30 31  1  0  0  0
 33 34  1  0  0  0
 11 12  2  0  0  0
 11 13  1  0  0  0
  7  9  1  0  0  0
 10 14  1  0  0  0
 26 27  1  0  0  0
 23 24  1  0  0  0
 20 21  1  0  0  0
 16 18  1  0  0  0
 40 42  1  0  0  0
 41 43  1  0  0  0
 50 52  1  0  0  0
 50 53  1  0  0  0
 31 32  1  0  0  0
M  END
> <minimizedAffinity>
-11.12603

$$$$
2IHJ_CSF_A_1741


 53 55  0  0  0  0  0  0  0  0999 V2000
   10.4312    2.8984   -1.1782 C   0  0  0  0  0  0  0  0  0  0  0  0
   10.3902    1.5478   -0.4437 C   0  0  0  0  0  0  0  0  0  0  0  0
   11.1622    2.5989    1.6495 C   0  0  0  0  0  0  0  0  0  0  0  0
   11.1148    3.8586    0.9590 O   0  0  0  0  0  0  0  0  0  0  0  0
   10.1702    3.9872   -0.1209 C   0  0  0  0  0  0  0  0  0  0  0  0
   11.4972    1.5197    0.6209 C   0  0  0  0  0  0  0  0  0  0  0  0
   10.4642    0.3924   -1.2928 O   0  0  0  0  0  0  0  0  0  0  0  0
   12.7507    1.7479    0.0817 F   0  0  0  0  0  0  0  0  0  0  0  0
   11.3213    0.3793   -1.7469 H   0  0  0  0  0  0  0  0  0  0  0  0
    9.3041    2.9381   -2.1067 N   0  0  0  0  0  0  0  0  0  0  0  0
    9.4165    3.0756   -3.4362 C   0  0  0  0  0  0  0  0  0  0  0  0
   10.4879    3.1796   -4.0194 O   0  0  0  0  0  0  0  0  0  0  0  0
    8.1160    3.1030   -4.1874 C   0  0  0  0  0  0  0  0  0  0  0  0
    8.3980    2.8582   -1.7300 H   0  0  0  0  0  0  0  0  0  0  0  0
   12.2520    2.6728    2.7074 C   0  0  0  0  0  0  0  0  0  0  0  0
   12.6859    1.6319    3.2309 O   0  0  0  0  0  0  0  0  0  0  0  0
   12.7134    3.7862    3.0383 O   0  0  0  0  0  0  0  0  0  0  0  0
   12.3363    0.7999    2.9790 H   0  0  0  0  0  0  0  0  0  0  0  0
   10.2122    5.4384   -0.6194 C   0  0  0  0  0  0  0  0  0  0  0  0
    9.1040    5.6622   -1.4959 O   0  0  0  0  0  0  0  0  0  0  0  0
    9.1692    5.0659   -2.2582 H   0  0  0  0  0  0  0  0  0  0  0  0
   11.5336    5.7476   -1.3485 C   0  0  0  0  0  0  0  0  0  0  0  0
   12.5120    6.2412   -0.4215 O   0  0  0  0  0  0  0  0  0  0  0  0
   12.2071    7.0825   -0.0469 H   0  0  0  0  0  0  0  0  0  0  0  0
   11.3953    6.7546   -2.4941 C   0  0  0  0  0  0  0  0  0  0  0  0
   11.2096    6.0633   -3.7368 O   0  0  0  0  0  0  0  0  0  0  0  0
   11.9764    5.4945   -3.9081 H   0  0  0  0  0  0  0  0  0  0  0  0
    9.8841    2.2064    2.2117 O   0  0  0  0  0  0  0  0  0  0  0  0
    8.1723    0.6607    3.2436 O   0  0  0  0  0  0  0  0  0  0  0  0
    9.5843    1.1666    3.4346 P   0  0  0  0  0  0  0  0  0  0  0  0
   10.0228    1.8288    4.6993 O   0  0  0  0  0  0  0  0  0  0  0  0
    9.4115    2.5504    4.9152 H   0  0  0  0  0  0  0  0  0  0  0  0
   10.5713   -0.0457    3.0293 O   0  0  0  0  0  0  0  0  0  0  0  0
   10.0354   -1.3575    2.8149 C   0  0  0  0  0  0  0  0  0  0  0  0
   12.3606   -2.3927    2.6940 C   0  0  0  0  0  0  0  0  0  0  0  0
   12.8372   -3.8173    2.8871 C   0  0  0  0  0  0  0  0  0  0  0  0
   11.5717   -4.6291    2.6575 C   0  0  0  0  0  0  0  0  0  0  0  0
   10.4851   -3.7558    3.0152 O   0  0  0  0  0  0  0  0  0  0  0  0
   10.9780   -2.4476    3.3264 C   0  0  0  0  0  0  0  0  0  0  0  0
   13.2195   -1.4300    3.3135 O   0  0  0  0  0  0  0  0  0  0  0  0
   13.2552   -4.0162    4.2430 O   0  0  0  0  0  0  0  0  0  0  0  0
   13.2972   -1.6277    4.2599 H   0  0  0  0  0  0  0  0  0  0  0  0
   12.5271   -3.7892    4.8424 H   0  0  0  0  0  0  0  0  0  0  0  0
   11.4702   -5.1161    1.2591 N   0  0  0  0  0  0  0  0  0  0  0  0
   11.5301   -6.5075    1.0036 C   0  0  0  0  0  0  0  0  0  0  0  0
   11.4247   -6.9655   -0.2725 N   0  0  0  0  0  0  0  0  0  0  0  0
   11.2532   -6.1123   -1.3184 C   0  0  0  0  0  0  0  0  0  0  0  0
   11.1962   -4.7374   -1.0824 C   0  0  0  0  0  0  0  0  0  0  0  0
   11.2986   -4.2680    0.2237 C   0  0  0  0  0  0  0  0  0  0  0  0
   11.1563   -6.5828   -2.5887 N   0  0  0  0  0  0  0  0  0  0  0  0
   11.6801   -7.3022    1.9670 O   0  0  0  0  0  0  0  0  0  0  0  0
   11.1960   -7.5516   -2.7591 H   0  0  0  0  0  0  0  0  0  0  0  0
   11.0463   -5.9551   -3.3391 H   0  0  0  0  0  0  0  0  0  0  0  0
  1  2  1  0  0  0
  1  5  1  0  0  0
  1 10  1  0  0  0
  2  6  1  0  0  0
  2  7  1  0  0  0
  3  4  1  0  0  0
  3  6  1  0  0  0
  3 15  1  0  0  0
  3 28  1  0  0  0
  4  5  1  0  0  0
  5 19  1  0  0  0
  6  8  1  0  0  0
 10 11  1  0  0  0
 19 22  1  0  0  0
 19 20  1  0  0  0
 22 25  1  0  0  0
 22 23  1  0  0  0
 25 26  1  0  0  0
 15 16  1  0  0  0
 15 17  2  0  0  0
 28 30  1  0  0  0
 29 30  2  0  0  0
 44 45  1  0  0  0
 44 49  1  0  0  0
 44 37  1  0  0  0
 45 46  1  0  0  0
 45 51  2  0  0  0
 46 47  2  0  0  0
 47 48  1  0  0  0
 47 50  1  0  0  0
 48 49  2  0  0  0
 35 36  1  0  0  0
 35 39  1  0  0  0
 35 40  1  0  0  0
 36 37  1  0  0  0
 36 41  1  0  0  0
 37 38  1  0  0  0
 38 39  1  0  0  0
 39 34  1  0  0  0
 30 33  1  0  0  0
 30 31  1  0  0  0
 33 34  1  0  0  0
 11 12  2  0  0  0
 11 13  1  0  0  0
  7  9  1  0  0  0
 10 14  1  0  0  0
 26 27  1  0  0  0
 23 24  1  0  0  0
 20 21  1  0  0  0
 16 18  1  0  0  0
 40 42  1  0  0  0
 41 43  1  0  0  0
 50 52  1  0  0  0
 50 53  1  0  0  0
 31 32  1  0  0  0
M  END
> <minimizedAffinity>
-10.06498

$$$$
2IHJ_CSF_A_1741


 53 55  0  0  0  0  0  0  0  0999 V2000
   10.1526    4.2130   -3.5006 C   0  0  0  0  0  0  0  0  0  0  0  0
    9.5134    2.8343   -3.2640 C   0  0  0  0  0  0  0  0  0  0  0  0
   11.2322    2.2620   -1.5906 C   0  0  0  0  0  0  0  0  0  0  0  0
   11.7605    3.5859   -1.7749 O   0  0  0  0  0  0  0  0  0  0  0  0
   10.8399    4.6159   -2.1828 C   0  0  0  0  0  0  0  0  0  0  0  0
   10.6149    1.8213   -2.9171 C   0  0  0  0  0  0  0  0  0  0  0  0
    8.6928    2.3530   -4.3394 O   0  0  0  0  0  0  0  0  0  0  0  0
   11.5899    1.7496   -3.8961 F   0  0  0  0  0  0  0  0  0  0  0  0
    9.2403    2.2183   -5.1286 H   0  0  0  0  0  0  0  0  0  0  0  0
    9.0752    5.1744   -3.7216 N   0  0  0  0  0  0  0  0  0  0  0  0
    8.5832    5.5042   -4.9251 C   0  0  0  0  0  0  0  0  0  0  0  0
    8.9867    5.0260   -5.9774 O   0  0  0  0  0  0  0  0  0  0  0  0
    7.4838    6.5277   -4.9067 C   0  0  0  0  0  0  0  0  0  0  0  0
    8.6824    5.6111   -2.9314 H   0  0  0  0  0  0  0  0  0  0  0  0
   12.3782    1.3371   -1.2115 C   0  0  0  0  0  0  0  0  0  0  0  0
   13.4754    1.8104   -0.8683 O   0  0  0  0  0  0  0  0  0  0  0  0
   12.2046    0.0997   -1.2388 O   0  0  0  0  0  0  0  0  0  0  0  0
   13.5999    2.7389   -0.8496 H   0  0  0  0  0  0  0  0  0  0  0  0
   11.5956    5.9520   -2.1947 C   0  0  0  0  0  0  0  0  0  0  0  0
   12.9934    5.6981   -2.0269 O   0  0  0  0  0  0  0  0  0  0  0  0
   13.1424    5.2602   -1.1743 H   0  0  0  0  0  0  0  0  0  0  0  0
   11.0929    6.8955   -1.0854 C   0  0  0  0  0  0  0  0  0  0  0  0
   12.0231    7.9700   -0.8841 O   0  0  0  0  0  0  0  0  0  0  0  0
   12.8684    7.6116   -0.5712 H   0  0  0  0  0  0  0  0  0  0  0  0
   10.8468    6.2050    0.2593 C   0  0  0  0  0  0  0  0  0  0  0  0
   12.0263    5.5033    0.6750 O   0  0  0  0  0  0  0  0  0  0  0  0
   12.2533    4.8318    0.0129 H   0  0  0  0  0  0  0  0  0  0  0  0
   10.1481    2.2075   -0.6286 O   0  0  0  0  0  0  0  0  0  0  0  0
    8.9353    2.9819    1.4483 O   0  0  0  0  0  0  0  0  0  0  0  0
   10.2217    2.3270    0.9982 P   0  0  0  0  0  0  0  0  0  0  0  0
   11.5600    2.8932    1.3428 O   0  0  0  0  0  0  0  0  0  0  0  0
   11.5912    3.8282    1.0864 H   0  0  0  0  0  0  0  0  0  0  0  0
   10.1170    0.7678    1.4057 O   0  0  0  0  0  0  0  0  0  0  0  0
    9.4454    0.3925    2.6149 C   0  0  0  0  0  0  0  0  0  0  0  0
   11.8371   -0.3156    3.1359 C   0  0  0  0  0  0  0  0  0  0  0  0
   12.3903   -1.5053    3.8925 C   0  0  0  0  0  0  0  0  0  0  0  0
   11.2392   -2.4982    3.8456 C   0  0  0  0  0  0  0  0  0  0  0  0
   10.0472   -1.6994    3.7359 O   0  0  0  0  0  0  0  0  0  0  0  0
   10.3856   -0.3152    3.5916 C   0  0  0  0  0  0  0  0  0  0  0  0
   12.5186    0.9048    3.4431 O   0  0  0  0  0  0  0  0  0  0  0  0
   12.6203   -1.1531    5.2621 O   0  0  0  0  0  0  0  0  0  0  0  0
   12.4726    1.0692    4.3979 H   0  0  0  0  0  0  0  0  0  0  0  0
   11.7971   -0.8209    5.6531 H   0  0  0  0  0  0  0  0  0  0  0  0
   11.3811   -3.4607    2.7247 N   0  0  0  0  0  0  0  0  0  0  0  0
   11.7229   -4.8059    3.0051 C   0  0  0  0  0  0  0  0  0  0  0  0
   11.8424   -5.6993    1.9868 N   0  0  0  0  0  0  0  0  0  0  0  0
   11.6317   -5.3308    0.6941 C   0  0  0  0  0  0  0  0  0  0  0  0
   11.2980   -4.0070    0.4018 C   0  0  0  0  0  0  0  0  0  0  0  0
   11.1702   -3.0932    1.4436 C   0  0  0  0  0  0  0  0  0  0  0  0
   11.7612   -6.2317   -0.3139 N   0  0  0  0  0  0  0  0  0  0  0  0
   11.9107   -5.1550    4.1989 O   0  0  0  0  0  0  0  0  0  0  0  0
   11.9964   -7.1660   -0.1117 H   0  0  0  0  0  0  0  0  0  0  0  0
   11.6200   -5.9504   -1.2467 H   0  0  0  0  0  0  0  0  0  0  0  0
  1  2  1  0  0  0
  1  5  1  0  0  0
  1 10  1  0  0  0
  2  6  1  0  0  0
  2  7  1  0  0  0
  3  4  1  0  0  0
  3  6  1  0  0  0
  3 15  1  0  0  0
  3 28  1  0  0  0
  4  5  1  0  0  0
  5 19  1  0  0  0
  6  8  1  0  0  0
 10 11  1  0  0  0
 19 22  1  0  0  0
 19 20  1  0  0  0
 22 25  1  0  0  0
 22 23  1  0  0  0
 25 26  1  0  0  0
 15 16  1  0  0  0
 15 17  2  0  0  0
 28 30  1  0  0  0
 29 30  2  0  0  0
 44 45  1  0  0  0
 44 49  1  0  0  0
 44 37  1  0  0  0
 45 46  1  0  0  0
 45 51  2  0  0  0
 46 47  2  0  0  0
 47 48  1  0  0  0
 47 50  1  0  0  0
 48 49  2  0  0  0
 35 36  1  0  0  0
 35 39  1  0  0  0
 35 40  1  0  0  0
 36 37  1  0  0  0
 36 41  1  0  0  0
 37 38  1  0  0  0
 38 39  1  0  0  0
 39 34  1  0  0  0
 30 33  1  0  0  0
 30 31  1  0  0  0
 33 34  1  0  0  0
 11 12  2  0  0  0
 11 13  1  0  0  0
  7  9  1  0  0  0
 10 14  1  0  0  0
 26 27  1  0  0  0
 23 24  1  0  0  0
 20 21  1  0  0  0
 16 18  1  0  0  0
 40 42  1  0  0  0
 41 43  1  0  0  0
 50 52  1  0  0  0
 50 53  1  0  0  0
 31 32  1  0  0  0
M  END
> <minimizedAffinity>
-10.06237

$$$$
2IHJ_CSF_A_1741


 53 55  0  0  0  0  0  0  0  0999 V2000
   10.9502    6.5290   -4.2162 C   0  0  0  0  0  0  0  0  0  0  0  0
   11.9424    6.6111   -3.0441 C   0  0  0  0  0  0  0  0  0  0  0  0
   10.5762    5.0547   -1.7049 C   0  0  0  0  0  0  0  0  0  0  0  0
    9.7092    4.9363   -2.8451 O   0  0  0  0  0  0  0  0  0  0  0  0
   10.2940    5.1377   -4.1461 C   0  0  0  0  0  0  0  0  0  0  0  0
   11.1742    6.4608   -1.7224 C   0  0  0  0  0  0  0  0  0  0  0  0
   12.7675    7.7860   -3.0282 O   0  0  0  0  0  0  0  0  0  0  0  0
   10.1732    7.4061   -1.5861 F   0  0  0  0  0  0  0  0  0  0  0  0
   12.2100    8.5711   -2.9106 H   0  0  0  0  0  0  0  0  0  0  0  0
   11.7191    6.5668   -5.4578 N   0  0  0  0  0  0  0  0  0  0  0  0
   12.0221    7.6857   -6.1326 C   0  0  0  0  0  0  0  0  0  0  0  0
   11.6860    8.8068   -5.7734 O   0  0  0  0  0  0  0  0  0  0  0  0
   12.8125    7.4769   -7.3928 C   0  0  0  0  0  0  0  0  0  0  0  0
   12.0374    5.7106   -5.8251 H   0  0  0  0  0  0  0  0  0  0  0  0
    9.7451    4.8529   -0.4476 C   0  0  0  0  0  0  0  0  0  0  0  0
   10.2317    5.1009    0.6692 O   0  0  0  0  0  0  0  0  0  0  0  0
    8.5678    4.4453   -0.5475 O   0  0  0  0  0  0  0  0  0  0  0  0
   11.1148    5.4063    0.7382 H   0  0  0  0  0  0  0  0  0  0  0  0
    9.2193    4.8423   -5.2016 C   0  0  0  0  0  0  0  0  0  0  0  0
    7.9343    5.1625   -4.6604 O   0  0  0  0  0  0  0  0  0  0  0  0
    7.7667    4.6131   -3.8788 H   0  0  0  0  0  0  0  0  0  0  0  0
    9.2533    3.3675   -5.6454 C   0  0  0  0  0  0  0  0  0  0  0  0
    8.7596    2.5192   -4.5979 O   0  0  0  0  0  0  0  0  0  0  0  0
    9.3452    2.5828   -3.8273 H   0  0  0  0  0  0  0  0  0  0  0  0
   10.6411    2.8712   -6.0617 C   0  0  0  0  0  0  0  0  0  0  0  0
   10.9627    1.6633   -5.3589 O   0  0  0  0  0  0  0  0  0  0  0  0
   10.9628    1.8350   -4.4042 H   0  0  0  0  0  0  0  0  0  0  0  0
   11.7135    4.1559   -1.7553 O   0  0  0  0  0  0  0  0  0  0  0  0
   13.1724    2.0934   -1.7958 O   0  0  0  0  0  0  0  0  0  0  0  0
   11.7288    2.5253   -1.6708 P   0  0  0  0  0  0  0  0  0  0  0  0
   10.6698    2.0218   -2.5956 O   0  0  0  0  0  0  0  0  0  0  0  0
   10.9489    2.1626   -3.5139 H   0  0  0  0  0  0  0  0  0  0  0  0
   11.3125    2.3140   -0.1247 O   0  0  0  0  0  0  0  0  0  0  0  0
   10.3494    1.3106    0.2215 C   0  0  0  0  0  0  0  0  0  0  0  0
   11.0891    1.8554    2.5982 C   0  0  0  0  0  0  0  0  0  0  0  0
   10.6654    1.2881    3.9371 C   0  0  0  0  0  0  0  0  0  0  0  0
   10.0713   -0.0597    3.5581 C   0  0  0  0  0  0  0  0  0  0  0  0
    9.5950    0.0962    2.2091 O   0  0  0  0  0  0  0  0  0  0  0  0
    9.9571    1.3841    1.6977 C   0  0  0  0  0  0  0  0  0  0  0  0
   11.2308    3.2794    2.6172 O   0  0  0  0  0  0  0  0  0  0  0  0
    9.6234    2.0917    4.5038 O   0  0  0  0  0  0  0  0  0  0  0  0
   10.3953    3.6838    2.8986 H   0  0  0  0  0  0  0  0  0  0  0  0
    8.8833    2.1488    3.8795 H   0  0  0  0  0  0  0  0  0  0  0  0
   11.0607   -1.1586    3.6860 N   0  0  0  0  0  0  0  0  0  0  0  0
   10.7382   -2.4434    3.1855 C   0  0  0  0  0  0  0  0  0  0  0  0
   11.6426   -3.4541    3.2854 N   0  0  0  0  0  0  0  0  0  0  0  0
   12.8638   -3.2573    3.8521 C   0  0  0  0  0  0  0  0  0  0  0  0
   13.1944   -1.9970    4.3535 C   0  0  0  0  0  0  0  0  0  0  0  0
   12.2717   -0.9606    4.2471 C   0  0  0  0  0  0  0  0  0  0  0  0
   13.7548   -4.2774    3.9516 N   0  0  0  0  0  0  0  0  0  0  0  0
    9.6141   -2.6298    2.6529 O   0  0  0  0  0  0  0  0  0  0  0  0
   13.5253   -5.1676    3.5991 H   0  0  0  0  0  0  0  0  0  0  0  0
   14.6301   -4.1267    4.3761 H   0  0  0  0  0  0  0  0  0  0  0  0
  1  2  1  0  0  0
  1  5  1  0  0  0
  1 10  1  0  0  0
  2  6  1  0  0  0
  2  7  1  0  0  0
  3  4  1  0  0  0
  3  6  1  0  0  0
  3 15  1  0  0  0
  3 28  1  0  0  0
  4  5  1  0  0  0
  5 19  1  0  0  0
  6  8  1  0  0  0
 10 11  1  0  0  0
 19 22  1  0  0  0
 19 20  1  0  0  0
 22 25  1  0  0  0
 22 23  1  0  0  0
 25 26  1  0  0  0
 15 16  1  0  0  0
 15 17  2  0  0  0
 28 30  1  0  0  0
 29 30  2  0  0  0
 44 45  1  0  0  0
 44 49  1  0  0  0
 44 37  1  0  0  0
 45 46  1  0  0  0
 45 51  2  0  0  0
 46 47  2  0  0  0
 47 48  1  0  0  0
 47 50  1  0  0  0
 48 49  2  0  0  0
 35 36  1  0  0  0
 35 39  1  0  0  0
 35 40  1  0  0  0
 36 37  1  0  0  0
 36 41  1  0  0  0
 37 38  1  0  0  0
 38 39  1  0  0  0
 39 34  1  0  0  0
 30 33  1  0  0  0
 30 31  1  0  0  0
 33 34  1  0  0  0
 11 12  2  0  0  0
 11 13  1  0  0  0
  7  9  1  0  0  0
 10 14  1  0  0  0
 26 27  1  0  0  0
 23 24  1  0  0  0
 20 21  1  0  0  0
 16 18  1  0  0  0
 40 42  1  0  0  0
 41 43  1  0  0  0
 50 52  1  0  0  0
 50 53  1  0  0  0
 31 32  1  0  0  0
M  END
> <minimizedAffinity>
-9.79707

$$$$
2IHJ_CSF_A_1741


 53 55  0  0  0  0  0  0  0  0999 V2000
    9.2852    2.9215   -3.0279 C   0  0  0  0  0  0  0  0  0  0  0  0
    8.9863    1.6061   -2.2892 C   0  0  0  0  0  0  0  0  0  0  0  0
   11.1275    1.7371   -1.0726 C   0  0  0  0  0  0  0  0  0  0  0  0
   11.3432    3.0029   -1.7185 O   0  0  0  0  0  0  0  0  0  0  0  0
   10.1782    3.7613   -2.0960 C   0  0  0  0  0  0  0  0  0  0  0  0
   10.3062    0.8668   -2.0228 C   0  0  0  0  0  0  0  0  0  0  0  0
    8.0379    0.7465   -2.9397 O   0  0  0  0  0  0  0  0  0  0  0  0
   11.0179    0.6271   -3.1848 F   0  0  0  0  0  0  0  0  0  0  0  0
    8.3983    0.4531   -3.7911 H   0  0  0  0  0  0  0  0  0  0  0  0
    8.0276    3.6507   -3.1714 N   0  0  0  0  0  0  0  0  0  0  0  0
    7.5616    4.1460   -4.3276 C   0  0  0  0  0  0  0  0  0  0  0  0
    8.1455    4.0345   -5.3979 O   0  0  0  0  0  0  0  0  0  0  0  0
    6.2500    4.8714   -4.2288 C   0  0  0  0  0  0  0  0  0  0  0  0
    7.4837    3.7884   -2.3625 H   0  0  0  0  0  0  0  0  0  0  0  0
   12.4812    1.0959   -0.8105 C   0  0  0  0  0  0  0  0  0  0  0  0
   12.5530   -0.1043   -0.4942 O   0  0  0  0  0  0  0  0  0  0  0  0
   13.5194    1.7823   -0.9248 O   0  0  0  0  0  0  0  0  0  0  0  0
   11.7713   -0.6142   -0.4100 H   0  0  0  0  0  0  0  0  0  0  0  0
   10.6494    5.1139   -2.6481 C   0  0  0  0  0  0  0  0  0  0  0  0
   10.7478    5.0268   -4.0726 O   0  0  0  0  0  0  0  0  0  0  0  0
   11.3970    4.3466   -4.3109 H   0  0  0  0  0  0  0  0  0  0  0  0
   12.0072    5.5269   -2.0488 C   0  0  0  0  0  0  0  0  0  0  0  0
   11.9240    5.5859   -0.6170 O   0  0  0  0  0  0  0  0  0  0  0  0
   11.2934    6.2759   -0.3579 H   0  0  0  0  0  0  0  0  0  0  0  0
   12.5354    6.8696   -2.5625 C   0  0  0  0  0  0  0  0  0  0  0  0
   11.4499    7.6734   -3.0441 O   0  0  0  0  0  0  0  0  0  0  0  0
   11.0033    7.2116   -3.7709 H   0  0  0  0  0  0  0  0  0  0  0  0
   10.3311    1.8397    0.1353 O   0  0  0  0  0  0  0  0  0  0  0  0
    9.4560    2.9192    2.2455 O   0  0  0  0  0  0  0  0  0  0  0  0
   10.7419    2.4911    1.5751 P   0  0  0  0  0  0  0  0  0  0  0  0
   11.8612    3.4482    1.3274 O   0  0  0  0  0  0  0  0  0  0  0  0
   11.5224    4.2282    0.8608 H   0  0  0  0  0  0  0  0  0  0  0  0
   11.2541    1.1710    2.3519 O   0  0  0  0  0  0  0  0  0  0  0  0
   10.3723    0.4893    3.2529 C   0  0  0  0  0  0  0  0  0  0  0  0
   12.5232   -0.8445    3.5488 C   0  0  0  0  0  0  0  0  0  0  0  0
   12.7639   -2.3134    3.8289 C   0  0  0  0  0  0  0  0  0  0  0  0
   11.4607   -2.9584    3.3830 C   0  0  0  0  0  0  0  0  0  0  0  0
   10.4552   -1.9408    3.5395 O   0  0  0  0  0  0  0  0  0  0  0  0
   11.0568   -0.7003    3.9274 C   0  0  0  0  0  0  0  0  0  0  0  0
   13.3819    0.0142    4.3060 O   0  0  0  0  0  0  0  0  0  0  0  0
   12.9086   -2.5277    5.2381 O   0  0  0  0  0  0  0  0  0  0  0  0
   13.2662   -0.1657    5.2522 H   0  0  0  0  0  0  0  0  0  0  0  0
   12.1242   -2.1907    5.6986 H   0  0  0  0  0  0  0  0  0  0  0  0
   11.5404   -3.4665    1.9907 N   0  0  0  0  0  0  0  0  0  0  0  0
   11.1036   -2.6418    0.9258 C   0  0  0  0  0  0  0  0  0  0  0  0
   11.1846   -3.0921   -0.3549 N   0  0  0  0  0  0  0  0  0  0  0  0
   11.6872   -4.3237   -0.6412 C   0  0  0  0  0  0  0  0  0  0  0  0
   12.1180   -5.1496    0.3986 C   0  0  0  0  0  0  0  0  0  0  0  0
   12.0405   -4.6877    1.7091 C   0  0  0  0  0  0  0  0  0  0  0  0
   11.7558   -4.7636   -1.9242 N   0  0  0  0  0  0  0  0  0  0  0  0
   10.6458   -1.4988    1.1831 O   0  0  0  0  0  0  0  0  0  0  0  0
   11.4530   -4.1840   -2.6602 H   0  0  0  0  0  0  0  0  0  0  0  0
   12.1085   -5.6620   -2.1184 H   0  0  0  0  0  0  0  0  0  0  0  0
  1  2  1  0  0  0
  1  5  1  0  0  0
  1 10  1  0  0  0
  2  6  1  0  0  0
  2  7  1  0  0  0
  3  4  1  0  0  0
  3  6  1  0  0  0
  3 15  1  0  0  0
  3 28  1  0  0  0
  4  5  1  0  0  0
  5 19  1  0  0  0
  6  8  1  0  0  0
 10 11  1  0  0  0
 19 22  1  0  0  0
 19 20  1  0  0  0
 22 25  1  0  0  0
 22 23  1  0  0  0
 25 26  1  0  0  0
 15 16  1  0  0  0
 15 17  2  0  0  0
 28 30  1  0  0  0
 29 30  2  0  0  0
 44 45  1  0  0  0
 44 49  1  0  0  0
 44 37  1  0  0  0
 45 46  1  0  0  0
 45 51  2  0  0  0
 46 47  2  0  0  0
 47 48  1  0  0  0
 47 50  1  0  0  0
 48 49  2  0  0  0
 35 36  1  0  0  0
 35 39  1  0  0  0
 35 40  1  0  0  0
 36 37  1  0  0  0
 36 41  1  0  0  0
 37 38  1  0  0  0
 38 39  1  0  0  0
 39 34  1  0  0  0
 30 33  1  0  0  0
 30 31  1  0  0  0
 33 34  1  0  0  0
 11 12  2  0  0  0
 11 13  1  0  0  0
  7  9  1  0  0  0
 10 14  1  0  0  0
 26 27  1  0  0  0
 23 24  1  0  0  0
 20 21  1  0  0  0
 16 18  1  0  0  0
 40 42  1  0  0  0
 41 43  1  0  0  0
 50 52  1  0  0  0
 50 53  1  0  0  0
 31 32  1  0  0  0
M  END
> <minimizedAffinity>
-9.76951

$$$$
2IHJ_CSF_A_1741


 53 55  0  0  0  0  0  0  0  0999 V2000
   11.3956   -2.9096    2.7343 C   0  0  0  0  0  0  0  0  0  0  0  0
   10.0426   -2.2492    2.4201 C   0  0  0  0  0  0  0  0  0  0  0  0
   11.1335   -0.0740    2.0193 C   0  0  0  0  0  0  0  0  0  0  0  0
   12.3900   -0.7361    2.2403 O   0  0  0  0  0  0  0  0  0  0  0  0
   12.4619   -2.1413    1.9318 C   0  0  0  0  0  0  0  0  0  0  0  0
   10.0814   -0.7816    2.8721 C   0  0  0  0  0  0  0  0  0  0  0  0
    8.8972   -2.9240    2.9625 O   0  0  0  0  0  0  0  0  0  0  0  0
   10.3909   -0.6533    4.2144 F   0  0  0  0  0  0  0  0  0  0  0  0
    8.9402   -2.9062    3.9314 H   0  0  0  0  0  0  0  0  0  0  0  0
   11.3665   -4.2681    2.1981 N   0  0  0  0  0  0  0  0  0  0  0  0
   11.4514   -5.3822    2.9403 C   0  0  0  0  0  0  0  0  0  0  0  0
   11.5593   -5.3786    4.1598 O   0  0  0  0  0  0  0  0  0  0  0  0
   11.4129   -6.6691    2.1665 C   0  0  0  0  0  0  0  0  0  0  0  0
   11.2784   -4.3734    1.2232 H   0  0  0  0  0  0  0  0  0  0  0  0
   11.2731    1.3765    2.4538 C   0  0  0  0  0  0  0  0  0  0  0  0
   12.2249    1.7238    3.1744 O   0  0  0  0  0  0  0  0  0  0  0  0
   10.4296    2.2165    2.0731 O   0  0  0  0  0  0  0  0  0  0  0  0
   12.8544    1.0898    3.4569 H   0  0  0  0  0  0  0  0  0  0  0  0
   13.9146   -2.5975    2.1266 C   0  0  0  0  0  0  0  0  0  0  0  0
   14.1196   -3.8186    1.4101 O   0  0  0  0  0  0  0  0  0  0  0  0
   13.5260   -4.5018    1.7590 H   0  0  0  0  0  0  0  0  0  0  0  0
   14.2492   -2.7968    3.6171 C   0  0  0  0  0  0  0  0  0  0  0  0
   14.2101   -4.1912    3.9558 O   0  0  0  0  0  0  0  0  0  0  0  0
   13.3087   -4.5283    3.8340 H   0  0  0  0  0  0  0  0  0  0  0  0
   13.3251   -2.0366    4.5730 C   0  0  0  0  0  0  0  0  0  0  0  0
   13.6829   -0.6483    4.6028 O   0  0  0  0  0  0  0  0  0  0  0  0
   14.5984   -0.5569    4.9103 H   0  0  0  0  0  0  0  0  0  0  0  0
   10.6585   -0.1896    0.6538 O   0  0  0  0  0  0  0  0  0  0  0  0
   11.5606   -1.4127   -1.3647 O   0  0  0  0  0  0  0  0  0  0  0  0
   11.5030   -0.0390   -0.7356 P   0  0  0  0  0  0  0  0  0  0  0  0
   12.7381    0.7402   -0.4234 O   0  0  0  0  0  0  0  0  0  0  0  0
   13.3419    0.1923    0.1022 H   0  0  0  0  0  0  0  0  0  0  0  0
   10.4615    0.8303   -1.6118 O   0  0  0  0  0  0  0  0  0  0  0  0
   10.8169    1.2398   -2.9385 C   0  0  0  0  0  0  0  0  0  0  0  0
   10.5000    3.5812   -1.9845 C   0  0  0  0  0  0  0  0  0  0  0  0
   10.6413    4.9507   -2.6158 C   0  0  0  0  0  0  0  0  0  0  0  0
   10.5070    4.6517   -4.1009 C   0  0  0  0  0  0  0  0  0  0  0  0
   10.9588    3.2948   -4.2618 O   0  0  0  0  0  0  0  0  0  0  0  0
   11.2411    2.7083   -2.9861 C   0  0  0  0  0  0  0  0  0  0  0  0
   11.0569    3.5155   -0.6679 O   0  0  0  0  0  0  0  0  0  0  0  0
   11.9572    5.4665   -2.3816 O   0  0  0  0  0  0  0  0  0  0  0  0
   11.9922    3.7706   -0.6993 H   0  0  0  0  0  0  0  0  0  0  0  0
   12.6153    4.8384   -2.7182 H   0  0  0  0  0  0  0  0  0  0  0  0
    9.1170    4.8468   -4.5834 N   0  0  0  0  0  0  0  0  0  0  0  0
    8.8550    4.8136   -5.9746 C   0  0  0  0  0  0  0  0  0  0  0  0
    7.5831    4.9779   -6.4269 N   0  0  0  0  0  0  0  0  0  0  0  0
    6.5455    5.1667   -5.5673 C   0  0  0  0  0  0  0  0  0  0  0  0
    6.7889    5.2057   -4.1932 C   0  0  0  0  0  0  0  0  0  0  0  0
    8.0894    5.0325   -3.7289 C   0  0  0  0  0  0  0  0  0  0  0  0
    5.2811    5.3364   -6.0330 N   0  0  0  0  0  0  0  0  0  0  0  0
    9.8087    4.6310   -6.7742 O   0  0  0  0  0  0  0  0  0  0  0  0
    5.1054    5.3095   -7.0014 H   0  0  0  0  0  0  0  0  0  0  0  0
    4.5401    5.4862   -5.4023 H   0  0  0  0  0  0  0  0  0  0  0  0
  1  2  1  0  0  0
  1  5  1  0  0  0
  1 10  1  0  0  0
  2  6  1  0  0  0
  2  7  1  0  0  0
  3  4  1  0  0  0
  3  6  1  0  0  0
  3 15  1  0  0  0
  3 28  1  0  0  0
  4  5  1  0  0  0
  5 19  1  0  0  0
  6  8  1  0  0  0
 10 11  1  0  0  0
 19 22  1  0  0  0
 19 20  1  0  0  0
 22 25  1  0  0  0
 22 23  1  0  0  0
 25 26  1  0  0  0
 15 16  1  0  0  0
 15 17  2  0  0  0
 28 30  1  0  0  0
 29 30  2  0  0  0
 44 45  1  0  0  0
 44 49  1  0  0  0
 44 37  1  0  0  0
 45 46  1  0  0  0
 45 51  2  0  0  0
 46 47  2  0  0  0
 47 48  1  0  0  0
 47 50  1  0  0  0
 48 49  2  0  0  0
 35 36  1  0  0  0
 35 39  1  0  0  0
 35 40  1  0  0  0
 36 37  1  0  0  0
 36 41  1  0  0  0
 37 38  1  0  0  0
 38 39  1  0  0  0
 39 34  1  0  0  0
 30 33  1  0  0  0
 30 31  1  0  0  0
 33 34  1  0  0  0
 11 12  2  0  0  0
 11 13  1  0  0  0
  7  9  1  0  0  0
 10 14  1  0  0  0
 26 27  1  0  0  0
 23 24  1  0  0  0
 20 21  1  0  0  0
 16 18  1  0  0  0
 40 42  1  0  0  0
 41 43  1  0  0  0
 50 52  1  0  0  0
 50 53  1  0  0  0
 31 32  1  0  0  0
M  END
> <minimizedAffinity>
-9.73104

$$$$
2IHJ_CSF_A_1741


 53 55  0  0  0  0  0  0  0  0999 V2000
   10.9084   -0.3846    0.8391 C   0  0  0  0  0  0  0  0  0  0  0  0
   11.5892    0.4086   -0.2890 C   0  0  0  0  0  0  0  0  0  0  0  0
   10.1281    2.3529    0.1197 C   0  0  0  0  0  0  0  0  0  0  0  0
    9.5650    1.6173    1.2187 O   0  0  0  0  0  0  0  0  0  0  0  0
   10.4083    0.6465    1.8677 C   0  0  0  0  0  0  0  0  0  0  0  0
   10.5582    1.3415   -0.9419 C   0  0  0  0  0  0  0  0  0  0  0  0
   12.2562   -0.3919   -1.2769 O   0  0  0  0  0  0  0  0  0  0  0  0
    9.4564    0.6546   -1.4198 F   0  0  0  0  0  0  0  0  0  0  0  0
   11.6050   -0.9388   -1.7434 H   0  0  0  0  0  0  0  0  0  0  0  0
   11.9338   -1.1806    1.5092 N   0  0  0  0  0  0  0  0  0  0  0  0
   12.2497   -2.4437    1.1865 C   0  0  0  0  0  0  0  0  0  0  0  0
   11.7089   -3.0688    0.2834 O   0  0  0  0  0  0  0  0  0  0  0  0
   13.3294   -3.0658    2.0253 C   0  0  0  0  0  0  0  0  0  0  0  0
   12.4278   -0.7604    2.2499 H   0  0  0  0  0  0  0  0  0  0  0  0
    9.0567    3.2766   -0.4381 C   0  0  0  0  0  0  0  0  0  0  0  0
    8.7319    3.2046   -1.6360 O   0  0  0  0  0  0  0  0  0  0  0  0
    8.4999    4.1005    0.3191 O   0  0  0  0  0  0  0  0  0  0  0  0
    9.1527    2.5851   -2.1991 H   0  0  0  0  0  0  0  0  0  0  0  0
    9.6440    0.0831    3.0739 C   0  0  0  0  0  0  0  0  0  0  0  0
    8.2641    0.4431    2.9606 O   0  0  0  0  0  0  0  0  0  0  0  0
    8.1811    1.4095    2.9592 H   0  0  0  0  0  0  0  0  0  0  0  0
   10.2196    0.6080    4.4030 C   0  0  0  0  0  0  0  0  0  0  0  0
   10.8011    1.9071    4.2171 O   0  0  0  0  0  0  0  0  0  0  0  0
   11.5510    1.8411    3.6054 H   0  0  0  0  0  0  0  0  0  0  0  0
   11.2691   -0.3102    5.0363 C   0  0  0  0  0  0  0  0  0  0  0  0
   11.3378   -0.0772    6.4496 O   0  0  0  0  0  0  0  0  0  0  0  0
   11.5866    0.8459    6.6134 H   0  0  0  0  0  0  0  0  0  0  0  0
   11.3369    3.0726    0.4727 O   0  0  0  0  0  0  0  0  0  0  0  0
   12.8220    3.4367    2.4842 O   0  0  0  0  0  0  0  0  0  0  0  0
   11.6182    4.0156    1.7757 P   0  0  0  0  0  0  0  0  0  0  0  0
   10.3117    4.2151    2.4711 O   0  0  0  0  0  0  0  0  0  0  0  0
   10.0421    3.3863    2.8967 H   0  0  0  0  0  0  0  0  0  0  0  0
   12.1135    5.3699    1.0485 O   0  0  0  0  0  0  0  0  0  0  0  0
   11.1849    6.1440    0.2788 C   0  0  0  0  0  0  0  0  0  0  0  0
   10.8870    7.5826   -1.8032 C   0  0  0  0  0  0  0  0  0  0  0  0
   11.5033    7.4915   -3.1838 C   0  0  0  0  0  0  0  0  0  0  0  0
   11.9572    6.0416   -3.2541 C   0  0  0  0  0  0  0  0  0  0  0  0
   12.2048    5.6502   -1.8916 O   0  0  0  0  0  0  0  0  0  0  0  0
   11.8252    6.6997   -0.9940 C   0  0  0  0  0  0  0  0  0  0  0  0
   10.8210    8.9248   -1.3110 O   0  0  0  0  0  0  0  0  0  0  0  0
   12.6647    8.3270   -3.2597 O   0  0  0  0  0  0  0  0  0  0  0  0
   11.7112    9.3101   -1.3022 H   0  0  0  0  0  0  0  0  0  0  0  0
   13.2901    8.0755   -2.5621 H   0  0  0  0  0  0  0  0  0  0  0  0
   10.9509    5.1761   -3.9182 N   0  0  0  0  0  0  0  0  0  0  0  0
   11.1105    3.7697   -3.8763 C   0  0  0  0  0  0  0  0  0  0  0  0
   10.1873    2.9668   -4.4699 N   0  0  0  0  0  0  0  0  0  0  0  0
    9.0998    3.4860   -5.1016 C   0  0  0  0  0  0  0  0  0  0  0  0
    8.9311    4.8709   -5.1545 C   0  0  0  0  0  0  0  0  0  0  0  0
    9.8725    5.6933   -4.5428 C   0  0  0  0  0  0  0  0  0  0  0  0
    8.1891    2.6728   -5.6963 N   0  0  0  0  0  0  0  0  0  0  0  0
   12.1093    3.2830   -3.2866 O   0  0  0  0  0  0  0  0  0  0  0  0
    8.3047    1.6957   -5.6611 H   0  0  0  0  0  0  0  0  0  0  0  0
    7.4134    3.0603   -6.1625 H   0  0  0  0  0  0  0  0  0  0  0  0
  1  2  1  0  0  0
  1  5  1  0  0  0
  1 10  1  0  0  0
  2  6  1  0  0  0
  2  7  1  0  0  0
  3  4  1  0  0  0
  3  6  1  0  0  0
  3 15  1  0  0  0
  3 28  1  0  0  0
  4  5  1  0  0  0
  5 19  1  0  0  0
  6  8  1  0  0  0
 10 11  1  0  0  0
 19 22  1  0  0  0
 19 20  1  0  0  0
 22 25  1  0  0  0
 22 23  1  0  0  0
 25 26  1  0  0  0
 15 16  1  0  0  0
 15 17  2  0  0  0
 28 30  1  0  0  0
 29 30  2  0  0  0
 44 45  1  0  0  0
 44 49  1  0  0  0
 44 37  1  0  0  0
 45 46  1  0  0  0
 45 51  2  0  0  0
 46 47  2  0  0  0
 47 48  1  0  0  0
 47 50  1  0  0  0
 48 49  2  0  0  0
 35 36  1  0  0  0
 35 39  1  0  0  0
 35 40  1  0  0  0
 36 37  1  0  0  0
 36 41  1  0  0  0
 37 38  1  0  0  0
 38 39  1  0  0  0
 39 34  1  0  0  0
 30 33  1  0  0  0
 30 31  1  0  0  0
 33 34  1  0  0  0
 11 12  2  0  0  0
 11 13  1  0  0  0
  7  9  1  0  0  0
 10 14  1  0  0  0
 26 27  1  0  0  0
 23 24  1  0  0  0
 20 21  1  0  0  0
 16 18  1  0  0  0
 40 42  1  0  0  0
 41 43  1  0  0  0
 50 52  1  0  0  0
 50 53  1  0  0  0
 31 32  1  0  0  0
M  END
> <minimizedAffinity>
-9.64920

$$$$
2IHJ_CSF_A_1741


 53 55  0  0  0  0  0  0  0  0999 V2000
   11.4138   -2.9356    2.6804 C   0  0  0  0  0  0  0  0  0  0  0  0
   10.0572   -2.2552    2.4318 C   0  0  0  0  0  0  0  0  0  0  0  0
   11.1432   -0.0554    2.1790 C   0  0  0  0  0  0  0  0  0  0  0  0
   12.4022   -0.7309    2.3357 O   0  0  0  0  0  0  0  0  0  0  0  0
   12.4704   -2.1096    1.9238 C   0  0  0  0  0  0  0  0  0  0  0  0
   10.1014   -0.8247    2.9900 C   0  0  0  0  0  0  0  0  0  0  0  0
    8.9183   -2.9690    2.9367 O   0  0  0  0  0  0  0  0  0  0  0  0
   10.4269   -0.7952    4.3343 F   0  0  0  0  0  0  0  0  0  0  0  0
    8.9730   -3.0224    3.9037 H   0  0  0  0  0  0  0  0  0  0  0  0
   11.3783   -4.2511    2.0461 N   0  0  0  0  0  0  0  0  0  0  0  0
   11.4598   -5.4169    2.7045 C   0  0  0  0  0  0  0  0  0  0  0  0
   11.5696   -5.5031    3.9208 O   0  0  0  0  0  0  0  0  0  0  0  0
   11.4147   -6.6435    1.8385 C   0  0  0  0  0  0  0  0  0  0  0  0
   11.2882   -4.2843    1.0663 H   0  0  0  0  0  0  0  0  0  0  0  0
   11.2880    1.3594    2.7173 C   0  0  0  0  0  0  0  0  0  0  0  0
   10.2829    1.9968    3.0766 O   0  0  0  0  0  0  0  0  0  0  0  0
   12.4250    1.8710    2.8039 O   0  0  0  0  0  0  0  0  0  0  0  0
    9.4330    1.6082    3.0095 H   0  0  0  0  0  0  0  0  0  0  0  0
   13.9253   -2.5775    2.0672 C   0  0  0  0  0  0  0  0  0  0  0  0
   14.1474   -3.6844    1.1885 O   0  0  0  0  0  0  0  0  0  0  0  0
   13.5569   -4.4143    1.4323 H   0  0  0  0  0  0  0  0  0  0  0  0
   14.2486   -2.9816    3.5183 C   0  0  0  0  0  0  0  0  0  0  0  0
   14.2152   -4.4097    3.6584 O   0  0  0  0  0  0  0  0  0  0  0  0
   13.3170   -4.7310    3.4824 H   0  0  0  0  0  0  0  0  0  0  0  0
   13.3117   -2.3669    4.5624 C   0  0  0  0  0  0  0  0  0  0  0  0
   12.9542   -3.3511    5.5423 O   0  0  0  0  0  0  0  0  0  0  0  0
   12.5002   -4.0900    5.1077 H   0  0  0  0  0  0  0  0  0  0  0  0
   10.6519   -0.0707    0.8145 O   0  0  0  0  0  0  0  0  0  0  0  0
   11.3451   -1.0646   -1.4027 O   0  0  0  0  0  0  0  0  0  0  0  0
   11.4780    0.1903   -0.5696 P   0  0  0  0  0  0  0  0  0  0  0  0
   12.8094    0.7527   -0.1938 O   0  0  0  0  0  0  0  0  0  0  0  0
   13.3493    0.0591    0.2165 H   0  0  0  0  0  0  0  0  0  0  0  0
   10.5376    1.3077   -1.2589 O   0  0  0  0  0  0  0  0  0  0  0  0
   11.0218    2.6478   -1.4127 C   0  0  0  0  0  0  0  0  0  0  0  0
    9.5732    4.0397    0.1548 C   0  0  0  0  0  0  0  0  0  0  0  0
    9.9169    5.1729    1.0991 C   0  0  0  0  0  0  0  0  0  0  0  0
   11.2396    5.6812    0.5467 C   0  0  0  0  0  0  0  0  0  0  0  0
   11.8423    4.5504   -0.1082 O   0  0  0  0  0  0  0  0  0  0  0  0
   10.9448    3.4342   -0.1034 C   0  0  0  0  0  0  0  0  0  0  0  0
    8.6485    3.1052    0.7205 O   0  0  0  0  0  0  0  0  0  0  0  0
   10.1507    4.6609    2.4167 O   0  0  0  0  0  0  0  0  0  0  0  0
    9.0128    2.7493    1.5460 H   0  0  0  0  0  0  0  0  0  0  0  0
   10.8485    3.9880    2.3829 H   0  0  0  0  0  0  0  0  0  0  0  0
   11.0525    6.8333   -0.3702 N   0  0  0  0  0  0  0  0  0  0  0  0
   12.1858    7.4285   -0.9756 C   0  0  0  0  0  0  0  0  0  0  0  0
   12.0248    8.4760   -1.8277 N   0  0  0  0  0  0  0  0  0  0  0  0
   10.7898    8.9653   -2.1220 C   0  0  0  0  0  0  0  0  0  0  0  0
    9.6634    8.3913   -1.5297 C   0  0  0  0  0  0  0  0  0  0  0  0
    9.8266    7.3158   -0.6616 C   0  0  0  0  0  0  0  0  0  0  0  0
   10.6440   10.0165   -2.9694 N   0  0  0  0  0  0  0  0  0  0  0  0
   13.3298    6.9755   -0.7142 O   0  0  0  0  0  0  0  0  0  0  0  0
   11.4359   10.4240   -3.3890 H   0  0  0  0  0  0  0  0  0  0  0  0
    9.7465   10.3710   -3.1641 H   0  0  0  0  0  0  0  0  0  0  0  0
  1  2  1  0  0  0
  1  5  1  0  0  0
  1 10  1  0  0  0
  2  6  1  0  0  0
  2  7  1  0  0  0
  3  4  1  0  0  0
  3  6  1  0  0  0
  3 15  1  0  0  0
  3 28  1  0  0  0
  4  5  1  0  0  0
  5 19  1  0  0  0
  6  8  1  0  0  0
 10 11  1  0  0  0
 19 22  1  0  0  0
 19 20  1  0  0  0
 22 25  1  0  0  0
 22 23  1  0  0  0
 25 26  1  0  0  0
 15 16  1  0  0  0
 15 17  2  0  0  0
 28 30  1  0  0  0
 29 30  2  0  0  0
 44 45  1  0  0  0
 44 49  1  0  0  0
 44 37  1  0  0  0
 45 46  1  0  0  0
 45 51  2  0  0  0
 46 47  2  0  0  0
 47 48  1  0  0  0
 47 50  1  0  0  0
 48 49  2  0  0  0
 35 36  1  0  0  0
 35 39  1  0  0  0
 35 40  1  0  0  0
 36 37  1  0  0  0
 36 41  1  0  0  0
 37 38  1  0  0  0
 38 39  1  0  0  0
 39 34  1  0  0  0
 30 33  1  0  0  0
 30 31  1  0  0  0
 33 34  1  0  0  0
 11 12  2  0  0  0
 11 13  1  0  0  0
  7  9  1  0  0  0
 10 14  1  0  0  0
 26 27  1  0  0  0
 23 24  1  0  0  0
 20 21  1  0  0  0
 16 18  1  0  0  0
 40 42  1  0  0  0
 41 43  1  0  0  0
 50 52  1  0  0  0
 50 53  1  0  0  0
 31 32  1  0  0  0
M  END
> <minimizedAffinity>
-9.41103

$$$$
