2XJX_XJX_A_1232


 32 35  0  0  0  0  0  0  0  0999 V2000
   15.8943   -4.5253    8.5358 C   0  0  0  0  0  0  0  0  0  0  0  0
   16.8553   -4.8429    9.2076 O   0  0  0  0  0  0  0  0  0  0  0  0
   15.8854   -4.6547    7.2015 N   0  0  0  0  0  0  0  0  0  0  0  0
   16.9812   -5.2790    6.4459 C   0  0  0  0  0  0  0  0  0  0  0  0
   16.3334   -5.5700    5.1212 C   0  0  0  0  0  0  0  0  0  0  0  0
   16.8526   -6.2381    4.0192 C   0  0  0  0  0  0  0  0  0  0  0  0
   16.0842   -6.3948    2.8794 C   0  0  0  0  0  0  0  0  0  0  0  0
   14.7902   -5.8851    2.8240 C   0  0  0  0  0  0  0  0  0  0  0  0
   14.2887   -5.2211    3.9399 C   0  0  0  0  0  0  0  0  0  0  0  0
   15.0584   -5.0713    5.0801 C   0  0  0  0  0  0  0  0  0  0  0  0
   14.7146   -4.3626    6.3614 C   0  0  0  0  0  0  0  0  0  0  0  0
   13.4225   -1.8873    9.6680 C   0  0  0  0  0  0  0  0  0  0  0  0
   14.5289   -2.5116    9.0937 C   0  0  0  0  0  0  0  0  0  0  0  0
   14.7134   -3.8932    9.1860 C   0  0  0  0  0  0  0  0  0  0  0  0
   13.7956   -4.6676    9.8729 C   0  0  0  0  0  0  0  0  0  0  0  0
   13.9878   -6.0221    9.9618 O   0  0  0  0  0  0  0  0  0  0  0  0
   12.6966   -4.0642   10.4836 C   0  0  0  0  0  0  0  0  0  0  0  0
   12.5177   -2.6928   10.3950 C   0  0  0  0  0  0  0  0  0  0  0  0
   11.4100   -2.1525   10.9873 O   0  0  0  0  0  0  0  0  0  0  0  0
   14.7294   -6.4182    9.5480 H   0  0  0  0  0  0  0  0  0  0  0  0
   11.2601   -1.2285   10.9455 H   0  0  0  0  0  0  0  0  0  0  0  0
   14.1748    0.2878   10.6965 C   0  0  0  0  0  0  0  0  0  0  0  0
   13.2704   -0.3655    9.6456 C   0  0  0  0  0  0  0  0  0  0  0  0
   13.5199    0.2503    8.2731 C   0  0  0  0  0  0  0  0  0  0  0  0
   13.9527   -6.0334    1.5773 C   0  0  0  0  0  0  0  0  0  0  0  0
   14.2936   -7.2798    0.7972 N   0  0  0  0  0  0  0  0  0  0  0  0
   13.0777   -8.1308    0.5722 C   0  0  0  0  0  0  0  0  0  0  0  0
   13.4157   -9.3793   -0.2296 C   0  0  0  0  0  0  0  0  0  0  0  0
   14.0299   -8.9898   -1.5345 N   0  0  0  0  0  0  0  0  0  0  0  0
   14.2899  -10.1804   -2.3971 C   0  0  0  0  0  0  0  0  0  0  0  0
   15.2771   -8.2011   -1.2960 C   0  0  0  0  0  0  0  0  0  0  0  0
   14.9489   -6.9420   -0.5091 C   0  0  0  0  0  0  0  0  0  0  0  0
 22 23  1  0  0  0
 23 24  1  0  0  0
 23 12  1  0  0  0
 12 13  1  0  0  0
 12 18  2  0  0  0
 13 14  2  0  0  0
 14  1  1  0  0  0
 14 15  1  0  0  0
  1  2  2  0  0  0
  1  3  1  0  0  0
  3  4  1  0  0  0
  3 11  1  0  0  0
  4  5  1  0  0  0
  5  6  1  0  0  0
  5 10  2  0  0  0
  6  7  2  0  0  0
  7  8  1  0  0  0
  8 25  1  0  0  0
  8  9  2  0  0  0
 25 26  1  0  0  0
 26 27  1  0  0  0
 26 32  1  0  0  0
 27 28  1  0  0  0
 28 29  1  0  0  0
 29 30  1  0  0  0
 29 31  1  0  0  0
 31 32  1  0  0  0
  9 10  1  0  0  0
 10 11  1  0  0  0
 15 16  1  0  0  0
 15 17  2  0  0  0
 17 18  1  0  0  0
 18 19  1  0  0  0
 16 20  1  0  0  0
 19 21  1  0  0  0
M  END
> <minimizedAffinity>
-10.25635

$$$$
2XJX_XJX_A_1232


 32 35  0  0  0  0  0  0  0  0999 V2000
   15.8990   -4.4595    8.5916 C   0  0  0  0  0  0  0  0  0  0  0  0
   16.8722   -4.7346    9.2645 O   0  0  0  0  0  0  0  0  0  0  0  0
   15.8895   -4.6110    7.2596 N   0  0  0  0  0  0  0  0  0  0  0  0
   17.0024   -5.2117    6.5098 C   0  0  0  0  0  0  0  0  0  0  0  0
   16.3596   -5.5454    5.1927 C   0  0  0  0  0  0  0  0  0  0  0  0
   16.8963   -6.2143    4.0996 C   0  0  0  0  0  0  0  0  0  0  0  0
   16.1294   -6.4147    2.9657 C   0  0  0  0  0  0  0  0  0  0  0  0
   14.8193   -5.9484    2.9073 C   0  0  0  0  0  0  0  0  0  0  0  0
   14.3004   -5.2828    4.0143 C   0  0  0  0  0  0  0  0  0  0  0  0
   15.0689   -5.0892    5.1487 C   0  0  0  0  0  0  0  0  0  0  0  0
   14.7068   -4.3711    6.4196 C   0  0  0  0  0  0  0  0  0  0  0  0
   13.3736   -1.8771    9.7334 C   0  0  0  0  0  0  0  0  0  0  0  0
   14.4965   -2.4756    9.1638 C   0  0  0  0  0  0  0  0  0  0  0  0
   14.7005   -3.8556    9.2362 C   0  0  0  0  0  0  0  0  0  0  0  0
   13.7855   -4.6545    9.8984 C   0  0  0  0  0  0  0  0  0  0  0  0
   13.9967   -6.0074    9.9679 O   0  0  0  0  0  0  0  0  0  0  0  0
   12.6697   -4.0774   10.5041 C   0  0  0  0  0  0  0  0  0  0  0  0
   12.4715   -2.7076   10.4353 C   0  0  0  0  0  0  0  0  0  0  0  0
   11.3483   -2.1934   11.0216 O   0  0  0  0  0  0  0  0  0  0  0  0
   14.7494   -6.3857    9.5576 H   0  0  0  0  0  0  0  0  0  0  0  0
   11.1851   -1.2712   10.9927 H   0  0  0  0  0  0  0  0  0  0  0  0
   14.0812    0.2919   10.8055 C   0  0  0  0  0  0  0  0  0  0  0  0
   13.1990   -0.3575    9.7336 C   0  0  0  0  0  0  0  0  0  0  0  0
   13.4554    0.2840    8.3743 C   0  0  0  0  0  0  0  0  0  0  0  0
   13.9826   -6.1443    1.6667 C   0  0  0  0  0  0  0  0  0  0  0  0
   13.4067   -4.8492    1.1477 N   0  0  0  0  0  0  0  0  0  0  0  0
   14.4832   -3.9509    0.6115 C   0  0  0  0  0  0  0  0  0  0  0  0
   13.9029   -2.6519    0.0714 C   0  0  0  0  0  0  0  0  0  0  0  0
   12.8959   -2.9523   -0.9904 N   0  0  0  0  0  0  0  0  0  0  0  0
   12.3694   -1.7041   -1.6181 C   0  0  0  0  0  0  0  0  0  0  0  0
   11.7943   -3.7904   -0.4260 C   0  0  0  0  0  0  0  0  0  0  0  0
   12.3604   -5.0991    0.1024 C   0  0  0  0  0  0  0  0  0  0  0  0
 22 23  1  0  0  0
 23 24  1  0  0  0
 23 12  1  0  0  0
 12 13  1  0  0  0
 12 18  2  0  0  0
 13 14  2  0  0  0
 14  1  1  0  0  0
 14 15  1  0  0  0
  1  2  2  0  0  0
  1  3  1  0  0  0
  3  4  1  0  0  0
  3 11  1  0  0  0
  4  5  1  0  0  0
  5  6  1  0  0  0
  5 10  2  0  0  0
  6  7  2  0  0  0
  7  8  1  0  0  0
  8 25  1  0  0  0
  8  9  2  0  0  0
 25 26  1  0  0  0
 26 27  1  0  0  0
 26 32  1  0  0  0
 27 28  1  0  0  0
 28 29  1  0  0  0
 29 30  1  0  0  0
 29 31  1  0  0  0
 31 32  1  0  0  0
  9 10  1  0  0  0
 10 11  1  0  0  0
 15 16  1  0  0  0
 15 17  2  0  0  0
 17 18  1  0  0  0
 18 19  1  0  0  0
 16 20  1  0  0  0
 19 21  1  0  0  0
M  END
> <minimizedAffinity>
-9.86982

$$$$
2XJX_XJX_A_1232


 32 35  0  0  0  0  0  0  0  0999 V2000
   15.9070   -4.4793    8.5936 C   0  0  0  0  0  0  0  0  0  0  0  0
   16.8743   -4.7783    9.2648 O   0  0  0  0  0  0  0  0  0  0  0  0
   15.8980   -4.6135    7.2597 N   0  0  0  0  0  0  0  0  0  0  0  0
   17.0028   -5.2219    6.5044 C   0  0  0  0  0  0  0  0  0  0  0  0
   16.3577   -5.5285    5.1819 C   0  0  0  0  0  0  0  0  0  0  0  0
   16.8862   -6.1916    4.0813 C   0  0  0  0  0  0  0  0  0  0  0  0
   16.1186   -6.3653    2.9435 C   0  0  0  0  0  0  0  0  0  0  0  0
   14.8161   -5.8777    2.8886 C   0  0  0  0  0  0  0  0  0  0  0  0
   14.3054   -5.2183    4.0030 C   0  0  0  0  0  0  0  0  0  0  0  0
   15.0744   -5.0515    5.1413 C   0  0  0  0  0  0  0  0  0  0  0  0
   14.7210   -4.3442    6.4207 C   0  0  0  0  0  0  0  0  0  0  0  0
   13.4023   -1.8768    9.7356 C   0  0  0  0  0  0  0  0  0  0  0  0
   14.5177   -2.4848    9.1611 C   0  0  0  0  0  0  0  0  0  0  0  0
   14.7167   -3.8650    9.2437 C   0  0  0  0  0  0  0  0  0  0  0  0
   13.8046   -4.6544    9.9210 C   0  0  0  0  0  0  0  0  0  0  0  0
   14.0110   -6.0074   10.0003 O   0  0  0  0  0  0  0  0  0  0  0  0
   12.6966   -4.0675   10.5317 C   0  0  0  0  0  0  0  0  0  0  0  0
   12.5033   -2.6975   10.4527 C   0  0  0  0  0  0  0  0  0  0  0  0
   11.3875   -2.1737   11.0446 O   0  0  0  0  0  0  0  0  0  0  0  0
   14.7585   -6.3923    9.5866 H   0  0  0  0  0  0  0  0  0  0  0  0
   11.2277   -1.2511   11.0091 H   0  0  0  0  0  0  0  0  0  0  0  0
   14.1429    0.3000   10.7688 C   0  0  0  0  0  0  0  0  0  0  0  0
   13.2338   -0.3565    9.7241 C   0  0  0  0  0  0  0  0  0  0  0  0
   13.4616    0.2699    8.3527 C   0  0  0  0  0  0  0  0  0  0  0  0
   13.9791   -6.0445    1.6439 C   0  0  0  0  0  0  0  0  0  0  0  0
   14.6759   -5.5336    0.4063 N   0  0  0  0  0  0  0  0  0  0  0  0
   14.4437   -6.4441   -0.7642 C   0  0  0  0  0  0  0  0  0  0  0  0
   15.1306   -5.9216   -2.0176 C   0  0  0  0  0  0  0  0  0  0  0  0
   14.6426   -4.5430   -2.3228 N   0  0  0  0  0  0  0  0  0  0  0  0
   15.2176   -4.0263   -3.6001 C   0  0  0  0  0  0  0  0  0  0  0  0
   14.9415   -3.6309   -1.1769 C   0  0  0  0  0  0  0  0  0  0  0  0
   14.2464   -4.1344    0.0783 C   0  0  0  0  0  0  0  0  0  0  0  0
 22 23  1  0  0  0
 23 24  1  0  0  0
 23 12  1  0  0  0
 12 13  1  0  0  0
 12 18  2  0  0  0
 13 14  2  0  0  0
 14  1  1  0  0  0
 14 15  1  0  0  0
  1  2  2  0  0  0
  1  3  1  0  0  0
  3  4  1  0  0  0
  3 11  1  0  0  0
  4  5  1  0  0  0
  5  6  1  0  0  0
  5 10  2  0  0  0
  6  7  2  0  0  0
  7  8  1  0  0  0
  8 25  1  0  0  0
  8  9  2  0  0  0
 25 26  1  0  0  0
 26 27  1  0  0  0
 26 32  1  0  0  0
 27 28  1  0  0  0
 28 29  1  0  0  0
 29 30  1  0  0  0
 29 31  1  0  0  0
 31 32  1  0  0  0
  9 10  1  0  0  0
 10 11  1  0  0  0
 15 16  1  0  0  0
 15 17  2  0  0  0
 17 18  1  0  0  0
 18 19  1  0  0  0
 16 20  1  0  0  0
 19 21  1  0  0  0
M  END
> <minimizedAffinity>
-9.67521

$$$$
2XJX_XJX_A_1232


 32 35  0  0  0  0  0  0  0  0999 V2000
   15.7842   -4.3874    8.6010 C   0  0  0  0  0  0  0  0  0  0  0  0
   16.7236   -4.7387    9.2863 O   0  0  0  0  0  0  0  0  0  0  0  0
   15.7963   -4.5014    7.2653 N   0  0  0  0  0  0  0  0  0  0  0  0
   16.8885   -5.1468    6.5224 C   0  0  0  0  0  0  0  0  0  0  0  0
   16.2575   -5.4050    5.1828 C   0  0  0  0  0  0  0  0  0  0  0  0
   16.7786   -6.0745    4.0826 C   0  0  0  0  0  0  0  0  0  0  0  0
   16.0274   -6.1973    2.9273 C   0  0  0  0  0  0  0  0  0  0  0  0
   14.7489   -5.6519    2.8545 C   0  0  0  0  0  0  0  0  0  0  0  0
   14.2452   -4.9871    3.9689 C   0  0  0  0  0  0  0  0  0  0  0  0
   14.9975   -4.8713    5.1245 C   0  0  0  0  0  0  0  0  0  0  0  0
   14.6495   -4.1680    6.4076 C   0  0  0  0  0  0  0  0  0  0  0  0
   13.3662   -1.6955    9.7224 C   0  0  0  0  0  0  0  0  0  0  0  0
   14.4656   -2.3433    9.1608 C   0  0  0  0  0  0  0  0  0  0  0  0
   14.6091   -3.7307    9.2371 C   0  0  0  0  0  0  0  0  0  0  0  0
   13.6563   -4.4878    9.8952 C   0  0  0  0  0  0  0  0  0  0  0  0
   13.8083   -5.8484    9.9685 O   0  0  0  0  0  0  0  0  0  0  0  0
   12.5630   -3.8615   10.4929 C   0  0  0  0  0  0  0  0  0  0  0  0
   12.4248   -2.4846   10.4204 C   0  0  0  0  0  0  0  0  0  0  0  0
   11.3214   -1.9209   10.9988 O   0  0  0  0  0  0  0  0  0  0  0  0
   14.5463   -6.2598    9.5636 H   0  0  0  0  0  0  0  0  0  0  0  0
   11.1985   -0.9925   10.9671 H   0  0  0  0  0  0  0  0  0  0  0  0
   14.1489    0.4423   10.8050 C   0  0  0  0  0  0  0  0  0  0  0  0
   13.2577   -0.1697    9.7187 C   0  0  0  0  0  0  0  0  0  0  0  0
   13.5647    0.4582    8.3634 C   0  0  0  0  0  0  0  0  0  0  0  0
   13.9308   -5.7632    1.5912 C   0  0  0  0  0  0  0  0  0  0  0  0
   13.8777   -4.4661    0.8212 N   0  0  0  0  0  0  0  0  0  0  0  0
   12.7390   -3.6045    1.2841 C   0  0  0  0  0  0  0  0  0  0  0  0
   12.6942   -2.2883    0.5215 C   0  0  0  0  0  0  0  0  0  0  0  0
   13.9933   -1.5682    0.6814 N   0  0  0  0  0  0  0  0  0  0  0  0
   13.9616   -0.2254    0.0294 C   0  0  0  0  0  0  0  0  0  0  0  0
   15.1109   -2.4090    0.1539 C   0  0  0  0  0  0  0  0  0  0  0  0
   15.1757   -3.7209    0.9201 C   0  0  0  0  0  0  0  0  0  0  0  0
 22 23  1  0  0  0
 23 24  1  0  0  0
 23 12  1  0  0  0
 12 13  1  0  0  0
 12 18  2  0  0  0
 13 14  2  0  0  0
 14  1  1  0  0  0
 14 15  1  0  0  0
  1  2  2  0  0  0
  1  3  1  0  0  0
  3  4  1  0  0  0
  3 11  1  0  0  0
  4  5  1  0  0  0
  5  6  1  0  0  0
  5 10  2  0  0  0
  6  7  2  0  0  0
  7  8  1  0  0  0
  8 25  1  0  0  0
  8  9  2  0  0  0
 25 26  1  0  0  0
 26 27  1  0  0  0
 26 32  1  0  0  0
 27 28  1  0  0  0
 28 29  1  0  0  0
 29 30  1  0  0  0
 29 31  1  0  0  0
 31 32  1  0  0  0
  9 10  1  0  0  0
 10 11  1  0  0  0
 15 16  1  0  0  0
 15 17  2  0  0  0
 17 18  1  0  0  0
 18 19  1  0  0  0
 16 20  1  0  0  0
 19 21  1  0  0  0
M  END
> <minimizedAffinity>
-9.44266

$$$$
2XJX_XJX_A_1232


 32 35  0  0  0  0  0  0  0  0999 V2000
   15.6607   -4.3505    8.6333 C   0  0  0  0  0  0  0  0  0  0  0  0
   16.3826   -5.1106    9.2469 O   0  0  0  0  0  0  0  0  0  0  0  0
   15.9237   -3.9833    7.3710 N   0  0  0  0  0  0  0  0  0  0  0  0
   17.0372   -4.5371    6.5869 C   0  0  0  0  0  0  0  0  0  0  0  0
   16.6568   -4.1650    5.1812 C   0  0  0  0  0  0  0  0  0  0  0  0
   17.2851   -4.4942    3.9865 C   0  0  0  0  0  0  0  0  0  0  0  0
   16.7710   -4.0389    2.7856 C   0  0  0  0  0  0  0  0  0  0  0  0
   15.6260   -3.2479    2.7617 C   0  0  0  0  0  0  0  0  0  0  0  0
   15.0110   -2.9316    3.9697 C   0  0  0  0  0  0  0  0  0  0  0  0
   15.5251   -3.3936    5.1685 C   0  0  0  0  0  0  0  0  0  0  0  0
   15.0328   -3.1348    6.5659 C   0  0  0  0  0  0  0  0  0  0  0  0
   13.2539   -1.7264    9.9266 C   0  0  0  0  0  0  0  0  0  0  0  0
   14.3493   -2.3413    9.3218 C   0  0  0  0  0  0  0  0  0  0  0  0
   14.4899   -3.7311    9.3133 C   0  0  0  0  0  0  0  0  0  0  0  0
   13.5382   -4.5247    9.9286 C   0  0  0  0  0  0  0  0  0  0  0  0
   13.6874   -5.8875    9.9187 O   0  0  0  0  0  0  0  0  0  0  0  0
   12.4490   -3.9336   10.5681 C   0  0  0  0  0  0  0  0  0  0  0  0
   12.3137   -2.5545   10.5797 C   0  0  0  0  0  0  0  0  0  0  0  0
   11.2142   -2.0246   11.1961 O   0  0  0  0  0  0  0  0  0  0  0  0
   14.4227   -6.2752    9.4863 H   0  0  0  0  0  0  0  0  0  0  0  0
   11.0933   -1.0957   11.2213 H   0  0  0  0  0  0  0  0  0  0  0  0
   14.1241    0.3498   11.0609 C   0  0  0  0  0  0  0  0  0  0  0  0
   13.1489   -0.2031   10.0158 C   0  0  0  0  0  0  0  0  0  0  0  0
   13.3499    0.4994    8.6774 C   0  0  0  0  0  0  0  0  0  0  0  0
   15.0705   -2.7297    1.4577 C   0  0  0  0  0  0  0  0  0  0  0  0
   15.3261   -1.2545    1.2664 N   0  0  0  0  0  0  0  0  0  0  0  0
   16.2044   -1.0041    0.0751 C   0  0  0  0  0  0  0  0  0  0  0  0
   16.4489    0.4838   -0.1303 C   0  0  0  0  0  0  0  0  0  0  0  0
   15.1432    1.1929   -0.2853 N   0  0  0  0  0  0  0  0  0  0  0  0
   15.3368    2.6425   -0.5860 C   0  0  0  0  0  0  0  0  0  0  0  0
   14.3057    0.9922    0.9365 C   0  0  0  0  0  0  0  0  0  0  0  0
   14.0409   -0.4909    1.1427 C   0  0  0  0  0  0  0  0  0  0  0  0
 22 23  1  0  0  0
 23 24  1  0  0  0
 23 12  1  0  0  0
 12 13  1  0  0  0
 12 18  2  0  0  0
 13 14  2  0  0  0
 14  1  1  0  0  0
 14 15  1  0  0  0
  1  2  2  0  0  0
  1  3  1  0  0  0
  3  4  1  0  0  0
  3 11  1  0  0  0
  4  5  1  0  0  0
  5  6  1  0  0  0
  5 10  2  0  0  0
  6  7  2  0  0  0
  7  8  1  0  0  0
  8 25  1  0  0  0
  8  9  2  0  0  0
 25 26  1  0  0  0
 26 27  1  0  0  0
 26 32  1  0  0  0
 27 28  1  0  0  0
 28 29  1  0  0  0
 29 30  1  0  0  0
 29 31  1  0  0  0
 31 32  1  0  0  0
  9 10  1  0  0  0
 10 11  1  0  0  0
 15 16  1  0  0  0
 15 17  2  0  0  0
 17 18  1  0  0  0
 18 19  1  0  0  0
 16 20  1  0  0  0
 19 21  1  0  0  0
M  END
> <minimizedAffinity>
-8.74771

$$$$
2XJX_XJX_A_1232


 32 35  0  0  0  0  0  0  0  0999 V2000
   15.8553   -4.3096    8.5547 C   0  0  0  0  0  0  0  0  0  0  0  0
   16.7076   -4.8792    9.2063 O   0  0  0  0  0  0  0  0  0  0  0  0
   15.9756   -4.1260    7.2321 N   0  0  0  0  0  0  0  0  0  0  0  0
   17.0845   -4.6781    6.4403 C   0  0  0  0  0  0  0  0  0  0  0  0
   16.5565   -4.5813    5.0364 C   0  0  0  0  0  0  0  0  0  0  0  0
   17.1270   -5.0311    3.8521 C   0  0  0  0  0  0  0  0  0  0  0  0
   16.4722   -4.8336    2.6495 C   0  0  0  0  0  0  0  0  0  0  0  0
   15.2422   -4.1831    2.6132 C   0  0  0  0  0  0  0  0  0  0  0  0
   14.6875   -3.7424    3.8113 C   0  0  0  0  0  0  0  0  0  0  0  0
   15.3429   -3.9468    5.0128 C   0  0  0  0  0  0  0  0  0  0  0  0
   14.9309   -3.5187    6.3945 C   0  0  0  0  0  0  0  0  0  0  0  0
   13.3602   -1.7462    9.8011 C   0  0  0  0  0  0  0  0  0  0  0  0
   14.4679   -2.3353    9.1934 C   0  0  0  0  0  0  0  0  0  0  0  0
   14.6739   -3.7162    9.2394 C   0  0  0  0  0  0  0  0  0  0  0  0
   13.7766   -4.5256    9.9130 C   0  0  0  0  0  0  0  0  0  0  0  0
   13.9898   -5.8792    9.9564 O   0  0  0  0  0  0  0  0  0  0  0  0
   12.6769   -3.9583   10.5564 C   0  0  0  0  0  0  0  0  0  0  0  0
   12.4769   -2.5878   10.5136 C   0  0  0  0  0  0  0  0  0  0  0  0
   11.3693   -2.0830   11.1368 O   0  0  0  0  0  0  0  0  0  0  0  0
   14.7315   -6.2509    9.5210 H   0  0  0  0  0  0  0  0  0  0  0  0
   11.2052   -1.1606   11.1261 H   0  0  0  0  0  0  0  0  0  0  0  0
   14.1713    0.4168   10.8102 C   0  0  0  0  0  0  0  0  0  0  0  0
   13.1855   -0.2268    9.8290 C   0  0  0  0  0  0  0  0  0  0  0  0
   13.3024    0.4237    8.4549 C   0  0  0  0  0  0  0  0  0  0  0  0
   14.5310   -3.9451    1.3036 C   0  0  0  0  0  0  0  0  0  0  0  0
   14.3045   -5.2206    0.5290 N   0  0  0  0  0  0  0  0  0  0  0  0
   15.4780   -5.5388   -0.3512 C   0  0  0  0  0  0  0  0  0  0  0  0
   15.2593   -6.8339   -1.1197 C   0  0  0  0  0  0  0  0  0  0  0  0
   15.0059   -7.9521   -0.1621 N   0  0  0  0  0  0  0  0  0  0  0  0
   14.8814   -9.2624   -0.8670 C   0  0  0  0  0  0  0  0  0  0  0  0
   13.7945   -7.6537    0.6613 C   0  0  0  0  0  0  0  0  0  0  0  0
   14.0081   -6.3694    1.4469 C   0  0  0  0  0  0  0  0  0  0  0  0
 22 23  1  0  0  0
 23 24  1  0  0  0
 23 12  1  0  0  0
 12 13  1  0  0  0
 12 18  2  0  0  0
 13 14  2  0  0  0
 14  1  1  0  0  0
 14 15  1  0  0  0
  1  2  2  0  0  0
  1  3  1  0  0  0
  3  4  1  0  0  0
  3 11  1  0  0  0
  4  5  1  0  0  0
  5  6  1  0  0  0
  5 10  2  0  0  0
  6  7  2  0  0  0
  7  8  1  0  0  0
  8 25  1  0  0  0
  8  9  2  0  0  0
 25 26  1  0  0  0
 26 27  1  0  0  0
 26 32  1  0  0  0
 27 28  1  0  0  0
 28 29  1  0  0  0
 29 30  1  0  0  0
 29 31  1  0  0  0
 31 32  1  0  0  0
  9 10  1  0  0  0
 10 11  1  0  0  0
 15 16  1  0  0  0
 15 17  2  0  0  0
 17 18  1  0  0  0
 18 19  1  0  0  0
 16 20  1  0  0  0
 19 21  1  0  0  0
M  END
> <minimizedAffinity>
-8.66169

$$$$
2XJX_XJX_A_1232


 32 35  0  0  0  0  0  0  0  0999 V2000
   15.8575   -4.1776    6.8198 C   0  0  0  0  0  0  0  0  0  0  0  0
   16.1416   -4.6890    7.8843 O   0  0  0  0  0  0  0  0  0  0  0  0
   15.1283   -3.0553    6.7420 N   0  0  0  0  0  0  0  0  0  0  0  0
   14.6970   -2.2922    7.9223 C   0  0  0  0  0  0  0  0  0  0  0  0
   14.3202   -0.9646    7.3268 C   0  0  0  0  0  0  0  0  0  0  0  0
   13.9167    0.2007    7.9668 C   0  0  0  0  0  0  0  0  0  0  0  0
   13.6043    1.3256    7.2245 C   0  0  0  0  0  0  0  0  0  0  0  0
   13.6880    1.3012    5.8354 C   0  0  0  0  0  0  0  0  0  0  0  0
   14.0964    0.1243    5.2144 C   0  0  0  0  0  0  0  0  0  0  0  0
   14.4134   -0.9971    5.9607 C   0  0  0  0  0  0  0  0  0  0  0  0
   14.8349   -2.3588    5.4809 C   0  0  0  0  0  0  0  0  0  0  0  0
   17.9887   -5.4369    3.9523 C   0  0  0  0  0  0  0  0  0  0  0  0
   17.5791   -4.8008    5.1232 C   0  0  0  0  0  0  0  0  0  0  0  0
   16.2495   -4.8474    5.5492 C   0  0  0  0  0  0  0  0  0  0  0  0
   15.3063   -5.5212    4.7940 C   0  0  0  0  0  0  0  0  0  0  0  0
   14.0030   -5.5575    5.2180 O   0  0  0  0  0  0  0  0  0  0  0  0
   15.6833   -6.1395    3.6022 C   0  0  0  0  0  0  0  0  0  0  0  0
   17.0018   -6.0882    3.1788 C   0  0  0  0  0  0  0  0  0  0  0  0
   17.3266   -6.7332    2.0177 O   0  0  0  0  0  0  0  0  0  0  0  0
   13.7595   -5.1390    6.0203 H   0  0  0  0  0  0  0  0  0  0  0  0
   18.2095   -6.7175    1.7042 H   0  0  0  0  0  0  0  0  0  0  0  0
   19.7768   -3.8396    3.1740 C   0  0  0  0  0  0  0  0  0  0  0  0
   19.4240   -5.3072    3.4397 C   0  0  0  0  0  0  0  0  0  0  0  0
   20.4585   -5.9439    4.3613 C   0  0  0  0  0  0  0  0  0  0  0  0
   13.3291    2.5173    5.0169 C   0  0  0  0  0  0  0  0  0  0  0  0
   12.0927    2.3046    4.1777 N   0  0  0  0  0  0  0  0  0  0  0  0
   12.3864    1.4429    2.9842 C   0  0  0  0  0  0  0  0  0  0  0  0
   11.1372    1.2122    2.1463 C   0  0  0  0  0  0  0  0  0  0  0  0
   10.0716    0.5916    2.9895 N   0  0  0  0  0  0  0  0  0  0  0  0
    8.8588    0.2577    2.1854 C   0  0  0  0  0  0  0  0  0  0  0  0
    9.7402    1.4913    4.1363 C   0  0  0  0  0  0  0  0  0  0  0  0
   10.9779    1.7159    4.9906 C   0  0  0  0  0  0  0  0  0  0  0  0
 22 23  1  0  0  0
 23 24  1  0  0  0
 23 12  1  0  0  0
 12 13  1  0  0  0
 12 18  2  0  0  0
 13 14  2  0  0  0
 14  1  1  0  0  0
 14 15  1  0  0  0
  1  2  2  0  0  0
  1  3  1  0  0  0
  3  4  1  0  0  0
  3 11  1  0  0  0
  4  5  1  0  0  0
  5  6  1  0  0  0
  5 10  2  0  0  0
  6  7  2  0  0  0
  7  8  1  0  0  0
  8 25  1  0  0  0
  8  9  2  0  0  0
 25 26  1  0  0  0
 26 27  1  0  0  0
 26 32  1  0  0  0
 27 28  1  0  0  0
 28 29  1  0  0  0
 29 30  1  0  0  0
 29 31  1  0  0  0
 31 32  1  0  0  0
  9 10  1  0  0  0
 10 11  1  0  0  0
 15 16  1  0  0  0
 15 17  2  0  0  0
 17 18  1  0  0  0
 18 19  1  0  0  0
 16 20  1  0  0  0
 19 21  1  0  0  0
M  END
> <minimizedAffinity>
-8.12709

$$$$
2XJX_XJX_A_1232


 32 35  0  0  0  0  0  0  0  0999 V2000
   13.6711   -0.1534    8.9630 C   0  0  0  0  0  0  0  0  0  0  0  0
   13.7642    0.6205    9.8946 O   0  0  0  0  0  0  0  0  0  0  0  0
   13.4743    0.2677    7.7055 N   0  0  0  0  0  0  0  0  0  0  0  0
   13.4556    1.6879    7.3258 C   0  0  0  0  0  0  0  0  0  0  0  0
   13.6406    1.6247    5.8356 C   0  0  0  0  0  0  0  0  0  0  0  0
   13.7902    2.6640    4.9257 C   0  0  0  0  0  0  0  0  0  0  0  0
   13.9424    2.3883    3.5786 C   0  0  0  0  0  0  0  0  0  0  0  0
   13.9446    1.0734    3.1223 C   0  0  0  0  0  0  0  0  0  0  0  0
   13.7954    0.0471    4.0509 C   0  0  0  0  0  0  0  0  0  0  0  0
   13.6491    0.3268    5.3982 C   0  0  0  0  0  0  0  0  0  0  0  0
   13.4411   -0.6289    6.5407 C   0  0  0  0  0  0  0  0  0  0  0  0
   14.6245   -3.8115    8.7179 C   0  0  0  0  0  0  0  0  0  0  0  0
   14.5615   -2.4372    8.4919 C   0  0  0  0  0  0  0  0  0  0  0  0
   13.6891   -1.6206    9.2154 C   0  0  0  0  0  0  0  0  0  0  0  0
   12.8529   -2.1767   10.1670 C   0  0  0  0  0  0  0  0  0  0  0  0
   11.9970   -1.3676   10.8688 O   0  0  0  0  0  0  0  0  0  0  0  0
   12.8735   -3.5531   10.3906 C   0  0  0  0  0  0  0  0  0  0  0  0
   13.7363   -4.3622    9.6686 C   0  0  0  0  0  0  0  0  0  0  0  0
   13.7383   -5.7016    9.9439 O   0  0  0  0  0  0  0  0  0  0  0  0
   11.9907   -0.4440   10.7113 H   0  0  0  0  0  0  0  0  0  0  0  0
   14.3100   -6.2758    9.4733 H   0  0  0  0  0  0  0  0  0  0  0  0
   15.8273   -4.0539    6.5158 C   0  0  0  0  0  0  0  0  0  0  0  0
   15.5124   -4.7161    7.8617 C   0  0  0  0  0  0  0  0  0  0  0  0
   16.8001   -5.1404    8.5593 C   0  0  0  0  0  0  0  0  0  0  0  0
   14.0891    0.7645    1.6522 C   0  0  0  0  0  0  0  0  0  0  0  0
   13.9865    1.9989    0.7897 N   0  0  0  0  0  0  0  0  0  0  0  0
   15.0977    2.0528   -0.2180 C   0  0  0  0  0  0  0  0  0  0  0  0
   14.9861    3.2876   -1.1006 C   0  0  0  0  0  0  0  0  0  0  0  0
   13.6584    3.2998   -1.7853 N   0  0  0  0  0  0  0  0  0  0  0  0
   13.5413    4.4438   -2.7376 C   0  0  0  0  0  0  0  0  0  0  0  0
   12.5612    3.3152   -0.7702 C   0  0  0  0  0  0  0  0  0  0  0  0
   12.6529    2.0769    0.1076 C   0  0  0  0  0  0  0  0  0  0  0  0
 22 23  1  0  0  0
 23 24  1  0  0  0
 23 12  1  0  0  0
 12 13  1  0  0  0
 12 18  2  0  0  0
 13 14  2  0  0  0
 14  1  1  0  0  0
 14 15  1  0  0  0
  1  2  2  0  0  0
  1  3  1  0  0  0
  3  4  1  0  0  0
  3 11  1  0  0  0
  4  5  1  0  0  0
  5  6  1  0  0  0
  5 10  2  0  0  0
  6  7  2  0  0  0
  7  8  1  0  0  0
  8 25  1  0  0  0
  8  9  2  0  0  0
 25 26  1  0  0  0
 26 27  1  0  0  0
 26 32  1  0  0  0
 27 28  1  0  0  0
 28 29  1  0  0  0
 29 30  1  0  0  0
 29 31  1  0  0  0
 31 32  1  0  0  0
  9 10  1  0  0  0
 10 11  1  0  0  0
 15 16  1  0  0  0
 15 17  2  0  0  0
 17 18  1  0  0  0
 18 19  1  0  0  0
 16 20  1  0  0  0
 19 21  1  0  0  0
M  END
> <minimizedAffinity>
-8.08976

$$$$
2XJX_XJX_A_1232


 32 35  0  0  0  0  0  0  0  0999 V2000
   13.9201   -0.1385    8.8509 C   0  0  0  0  0  0  0  0  0  0  0  0
   14.2020    0.6424    9.7376 O   0  0  0  0  0  0  0  0  0  0  0  0
   13.6267    0.2716    7.6087 N   0  0  0  0  0  0  0  0  0  0  0  0
   13.7170    1.6756    7.1821 C   0  0  0  0  0  0  0  0  0  0  0  0
   13.7220    1.5567    5.6838 C   0  0  0  0  0  0  0  0  0  0  0  0
   13.8769    2.5510    4.7258 C   0  0  0  0  0  0  0  0  0  0  0  0
   13.8431    2.2280    3.3810 C   0  0  0  0  0  0  0  0  0  0  0  0
   13.6517    0.9103    2.9755 C   0  0  0  0  0  0  0  0  0  0  0  0
   13.5008   -0.0706    3.9515 C   0  0  0  0  0  0  0  0  0  0  0  0
   13.5409    0.2557    5.2957 C   0  0  0  0  0  0  0  0  0  0  0  0
   13.3640   -0.6435    6.4882 C   0  0  0  0  0  0  0  0  0  0  0  0
   14.5687   -3.8695    8.7532 C   0  0  0  0  0  0  0  0  0  0  0  0
   14.6262   -2.5037    8.4796 C   0  0  0  0  0  0  0  0  0  0  0  0
   13.8093   -1.5922    9.1529 C   0  0  0  0  0  0  0  0  0  0  0  0
   12.9083   -2.0427   10.1012 C   0  0  0  0  0  0  0  0  0  0  0  0
   12.1078   -1.1409   10.7534 O   0  0  0  0  0  0  0  0  0  0  0  0
   12.8085   -3.4072   10.3715 C   0  0  0  0  0  0  0  0  0  0  0  0
   13.6163   -4.3104    9.6991 C   0  0  0  0  0  0  0  0  0  0  0  0
   13.4999   -5.6347   10.0193 O   0  0  0  0  0  0  0  0  0  0  0  0
   12.1824   -0.2261   10.5649 H   0  0  0  0  0  0  0  0  0  0  0  0
   14.0318   -6.2707    9.5829 H   0  0  0  0  0  0  0  0  0  0  0  0
   15.4109   -4.5041    6.4635 C   0  0  0  0  0  0  0  0  0  0  0  0
   15.3965   -4.8746    7.9506 C   0  0  0  0  0  0  0  0  0  0  0  0
   16.8203   -5.0420    8.4703 C   0  0  0  0  0  0  0  0  0  0  0  0
   13.5927    0.5522    1.5106 C   0  0  0  0  0  0  0  0  0  0  0  0
   12.2604   -0.0352    1.1127 N   0  0  0  0  0  0  0  0  0  0  0  0
   11.1470    0.9495    1.3217 C   0  0  0  0  0  0  0  0  0  0  0  0
    9.8050    0.3655    0.9044 C   0  0  0  0  0  0  0  0  0  0  0  0
    9.8636   -0.0615   -0.5260 N   0  0  0  0  0  0  0  0  0  0  0  0
    8.5386   -0.5525   -1.0081 C   0  0  0  0  0  0  0  0  0  0  0  0
   10.9308   -1.0924   -0.7072 C   0  0  0  0  0  0  0  0  0  0  0  0
   12.2797   -0.5145   -0.3085 C   0  0  0  0  0  0  0  0  0  0  0  0
 22 23  1  0  0  0
 23 24  1  0  0  0
 23 12  1  0  0  0
 12 13  1  0  0  0
 12 18  2  0  0  0
 13 14  2  0  0  0
 14  1  1  0  0  0
 14 15  1  0  0  0
  1  2  2  0  0  0
  1  3  1  0  0  0
  3  4  1  0  0  0
  3 11  1  0  0  0
  4  5  1  0  0  0
  5  6  1  0  0  0
  5 10  2  0  0  0
  6  7  2  0  0  0
  7  8  1  0  0  0
  8 25  1  0  0  0
  8  9  2  0  0  0
 25 26  1  0  0  0
 26 27  1  0  0  0
 26 32  1  0  0  0
 27 28  1  0  0  0
 28 29  1  0  0  0
 29 30  1  0  0  0
 29 31  1  0  0  0
 31 32  1  0  0  0
  9 10  1  0  0  0
 10 11  1  0  0  0
 15 16  1  0  0  0
 15 17  2  0  0  0
 17 18  1  0  0  0
 18 19  1  0  0  0
 16 20  1  0  0  0
 19 21  1  0  0  0
M  END
> <minimizedAffinity>
-7.64913

$$$$
2XJX_XJX_A_1232


 32 35  0  0  0  0  0  0  0  0999 V2000
   16.7141   -4.6931    6.0370 C   0  0  0  0  0  0  0  0  0  0  0  0
   16.8833   -5.3616    7.0370 O   0  0  0  0  0  0  0  0  0  0  0  0
   15.8866   -3.6385    6.0181 N   0  0  0  0  0  0  0  0  0  0  0  0
   15.1947   -3.1366    7.2143 C   0  0  0  0  0  0  0  0  0  0  0  0
   14.7713   -1.7594    6.7866 C   0  0  0  0  0  0  0  0  0  0  0  0
   14.1466   -0.7642    7.5282 C   0  0  0  0  0  0  0  0  0  0  0  0
   13.8317    0.4458    6.9362 C   0  0  0  0  0  0  0  0  0  0  0  0
   14.1334    0.6771    5.5973 C   0  0  0  0  0  0  0  0  0  0  0  0
   14.7611   -0.3324    4.8731 C   0  0  0  0  0  0  0  0  0  0  0  0
   15.0796   -1.5394    5.4704 C   0  0  0  0  0  0  0  0  0  0  0  0
   15.7186   -2.7542    4.8556 C   0  0  0  0  0  0  0  0  0  0  0  0
   17.1727   -5.9327    2.4868 C   0  0  0  0  0  0  0  0  0  0  0  0
   16.5963   -5.5743    3.7046 C   0  0  0  0  0  0  0  0  0  0  0  0
   17.3712   -5.0906    4.7615 C   0  0  0  0  0  0  0  0  0  0  0  0
   18.7421   -4.9757    4.6157 C   0  0  0  0  0  0  0  0  0  0  0  0
   19.4946   -4.5041    5.6603 O   0  0  0  0  0  0  0  0  0  0  0  0
   19.3478   -5.3570    3.4188 C   0  0  0  0  0  0  0  0  0  0  0  0
   18.5780   -5.8411    2.3731 C   0  0  0  0  0  0  0  0  0  0  0  0
   19.2157   -6.1758    1.2107 O   0  0  0  0  0  0  0  0  0  0  0  0
   19.0783   -4.2504    6.4605 H   0  0  0  0  0  0  0  0  0  0  0  0
   18.7237   -6.5061    0.4848 H   0  0  0  0  0  0  0  0  0  0  0  0
   15.0510   -7.1707    1.9211 C   0  0  0  0  0  0  0  0  0  0  0  0
   16.3361   -6.5485    1.3641 C   0  0  0  0  0  0  0  0  0  0  0  0
   16.0092   -5.5689    0.2422 C   0  0  0  0  0  0  0  0  0  0  0  0
   13.7746    1.9864    4.9380 C   0  0  0  0  0  0  0  0  0  0  0  0
   12.4468    1.9283    4.2227 N   0  0  0  0  0  0  0  0  0  0  0  0
   12.5060    1.0073    3.0389 C   0  0  0  0  0  0  0  0  0  0  0  0
   11.1632    0.9333    2.3265 C   0  0  0  0  0  0  0  0  0  0  0  0
   10.1080    0.4859    3.2846 N   0  0  0  0  0  0  0  0  0  0  0  0
    8.7902    0.3053    2.6063 C   0  0  0  0  0  0  0  0  0  0  0  0
   10.0122    1.4486    4.4240 C   0  0  0  0  0  0  0  0  0  0  0  0
   11.3445    1.5186    5.1539 C   0  0  0  0  0  0  0  0  0  0  0  0
 22 23  1  0  0  0
 23 24  1  0  0  0
 23 12  1  0  0  0
 12 13  1  0  0  0
 12 18  2  0  0  0
 13 14  2  0  0  0
 14  1  1  0  0  0
 14 15  1  0  0  0
  1  2  2  0  0  0
  1  3  1  0  0  0
  3  4  1  0  0  0
  3 11  1  0  0  0
  4  5  1  0  0  0
  5  6  1  0  0  0
  5 10  2  0  0  0
  6  7  2  0  0  0
  7  8  1  0  0  0
  8 25  1  0  0  0
  8  9  2  0  0  0
 25 26  1  0  0  0
 26 27  1  0  0  0
 26 32  1  0  0  0
 27 28  1  0  0  0
 28 29  1  0  0  0
 29 30  1  0  0  0
 29 31  1  0  0  0
 31 32  1  0  0  0
  9 10  1  0  0  0
 10 11  1  0  0  0
 15 16  1  0  0  0
 15 17  2  0  0  0
 17 18  1  0  0  0
 18 19  1  0  0  0
 16 20  1  0  0  0
 19 21  1  0  0  0
M  END
> <minimizedAffinity>
-7.62492

$$$$
