3KGU_GEN_A_3071
  RCSB PDB12061709263D
Coordinates from PDB:3KGU:A:3071 Model:1 without hydrogens
 20 22  0  0  0  0            999 V2000
   -0.8920    0.4980   -2.5460   C 0  0  0  0  0  0  0  0  0  0  0  0
    0.0280   -0.0750   -1.6780   C 0  0  0  0  0  0  0  0  0  0  0  0
   -0.1520    0.0340   -0.3340   O 0  0  0  0  0  0  0  0  0  0  0  0
    1.1220   -0.7650   -2.1840   C 0  0  0  0  0  0  0  0  0  0  0  0
    1.3000   -0.8730   -3.5580   C 0  0  0  0  0  0  0  0  0  0  0  0
    2.3770   -1.5490   -4.0480   O 0  0  0  0  0  0  0  0  0  0  0  0
    0.3760   -0.2970   -4.4240   C 0  0  0  0  0  0  0  0  0  0  0  0
    0.5490   -0.4020   -5.7940   C 0  0  0  0  0  0  0  0  0  0  0  0
    1.5170   -0.9970   -6.2650   O 0  0  0  0  0  0  0  0  0  0  0  0
   -0.3770    0.1900   -6.6300   C 0  0  0  0  0  0  0  0  0  0  0  0
   -1.4620    0.8580   -6.0810   C 0  0  0  0  0  0  0  0  0  0  0  0
   -1.6540    0.9730   -4.7330   O 0  0  0  0  0  0  0  0  0  0  0  0
   -0.7230    0.3920   -3.9200   C 0  0  0  0  0  0  0  0  0  0  0  0
   -0.2280    0.1090   -8.0100   C 0  0  0  0  0  0  0  0  0  0  0  0
   -0.1090    1.2690   -8.7670   C 0  0  0  0  0  0  0  0  0  0  0  0
    0.0380    1.1870  -10.1450   C 0  0  0  0  0  0  0  0  0  0  0  0
    0.0710   -0.0560  -10.7680   C 0  0  0  0  0  0  0  0  0  0  0  0
    0.2180   -0.1400  -12.1220   O 0  0  0  0  0  0  0  0  0  0  0  0
   -0.0450   -1.2160  -10.0100   C 0  0  0  0  0  0  0  0  0  0  0  0
   -0.1970   -1.1330   -8.6320   C 0  0  0  0  0  0  0  0  0  0  0  0
  1  2  2  0  0  0  0
  1 13  1  0  0  0  0
  2  3  1  0  0  0  0
  2  4  1  0  0  0  0
  4  5  2  0  0  0  0
  5  6  1  0  0  0  0
  5  7  1  0  0  0  0
  7  8  1  0  0  0  0
  7 13  2  0  0  0  0
  8  9  2  0  0  0  0
  8 10  1  0  0  0  0
 10 11  2  0  0  0  0
 10 14  1  0  0  0  0
 11 12  1  0  0  0  0
 12 13  1  0  0  0  0
 14 15  2  0  0  0  0
 14 20  1  0  0  0  0
 15 16  1  0  0  0  0
 16 17  2  0  0  0  0
 17 18  1  0  0  0  0
 17 19  1  0  0  0  0
 19 20  2  0  0  0  0
A    1
C1
A    2
C2
A    3
O2
A    4
C3
A    5
C4
A    6
O4
A    7
C5
A    8
C6
A    9
O6
A   10
C7
A   11
C8
A   12
O9
A   13
C10
A   14
C11
A   15
C12
A   16
C13
A   17
C14
A   18
O14
A   19
C15
A   20
C16
M  END
>  <InstanceId>
3KGU_GEN_A_3071

>  <ChemCompId>
GEN

>  <PdbId>
3KGU

>  <ChainId>
A

>  <ResidueNumber>
3071

>  <InsertionCode>


>  <Model>
1

>  <AltIds>


>  <MissingHeavyAtoms>
0

>  <ObservedFormula>
C15 O5

>  <Name>
GENISTEIN

>  <SystematicName>
5,7-dihydroxy-3-(4-hydroxyphenyl)chromen-4-one

>  <Synonyms>
5,7-DIHYDROXY-3-(4-HYDROXYPHENYL)-4H-1-BENZOPYRAN-4-ONE; 4',5,7-TRIHYDROXYISOFLAVONE; PRUNETOL; GENISTEOL

>  <Type>
NON-POLYMER

>  <Formula>
C15 H10 O5

>  <MolecularWeight>
270.237

>  <ModifiedDate>
2011-06-04

>  <Parent>


>  <OneLetterCode>


>  <SubcomponentList>


>  <AmbiguousFlag>
N

>  <InChI>
InChI=1S/C15H10O5/c16-9-3-1-8(2-4-9)11-7-20-13-6-10(17)5-12(18)14(13)15(11)19/h1-7,16-18H

>  <InChIKey>
TZBJGXHYKVUXJN-UHFFFAOYSA-N

>  <SMILES>
c1cc(ccc1C2=COc3cc(cc(c3C2=O)O)O)O

$$$$
