6EIZ_FOH_F_101


 17 16  0  0  0  0  0  0  0  0999 V2000
   78.2923  402.8011  118.0429 C   0  0  0  0  0  0  0  0  0  0  0  0
   78.9639  401.5595  117.5714 C   0  0  0  0  0  0  0  0  0  0  0  0
   76.9729  402.8583  118.2777 C   0  0  0  0  0  0  0  0  0  0  0  0
   79.1966  403.9328  118.4241 C   0  0  0  0  0  0  0  0  0  0  0  0
   78.5799  404.5862  119.6823 C   0  0  0  0  0  0  0  0  0  0  0  0
   78.1202  408.3994  119.9541 C   0  0  0  0  0  0  0  0  0  0  0  0
   77.9319  406.9354  119.6053 C   0  0  0  0  0  0  0  0  0  0  0  0
   76.5478  406.4012  119.5182 C   0  0  0  0  0  0  0  0  0  0  0  0
   78.9241  406.0451  119.7557 C   0  0  0  0  0  0  0  0  0  0  0  0
   76.0211  401.7492  117.9433 C   0  0  0  0  0  0  0  0  0  0  0  0
   75.5701  400.9752  119.2552 C   0  0  0  0  0  0  0  0  0  0  0  0
   76.5755  399.9034  119.6108 C   0  0  0  0  0  0  0  0  0  0  0  0
   77.4724  400.2411  120.7301 C   0  0  0  0  0  0  0  0  0  0  0  0
   76.7973  398.8041  118.8495 C   0  0  0  0  0  0  0  0  0  0  0  0
   77.9220  397.8322  119.2112 C   0  0  0  0  0  0  0  0  0  0  0  0
   77.3849  396.6919  119.8999 O   0  0  0  0  0  0  0  0  0  0  0  0
   76.9460  396.9832  120.7143 H   0  0  0  0  0  0  0  0  0  0  0  0
  6  7  1  0  0  0
  7  8  1  0  0  0
  7  9  2  0  0  0
  9  5  1  0  0  0
  5  4  1  0  0  0
  4  1  1  0  0  0
  1  2  1  0  0  0
  1  3  2  0  0  0
  3 10  1  0  0  0
 10 11  1  0  0  0
 11 12  1  0  0  0
 12 13  1  0  0  0
 12 14  2  0  0  0
 14 15  1  0  0  0
 15 16  1  0  0  0
 16 17  1  0  0  0
M  END
> <minimizedAffinity>
-6.69890

$$$$
6EIZ_FOH_F_101


 17 16  0  0  0  0  0  0  0  0999 V2000
   76.7071  400.3293  118.0810 C   0  0  0  0  0  0  0  0  0  0  0  0
   77.6293  400.9540  117.0940 C   0  0  0  0  0  0  0  0  0  0  0  0
   76.9428  399.1240  118.6204 C   0  0  0  0  0  0  0  0  0  0  0  0
   75.5971  401.1997  118.5851 C   0  0  0  0  0  0  0  0  0  0  0  0
   75.9449  401.5553  120.0490 C   0  0  0  0  0  0  0  0  0  0  0  0
   78.7331  404.1938  120.3498 C   0  0  0  0  0  0  0  0  0  0  0  0
   77.8965  402.9397  120.5171 C   0  0  0  0  0  0  0  0  0  0  0  0
   78.5965  401.6403  120.6911 C   0  0  0  0  0  0  0  0  0  0  0  0
   76.6116  402.8971  120.1339 C   0  0  0  0  0  0  0  0  0  0  0  0
   78.0530  398.2189  118.1774 C   0  0  0  0  0  0  0  0  0  0  0  0
   78.2382  397.0111  119.1927 C   0  0  0  0  0  0  0  0  0  0  0  0
   78.4018  395.7084  118.4430 C   0  0  0  0  0  0  0  0  0  0  0  0
   77.9590  395.7414  117.0380 C   0  0  0  0  0  0  0  0  0  0  0  0
   78.7273  394.5368  119.0419 C   0  0  0  0  0  0  0  0  0  0  0  0
   78.7471  393.2386  118.2326 C   0  0  0  0  0  0  0  0  0  0  0  0
   78.6126  392.1094  119.1100 O   0  0  0  0  0  0  0  0  0  0  0  0
   79.3504  392.0996  119.7397 H   0  0  0  0  0  0  0  0  0  0  0  0
  6  7  1  0  0  0
  7  8  1  0  0  0
  7  9  2  0  0  0
  9  5  1  0  0  0
  5  4  1  0  0  0
  4  1  1  0  0  0
  1  2  1  0  0  0
  1  3  2  0  0  0
  3 10  1  0  0  0
 10 11  1  0  0  0
 11 12  1  0  0  0
 12 13  1  0  0  0
 12 14  2  0  0  0
 14 15  1  0  0  0
 15 16  1  0  0  0
 16 17  1  0  0  0
M  END
> <minimizedAffinity>
-6.42945

$$$$
6EIZ_FOH_F_101


 17 16  0  0  0  0  0  0  0  0999 V2000
   77.2175  392.6136  119.4043 C   0  0  0  0  0  0  0  0  0  0  0  0
   76.7115  391.2521  119.7283 C   0  0  0  0  0  0  0  0  0  0  0  0
   78.3189  392.8127  118.6649 C   0  0  0  0  0  0  0  0  0  0  0  0
   76.3256  393.7543  119.7878 C   0  0  0  0  0  0  0  0  0  0  0  0
   76.1557  394.6267  118.5228 C   0  0  0  0  0  0  0  0  0  0  0  0
   76.8908  398.4032  118.3687 C   0  0  0  0  0  0  0  0  0  0  0  0
   77.0282  396.8937  118.3129 C   0  0  0  0  0  0  0  0  0  0  0  0
   77.9146  396.3018  117.2773 C   0  0  0  0  0  0  0  0  0  0  0  0
   76.1171  396.0850  118.8748 C   0  0  0  0  0  0  0  0  0  0  0  0
   79.2360  391.7100  118.2278 C   0  0  0  0  0  0  0  0  0  0  0  0
   79.0554  391.4036  116.6795 C   0  0  0  0  0  0  0  0  0  0  0  0
   77.9977  390.3441  116.4683 C   0  0  0  0  0  0  0  0  0  0  0  0
   76.7059  390.8478  115.9694 C   0  0  0  0  0  0  0  0  0  0  0  0
   78.1275  389.0631  116.8920 C   0  0  0  0  0  0  0  0  0  0  0  0
   76.9591  388.0851  116.7540 C   0  0  0  0  0  0  0  0  0  0  0  0
   76.4276  387.7670  118.0499 O   0  0  0  0  0  0  0  0  0  0  0  0
   77.1199  387.3566  118.5914 H   0  0  0  0  0  0  0  0  0  0  0  0
  6  7  1  0  0  0
  7  8  1  0  0  0
  7  9  2  0  0  0
  9  5  1  0  0  0
  5  4  1  0  0  0
  4  1  1  0  0  0
  1  2  1  0  0  0
  1  3  2  0  0  0
  3 10  1  0  0  0
 10 11  1  0  0  0
 11 12  1  0  0  0
 12 13  1  0  0  0
 12 14  2  0  0  0
 14 15  1  0  0  0
 15 16  1  0  0  0
 16 17  1  0  0  0
M  END
> <minimizedAffinity>
-6.41097

$$$$
6EIZ_FOH_F_101


 17 16  0  0  0  0  0  0  0  0999 V2000
   77.6761  392.8977  116.7893 C   0  0  0  0  0  0  0  0  0  0  0  0
   78.1408  391.6519  116.1209 C   0  0  0  0  0  0  0  0  0  0  0  0
   76.5559  392.9418  117.5260 C   0  0  0  0  0  0  0  0  0  0  0  0
   78.6255  394.0558  116.7535 C   0  0  0  0  0  0  0  0  0  0  0  0
   78.4134  394.8415  118.0680 C   0  0  0  0  0  0  0  0  0  0  0  0
   77.7652  398.6368  118.1099 C   0  0  0  0  0  0  0  0  0  0  0  0
   77.5861  397.1342  118.0067 C   0  0  0  0  0  0  0  0  0  0  0  0
   76.3189  396.5370  118.5030 C   0  0  0  0  0  0  0  0  0  0  0  0
   78.6351  396.3110  117.8594 C   0  0  0  0  0  0  0  0  0  0  0  0
   75.5807  391.8071  117.6230 C   0  0  0  0  0  0  0  0  0  0  0  0
   75.6935  391.0824  119.0322 C   0  0  0  0  0  0  0  0  0  0  0  0
   76.7737  390.0250  118.9998 C   0  0  0  0  0  0  0  0  0  0  0  0
   78.0115  390.3806  119.7158 C   0  0  0  0  0  0  0  0  0  0  0  0
   76.7184  388.9234  118.2119 C   0  0  0  0  0  0  0  0  0  0  0  0
   77.9106  387.9673  118.1417 C   0  0  0  0  0  0  0  0  0  0  0  0
   78.1066  387.5232  116.7899 O   0  0  0  0  0  0  0  0  0  0  0  0
   77.3118  387.0590  116.4836 H   0  0  0  0  0  0  0  0  0  0  0  0
  6  7  1  0  0  0
  7  8  1  0  0  0
  7  9  2  0  0  0
  9  5  1  0  0  0
  5  4  1  0  0  0
  4  1  1  0  0  0
  1  2  1  0  0  0
  1  3  2  0  0  0
  3 10  1  0  0  0
 10 11  1  0  0  0
 11 12  1  0  0  0
 12 13  1  0  0  0
 12 14  2  0  0  0
 14 15  1  0  0  0
 15 16  1  0  0  0
 16 17  1  0  0  0
M  END
> <minimizedAffinity>
-6.37948

$$$$
6EIZ_FOH_F_101


 17 16  0  0  0  0  0  0  0  0999 V2000
   77.0016  399.8478  119.9264 C   0  0  0  0  0  0  0  0  0  0  0  0
   75.8490  400.5525  119.3022 C   0  0  0  0  0  0  0  0  0  0  0  0
   77.4319  398.6531  119.4940 C   0  0  0  0  0  0  0  0  0  0  0  0
   77.7773  400.6290  120.9422 C   0  0  0  0  0  0  0  0  0  0  0  0
   79.0615  401.1200  120.2351 C   0  0  0  0  0  0  0  0  0  0  0  0
   78.5531  404.2223  118.0118 C   0  0  0  0  0  0  0  0  0  0  0  0
   78.9628  402.8551  118.5251 C   0  0  0  0  0  0  0  0  0  0  0  0
   78.9681  401.7143  117.5726 C   0  0  0  0  0  0  0  0  0  0  0  0
   78.9386  402.5608  119.8337 C   0  0  0  0  0  0  0  0  0  0  0  0
   76.7145  397.8362  118.4615 C   0  0  0  0  0  0  0  0  0  0  0  0
   77.7360  397.2412  117.4002 C   0  0  0  0  0  0  0  0  0  0  0  0
   77.6847  395.7302  117.4041 C   0  0  0  0  0  0  0  0  0  0  0  0
   76.3292  395.1553  117.3465 C   0  0  0  0  0  0  0  0  0  0  0  0
   78.7624  394.9460  117.6513 C   0  0  0  0  0  0  0  0  0  0  0  0
   78.6001  393.4290  117.7643 C   0  0  0  0  0  0  0  0  0  0  0  0
   78.5241  393.0435  119.1458 O   0  0  0  0  0  0  0  0  0  0  0  0
   79.3389  393.3081  119.6007 H   0  0  0  0  0  0  0  0  0  0  0  0
  6  7  1  0  0  0
  7  8  1  0  0  0
  7  9  2  0  0  0
  9  5  1  0  0  0
  5  4  1  0  0  0
  4  1  1  0  0  0
  1  2  1  0  0  0
  1  3  2  0  0  0
  3 10  1  0  0  0
 10 11  1  0  0  0
 11 12  1  0  0  0
 12 13  1  0  0  0
 12 14  2  0  0  0
 14 15  1  0  0  0
 15 16  1  0  0  0
 16 17  1  0  0  0
M  END
> <minimizedAffinity>
-6.37901

$$$$
6EIZ_FOH_F_101


 17 16  0  0  0  0  0  0  0  0999 V2000
   77.0069  396.3597  118.3805 C   0  0  0  0  0  0  0  0  0  0  0  0
   75.9403  395.3692  118.6908 C   0  0  0  0  0  0  0  0  0  0  0  0
   78.0835  396.0477  117.6437 C   0  0  0  0  0  0  0  0  0  0  0  0
   76.7225  397.7765  118.7750 C   0  0  0  0  0  0  0  0  0  0  0  0
   77.8925  398.6292  118.2326 C   0  0  0  0  0  0  0  0  0  0  0  0
   79.2654  401.8198  119.8944 C   0  0  0  0  0  0  0  0  0  0  0  0
   78.9730  400.7094  118.9034 C   0  0  0  0  0  0  0  0  0  0  0  0
   78.8772  401.0553  117.4613 C   0  0  0  0  0  0  0  0  0  0  0  0
   78.4268  399.5475  119.2925 C   0  0  0  0  0  0  0  0  0  0  0  0
   78.4078  394.6540  117.1960 C   0  0  0  0  0  0  0  0  0  0  0  0
   79.3443  393.9239  118.2512 C   0  0  0  0  0  0  0  0  0  0  0  0
   78.8304  392.5322  118.5430 C   0  0  0  0  0  0  0  0  0  0  0  0
   79.0537  391.5503  117.4673 C   0  0  0  0  0  0  0  0  0  0  0  0
   78.0413  392.2337  119.6039 C   0  0  0  0  0  0  0  0  0  0  0  0
   77.4578  390.8278  119.7570 C   0  0  0  0  0  0  0  0  0  0  0  0
   76.0723  390.8259  119.3785 O   0  0  0  0  0  0  0  0  0  0  0  0
   75.5800  391.4355  119.9503 H   0  0  0  0  0  0  0  0  0  0  0  0
  6  7  1  0  0  0
  7  8  1  0  0  0
  7  9  2  0  0  0
  9  5  1  0  0  0
  5  4  1  0  0  0
  4  1  1  0  0  0
  1  2  1  0  0  0
  1  3  2  0  0  0
  3 10  1  0  0  0
 10 11  1  0  0  0
 11 12  1  0  0  0
 12 13  1  0  0  0
 12 14  2  0  0  0
 14 15  1  0  0  0
 15 16  1  0  0  0
 16 17  1  0  0  0
M  END
> <minimizedAffinity>
-6.32161

$$$$
6EIZ_FOH_F_101


 17 16  0  0  0  0  0  0  0  0999 V2000
   78.7927  400.6510  118.6526 C   0  0  0  0  0  0  0  0  0  0  0  0
   79.1295  400.9767  120.0652 C   0  0  0  0  0  0  0  0  0  0  0  0
   78.1807  399.5089  118.3059 C   0  0  0  0  0  0  0  0  0  0  0  0
   79.0022  401.7506  117.6572 C   0  0  0  0  0  0  0  0  0  0  0  0
   77.6091  402.3555  117.3678 C   0  0  0  0  0  0  0  0  0  0  0  0
   76.9633  405.6774  119.2046 C   0  0  0  0  0  0  0  0  0  0  0  0
   76.8229  404.2702  118.6563 C   0  0  0  0  0  0  0  0  0  0  0  0
   76.1573  403.2448  119.5014 C   0  0  0  0  0  0  0  0  0  0  0  0
   77.5924  403.8294  117.6497 C   0  0  0  0  0  0  0  0  0  0  0  0
   77.9190  398.3837  119.2617 C   0  0  0  0  0  0  0  0  0  0  0  0
   76.6991  397.4937  118.7684 C   0  0  0  0  0  0  0  0  0  0  0  0
   77.1984  396.2637  118.0447 C   0  0  0  0  0  0  0  0  0  0  0  0
   76.1450  395.4282  117.4418 C   0  0  0  0  0  0  0  0  0  0  0  0
   78.4804  395.8277  118.1081 C   0  0  0  0  0  0  0  0  0  0  0  0
   78.8757  394.5035  117.4519 C   0  0  0  0  0  0  0  0  0  0  0  0
   79.0229  393.4831  118.4521 O   0  0  0  0  0  0  0  0  0  0  0  0
   79.7153  393.7430  119.0797 H   0  0  0  0  0  0  0  0  0  0  0  0
  6  7  1  0  0  0
  7  8  1  0  0  0
  7  9  2  0  0  0
  9  5  1  0  0  0
  5  4  1  0  0  0
  4  1  1  0  0  0
  1  2  1  0  0  0
  1  3  2  0  0  0
  3 10  1  0  0  0
 10 11  1  0  0  0
 11 12  1  0  0  0
 12 13  1  0  0  0
 12 14  2  0  0  0
 14 15  1  0  0  0
 15 16  1  0  0  0
 16 17  1  0  0  0
M  END
> <minimizedAffinity>
-6.29820

$$$$
6EIZ_FOH_F_101


 17 16  0  0  0  0  0  0  0  0999 V2000
   76.4638  401.7419  119.1469 C   0  0  0  0  0  0  0  0  0  0  0  0
   76.8509  401.6008  120.5770 C   0  0  0  0  0  0  0  0  0  0  0  0
   76.2452  400.6818  118.3547 C   0  0  0  0  0  0  0  0  0  0  0  0
   76.1455  403.1314  118.6867 C   0  0  0  0  0  0  0  0  0  0  0  0
   76.4249  404.0682  119.8845 C   0  0  0  0  0  0  0  0  0  0  0  0
   77.4579  407.6540  118.9352 C   0  0  0  0  0  0  0  0  0  0  0  0
   77.3942  406.2853  119.5859 C   0  0  0  0  0  0  0  0  0  0  0  0
   78.6692  405.6199  119.9603 C   0  0  0  0  0  0  0  0  0  0  0  0
   76.3053  405.5088  119.4815 C   0  0  0  0  0  0  0  0  0  0  0  0
   76.5186  399.2665  118.7673 C   0  0  0  0  0  0  0  0  0  0  0  0
   77.7864  398.6890  118.0038 C   0  0  0  0  0  0  0  0  0  0  0  0
   77.6788  397.1881  117.8568 C   0  0  0  0  0  0  0  0  0  0  0  0
   76.3110  396.6507  117.9642 C   0  0  0  0  0  0  0  0  0  0  0  0
   78.7516  396.3598  117.8381 C   0  0  0  0  0  0  0  0  0  0  0  0
   78.5521  394.8431  117.8159 C   0  0  0  0  0  0  0  0  0  0  0  0
   78.7340  394.3032  119.1344 O   0  0  0  0  0  0  0  0  0  0  0  0
   79.6328  394.4985  119.4426 H   0  0  0  0  0  0  0  0  0  0  0  0
  6  7  1  0  0  0
  7  8  1  0  0  0
  7  9  2  0  0  0
  9  5  1  0  0  0
  5  4  1  0  0  0
  4  1  1  0  0  0
  1  2  1  0  0  0
  1  3  2  0  0  0
  3 10  1  0  0  0
 10 11  1  0  0  0
 11 12  1  0  0  0
 12 13  1  0  0  0
 12 14  2  0  0  0
 14 15  1  0  0  0
 15 16  1  0  0  0
 16 17  1  0  0  0
M  END
> <minimizedAffinity>
-6.28106

$$$$
6EIZ_FOH_F_101


 17 16  0  0  0  0  0  0  0  0999 V2000
   77.7081  399.7038  119.5651 C   0  0  0  0  0  0  0  0  0  0  0  0
   78.7692  400.6844  119.9219 C   0  0  0  0  0  0  0  0  0  0  0  0
   76.4238  400.0599  119.4128 C   0  0  0  0  0  0  0  0  0  0  0  0
   78.1796  398.3302  119.1981 C   0  0  0  0  0  0  0  0  0  0  0  0
   76.9367  397.5534  118.7063 C   0  0  0  0  0  0  0  0  0  0  0  0
   76.2836  393.8521  119.5431 C   0  0  0  0  0  0  0  0  0  0  0  0
   76.2519  395.2206  118.8898 C   0  0  0  0  0  0  0  0  0  0  0  0
   76.1120  395.2960  117.4121 C   0  0  0  0  0  0  0  0  0  0  0  0
   76.7233  396.3087  119.5170 C   0  0  0  0  0  0  0  0  0  0  0  0
   75.8968  401.4255  119.7373 C   0  0  0  0  0  0  0  0  0  0  0  0
   75.8456  402.3365  118.4369 C   0  0  0  0  0  0  0  0  0  0  0  0
   76.5438  403.6545  118.6848 C   0  0  0  0  0  0  0  0  0  0  0  0
   77.7438  403.8854  117.8613 C   0  0  0  0  0  0  0  0  0  0  0  0
   76.2391  404.4798  119.7160 C   0  0  0  0  0  0  0  0  0  0  0  0
   77.0785  405.7328  119.9724 C   0  0  0  0  0  0  0  0  0  0  0  0
   76.4250  406.8852  119.4177 O   0  0  0  0  0  0  0  0  0  0  0  0
   76.3187  406.7674  118.4608 H   0  0  0  0  0  0  0  0  0  0  0  0
  6  7  1  0  0  0
  7  8  1  0  0  0
  7  9  2  0  0  0
  9  5  1  0  0  0
  5  4  1  0  0  0
  4  1  1  0  0  0
  1  2  1  0  0  0
  1  3  2  0  0  0
  3 10  1  0  0  0
 10 11  1  0  0  0
 11 12  1  0  0  0
 12 13  1  0  0  0
 12 14  2  0  0  0
 14 15  1  0  0  0
 15 16  1  0  0  0
 16 17  1  0  0  0
M  END
> <minimizedAffinity>
-6.27901

$$$$
6EIZ_FOH_F_101


 17 16  0  0  0  0  0  0  0  0999 V2000
   76.8185  399.9612  119.1270 C   0  0  0  0  0  0  0  0  0  0  0  0
   75.7805  400.9085  118.6371 C   0  0  0  0  0  0  0  0  0  0  0  0
   77.5967  400.2337  120.1851 C   0  0  0  0  0  0  0  0  0  0  0  0
   76.8209  398.6040  118.4930 C   0  0  0  0  0  0  0  0  0  0  0  0
   77.5820  397.6668  119.4588 C   0  0  0  0  0  0  0  0  0  0  0  0
   79.0100  394.4348  117.9288 C   0  0  0  0  0  0  0  0  0  0  0  0
   78.3389  395.4284  118.8577 C   0  0  0  0  0  0  0  0  0  0  0  0
   77.1650  394.9760  119.6488 C   0  0  0  0  0  0  0  0  0  0  0  0
   78.5034  396.7513  118.7071 C   0  0  0  0  0  0  0  0  0  0  0  0
   77.6197  401.5629  120.8784 C   0  0  0  0  0  0  0  0  0  0  0  0
   78.6640  402.5425  120.1904 C   0  0  0  0  0  0  0  0  0  0  0  0
   78.1551  403.9658  120.2198 C   0  0  0  0  0  0  0  0  0  0  0  0
   76.7042  404.1015  120.4387 C   0  0  0  0  0  0  0  0  0  0  0  0
   78.9081  405.0367  119.8681 C   0  0  0  0  0  0  0  0  0  0  0  0
   78.2801  406.4301  119.8016 C   0  0  0  0  0  0  0  0  0  0  0  0
   78.3805  406.9522  118.4673 O   0  0  0  0  0  0  0  0  0  0  0  0
   79.3147  407.0150  118.2141 H   0  0  0  0  0  0  0  0  0  0  0  0
  6  7  1  0  0  0
  7  8  1  0  0  0
  7  9  2  0  0  0
  9  5  1  0  0  0
  5  4  1  0  0  0
  4  1  1  0  0  0
  1  2  1  0  0  0
  1  3  2  0  0  0
  3 10  1  0  0  0
 10 11  1  0  0  0
 11 12  1  0  0  0
 12 13  1  0  0  0
 12 14  2  0  0  0
 14 15  1  0  0  0
 15 16  1  0  0  0
 16 17  1  0  0  0
M  END
> <minimizedAffinity>
-6.25699

$$$$
