6EIZ_FOH_F_101
  RCSB PDB07221819423D
Coordinates from PDB:6EIZ:F:101 Model:1 without hydrogens
 16 15  0  0  0  0            999 V2000
   78.0440  389.5600  117.4750   C 0  0  0  0  0  0  0  0  0  0  0  0
   77.4490  390.8830  117.9180   C 0  0  0  0  0  0  0  0  0  0  0  0
   75.9890  390.9470  118.1880   C 0  0  0  0  0  0  0  0  0  0  0  0
   78.0840  392.0450  117.7030   C 0  0  0  0  0  0  0  0  0  0  0  0
   77.3100  393.3170  117.8900   C 0  0  0  0  0  0  0  0  0  0  0  0
   78.2580  394.5120  118.1420   C 0  0  0  0  0  0  0  0  0  0  0  0
   77.3900  395.7250  118.2800   C 0  0  0  0  0  0  0  0  0  0  0  0
   75.9250  395.4740  118.3550   C 0  0  0  0  0  0  0  0  0  0  0  0
   77.9220  396.9380  118.4920   C 0  0  0  0  0  0  0  0  0  0  0  0
   77.1060  398.1840  118.6640   C 0  0  0  0  0  0  0  0  0  0  0  0
   78.0430  399.4550  118.8380   C 0  0  0  0  0  0  0  0  0  0  0  0
   77.2250  400.7260  118.8010   C 0  0  0  0  0  0  0  0  0  0  0  0
   75.9140  400.6010  118.1400   C 0  0  0  0  0  0  0  0  0  0  0  0
   77.7150  401.9410  119.1490   C 0  0  0  0  0  0  0  0  0  0  0  0
   76.8620  403.1970  118.9610   C 0  0  0  0  0  0  0  0  0  0  0  0
   77.6180  404.3640  119.3210   O 0  0  0  0  0  0  0  0  0  0  0  0
  1  2  1  0  0  0  0
  2  3  1  0  0  0  0
  2  4  2  0  0  0  0
  4  5  1  0  0  0  0
  5  6  1  0  0  0  0
  6  7  1  0  0  0  0
  7  8  1  0  0  0  0
  7  9  2  0  0  0  0
  9 10  1  0  0  0  0
 10 11  1  0  0  0  0
 11 12  1  0  0  0  0
 12 13  1  0  0  0  0
 12 14  2  0  0  0  0
 14 15  1  0  0  0  0
 15 16  1  0  0  0  0
A    1
C1
A    2
C2
A    3
C3
A    4
C4
A    5
C5
A    6
C6
A    7
C7
A    8
C8
A    9
C9
A   10
C10
A   11
C11
A   12
C12
A   13
C13
A   14
C14
A   15
C15
A   16
O1
M  END
>  <InstanceId>
6EIZ_FOH_F_101

>  <ChemCompId>
FOH

>  <PdbId>
6EIZ

>  <ChainId>
F

>  <ResidueNumber>
101

>  <InsertionCode>


>  <Model>
1

>  <AltIds>


>  <MissingHeavyAtoms>
0

>  <ObservedFormula>
C15 O

>  <Name>
FARNESOL

>  <SystematicName>
(2Z,6Z)-3,7,11-trimethyldodeca-2,6,10-trien-1-ol

>  <Synonyms>


>  <Type>
NON-POLYMER

>  <Formula>
C15 H26 O

>  <MolecularWeight>
222.366

>  <ModifiedDate>
2011-06-04

>  <Parent>


>  <OneLetterCode>


>  <SubcomponentList>


>  <AmbiguousFlag>
N

>  <InChI>
InChI=1S/C15H26O/c1-13(2)7-5-8-14(3)9-6-10-15(4)11-12-16/h7,9,11,16H,5-6,8,10,12H2,1-4H3/b14-9-,15-11-

>  <InChIKey>
CRDAMVZIKSXKFV-FBXUGWQNSA-N

>  <SMILES>
CC(=CCC/C(=C\CC/C(=C\CO)/C)/C)C

$$$$
