4RWJ_66T_A_801


 37 40  0  0  0  0  0  0  0  0999 V2000
  -17.3971   -5.6629   14.6673 O   0  0  0  0  0  0  0  0  0  0  0  0
  -18.5326   -7.1150   13.3426 N   0  0  0  0  0  0  0  0  0  0  0  0
  -17.4183   -6.4318   13.7259 C   0  0  0  0  0  0  0  0  0  0  0  0
  -18.4324   -7.7162   12.5695 H   0  0  0  0  0  0  0  0  0  0  0  0
  -21.2086   -6.3715   15.3673 N   0  0  0  0  0  0  0  0  0  0  0  0
  -19.9828   -6.2808   14.9692 N   0  0  0  0  0  0  0  0  0  0  0  0
  -19.7736   -7.0592   13.9111 C   0  0  0  0  0  0  0  0  0  0  0  0
  -20.9076   -7.6814   13.6148 C   0  0  0  0  0  0  0  0  0  0  0  0
  -21.8025   -7.2542   14.5200 C   0  0  0  0  0  0  0  0  0  0  0  0
  -19.2977   -5.7134   15.3911 H   0  0  0  0  0  0  0  0  0  0  0  0
  -23.2534   -7.5893   14.7089 C   0  0  0  0  0  0  0  0  0  0  0  0
  -23.4946   -8.9967   15.2025 C   0  0  0  0  0  0  0  0  0  0  0  0
  -24.3501   -9.6950   14.1695 C   0  0  0  0  0  0  0  0  0  0  0  0
  -24.0070   -9.6122   12.8236 C   0  0  0  0  0  0  0  0  0  0  0  0
  -24.7758  -10.2448   11.8564 C   0  0  0  0  0  0  0  0  0  0  0  0
  -25.9069  -10.9732   12.2345 C   0  0  0  0  0  0  0  0  0  0  0  0
  -26.2430  -11.0541   13.5731 C   0  0  0  0  0  0  0  0  0  0  0  0
  -25.4714  -10.4203   14.5402 C   0  0  0  0  0  0  0  0  0  0  0  0
  -27.3270  -11.7466   14.0014 O   0  0  0  0  0  0  0  0  0  0  0  0
  -28.5111  -11.6766   13.1920 C   0  0  0  0  0  0  0  0  0  0  0  0
  -24.3817  -10.1179   10.5741 O   0  0  0  0  0  0  0  0  0  0  0  0
  -24.8491  -11.0725    9.6075 C   0  0  0  0  0  0  0  0  0  0  0  0
  -13.8450   -6.9247   11.3851 C   0  0  0  0  0  0  0  0  0  0  0  0
  -14.6335   -8.0561   11.6741 C   0  0  0  0  0  0  0  0  0  0  0  0
  -15.7968   -7.9202   12.4342 C   0  0  0  0  0  0  0  0  0  0  0  0
  -16.1881   -6.6711   12.9111 C   0  0  0  0  0  0  0  0  0  0  0  0
  -15.3944   -5.5763   12.6083 C   0  0  0  0  0  0  0  0  0  0  0  0
  -14.2367   -5.6899   11.8581 C   0  0  0  0  0  0  0  0  0  0  0  0
   -9.2780   -8.5969   10.5327 C   0  0  0  0  0  0  0  0  0  0  0  0
  -12.7081   -7.0139   10.6444 N   0  0  0  0  0  0  0  0  0  0  0  0
  -10.3856   -7.5443   10.3895 C   0  0  0  0  0  0  0  0  0  0  0  0
  -10.3369   -6.9200    9.0567 N   0  0  0  0  0  0  0  0  0  0  0  0
  -11.7853   -8.1514   10.6278 C   0  0  0  0  0  0  0  0  0  0  0  0
  -12.6768   -6.1524    9.3907 C   0  0  0  0  0  0  0  0  0  0  0  0
  -11.2498   -5.7733    8.9391 C   0  0  0  0  0  0  0  0  0  0  0  0
  -11.2737   -5.2045    7.5047 C   0  0  0  0  0  0  0  0  0  0  0  0
  -10.5960   -7.6175    8.3590 H   0  0  0  0  0  0  0  0  0  0  0  0
 29 31  1  0  0  0
 30 33  1  0  0  0
 30 34  1  0  0  0
 30 23  1  0  0  0
  1  3  2  0  0  0
 31 32  1  0  0  0
 31 33  1  0  0  0
 32 35  1  0  0  0
 19 17  1  0  0  0
 19 20  1  0  0  0
  2  3  1  0  0  0
  2  7  1  0  0  0
 21 15  1  0  0  0
 21 22  1  0  0  0
 34 35  1  0  0  0
  5  6  1  0  0  0
  5  9  2  0  0  0
 35 36  1  0  0  0
  6  7  1  0  0  0
 23 24  2  0  0  0
 23 28  1  0  0  0
 24 25  1  0  0  0
 25 26  2  0  0  0
 26 27  1  0  0  0
 26  3  1  0  0  0
 27 28  2  0  0  0
  7  8  2  0  0  0
  8  9  1  0  0  0
  9 11  1  0  0  0
 11 12  1  0  0  0
 12 13  1  0  0  0
 13 14  2  0  0  0
 13 18  1  0  0  0
 14 15  1  0  0  0
 15 16  2  0  0  0
 16 17  1  0  0  0
 17 18  2  0  0  0
 32 37  1  0  0  0
  2  4  1  0  0  0
  6 10  1  0  0  0
M  END
> <minimizedAffinity>
-10.24925

$$$$
4RWJ_66T_A_801


 37 40  0  0  0  0  0  0  0  0999 V2000
  -20.7901   -7.8250   12.4158 O   0  0  0  0  0  0  0  0  0  0  0  0
  -19.3943   -7.3731   14.1479 N   0  0  0  0  0  0  0  0  0  0  0  0
  -20.6239   -7.5151   13.5795 C   0  0  0  0  0  0  0  0  0  0  0  0
  -19.3790   -7.1254   15.1006 H   0  0  0  0  0  0  0  0  0  0  0  0
  -16.5740   -8.7073   12.7059 N   0  0  0  0  0  0  0  0  0  0  0  0
  -17.7394   -8.7589   13.2614 N   0  0  0  0  0  0  0  0  0  0  0  0
  -18.1799   -7.5359   13.5437 C   0  0  0  0  0  0  0  0  0  0  0  0
  -17.2618   -6.6582   13.1593 C   0  0  0  0  0  0  0  0  0  0  0  0
  -16.2614   -7.3855   12.6369 C   0  0  0  0  0  0  0  0  0  0  0  0
  -18.2335   -9.5893   13.4499 H   0  0  0  0  0  0  0  0  0  0  0  0
  -14.9504   -6.9725   12.0338 C   0  0  0  0  0  0  0  0  0  0  0  0
  -14.9762   -6.8775   10.5262 C   0  0  0  0  0  0  0  0  0  0  0  0
  -13.5421   -6.7747   10.0575 C   0  0  0  0  0  0  0  0  0  0  0  0
  -13.2206   -5.9130    9.0135 C   0  0  0  0  0  0  0  0  0  0  0  0
  -11.9116   -5.8004    8.5655 C   0  0  0  0  0  0  0  0  0  0  0  0
  -10.9036   -6.5587    9.1669 C   0  0  0  0  0  0  0  0  0  0  0  0
  -11.2275   -7.4123   10.2051 C   0  0  0  0  0  0  0  0  0  0  0  0
  -12.5390   -7.5233   10.6526 C   0  0  0  0  0  0  0  0  0  0  0  0
  -10.2939   -8.1723   10.8287 O   0  0  0  0  0  0  0  0  0  0  0  0
   -8.9622   -8.1454   10.2922 C   0  0  0  0  0  0  0  0  0  0  0  0
  -11.6782   -4.9467    7.5494 O   0  0  0  0  0  0  0  0  0  0  0  0
  -10.5955   -5.2234    6.6465 C   0  0  0  0  0  0  0  0  0  0  0  0
  -23.8697   -6.6851   16.2752 C   0  0  0  0  0  0  0  0  0  0  0  0
  -24.1194   -7.4567   15.1230 C   0  0  0  0  0  0  0  0  0  0  0  0
  -23.0811   -7.7370   14.2325 C   0  0  0  0  0  0  0  0  0  0  0  0
  -21.7945   -7.2600   14.4735 C   0  0  0  0  0  0  0  0  0  0  0  0
  -21.5786   -6.5065   15.6163 C   0  0  0  0  0  0  0  0  0  0  0  0
  -22.5944   -6.2158   16.5106 C   0  0  0  0  0  0  0  0  0  0  0  0
  -28.2876   -4.8553   17.5061 C   0  0  0  0  0  0  0  0  0  0  0  0
  -24.8520   -6.3941   17.1693 N   0  0  0  0  0  0  0  0  0  0  0  0
  -26.8310   -5.2155   17.8288 C   0  0  0  0  0  0  0  0  0  0  0  0
  -26.7105   -5.6873   19.2185 N   0  0  0  0  0  0  0  0  0  0  0  0
  -26.2814   -6.2903   16.8659 C   0  0  0  0  0  0  0  0  0  0  0  0
  -24.5332   -6.7250   18.6197 C   0  0  0  0  0  0  0  0  0  0  0  0
  -25.3106   -5.8592   19.6346 C   0  0  0  0  0  0  0  0  0  0  0  0
  -25.2037   -6.4644   21.0502 C   0  0  0  0  0  0  0  0  0  0  0  0
  -27.1893   -6.5840   19.3024 H   0  0  0  0  0  0  0  0  0  0  0  0
 29 31  1  0  0  0
 30 33  1  0  0  0
 30 34  1  0  0  0
 30 23  1  0  0  0
  1  3  2  0  0  0
 31 32  1  0  0  0
 31 33  1  0  0  0
 32 35  1  0  0  0
 19 17  1  0  0  0
 19 20  1  0  0  0
  2  3  1  0  0  0
  2  7  1  0  0  0
 21 15  1  0  0  0
 21 22  1  0  0  0
 34 35  1  0  0  0
  5  6  1  0  0  0
  5  9  2  0  0  0
 35 36  1  0  0  0
  6  7  1  0  0  0
 23 24  2  0  0  0
 23 28  1  0  0  0
 24 25  1  0  0  0
 25 26  2  0  0  0
 26 27  1  0  0  0
 26  3  1  0  0  0
 27 28  2  0  0  0
  7  8  2  0  0  0
  8  9  1  0  0  0
  9 11  1  0  0  0
 11 12  1  0  0  0
 12 13  1  0  0  0
 13 14  2  0  0  0
 13 18  1  0  0  0
 14 15  1  0  0  0
 15 16  2  0  0  0
 16 17  1  0  0  0
 17 18  2  0  0  0
 32 37  1  0  0  0
  2  4  1  0  0  0
  6 10  1  0  0  0
M  END
> <minimizedAffinity>
-10.16909

$$$$
4RWJ_66T_A_801


 37 40  0  0  0  0  0  0  0  0999 V2000
  -17.3382   -5.8797   14.5778 O   0  0  0  0  0  0  0  0  0  0  0  0
  -18.4731   -7.1820   13.1052 N   0  0  0  0  0  0  0  0  0  0  0  0
  -17.3515   -6.5701   13.5773 C   0  0  0  0  0  0  0  0  0  0  0  0
  -18.3656   -7.7229   12.2896 H   0  0  0  0  0  0  0  0  0  0  0  0
  -21.1852   -6.5408   15.1168 N   0  0  0  0  0  0  0  0  0  0  0  0
  -19.9426   -6.4670   14.7708 N   0  0  0  0  0  0  0  0  0  0  0  0
  -19.7304   -7.1291   13.6368 C   0  0  0  0  0  0  0  0  0  0  0  0
  -20.8803   -7.6557   13.2349 C   0  0  0  0  0  0  0  0  0  0  0  0
  -21.7874   -7.2901   14.1547 C   0  0  0  0  0  0  0  0  0  0  0  0
  -19.2481   -5.9866   15.2769 H   0  0  0  0  0  0  0  0  0  0  0  0
  -23.2582   -7.5712   14.2577 C   0  0  0  0  0  0  0  0  0  0  0  0
  -23.5888   -8.7942   15.0809 C   0  0  0  0  0  0  0  0  0  0  0  0
  -24.5028   -9.6638   14.2472 C   0  0  0  0  0  0  0  0  0  0  0  0
  -25.5545  -10.3391   14.8586 C   0  0  0  0  0  0  0  0  0  0  0  0
  -26.4077  -11.1430   14.1151 C   0  0  0  0  0  0  0  0  0  0  0  0
  -26.2113  -11.2779   12.7382 C   0  0  0  0  0  0  0  0  0  0  0  0
  -25.1659  -10.6037   12.1347 C   0  0  0  0  0  0  0  0  0  0  0  0
  -24.3130   -9.7987   12.8810 C   0  0  0  0  0  0  0  0  0  0  0  0
  -24.9256  -10.6938   10.8035 O   0  0  0  0  0  0  0  0  0  0  0  0
  -26.0580  -10.6000    9.9254 C   0  0  0  0  0  0  0  0  0  0  0  0
  -27.4020  -11.7663   14.7773 O   0  0  0  0  0  0  0  0  0  0  0  0
  -27.6532  -11.4096   16.1461 C   0  0  0  0  0  0  0  0  0  0  0  0
  -13.7339   -6.9937   11.2916 C   0  0  0  0  0  0  0  0  0  0  0  0
  -14.4649   -8.1488   11.6333 C   0  0  0  0  0  0  0  0  0  0  0  0
  -15.6413   -8.0355   12.3768 C   0  0  0  0  0  0  0  0  0  0  0  0
  -16.1024   -6.7858   12.7851 C   0  0  0  0  0  0  0  0  0  0  0  0
  -15.3640   -5.6677   12.4316 C   0  0  0  0  0  0  0  0  0  0  0  0
  -14.1944   -5.7585   11.6968 C   0  0  0  0  0  0  0  0  0  0  0  0
   -9.1315   -8.5908   10.4871 C   0  0  0  0  0  0  0  0  0  0  0  0
  -12.5865   -7.0608   10.5650 N   0  0  0  0  0  0  0  0  0  0  0  0
  -10.2531   -7.5542   10.3364 C   0  0  0  0  0  0  0  0  0  0  0  0
  -10.1971   -6.9207    9.0083 N   0  0  0  0  0  0  0  0  0  0  0  0
  -11.6463   -8.1841   10.5530 C   0  0  0  0  0  0  0  0  0  0  0  0
  -12.5524   -6.1909    9.3172 C   0  0  0  0  0  0  0  0  0  0  0  0
  -11.1258   -5.7872    8.8862 C   0  0  0  0  0  0  0  0  0  0  0  0
  -11.1402   -5.2096    7.4552 C   0  0  0  0  0  0  0  0  0  0  0  0
  -10.4366   -7.6175    8.3029 H   0  0  0  0  0  0  0  0  0  0  0  0
 29 31  1  0  0  0
 30 33  1  0  0  0
 30 34  1  0  0  0
 30 23  1  0  0  0
  1  3  2  0  0  0
 31 32  1  0  0  0
 31 33  1  0  0  0
 32 35  1  0  0  0
 19 17  1  0  0  0
 19 20  1  0  0  0
  2  3  1  0  0  0
  2  7  1  0  0  0
 21 15  1  0  0  0
 21 22  1  0  0  0
 34 35  1  0  0  0
  5  6  1  0  0  0
  5  9  2  0  0  0
 35 36  1  0  0  0
  6  7  1  0  0  0
 23 24  2  0  0  0
 23 28  1  0  0  0
 24 25  1  0  0  0
 25 26  2  0  0  0
 26 27  1  0  0  0
 26  3  1  0  0  0
 27 28  2  0  0  0
  7  8  2  0  0  0
  8  9  1  0  0  0
  9 11  1  0  0  0
 11 12  1  0  0  0
 12 13  1  0  0  0
 13 14  2  0  0  0
 13 18  1  0  0  0
 14 15  1  0  0  0
 15 16  2  0  0  0
 16 17  1  0  0  0
 17 18  2  0  0  0
 32 37  1  0  0  0
  2  4  1  0  0  0
  6 10  1  0  0  0
M  END
> <minimizedAffinity>
-10.16585

$$$$
4RWJ_66T_A_801


 37 40  0  0  0  0  0  0  0  0999 V2000
  -20.4881   -5.8186   13.5635 O   0  0  0  0  0  0  0  0  0  0  0  0
  -19.3474   -7.7366   13.9794 N   0  0  0  0  0  0  0  0  0  0  0  0
  -20.4721   -6.9687   13.9571 C   0  0  0  0  0  0  0  0  0  0  0  0
  -19.4529   -8.6570   14.3125 H   0  0  0  0  0  0  0  0  0  0  0  0
  -16.3803   -6.0569   13.5450 N   0  0  0  0  0  0  0  0  0  0  0  0
  -17.5660   -6.2301   14.0282 N   0  0  0  0  0  0  0  0  0  0  0  0
  -18.0892   -7.3724   13.5911 C   0  0  0  0  0  0  0  0  0  0  0  0
  -17.2091   -7.9598   12.7904 C   0  0  0  0  0  0  0  0  0  0  0  0
  -16.1442   -7.1426   12.7607 C   0  0  0  0  0  0  0  0  0  0  0  0
  -18.0199   -5.6029   14.6363 H   0  0  0  0  0  0  0  0  0  0  0  0
  -14.8327   -7.2550   12.0394 C   0  0  0  0  0  0  0  0  0  0  0  0
  -14.8936   -6.8223   10.5932 C   0  0  0  0  0  0  0  0  0  0  0  0
  -13.4708   -6.7453   10.0866 C   0  0  0  0  0  0  0  0  0  0  0  0
  -13.1771   -5.9529    8.9813 C   0  0  0  0  0  0  0  0  0  0  0  0
  -11.8789   -5.8652    8.4975 C   0  0  0  0  0  0  0  0  0  0  0  0
  -10.8540   -6.5788    9.1244 C   0  0  0  0  0  0  0  0  0  0  0  0
  -11.1503   -7.3636   10.2233 C   0  0  0  0  0  0  0  0  0  0  0  0
  -12.4509   -7.4497   10.7066 C   0  0  0  0  0  0  0  0  0  0  0  0
  -10.1992   -8.0776   10.8742 O   0  0  0  0  0  0  0  0  0  0  0  0
   -8.8892   -8.1121   10.2869 C   0  0  0  0  0  0  0  0  0  0  0  0
  -11.6725   -5.0793    7.4226 O   0  0  0  0  0  0  0  0  0  0  0  0
  -10.5100   -5.3076    6.6100 C   0  0  0  0  0  0  0  0  0  0  0  0
  -24.1385   -8.8319   15.2132 C   0  0  0  0  0  0  0  0  0  0  0  0
  -23.1558   -8.5382   16.1794 C   0  0  0  0  0  0  0  0  0  0  0  0
  -21.9568   -7.9353   15.7942 C   0  0  0  0  0  0  0  0  0  0  0  0
  -21.7216   -7.6187   14.4580 C   0  0  0  0  0  0  0  0  0  0  0  0
  -22.7076   -7.9166   13.5309 C   0  0  0  0  0  0  0  0  0  0  0  0
  -23.9021   -8.5158   13.8918 C   0  0  0  0  0  0  0  0  0  0  0  0
  -26.8459  -12.4738   17.1592 C   0  0  0  0  0  0  0  0  0  0  0  0
  -25.3209   -9.4140   15.5479 N   0  0  0  0  0  0  0  0  0  0  0  0
  -26.6412  -11.3113   16.1783 C   0  0  0  0  0  0  0  0  0  0  0  0
  -27.8963  -10.5638   15.9926 N   0  0  0  0  0  0  0  0  0  0  0  0
  -25.5301  -10.3506   16.6547 C   0  0  0  0  0  0  0  0  0  0  0  0
  -26.5670   -8.6577   15.1119 C   0  0  0  0  0  0  0  0  0  0  0  0
  -27.8018   -9.5642   14.9183 C   0  0  0  0  0  0  0  0  0  0  0  0
  -29.0837   -8.7111   14.8151 C   0  0  0  0  0  0  0  0  0  0  0  0
  -28.1250  -10.0865   16.8646 H   0  0  0  0  0  0  0  0  0  0  0  0
 29 31  1  0  0  0
 30 33  1  0  0  0
 30 34  1  0  0  0
 30 23  1  0  0  0
  1  3  2  0  0  0
 31 32  1  0  0  0
 31 33  1  0  0  0
 32 35  1  0  0  0
 19 17  1  0  0  0
 19 20  1  0  0  0
  2  3  1  0  0  0
  2  7  1  0  0  0
 21 15  1  0  0  0
 21 22  1  0  0  0
 34 35  1  0  0  0
  5  6  1  0  0  0
  5  9  2  0  0  0
 35 36  1  0  0  0
  6  7  1  0  0  0
 23 24  2  0  0  0
 23 28  1  0  0  0
 24 25  1  0  0  0
 25 26  2  0  0  0
 26 27  1  0  0  0
 26  3  1  0  0  0
 27 28  2  0  0  0
  7  8  2  0  0  0
  8  9  1  0  0  0
  9 11  1  0  0  0
 11 12  1  0  0  0
 12 13  1  0  0  0
 13 14  2  0  0  0
 13 18  1  0  0  0
 14 15  1  0  0  0
 15 16  2  0  0  0
 16 17  1  0  0  0
 17 18  2  0  0  0
 32 37  1  0  0  0
  2  4  1  0  0  0
  6 10  1  0  0  0
M  END
> <minimizedAffinity>
-10.16306

$$$$
4RWJ_66T_A_801


 37 40  0  0  0  0  0  0  0  0999 V2000
  -20.1839   -8.0081   12.8426 O   0  0  0  0  0  0  0  0  0  0  0  0
  -19.1079   -6.6784   14.3348 N   0  0  0  0  0  0  0  0  0  0  0  0
  -20.2023   -7.3290   13.8507 C   0  0  0  0  0  0  0  0  0  0  0  0
  -19.2370   -6.1624   15.1632 H   0  0  0  0  0  0  0  0  0  0  0  0
  -15.8891   -5.8220   13.4866 N   0  0  0  0  0  0  0  0  0  0  0  0
  -17.0186   -5.6674   14.0946 N   0  0  0  0  0  0  0  0  0  0  0  0
  -17.8512   -6.6619   13.7994 C   0  0  0  0  0  0  0  0  0  0  0  0
  -17.2378   -7.4911   12.9644 C   0  0  0  0  0  0  0  0  0  0  0  0
  -16.0159   -6.9702   12.7688 C   0  0  0  0  0  0  0  0  0  0  0  0
  -17.2336   -4.9165   14.6940 H   0  0  0  0  0  0  0  0  0  0  0  0
  -14.8620   -7.4445   11.9342 C   0  0  0  0  0  0  0  0  0  0  0  0
  -14.9294   -6.9995   10.4920 C   0  0  0  0  0  0  0  0  0  0  0  0
  -13.5074   -6.8193   10.0101 C   0  0  0  0  0  0  0  0  0  0  0  0
  -12.4723   -7.4840   10.6601 C   0  0  0  0  0  0  0  0  0  0  0  0
  -11.1587   -7.3354   10.2365 C   0  0  0  0  0  0  0  0  0  0  0  0
  -10.8692   -6.5105    9.1464 C   0  0  0  0  0  0  0  0  0  0  0  0
  -11.9012   -5.8533    8.5025 C   0  0  0  0  0  0  0  0  0  0  0  0
  -13.2160   -6.0038    8.9280 C   0  0  0  0  0  0  0  0  0  0  0  0
  -11.6834   -5.0411    7.4390 O   0  0  0  0  0  0  0  0  0  0  0  0
  -10.4966   -5.2777    6.6661 C   0  0  0  0  0  0  0  0  0  0  0  0
  -10.2107   -8.0094   10.9167 O   0  0  0  0  0  0  0  0  0  0  0  0
   -8.9287   -8.2130   10.3013 C   0  0  0  0  0  0  0  0  0  0  0  0
  -23.9331   -6.9401   15.9533 C   0  0  0  0  0  0  0  0  0  0  0  0
  -22.7704   -6.3770   16.5157 C   0  0  0  0  0  0  0  0  0  0  0  0
  -21.5476   -6.4928   15.8518 C   0  0  0  0  0  0  0  0  0  0  0  0
  -21.4653   -7.1618   14.6325 C   0  0  0  0  0  0  0  0  0  0  0  0
  -22.6259   -7.7026   14.1025 C   0  0  0  0  0  0  0  0  0  0  0  0
  -23.8475   -7.6005   14.7456 C   0  0  0  0  0  0  0  0  0  0  0  0
  -27.2892   -8.3453   19.2914 C   0  0  0  0  0  0  0  0  0  0  0  0
  -25.1435   -6.8452   16.5656 N   0  0  0  0  0  0  0  0  0  0  0  0
  -26.8933   -7.7307   17.9419 C   0  0  0  0  0  0  0  0  0  0  0  0
  -27.7985   -6.6232   17.5923 N   0  0  0  0  0  0  0  0  0  0  0  0
  -25.4339   -7.2261   17.9499 C   0  0  0  0  0  0  0  0  0  0  0  0
  -26.0917   -5.8095   15.9797 C   0  0  0  0  0  0  0  0  0  0  0  0
  -27.5820   -6.1305   16.2238 C   0  0  0  0  0  0  0  0  0  0  0  0
  -28.4552   -4.8963   15.9142 C   0  0  0  0  0  0  0  0  0  0  0  0
  -27.6430   -5.8550   18.2451 H   0  0  0  0  0  0  0  0  0  0  0  0
 29 31  1  0  0  0
 30 33  1  0  0  0
 30 34  1  0  0  0
 30 23  1  0  0  0
  1  3  2  0  0  0
 31 32  1  0  0  0
 31 33  1  0  0  0
 32 35  1  0  0  0
 19 17  1  0  0  0
 19 20  1  0  0  0
  2  3  1  0  0  0
  2  7  1  0  0  0
 21 15  1  0  0  0
 21 22  1  0  0  0
 34 35  1  0  0  0
  5  6  1  0  0  0
  5  9  2  0  0  0
 35 36  1  0  0  0
  6  7  1  0  0  0
 23 24  2  0  0  0
 23 28  1  0  0  0
 24 25  1  0  0  0
 25 26  2  0  0  0
 26 27  1  0  0  0
 26  3  1  0  0  0
 27 28  2  0  0  0
  7  8  2  0  0  0
  8  9  1  0  0  0
  9 11  1  0  0  0
 11 12  1  0  0  0
 12 13  1  0  0  0
 13 14  2  0  0  0
 13 18  1  0  0  0
 14 15  1  0  0  0
 15 16  2  0  0  0
 16 17  1  0  0  0
 17 18  2  0  0  0
 32 37  1  0  0  0
  2  4  1  0  0  0
  6 10  1  0  0  0
M  END
> <minimizedAffinity>
-10.14503

$$$$
4RWJ_66T_A_801


 37 40  0  0  0  0  0  0  0  0999 V2000
  -20.4602   -5.7972   13.2914 O   0  0  0  0  0  0  0  0  0  0  0  0
  -19.2946   -7.6310   13.9484 N   0  0  0  0  0  0  0  0  0  0  0  0
  -20.4351   -6.9015   13.7992 C   0  0  0  0  0  0  0  0  0  0  0  0
  -19.3934   -8.5162   14.3676 H   0  0  0  0  0  0  0  0  0  0  0  0
  -16.3004   -5.9808   13.5940 N   0  0  0  0  0  0  0  0  0  0  0  0
  -17.4916   -6.1541   14.0634 N   0  0  0  0  0  0  0  0  0  0  0  0
  -18.0287   -7.2715   13.5813 C   0  0  0  0  0  0  0  0  0  0  0  0
  -17.1522   -7.8420   12.7645 C   0  0  0  0  0  0  0  0  0  0  0  0
  -16.0752   -7.0402   12.7714 C   0  0  0  0  0  0  0  0  0  0  0  0
  -17.9401   -5.5431   14.6917 H   0  0  0  0  0  0  0  0  0  0  0  0
  -14.7609   -7.1454   12.0542 C   0  0  0  0  0  0  0  0  0  0  0  0
  -14.8413   -6.8130   10.5826 C   0  0  0  0  0  0  0  0  0  0  0  0
  -13.4238   -6.7251   10.0633 C   0  0  0  0  0  0  0  0  0  0  0  0
  -12.4111   -7.4284   10.7080 C   0  0  0  0  0  0  0  0  0  0  0  0
  -11.1022   -7.3646   10.2504 C   0  0  0  0  0  0  0  0  0  0  0  0
  -10.7946   -6.5869    9.1309 C   0  0  0  0  0  0  0  0  0  0  0  0
  -11.8044   -5.8910    8.4925 C   0  0  0  0  0  0  0  0  0  0  0  0
  -13.1147   -5.9568    8.9520 C   0  0  0  0  0  0  0  0  0  0  0  0
  -11.5685   -5.1214    7.4016 O   0  0  0  0  0  0  0  0  0  0  0  0
  -10.4359   -5.4662    6.5889 C   0  0  0  0  0  0  0  0  0  0  0  0
  -10.1762   -8.0714   10.9276 O   0  0  0  0  0  0  0  0  0  0  0  0
   -8.9148   -8.3448   10.2967 C   0  0  0  0  0  0  0  0  0  0  0  0
  -23.9699   -8.7155   15.4440 C   0  0  0  0  0  0  0  0  0  0  0  0
  -23.8865   -8.5229   14.0507 C   0  0  0  0  0  0  0  0  0  0  0  0
  -22.7492   -7.9339   13.4947 C   0  0  0  0  0  0  0  0  0  0  0  0
  -21.6907   -7.5339   14.3074 C   0  0  0  0  0  0  0  0  0  0  0  0
  -21.7999   -7.7389   15.6735 C   0  0  0  0  0  0  0  0  0  0  0  0
  -22.9194   -8.3192   16.2448 C   0  0  0  0  0  0  0  0  0  0  0  0
  -28.8322   -9.4418   15.9045 C   0  0  0  0  0  0  0  0  0  0  0  0
  -25.0577   -9.2895   16.0240 N   0  0  0  0  0  0  0  0  0  0  0  0
  -27.4085   -9.3901   16.4755 C   0  0  0  0  0  0  0  0  0  0  0  0
  -27.2203  -10.4387   17.4920 N   0  0  0  0  0  0  0  0  0  0  0  0
  -26.3429   -9.5426   15.3683 C   0  0  0  0  0  0  0  0  0  0  0  0
  -24.7632  -10.1912   17.2136 C   0  0  0  0  0  0  0  0  0  0  0  0
  -25.9411  -10.3075   18.2051 C   0  0  0  0  0  0  0  0  0  0  0  0
  -25.7070  -11.4788   19.1824 C   0  0  0  0  0  0  0  0  0  0  0  0
  -27.2467  -11.3488   17.0321 H   0  0  0  0  0  0  0  0  0  0  0  0
 29 31  1  0  0  0
 30 33  1  0  0  0
 30 34  1  0  0  0
 30 23  1  0  0  0
  1  3  2  0  0  0
 31 32  1  0  0  0
 31 33  1  0  0  0
 32 35  1  0  0  0
 19 17  1  0  0  0
 19 20  1  0  0  0
  2  3  1  0  0  0
  2  7  1  0  0  0
 21 15  1  0  0  0
 21 22  1  0  0  0
 34 35  1  0  0  0
  5  6  1  0  0  0
  5  9  2  0  0  0
 35 36  1  0  0  0
  6  7  1  0  0  0
 23 24  2  0  0  0
 23 28  1  0  0  0
 24 25  1  0  0  0
 25 26  2  0  0  0
 26 27  1  0  0  0
 26  3  1  0  0  0
 27 28  2  0  0  0
  7  8  2  0  0  0
  8  9  1  0  0  0
  9 11  1  0  0  0
 11 12  1  0  0  0
 12 13  1  0  0  0
 13 14  2  0  0  0
 13 18  1  0  0  0
 14 15  1  0  0  0
 15 16  2  0  0  0
 16 17  1  0  0  0
 17 18  2  0  0  0
 32 37  1  0  0  0
  2  4  1  0  0  0
  6 10  1  0  0  0
M  END
> <minimizedAffinity>
-10.06561

$$$$
4RWJ_66T_A_801


 37 40  0  0  0  0  0  0  0  0999 V2000
  -19.9438   -8.3534   13.5882 O   0  0  0  0  0  0  0  0  0  0  0  0
  -19.6891   -6.2421   14.3822 N   0  0  0  0  0  0  0  0  0  0  0  0
  -20.4148   -7.3626   14.1122 C   0  0  0  0  0  0  0  0  0  0  0  0
  -20.1727   -5.5018   14.8150 H   0  0  0  0  0  0  0  0  0  0  0  0
  -16.5060   -4.9492   14.2833 N   0  0  0  0  0  0  0  0  0  0  0  0
  -17.7426   -4.9847   14.6560 N   0  0  0  0  0  0  0  0  0  0  0  0
  -18.3652   -6.0307   14.1196 C   0  0  0  0  0  0  0  0  0  0  0  0
  -17.4986   -6.6964   13.3669 C   0  0  0  0  0  0  0  0  0  0  0  0
  -16.3403   -6.0250   13.4678 C   0  0  0  0  0  0  0  0  0  0  0  0
  -18.1659   -4.3278   15.2548 H   0  0  0  0  0  0  0  0  0  0  0  0
  -14.9943   -6.2797   12.8543 C   0  0  0  0  0  0  0  0  0  0  0  0
  -15.0055   -7.3412   11.7792 C   0  0  0  0  0  0  0  0  0  0  0  0
  -13.7297   -7.1873   10.9821 C   0  0  0  0  0  0  0  0  0  0  0  0
  -13.7080   -6.3427    9.8765 C   0  0  0  0  0  0  0  0  0  0  0  0
  -12.5492   -6.1842    9.1290 C   0  0  0  0  0  0  0  0  0  0  0  0
  -11.3905   -6.8783    9.4873 C   0  0  0  0  0  0  0  0  0  0  0  0
  -11.4164   -7.7151   10.5875 C   0  0  0  0  0  0  0  0  0  0  0  0
  -12.5777   -7.8722   11.3352 C   0  0  0  0  0  0  0  0  0  0  0  0
  -10.3245   -8.4135   10.9852 O   0  0  0  0  0  0  0  0  0  0  0  0
   -9.0745   -8.0889   10.3572 C   0  0  0  0  0  0  0  0  0  0  0  0
  -12.6059   -5.3508    8.0716 O   0  0  0  0  0  0  0  0  0  0  0  0
  -11.4198   -4.6373    7.6869 C   0  0  0  0  0  0  0  0  0  0  0  0
  -24.6118   -7.3409   15.0482 C   0  0  0  0  0  0  0  0  0  0  0  0
  -23.7235   -6.6281   15.8778 C   0  0  0  0  0  0  0  0  0  0  0  0
  -22.3563   -6.6228   15.5943 C   0  0  0  0  0  0  0  0  0  0  0  0
  -21.8595   -7.3177   14.4937 C   0  0  0  0  0  0  0  0  0  0  0  0
  -22.7574   -8.0069   13.6944 C   0  0  0  0  0  0  0  0  0  0  0  0
  -24.1160   -8.0264   13.9591 C   0  0  0  0  0  0  0  0  0  0  0  0
  -28.9300   -5.1866   16.0936 C   0  0  0  0  0  0  0  0  0  0  0  0
  -25.9502   -7.3671   15.2871 N   0  0  0  0  0  0  0  0  0  0  0  0
  -27.9701   -6.3838   16.1198 C   0  0  0  0  0  0  0  0  0  0  0  0
  -28.7119   -7.6454   15.9565 N   0  0  0  0  0  0  0  0  0  0  0  0
  -26.8874   -6.2723   15.0245 C   0  0  0  0  0  0  0  0  0  0  0  0
  -26.5815   -8.7512   15.3124 C   0  0  0  0  0  0  0  0  0  0  0  0
  -27.8640   -8.8278   16.1688 C   0  0  0  0  0  0  0  0  0  0  0  0
  -28.6256  -10.1386   15.8795 C   0  0  0  0  0  0  0  0  0  0  0  0
  -29.0924   -7.6811   15.0108 H   0  0  0  0  0  0  0  0  0  0  0  0
 29 31  1  0  0  0
 30 33  1  0  0  0
 30 34  1  0  0  0
 30 23  1  0  0  0
  1  3  2  0  0  0
 31 32  1  0  0  0
 31 33  1  0  0  0
 32 35  1  0  0  0
 19 17  1  0  0  0
 19 20  1  0  0  0
  2  3  1  0  0  0
  2  7  1  0  0  0
 21 15  1  0  0  0
 21 22  1  0  0  0
 34 35  1  0  0  0
  5  6  1  0  0  0
  5  9  2  0  0  0
 35 36  1  0  0  0
  6  7  1  0  0  0
 23 24  2  0  0  0
 23 28  1  0  0  0
 24 25  1  0  0  0
 25 26  2  0  0  0
 26 27  1  0  0  0
 26  3  1  0  0  0
 27 28  2  0  0  0
  7  8  2  0  0  0
  8  9  1  0  0  0
  9 11  1  0  0  0
 11 12  1  0  0  0
 12 13  1  0  0  0
 13 14  2  0  0  0
 13 18  1  0  0  0
 14 15  1  0  0  0
 15 16  2  0  0  0
 16 17  1  0  0  0
 17 18  2  0  0  0
 32 37  1  0  0  0
  2  4  1  0  0  0
  6 10  1  0  0  0
M  END
> <minimizedAffinity>
-9.94905

$$$$
4RWJ_66T_A_801


 37 40  0  0  0  0  0  0  0  0999 V2000
  -17.4084   -5.6920   14.6583 O   0  0  0  0  0  0  0  0  0  0  0  0
  -18.5368   -7.1394   13.3224 N   0  0  0  0  0  0  0  0  0  0  0  0
  -17.4247   -6.4575   13.7140 C   0  0  0  0  0  0  0  0  0  0  0  0
  -18.4326   -7.7377   12.5475 H   0  0  0  0  0  0  0  0  0  0  0  0
  -21.2280   -6.3891   15.3244 N   0  0  0  0  0  0  0  0  0  0  0  0
  -20.0013   -6.2938   14.9303 N   0  0  0  0  0  0  0  0  0  0  0  0
  -19.7808   -7.0859   13.8846 C   0  0  0  0  0  0  0  0  0  0  0  0
  -20.9082   -7.7220   13.5927 C   0  0  0  0  0  0  0  0  0  0  0  0
  -21.8106   -7.2892   14.4876 C   0  0  0  0  0  0  0  0  0  0  0  0
  -19.3229   -5.7144   15.3467 H   0  0  0  0  0  0  0  0  0  0  0  0
  -23.2594   -7.6339   14.6752 C   0  0  0  0  0  0  0  0  0  0  0  0
  -23.6977   -7.6589   16.1209 C   0  0  0  0  0  0  0  0  0  0  0  0
  -25.0000   -6.8954   16.2092 C   0  0  0  0  0  0  0  0  0  0  0  0
  -25.6723   -6.5463   15.0421 C   0  0  0  0  0  0  0  0  0  0  0  0
  -26.8696   -5.8461   15.0967 C   0  0  0  0  0  0  0  0  0  0  0  0
  -27.4083   -5.4861   16.3348 C   0  0  0  0  0  0  0  0  0  0  0  0
  -26.7376   -5.8365   17.4919 C   0  0  0  0  0  0  0  0  0  0  0  0
  -25.5390   -6.5383   17.4351 C   0  0  0  0  0  0  0  0  0  0  0  0
  -27.2105   -5.5169   18.7217 O   0  0  0  0  0  0  0  0  0  0  0  0
  -27.0789   -4.1493   19.1393 C   0  0  0  0  0  0  0  0  0  0  0  0
  -27.4611   -5.5423   13.9248 O   0  0  0  0  0  0  0  0  0  0  0  0
  -28.8748   -5.2869   13.9075 C   0  0  0  0  0  0  0  0  0  0  0  0
  -13.8389   -6.9413   11.3904 C   0  0  0  0  0  0  0  0  0  0  0  0
  -14.6308   -8.0733   11.6676 C   0  0  0  0  0  0  0  0  0  0  0  0
  -15.7982   -7.9403   12.4220 C   0  0  0  0  0  0  0  0  0  0  0  0
  -16.1903   -6.6936   12.9047 C   0  0  0  0  0  0  0  0  0  0  0  0
  -15.3931   -5.5982   12.6134 C   0  0  0  0  0  0  0  0  0  0  0  0
  -14.2312   -5.7089   11.8691 C   0  0  0  0  0  0  0  0  0  0  0  0
   -9.2593   -8.5935   10.5671 C   0  0  0  0  0  0  0  0  0  0  0  0
  -12.6979   -7.0276   10.6556 N   0  0  0  0  0  0  0  0  0  0  0  0
  -10.3715   -7.5471   10.4142 C   0  0  0  0  0  0  0  0  0  0  0  0
  -10.3195   -6.9280    9.0791 N   0  0  0  0  0  0  0  0  0  0  0  0
  -11.7692   -8.1605   10.6481 C   0  0  0  0  0  0  0  0  0  0  0  0
  -12.6649   -6.1710    9.3987 C   0  0  0  0  0  0  0  0  0  0  0  0
  -11.2377   -5.7864    8.9525 C   0  0  0  0  0  0  0  0  0  0  0  0
  -11.2574   -5.2235    7.5157 C   0  0  0  0  0  0  0  0  0  0  0  0
  -10.5716   -7.6295    8.3830 H   0  0  0  0  0  0  0  0  0  0  0  0
 29 31  1  0  0  0
 30 33  1  0  0  0
 30 34  1  0  0  0
 30 23  1  0  0  0
  1  3  2  0  0  0
 31 32  1  0  0  0
 31 33  1  0  0  0
 32 35  1  0  0  0
 19 17  1  0  0  0
 19 20  1  0  0  0
  2  3  1  0  0  0
  2  7  1  0  0  0
 21 15  1  0  0  0
 21 22  1  0  0  0
 34 35  1  0  0  0
  5  6  1  0  0  0
  5  9  2  0  0  0
 35 36  1  0  0  0
  6  7  1  0  0  0
 23 24  2  0  0  0
 23 28  1  0  0  0
 24 25  1  0  0  0
 25 26  2  0  0  0
 26 27  1  0  0  0
 26  3  1  0  0  0
 27 28  2  0  0  0
  7  8  2  0  0  0
  8  9  1  0  0  0
  9 11  1  0  0  0
 11 12  1  0  0  0
 12 13  1  0  0  0
 13 14  2  0  0  0
 13 18  1  0  0  0
 14 15  1  0  0  0
 15 16  2  0  0  0
 16 17  1  0  0  0
 17 18  2  0  0  0
 32 37  1  0  0  0
  2  4  1  0  0  0
  6 10  1  0  0  0
M  END
> <minimizedAffinity>
-9.92841

$$$$
4RWJ_66T_A_801


 37 40  0  0  0  0  0  0  0  0999 V2000
  -17.3578   -5.6100   14.6596 O   0  0  0  0  0  0  0  0  0  0  0  0
  -18.4758   -7.1448   13.4157 N   0  0  0  0  0  0  0  0  0  0  0  0
  -17.3737   -6.4186   13.7519 C   0  0  0  0  0  0  0  0  0  0  0  0
  -18.3721   -7.7757   12.6670 H   0  0  0  0  0  0  0  0  0  0  0  0
  -21.1550   -6.3419   15.4134 N   0  0  0  0  0  0  0  0  0  0  0  0
  -19.9417   -6.2296   14.9837 N   0  0  0  0  0  0  0  0  0  0  0  0
  -19.7092   -7.0957   14.0012 C   0  0  0  0  0  0  0  0  0  0  0  0
  -20.8143   -7.7991   13.7891 C   0  0  0  0  0  0  0  0  0  0  0  0
  -21.7158   -7.3309   14.6671 C   0  0  0  0  0  0  0  0  0  0  0  0
  -19.2802   -5.5907   15.3351 H   0  0  0  0  0  0  0  0  0  0  0  0
  -23.1445   -7.7176   14.9167 C   0  0  0  0  0  0  0  0  0  0  0  0
  -23.7682   -7.0150   16.0999 C   0  0  0  0  0  0  0  0  0  0  0  0
  -25.2390   -6.8401   15.7949 C   0  0  0  0  0  0  0  0  0  0  0  0
  -25.8470   -5.6101   16.0261 C   0  0  0  0  0  0  0  0  0  0  0  0
  -27.1954   -5.4242   15.7538 C   0  0  0  0  0  0  0  0  0  0  0  0
  -27.9532   -6.4809   15.2422 C   0  0  0  0  0  0  0  0  0  0  0  0
  -27.3444   -7.7008   15.0125 C   0  0  0  0  0  0  0  0  0  0  0  0
  -25.9938   -7.8848   15.2854 C   0  0  0  0  0  0  0  0  0  0  0  0
  -28.0263   -8.7624   14.5164 O   0  0  0  0  0  0  0  0  0  0  0  0
  -27.3499  -10.0290   14.5065 C   0  0  0  0  0  0  0  0  0  0  0  0
  -27.7137   -4.2061   16.0052 O   0  0  0  0  0  0  0  0  0  0  0  0
  -28.6305   -3.6341   15.0585 C   0  0  0  0  0  0  0  0  0  0  0  0
  -13.8129   -6.9241   11.3947 C   0  0  0  0  0  0  0  0  0  0  0  0
  -14.6411   -8.0398   11.6285 C   0  0  0  0  0  0  0  0  0  0  0  0
  -15.8012   -7.8996   12.3928 C   0  0  0  0  0  0  0  0  0  0  0  0
  -16.1502   -6.6617   12.9281 C   0  0  0  0  0  0  0  0  0  0  0  0
  -15.3180   -5.5821   12.6788 C   0  0  0  0  0  0  0  0  0  0  0  0
  -14.1627   -5.7003   11.9255 C   0  0  0  0  0  0  0  0  0  0  0  0
   -9.2614   -8.6293   10.5248 C   0  0  0  0  0  0  0  0  0  0  0  0
  -12.6776   -7.0177   10.6521 N   0  0  0  0  0  0  0  0  0  0  0  0
  -10.3601   -7.5662   10.3905 C   0  0  0  0  0  0  0  0  0  0  0  0
  -10.3075   -6.9326    9.0623 N   0  0  0  0  0  0  0  0  0  0  0  0
  -11.7646   -8.1630   10.6261 C   0  0  0  0  0  0  0  0  0  0  0  0
  -12.6403   -6.1474    9.4047 C   0  0  0  0  0  0  0  0  0  0  0  0
  -11.2107   -5.7773    8.9541 C   0  0  0  0  0  0  0  0  0  0  0  0
  -11.2312   -5.1979    7.5239 C   0  0  0  0  0  0  0  0  0  0  0  0
  -10.5733   -7.6227    8.3598 H   0  0  0  0  0  0  0  0  0  0  0  0
 29 31  1  0  0  0
 30 33  1  0  0  0
 30 34  1  0  0  0
 30 23  1  0  0  0
  1  3  2  0  0  0
 31 32  1  0  0  0
 31 33  1  0  0  0
 32 35  1  0  0  0
 19 17  1  0  0  0
 19 20  1  0  0  0
  2  3  1  0  0  0
  2  7  1  0  0  0
 21 15  1  0  0  0
 21 22  1  0  0  0
 34 35  1  0  0  0
  5  6  1  0  0  0
  5  9  2  0  0  0
 35 36  1  0  0  0
  6  7  1  0  0  0
 23 24  2  0  0  0
 23 28  1  0  0  0
 24 25  1  0  0  0
 25 26  2  0  0  0
 26 27  1  0  0  0
 26  3  1  0  0  0
 27 28  2  0  0  0
  7  8  2  0  0  0
  8  9  1  0  0  0
  9 11  1  0  0  0
 11 12  1  0  0  0
 12 13  1  0  0  0
 13 14  2  0  0  0
 13 18  1  0  0  0
 14 15  1  0  0  0
 15 16  2  0  0  0
 16 17  1  0  0  0
 17 18  2  0  0  0
 32 37  1  0  0  0
  2  4  1  0  0  0
  6 10  1  0  0  0
M  END
> <minimizedAffinity>
-9.90638

$$$$
4RWJ_66T_A_801


 37 40  0  0  0  0  0  0  0  0999 V2000
  -17.3909   -5.7423   14.4807 O   0  0  0  0  0  0  0  0  0  0  0  0
  -18.4845   -7.2034   13.1311 N   0  0  0  0  0  0  0  0  0  0  0  0
  -17.3839   -6.5139   13.5413 C   0  0  0  0  0  0  0  0  0  0  0  0
  -18.3614   -7.8063   12.3625 H   0  0  0  0  0  0  0  0  0  0  0  0
  -21.8649   -7.5244   13.6636 N   0  0  0  0  0  0  0  0  0  0  0  0
  -20.7650   -7.6813   13.0042 N   0  0  0  0  0  0  0  0  0  0  0  0
  -19.7402   -7.1521   13.6668 C   0  0  0  0  0  0  0  0  0  0  0  0
  -20.1952   -6.6284   14.7980 C   0  0  0  0  0  0  0  0  0  0  0  0
  -21.5178   -6.8596   14.7982 C   0  0  0  0  0  0  0  0  0  0  0  0
  -20.6950   -8.1309   12.1311 H   0  0  0  0  0  0  0  0  0  0  0  0
  -22.5808   -6.5139   15.8000 C   0  0  0  0  0  0  0  0  0  0  0  0
  -22.4161   -7.2130   17.1292 C   0  0  0  0  0  0  0  0  0  0  0  0
  -23.3902   -8.3694   17.1528 C   0  0  0  0  0  0  0  0  0  0  0  0
  -23.1594   -9.4447   18.0051 C   0  0  0  0  0  0  0  0  0  0  0  0
  -24.0390  -10.5179   18.0457 C   0  0  0  0  0  0  0  0  0  0  0  0
  -25.1689  -10.5218   17.2235 C   0  0  0  0  0  0  0  0  0  0  0  0
  -25.3950   -9.4504   16.3795 C   0  0  0  0  0  0  0  0  0  0  0  0
  -24.5132   -8.3764   16.3407 C   0  0  0  0  0  0  0  0  0  0  0  0
  -26.4735   -9.3962   15.5598 O   0  0  0  0  0  0  0  0  0  0  0  0
  -26.9316   -8.0937   15.1649 C   0  0  0  0  0  0  0  0  0  0  0  0
  -23.7479  -11.5228   18.8948 O   0  0  0  0  0  0  0  0  0  0  0  0
  -24.7861  -12.0333   19.7466 C   0  0  0  0  0  0  0  0  0  0  0  0
  -13.7521   -6.9953   11.2898 C   0  0  0  0  0  0  0  0  0  0  0  0
  -14.5197   -8.1356   11.5996 C   0  0  0  0  0  0  0  0  0  0  0  0
  -15.7014   -8.0034   12.3315 C   0  0  0  0  0  0  0  0  0  0  0  0
  -16.1318   -6.7494   12.7596 C   0  0  0  0  0  0  0  0  0  0  0  0
  -15.3578   -5.6461   12.4372 C   0  0  0  0  0  0  0  0  0  0  0  0
  -14.1824   -5.7557   11.7144 C   0  0  0  0  0  0  0  0  0  0  0  0
   -9.1399   -8.6051   10.5712 C   0  0  0  0  0  0  0  0  0  0  0  0
  -12.5983   -7.0808   10.5754 N   0  0  0  0  0  0  0  0  0  0  0  0
  -10.2621   -7.5756   10.3812 C   0  0  0  0  0  0  0  0  0  0  0  0
  -10.1956   -6.9802    9.0360 N   0  0  0  0  0  0  0  0  0  0  0  0
  -11.6559   -8.2019   10.6037 C   0  0  0  0  0  0  0  0  0  0  0  0
  -12.5550   -6.2468    9.3036 C   0  0  0  0  0  0  0  0  0  0  0  0
  -11.1254   -5.8526    8.8736 C   0  0  0  0  0  0  0  0  0  0  0  0
  -11.1284   -5.3162    7.4265 C   0  0  0  0  0  0  0  0  0  0  0  0
  -10.4278   -7.6974    8.3489 H   0  0  0  0  0  0  0  0  0  0  0  0
 29 31  1  0  0  0
 30 33  1  0  0  0
 30 34  1  0  0  0
 30 23  1  0  0  0
  1  3  2  0  0  0
 31 32  1  0  0  0
 31 33  1  0  0  0
 32 35  1  0  0  0
 19 17  1  0  0  0
 19 20  1  0  0  0
  2  3  1  0  0  0
  2  7  1  0  0  0
 21 15  1  0  0  0
 21 22  1  0  0  0
 34 35  1  0  0  0
  5  6  1  0  0  0
  5  9  2  0  0  0
 35 36  1  0  0  0
  6  7  1  0  0  0
 23 24  2  0  0  0
 23 28  1  0  0  0
 24 25  1  0  0  0
 25 26  2  0  0  0
 26 27  1  0  0  0
 26  3  1  0  0  0
 27 28  2  0  0  0
  7  8  2  0  0  0
  8  9  1  0  0  0
  9 11  1  0  0  0
 11 12  1  0  0  0
 12 13  1  0  0  0
 13 14  2  0  0  0
 13 18  1  0  0  0
 14 15  1  0  0  0
 15 16  2  0  0  0
 16 17  1  0  0  0
 17 18  2  0  0  0
 32 37  1  0  0  0
  2  4  1  0  0  0
  6 10  1  0  0  0
M  END
> <minimizedAffinity>
-9.78084

$$$$
