1F4X_MGS_H_301


 24 24  0  0  0  0  0  0  0  0999 V2000
   -7.5213  -22.4392   18.1232 C   0  0  0  0  0  0  0  0  0  0  0  0
   -7.9901  -21.0302   17.8081 C   0  0  0  0  0  0  0  0  0  0  0  0
   -9.5251  -20.9709   17.6576 C   0  0  0  0  0  0  0  0  0  0  0  0
   -9.9091  -19.6740   17.1396 O   0  0  0  0  0  0  0  0  0  0  0  0
   -9.9381  -22.0454   16.6550 C   0  0  0  0  0  0  0  0  0  0  0  0
   -9.3272  -23.4215   16.9443 C   0  0  0  0  0  0  0  0  0  0  0  0
   -7.8655  -23.3766   17.0995 O   0  0  0  0  0  0  0  0  0  0  0  0
   -9.7000  -24.4361   15.8381 C   0  0  0  0  0  0  0  0  0  0  0  0
   -9.4807  -19.5288   16.2815 H   0  0  0  0  0  0  0  0  0  0  0  0
  -11.4257  -22.1923   16.4956 N   0  0  0  0  0  0  0  0  0  0  0  0
  -11.8041  -21.7446   15.3145 C   0  0  0  0  0  0  0  0  0  0  0  0
  -10.9023  -21.3435   14.5966 O   0  0  0  0  0  0  0  0  0  0  0  0
  -12.0304  -22.5686   17.1753 H   0  0  0  0  0  0  0  0  0  0  0  0
  -13.0981  -21.6155   14.5024 C   0  0  0  0  0  0  0  0  0  0  0  0
  -13.4222  -20.3078   14.1211 O   0  0  0  0  0  0  0  0  0  0  0  0
  -13.5737  -19.7683   14.9129 H   0  0  0  0  0  0  0  0  0  0  0  0
  -14.1577  -22.5342   15.1333 C   0  0  0  0  0  0  0  0  0  0  0  0
  -14.7917  -21.8260   16.2690 C   0  0  0  0  0  0  0  0  0  0  0  0
  -15.6057  -20.9094   15.5330 O   0  0  0  0  0  0  0  0  0  0  0  0
  -16.1813  -21.4024   14.9275 H   0  0  0  0  0  0  0  0  0  0  0  0
   -7.9693  -22.8365   19.3923 O   0  0  0  0  0  0  0  0  0  0  0  0
   -7.3213  -22.0855   20.4481 C   0  0  0  0  0  0  0  0  0  0  0  0
   -7.4158  -20.5419   16.5857 O   0  0  0  0  0  0  0  0  0  0  0  0
   -6.0135  -20.3327   16.8258 C   0  0  0  0  0  0  0  0  0  0  0  0
  1 21  1  0  0  0
  1  2  1  0  0  0
  1  7  1  0  0  0
 21 22  1  0  0  0
  2 23  1  0  0  0
  2  3  1  0  0  0
 23 24  1  0  0  0
  3  4  1  0  0  0
  3  5  1  0  0  0
  5 10  1  0  0  0
  5  6  1  0  0  0
 10 11  1  0  0  0
 11 12  2  0  0  0
 11 14  1  0  0  0
  6  7  1  0  0  0
  6  8  1  0  0  0
 18 19  1  0  0  0
 18 17  1  0  0  0
 17 14  1  0  0  0
 14 15  1  0  0  0
  4  9  1  0  0  0
 10 13  1  0  0  0
 19 20  1  0  0  0
 15 16  1  0  0  0
M  END
> <minimizedAffinity>
-6.67292

$$$$
1F4X_MGS_H_301


 24 24  0  0  0  0  0  0  0  0999 V2000
   -7.2753  -21.8546   18.9726 C   0  0  0  0  0  0  0  0  0  0  0  0
   -7.7056  -20.6787   18.1146 C   0  0  0  0  0  0  0  0  0  0  0  0
   -9.2429  -20.5457   18.0765 C   0  0  0  0  0  0  0  0  0  0  0  0
   -9.6176  -19.5654   17.0786 O   0  0  0  0  0  0  0  0  0  0  0  0
   -9.8194  -21.9018   17.6779 C   0  0  0  0  0  0  0  0  0  0  0  0
   -9.2493  -23.0726   18.4871 C   0  0  0  0  0  0  0  0  0  0  0  0
   -7.7790  -23.1030   18.4898 O   0  0  0  0  0  0  0  0  0  0  0  0
   -9.7947  -24.4229   17.9662 C   0  0  0  0  0  0  0  0  0  0  0  0
   -9.2820  -19.8420   16.2115 H   0  0  0  0  0  0  0  0  0  0  0  0
  -11.3210  -21.9625   17.7178 N   0  0  0  0  0  0  0  0  0  0  0  0
  -11.8113  -21.9322   16.4941 C   0  0  0  0  0  0  0  0  0  0  0  0
  -10.9801  -21.8946   15.6013 O   0  0  0  0  0  0  0  0  0  0  0  0
  -11.8607  -22.0170   18.5394 H   0  0  0  0  0  0  0  0  0  0  0  0
  -13.1829  -21.9854   15.8111 C   0  0  0  0  0  0  0  0  0  0  0  0
  -14.2698  -21.7455   16.6606 O   0  0  0  0  0  0  0  0  0  0  0  0
  -14.3068  -22.4358   17.3411 H   0  0  0  0  0  0  0  0  0  0  0  0
  -13.1933  -23.1789   14.8415 C   0  0  0  0  0  0  0  0  0  0  0  0
  -13.8067  -22.7528   13.5627 C   0  0  0  0  0  0  0  0  0  0  0  0
  -13.6018  -21.3423   13.6768 O   0  0  0  0  0  0  0  0  0  0  0  0
  -12.6579  -21.1624   13.8095 H   0  0  0  0  0  0  0  0  0  0  0  0
   -7.5966  -21.6270   20.3195 O   0  0  0  0  0  0  0  0  0  0  0  0
   -7.0462  -22.6526   21.1819 C   0  0  0  0  0  0  0  0  0  0  0  0
   -7.2492  -20.8164   16.7600 O   0  0  0  0  0  0  0  0  0  0  0  0
   -5.9636  -20.1777   16.6749 C   0  0  0  0  0  0  0  0  0  0  0  0
  1 21  1  0  0  0
  1  2  1  0  0  0
  1  7  1  0  0  0
 21 22  1  0  0  0
  2 23  1  0  0  0
  2  3  1  0  0  0
 23 24  1  0  0  0
  3  4  1  0  0  0
  3  5  1  0  0  0
  5 10  1  0  0  0
  5  6  1  0  0  0
 10 11  1  0  0  0
 11 12  2  0  0  0
 11 14  1  0  0  0
  6  7  1  0  0  0
  6  8  1  0  0  0
 18 19  1  0  0  0
 18 17  1  0  0  0
 17 14  1  0  0  0
 14 15  1  0  0  0
  4  9  1  0  0  0
 10 13  1  0  0  0
 19 20  1  0  0  0
 15 16  1  0  0  0
M  END
> <minimizedAffinity>
-5.88479

$$$$
1F4X_MGS_H_301


 24 24  0  0  0  0  0  0  0  0999 V2000
  -13.4813  -23.7506   16.3700 C   0  0  0  0  0  0  0  0  0  0  0  0
  -13.1672  -22.7407   15.2812 C   0  0  0  0  0  0  0  0  0  0  0  0
  -11.6444  -22.5888   15.0802 C   0  0  0  0  0  0  0  0  0  0  0  0
  -11.3833  -21.4655   14.2041 O   0  0  0  0  0  0  0  0  0  0  0  0
  -11.0189  -22.3075   16.4440 C   0  0  0  0  0  0  0  0  0  0  0  0
  -11.4755  -23.2775   17.5400 C   0  0  0  0  0  0  0  0  0  0  0  0
  -12.9392  -23.3787   17.6401 O   0  0  0  0  0  0  0  0  0  0  0  0
  -10.8885  -22.8765   18.9136 C   0  0  0  0  0  0  0  0  0  0  0  0
  -11.7536  -20.6583   14.5942 H   0  0  0  0  0  0  0  0  0  0  0  0
   -9.5165  -22.2569   16.4279 N   0  0  0  0  0  0  0  0  0  0  0  0
   -9.0996  -21.0240   16.6400 C   0  0  0  0  0  0  0  0  0  0  0  0
   -9.9812  -20.2023   16.8324 O   0  0  0  0  0  0  0  0  0  0  0  0
   -8.9285  -23.0325   16.2803 H   0  0  0  0  0  0  0  0  0  0  0  0
   -7.7685  -20.2758   16.7780 C   0  0  0  0  0  0  0  0  0  0  0  0
   -7.3844  -19.5500   15.6438 O   0  0  0  0  0  0  0  0  0  0  0  0
   -7.2486  -20.1589   14.9010 H   0  0  0  0  0  0  0  0  0  0  0  0
   -6.7685  -21.1980   17.4952 C   0  0  0  0  0  0  0  0  0  0  0  0
   -7.2792  -21.4956   18.8530 C   0  0  0  0  0  0  0  0  0  0  0  0
   -7.4564  -22.9081   18.7195 O   0  0  0  0  0  0  0  0  0  0  0  0
   -6.6179  -23.3151   18.4507 H   0  0  0  0  0  0  0  0  0  0  0  0
  -13.0943  -25.0401   15.9742 O   0  0  0  0  0  0  0  0  0  0  0  0
  -14.2398  -25.8737   15.6718 C   0  0  0  0  0  0  0  0  0  0  0  0
  -13.6943  -21.4423   15.5952 O   0  0  0  0  0  0  0  0  0  0  0  0
  -15.1276  -21.5561   15.6156 C   0  0  0  0  0  0  0  0  0  0  0  0
  1 21  1  0  0  0
  1  2  1  0  0  0
  1  7  1  0  0  0
 21 22  1  0  0  0
  2 23  1  0  0  0
  2  3  1  0  0  0
 23 24  1  0  0  0
  3  4  1  0  0  0
  3  5  1  0  0  0
  5 10  1  0  0  0
  5  6  1  0  0  0
 10 11  1  0  0  0
 11 12  2  0  0  0
 11 14  1  0  0  0
  6  7  1  0  0  0
  6  8  1  0  0  0
 18 19  1  0  0  0
 18 17  1  0  0  0
 17 14  1  0  0  0
 14 15  1  0  0  0
  4  9  1  0  0  0
 10 13  1  0  0  0
 19 20  1  0  0  0
 15 16  1  0  0  0
M  END
> <minimizedAffinity>
-5.69980

$$$$
1F4X_MGS_H_301


 24 24  0  0  0  0  0  0  0  0999 V2000
  -14.2333  -22.7681   17.0536 C   0  0  0  0  0  0  0  0  0  0  0  0
  -13.2393  -22.7242   15.9072 C   0  0  0  0  0  0  0  0  0  0  0  0
  -11.8540  -23.2443   16.3464 C   0  0  0  0  0  0  0  0  0  0  0  0
  -10.8857  -22.9774   15.3029 O   0  0  0  0  0  0  0  0  0  0  0  0
  -11.4466  -22.4826   17.6050 C   0  0  0  0  0  0  0  0  0  0  0  0
  -12.5397  -22.4436   18.6793 C   0  0  0  0  0  0  0  0  0  0  0  0
  -13.8302  -21.9621   18.1640 O   0  0  0  0  0  0  0  0  0  0  0  0
  -12.1040  -21.5730   19.8809 C   0  0  0  0  0  0  0  0  0  0  0  0
  -10.8487  -22.0232   15.1325 H   0  0  0  0  0  0  0  0  0  0  0  0
  -10.1661  -22.9685   18.2250 N   0  0  0  0  0  0  0  0  0  0  0  0
   -9.1890  -22.1178   17.9793 C   0  0  0  0  0  0  0  0  0  0  0  0
   -9.5106  -21.1242   17.3479 O   0  0  0  0  0  0  0  0  0  0  0  0
  -10.0708  -23.8019   18.7403 H   0  0  0  0  0  0  0  0  0  0  0  0
   -7.6997  -21.9623   18.3083 C   0  0  0  0  0  0  0  0  0  0  0  0
   -7.4315  -21.2696   19.4953 O   0  0  0  0  0  0  0  0  0  0  0  0
   -7.7634  -20.3612   19.4216 H   0  0  0  0  0  0  0  0  0  0  0  0
   -6.9524  -21.6134   17.0104 C   0  0  0  0  0  0  0  0  0  0  0  0
   -6.1434  -20.3936   17.2357 C   0  0  0  0  0  0  0  0  0  0  0  0
   -7.1574  -19.4101   17.0146 O   0  0  0  0  0  0  0  0  0  0  0  0
   -7.9042  -19.5759   17.6110 H   0  0  0  0  0  0  0  0  0  0  0  0
  -14.5061  -24.0950   17.4201 O   0  0  0  0  0  0  0  0  0  0  0  0
  -15.8050  -24.2203   18.0493 C   0  0  0  0  0  0  0  0  0  0  0  0
  -13.0628  -21.3884   15.4102 O   0  0  0  0  0  0  0  0  0  0  0  0
  -14.0566  -21.1760   14.3928 C   0  0  0  0  0  0  0  0  0  0  0  0
  1 21  1  0  0  0
  1  2  1  0  0  0
  1  7  1  0  0  0
 21 22  1  0  0  0
  2 23  1  0  0  0
  2  3  1  0  0  0
 23 24  1  0  0  0
  3  4  1  0  0  0
  3  5  1  0  0  0
  5 10  1  0  0  0
  5  6  1  0  0  0
 10 11  1  0  0  0
 11 12  2  0  0  0
 11 14  1  0  0  0
  6  7  1  0  0  0
  6  8  1  0  0  0
 18 19  1  0  0  0
 18 17  1  0  0  0
 17 14  1  0  0  0
 14 15  1  0  0  0
  4  9  1  0  0  0
 10 13  1  0  0  0
 19 20  1  0  0  0
 15 16  1  0  0  0
M  END
> <minimizedAffinity>
-5.32983

$$$$
1F4X_MGS_H_301


 24 24  0  0  0  0  0  0  0  0999 V2000
   -7.6041  -22.3683   21.1072 C   0  0  0  0  0  0  0  0  0  0  0  0
   -9.1138  -22.2242   21.1726 C   0  0  0  0  0  0  0  0  0  0  0  0
   -9.7924  -22.8746   19.9483 C   0  0  0  0  0  0  0  0  0  0  0  0
  -11.1971  -22.5226   19.9319 O   0  0  0  0  0  0  0  0  0  0  0  0
   -9.1279  -22.3142   18.6934 C   0  0  0  0  0  0  0  0  0  0  0  0
   -7.5961  -22.3609   18.7374 C   0  0  0  0  0  0  0  0  0  0  0  0
   -7.0402  -21.7436   19.9509 O   0  0  0  0  0  0  0  0  0  0  0  0
   -6.9857  -21.6866   17.4866 C   0  0  0  0  0  0  0  0  0  0  0  0
  -11.2882  -21.5576   19.8944 H   0  0  0  0  0  0  0  0  0  0  0  0
   -9.6020  -22.9495   17.4160 N   0  0  0  0  0  0  0  0  0  0  0  0
  -10.4418  -22.1470   16.7920 C   0  0  0  0  0  0  0  0  0  0  0  0
  -10.6376  -21.0728   17.3372 O   0  0  0  0  0  0  0  0  0  0  0  0
   -9.3252  -23.8369   17.0920 H   0  0  0  0  0  0  0  0  0  0  0  0
  -11.2526  -22.1298   15.4909 C   0  0  0  0  0  0  0  0  0  0  0  0
  -10.7826  -21.2372   14.5199 O   0  0  0  0  0  0  0  0  0  0  0  0
  -10.8416  -20.3302   14.8587 H   0  0  0  0  0  0  0  0  0  0  0  0
  -12.7465  -22.1807   15.8523 C   0  0  0  0  0  0  0  0  0  0  0  0
  -13.5450  -22.0019   14.6180 C   0  0  0  0  0  0  0  0  0  0  0  0
  -13.4385  -20.5820   14.4878 O   0  0  0  0  0  0  0  0  0  0  0  0
  -12.5024  -20.3289   14.4633 H   0  0  0  0  0  0  0  0  0  0  0  0
   -7.2308  -23.7155   21.2296 O   0  0  0  0  0  0  0  0  0  0  0  0
   -6.6978  -24.0060   22.5449 C   0  0  0  0  0  0  0  0  0  0  0  0
   -9.5131  -20.8452   21.2075 O   0  0  0  0  0  0  0  0  0  0  0  0
   -9.0781  -20.3058   22.4674 C   0  0  0  0  0  0  0  0  0  0  0  0
  1 21  1  0  0  0
  1  2  1  0  0  0
  1  7  1  0  0  0
 21 22  1  0  0  0
  2 23  1  0  0  0
  2  3  1  0  0  0
 23 24  1  0  0  0
  3  4  1  0  0  0
  3  5  1  0  0  0
  5 10  1  0  0  0
  5  6  1  0  0  0
 10 11  1  0  0  0
 11 12  2  0  0  0
 11 14  1  0  0  0
  6  7  1  0  0  0
  6  8  1  0  0  0
 18 19  1  0  0  0
 18 17  1  0  0  0
 17 14  1  0  0  0
 14 15  1  0  0  0
  4  9  1  0  0  0
 10 13  1  0  0  0
 19 20  1  0  0  0
 15 16  1  0  0  0
M  END
> <minimizedAffinity>
-5.18629

$$$$
1F4X_MGS_H_301


 24 24  0  0  0  0  0  0  0  0999 V2000
   -9.7143  -21.1665   19.9680 C   0  0  0  0  0  0  0  0  0  0  0  0
  -11.1735  -21.5751   20.0582 C   0  0  0  0  0  0  0  0  0  0  0  0
  -11.5386  -22.5956   18.9593 C   0  0  0  0  0  0  0  0  0  0  0  0
  -12.9741  -22.7863   18.9359 O   0  0  0  0  0  0  0  0  0  0  0  0
  -11.0951  -22.0167   17.6182 C   0  0  0  0  0  0  0  0  0  0  0  0
   -9.6535  -21.4949   17.6219 C   0  0  0  0  0  0  0  0  0  0  0  0
   -9.3903  -20.5511   18.7185 O   0  0  0  0  0  0  0  0  0  0  0  0
   -9.3021  -20.8303   16.2703 C   0  0  0  0  0  0  0  0  0  0  0  0
  -13.4103  -21.9369   18.7650 H   0  0  0  0  0  0  0  0  0  0  0  0
  -11.2742  -22.9564   16.4584 N   0  0  0  0  0  0  0  0  0  0  0  0
  -12.3117  -22.5908   15.7313 C   0  0  0  0  0  0  0  0  0  0  0  0
  -12.8824  -21.5806   16.1099 O   0  0  0  0  0  0  0  0  0  0  0  0
  -10.6995  -23.7330   16.2690 H   0  0  0  0  0  0  0  0  0  0  0  0
  -13.0281  -23.0435   14.4537 C   0  0  0  0  0  0  0  0  0  0  0  0
  -13.0324  -22.1001   13.4191 O   0  0  0  0  0  0  0  0  0  0  0  0
  -13.5154  -21.3089   13.7049 H   0  0  0  0  0  0  0  0  0  0  0  0
  -14.3214  -23.7710   14.8575 C   0  0  0  0  0  0  0  0  0  0  0  0
  -15.4572  -23.1779   14.1149 C   0  0  0  0  0  0  0  0  0  0  0  0
  -15.5883  -21.9568   14.8471 O   0  0  0  0  0  0  0  0  0  0  0  0
  -14.7426  -21.4819   14.8378 H   0  0  0  0  0  0  0  0  0  0  0  0
   -8.8779  -22.2526   20.2683 O   0  0  0  0  0  0  0  0  0  0  0  0
   -8.8120  -22.4993   21.6942 C   0  0  0  0  0  0  0  0  0  0  0  0
  -12.0495  -20.4468   19.9098 O   0  0  0  0  0  0  0  0  0  0  0  0
  -11.9075  -19.6371   21.0896 C   0  0  0  0  0  0  0  0  0  0  0  0
  1 21  1  0  0  0
  1  2  1  0  0  0
  1  7  1  0  0  0
 21 22  1  0  0  0
  2 23  1  0  0  0
  2  3  1  0  0  0
 23 24  1  0  0  0
  3  4  1  0  0  0
  3  5  1  0  0  0
  5 10  1  0  0  0
  5  6  1  0  0  0
 10 11  1  0  0  0
 11 12  2  0  0  0
 11 14  1  0  0  0
  6  7  1  0  0  0
  6  8  1  0  0  0
 18 19  1  0  0  0
 18 17  1  0  0  0
 17 14  1  0  0  0
 14 15  1  0  0  0
  4  9  1  0  0  0
 10 13  1  0  0  0
 19 20  1  0  0  0
 15 16  1  0  0  0
M  END
> <minimizedAffinity>
-4.92994

$$$$
1F4X_MGS_H_301


 24 24  0  0  0  0  0  0  0  0999 V2000
   -9.1446  -24.0223   17.8700 C   0  0  0  0  0  0  0  0  0  0  0  0
  -10.5247  -24.5711   18.1838 C   0  0  0  0  0  0  0  0  0  0  0  0
  -11.4576  -24.4759   16.9578 C   0  0  0  0  0  0  0  0  0  0  0  0
  -12.8128  -24.7945   17.3572 O   0  0  0  0  0  0  0  0  0  0  0  0
  -11.4174  -23.0366   16.4508 C   0  0  0  0  0  0  0  0  0  0  0  0
   -9.9968  -22.4861   16.2795 C   0  0  0  0  0  0  0  0  0  0  0  0
   -9.1730  -22.6447   17.4873 O   0  0  0  0  0  0  0  0  0  0  0  0
  -10.0268  -20.9965   15.8645 C   0  0  0  0  0  0  0  0  0  0  0  0
  -13.1001  -24.1769   18.0477 H   0  0  0  0  0  0  0  0  0  0  0  0
  -12.1862  -22.8160   15.1779 N   0  0  0  0  0  0  0  0  0  0  0  0
  -13.3117  -22.1768   15.4300 C   0  0  0  0  0  0  0  0  0  0  0  0
  -13.4869  -21.8727   16.5989 O   0  0  0  0  0  0  0  0  0  0  0  0
  -11.8918  -23.1068   14.2847 H   0  0  0  0  0  0  0  0  0  0  0  0
  -14.5100  -21.6222   14.6508 C   0  0  0  0  0  0  0  0  0  0  0  0
  -15.3502  -20.7806   15.3900 O   0  0  0  0  0  0  0  0  0  0  0  0
  -15.7431  -21.2791   16.1235 H   0  0  0  0  0  0  0  0  0  0  0  0
  -15.0939  -22.7561   13.7917 C   0  0  0  0  0  0  0  0  0  0  0  0
  -15.6585  -23.7930   14.6857 C   0  0  0  0  0  0  0  0  0  0  0  0
  -16.9253  -23.1878   14.9562 O   0  0  0  0  0  0  0  0  0  0  0  0
  -17.3842  -23.0107   14.1201 H   0  0  0  0  0  0  0  0  0  0  0  0
   -8.4941  -24.8319   16.9262 O   0  0  0  0  0  0  0  0  0  0  0  0
   -8.2205  -26.1535   17.4524 C   0  0  0  0  0  0  0  0  0  0  0  0
  -11.1484  -23.8526   19.2595 O   0  0  0  0  0  0  0  0  0  0  0  0
  -10.4375  -24.1850   20.4645 C   0  0  0  0  0  0  0  0  0  0  0  0
  1 21  1  0  0  0
  1  2  1  0  0  0
  1  7  1  0  0  0
 21 22  1  0  0  0
  2 23  1  0  0  0
  2  3  1  0  0  0
 23 24  1  0  0  0
  3  4  1  0  0  0
  3  5  1  0  0  0
  5 10  1  0  0  0
  5  6  1  0  0  0
 10 11  1  0  0  0
 11 12  2  0  0  0
 11 14  1  0  0  0
  6  7  1  0  0  0
  6  8  1  0  0  0
 18 19  1  0  0  0
 18 17  1  0  0  0
 17 14  1  0  0  0
 14 15  1  0  0  0
  4  9  1  0  0  0
 10 13  1  0  0  0
 19 20  1  0  0  0
 15 16  1  0  0  0
M  END
> <minimizedAffinity>
-4.89181

$$$$
1F4X_MGS_H_301


 24 24  0  0  0  0  0  0  0  0999 V2000
   -9.0309  -23.5880   18.0685 C   0  0  0  0  0  0  0  0  0  0  0  0
   -9.2847  -23.2051   16.6217 C   0  0  0  0  0  0  0  0  0  0  0  0
  -10.4777  -22.2334   16.5002 C   0  0  0  0  0  0  0  0  0  0  0  0
  -10.8280  -22.0720   15.1043 O   0  0  0  0  0  0  0  0  0  0  0  0
  -11.6617  -22.8526   17.2384 C   0  0  0  0  0  0  0  0  0  0  0  0
  -11.3158  -23.3455   18.6483 C   0  0  0  0  0  0  0  0  0  0  0  0
  -10.1509  -24.2427   18.6702 O   0  0  0  0  0  0  0  0  0  0  0  0
  -12.5271  -24.0527   19.3001 C   0  0  0  0  0  0  0  0  0  0  0  0
  -11.0573  -22.9355   14.7265 H   0  0  0  0  0  0  0  0  0  0  0  0
  -12.8693  -21.9603   17.3127 N   0  0  0  0  0  0  0  0  0  0  0  0
  -13.7880  -22.3641   16.4574 C   0  0  0  0  0  0  0  0  0  0  0  0
  -13.5016  -23.3647   15.8199 O   0  0  0  0  0  0  0  0  0  0  0  0
  -12.9609  -21.1858   17.9135 H   0  0  0  0  0  0  0  0  0  0  0  0
  -15.2072  -21.9682   16.0332 C   0  0  0  0  0  0  0  0  0  0  0  0
  -15.3025  -20.7249   15.3963 O   0  0  0  0  0  0  0  0  0  0  0  0
  -15.0246  -20.0258   16.0085 H   0  0  0  0  0  0  0  0  0  0  0  0
  -16.1730  -22.3439   17.1694 C   0  0  0  0  0  0  0  0  0  0  0  0
  -17.2966  -23.1261   16.6048 C   0  0  0  0  0  0  0  0  0  0  0  0
  -16.8260  -23.2532   15.2606 O   0  0  0  0  0  0  0  0  0  0  0  0
  -15.9457  -23.6607   15.2635 H   0  0  0  0  0  0  0  0  0  0  0  0
   -8.5960  -22.4753   18.8048 O   0  0  0  0  0  0  0  0  0  0  0  0
   -7.7378  -22.8638   19.9053 C   0  0  0  0  0  0  0  0  0  0  0  0
   -9.5788  -24.3551   15.8134 O   0  0  0  0  0  0  0  0  0  0  0  0
   -8.4676  -25.2596   15.9362 C   0  0  0  0  0  0  0  0  0  0  0  0
  1 21  1  0  0  0
  1  2  1  0  0  0
  1  7  1  0  0  0
 21 22  1  0  0  0
  2 23  1  0  0  0
  2  3  1  0  0  0
 23 24  1  0  0  0
  3  4  1  0  0  0
  3  5  1  0  0  0
  5 10  1  0  0  0
  5  6  1  0  0  0
 10 11  1  0  0  0
 11 12  2  0  0  0
 11 14  1  0  0  0
  6  7  1  0  0  0
  6  8  1  0  0  0
 18 19  1  0  0  0
 18 17  1  0  0  0
 17 14  1  0  0  0
 14 15  1  0  0  0
  4  9  1  0  0  0
 10 13  1  0  0  0
 19 20  1  0  0  0
 15 16  1  0  0  0
M  END
> <minimizedAffinity>
-4.77208

$$$$
1F4X_MGS_H_301


 24 24  0  0  0  0  0  0  0  0999 V2000
  -13.9074  -24.4144   15.7741 C   0  0  0  0  0  0  0  0  0  0  0  0
  -12.7614  -25.0981   16.4976 C   0  0  0  0  0  0  0  0  0  0  0  0
  -11.9457  -24.0897   17.3344 C   0  0  0  0  0  0  0  0  0  0  0  0
  -10.7416  -24.7300   17.8219 O   0  0  0  0  0  0  0  0  0  0  0  0
  -11.5542  -22.9322   16.4195 C   0  0  0  0  0  0  0  0  0  0  0  0
  -12.7268  -22.3662   15.6102 C   0  0  0  0  0  0  0  0  0  0  0  0
  -13.4616  -23.4016   14.8682 O   0  0  0  0  0  0  0  0  0  0  0  0
  -12.2455  -21.2700   14.6311 C   0  0  0  0  0  0  0  0  0  0  0  0
  -10.2166  -25.0462   17.0701 H   0  0  0  0  0  0  0  0  0  0  0  0
  -10.8560  -21.8042   17.1268 N   0  0  0  0  0  0  0  0  0  0  0  0
   -9.5686  -21.8146   16.8417 C   0  0  0  0  0  0  0  0  0  0  0  0
   -9.2149  -22.6856   16.0633 O   0  0  0  0  0  0  0  0  0  0  0  0
  -11.2965  -21.1517   17.7178 H   0  0  0  0  0  0  0  0  0  0  0  0
   -8.3195  -20.9874   17.1673 C   0  0  0  0  0  0  0  0  0  0  0  0
   -7.9850  -20.0279   16.2038 O   0  0  0  0  0  0  0  0  0  0  0  0
   -7.7759  -20.4701   15.3662 H   0  0  0  0  0  0  0  0  0  0  0  0
   -7.2492  -21.9332   17.7372 C   0  0  0  0  0  0  0  0  0  0  0  0
   -7.7162  -22.4552   19.0421 C   0  0  0  0  0  0  0  0  0  0  0  0
   -7.8958  -23.8271   18.6815 O   0  0  0  0  0  0  0  0  0  0  0  0
   -7.0658  -24.1785   18.3231 H   0  0  0  0  0  0  0  0  0  0  0  0
  -14.8568  -23.9387   16.6915 O   0  0  0  0  0  0  0  0  0  0  0  0
  -16.1603  -23.7808   16.0794 C   0  0  0  0  0  0  0  0  0  0  0  0
  -11.8567  -25.7300   15.5785 O   0  0  0  0  0  0  0  0  0  0  0  0
  -12.1544  -27.1369   15.5845 C   0  0  0  0  0  0  0  0  0  0  0  0
  1 21  1  0  0  0
  1  2  1  0  0  0
  1  7  1  0  0  0
 21 22  1  0  0  0
  2 23  1  0  0  0
  2  3  1  0  0  0
 23 24  1  0  0  0
  3  4  1  0  0  0
  3  5  1  0  0  0
  5 10  1  0  0  0
  5  6  1  0  0  0
 10 11  1  0  0  0
 11 12  2  0  0  0
 11 14  1  0  0  0
  6  7  1  0  0  0
  6  8  1  0  0  0
 18 19  1  0  0  0
 18 17  1  0  0  0
 17 14  1  0  0  0
 14 15  1  0  0  0
  4  9  1  0  0  0
 10 13  1  0  0  0
 19 20  1  0  0  0
 15 16  1  0  0  0
M  END
> <minimizedAffinity>
-4.76431

$$$$
1F4X_MGS_H_301


 24 24  0  0  0  0  0  0  0  0999 V2000
  -13.3451  -23.8002   15.8499 C   0  0  0  0  0  0  0  0  0  0  0  0
  -12.4407  -22.7716   15.1957 C   0  0  0  0  0  0  0  0  0  0  0  0
  -11.0221  -22.8055   15.8032 C   0  0  0  0  0  0  0  0  0  0  0  0
  -10.2627  -21.6715   15.3187 O   0  0  0  0  0  0  0  0  0  0  0  0
  -11.1606  -22.6959   17.3195 C   0  0  0  0  0  0  0  0  0  0  0  0
  -12.1876  -23.6670   17.9135 C   0  0  0  0  0  0  0  0  0  0  0  0
  -13.5000  -23.5840   17.2551 O   0  0  0  0  0  0  0  0  0  0  0  0
  -12.3546  -23.4344   19.4334 C   0  0  0  0  0  0  0  0  0  0  0  0
  -10.7153  -20.8499   15.5657 H   0  0  0  0  0  0  0  0  0  0  0  0
   -9.8620  -22.8392   18.0631 N   0  0  0  0  0  0  0  0  0  0  0  0
   -9.4853  -21.6739   18.5517 C   0  0  0  0  0  0  0  0  0  0  0  0
  -10.2521  -20.7483   18.3399 O   0  0  0  0  0  0  0  0  0  0  0  0
   -9.3644  -23.6820   18.1700 H   0  0  0  0  0  0  0  0  0  0  0  0
   -8.3392  -21.1058   19.3970 C   0  0  0  0  0  0  0  0  0  0  0  0
   -7.0640  -21.5536   19.0309 O   0  0  0  0  0  0  0  0  0  0  0  0
   -7.0101  -22.5139   19.1567 H   0  0  0  0  0  0  0  0  0  0  0  0
   -8.7788  -21.1088   20.8706 C   0  0  0  0  0  0  0  0  0  0  0  0
   -8.1548  -22.2645   21.5549 C   0  0  0  0  0  0  0  0  0  0  0  0
   -6.9346  -21.6452   21.9696 O   0  0  0  0  0  0  0  0  0  0  0  0
   -7.1354  -20.8582   22.4999 H   0  0  0  0  0  0  0  0  0  0  0  0
  -12.9134  -25.1008   15.5478 O   0  0  0  0  0  0  0  0  0  0  0  0
  -13.9702  -26.0733   15.7375 C   0  0  0  0  0  0  0  0  0  0  0  0
  -12.9498  -21.4387   15.3586 O   0  0  0  0  0  0  0  0  0  0  0  0
  -14.0908  -21.3081   14.4932 C   0  0  0  0  0  0  0  0  0  0  0  0
  1 21  1  0  0  0
  1  2  1  0  0  0
  1  7  1  0  0  0
 21 22  1  0  0  0
  2 23  1  0  0  0
  2  3  1  0  0  0
 23 24  1  0  0  0
  3  4  1  0  0  0
  3  5  1  0  0  0
  5 10  1  0  0  0
  5  6  1  0  0  0
 10 11  1  0  0  0
 11 12  2  0  0  0
 11 14  1  0  0  0
  6  7  1  0  0  0
  6  8  1  0  0  0
 18 19  1  0  0  0
 18 17  1  0  0  0
 17 14  1  0  0  0
 14 15  1  0  0  0
  4  9  1  0  0  0
 10 13  1  0  0  0
 19 20  1  0  0  0
 15 16  1  0  0  0
M  END
> <minimizedAffinity>
-4.71726

$$$$
