4JFK_JFK_A_201


 38 42  0  0  0  0  0  0  0  0999 V2000
   11.3447  -14.1978  -17.9679 C   0  0  0  0  0  0  0  0  0  0  0  0
    9.0074  -14.2276  -18.3980 N   0  0  0  0  0  0  0  0  0  0  0  0
   12.3457  -13.7848  -17.3892 O   0  0  0  0  0  0  0  0  0  0  0  0
   10.0968  -13.7166  -17.5179 C   0  0  0  0  0  0  0  0  0  0  0  0
    9.8989  -14.1029  -16.0603 C   0  0  0  0  0  0  0  0  0  0  0  0
    9.7542  -15.6087  -15.9710 C   0  0  0  0  0  0  0  0  0  0  0  0
    8.5032  -16.0521  -16.7101 C   0  0  0  0  0  0  0  0  0  0  0  0
    9.6293  -16.5479  -18.9224 C   0  0  0  0  0  0  0  0  0  0  0  0
   10.4872  -15.6327  -19.8020 C   0  0  0  0  0  0  0  0  0  0  0  0
    8.6124  -15.6521  -18.1806 C   0  0  0  0  0  0  0  0  0  0  0  0
   11.5536  -15.0655  -18.9809 N   0  0  0  0  0  0  0  0  0  0  0  0
    8.1019  -11.7788  -18.2136 O   0  0  0  0  0  0  0  0  0  0  0  0
    6.4763  -13.6899  -17.8492 O   0  0  0  0  0  0  0  0  0  0  0  0
    7.6773  -13.1676  -18.5955 S   0  0  0  0  0  0  0  0  0  0  0  0
    7.2029  -13.8540  -26.1632 O   0  0  0  0  0  0  0  0  0  0  0  0
    5.9968  -12.8084  -20.6382 C   0  0  0  0  0  0  0  0  0  0  0  0
    5.5765  -12.8159  -21.9574 C   0  0  0  0  0  0  0  0  0  0  0  0
    8.0916  -13.6214  -21.3204 C   0  0  0  0  0  0  0  0  0  0  0  0
    6.1427  -13.2665  -24.2389 N   0  0  0  0  0  0  0  0  0  0  0  0
    8.3724  -14.0207  -23.9985 S   0  0  0  0  0  0  0  0  0  0  0  0
    7.2554  -13.2134  -20.2928 C   0  0  0  0  0  0  0  0  0  0  0  0
    7.1790  -13.7078  -24.9457 C   0  0  0  0  0  0  0  0  0  0  0  0
    6.4027  -13.2121  -22.9168 C   0  0  0  0  0  0  0  0  0  0  0  0
    7.6509  -13.6089  -22.5905 C   0  0  0  0  0  0  0  0  0  0  0  0
    5.2803  -13.0079  -24.6371 H   0  0  0  0  0  0  0  0  0  0  0  0
   12.9764  -15.4675  -19.2278 C   0  0  0  0  0  0  0  0  0  0  0  0
   13.6315  -14.8374  -20.4610 C   0  0  0  0  0  0  0  0  0  0  0  0
   14.9500  -14.4824  -20.1047 O   0  0  0  0  0  0  0  0  0  0  0  0
   15.3081  -12.5303  -21.5091 C   0  0  0  0  0  0  0  0  0  0  0  0
   15.7465  -11.2075  -21.6139 C   0  0  0  0  0  0  0  0  0  0  0  0
   15.8474  -12.5033  -19.1717 C   0  0  0  0  0  0  0  0  0  0  0  0
   15.3571  -13.1839  -20.2797 C   0  0  0  0  0  0  0  0  0  0  0  0
   16.2408  -10.5411  -20.4961 C   0  0  0  0  0  0  0  0  0  0  0  0
   16.2861  -11.1952  -19.2787 C   0  0  0  0  0  0  0  0  0  0  0  0
   16.2631   -8.5079  -21.6343 C   0  0  0  0  0  0  0  0  0  0  0  0
   16.6949   -9.2500  -20.4926 O   0  0  0  0  0  0  0  0  0  0  0  0
   17.9287  -11.1073  -17.6543 C   0  0  0  0  0  0  0  0  0  0  0  0
   16.7744  -10.4864  -18.2255 O   0  0  0  0  0  0  0  0  0  0  0  0
 11  1  1  0  0  0
  1  3  2  0  0  0
  1  4  1  0  0  0
 14  2  1  0  0  0
  2 10  1  0  0  0
  2  4  1  0  0  0
  4  5  1  0  0  0
  5  6  1  0  0  0
 36 35  1  0  0  0
 37 38  1  0  0  0
 15 22  2  0  0  0
 14 12  2  0  0  0
 14 13  2  0  0  0
 32 29  2  0  0  0
 29 30  1  0  0  0
 33 30  2  0  0  0
 17 16  2  0  0  0
 16 21  1  0  0  0
 23 17  1  0  0  0
 31 32  1  0  0  0
 31 34  2  0  0  0
 24 18  1  0  0  0
 18 21  2  0  0  0
  7  6  1  0  0  0
 27 28  1  0  0  0
 27 26  1  0  0  0
 10  7  1  0  0  0
  9  8  1  0  0  0
  8 10  1  0  0  0
 26 11  1  0  0  0
  9 11  1  0  0  0
 22 19  1  0  0  0
 19 23  1  0  0  0
 33 36  1  0  0  0
 38 34  1  0  0  0
 28 32  1  0  0  0
 22 20  1  0  0  0
 20 24  1  0  0  0
 21 14  1  0  0  0
 34 33  1  0  0  0
 23 24  2  0  0  0
 19 25  1  0  0  0
M  END
> <minimizedAffinity>
-9.06711

$$$$
4JFK_JFK_A_201


 38 42  0  0  0  0  0  0  0  0999 V2000
   11.2768  -14.2628  -17.8727 C   0  0  0  0  0  0  0  0  0  0  0  0
    8.9489  -14.2137  -18.3494 N   0  0  0  0  0  0  0  0  0  0  0  0
   12.2790  -13.8858  -17.2720 O   0  0  0  0  0  0  0  0  0  0  0  0
   10.0365  -13.7431  -17.4449 C   0  0  0  0  0  0  0  0  0  0  0  0
    9.7969  -14.1300  -15.9938 C   0  0  0  0  0  0  0  0  0  0  0  0
    9.6012  -15.6307  -15.9159 C   0  0  0  0  0  0  0  0  0  0  0  0
    8.3514  -16.0290  -16.6822 C   0  0  0  0  0  0  0  0  0  0  0  0
    9.5049  -16.5505  -18.8744 C   0  0  0  0  0  0  0  0  0  0  0  0
   10.4097  -15.6596  -19.7316 C   0  0  0  0  0  0  0  0  0  0  0  0
    8.5031  -15.6255  -18.1480 C   0  0  0  0  0  0  0  0  0  0  0  0
   11.4775  -15.1319  -18.8863 N   0  0  0  0  0  0  0  0  0  0  0  0
    8.1293  -11.7326  -18.1971 O   0  0  0  0  0  0  0  0  0  0  0  0
    6.4348  -13.5811  -17.8241 O   0  0  0  0  0  0  0  0  0  0  0  0
    7.6584  -13.1095  -18.5674 S   0  0  0  0  0  0  0  0  0  0  0  0
    7.2375  -13.7831  -26.1394 O   0  0  0  0  0  0  0  0  0  0  0  0
    5.9820  -12.7773  -20.6179 C   0  0  0  0  0  0  0  0  0  0  0  0
    5.5689  -12.7891  -21.9394 C   0  0  0  0  0  0  0  0  0  0  0  0
    8.0959  -13.5472  -21.2913 C   0  0  0  0  0  0  0  0  0  0  0  0
    6.1559  -13.2220  -24.2191 N   0  0  0  0  0  0  0  0  0  0  0  0
    8.3985  -13.9332  -23.9689 S   0  0  0  0  0  0  0  0  0  0  0  0
    7.2465  -13.1586  -20.2670 C   0  0  0  0  0  0  0  0  0  0  0  0
    7.2043  -13.6409  -24.9217 C   0  0  0  0  0  0  0  0  0  0  0  0
    6.4078  -13.1664  -22.8955 C   0  0  0  0  0  0  0  0  0  0  0  0
    7.6617  -13.5396  -22.5637 C   0  0  0  0  0  0  0  0  0  0  0  0
    5.2907  -12.9791  -24.6212 H   0  0  0  0  0  0  0  0  0  0  0  0
   12.8910  -15.5792  -19.1071 C   0  0  0  0  0  0  0  0  0  0  0  0
   13.5616  -15.0336  -20.3718 C   0  0  0  0  0  0  0  0  0  0  0  0
   13.7674  -13.6510  -20.1788 O   0  0  0  0  0  0  0  0  0  0  0  0
   16.0312  -14.0813  -19.4032 C   0  0  0  0  0  0  0  0  0  0  0  0
   17.2610  -13.5658  -18.9850 C   0  0  0  0  0  0  0  0  0  0  0  0
   15.2170  -11.8445  -19.7013 C   0  0  0  0  0  0  0  0  0  0  0  0
   15.0012  -13.2158  -19.7654 C   0  0  0  0  0  0  0  0  0  0  0  0
   17.4598  -12.1895  -18.9203 C   0  0  0  0  0  0  0  0  0  0  0  0
   16.4337  -11.3359  -19.2818 C   0  0  0  0  0  0  0  0  0  0  0  0
   19.0486  -12.0023  -17.2260 C   0  0  0  0  0  0  0  0  0  0  0  0
   18.6219  -11.5849  -18.5239 O   0  0  0  0  0  0  0  0  0  0  0  0
   16.5881   -9.3616  -20.4745 C   0  0  0  0  0  0  0  0  0  0  0  0
   16.6947  -10.0035  -19.2014 O   0  0  0  0  0  0  0  0  0  0  0  0
 11  1  1  0  0  0
  1  3  2  0  0  0
  1  4  1  0  0  0
 14  2  1  0  0  0
  2 10  1  0  0  0
  2  4  1  0  0  0
  4  5  1  0  0  0
  5  6  1  0  0  0
 36 35  1  0  0  0
 37 38  1  0  0  0
 15 22  2  0  0  0
 14 12  2  0  0  0
 14 13  2  0  0  0
 32 29  2  0  0  0
 29 30  1  0  0  0
 33 30  2  0  0  0
 17 16  2  0  0  0
 16 21  1  0  0  0
 23 17  1  0  0  0
 31 32  1  0  0  0
 31 34  2  0  0  0
 24 18  1  0  0  0
 18 21  2  0  0  0
  7  6  1  0  0  0
 27 28  1  0  0  0
 27 26  1  0  0  0
 10  7  1  0  0  0
  9  8  1  0  0  0
  8 10  1  0  0  0
 26 11  1  0  0  0
  9 11  1  0  0  0
 22 19  1  0  0  0
 19 23  1  0  0  0
 33 36  1  0  0  0
 38 34  1  0  0  0
 28 32  1  0  0  0
 22 20  1  0  0  0
 20 24  1  0  0  0
 21 14  1  0  0  0
 34 33  1  0  0  0
 23 24  2  0  0  0
 19 25  1  0  0  0
M  END
> <minimizedAffinity>
-9.04974

$$$$
4JFK_JFK_A_201


 38 42  0  0  0  0  0  0  0  0999 V2000
   11.2491  -14.2084  -17.8115 C   0  0  0  0  0  0  0  0  0  0  0  0
    8.9398  -14.1411  -18.3690 N   0  0  0  0  0  0  0  0  0  0  0  0
   12.2288  -13.8540  -17.1618 O   0  0  0  0  0  0  0  0  0  0  0  0
    9.9938  -13.7045  -17.4095 C   0  0  0  0  0  0  0  0  0  0  0  0
    9.7029  -14.1446  -15.9831 C   0  0  0  0  0  0  0  0  0  0  0  0
    9.5062  -15.6472  -15.9677 C   0  0  0  0  0  0  0  0  0  0  0  0
    8.2850  -16.0166  -16.7924 C   0  0  0  0  0  0  0  0  0  0  0  0
    9.5167  -16.4571  -18.9597 C   0  0  0  0  0  0  0  0  0  0  0  0
   10.4506  -15.5354  -19.7505 C   0  0  0  0  0  0  0  0  0  0  0  0
    8.4886  -15.5593  -18.2359 C   0  0  0  0  0  0  0  0  0  0  0  0
   11.4869  -15.0395  -18.8486 N   0  0  0  0  0  0  0  0  0  0  0  0
    8.1383  -11.6531  -18.2331 O   0  0  0  0  0  0  0  0  0  0  0  0
    6.4315  -13.4866  -17.8424 O   0  0  0  0  0  0  0  0  0  0  0  0
    7.6567  -13.0294  -18.5921 S   0  0  0  0  0  0  0  0  0  0  0  0
    7.2263  -13.7117  -26.1628 O   0  0  0  0  0  0  0  0  0  0  0  0
    5.9658  -12.7373  -20.6369 C   0  0  0  0  0  0  0  0  0  0  0  0
    5.5486  -12.7589  -21.9569 C   0  0  0  0  0  0  0  0  0  0  0  0
    8.0953  -13.4560  -21.3176 C   0  0  0  0  0  0  0  0  0  0  0  0
    6.1380  -13.1771  -24.2387 N   0  0  0  0  0  0  0  0  0  0  0  0
    8.3980  -13.8341  -23.9963 S   0  0  0  0  0  0  0  0  0  0  0  0
    7.2403  -13.0881  -20.2903 C   0  0  0  0  0  0  0  0  0  0  0  0
    7.1938  -13.5705  -24.9449 C   0  0  0  0  0  0  0  0  0  0  0  0
    6.3930  -13.1157  -22.9159 C   0  0  0  0  0  0  0  0  0  0  0  0
    7.6567  -13.4586  -22.5885 C   0  0  0  0  0  0  0  0  0  0  0  0
    5.2659  -12.9551  -24.6378 H   0  0  0  0  0  0  0  0  0  0  0  0
   12.9079  -15.4786  -19.0351 C   0  0  0  0  0  0  0  0  0  0  0  0
   13.4642  -15.3152  -20.4531 C   0  0  0  0  0  0  0  0  0  0  0  0
   14.0513  -14.0344  -20.5322 O   0  0  0  0  0  0  0  0  0  0  0  0
   14.9738  -12.3465  -22.0194 C   0  0  0  0  0  0  0  0  0  0  0  0
   14.9744  -11.7504  -23.2834 C   0  0  0  0  0  0  0  0  0  0  0  0
   13.2571  -13.8535  -22.7524 C   0  0  0  0  0  0  0  0  0  0  0  0
   14.1105  -13.4065  -21.7507 C   0  0  0  0  0  0  0  0  0  0  0  0
   14.1093  -12.2055  -24.2746 C   0  0  0  0  0  0  0  0  0  0  0  0
   13.2554  -13.2583  -24.0018 C   0  0  0  0  0  0  0  0  0  0  0  0
   13.6085  -10.3263  -25.5583 C   0  0  0  0  0  0  0  0  0  0  0  0
   14.0305  -11.6910  -25.5404 O   0  0  0  0  0  0  0  0  0  0  0  0
   11.9518  -14.9866  -24.8130 C   0  0  0  0  0  0  0  0  0  0  0  0
   12.4403  -13.6580  -25.0146 O   0  0  0  0  0  0  0  0  0  0  0  0
 11  1  1  0  0  0
  1  3  2  0  0  0
  1  4  1  0  0  0
 14  2  1  0  0  0
  2 10  1  0  0  0
  2  4  1  0  0  0
  4  5  1  0  0  0
  5  6  1  0  0  0
 36 35  1  0  0  0
 37 38  1  0  0  0
 15 22  2  0  0  0
 14 12  2  0  0  0
 14 13  2  0  0  0
 32 29  2  0  0  0
 29 30  1  0  0  0
 33 30  2  0  0  0
 17 16  2  0  0  0
 16 21  1  0  0  0
 23 17  1  0  0  0
 31 32  1  0  0  0
 31 34  2  0  0  0
 24 18  1  0  0  0
 18 21  2  0  0  0
  7  6  1  0  0  0
 27 28  1  0  0  0
 27 26  1  0  0  0
 10  7  1  0  0  0
  9  8  1  0  0  0
  8 10  1  0  0  0
 26 11  1  0  0  0
  9 11  1  0  0  0
 22 19  1  0  0  0
 19 23  1  0  0  0
 33 36  1  0  0  0
 38 34  1  0  0  0
 28 32  1  0  0  0
 22 20  1  0  0  0
 20 24  1  0  0  0
 21 14  1  0  0  0
 34 33  1  0  0  0
 23 24  2  0  0  0
 19 25  1  0  0  0
M  END
> <minimizedAffinity>
-8.42131

$$$$
4JFK_JFK_A_201


 38 42  0  0  0  0  0  0  0  0999 V2000
   11.2978  -14.1993  -17.9241 C   0  0  0  0  0  0  0  0  0  0  0  0
    8.9595  -14.2038  -18.3498 N   0  0  0  0  0  0  0  0  0  0  0  0
   12.3058  -13.7890  -17.3558 O   0  0  0  0  0  0  0  0  0  0  0  0
   10.0579  -13.6906  -17.4822 C   0  0  0  0  0  0  0  0  0  0  0  0
    9.8572  -14.0436  -16.0166 C   0  0  0  0  0  0  0  0  0  0  0  0
    9.6907  -15.5450  -15.8958 C   0  0  0  0  0  0  0  0  0  0  0  0
    8.4319  -15.9852  -16.6235 C   0  0  0  0  0  0  0  0  0  0  0  0
    9.5465  -16.5433  -18.8268 C   0  0  0  0  0  0  0  0  0  0  0  0
   10.4159  -15.6592  -19.7267 C   0  0  0  0  0  0  0  0  0  0  0  0
    8.5441  -15.6175  -18.1022 C   0  0  0  0  0  0  0  0  0  0  0  0
   11.4921  -15.0908  -18.9192 N   0  0  0  0  0  0  0  0  0  0  0  0
    8.0797  -11.7445  -18.1805 O   0  0  0  0  0  0  0  0  0  0  0  0
    6.4272  -13.6364  -17.8374 O   0  0  0  0  0  0  0  0  0  0  0  0
    7.6446  -13.1287  -18.5671 S   0  0  0  0  0  0  0  0  0  0  0  0
    7.2812  -13.7842  -26.1437 O   0  0  0  0  0  0  0  0  0  0  0  0
    5.9874  -12.7808  -20.6307 C   0  0  0  0  0  0  0  0  0  0  0  0
    5.5851  -12.7872  -21.9555 C   0  0  0  0  0  0  0  0  0  0  0  0
    8.1014  -13.5639  -21.2883 C   0  0  0  0  0  0  0  0  0  0  0  0
    6.1878  -13.2195  -24.2312 N   0  0  0  0  0  0  0  0  0  0  0  0
    8.4233  -13.9466  -23.9641 S   0  0  0  0  0  0  0  0  0  0  0  0
    7.2463  -13.1716  -20.2702 C   0  0  0  0  0  0  0  0  0  0  0  0
    7.2390  -13.6441  -24.9260 C   0  0  0  0  0  0  0  0  0  0  0  0
    6.4292  -13.1683  -22.9054 C   0  0  0  0  0  0  0  0  0  0  0  0
    7.6777  -13.5508  -22.5642 C   0  0  0  0  0  0  0  0  0  0  0  0
    5.3276  -12.9698  -24.6399 H   0  0  0  0  0  0  0  0  0  0  0  0
   12.9084  -15.5186  -19.1601 C   0  0  0  0  0  0  0  0  0  0  0  0
   13.4346  -15.2765  -20.5783 C   0  0  0  0  0  0  0  0  0  0  0  0
   14.3533  -16.3070  -20.8703 O   0  0  0  0  0  0  0  0  0  0  0  0
   16.1672  -14.7244  -21.2115 C   0  0  0  0  0  0  0  0  0  0  0  0
   17.5439  -14.4910  -21.2705 C   0  0  0  0  0  0  0  0  0  0  0  0
   16.5992  -17.0340  -20.7278 C   0  0  0  0  0  0  0  0  0  0  0  0
   15.6899  -16.0042  -20.9371 C   0  0  0  0  0  0  0  0  0  0  0  0
   18.4422  -15.5343  -21.0646 C   0  0  0  0  0  0  0  0  0  0  0  0
   17.9620  -16.8021  -20.7920 C   0  0  0  0  0  0  0  0  0  0  0  0
   20.2880  -14.9913  -22.3791 C   0  0  0  0  0  0  0  0  0  0  0  0
   19.8048  -15.4120  -21.1023 O   0  0  0  0  0  0  0  0  0  0  0  0
   18.2884  -19.0375  -20.3017 C   0  0  0  0  0  0  0  0  0  0  0  0
   18.8918  -17.7750  -20.5954 O   0  0  0  0  0  0  0  0  0  0  0  0
 11  1  1  0  0  0
  1  3  2  0  0  0
  1  4  1  0  0  0
 14  2  1  0  0  0
  2 10  1  0  0  0
  2  4  1  0  0  0
  4  5  1  0  0  0
  5  6  1  0  0  0
 36 35  1  0  0  0
 37 38  1  0  0  0
 15 22  2  0  0  0
 14 12  2  0  0  0
 14 13  2  0  0  0
 32 29  2  0  0  0
 29 30  1  0  0  0
 33 30  2  0  0  0
 17 16  2  0  0  0
 16 21  1  0  0  0
 23 17  1  0  0  0
 31 32  1  0  0  0
 31 34  2  0  0  0
 24 18  1  0  0  0
 18 21  2  0  0  0
  7  6  1  0  0  0
 27 28  1  0  0  0
 27 26  1  0  0  0
 10  7  1  0  0  0
  9  8  1  0  0  0
  8 10  1  0  0  0
 26 11  1  0  0  0
  9 11  1  0  0  0
 22 19  1  0  0  0
 19 23  1  0  0  0
 33 36  1  0  0  0
 38 34  1  0  0  0
 28 32  1  0  0  0
 22 20  1  0  0  0
 20 24  1  0  0  0
 21 14  1  0  0  0
 34 33  1  0  0  0
 23 24  2  0  0  0
 19 25  1  0  0  0
M  END
> <minimizedAffinity>
-7.82203

$$$$
4JFK_JFK_A_201


 38 42  0  0  0  0  0  0  0  0999 V2000
   11.1973  -14.1523  -17.7416 C   0  0  0  0  0  0  0  0  0  0  0  0
    8.9102  -14.0973  -18.3854 N   0  0  0  0  0  0  0  0  0  0  0  0
   12.1423  -13.8221  -17.0306 O   0  0  0  0  0  0  0  0  0  0  0  0
    9.9155  -13.7048  -17.3569 C   0  0  0  0  0  0  0  0  0  0  0  0
    9.5807  -14.2482  -15.9765 C   0  0  0  0  0  0  0  0  0  0  0  0
    9.4205  -15.7521  -16.0709 C   0  0  0  0  0  0  0  0  0  0  0  0
    8.2414  -16.0906  -16.9671 C   0  0  0  0  0  0  0  0  0  0  0  0
    9.5661  -16.3541  -19.1081 C   0  0  0  0  0  0  0  0  0  0  0  0
   10.5069  -15.3600  -19.7966 C   0  0  0  0  0  0  0  0  0  0  0  0
    8.4892  -15.5308  -18.3670 C   0  0  0  0  0  0  0  0  0  0  0  0
   11.4952  -14.9048  -18.8223 N   0  0  0  0  0  0  0  0  0  0  0  0
    8.0535  -11.6360  -18.1430 O   0  0  0  0  0  0  0  0  0  0  0  0
    6.3767  -13.5206  -17.8896 O   0  0  0  0  0  0  0  0  0  0  0  0
    7.6098  -13.0011  -18.5838 S   0  0  0  0  0  0  0  0  0  0  0  0
    4.8634  -13.7645  -25.6436 O   0  0  0  0  0  0  0  0  0  0  0  0
    8.0701  -12.2701  -21.1095 C   0  0  0  0  0  0  0  0  0  0  0  0
    7.8476  -12.1959  -22.4740 C   0  0  0  0  0  0  0  0  0  0  0  0
    6.1668  -13.6284  -20.8919 C   0  0  0  0  0  0  0  0  0  0  0  0
    6.4748  -12.8570  -24.3200 N   0  0  0  0  0  0  0  0  0  0  0  0
    4.8485  -14.1698  -23.2112 S   0  0  0  0  0  0  0  0  0  0  0  0
    7.2360  -12.9805  -20.2928 C   0  0  0  0  0  0  0  0  0  0  0  0
    5.3834  -13.5816  -24.5480 C   0  0  0  0  0  0  0  0  0  0  0  0
    6.8147  -12.8286  -23.0153 C   0  0  0  0  0  0  0  0  0  0  0  0
    5.9863  -13.5391  -22.2212 C   0  0  0  0  0  0  0  0  0  0  0  0
    6.9793  -12.3923  -25.0261 H   0  0  0  0  0  0  0  0  0  0  0  0
   12.9326  -15.2989  -18.9811 C   0  0  0  0  0  0  0  0  0  0  0  0
   13.8086  -14.2946  -19.7367 C   0  0  0  0  0  0  0  0  0  0  0  0
   13.8977  -14.7338  -21.0748 O   0  0  0  0  0  0  0  0  0  0  0  0
   14.3482  -12.9546  -22.6695 C   0  0  0  0  0  0  0  0  0  0  0  0
   15.2567  -12.3356  -23.5324 C   0  0  0  0  0  0  0  0  0  0  0  0
   16.0324  -14.5568  -22.0769 C   0  0  0  0  0  0  0  0  0  0  0  0
   14.7376  -14.0725  -21.9349 C   0  0  0  0  0  0  0  0  0  0  0  0
   16.5485  -12.8363  -23.6683 C   0  0  0  0  0  0  0  0  0  0  0  0
   16.9289  -13.9458  -22.9359 C   0  0  0  0  0  0  0  0  0  0  0  0
   17.1161  -11.0660  -25.0732 C   0  0  0  0  0  0  0  0  0  0  0  0
   17.5107  -12.3065  -24.4848 O   0  0  0  0  0  0  0  0  0  0  0  0
   18.9487  -14.3572  -21.8893 C   0  0  0  0  0  0  0  0  0  0  0  0
   18.2057  -14.3808  -23.1106 O   0  0  0  0  0  0  0  0  0  0  0  0
 11  1  1  0  0  0
  1  3  2  0  0  0
  1  4  1  0  0  0
 14  2  1  0  0  0
  2 10  1  0  0  0
  2  4  1  0  0  0
  4  5  1  0  0  0
  5  6  1  0  0  0
 36 35  1  0  0  0
 37 38  1  0  0  0
 15 22  2  0  0  0
 14 12  2  0  0  0
 14 13  2  0  0  0
 32 29  2  0  0  0
 29 30  1  0  0  0
 33 30  2  0  0  0
 17 16  2  0  0  0
 16 21  1  0  0  0
 23 17  1  0  0  0
 31 32  1  0  0  0
 31 34  2  0  0  0
 24 18  1  0  0  0
 18 21  2  0  0  0
  7  6  1  0  0  0
 27 28  1  0  0  0
 27 26  1  0  0  0
 10  7  1  0  0  0
  9  8  1  0  0  0
  8 10  1  0  0  0
 26 11  1  0  0  0
  9 11  1  0  0  0
 22 19  1  0  0  0
 19 23  1  0  0  0
 33 36  1  0  0  0
 38 34  1  0  0  0
 28 32  1  0  0  0
 22 20  1  0  0  0
 20 24  1  0  0  0
 21 14  1  0  0  0
 34 33  1  0  0  0
 23 24  2  0  0  0
 19 25  1  0  0  0
M  END
> <minimizedAffinity>
-7.47607

$$$$
4JFK_JFK_A_201


 38 42  0  0  0  0  0  0  0  0999 V2000
    7.9806  -13.4310  -23.7745 C   0  0  0  0  0  0  0  0  0  0  0  0
    8.9116  -15.5980  -24.0674 N   0  0  0  0  0  0  0  0  0  0  0  0
    8.0007  -12.2079  -23.8801 O   0  0  0  0  0  0  0  0  0  0  0  0
    9.0294  -14.1472  -24.3896 C   0  0  0  0  0  0  0  0  0  0  0  0
    9.0181  -13.8792  -25.8866 C   0  0  0  0  0  0  0  0  0  0  0  0
    7.7679  -14.4948  -26.4821 C   0  0  0  0  0  0  0  0  0  0  0  0
    7.8044  -16.0040  -26.3128 C   0  0  0  0  0  0  0  0  0  0  0  0
    6.5032  -16.0877  -24.1429 C   0  0  0  0  0  0  0  0  0  0  0  0
    6.7869  -15.3825  -22.8127 C   0  0  0  0  0  0  0  0  0  0  0  0
    7.8647  -16.3479  -24.8253 C   0  0  0  0  0  0  0  0  0  0  0  0
    6.9545  -13.9546  -23.0704 N   0  0  0  0  0  0  0  0  0  0  0  0
   11.1903  -16.2175  -25.1965 O   0  0  0  0  0  0  0  0  0  0  0  0
   10.1580  -17.8808  -23.5854 O   0  0  0  0  0  0  0  0  0  0  0  0
   10.3996  -16.4354  -23.9386 S   0  0  0  0  0  0  0  0  0  0  0  0
   15.0399  -12.9410  -19.0171 O   0  0  0  0  0  0  0  0  0  0  0  0
   10.6975  -15.9125  -21.3380 C   0  0  0  0  0  0  0  0  0  0  0  0
   11.2973  -15.3890  -20.2052 C   0  0  0  0  0  0  0  0  0  0  0  0
   12.4300  -15.0174  -22.6464 C   0  0  0  0  0  0  0  0  0  0  0  0
   13.1336  -14.1481  -19.3012 N   0  0  0  0  0  0  0  0  0  0  0  0
   14.3481  -13.6602  -21.2721 S   0  0  0  0  0  0  0  0  0  0  0  0
   11.2458  -15.7348  -22.5770 C   0  0  0  0  0  0  0  0  0  0  0  0
   14.2319  -13.5309  -19.7265 C   0  0  0  0  0  0  0  0  0  0  0  0
   12.4310  -14.7075  -20.3072 C   0  0  0  0  0  0  0  0  0  0  0  0
   12.9869  -14.5297  -21.5242 C   0  0  0  0  0  0  0  0  0  0  0  0
   12.8631  -14.1919  -18.3556 H   0  0  0  0  0  0  0  0  0  0  0  0
    5.9324  -12.9822  -22.5638 C   0  0  0  0  0  0  0  0  0  0  0  0
    5.7426  -12.9626  -21.0438 C   0  0  0  0  0  0  0  0  0  0  0  0
    6.9030  -12.3908  -20.4799 O   0  0  0  0  0  0  0  0  0  0  0  0
    7.9637  -12.2406  -18.2972 C   0  0  0  0  0  0  0  0  0  0  0  0
    8.5187  -12.9028  -17.1989 C   0  0  0  0  0  0  0  0  0  0  0  0
    7.5131  -14.3615  -19.3237 C   0  0  0  0  0  0  0  0  0  0  0  0
    7.4557  -12.9737  -19.3675 C   0  0  0  0  0  0  0  0  0  0  0  0
    8.5744  -14.2936  -17.1724 C   0  0  0  0  0  0  0  0  0  0  0  0
    8.0679  -15.0154  -18.2376 C   0  0  0  0  0  0  0  0  0  0  0  0
   10.4273  -14.6447  -15.8036 C   0  0  0  0  0  0  0  0  0  0  0  0
    9.0973  -15.0360  -16.1484 O   0  0  0  0  0  0  0  0  0  0  0  0
    7.9250  -17.0031  -19.4092 C   0  0  0  0  0  0  0  0  0  0  0  0
    8.1481  -16.3701  -18.1468 O   0  0  0  0  0  0  0  0  0  0  0  0
 11  1  1  0  0  0
  1  3  2  0  0  0
  1  4  1  0  0  0
 14  2  1  0  0  0
  2 10  1  0  0  0
  2  4  1  0  0  0
  4  5  1  0  0  0
  5  6  1  0  0  0
 36 35  1  0  0  0
 37 38  1  0  0  0
 15 22  2  0  0  0
 14 12  2  0  0  0
 14 13  2  0  0  0
 32 29  2  0  0  0
 29 30  1  0  0  0
 33 30  2  0  0  0
 17 16  2  0  0  0
 16 21  1  0  0  0
 23 17  1  0  0  0
 31 32  1  0  0  0
 31 34  2  0  0  0
 24 18  1  0  0  0
 18 21  2  0  0  0
  7  6  1  0  0  0
 27 28  1  0  0  0
 27 26  1  0  0  0
 10  7  1  0  0  0
  9  8  1  0  0  0
  8 10  1  0  0  0
 26 11  1  0  0  0
  9 11  1  0  0  0
 22 19  1  0  0  0
 19 23  1  0  0  0
 33 36  1  0  0  0
 38 34  1  0  0  0
 28 32  1  0  0  0
 22 20  1  0  0  0
 20 24  1  0  0  0
 21 14  1  0  0  0
 34 33  1  0  0  0
 23 24  2  0  0  0
 19 25  1  0  0  0
M  END
> <minimizedAffinity>
-7.35918

$$$$
4JFK_JFK_A_201


 38 42  0  0  0  0  0  0  0  0999 V2000
    6.6477  -16.1388  -23.1197 C   0  0  0  0  0  0  0  0  0  0  0  0
    6.9336  -13.7806  -23.1972 N   0  0  0  0  0  0  0  0  0  0  0  0
    6.1015  -17.1622  -22.7176 O   0  0  0  0  0  0  0  0  0  0  0  0
    6.0852  -14.9087  -22.7174 C   0  0  0  0  0  0  0  0  0  0  0  0
    4.6528  -14.8163  -23.2202 C   0  0  0  0  0  0  0  0  0  0  0  0
    4.6728  -14.7223  -24.7326 C   0  0  0  0  0  0  0  0  0  0  0  0
    5.3656  -13.4401  -25.1612 C   0  0  0  0  0  0  0  0  0  0  0  0
    7.6752  -14.4360  -25.4481 C   0  0  0  0  0  0  0  0  0  0  0  0
    8.5319  -15.2081  -24.4395 C   0  0  0  0  0  0  0  0  0  0  0  0
    6.8043  -13.4427  -24.6469 C   0  0  0  0  0  0  0  0  0  0  0  0
    7.7364  -16.3078  -23.9000 N   0  0  0  0  0  0  0  0  0  0  0  0
    5.5985  -11.7879  -22.1498 O   0  0  0  0  0  0  0  0  0  0  0  0
    8.0781  -11.4777  -22.5778 O   0  0  0  0  0  0  0  0  0  0  0  0
    6.9651  -12.4097  -22.1717 S   0  0  0  0  0  0  0  0  0  0  0  0
    8.8811  -16.2504  -15.8833 O   0  0  0  0  0  0  0  0  0  0  0  0
    7.3799  -12.0862  -19.5547 C   0  0  0  0  0  0  0  0  0  0  0  0
    7.6975  -12.4607  -18.2602 C   0  0  0  0  0  0  0  0  0  0  0  0
    7.6950  -14.3056  -20.2545 C   0  0  0  0  0  0  0  0  0  0  0  0
    8.3171  -14.2394  -16.7831 N   0  0  0  0  0  0  0  0  0  0  0  0
    8.4017  -16.0576  -18.2946 S   0  0  0  0  0  0  0  0  0  0  0  0
    7.3764  -12.9951  -20.5752 C   0  0  0  0  0  0  0  0  0  0  0  0
    8.5656  -15.5446  -16.8354 C   0  0  0  0  0  0  0  0  0  0  0  0
    7.9973  -13.7240  -17.9876 C   0  0  0  0  0  0  0  0  0  0  0  0
    7.9917  -14.6336  -18.9848 C   0  0  0  0  0  0  0  0  0  0  0  0
    8.3617  -13.7075  -15.9558 H   0  0  0  0  0  0  0  0  0  0  0  0
    8.1014  -17.7231  -24.2327 C   0  0  0  0  0  0  0  0  0  0  0  0
    9.5156  -18.1488  -23.8256 C   0  0  0  0  0  0  0  0  0  0  0  0
    9.4855  -18.4538  -22.4481 O   0  0  0  0  0  0  0  0  0  0  0  0
   10.8446  -18.2733  -20.4401 C   0  0  0  0  0  0  0  0  0  0  0  0
   11.6365  -17.4749  -19.6103 C   0  0  0  0  0  0  0  0  0  0  0  0
   10.5106  -16.3955  -21.8953 C   0  0  0  0  0  0  0  0  0  0  0  0
   10.2779  -17.7316  -21.5919 C   0  0  0  0  0  0  0  0  0  0  0  0
   11.8554  -16.1366  -19.9247 C   0  0  0  0  0  0  0  0  0  0  0  0
   11.2906  -15.6052  -21.0695 C   0  0  0  0  0  0  0  0  0  0  0  0
   12.0325  -14.9873  -17.9053 C   0  0  0  0  0  0  0  0  0  0  0  0
   12.6111  -15.2718  -19.1801 O   0  0  0  0  0  0  0  0  0  0  0  0
   12.5222  -14.1307  -22.3555 C   0  0  0  0  0  0  0  0  0  0  0  0
   11.5478  -14.2936  -21.3218 O   0  0  0  0  0  0  0  0  0  0  0  0
 11  1  1  0  0  0
  1  3  2  0  0  0
  1  4  1  0  0  0
 14  2  1  0  0  0
  2 10  1  0  0  0
  2  4  1  0  0  0
  4  5  1  0  0  0
  5  6  1  0  0  0
 36 35  1  0  0  0
 37 38  1  0  0  0
 15 22  2  0  0  0
 14 12  2  0  0  0
 14 13  2  0  0  0
 32 29  2  0  0  0
 29 30  1  0  0  0
 33 30  2  0  0  0
 17 16  2  0  0  0
 16 21  1  0  0  0
 23 17  1  0  0  0
 31 32  1  0  0  0
 31 34  2  0  0  0
 24 18  1  0  0  0
 18 21  2  0  0  0
  7  6  1  0  0  0
 27 28  1  0  0  0
 27 26  1  0  0  0
 10  7  1  0  0  0
  9  8  1  0  0  0
  8 10  1  0  0  0
 26 11  1  0  0  0
  9 11  1  0  0  0
 22 19  1  0  0  0
 19 23  1  0  0  0
 33 36  1  0  0  0
 38 34  1  0  0  0
 28 32  1  0  0  0
 22 20  1  0  0  0
 20 24  1  0  0  0
 21 14  1  0  0  0
 34 33  1  0  0  0
 23 24  2  0  0  0
 19 25  1  0  0  0
M  END
> <minimizedAffinity>
-7.24890

$$$$
4JFK_JFK_A_201


 38 42  0  0  0  0  0  0  0  0999 V2000
    8.0662  -14.7717  -18.9401 C   0  0  0  0  0  0  0  0  0  0  0  0
   10.3174  -14.6486  -18.1883 N   0  0  0  0  0  0  0  0  0  0  0  0
    7.1141  -15.3526  -19.4536 O   0  0  0  0  0  0  0  0  0  0  0  0
    9.2325  -15.5306  -18.7056 C   0  0  0  0  0  0  0  0  0  0  0  0
    8.9112  -16.6767  -17.7590 C   0  0  0  0  0  0  0  0  0  0  0  0
    8.5778  -16.1038  -16.3962 C   0  0  0  0  0  0  0  0  0  0  0  0
    9.7933  -15.3960  -15.8222 C   0  0  0  0  0  0  0  0  0  0  0  0
    9.2053  -13.0794  -16.6565 C   0  0  0  0  0  0  0  0  0  0  0  0
    8.9219  -12.6048  -18.0854 C   0  0  0  0  0  0  0  0  0  0  0  0
   10.2035  -14.2547  -16.7515 C   0  0  0  0  0  0  0  0  0  0  0  0
    7.8902  -13.4620  -18.6635 N   0  0  0  0  0  0  0  0  0  0  0  0
   12.2907  -16.3460  -17.9133 O   0  0  0  0  0  0  0  0  0  0  0  0
   12.8488  -13.9388  -18.4804 O   0  0  0  0  0  0  0  0  0  0  0  0
   11.9024  -15.0990  -18.6543 S   0  0  0  0  0  0  0  0  0  0  0  0
   11.6080  -17.9155  -25.7216 O   0  0  0  0  0  0  0  0  0  0  0  0
   11.8505  -14.3499  -21.2159 C   0  0  0  0  0  0  0  0  0  0  0  0
   11.7993  -14.5146  -22.5897 C   0  0  0  0  0  0  0  0  0  0  0  0
   11.7846  -16.6825  -20.9525 C   0  0  0  0  0  0  0  0  0  0  0  0
   11.7028  -16.0517  -24.4219 N   0  0  0  0  0  0  0  0  0  0  0  0
   11.6733  -18.1151  -23.2646 S   0  0  0  0  0  0  0  0  0  0  0  0
   11.8396  -15.4248  -20.3721 C   0  0  0  0  0  0  0  0  0  0  0  0
   11.6578  -17.3648  -24.6270 C   0  0  0  0  0  0  0  0  0  0  0  0
   11.7478  -15.7329  -23.1124 C   0  0  0  0  0  0  0  0  0  0  0  0
   11.7426  -16.8038  -22.2908 C   0  0  0  0  0  0  0  0  0  0  0  0
   11.7032  -15.3854  -25.1467 H   0  0  0  0  0  0  0  0  0  0  0  0
    6.5324  -12.8983  -18.9557 C   0  0  0  0  0  0  0  0  0  0  0  0
    6.1372  -12.8730  -20.4355 C   0  0  0  0  0  0  0  0  0  0  0  0
    7.2259  -12.3360  -21.1550 O   0  0  0  0  0  0  0  0  0  0  0  0
    7.0017  -11.8595  -23.5287 C   0  0  0  0  0  0  0  0  0  0  0  0
    7.1888  -12.2827  -24.8474 C   0  0  0  0  0  0  0  0  0  0  0  0
    7.9499  -13.9221  -22.7529 C   0  0  0  0  0  0  0  0  0  0  0  0
    7.3855  -12.6834  -22.4728 C   0  0  0  0  0  0  0  0  0  0  0  0
    7.7500  -13.5289  -25.1118 C   0  0  0  0  0  0  0  0  0  0  0  0
    8.1294  -14.3416  -24.0593 C   0  0  0  0  0  0  0  0  0  0  0  0
    6.7838  -14.5277  -26.9824 C   0  0  0  0  0  0  0  0  0  0  0  0
    7.9737  -14.0363  -26.3631 O   0  0  0  0  0  0  0  0  0  0  0  0
    8.1042  -16.6127  -23.6282 C   0  0  0  0  0  0  0  0  0  0  0  0
    8.6761  -15.5434  -24.3858 O   0  0  0  0  0  0  0  0  0  0  0  0
 11  1  1  0  0  0
  1  3  2  0  0  0
  1  4  1  0  0  0
 14  2  1  0  0  0
  2 10  1  0  0  0
  2  4  1  0  0  0
  4  5  1  0  0  0
  5  6  1  0  0  0
 36 35  1  0  0  0
 37 38  1  0  0  0
 15 22  2  0  0  0
 14 12  2  0  0  0
 14 13  2  0  0  0
 32 29  2  0  0  0
 29 30  1  0  0  0
 33 30  2  0  0  0
 17 16  2  0  0  0
 16 21  1  0  0  0
 23 17  1  0  0  0
 31 32  1  0  0  0
 31 34  2  0  0  0
 24 18  1  0  0  0
 18 21  2  0  0  0
  7  6  1  0  0  0
 27 28  1  0  0  0
 27 26  1  0  0  0
 10  7  1  0  0  0
  9  8  1  0  0  0
  8 10  1  0  0  0
 26 11  1  0  0  0
  9 11  1  0  0  0
 22 19  1  0  0  0
 19 23  1  0  0  0
 33 36  1  0  0  0
 38 34  1  0  0  0
 28 32  1  0  0  0
 22 20  1  0  0  0
 20 24  1  0  0  0
 21 14  1  0  0  0
 34 33  1  0  0  0
 23 24  2  0  0  0
 19 25  1  0  0  0
M  END
> <minimizedAffinity>
-7.19250

$$$$
4JFK_JFK_A_201


 38 42  0  0  0  0  0  0  0  0999 V2000
    7.6826  -13.0273  -20.5520 C   0  0  0  0  0  0  0  0  0  0  0  0
    7.6012  -13.9183  -22.7539 N   0  0  0  0  0  0  0  0  0  0  0  0
    7.7367  -12.1014  -19.7475 O   0  0  0  0  0  0  0  0  0  0  0  0
    7.5341  -12.6885  -21.9138 C   0  0  0  0  0  0  0  0  0  0  0  0
    6.2362  -11.9197  -22.1075 C   0  0  0  0  0  0  0  0  0  0  0  0
    5.0727  -12.8540  -21.8430 C   0  0  0  0  0  0  0  0  0  0  0  0
    5.0682  -13.9760  -22.8671 C   0  0  0  0  0  0  0  0  0  0  0  0
    6.3857  -15.6391  -21.4863 C   0  0  0  0  0  0  0  0  0  0  0  0
    7.7699  -15.4898  -20.8467 C   0  0  0  0  0  0  0  0  0  0  0  0
    6.3713  -14.7667  -22.7612 C   0  0  0  0  0  0  0  0  0  0  0  0
    7.7798  -14.2725  -20.0395 N   0  0  0  0  0  0  0  0  0  0  0  0
    8.0603  -12.2856  -24.7475 O   0  0  0  0  0  0  0  0  0  0  0  0
    7.7917  -14.7548  -25.2561 O   0  0  0  0  0  0  0  0  0  0  0  0
    8.2959  -13.7007  -24.3038 S   0  0  0  0  0  0  0  0  0  0  0  0
   15.7262  -15.2340  -24.9406 O   0  0  0  0  0  0  0  0  0  0  0  0
   10.5435  -13.8445  -22.8710 C   0  0  0  0  0  0  0  0  0  0  0  0
   11.8928  -14.0478  -22.6362 C   0  0  0  0  0  0  0  0  0  0  0  0
   10.8804  -14.3534  -25.1386 C   0  0  0  0  0  0  0  0  0  0  0  0
   14.0212  -14.6377  -23.5588 N   0  0  0  0  0  0  0  0  0  0  0  0
   13.4397  -14.9748  -25.8272 S   0  0  0  0  0  0  0  0  0  0  0  0
   10.0121  -13.9876  -24.1218 C   0  0  0  0  0  0  0  0  0  0  0  0
   14.5463  -14.9704  -24.7342 C   0  0  0  0  0  0  0  0  0  0  0  0
   12.6962  -14.3978  -23.6323 C   0  0  0  0  0  0  0  0  0  0  0  0
   12.1835  -14.5488  -24.8717 C   0  0  0  0  0  0  0  0  0  0  0  0
   14.5426  -14.5735  -22.7261 H   0  0  0  0  0  0  0  0  0  0  0  0
    7.8735  -14.3706  -18.5467 C   0  0  0  0  0  0  0  0  0  0  0  0
    8.5384  -15.6436  -18.0135 C   0  0  0  0  0  0  0  0  0  0  0  0
    9.8697  -15.3169  -17.6783 O   0  0  0  0  0  0  0  0  0  0  0  0
   10.7559  -16.7137  -19.4602 C   0  0  0  0  0  0  0  0  0  0  0  0
   11.8274  -17.0289  -20.3001 C   0  0  0  0  0  0  0  0  0  0  0  0
   12.0720  -14.9709  -18.4675 C   0  0  0  0  0  0  0  0  0  0  0  0
   10.8770  -15.6768  -18.5376 C   0  0  0  0  0  0  0  0  0  0  0  0
   13.0203  -16.3165  -20.2137 C   0  0  0  0  0  0  0  0  0  0  0  0
   13.1338  -15.2881  -19.2963 C   0  0  0  0  0  0  0  0  0  0  0  0
   14.0265  -17.7479  -21.7527 C   0  0  0  0  0  0  0  0  0  0  0  0
   14.1262  -16.5463  -20.9866 O   0  0  0  0  0  0  0  0  0  0  0  0
   14.1941  -13.2766  -19.7133 C   0  0  0  0  0  0  0  0  0  0  0  0
   14.3230  -14.6287  -19.2666 O   0  0  0  0  0  0  0  0  0  0  0  0
 11  1  1  0  0  0
  1  3  2  0  0  0
  1  4  1  0  0  0
 14  2  1  0  0  0
  2 10  1  0  0  0
  2  4  1  0  0  0
  4  5  1  0  0  0
  5  6  1  0  0  0
 36 35  1  0  0  0
 37 38  1  0  0  0
 15 22  2  0  0  0
 14 12  2  0  0  0
 14 13  2  0  0  0
 32 29  2  0  0  0
 29 30  1  0  0  0
 33 30  2  0  0  0
 17 16  2  0  0  0
 16 21  1  0  0  0
 23 17  1  0  0  0
 31 32  1  0  0  0
 31 34  2  0  0  0
 24 18  1  0  0  0
 18 21  2  0  0  0
  7  6  1  0  0  0
 27 28  1  0  0  0
 27 26  1  0  0  0
 10  7  1  0  0  0
  9  8  1  0  0  0
  8 10  1  0  0  0
 26 11  1  0  0  0
  9 11  1  0  0  0
 22 19  1  0  0  0
 19 23  1  0  0  0
 33 36  1  0  0  0
 38 34  1  0  0  0
 28 32  1  0  0  0
 22 20  1  0  0  0
 20 24  1  0  0  0
 21 14  1  0  0  0
 34 33  1  0  0  0
 23 24  2  0  0  0
 19 25  1  0  0  0
M  END
> <minimizedAffinity>
-7.10495

$$$$
4JFK_JFK_A_201


 38 42  0  0  0  0  0  0  0  0999 V2000
   12.9295  -14.9127  -19.9006 C   0  0  0  0  0  0  0  0  0  0  0  0
   10.5864  -15.3025  -19.9825 N   0  0  0  0  0  0  0  0  0  0  0  0
   13.9935  -14.7609  -19.3071 O   0  0  0  0  0  0  0  0  0  0  0  0
   11.8062  -15.2727  -19.1259 C   0  0  0  0  0  0  0  0  0  0  0  0
   12.0688  -16.6034  -18.4379 C   0  0  0  0  0  0  0  0  0  0  0  0
   12.1394  -17.6906  -19.4913 C   0  0  0  0  0  0  0  0  0  0  0  0
   10.7963  -17.8215  -20.1891 C   0  0  0  0  0  0  0  0  0  0  0  0
   11.3168  -16.2709  -22.1212 C   0  0  0  0  0  0  0  0  0  0  0  0
   11.7788  -14.8104  -22.0969 C   0  0  0  0  0  0  0  0  0  0  0  0
   10.4440  -16.4983  -20.8669 C   0  0  0  0  0  0  0  0  0  0  0  0
   12.9536  -14.7091  -21.2350 N   0  0  0  0  0  0  0  0  0  0  0  0
    9.4728  -14.0192  -17.9915 O   0  0  0  0  0  0  0  0  0  0  0  0
    8.2996  -16.0749  -18.9002 O   0  0  0  0  0  0  0  0  0  0  0  0
    9.1346  -14.8545  -19.1927 S   0  0  0  0  0  0  0  0  0  0  0  0
    6.0071  -11.3458  -25.1821 O   0  0  0  0  0  0  0  0  0  0  0  0
    7.2506  -13.0781  -19.8411 C   0  0  0  0  0  0  0  0  0  0  0  0
    6.4765  -12.2911  -20.6768 C   0  0  0  0  0  0  0  0  0  0  0  0
    8.3997  -13.9048  -21.7148 C   0  0  0  0  0  0  0  0  0  0  0  0
    6.0109  -11.6081  -22.9231 N   0  0  0  0  0  0  0  0  0  0  0  0
    7.5938  -12.9021  -24.1138 S   0  0  0  0  0  0  0  0  0  0  0  0
    8.2207  -13.9010  -20.3402 C   0  0  0  0  0  0  0  0  0  0  0  0
    6.4434  -11.8561  -24.1558 C   0  0  0  0  0  0  0  0  0  0  0  0
    6.6744  -12.3185  -21.9884 C   0  0  0  0  0  0  0  0  0  0  0  0
    7.6334  -13.1221  -22.4944 C   0  0  0  0  0  0  0  0  0  0  0  0
    5.2859  -10.9752  -22.7156 H   0  0  0  0  0  0  0  0  0  0  0  0
   14.2902  -14.3895  -21.8337 C   0  0  0  0  0  0  0  0  0  0  0  0
   14.5150  -12.9160  -22.1874 C   0  0  0  0  0  0  0  0  0  0  0  0
   15.7774  -12.5461  -21.6766 O   0  0  0  0  0  0  0  0  0  0  0  0
   15.7486  -10.2518  -22.4808 C   0  0  0  0  0  0  0  0  0  0  0  0
   16.0799   -8.9122  -22.2602 C   0  0  0  0  0  0  0  0  0  0  0  0
   16.7143  -10.8198  -20.3595 C   0  0  0  0  0  0  0  0  0  0  0  0
   16.0662  -11.2135  -21.5241 C   0  0  0  0  0  0  0  0  0  0  0  0
   16.7344   -8.5343  -21.0911 C   0  0  0  0  0  0  0  0  0  0  0  0
   17.0463   -9.4935  -20.1453 C   0  0  0  0  0  0  0  0  0  0  0  0
   18.1180   -6.7437  -21.6472 C   0  0  0  0  0  0  0  0  0  0  0  0
   17.1033   -7.2535  -20.7804 O   0  0  0  0  0  0  0  0  0  0  0  0
   17.3510   -9.8529  -17.8820 C   0  0  0  0  0  0  0  0  0  0  0  0
   17.6803   -9.0577  -19.0237 O   0  0  0  0  0  0  0  0  0  0  0  0
 11  1  1  0  0  0
  1  3  2  0  0  0
  1  4  1  0  0  0
 14  2  1  0  0  0
  2 10  1  0  0  0
  2  4  1  0  0  0
  4  5  1  0  0  0
  5  6  1  0  0  0
 36 35  1  0  0  0
 37 38  1  0  0  0
 15 22  2  0  0  0
 14 12  2  0  0  0
 14 13  2  0  0  0
 32 29  2  0  0  0
 29 30  1  0  0  0
 33 30  2  0  0  0
 17 16  2  0  0  0
 16 21  1  0  0  0
 23 17  1  0  0  0
 31 32  1  0  0  0
 31 34  2  0  0  0
 24 18  1  0  0  0
 18 21  2  0  0  0
  7  6  1  0  0  0
 27 28  1  0  0  0
 27 26  1  0  0  0
 10  7  1  0  0  0
  9  8  1  0  0  0
  8 10  1  0  0  0
 26 11  1  0  0  0
  9 11  1  0  0  0
 22 19  1  0  0  0
 19 23  1  0  0  0
 33 36  1  0  0  0
 38 34  1  0  0  0
 28 32  1  0  0  0
 22 20  1  0  0  0
 20 24  1  0  0  0
 21 14  1  0  0  0
 34 33  1  0  0  0
 23 24  2  0  0  0
 19 25  1  0  0  0
M  END
> <minimizedAffinity>
-6.97217

$$$$
