2GLP_BDE_A_3001


 24 25  0  0  0  0  0  0  0  0999 V2000
  -87.7631   66.3694  104.3643 N   0  0  0  0  0  0  0  0  0  0  0  0
  -88.1084   65.1167  104.6133 C   0  0  0  0  0  0  0  0  0  0  0  0
  -89.2396   64.4133  104.2067 C   0  0  0  0  0  0  0  0  0  0  0  0
  -89.2436   63.4085  103.2383 C   0  0  0  0  0  0  0  0  0  0  0  0
  -90.4576   62.8654  102.8170 C   0  0  0  0  0  0  0  0  0  0  0  0
  -90.5880   61.5318  101.4762 Br  0  0  0  0  0  0  0  0  0  0  0  0
  -91.6585   63.3161  103.3565 C   0  0  0  0  0  0  0  0  0  0  0  0
  -92.8393   62.8029  102.9164 O   0  0  0  0  0  0  0  0  0  0  0  0
  -91.6516   64.3116  104.3264 C   0  0  0  0  0  0  0  0  0  0  0  0
  -93.2925   64.9415  105.0326 Br  0  0  0  0  0  0  0  0  0  0  0  0
  -90.4434   64.8553  104.7502 C   0  0  0  0  0  0  0  0  0  0  0  0
  -90.4467   65.8206  105.7102 O   0  0  0  0  0  0  0  0  0  0  0  0
  -92.8438   62.1317  102.2625 H   0  0  0  0  0  0  0  0  0  0  0  0
  -89.6383   66.1933  106.0027 H   0  0  0  0  0  0  0  0  0  0  0  0
  -86.4787   67.9011  105.4181 C   0  0  0  0  0  0  0  0  0  0  0  0
  -87.3793   68.4389  106.0619 O   0  0  0  0  0  0  0  0  0  0  0  0
  -86.6507   66.7911  104.6958 N   0  0  0  0  0  0  0  0  0  0  0  0
  -85.8540   66.2856  104.4147 H   0  0  0  0  0  0  0  0  0  0  0  0
  -84.0566   67.9650  104.7039 C   0  0  0  0  0  0  0  0  0  0  0  0
  -82.7601   68.4516  104.8380 C   0  0  0  0  0  0  0  0  0  0  0  0
  -82.5447   69.5382  105.6812 C   0  0  0  0  0  0  0  0  0  0  0  0
  -83.5573   70.0904  106.3281 N   0  0  0  0  0  0  0  0  0  0  0  0
  -84.8030   69.6539  106.2222 C   0  0  0  0  0  0  0  0  0  0  0  0
  -85.0976   68.5644  105.4070 C   0  0  0  0  0  0  0  0  0  0  0  0
 19 20  2  0  0  0
 19 24  1  0  0  0
 20 21  1  0  0  0
 21 22  2  0  0  0
 22 23  1  0  0  0
 23 24  2  0  0  0
 24 15  1  0  0  0
 15 16  2  0  0  0
 15 17  1  0  0  0
 17  1  1  0  0  0
  1  2  2  0  0  0
  2  3  1  0  0  0
  3  4  2  0  0  0
  3 11  1  0  0  0
  4  5  1  0  0  0
  5  6  1  0  0  0
  5  7  2  0  0  0
  7  8  1  0  0  0
  7  9  1  0  0  0
  9 10  1  0  0  0
  9 11  2  0  0  0
 11 12  1  0  0  0
 17 18  1  0  0  0
  8 13  1  0  0  0
 12 14  1  0  0  0
M  END
> <minimizedAffinity>
-8.42898

$$$$
2GLP_BDE_A_3001


 24 25  0  0  0  0  0  0  0  0999 V2000
  -89.5514   67.1808  104.8733 N   0  0  0  0  0  0  0  0  0  0  0  0
  -90.1138   66.1215  105.4320 C   0  0  0  0  0  0  0  0  0  0  0  0
  -91.4140   65.6392  105.3037 C   0  0  0  0  0  0  0  0  0  0  0  0
  -92.5556   66.4401  105.2490 C   0  0  0  0  0  0  0  0  0  0  0  0
  -93.8156   65.8414  105.2532 C   0  0  0  0  0  0  0  0  0  0  0  0
  -95.4335   66.8287  105.2297 Br  0  0  0  0  0  0  0  0  0  0  0  0
  -93.9398   64.4565  105.3087 C   0  0  0  0  0  0  0  0  0  0  0  0
  -95.1732   63.8831  105.3445 O   0  0  0  0  0  0  0  0  0  0  0  0
  -92.8014   63.6605  105.3554 C   0  0  0  0  0  0  0  0  0  0  0  0
  -92.9797   61.7777  105.4626 Br  0  0  0  0  0  0  0  0  0  0  0  0
  -91.5429   64.2532  105.3503 C   0  0  0  0  0  0  0  0  0  0  0  0
  -90.4340   63.4640  105.3830 O   0  0  0  0  0  0  0  0  0  0  0  0
  -95.9405   64.4198  105.3130 H   0  0  0  0  0  0  0  0  0  0  0  0
  -89.5817   63.8533  105.3799 H   0  0  0  0  0  0  0  0  0  0  0  0
  -87.8348   68.2939  105.8327 C   0  0  0  0  0  0  0  0  0  0  0  0
  -88.4753   68.7963  106.7557 O   0  0  0  0  0  0  0  0  0  0  0  0
  -88.3394   67.3846  104.9948 N   0  0  0  0  0  0  0  0  0  0  0  0
  -87.7166   66.8524  104.4488 H   0  0  0  0  0  0  0  0  0  0  0  0
  -85.3707   67.8314  105.5241 C   0  0  0  0  0  0  0  0  0  0  0  0
  -84.0456   68.2547  105.5044 C   0  0  0  0  0  0  0  0  0  0  0  0
  -83.7861   69.6212  105.5635 C   0  0  0  0  0  0  0  0  0  0  0  0
  -84.7841   70.4864  105.6294 N   0  0  0  0  0  0  0  0  0  0  0  0
  -86.0559   70.1183  105.6482 C   0  0  0  0  0  0  0  0  0  0  0  0
  -86.3964   68.7690  105.6034 C   0  0  0  0  0  0  0  0  0  0  0  0
 19 20  2  0  0  0
 19 24  1  0  0  0
 20 21  1  0  0  0
 21 22  2  0  0  0
 22 23  1  0  0  0
 23 24  2  0  0  0
 24 15  1  0  0  0
 15 16  2  0  0  0
 15 17  1  0  0  0
 17  1  1  0  0  0
  1  2  2  0  0  0
  2  3  1  0  0  0
  3  4  2  0  0  0
  3 11  1  0  0  0
  4  5  1  0  0  0
  5  6  1  0  0  0
  5  7  2  0  0  0
  7  8  1  0  0  0
  7  9  1  0  0  0
  9 10  1  0  0  0
  9 11  2  0  0  0
 11 12  1  0  0  0
 17 18  1  0  0  0
  8 13  1  0  0  0
 12 14  1  0  0  0
M  END
> <minimizedAffinity>
-8.31975

$$$$
2GLP_BDE_A_3001


 24 25  0  0  0  0  0  0  0  0999 V2000
  -88.0109   65.9360  104.1259 N   0  0  0  0  0  0  0  0  0  0  0  0
  -88.2463   64.6972  104.5269 C   0  0  0  0  0  0  0  0  0  0  0  0
  -89.1228   63.7497  104.0042 C   0  0  0  0  0  0  0  0  0  0  0  0
  -90.1904   63.1853  104.7036 C   0  0  0  0  0  0  0  0  0  0  0  0
  -90.9208   62.1483  104.1226 C   0  0  0  0  0  0  0  0  0  0  0  0
  -92.3586   61.2755  104.9968 Br  0  0  0  0  0  0  0  0  0  0  0  0
  -90.5939   61.6778  102.8546 C   0  0  0  0  0  0  0  0  0  0  0  0
  -91.2918   60.6448  102.3094 O   0  0  0  0  0  0  0  0  0  0  0  0
  -89.5350   62.2465  102.1567 C   0  0  0  0  0  0  0  0  0  0  0  0
  -89.0767   61.5789  100.4442 Br  0  0  0  0  0  0  0  0  0  0  0  0
  -88.8046   63.2814  102.7316 C   0  0  0  0  0  0  0  0  0  0  0  0
  -87.7777   63.8405  102.0343 O   0  0  0  0  0  0  0  0  0  0  0  0
  -92.0056   60.2615  102.7800 H   0  0  0  0  0  0  0  0  0  0  0  0
  -87.2795   64.5381  102.4126 H   0  0  0  0  0  0  0  0  0  0  0  0
  -87.3015   67.7224  105.3139 C   0  0  0  0  0  0  0  0  0  0  0  0
  -88.3994   68.0557  105.7591 O   0  0  0  0  0  0  0  0  0  0  0  0
  -87.0954   66.5947  104.6290 N   0  0  0  0  0  0  0  0  0  0  0  0
  -86.1711   66.2738  104.5200 H   0  0  0  0  0  0  0  0  0  0  0  0
  -84.8375   68.1469  105.6736 C   0  0  0  0  0  0  0  0  0  0  0  0
  -83.7869   68.9807  106.0429 C   0  0  0  0  0  0  0  0  0  0  0  0
  -84.0534   70.3324  106.2434 C   0  0  0  0  0  0  0  0  0  0  0  0
  -85.2786   70.8016  106.0768 N   0  0  0  0  0  0  0  0  0  0  0  0
  -86.3004   70.0369  105.7243 C   0  0  0  0  0  0  0  0  0  0  0  0
  -86.1167   68.6726  105.5160 C   0  0  0  0  0  0  0  0  0  0  0  0
 19 20  2  0  0  0
 19 24  1  0  0  0
 20 21  1  0  0  0
 21 22  2  0  0  0
 22 23  1  0  0  0
 23 24  2  0  0  0
 24 15  1  0  0  0
 15 16  2  0  0  0
 15 17  1  0  0  0
 17  1  1  0  0  0
  1  2  2  0  0  0
  2  3  1  0  0  0
  3  4  2  0  0  0
  3 11  1  0  0  0
  4  5  1  0  0  0
  5  6  1  0  0  0
  5  7  2  0  0  0
  7  8  1  0  0  0
  7  9  1  0  0  0
  9 10  1  0  0  0
  9 11  2  0  0  0
 11 12  1  0  0  0
 17 18  1  0  0  0
  8 13  1  0  0  0
 12 14  1  0  0  0
M  END
> <minimizedAffinity>
-8.14530

$$$$
2GLP_BDE_A_3001


 24 25  0  0  0  0  0  0  0  0999 V2000
  -89.6569   66.0606  105.3310 N   0  0  0  0  0  0  0  0  0  0  0  0
  -89.6433   67.2712  104.7972 C   0  0  0  0  0  0  0  0  0  0  0  0
  -89.0365   68.4358  105.2610 C   0  0  0  0  0  0  0  0  0  0  0  0
  -89.7063   69.6346  105.5096 C   0  0  0  0  0  0  0  0  0  0  0  0
  -88.9742   70.7736  105.8454 C   0  0  0  0  0  0  0  0  0  0  0  0
  -89.7716   72.4647  106.1578 Br  0  0  0  0  0  0  0  0  0  0  0  0
  -87.5867   70.7207  105.9359 C   0  0  0  0  0  0  0  0  0  0  0  0
  -86.8790   71.8442  106.2328 O   0  0  0  0  0  0  0  0  0  0  0  0
  -86.9223   69.5238  105.6953 C   0  0  0  0  0  0  0  0  0  0  0  0
  -85.0312   69.4678  105.7897 Br  0  0  0  0  0  0  0  0  0  0  0  0
  -87.6483   68.3852  105.3612 C   0  0  0  0  0  0  0  0  0  0  0  0
  -86.9889   67.2148  105.1404 O   0  0  0  0  0  0  0  0  0  0  0  0
  -87.3271   72.6510  106.3950 H   0  0  0  0  0  0  0  0  0  0  0  0
  -87.4686   66.4422  104.9148 H   0  0  0  0  0  0  0  0  0  0  0  0
  -89.3963   64.1009  104.2366 C   0  0  0  0  0  0  0  0  0  0  0  0
  -88.2468   63.8690  104.6100 O   0  0  0  0  0  0  0  0  0  0  0  0
  -90.1363   65.1067  104.7101 N   0  0  0  0  0  0  0  0  0  0  0  0
  -91.1086   65.0869  104.5571 H   0  0  0  0  0  0  0  0  0  0  0  0
  -91.1404   62.4730  103.4064 C   0  0  0  0  0  0  0  0  0  0  0  0
  -91.5848   61.5293  102.4860 C   0  0  0  0  0  0  0  0  0  0  0  0
  -90.8603   61.3599  101.3092 C   0  0  0  0  0  0  0  0  0  0  0  0
  -89.7815   62.0897  101.0803 N   0  0  0  0  0  0  0  0  0  0  0  0
  -89.3321   62.9973  101.9333 C   0  0  0  0  0  0  0  0  0  0  0  0
  -89.9954   63.2174  103.1375 C   0  0  0  0  0  0  0  0  0  0  0  0
 19 20  2  0  0  0
 19 24  1  0  0  0
 20 21  1  0  0  0
 21 22  2  0  0  0
 22 23  1  0  0  0
 23 24  2  0  0  0
 24 15  1  0  0  0
 15 16  2  0  0  0
 15 17  1  0  0  0
 17  1  1  0  0  0
  1  2  2  0  0  0
  2  3  1  0  0  0
  3  4  2  0  0  0
  3 11  1  0  0  0
  4  5  1  0  0  0
  5  6  1  0  0  0
  5  7  2  0  0  0
  7  8  1  0  0  0
  7  9  1  0  0  0
  9 10  1  0  0  0
  9 11  2  0  0  0
 11 12  1  0  0  0
 17 18  1  0  0  0
  8 13  1  0  0  0
 12 14  1  0  0  0
M  END
> <minimizedAffinity>
-7.58539

$$$$
2GLP_BDE_A_3001


 24 25  0  0  0  0  0  0  0  0999 V2000
  -88.3982   68.1216  105.9917 N   0  0  0  0  0  0  0  0  0  0  0  0
  -89.3092   67.9495  105.0477 C   0  0  0  0  0  0  0  0  0  0  0  0
  -90.4273   67.1193  105.0382 C   0  0  0  0  0  0  0  0  0  0  0  0
  -91.7395   67.5533  105.2315 C   0  0  0  0  0  0  0  0  0  0  0  0
  -92.7658   66.6138  105.3333 C   0  0  0  0  0  0  0  0  0  0  0  0
  -94.5758   67.0840  105.6429 Br  0  0  0  0  0  0  0  0  0  0  0  0
  -92.4899   65.2530  105.2408 C   0  0  0  0  0  0  0  0  0  0  0  0
  -93.4928   64.3431  105.3731 O   0  0  0  0  0  0  0  0  0  0  0  0
  -91.1833   64.8234  105.0406 C   0  0  0  0  0  0  0  0  0  0  0  0
  -90.8121   62.9682  104.9474 Br  0  0  0  0  0  0  0  0  0  0  0  0
  -90.1569   65.7567  104.9375 C   0  0  0  0  0  0  0  0  0  0  0  0
  -88.8825   65.3261  104.7283 O   0  0  0  0  0  0  0  0  0  0  0  0
  -94.3736   64.6329  105.5080 H   0  0  0  0  0  0  0  0  0  0  0  0
  -88.1840   65.9466  104.6574 H   0  0  0  0  0  0  0  0  0  0  0  0
  -86.2355   68.7449  105.7914 C   0  0  0  0  0  0  0  0  0  0  0  0
  -85.7818   67.6353  105.5124 O   0  0  0  0  0  0  0  0  0  0  0  0
  -87.5420   69.0051  105.8835 N   0  0  0  0  0  0  0  0  0  0  0  0
  -87.8363   69.9444  105.8641 H   0  0  0  0  0  0  0  0  0  0  0  0
  -83.8923   69.5908  106.2093 C   0  0  0  0  0  0  0  0  0  0  0  0
  -83.0141   70.5685  106.6659 C   0  0  0  0  0  0  0  0  0  0  0  0
  -83.5290   71.8194  106.9951 C   0  0  0  0  0  0  0  0  0  0  0  0
  -84.8225   72.0623  106.8657 N   0  0  0  0  0  0  0  0  0  0  0  0
  -85.6853   71.1559  106.4327 C   0  0  0  0  0  0  0  0  0  0  0  0
  -85.2494   69.8778  106.0940 C   0  0  0  0  0  0  0  0  0  0  0  0
 19 20  2  0  0  0
 19 24  1  0  0  0
 20 21  1  0  0  0
 21 22  2  0  0  0
 22 23  1  0  0  0
 23 24  2  0  0  0
 24 15  1  0  0  0
 15 16  2  0  0  0
 15 17  1  0  0  0
 17  1  1  0  0  0
  1  2  2  0  0  0
  2  3  1  0  0  0
  3  4  2  0  0  0
  3 11  1  0  0  0
  4  5  1  0  0  0
  5  6  1  0  0  0
  5  7  2  0  0  0
  7  8  1  0  0  0
  7  9  1  0  0  0
  9 10  1  0  0  0
  9 11  2  0  0  0
 11 12  1  0  0  0
 17 18  1  0  0  0
  8 13  1  0  0  0
 12 14  1  0  0  0
M  END
> <minimizedAffinity>
-7.54297

$$$$
2GLP_BDE_A_3001


 24 25  0  0  0  0  0  0  0  0999 V2000
  -89.5287   67.1126  105.9764 N   0  0  0  0  0  0  0  0  0  0  0  0
  -90.5522   66.9310  105.1578 C   0  0  0  0  0  0  0  0  0  0  0  0
  -91.6644   66.1053  105.3017 C   0  0  0  0  0  0  0  0  0  0  0  0
  -91.6152   64.7121  105.3665 C   0  0  0  0  0  0  0  0  0  0  0  0
  -92.8042   63.9825  105.3777 C   0  0  0  0  0  0  0  0  0  0  0  0
  -92.8588   62.0882  105.4160 Br  0  0  0  0  0  0  0  0  0  0  0  0
  -94.0332   64.6333  105.3276 C   0  0  0  0  0  0  0  0  0  0  0  0
  -95.1868   63.9121  105.3069 O   0  0  0  0  0  0  0  0  0  0  0  0
  -94.0799   66.0213  105.2708 C   0  0  0  0  0  0  0  0  0  0  0  0
  -95.7562   66.8979  105.1711 Br  0  0  0  0  0  0  0  0  0  0  0  0
  -92.8968   66.7529  105.2605 C   0  0  0  0  0  0  0  0  0  0  0  0
  -92.9538   68.1124  105.2180 O   0  0  0  0  0  0  0  0  0  0  0  0
  -95.1550   62.9764  105.3452 H   0  0  0  0  0  0  0  0  0  0  0  0
  -92.1627   68.6145  105.2107 H   0  0  0  0  0  0  0  0  0  0  0  0
  -87.4602   67.7249  105.3039 C   0  0  0  0  0  0  0  0  0  0  0  0
  -87.1357   66.6467  104.8067 O   0  0  0  0  0  0  0  0  0  0  0  0
  -88.6911   67.9910  105.7480 N   0  0  0  0  0  0  0  0  0  0  0  0
  -88.9425   68.9306  105.9004 H   0  0  0  0  0  0  0  0  0  0  0  0
  -85.0411   68.4441  105.4112 C   0  0  0  0  0  0  0  0  0  0  0  0
  -84.0612   69.3753  105.7398 C   0  0  0  0  0  0  0  0  0  0  0  0
  -84.4627   70.6549  106.1138 C   0  0  0  0  0  0  0  0  0  0  0  0
  -85.7473   70.9674  106.1452 N   0  0  0  0  0  0  0  0  0  0  0  0
  -86.7052   70.1066  105.8371 C   0  0  0  0  0  0  0  0  0  0  0  0
  -86.3846   68.8042  105.4640 C   0  0  0  0  0  0  0  0  0  0  0  0
 19 20  2  0  0  0
 19 24  1  0  0  0
 20 21  1  0  0  0
 21 22  2  0  0  0
 22 23  1  0  0  0
 23 24  2  0  0  0
 24 15  1  0  0  0
 15 16  2  0  0  0
 15 17  1  0  0  0
 17  1  1  0  0  0
  1  2  2  0  0  0
  2  3  1  0  0  0
  3  4  2  0  0  0
  3 11  1  0  0  0
  4  5  1  0  0  0
  5  6  1  0  0  0
  5  7  2  0  0  0
  7  8  1  0  0  0
  7  9  1  0  0  0
  9 10  1  0  0  0
  9 11  2  0  0  0
 11 12  1  0  0  0
 17 18  1  0  0  0
  8 13  1  0  0  0
 12 14  1  0  0  0
M  END
> <minimizedAffinity>
-7.50946

$$$$
2GLP_BDE_A_3001


 24 25  0  0  0  0  0  0  0  0999 V2000
  -88.3061   68.4686  106.0884 N   0  0  0  0  0  0  0  0  0  0  0  0
  -89.2262   68.2745  105.1575 C   0  0  0  0  0  0  0  0  0  0  0  0
  -90.5567   67.8869  105.2959 C   0  0  0  0  0  0  0  0  0  0  0  0
  -91.0246   66.5828  105.1287 C   0  0  0  0  0  0  0  0  0  0  0  0
  -92.3973   66.3361  105.1617 C   0  0  0  0  0  0  0  0  0  0  0  0
  -93.1488   64.6157  104.8998 Br  0  0  0  0  0  0  0  0  0  0  0  0
  -93.2979   67.3777  105.3621 C   0  0  0  0  0  0  0  0  0  0  0  0
  -94.6362   67.1322  105.3609 O   0  0  0  0  0  0  0  0  0  0  0  0
  -92.8292   68.6746  105.5360 C   0  0  0  0  0  0  0  0  0  0  0  0
  -94.0633   70.0913  105.7767 Br  0  0  0  0  0  0  0  0  0  0  0  0
  -91.4612   68.9251  105.5049 C   0  0  0  0  0  0  0  0  0  0  0  0
  -91.0118   70.1969  105.6894 O   0  0  0  0  0  0  0  0  0  0  0  0
  -94.9521   66.2578  105.2437 H   0  0  0  0  0  0  0  0  0  0  0  0
  -90.0923   70.3762  105.6703 H   0  0  0  0  0  0  0  0  0  0  0  0
  -86.1712   68.1967  105.3999 C   0  0  0  0  0  0  0  0  0  0  0  0
  -86.2818   67.0329  105.0149 O   0  0  0  0  0  0  0  0  0  0  0  0
  -87.2055   68.9444  105.7928 N   0  0  0  0  0  0  0  0  0  0  0  0
  -87.0851   69.9199  105.8494 H   0  0  0  0  0  0  0  0  0  0  0  0
  -83.7044   68.1551  104.8577 C   0  0  0  0  0  0  0  0  0  0  0  0
  -82.4024   68.5941  105.0754 C   0  0  0  0  0  0  0  0  0  0  0  0
  -82.2038   69.6868  105.9149 C   0  0  0  0  0  0  0  0  0  0  0  0
  -83.2367   70.2889  106.4802 N   0  0  0  0  0  0  0  0  0  0  0  0
  -84.4881   69.8985  106.2932 C   0  0  0  0  0  0  0  0  0  0  0  0
  -84.7677   68.8065  105.4762 C   0  0  0  0  0  0  0  0  0  0  0  0
 19 20  2  0  0  0
 19 24  1  0  0  0
 20 21  1  0  0  0
 21 22  2  0  0  0
 22 23  1  0  0  0
 23 24  2  0  0  0
 24 15  1  0  0  0
 15 16  2  0  0  0
 15 17  1  0  0  0
 17  1  1  0  0  0
  1  2  2  0  0  0
  2  3  1  0  0  0
  3  4  2  0  0  0
  3 11  1  0  0  0
  4  5  1  0  0  0
  5  6  1  0  0  0
  5  7  2  0  0  0
  7  8  1  0  0  0
  7  9  1  0  0  0
  9 10  1  0  0  0
  9 11  2  0  0  0
 11 12  1  0  0  0
 17 18  1  0  0  0
  8 13  1  0  0  0
 12 14  1  0  0  0
M  END
> <minimizedAffinity>
-7.44611

$$$$
2GLP_BDE_A_3001


 24 25  0  0  0  0  0  0  0  0999 V2000
  -88.7683   67.4874  104.6224 N   0  0  0  0  0  0  0  0  0  0  0  0
  -87.6003   67.2349  105.1907 C   0  0  0  0  0  0  0  0  0  0  0  0
  -86.5504   68.1034  105.4785 C   0  0  0  0  0  0  0  0  0  0  0  0
  -85.2187   67.8831  105.1243 C   0  0  0  0  0  0  0  0  0  0  0  0
  -84.2326   68.7578  105.5813 C   0  0  0  0  0  0  0  0  0  0  0  0
  -82.3889   68.5314  105.2036 Br  0  0  0  0  0  0  0  0  0  0  0  0
  -84.5684   69.8449  106.3824 C   0  0  0  0  0  0  0  0  0  0  0  0
  -83.5961   70.6742  106.8495 O   0  0  0  0  0  0  0  0  0  0  0  0
  -85.8963   70.0667  106.7276 C   0  0  0  0  0  0  0  0  0  0  0  0
  -86.3410   71.5307  107.8444 Br  0  0  0  0  0  0  0  0  0  0  0  0
  -86.8830   69.1977  106.2733 C   0  0  0  0  0  0  0  0  0  0  0  0
  -88.1822   69.4313  106.6063 O   0  0  0  0  0  0  0  0  0  0  0  0
  -82.7009   70.5246  106.6167 H   0  0  0  0  0  0  0  0  0  0  0  0
  -88.8544   68.8520  106.3054 H   0  0  0  0  0  0  0  0  0  0  0  0
  -90.7459   66.6410  105.3142 C   0  0  0  0  0  0  0  0  0  0  0  0
  -91.1473   67.6477  105.8976 O   0  0  0  0  0  0  0  0  0  0  0  0
  -89.6400   66.6144  104.5661 N   0  0  0  0  0  0  0  0  0  0  0  0
  -89.5139   65.8645  103.9409 H   0  0  0  0  0  0  0  0  0  0  0  0
  -90.8473   64.1246  105.5097 C   0  0  0  0  0  0  0  0  0  0  0  0
  -91.5577   62.9288  105.4814 C   0  0  0  0  0  0  0  0  0  0  0  0
  -92.9481   62.9857  105.4371 C   0  0  0  0  0  0  0  0  0  0  0  0
  -93.5670   64.1543  105.4297 N   0  0  0  0  0  0  0  0  0  0  0  0
  -92.9222   65.3105  105.4577 C   0  0  0  0  0  0  0  0  0  0  0  0
  -91.5306   65.3371  105.4915 C   0  0  0  0  0  0  0  0  0  0  0  0
 19 20  2  0  0  0
 19 24  1  0  0  0
 20 21  1  0  0  0
 21 22  2  0  0  0
 22 23  1  0  0  0
 23 24  2  0  0  0
 24 15  1  0  0  0
 15 16  2  0  0  0
 15 17  1  0  0  0
 17  1  1  0  0  0
  1  2  2  0  0  0
  2  3  1  0  0  0
  3  4  2  0  0  0
  3 11  1  0  0  0
  4  5  1  0  0  0
  5  6  1  0  0  0
  5  7  2  0  0  0
  7  8  1  0  0  0
  7  9  1  0  0  0
  9 10  1  0  0  0
  9 11  2  0  0  0
 11 12  1  0  0  0
 17 18  1  0  0  0
  8 13  1  0  0  0
 12 14  1  0  0  0
M  END
> <minimizedAffinity>
-7.44277

$$$$
2GLP_BDE_A_3001


 24 25  0  0  0  0  0  0  0  0999 V2000
  -89.8986   66.5407  104.9382 N   0  0  0  0  0  0  0  0  0  0  0  0
  -89.7086   67.4589  105.8717 C   0  0  0  0  0  0  0  0  0  0  0  0
  -89.2993   68.7835  105.7394 C   0  0  0  0  0  0  0  0  0  0  0  0
  -87.9855   69.2274  105.8954 C   0  0  0  0  0  0  0  0  0  0  0  0
  -87.7152   70.5958  105.8704 C   0  0  0  0  0  0  0  0  0  0  0  0
  -85.9792   71.3151  106.1186 Br  0  0  0  0  0  0  0  0  0  0  0  0
  -88.7432   71.5160  105.6889 C   0  0  0  0  0  0  0  0  0  0  0  0
  -88.4743   72.8497  105.6978 O   0  0  0  0  0  0  0  0  0  0  0  0
  -90.0499   71.0712  105.5261 C   0  0  0  0  0  0  0  0  0  0  0  0
  -91.4475   72.3317  105.3112 Br  0  0  0  0  0  0  0  0  0  0  0  0
  -90.3239   69.7076  105.5493 C   0  0  0  0  0  0  0  0  0  0  0  0
  -91.6053   69.2818  105.3758 O   0  0  0  0  0  0  0  0  0  0  0  0
  -87.5934   73.1494  105.8076 H   0  0  0  0  0  0  0  0  0  0  0  0
  -91.8005   68.3655  105.3897 H   0  0  0  0  0  0  0  0  0  0  0  0
  -89.8398   64.2825  104.8831 C   0  0  0  0  0  0  0  0  0  0  0  0
  -88.6687   64.1688  104.5219 O   0  0  0  0  0  0  0  0  0  0  0  0
  -90.3956   65.4473  105.2259 N   0  0  0  0  0  0  0  0  0  0  0  0
  -91.2404   65.4339  105.7313 H   0  0  0  0  0  0  0  0  0  0  0  0
  -92.0682   63.1435  105.2267 C   0  0  0  0  0  0  0  0  0  0  0  0
  -92.8322   61.9980  105.4255 C   0  0  0  0  0  0  0  0  0  0  0  0
  -92.2153   60.7580  105.2842 C   0  0  0  0  0  0  0  0  0  0  0  0
  -90.9350   60.6839  104.9616 N   0  0  0  0  0  0  0  0  0  0  0  0
  -90.1795   61.7531  104.7636 C   0  0  0  0  0  0  0  0  0  0  0  0
  -90.7207   63.0290  104.8971 C   0  0  0  0  0  0  0  0  0  0  0  0
 19 20  2  0  0  0
 19 24  1  0  0  0
 20 21  1  0  0  0
 21 22  2  0  0  0
 22 23  1  0  0  0
 23 24  2  0  0  0
 24 15  1  0  0  0
 15 16  2  0  0  0
 15 17  1  0  0  0
 17  1  1  0  0  0
  1  2  2  0  0  0
  2  3  1  0  0  0
  3  4  2  0  0  0
  3 11  1  0  0  0
  4  5  1  0  0  0
  5  6  1  0  0  0
  5  7  2  0  0  0
  7  8  1  0  0  0
  7  9  1  0  0  0
  9 10  1  0  0  0
  9 11  2  0  0  0
 11 12  1  0  0  0
 17 18  1  0  0  0
  8 13  1  0  0  0
 12 14  1  0  0  0
M  END
> <minimizedAffinity>
-7.39243

$$$$
2GLP_BDE_A_3001


 24 25  0  0  0  0  0  0  0  0999 V2000
  -90.9637   64.0922  105.0721 N   0  0  0  0  0  0  0  0  0  0  0  0
  -91.8322   64.9692  104.5955 C   0  0  0  0  0  0  0  0  0  0  0  0
  -92.1503   66.2423  105.0619 C   0  0  0  0  0  0  0  0  0  0  0  0
  -93.4455   66.6904  105.3247 C   0  0  0  0  0  0  0  0  0  0  0  0
  -93.6546   68.0278  105.6618 C   0  0  0  0  0  0  0  0  0  0  0  0
  -95.3722   68.7581  105.9928 Br  0  0  0  0  0  0  0  0  0  0  0  0
  -92.5835   68.9127  105.7398 C   0  0  0  0  0  0  0  0  0  0  0  0
  -92.8008   70.2223  106.0382 O   0  0  0  0  0  0  0  0  0  0  0  0
  -91.2934   68.4625  105.4852 C   0  0  0  0  0  0  0  0  0  0  0  0
  -89.8448   69.6805  105.5627 Br  0  0  0  0  0  0  0  0  0  0  0  0
  -91.0802   67.1294  105.1497 C   0  0  0  0  0  0  0  0  0  0  0  0
  -89.8113   66.6956  104.9151 O   0  0  0  0  0  0  0  0  0  0  0  0
  -93.6706   70.5256  106.2098 H   0  0  0  0  0  0  0  0  0  0  0  0
  -89.6569   65.7996  104.6884 H   0  0  0  0  0  0  0  0  0  0  0  0
  -89.6300   62.9144  103.6792 C   0  0  0  0  0  0  0  0  0  0  0  0
  -88.6505   63.6569  103.7412 O   0  0  0  0  0  0  0  0  0  0  0  0
  -90.7122   63.0562  104.4486 N   0  0  0  0  0  0  0  0  0  0  0  0
  -91.3385   62.3001  104.5222 H   0  0  0  0  0  0  0  0  0  0  0  0
  -90.6311   61.7586  101.6685 C   0  0  0  0  0  0  0  0  0  0  0  0
  -90.7495   60.6517  100.8341 C   0  0  0  0  0  0  0  0  0  0  0  0
  -89.8469   59.6036  100.9926 C   0  0  0  0  0  0  0  0  0  0  0  0
  -88.8998   59.6736  101.9129 N   0  0  0  0  0  0  0  0  0  0  0  0
  -88.7577   60.7121  102.7219 C   0  0  0  0  0  0  0  0  0  0  0  0
  -89.6282   61.7950  102.6329 C   0  0  0  0  0  0  0  0  0  0  0  0
 19 20  2  0  0  0
 19 24  1  0  0  0
 20 21  1  0  0  0
 21 22  2  0  0  0
 22 23  1  0  0  0
 23 24  2  0  0  0
 24 15  1  0  0  0
 15 16  2  0  0  0
 15 17  1  0  0  0
 17  1  1  0  0  0
  1  2  2  0  0  0
  2  3  1  0  0  0
  3  4  2  0  0  0
  3 11  1  0  0  0
  4  5  1  0  0  0
  5  6  1  0  0  0
  5  7  2  0  0  0
  7  8  1  0  0  0
  7  9  1  0  0  0
  9 10  1  0  0  0
  9 11  2  0  0  0
 11 12  1  0  0  0
 17 18  1  0  0  0
  8 13  1  0  0  0
 12 14  1  0  0  0
M  END
> <minimizedAffinity>
-7.37852

$$$$
