1W5X_BE5_A_501


 58 63  0  0  0  0  0  0  0  0999 V2000
   13.6808   22.7060    5.0400 C   0  0  0  0  0  0  0  0  0  0  0  0
   14.2077   22.4317    3.6770 O   0  0  0  0  0  0  0  0  0  0  0  0
   14.9751   22.9999    3.5066 H   0  0  0  0  0  0  0  0  0  0  0  0
   13.2639   24.1005    5.1131 C   0  0  0  0  0  0  0  0  0  0  0  0
   14.2798   24.9355    4.4961 O   0  0  0  0  0  0  0  0  0  0  0  0
   14.4057   24.6631    3.5737 H   0  0  0  0  0  0  0  0  0  0  0  0
   11.8773   24.2286    4.3435 C   0  0  0  0  0  0  0  0  0  0  0  0
   10.6985   24.2504    5.3025 C   0  0  0  0  0  0  0  0  0  0  0  0
   10.3373   23.2101    5.9086 O   0  0  0  0  0  0  0  0  0  0  0  0
   10.0331   25.4313    5.4646 N   0  0  0  0  0  0  0  0  0  0  0  0
   10.3500   26.2178    4.9643 H   0  0  0  0  0  0  0  0  0  0  0  0
    8.8891   25.5872    6.3312 C   0  0  0  0  0  0  0  0  0  0  0  0
    9.2606   26.2523    7.6502 C   0  0  0  0  0  0  0  0  0  0  0  0
    8.2191   27.1884    8.0384 C   0  0  0  0  0  0  0  0  0  0  0  0
   10.4514   26.0733    8.4952 C   0  0  0  0  0  0  0  0  0  0  0  0
   10.5740   26.8664    9.7563 C   0  0  0  0  0  0  0  0  0  0  0  0
    9.5016   27.8005   10.1134 C   0  0  0  0  0  0  0  0  0  0  0  0
    7.8568   26.5940    5.7569 C   0  0  0  0  0  0  0  0  0  0  0  0
    8.5896   27.5926    5.0008 O   0  0  0  0  0  0  0  0  0  0  0  0
    8.3133   27.9849    9.2780 C   0  0  0  0  0  0  0  0  0  0  0  0
    7.1413   27.1592    6.9963 C   0  0  0  0  0  0  0  0  0  0  0  0
    9.2604   28.0012    5.5700 H   0  0  0  0  0  0  0  0  0  0  0  0
   11.6712   23.1271    3.3569 O   0  0  0  0  0  0  0  0  0  0  0  0
   11.0701   23.4080    2.0536 C   0  0  0  0  0  0  0  0  0  0  0  0
    9.5928   23.7764    2.2551 C   0  0  0  0  0  0  0  0  0  0  0  0
    9.1991   25.1672    1.9627 C   0  0  0  0  0  0  0  0  0  0  0  0
    7.8346   25.6344    2.1184 C   0  0  0  0  0  0  0  0  0  0  0  0
    6.7823   24.7182    2.5847 C   0  0  0  0  0  0  0  0  0  0  0  0
    7.1383   23.3148    2.8910 C   0  0  0  0  0  0  0  0  0  0  0  0
    8.5125   22.8596    2.7281 C   0  0  0  0  0  0  0  0  0  0  0  0
    6.1095   22.3796    3.3604 F   0  0  0  0  0  0  0  0  0  0  0  0
    8.9189   21.4276    3.0365 F   0  0  0  0  0  0  0  0  0  0  0  0
   14.7788   22.4048    6.0223 C   0  0  0  0  0  0  0  0  0  0  0  0
   15.0185   20.9528    5.9051 C   0  0  0  0  0  0  0  0  0  0  0  0
   14.1287   20.1430    6.2713 O   0  0  0  0  0  0  0  0  0  0  0  0
   16.2004   20.5219    5.3948 N   0  0  0  0  0  0  0  0  0  0  0  0
   16.8741   21.1831    5.1150 H   0  0  0  0  0  0  0  0  0  0  0  0
   16.4912   19.1102    5.2532 C   0  0  0  0  0  0  0  0  0  0  0  0
   16.3725   18.7117    3.8169 C   0  0  0  0  0  0  0  0  0  0  0  0
   17.3194   17.6320    3.5273 C   0  0  0  0  0  0  0  0  0  0  0  0
   15.4887   19.2415    2.7505 C   0  0  0  0  0  0  0  0  0  0  0  0
   15.5796   18.6569    1.3747 C   0  0  0  0  0  0  0  0  0  0  0  0
   16.5426   17.5719    1.1175 C   0  0  0  0  0  0  0  0  0  0  0  0
   17.9412   18.6414    5.5487 C   0  0  0  0  0  0  0  0  0  0  0  0
   18.8278   19.6921    5.0918 O   0  0  0  0  0  0  0  0  0  0  0  0
   17.4207   17.0446    2.1798 C   0  0  0  0  0  0  0  0  0  0  0  0
   18.0667   17.3035    4.7612 C   0  0  0  0  0  0  0  0  0  0  0  0
   18.6452   19.8865    4.1592 H   0  0  0  0  0  0  0  0  0  0  0  0
   14.4213   22.7913    7.4607 O   0  0  0  0  0  0  0  0  0  0  0  0
   15.4761   23.0998    8.4290 C   0  0  0  0  0  0  0  0  0  0  0  0
   16.2919   21.8496    8.7383 C   0  0  0  0  0  0  0  0  0  0  0  0
   15.7239   20.6592    9.3995 C   0  0  0  0  0  0  0  0  0  0  0  0
   16.5886   19.4686    9.6587 C   0  0  0  0  0  0  0  0  0  0  0  0
   18.0305   19.4984    9.2453 C   0  0  0  0  0  0  0  0  0  0  0  0
   18.5624   20.7264    8.5794 C   0  0  0  0  0  0  0  0  0  0  0  0
   17.6997   21.8542    8.3423 C   0  0  0  0  0  0  0  0  0  0  0  0
   16.0255   18.2917   10.3083 F   0  0  0  0  0  0  0  0  0  0  0  0
   14.2913   20.6436    9.8035 F   0  0  0  0  0  0  0  0  0  0  0  0
 25 26  2  0  0  0
 25 30  1  0  0  0
 25 24  1  0  0  0
 26 27  1  0  0  0
 27 28  2  0  0  0
 28 29  1  0  0  0
 29 30  2  0  0  0
 29 31  1  0  0  0
 30 32  1  0  0  0
 51 52  2  0  0  0
 51 56  1  0  0  0
 51 50  1  0  0  0
 52 53  1  0  0  0
 52 58  1  0  0  0
 53 54  2  0  0  0
 53 57  1  0  0  0
 54 55  1  0  0  0
 55 56  2  0  0  0
 50 49  1  0  0  0
 49 33  1  0  0  0
 33  1  1  0  0  0
 33 34  1  0  0  0
  1  4  1  0  0  0
  1  2  1  0  0  0
  4  7  1  0  0  0
  4  5  1  0  0  0
  7  8  1  0  0  0
  7 23  1  0  0  0
  8  9  2  0  0  0
  8 10  1  0  0  0
 10 12  1  0  0  0
 23 24  1  0  0  0
 34 35  2  0  0  0
 34 36  1  0  0  0
 36 38  1  0  0  0
 38 39  1  0  0  0
 38 44  1  0  0  0
 39 40  2  0  0  0
 39 41  1  0  0  0
 40 46  1  0  0  0
 40 47  1  0  0  0
 41 42  2  0  0  0
 42 43  1  0  0  0
 43 46  2  0  0  0
 44 45  1  0  0  0
 44 47  1  0  0  0
 12 13  1  0  0  0
 12 18  1  0  0  0
 13 14  2  0  0  0
 13 15  1  0  0  0
 14 20  1  0  0  0
 14 21  1  0  0  0
 15 16  2  0  0  0
 16 17  1  0  0  0
 17 20  2  0  0  0
 18 19  1  0  0  0
 18 21  1  0  0  0
 10 11  1  0  0  0
  5  6  1  0  0  0
  2  3  1  0  0  0
 36 37  1  0  0  0
 45 48  1  0  0  0
 19 22  1  0  0  0
M  END
> <minimizedAffinity>
-13.94297

$$$$
1W5X_BE5_A_501


 58 63  0  0  0  0  0  0  0  0999 V2000
   12.8727   23.7482    5.7055 C   0  0  0  0  0  0  0  0  0  0  0  0
   13.0839   24.9292    6.5838 O   0  0  0  0  0  0  0  0  0  0  0  0
   13.3425   25.6920    6.0433 H   0  0  0  0  0  0  0  0  0  0  0  0
   14.1209   23.4415    5.0186 C   0  0  0  0  0  0  0  0  0  0  0  0
   14.7200   24.6763    4.5429 O   0  0  0  0  0  0  0  0  0  0  0  0
   14.8786   25.2691    5.2941 H   0  0  0  0  0  0  0  0  0  0  0  0
   15.0755   22.7101    6.0604 C   0  0  0  0  0  0  0  0  0  0  0  0
   15.0807   21.2035    5.8611 C   0  0  0  0  0  0  0  0  0  0  0  0
   14.0485   20.5185    6.0740 O   0  0  0  0  0  0  0  0  0  0  0  0
   16.2494   20.6190    5.4659 N   0  0  0  0  0  0  0  0  0  0  0  0
   17.0327   21.1964    5.3168 H   0  0  0  0  0  0  0  0  0  0  0  0
   16.3966   19.1984    5.2552 C   0  0  0  0  0  0  0  0  0  0  0  0
   16.2213   18.8191    3.7904 C   0  0  0  0  0  0  0  0  0  0  0  0
   17.1866   17.7944    3.4298 C   0  0  0  0  0  0  0  0  0  0  0  0
   15.2737   19.3325    2.7891 C   0  0  0  0  0  0  0  0  0  0  0  0
   15.3179   18.7858    1.3986 C   0  0  0  0  0  0  0  0  0  0  0  0
   16.3063   17.7523    1.0742 C   0  0  0  0  0  0  0  0  0  0  0  0
   17.8466   18.7168    5.5282 C   0  0  0  0  0  0  0  0  0  0  0  0
   18.7440   19.8031    5.1811 O   0  0  0  0  0  0  0  0  0  0  0  0
   17.2532   17.2361    2.0645 C   0  0  0  0  0  0  0  0  0  0  0  0
   18.0111   17.4713    4.6398 C   0  0  0  0  0  0  0  0  0  0  0  0
   18.5868   20.0713    4.2622 H   0  0  0  0  0  0  0  0  0  0  0  0
   14.7031   23.0043    7.4761 O   0  0  0  0  0  0  0  0  0  0  0  0
   15.7421   23.1839    8.4894 C   0  0  0  0  0  0  0  0  0  0  0  0
   16.3838   21.8218    8.7921 C   0  0  0  0  0  0  0  0  0  0  0  0
   17.8104   21.6593    8.4558 C   0  0  0  0  0  0  0  0  0  0  0  0
   18.5249   20.4190    8.6919 C   0  0  0  0  0  0  0  0  0  0  0  0
   17.8340   19.2623    9.2824 C   0  0  0  0  0  0  0  0  0  0  0  0
   16.4011   19.3852    9.6315 C   0  0  0  0  0  0  0  0  0  0  0  0
   15.6973   20.6377    9.3902 C   0  0  0  0  0  0  0  0  0  0  0  0
   15.6860   18.2466   10.2194 F   0  0  0  0  0  0  0  0  0  0  0  0
   14.2249   20.8021    9.7307 F   0  0  0  0  0  0  0  0  0  0  0  0
   11.7773   24.0925    4.7345 C   0  0  0  0  0  0  0  0  0  0  0  0
   10.5562   24.2203    5.5544 C   0  0  0  0  0  0  0  0  0  0  0  0
   10.0739   23.2038    6.1162 O   0  0  0  0  0  0  0  0  0  0  0  0
    9.9815   25.4429    5.6893 N   0  0  0  0  0  0  0  0  0  0  0  0
   10.3869   26.2184    5.2382 H   0  0  0  0  0  0  0  0  0  0  0  0
    8.7846   25.6304    6.4830 C   0  0  0  0  0  0  0  0  0  0  0  0
    9.1323   26.3113    7.7680 C   0  0  0  0  0  0  0  0  0  0  0  0
    8.0109   27.1503    8.1978 C   0  0  0  0  0  0  0  0  0  0  0  0
   10.3722   26.2423    8.5784 C   0  0  0  0  0  0  0  0  0  0  0  0
   10.4604   27.0431    9.8408 C   0  0  0  0  0  0  0  0  0  0  0  0
    9.3142   27.8765   10.2442 C   0  0  0  0  0  0  0  0  0  0  0  0
    7.7065   26.6057    5.9389 C   0  0  0  0  0  0  0  0  0  0  0  0
    8.4081   27.6877    5.2788 O   0  0  0  0  0  0  0  0  0  0  0  0
    8.0804   27.9435    9.4376 C   0  0  0  0  0  0  0  0  0  0  0  0
    6.9149   27.0312    7.2110 C   0  0  0  0  0  0  0  0  0  0  0  0
    9.0426   28.0854    5.8954 H   0  0  0  0  0  0  0  0  0  0  0  0
   11.5967   23.0417    3.6348 O   0  0  0  0  0  0  0  0  0  0  0  0
   11.1273   23.4349    2.3041 C   0  0  0  0  0  0  0  0  0  0  0  0
    9.6585   23.8395    2.3599 C   0  0  0  0  0  0  0  0  0  0  0  0
    8.5791   22.9073    2.7382 C   0  0  0  0  0  0  0  0  0  0  0  0
    7.1640   23.3850    2.7784 C   0  0  0  0  0  0  0  0  0  0  0  0
    6.8551   24.8110    2.4292 C   0  0  0  0  0  0  0  0  0  0  0  0
    7.9808   25.7187    2.0509 C   0  0  0  0  0  0  0  0  0  0  0  0
    9.3330   25.2255    2.0259 C   0  0  0  0  0  0  0  0  0  0  0  0
    6.0990   22.4646    3.1561 F   0  0  0  0  0  0  0  0  0  0  0  0
    8.9006   21.4954    3.0830 F   0  0  0  0  0  0  0  0  0  0  0  0
 25 26  2  0  0  0
 25 30  1  0  0  0
 25 24  1  0  0  0
 26 27  1  0  0  0
 27 28  2  0  0  0
 28 29  1  0  0  0
 29 30  2  0  0  0
 29 31  1  0  0  0
 30 32  1  0  0  0
 51 52  2  0  0  0
 51 56  1  0  0  0
 51 50  1  0  0  0
 52 53  1  0  0  0
 52 58  1  0  0  0
 53 54  2  0  0  0
 53 57  1  0  0  0
 54 55  1  0  0  0
 55 56  2  0  0  0
 50 49  1  0  0  0
 49 33  1  0  0  0
 33  1  1  0  0  0
 33 34  1  0  0  0
  1  4  1  0  0  0
  1  2  1  0  0  0
  4  7  1  0  0  0
  4  5  1  0  0  0
  7  8  1  0  0  0
  7 23  1  0  0  0
  8  9  2  0  0  0
  8 10  1  0  0  0
 10 12  1  0  0  0
 23 24  1  0  0  0
 34 35  2  0  0  0
 34 36  1  0  0  0
 36 38  1  0  0  0
 38 39  1  0  0  0
 38 44  1  0  0  0
 39 40  2  0  0  0
 39 41  1  0  0  0
 40 46  1  0  0  0
 40 47  1  0  0  0
 41 42  2  0  0  0
 42 43  1  0  0  0
 43 46  2  0  0  0
 44 45  1  0  0  0
 44 47  1  0  0  0
 12 13  1  0  0  0
 12 18  1  0  0  0
 13 14  2  0  0  0
 13 15  1  0  0  0
 14 20  1  0  0  0
 14 21  1  0  0  0
 15 16  2  0  0  0
 16 17  1  0  0  0
 17 20  2  0  0  0
 18 19  1  0  0  0
 18 21  1  0  0  0
 10 11  1  0  0  0
  5  6  1  0  0  0
  2  3  1  0  0  0
 36 37  1  0  0  0
 45 48  1  0  0  0
 19 22  1  0  0  0
M  END
> <minimizedAffinity>
-13.91288

$$$$
1W5X_BE5_A_501


 58 63  0  0  0  0  0  0  0  0999 V2000
   12.9005   23.5892    5.4843 C   0  0  0  0  0  0  0  0  0  0  0  0
   13.2166   24.7636    6.3397 O   0  0  0  0  0  0  0  0  0  0  0  0
   13.5452   25.4884    5.7851 H   0  0  0  0  0  0  0  0  0  0  0  0
   14.1171   23.1558    4.8091 C   0  0  0  0  0  0  0  0  0  0  0  0
   15.1124   24.2102    4.8952 O   0  0  0  0  0  0  0  0  0  0  0  0
   15.2906   24.4114    5.8273 H   0  0  0  0  0  0  0  0  0  0  0  0
   14.6243   21.8337    5.5344 C   0  0  0  0  0  0  0  0  0  0  0  0
   15.3233   22.1423    6.8481 C   0  0  0  0  0  0  0  0  0  0  0  0
   15.2036   23.2668    7.3968 O   0  0  0  0  0  0  0  0  0  0  0  0
   16.1024   21.1654    7.3980 N   0  0  0  0  0  0  0  0  0  0  0  0
   16.1695   20.3027    6.9285 H   0  0  0  0  0  0  0  0  0  0  0  0
   16.8329   21.3314    8.6321 C   0  0  0  0  0  0  0  0  0  0  0  0
   16.9183   20.0319    9.4221 C   0  0  0  0  0  0  0  0  0  0  0  0
   18.2394   19.9030   10.0138 C   0  0  0  0  0  0  0  0  0  0  0  0
   15.9061   18.9846    9.6290 C   0  0  0  0  0  0  0  0  0  0  0  0
   16.2554   17.7888   10.4551 C   0  0  0  0  0  0  0  0  0  0  0  0
   17.5989   17.6958   11.0353 C   0  0  0  0  0  0  0  0  0  0  0  0
   18.3332   21.6413    8.3830 C   0  0  0  0  0  0  0  0  0  0  0  0
   18.7242   20.9689    7.1578 O   0  0  0  0  0  0  0  0  0  0  0  0
   18.6123   18.7333   10.8340 C   0  0  0  0  0  0  0  0  0  0  0  0
   19.0487   21.1075    9.6363 C   0  0  0  0  0  0  0  0  0  0  0  0
   18.5267   20.0221    7.2314 H   0  0  0  0  0  0  0  0  0  0  0  0
   15.5486   21.0340    4.6769 O   0  0  0  0  0  0  0  0  0  0  0  0
   15.0136   20.0716    3.7145 C   0  0  0  0  0  0  0  0  0  0  0  0
   16.0646   18.9800    3.4644 C   0  0  0  0  0  0  0  0  0  0  0  0
   17.1181   18.8130    4.4827 C   0  0  0  0  0  0  0  0  0  0  0  0
   18.1667   17.8186    4.3556 C   0  0  0  0  0  0  0  0  0  0  0  0
   18.2137   16.9315    3.1830 C   0  0  0  0  0  0  0  0  0  0  0  0
   17.1752   17.0699    2.1378 C   0  0  0  0  0  0  0  0  0  0  0  0
   16.1274   18.0720    2.2801 C   0  0  0  0  0  0  0  0  0  0  0  0
   17.1990   16.2002    0.9561 F   0  0  0  0  0  0  0  0  0  0  0  0
   15.0458   18.2483    1.2265 F   0  0  0  0  0  0  0  0  0  0  0  0
   11.8435   24.0123    4.5020 C   0  0  0  0  0  0  0  0  0  0  0  0
   10.6102   24.1654    5.2989 C   0  0  0  0  0  0  0  0  0  0  0  0
   10.0598   23.1498    5.7961 O   0  0  0  0  0  0  0  0  0  0  0  0
   10.0985   25.4092    5.4835 N   0  0  0  0  0  0  0  0  0  0  0  0
   10.5564   26.1831    5.0826 H   0  0  0  0  0  0  0  0  0  0  0  0
    8.8932   25.6218    6.2579 C   0  0  0  0  0  0  0  0  0  0  0  0
    9.2373   26.2727    7.5594 C   0  0  0  0  0  0  0  0  0  0  0  0
    8.1342   27.1394    7.9814 C   0  0  0  0  0  0  0  0  0  0  0  0
   10.4591   26.1535    8.3912 C   0  0  0  0  0  0  0  0  0  0  0  0
   10.5480   26.9325    9.6672 C   0  0  0  0  0  0  0  0  0  0  0  0
    9.4205   27.7948   10.0622 C   0  0  0  0  0  0  0  0  0  0  0  0
    7.8558   26.6378    5.7093 C   0  0  0  0  0  0  0  0  0  0  0  0
    8.6024   27.7073    5.0787 O   0  0  0  0  0  0  0  0  0  0  0  0
    8.2047   27.9116    9.2343 C   0  0  0  0  0  0  0  0  0  0  0  0
    7.0538   27.0688    6.9731 C   0  0  0  0  0  0  0  0  0  0  0  0
    9.2370   28.0761    5.7129 H   0  0  0  0  0  0  0  0  0  0  0  0
   11.6442   23.0072    3.3634 O   0  0  0  0  0  0  0  0  0  0  0  0
   11.0699   23.4381    2.0867 C   0  0  0  0  0  0  0  0  0  0  0  0
    9.6031   23.8128    2.2665 C   0  0  0  0  0  0  0  0  0  0  0  0
    8.5749   22.8538    2.7142 C   0  0  0  0  0  0  0  0  0  0  0  0
    7.1590   23.3028    2.8754 C   0  0  0  0  0  0  0  0  0  0  0  0
    6.7968   24.7277    2.5761 C   0  0  0  0  0  0  0  0  0  0  0  0
    7.8716   25.6631    2.1244 C   0  0  0  0  0  0  0  0  0  0  0  0
    9.2263   25.1971    1.9831 C   0  0  0  0  0  0  0  0  0  0  0  0
    6.1449   22.3559    3.3215 F   0  0  0  0  0  0  0  0  0  0  0  0
    8.9489   21.4434    3.0083 F   0  0  0  0  0  0  0  0  0  0  0  0
 25 26  2  0  0  0
 25 30  1  0  0  0
 25 24  1  0  0  0
 26 27  1  0  0  0
 27 28  2  0  0  0
 28 29  1  0  0  0
 29 30  2  0  0  0
 29 31  1  0  0  0
 30 32  1  0  0  0
 51 52  2  0  0  0
 51 56  1  0  0  0
 51 50  1  0  0  0
 52 53  1  0  0  0
 52 58  1  0  0  0
 53 54  2  0  0  0
 53 57  1  0  0  0
 54 55  1  0  0  0
 55 56  2  0  0  0
 50 49  1  0  0  0
 49 33  1  0  0  0
 33  1  1  0  0  0
 33 34  1  0  0  0
  1  4  1  0  0  0
  1  2  1  0  0  0
  4  7  1  0  0  0
  4  5  1  0  0  0
  7  8  1  0  0  0
  7 23  1  0  0  0
  8  9  2  0  0  0
  8 10  1  0  0  0
 10 12  1  0  0  0
 23 24  1  0  0  0
 34 35  2  0  0  0
 34 36  1  0  0  0
 36 38  1  0  0  0
 38 39  1  0  0  0
 38 44  1  0  0  0
 39 40  2  0  0  0
 39 41  1  0  0  0
 40 46  1  0  0  0
 40 47  1  0  0  0
 41 42  2  0  0  0
 42 43  1  0  0  0
 43 46  2  0  0  0
 44 45  1  0  0  0
 44 47  1  0  0  0
 12 13  1  0  0  0
 12 18  1  0  0  0
 13 14  2  0  0  0
 13 15  1  0  0  0
 14 20  1  0  0  0
 14 21  1  0  0  0
 15 16  2  0  0  0
 16 17  1  0  0  0
 17 20  2  0  0  0
 18 19  1  0  0  0
 18 21  1  0  0  0
 10 11  1  0  0  0
  5  6  1  0  0  0
  2  3  1  0  0  0
 36 37  1  0  0  0
 45 48  1  0  0  0
 19 22  1  0  0  0
M  END
> <minimizedAffinity>
-12.89889

$$$$
1W5X_BE5_A_501


 58 63  0  0  0  0  0  0  0  0999 V2000
   13.5895   22.6875    5.2201 C   0  0  0  0  0  0  0  0  0  0  0  0
   14.0798   22.6572    3.8167 O   0  0  0  0  0  0  0  0  0  0  0  0
   14.7518   23.3459    3.6941 H   0  0  0  0  0  0  0  0  0  0  0  0
   12.9883   23.9889    5.4821 C   0  0  0  0  0  0  0  0  0  0  0  0
   13.4429   24.9356    4.4785 O   0  0  0  0  0  0  0  0  0  0  0  0
   13.1965   24.6153    3.5967 H   0  0  0  0  0  0  0  0  0  0  0  0
   11.4085   23.8095    5.4211 C   0  0  0  0  0  0  0  0  0  0  0  0
   10.8935   23.8178    3.9912 C   0  0  0  0  0  0  0  0  0  0  0  0
   11.6751   23.6550    3.0204 O   0  0  0  0  0  0  0  0  0  0  0  0
    9.5590   24.0308    3.7979 N   0  0  0  0  0  0  0  0  0  0  0  0
    8.9875   24.1585    4.5893 H   0  0  0  0  0  0  0  0  0  0  0  0
    8.9420   24.0785    2.4936 C   0  0  0  0  0  0  0  0  0  0  0  0
    7.4461   23.7994    2.5610 C   0  0  0  0  0  0  0  0  0  0  0  0
    6.7410   24.6784    1.6434 C   0  0  0  0  0  0  0  0  0  0  0  0
    6.7025   22.8311    3.3817 C   0  0  0  0  0  0  0  0  0  0  0  0
    5.2143   22.7645    3.2581 C   0  0  0  0  0  0  0  0  0  0  0  0
    4.5397   23.6681    2.3207 C   0  0  0  0  0  0  0  0  0  0  0  0
    8.9631   25.5091    1.8919 C   0  0  0  0  0  0  0  0  0  0  0  0
    8.8776   26.4510    2.9926 O   0  0  0  0  0  0  0  0  0  0  0  0
    5.2720   24.6349    1.5005 C   0  0  0  0  0  0  0  0  0  0  0  0
    7.7471   25.5473    0.9499 C   0  0  0  0  0  0  0  0  0  0  0  0
    8.0870   26.2599    3.5210 H   0  0  0  0  0  0  0  0  0  0  0  0
   10.6867   24.8621    6.1958 O   0  0  0  0  0  0  0  0  0  0  0  0
   11.0684   25.1524    7.5774 C   0  0  0  0  0  0  0  0  0  0  0  0
   10.0071   26.0673    8.2059 C   0  0  0  0  0  0  0  0  0  0  0  0
    8.6744   26.0863    7.5746 C   0  0  0  0  0  0  0  0  0  0  0  0
    7.5923   26.9124    8.0757 C   0  0  0  0  0  0  0  0  0  0  0  0
    7.7962   27.7754    9.2495 C   0  0  0  0  0  0  0  0  0  0  0  0
    9.1206   27.7861    9.9095 C   0  0  0  0  0  0  0  0  0  0  0  0
   10.1973   26.9497    9.3960 C   0  0  0  0  0  0  0  0  0  0  0  0
    9.3532   28.6392   11.0806 F   0  0  0  0  0  0  0  0  0  0  0  0
   11.5728   26.9361   10.0431 F   0  0  0  0  0  0  0  0  0  0  0  0
   14.7667   22.4310    6.1198 C   0  0  0  0  0  0  0  0  0  0  0  0
   15.0367   20.9841    6.0047 C   0  0  0  0  0  0  0  0  0  0  0  0
   14.1700   20.1564    6.3860 O   0  0  0  0  0  0  0  0  0  0  0  0
   16.2208   20.5773    5.4798 N   0  0  0  0  0  0  0  0  0  0  0  0
   16.8759   21.2519    5.1885 H   0  0  0  0  0  0  0  0  0  0  0  0
   16.5406   19.1717    5.3394 C   0  0  0  0  0  0  0  0  0  0  0  0
   16.3978   18.7617    3.9086 C   0  0  0  0  0  0  0  0  0  0  0  0
   17.3622   17.7022    3.6031 C   0  0  0  0  0  0  0  0  0  0  0  0
   15.4775   19.2645    2.8602 C   0  0  0  0  0  0  0  0  0  0  0  0
   15.5497   18.6737    1.4859 C   0  0  0  0  0  0  0  0  0  0  0  0
   16.5312   17.6094    1.2125 C   0  0  0  0  0  0  0  0  0  0  0  0
   18.0075   18.7381    5.6036 C   0  0  0  0  0  0  0  0  0  0  0  0
   18.8588   19.8059    5.1202 O   0  0  0  0  0  0  0  0  0  0  0  0
   17.4457   17.1090    2.2569 C   0  0  0  0  0  0  0  0  0  0  0  0
   18.1454   17.3985    4.8210 C   0  0  0  0  0  0  0  0  0  0  0  0
   18.6501   19.9903    4.1910 H   0  0  0  0  0  0  0  0  0  0  0  0
   14.5089   22.8306    7.5758 O   0  0  0  0  0  0  0  0  0  0  0  0
   15.6291   23.1145    8.4758 C   0  0  0  0  0  0  0  0  0  0  0  0
   16.3903   21.8323    8.7931 C   0  0  0  0  0  0  0  0  0  0  0  0
   15.7606   20.6552    9.4217 C   0  0  0  0  0  0  0  0  0  0  0  0
   16.5743   19.4314    9.6912 C   0  0  0  0  0  0  0  0  0  0  0  0
   18.0282   19.4143    9.3213 C   0  0  0  0  0  0  0  0  0  0  0  0
   18.6232   20.6302    8.6874 C   0  0  0  0  0  0  0  0  0  0  0  0
   17.8087   21.7910    8.4393 C   0  0  0  0  0  0  0  0  0  0  0  0
   15.9505   18.2679   10.3085 F   0  0  0  0  0  0  0  0  0  0  0  0
   14.3168   20.6862    9.7826 F   0  0  0  0  0  0  0  0  0  0  0  0
 25 26  2  0  0  0
 25 30  1  0  0  0
 25 24  1  0  0  0
 26 27  1  0  0  0
 27 28  2  0  0  0
 28 29  1  0  0  0
 29 30  2  0  0  0
 29 31  1  0  0  0
 30 32  1  0  0  0
 51 52  2  0  0  0
 51 56  1  0  0  0
 51 50  1  0  0  0
 52 53  1  0  0  0
 52 58  1  0  0  0
 53 54  2  0  0  0
 53 57  1  0  0  0
 54 55  1  0  0  0
 55 56  2  0  0  0
 50 49  1  0  0  0
 49 33  1  0  0  0
 33  1  1  0  0  0
 33 34  1  0  0  0
  1  4  1  0  0  0
  1  2  1  0  0  0
  4  7  1  0  0  0
  4  5  1  0  0  0
  7  8  1  0  0  0
  7 23  1  0  0  0
  8  9  2  0  0  0
  8 10  1  0  0  0
 10 12  1  0  0  0
 23 24  1  0  0  0
 34 35  2  0  0  0
 34 36  1  0  0  0
 36 38  1  0  0  0
 38 39  1  0  0  0
 38 44  1  0  0  0
 39 40  2  0  0  0
 39 41  1  0  0  0
 40 46  1  0  0  0
 40 47  1  0  0  0
 41 42  2  0  0  0
 42 43  1  0  0  0
 43 46  2  0  0  0
 44 45  1  0  0  0
 44 47  1  0  0  0
 12 13  1  0  0  0
 12 18  1  0  0  0
 13 14  2  0  0  0
 13 15  1  0  0  0
 14 20  1  0  0  0
 14 21  1  0  0  0
 15 16  2  0  0  0
 16 17  1  0  0  0
 17 20  2  0  0  0
 18 19  1  0  0  0
 18 21  1  0  0  0
 10 11  1  0  0  0
  5  6  1  0  0  0
  2  3  1  0  0  0
 36 37  1  0  0  0
 45 48  1  0  0  0
 19 22  1  0  0  0
M  END
> <minimizedAffinity>
-12.65784

$$$$
1W5X_BE5_A_501


 58 63  0  0  0  0  0  0  0  0999 V2000
   14.0029   23.0198    5.1156 C   0  0  0  0  0  0  0  0  0  0  0  0
   14.8492   24.1695    4.6998 O   0  0  0  0  0  0  0  0  0  0  0  0
   15.2011   24.6134    5.4872 H   0  0  0  0  0  0  0  0  0  0  0  0
   12.8915   23.5170    5.9164 C   0  0  0  0  0  0  0  0  0  0  0  0
   13.3430   24.6461    6.7110 O   0  0  0  0  0  0  0  0  0  0  0  0
   13.6802   25.3405    6.1237 H   0  0  0  0  0  0  0  0  0  0  0  0
   11.7345   23.9523    4.9148 C   0  0  0  0  0  0  0  0  0  0  0  0
   10.4060   24.1340    5.6304 C   0  0  0  0  0  0  0  0  0  0  0  0
    9.8624   23.1781    6.2391 O   0  0  0  0  0  0  0  0  0  0  0  0
    9.8144   25.3628    5.5695 N   0  0  0  0  0  0  0  0  0  0  0  0
   10.2761   26.0789    5.0763 H   0  0  0  0  0  0  0  0  0  0  0  0
    8.5472   25.6670    6.1905 C   0  0  0  0  0  0  0  0  0  0  0  0
    8.7242   26.3491    7.5408 C   0  0  0  0  0  0  0  0  0  0  0  0
    7.7307   27.3984    7.6947 C   0  0  0  0  0  0  0  0  0  0  0  0
    9.7042   26.0914    8.6074 C   0  0  0  0  0  0  0  0  0  0  0  0
    9.6629   26.9226    9.8491 C   0  0  0  0  0  0  0  0  0  0  0  0
    8.6450   27.9716    9.9665 C   0  0  0  0  0  0  0  0  0  0  0  0
    7.7560   26.7440    5.4011 C   0  0  0  0  0  0  0  0  0  0  0  0
    8.7210   27.6326    4.7806 O   0  0  0  0  0  0  0  0  0  0  0  0
    7.6663   28.2348    8.9098 C   0  0  0  0  0  0  0  0  0  0  0  0
    6.8774   27.4295    6.4622 C   0  0  0  0  0  0  0  0  0  0  0  0
    9.3081   27.9980    5.4608 H   0  0  0  0  0  0  0  0  0  0  0  0
   11.5486   22.9746    3.8018 O   0  0  0  0  0  0  0  0  0  0  0  0
   11.2571   23.4454    2.4483 C   0  0  0  0  0  0  0  0  0  0  0  0
    9.7767   23.8465    2.3682 C   0  0  0  0  0  0  0  0  0  0  0  0
    9.4738   25.2201    1.9251 C   0  0  0  0  0  0  0  0  0  0  0  0
    8.1148   25.7152    1.8132 C   0  0  0  0  0  0  0  0  0  0  0  0
    6.9757   24.8465    2.1478 C   0  0  0  0  0  0  0  0  0  0  0  0
    7.2389   23.4619    2.5988 C   0  0  0  0  0  0  0  0  0  0  0  0
    8.6089   22.9781    2.7046 C   0  0  0  0  0  0  0  0  0  0  0  0
    6.1219   22.5741    2.9417 F   0  0  0  0  0  0  0  0  0  0  0  0
    8.9207   21.5643    3.1682 F   0  0  0  0  0  0  0  0  0  0  0  0
   14.8709   22.0753    5.9003 C   0  0  0  0  0  0  0  0  0  0  0  0
   15.4199   21.1332    4.9050 C   0  0  0  0  0  0  0  0  0  0  0  0
   15.0745   21.2291    3.6996 O   0  0  0  0  0  0  0  0  0  0  0  0
   16.2968   20.1818    5.3161 N   0  0  0  0  0  0  0  0  0  0  0  0
   16.5480   20.1365    6.2669 H   0  0  0  0  0  0  0  0  0  0  0  0
   16.8705   19.2319    4.3854 C   0  0  0  0  0  0  0  0  0  0  0  0
   17.5905   18.1592    5.1381 C   0  0  0  0  0  0  0  0  0  0  0  0
   17.5080   16.8988    4.3958 C   0  0  0  0  0  0  0  0  0  0  0  0
   18.3082   18.2215    6.4342 C   0  0  0  0  0  0  0  0  0  0  0  0
   18.9458   16.9778    6.9721 C   0  0  0  0  0  0  0  0  0  0  0  0
   18.8440   15.7269    6.2001 C   0  0  0  0  0  0  0  0  0  0  0  0
   15.8923   18.3678    3.5452 C   0  0  0  0  0  0  0  0  0  0  0  0
   14.7534   18.0734    4.3908 O   0  0  0  0  0  0  0  0  0  0  0  0
   18.1306   15.6663    4.9099 C   0  0  0  0  0  0  0  0  0  0  0  0
   16.7415   17.1233    3.1503 C   0  0  0  0  0  0  0  0  0  0  0  0
   15.0595   17.6588    5.2126 H   0  0  0  0  0  0  0  0  0  0  0  0
   14.1084   21.3328    7.0019 O   0  0  0  0  0  0  0  0  0  0  0  0
   14.3887   21.6095    8.4127 C   0  0  0  0  0  0  0  0  0  0  0  0
   15.7396   21.0239    8.8080 C   0  0  0  0  0  0  0  0  0  0  0  0
   17.0168   21.7350    8.6066 C   0  0  0  0  0  0  0  0  0  0  0  0
   18.2988   21.0958    9.0308 C   0  0  0  0  0  0  0  0  0  0  0  0
   18.2735   19.7321    9.6559 C   0  0  0  0  0  0  0  0  0  0  0  0
   16.9564   19.0496    9.8391 C   0  0  0  0  0  0  0  0  0  0  0  0
   15.7400   19.6965    9.4216 C   0  0  0  0  0  0  0  0  0  0  0  0
   19.5594   21.8006    8.8351 F   0  0  0  0  0  0  0  0  0  0  0  0
   17.0266   23.0878    7.9857 F   0  0  0  0  0  0  0  0  0  0  0  0
 25 26  2  0  0  0
 25 30  1  0  0  0
 25 24  1  0  0  0
 26 27  1  0  0  0
 27 28  2  0  0  0
 28 29  1  0  0  0
 29 30  2  0  0  0
 29 31  1  0  0  0
 30 32  1  0  0  0
 51 52  2  0  0  0
 51 56  1  0  0  0
 51 50  1  0  0  0
 52 53  1  0  0  0
 52 58  1  0  0  0
 53 54  2  0  0  0
 53 57  1  0  0  0
 54 55  1  0  0  0
 55 56  2  0  0  0
 50 49  1  0  0  0
 49 33  1  0  0  0
 33  1  1  0  0  0
 33 34  1  0  0  0
  1  4  1  0  0  0
  1  2  1  0  0  0
  4  7  1  0  0  0
  4  5  1  0  0  0
  7  8  1  0  0  0
  7 23  1  0  0  0
  8  9  2  0  0  0
  8 10  1  0  0  0
 10 12  1  0  0  0
 23 24  1  0  0  0
 34 35  2  0  0  0
 34 36  1  0  0  0
 36 38  1  0  0  0
 38 39  1  0  0  0
 38 44  1  0  0  0
 39 40  2  0  0  0
 39 41  1  0  0  0
 40 46  1  0  0  0
 40 47  1  0  0  0
 41 42  2  0  0  0
 42 43  1  0  0  0
 43 46  2  0  0  0
 44 45  1  0  0  0
 44 47  1  0  0  0
 12 13  1  0  0  0
 12 18  1  0  0  0
 13 14  2  0  0  0
 13 15  1  0  0  0
 14 20  1  0  0  0
 14 21  1  0  0  0
 15 16  2  0  0  0
 16 17  1  0  0  0
 17 20  2  0  0  0
 18 19  1  0  0  0
 18 21  1  0  0  0
 10 11  1  0  0  0
  5  6  1  0  0  0
  2  3  1  0  0  0
 36 37  1  0  0  0
 45 48  1  0  0  0
 19 22  1  0  0  0
M  END
> <minimizedAffinity>
-12.31047

$$$$
1W5X_BE5_A_501


 58 63  0  0  0  0  0  0  0  0999 V2000
   12.8324   23.7055    5.0762 C   0  0  0  0  0  0  0  0  0  0  0  0
   13.1872   22.7157    4.0249 O   0  0  0  0  0  0  0  0  0  0  0  0
   12.9087   21.8305    4.3070 H   0  0  0  0  0  0  0  0  0  0  0  0
   13.5314   23.3581    6.3068 C   0  0  0  0  0  0  0  0  0  0  0  0
   12.7868   22.3234    7.0031 O   0  0  0  0  0  0  0  0  0  0  0  0
   12.6976   21.5470    6.4286 H   0  0  0  0  0  0  0  0  0  0  0  0
   14.9826   22.8432    5.9063 C   0  0  0  0  0  0  0  0  0  0  0  0
   15.0400   21.3270    5.8180 C   0  0  0  0  0  0  0  0  0  0  0  0
   14.0325   20.6243    6.0842 O   0  0  0  0  0  0  0  0  0  0  0  0
   16.2280   20.7559    5.4627 N   0  0  0  0  0  0  0  0  0  0  0  0
   16.9906   21.3476    5.2690 H   0  0  0  0  0  0  0  0  0  0  0  0
   16.4243   19.3297    5.3563 C   0  0  0  0  0  0  0  0  0  0  0  0
   16.3211   18.8469    3.9153 C   0  0  0  0  0  0  0  0  0  0  0  0
   17.3294   17.8308    3.6646 C   0  0  0  0  0  0  0  0  0  0  0  0
   15.4018   19.2615    2.8443 C   0  0  0  0  0  0  0  0  0  0  0  0
   15.5194   18.6237    1.4976 C   0  0  0  0  0  0  0  0  0  0  0  0
   16.5496   17.6021    1.2845 C   0  0  0  0  0  0  0  0  0  0  0  0
   17.8748   18.9132    5.7190 C   0  0  0  0  0  0  0  0  0  0  0  0
   18.7546   20.0012    5.3338 O   0  0  0  0  0  0  0  0  0  0  0  0
   17.4687   17.1839    2.3448 C   0  0  0  0  0  0  0  0  0  0  0  0
   18.1117   17.6163    4.9257 C   0  0  0  0  0  0  0  0  0  0  0  0
   18.6282   20.2016    4.3932 H   0  0  0  0  0  0  0  0  0  0  0  0
   16.0335   23.3072    6.8600 O   0  0  0  0  0  0  0  0  0  0  0  0
   15.8445   23.1449    8.3010 C   0  0  0  0  0  0  0  0  0  0  0  0
   16.4333   21.7935    8.7318 C   0  0  0  0  0  0  0  0  0  0  0  0
   17.8895   21.6145    8.5824 C   0  0  0  0  0  0  0  0  0  0  0  0
   18.5598   20.3821    8.9517 C   0  0  0  0  0  0  0  0  0  0  0  0
   17.7921   19.2503    9.4940 C   0  0  0  0  0  0  0  0  0  0  0  0
   16.3279   19.3903    9.6567 C   0  0  0  0  0  0  0  0  0  0  0  0
   15.6690   20.6347    9.2832 C   0  0  0  0  0  0  0  0  0  0  0  0
   15.5366   18.2767   10.1928 F   0  0  0  0  0  0  0  0  0  0  0  0
   14.1668   20.8159    9.4309 F   0  0  0  0  0  0  0  0  0  0  0  0
   11.3402   23.6631    5.2569 C   0  0  0  0  0  0  0  0  0  0  0  0
   10.7781   23.9294    3.9180 C   0  0  0  0  0  0  0  0  0  0  0  0
   11.5403   24.2785    2.9806 O   0  0  0  0  0  0  0  0  0  0  0  0
    9.4420   23.7838    3.7265 N   0  0  0  0  0  0  0  0  0  0  0  0
    8.8744   23.5062    4.4815 H   0  0  0  0  0  0  0  0  0  0  0  0
    8.8339   24.0281    2.4349 C   0  0  0  0  0  0  0  0  0  0  0  0
    7.3624   23.7748    2.5134 C   0  0  0  0  0  0  0  0  0  0  0  0
    6.6607   24.6673    1.5875 C   0  0  0  0  0  0  0  0  0  0  0  0
    6.6038   22.8135    3.3498 C   0  0  0  0  0  0  0  0  0  0  0  0
    5.1113   22.7699    3.2338 C   0  0  0  0  0  0  0  0  0  0  0  0
    4.4371   23.6812    2.2927 C   0  0  0  0  0  0  0  0  0  0  0  0
    8.8330   25.4871    1.9050 C   0  0  0  0  0  0  0  0  0  0  0  0
    8.6549   26.3545    3.0516 O   0  0  0  0  0  0  0  0  0  0  0  0
    5.1931   24.6365    1.4600 C   0  0  0  0  0  0  0  0  0  0  0  0
    7.6536   25.5120    0.8879 C   0  0  0  0  0  0  0  0  0  0  0  0
    7.8528   26.0954    3.5316 H   0  0  0  0  0  0  0  0  0  0  0  0
   10.8298   24.6800    6.2824 O   0  0  0  0  0  0  0  0  0  0  0  0
    9.8342   24.2878    7.2827 C   0  0  0  0  0  0  0  0  0  0  0  0
    9.2590   25.5220    7.9683 C   0  0  0  0  0  0  0  0  0  0  0  0
    9.9871   26.2834    9.0014 C   0  0  0  0  0  0  0  0  0  0  0  0
    9.3571   27.4894    9.6188 C   0  0  0  0  0  0  0  0  0  0  0  0
    7.9854   27.9121    9.1821 C   0  0  0  0  0  0  0  0  0  0  0  0
    7.2856   27.1096    8.1331 C   0  0  0  0  0  0  0  0  0  0  0  0
    7.9240   25.9549    7.5573 C   0  0  0  0  0  0  0  0  0  0  0  0
   10.0787   28.2431   10.6363 F   0  0  0  0  0  0  0  0  0  0  0  0
   11.3478   25.8528    9.4243 F   0  0  0  0  0  0  0  0  0  0  0  0
 25 26  2  0  0  0
 25 30  1  0  0  0
 25 24  1  0  0  0
 26 27  1  0  0  0
 27 28  2  0  0  0
 28 29  1  0  0  0
 29 30  2  0  0  0
 29 31  1  0  0  0
 30 32  1  0  0  0
 51 52  2  0  0  0
 51 56  1  0  0  0
 51 50  1  0  0  0
 52 53  1  0  0  0
 52 58  1  0  0  0
 53 54  2  0  0  0
 53 57  1  0  0  0
 54 55  1  0  0  0
 55 56  2  0  0  0
 50 49  1  0  0  0
 49 33  1  0  0  0
 33  1  1  0  0  0
 33 34  1  0  0  0
  1  4  1  0  0  0
  1  2  1  0  0  0
  4  7  1  0  0  0
  4  5  1  0  0  0
  7  8  1  0  0  0
  7 23  1  0  0  0
  8  9  2  0  0  0
  8 10  1  0  0  0
 10 12  1  0  0  0
 23 24  1  0  0  0
 34 35  2  0  0  0
 34 36  1  0  0  0
 36 38  1  0  0  0
 38 39  1  0  0  0
 38 44  1  0  0  0
 39 40  2  0  0  0
 39 41  1  0  0  0
 40 46  1  0  0  0
 40 47  1  0  0  0
 41 42  2  0  0  0
 42 43  1  0  0  0
 43 46  2  0  0  0
 44 45  1  0  0  0
 44 47  1  0  0  0
 12 13  1  0  0  0
 12 18  1  0  0  0
 13 14  2  0  0  0
 13 15  1  0  0  0
 14 20  1  0  0  0
 14 21  1  0  0  0
 15 16  2  0  0  0
 16 17  1  0  0  0
 17 20  2  0  0  0
 18 19  1  0  0  0
 18 21  1  0  0  0
 10 11  1  0  0  0
  5  6  1  0  0  0
  2  3  1  0  0  0
 36 37  1  0  0  0
 45 48  1  0  0  0
 19 22  1  0  0  0
M  END
> <minimizedAffinity>
-12.01764

$$$$
1W5X_BE5_A_501


 58 63  0  0  0  0  0  0  0  0999 V2000
   13.8717   22.0875    5.4571 C   0  0  0  0  0  0  0  0  0  0  0  0
   14.6220   23.1120    6.2305 O   0  0  0  0  0  0  0  0  0  0  0  0
   14.2116   23.2237    7.1023 H   0  0  0  0  0  0  0  0  0  0  0  0
   12.4983   22.5419    5.2801 C   0  0  0  0  0  0  0  0  0  0  0  0
   11.7844   22.4050    6.5377 O   0  0  0  0  0  0  0  0  0  0  0  0
   12.2324   22.9261    7.2223 H   0  0  0  0  0  0  0  0  0  0  0  0
   12.5512   24.0635    4.8183 C   0  0  0  0  0  0  0  0  0  0  0  0
   11.9853   24.9955    5.8770 C   0  0  0  0  0  0  0  0  0  0  0  0
   12.6963   25.3986    6.8319 O   0  0  0  0  0  0  0  0  0  0  0  0
   10.6743   25.3600    5.7673 N   0  0  0  0  0  0  0  0  0  0  0  0
   10.1562   25.0143    5.0048 H   0  0  0  0  0  0  0  0  0  0  0  0
   10.0079   26.2259    6.7109 C   0  0  0  0  0  0  0  0  0  0  0  0
    8.5274   26.3852    6.3900 C   0  0  0  0  0  0  0  0  0  0  0  0
    7.7553   26.3824    7.6211 C   0  0  0  0  0  0  0  0  0  0  0  0
    7.8526   26.5228    5.0900 C   0  0  0  0  0  0  0  0  0  0  0  0
    6.3646   26.6598    5.0540 C   0  0  0  0  0  0  0  0  0  0  0  0
    5.6213   26.6528    6.3180 C   0  0  0  0  0  0  0  0  0  0  0  0
    9.9514   25.6041    8.1319 C   0  0  0  0  0  0  0  0  0  0  0  0
    9.8706   24.1632    7.9790 O   0  0  0  0  0  0  0  0  0  0  0  0
    6.2848   26.5160    7.6160 C   0  0  0  0  0  0  0  0  0  0  0  0
    8.7007   26.2285    8.7748 C   0  0  0  0  0  0  0  0  0  0  0  0
    9.1081   23.9393    7.4229 H   0  0  0  0  0  0  0  0  0  0  0  0
   11.8199   24.2943    3.5373 O   0  0  0  0  0  0  0  0  0  0  0  0
   11.0590   23.2102    2.9173 C   0  0  0  0  0  0  0  0  0  0  0  0
    9.6814   23.7443    2.4983 C   0  0  0  0  0  0  0  0  0  0  0  0
    9.6254   25.1171    1.9625 C   0  0  0  0  0  0  0  0  0  0  0  0
    8.3821   25.7318    1.5371 C   0  0  0  0  0  0  0  0  0  0  0  0
    7.1145   24.9913    1.6319 C   0  0  0  0  0  0  0  0  0  0  0  0
    7.1291   23.6116    2.1668 C   0  0  0  0  0  0  0  0  0  0  0  0
    8.3856   23.0069    2.5884 C   0  0  0  0  0  0  0  0  0  0  0  0
    5.8792   22.8504    2.2751 F   0  0  0  0  0  0  0  0  0  0  0  0
    8.4415   21.5942    3.1472 F   0  0  0  0  0  0  0  0  0  0  0  0
   13.9327   20.7986    6.2291 C   0  0  0  0  0  0  0  0  0  0  0  0
   14.7046   21.1110    7.4481 C   0  0  0  0  0  0  0  0  0  0  0  0
   14.1223   21.6159    8.4419 O   0  0  0  0  0  0  0  0  0  0  0  0
   16.0343   20.8380    7.4707 N   0  0  0  0  0  0  0  0  0  0  0  0
   16.4581   20.4399    6.6762 H   0  0  0  0  0  0  0  0  0  0  0  0
   16.8426   21.1198    8.6390 C   0  0  0  0  0  0  0  0  0  0  0  0
   16.9905   19.8801    9.4619 C   0  0  0  0  0  0  0  0  0  0  0  0
   18.2918   19.8901   10.1347 C   0  0  0  0  0  0  0  0  0  0  0  0
   16.0557   18.7448    9.6517 C   0  0  0  0  0  0  0  0  0  0  0  0
   16.4623   17.6097   10.5400 C   0  0  0  0  0  0  0  0  0  0  0  0
   17.7782   17.6513   11.2016 C   0  0  0  0  0  0  0  0  0  0  0  0
   18.3359   21.4773    8.4112 C   0  0  0  0  0  0  0  0  0  0  0  0
   18.7960   20.6819    7.2911 O   0  0  0  0  0  0  0  0  0  0  0  0
   18.7071   18.7823   11.0130 C   0  0  0  0  0  0  0  0  0  0  0  0
   19.0124   21.1298    9.7704 C   0  0  0  0  0  0  0  0  0  0  0  0
   18.6247   19.7438    7.4687 H   0  0  0  0  0  0  0  0  0  0  0  0
   14.5821   19.6564    5.4417 O   0  0  0  0  0  0  0  0  0  0  0  0
   15.0368   19.8698    4.0657 C   0  0  0  0  0  0  0  0  0  0  0  0
   16.1227   18.8621    3.7056 C   0  0  0  0  0  0  0  0  0  0  0  0
   16.1087   18.0725    2.4592 C   0  0  0  0  0  0  0  0  0  0  0  0
   17.2170   17.1116    2.1751 C   0  0  0  0  0  0  0  0  0  0  0  0
   18.3336   16.9575    3.1652 C   0  0  0  0  0  0  0  0  0  0  0  0
   18.3051   17.7776    4.4145 C   0  0  0  0  0  0  0  0  0  0  0  0
   17.2231   18.6963    4.6544 C   0  0  0  0  0  0  0  0  0  0  0  0
   17.2044   16.3350    0.9418 F   0  0  0  0  0  0  0  0  0  0  0  0
   14.9947   18.2364    1.4857 F   0  0  0  0  0  0  0  0  0  0  0  0
 25 26  2  0  0  0
 25 30  1  0  0  0
 25 24  1  0  0  0
 26 27  1  0  0  0
 27 28  2  0  0  0
 28 29  1  0  0  0
 29 30  2  0  0  0
 29 31  1  0  0  0
 30 32  1  0  0  0
 51 52  2  0  0  0
 51 56  1  0  0  0
 51 50  1  0  0  0
 52 53  1  0  0  0
 52 58  1  0  0  0
 53 54  2  0  0  0
 53 57  1  0  0  0
 54 55  1  0  0  0
 55 56  2  0  0  0
 50 49  1  0  0  0
 49 33  1  0  0  0
 33  1  1  0  0  0
 33 34  1  0  0  0
  1  4  1  0  0  0
  1  2  1  0  0  0
  4  7  1  0  0  0
  4  5  1  0  0  0
  7  8  1  0  0  0
  7 23  1  0  0  0
  8  9  2  0  0  0
  8 10  1  0  0  0
 10 12  1  0  0  0
 23 24  1  0  0  0
 34 35  2  0  0  0
 34 36  1  0  0  0
 36 38  1  0  0  0
 38 39  1  0  0  0
 38 44  1  0  0  0
 39 40  2  0  0  0
 39 41  1  0  0  0
 40 46  1  0  0  0
 40 47  1  0  0  0
 41 42  2  0  0  0
 42 43  1  0  0  0
 43 46  2  0  0  0
 44 45  1  0  0  0
 44 47  1  0  0  0
 12 13  1  0  0  0
 12 18  1  0  0  0
 13 14  2  0  0  0
 13 15  1  0  0  0
 14 20  1  0  0  0
 14 21  1  0  0  0
 15 16  2  0  0  0
 16 17  1  0  0  0
 17 20  2  0  0  0
 18 19  1  0  0  0
 18 21  1  0  0  0
 10 11  1  0  0  0
  5  6  1  0  0  0
  2  3  1  0  0  0
 36 37  1  0  0  0
 45 48  1  0  0  0
 19 22  1  0  0  0
M  END
> <minimizedAffinity>
-11.97729

$$$$
1W5X_BE5_A_501


 58 63  0  0  0  0  0  0  0  0999 V2000
   13.8501   23.1122    5.1227 C   0  0  0  0  0  0  0  0  0  0  0  0
   13.9626   24.5635    4.8198 O   0  0  0  0  0  0  0  0  0  0  0  0
   13.9535   25.0683    5.6480 H   0  0  0  0  0  0  0  0  0  0  0  0
   12.5889   22.8702    5.8118 C   0  0  0  0  0  0  0  0  0  0  0  0
   12.6910   23.3531    7.1779 O   0  0  0  0  0  0  0  0  0  0  0  0
   12.9020   24.2999    7.1713 H   0  0  0  0  0  0  0  0  0  0  0  0
   11.4503   23.6470    5.0171 C   0  0  0  0  0  0  0  0  0  0  0  0
   11.0184   24.9119    5.7406 C   0  0  0  0  0  0  0  0  0  0  0  0
   11.8672   25.7233    6.1890 O   0  0  0  0  0  0  0  0  0  0  0  0
    9.6800   25.1236    5.9060 N   0  0  0  0  0  0  0  0  0  0  0  0
    9.0537   24.4569    5.5420 H   0  0  0  0  0  0  0  0  0  0  0  0
    9.1350   26.2740    6.5869 C   0  0  0  0  0  0  0  0  0  0  0  0
    7.6546   26.4660    6.2842 C   0  0  0  0  0  0  0  0  0  0  0  0
    6.9560   26.8760    7.4908 C   0  0  0  0  0  0  0  0  0  0  0  0
    6.9187   26.2924    5.0223 C   0  0  0  0  0  0  0  0  0  0  0  0
    5.4453   26.5436    4.9992 C   0  0  0  0  0  0  0  0  0  0  0  0
    4.7770   26.9562    6.2375 C   0  0  0  0  0  0  0  0  0  0  0  0
    9.1138   26.0827    8.1270 C   0  0  0  0  0  0  0  0  0  0  0  0
    8.9173   24.6696    8.3924 O   0  0  0  0  0  0  0  0  0  0  0  0
    5.5017   27.1309    7.4977 C   0  0  0  0  0  0  0  0  0  0  0  0
    7.9518   26.9693    8.6080 C   0  0  0  0  0  0  0  0  0  0  0  0
    8.1097   24.3665    7.9488 H   0  0  0  0  0  0  0  0  0  0  0  0
   10.2456   22.7985    4.7762 O   0  0  0  0  0  0  0  0  0  0  0  0
    9.9401   22.3179    3.4292 C   0  0  0  0  0  0  0  0  0  0  0  0
    8.9198   23.2655    2.7813 C   0  0  0  0  0  0  0  0  0  0  0  0
    7.4960   22.8959    2.8857 C   0  0  0  0  0  0  0  0  0  0  0  0
    6.4411   23.7093    2.3111 C   0  0  0  0  0  0  0  0  0  0  0  0
    6.7661   24.9498    1.5902 C   0  0  0  0  0  0  0  0  0  0  0  0
    8.1840   25.3534    1.4619 C   0  0  0  0  0  0  0  0  0  0  0  0
    9.2323   24.5273    2.0457 C   0  0  0  0  0  0  0  0  0  0  0  0
    8.5375   26.5846    0.7458 F   0  0  0  0  0  0  0  0  0  0  0  0
   10.7004   24.9053    1.9316 F   0  0  0  0  0  0  0  0  0  0  0  0
   15.0284   22.7320    5.9759 C   0  0  0  0  0  0  0  0  0  0  0  0
   15.1300   21.2632    5.8671 C   0  0  0  0  0  0  0  0  0  0  0  0
   14.1571   20.5442    6.2108 O   0  0  0  0  0  0  0  0  0  0  0  0
   16.2779   20.7185    5.3887 N   0  0  0  0  0  0  0  0  0  0  0  0
   17.0192   21.3107    5.1259 H   0  0  0  0  0  0  0  0  0  0  0  0
   16.4349   19.2848    5.2567 C   0  0  0  0  0  0  0  0  0  0  0  0
   16.2528   18.8863    3.8271 C   0  0  0  0  0  0  0  0  0  0  0  0
   17.0906   17.7214    3.5318 C   0  0  0  0  0  0  0  0  0  0  0  0
   15.4012   19.4858    2.7714 C   0  0  0  0  0  0  0  0  0  0  0  0
   15.4117   18.8832    1.4004 C   0  0  0  0  0  0  0  0  0  0  0  0
   16.2659   17.7118    1.1373 C   0  0  0  0  0  0  0  0  0  0  0  0
   17.8411   18.6871    5.5308 C   0  0  0  0  0  0  0  0  0  0  0  0
   18.8116   19.6476    5.0468 O   0  0  0  0  0  0  0  0  0  0  0  0
   17.1119   17.1154    2.1889 C   0  0  0  0  0  0  0  0  0  0  0  0
   17.8280   17.3364    4.7553 C   0  0  0  0  0  0  0  0  0  0  0  0
   18.6299   19.8497    4.1157 H   0  0  0  0  0  0  0  0  0  0  0  0
   14.8788   23.1685    7.4365 O   0  0  0  0  0  0  0  0  0  0  0  0
   16.0543   23.2661    8.3049 C   0  0  0  0  0  0  0  0  0  0  0  0
   16.5536   21.8746    8.6770 C   0  0  0  0  0  0  0  0  0  0  0  0
   15.6791   20.8280    9.2403 C   0  0  0  0  0  0  0  0  0  0  0  0
   16.2440   19.4847    9.5698 C   0  0  0  0  0  0  0  0  0  0  0  0
   17.6997   19.2151    9.3265 C   0  0  0  0  0  0  0  0  0  0  0  0
   18.5472   20.3058    8.7553 C   0  0  0  0  0  0  0  0  0  0  0  0
   17.9688   21.5874    8.4465 C   0  0  0  0  0  0  0  0  0  0  0  0
   15.3785   18.4504   10.1224 F   0  0  0  0  0  0  0  0  0  0  0  0
   14.2365   21.1095    9.4757 F   0  0  0  0  0  0  0  0  0  0  0  0
 25 26  2  0  0  0
 25 30  1  0  0  0
 25 24  1  0  0  0
 26 27  1  0  0  0
 27 28  2  0  0  0
 28 29  1  0  0  0
 29 30  2  0  0  0
 29 31  1  0  0  0
 30 32  1  0  0  0
 51 52  2  0  0  0
 51 56  1  0  0  0
 51 50  1  0  0  0
 52 53  1  0  0  0
 52 58  1  0  0  0
 53 54  2  0  0  0
 53 57  1  0  0  0
 54 55  1  0  0  0
 55 56  2  0  0  0
 50 49  1  0  0  0
 49 33  1  0  0  0
 33  1  1  0  0  0
 33 34  1  0  0  0
  1  4  1  0  0  0
  1  2  1  0  0  0
  4  7  1  0  0  0
  4  5  1  0  0  0
  7  8  1  0  0  0
  7 23  1  0  0  0
  8  9  2  0  0  0
  8 10  1  0  0  0
 10 12  1  0  0  0
 23 24  1  0  0  0
 34 35  2  0  0  0
 34 36  1  0  0  0
 36 38  1  0  0  0
 38 39  1  0  0  0
 38 44  1  0  0  0
 39 40  2  0  0  0
 39 41  1  0  0  0
 40 46  1  0  0  0
 40 47  1  0  0  0
 41 42  2  0  0  0
 42 43  1  0  0  0
 43 46  2  0  0  0
 44 45  1  0  0  0
 44 47  1  0  0  0
 12 13  1  0  0  0
 12 18  1  0  0  0
 13 14  2  0  0  0
 13 15  1  0  0  0
 14 20  1  0  0  0
 14 21  1  0  0  0
 15 16  2  0  0  0
 16 17  1  0  0  0
 17 20  2  0  0  0
 18 19  1  0  0  0
 18 21  1  0  0  0
 10 11  1  0  0  0
  5  6  1  0  0  0
  2  3  1  0  0  0
 36 37  1  0  0  0
 45 48  1  0  0  0
 19 22  1  0  0  0
M  END
> <minimizedAffinity>
-11.75201

$$$$
1W5X_BE5_A_501


 58 63  0  0  0  0  0  0  0  0999 V2000
   12.6651   23.8832    5.3864 C   0  0  0  0  0  0  0  0  0  0  0  0
   13.5548   24.9741    4.9078 O   0  0  0  0  0  0  0  0  0  0  0  0
   13.5432   24.9989    3.9382 H   0  0  0  0  0  0  0  0  0  0  0  0
   13.1592   22.6117    4.8734 C   0  0  0  0  0  0  0  0  0  0  0  0
   13.3119   22.7054    3.4319 O   0  0  0  0  0  0  0  0  0  0  0  0
   13.9274   23.4240    3.2180 H   0  0  0  0  0  0  0  0  0  0  0  0
   14.5567   22.3204    5.5760 C   0  0  0  0  0  0  0  0  0  0  0  0
   14.8653   20.8331    5.6256 C   0  0  0  0  0  0  0  0  0  0  0  0
   13.9620   19.9919    5.8630 O   0  0  0  0  0  0  0  0  0  0  0  0
   16.1591   20.4458    5.4264 N   0  0  0  0  0  0  0  0  0  0  0  0
   16.8324   21.1418    5.2491 H   0  0  0  0  0  0  0  0  0  0  0  0
   16.5915   19.0689    5.4622 C   0  0  0  0  0  0  0  0  0  0  0  0
   16.6058   18.4406    4.0746 C   0  0  0  0  0  0  0  0  0  0  0  0
   17.7744   17.5883    3.9338 C   0  0  0  0  0  0  0  0  0  0  0  0
   15.6576   18.5917    2.9600 C   0  0  0  0  0  0  0  0  0  0  0  0
   15.9130   17.8571    1.6835 C   0  0  0  0  0  0  0  0  0  0  0  0
   17.1031   17.0066    1.5809 C   0  0  0  0  0  0  0  0  0  0  0  0
   18.0814   18.9375    5.8768 C   0  0  0  0  0  0  0  0  0  0  0  0
   18.7782   20.1155    5.3944 O   0  0  0  0  0  0  0  0  0  0  0  0
   18.0520   16.8509    2.6850 C   0  0  0  0  0  0  0  0  0  0  0  0
   18.5496   17.6288    5.2166 C   0  0  0  0  0  0  0  0  0  0  0  0
   18.6440   20.2013    4.4375 H   0  0  0  0  0  0  0  0  0  0  0  0
   14.6204   22.8689    6.9633 O   0  0  0  0  0  0  0  0  0  0  0  0
   14.3497   22.0038    8.1109 C   0  0  0  0  0  0  0  0  0  0  0  0
   15.6637   21.3503    8.5635 C   0  0  0  0  0  0  0  0  0  0  0  0
   15.5754   20.0089    9.1698 C   0  0  0  0  0  0  0  0  0  0  0  0
   16.7466   19.2926    9.6383 C   0  0  0  0  0  0  0  0  0  0  0  0
   18.0837   19.8954    9.5236 C   0  0  0  0  0  0  0  0  0  0  0  0
   18.2134   21.2416    8.9229 C   0  0  0  0  0  0  0  0  0  0  0  0
   17.0283   21.9480    8.4552 C   0  0  0  0  0  0  0  0  0  0  0  0
   19.5344   21.8684    8.7983 F   0  0  0  0  0  0  0  0  0  0  0  0
   17.1194   23.3338    7.8368 F   0  0  0  0  0  0  0  0  0  0  0  0
   11.2763   24.1773    4.8908 C   0  0  0  0  0  0  0  0  0  0  0  0
   10.7104   25.1337    5.8627 C   0  0  0  0  0  0  0  0  0  0  0  0
   11.3942   25.4902    6.8562 O   0  0  0  0  0  0  0  0  0  0  0  0
    9.4579   25.6151    5.6564 N   0  0  0  0  0  0  0  0  0  0  0  0
    8.9512   25.3173    4.8667 H   0  0  0  0  0  0  0  0  0  0  0  0
    8.8514   26.5576    6.5738 C   0  0  0  0  0  0  0  0  0  0  0  0
    7.3814   26.6412    6.3134 C   0  0  0  0  0  0  0  0  0  0  0  0
    6.6761   26.9204    7.5667 C   0  0  0  0  0  0  0  0  0  0  0  0
    6.6271   26.4829    5.0465 C   0  0  0  0  0  0  0  0  0  0  0  0
    5.1353   26.6121    5.0683 C   0  0  0  0  0  0  0  0  0  0  0  0
    4.4573   26.8934    6.3459 C   0  0  0  0  0  0  0  0  0  0  0  0
    8.8421   26.1891    8.0817 C   0  0  0  0  0  0  0  0  0  0  0  0
    8.6556   24.7549    8.1664 O   0  0  0  0  0  0  0  0  0  0  0  0
    5.2090   27.0518    7.6057 C   0  0  0  0  0  0  0  0  0  0  0  0
    7.6651   27.0282    8.6617 C   0  0  0  0  0  0  0  0  0  0  0  0
    7.8540   24.5039    7.6812 H   0  0  0  0  0  0  0  0  0  0  0  0
   10.4016   22.9252    4.7748 O   0  0  0  0  0  0  0  0  0  0  0  0
   10.0160   22.4099    3.4590 C   0  0  0  0  0  0  0  0  0  0  0  0
    8.9423   23.2964    2.8381 C   0  0  0  0  0  0  0  0  0  0  0  0
    9.2515   24.4771    2.0090 C   0  0  0  0  0  0  0  0  0  0  0  0
    8.1404   25.2895    1.4278 C   0  0  0  0  0  0  0  0  0  0  0  0
    6.7179   24.8961    1.6975 C   0  0  0  0  0  0  0  0  0  0  0  0
    6.4527   23.6929    2.5438 C   0  0  0  0  0  0  0  0  0  0  0  0
    7.5478   22.9313    3.0850 C   0  0  0  0  0  0  0  0  0  0  0  0
    8.4469   26.4532    0.6057 F   0  0  0  0  0  0  0  0  0  0  0  0
   10.6676   24.8551    1.7493 F   0  0  0  0  0  0  0  0  0  0  0  0
 25 26  2  0  0  0
 25 30  1  0  0  0
 25 24  1  0  0  0
 26 27  1  0  0  0
 27 28  2  0  0  0
 28 29  1  0  0  0
 29 30  2  0  0  0
 29 31  1  0  0  0
 30 32  1  0  0  0
 51 52  2  0  0  0
 51 56  1  0  0  0
 51 50  1  0  0  0
 52 53  1  0  0  0
 52 58  1  0  0  0
 53 54  2  0  0  0
 53 57  1  0  0  0
 54 55  1  0  0  0
 55 56  2  0  0  0
 50 49  1  0  0  0
 49 33  1  0  0  0
 33  1  1  0  0  0
 33 34  1  0  0  0
  1  4  1  0  0  0
  1  2  1  0  0  0
  4  7  1  0  0  0
  4  5  1  0  0  0
  7  8  1  0  0  0
  7 23  1  0  0  0
  8  9  2  0  0  0
  8 10  1  0  0  0
 10 12  1  0  0  0
 23 24  1  0  0  0
 34 35  2  0  0  0
 34 36  1  0  0  0
 36 38  1  0  0  0
 38 39  1  0  0  0
 38 44  1  0  0  0
 39 40  2  0  0  0
 39 41  1  0  0  0
 40 46  1  0  0  0
 40 47  1  0  0  0
 41 42  2  0  0  0
 42 43  1  0  0  0
 43 46  2  0  0  0
 44 45  1  0  0  0
 44 47  1  0  0  0
 12 13  1  0  0  0
 12 18  1  0  0  0
 13 14  2  0  0  0
 13 15  1  0  0  0
 14 20  1  0  0  0
 14 21  1  0  0  0
 15 16  2  0  0  0
 16 17  1  0  0  0
 17 20  2  0  0  0
 18 19  1  0  0  0
 18 21  1  0  0  0
 10 11  1  0  0  0
  5  6  1  0  0  0
  2  3  1  0  0  0
 36 37  1  0  0  0
 45 48  1  0  0  0
 19 22  1  0  0  0
M  END
> <minimizedAffinity>
-11.71343

$$$$
1W5X_BE5_A_501


 58 63  0  0  0  0  0  0  0  0999 V2000
   15.3179   22.4786    7.3416 C   0  0  0  0  0  0  0  0  0  0  0  0
   15.3732   23.0092    8.7295 O   0  0  0  0  0  0  0  0  0  0  0  0
   14.5589   22.7705    9.1995 H   0  0  0  0  0  0  0  0  0  0  0  0
   14.1805   23.0752    6.6531 C   0  0  0  0  0  0  0  0  0  0  0  0
   14.2027   22.6731    5.2574 O   0  0  0  0  0  0  0  0  0  0  0  0
   14.1698   21.7055    5.1992 H   0  0  0  0  0  0  0  0  0  0  0  0
   12.8586   22.5597    7.3729 C   0  0  0  0  0  0  0  0  0  0  0  0
   11.7723   22.2028    6.3718 C   0  0  0  0  0  0  0  0  0  0  0  0
   11.2182   21.0747    6.3922 O   0  0  0  0  0  0  0  0  0  0  0  0
   11.4366   23.1398    5.4375 N   0  0  0  0  0  0  0  0  0  0  0  0
   11.9022   24.0070    5.4583 H   0  0  0  0  0  0  0  0  0  0  0  0
   10.4345   22.9256    4.4207 C   0  0  0  0  0  0  0  0  0  0  0  0
    9.6236   24.1855    4.1463 C   0  0  0  0  0  0  0  0  0  0  0  0
    9.3746   24.3079    2.7198 C   0  0  0  0  0  0  0  0  0  0  0  0
    9.1158   25.2032    5.0793 C   0  0  0  0  0  0  0  0  0  0  0  0
    8.3413   26.3624    4.5398 C   0  0  0  0  0  0  0  0  0  0  0  0
    8.1109   26.4500    3.0943 C   0  0  0  0  0  0  0  0  0  0  0  0
   11.0661   22.6549    3.0290 C   0  0  0  0  0  0  0  0  0  0  0  0
   12.3131   23.3941    2.9602 O   0  0  0  0  0  0  0  0  0  0  0  0
    8.6131   25.4417    2.1588 C   0  0  0  0  0  0  0  0  0  0  0  0
   10.0049   23.1381    2.0251 C   0  0  0  0  0  0  0  0  0  0  0  0
   12.1428   24.3325    3.1373 H   0  0  0  0  0  0  0  0  0  0  0  0
   12.3105   23.5587    8.3378 O   0  0  0  0  0  0  0  0  0  0  0  0
   12.2085   24.9681    7.9612 C   0  0  0  0  0  0  0  0  0  0  0  0
   10.8646   25.5208    8.4583 C   0  0  0  0  0  0  0  0  0  0  0  0
    9.6438   24.8186    8.0208 C   0  0  0  0  0  0  0  0  0  0  0  0
    8.3177   25.2486    8.4220 C   0  0  0  0  0  0  0  0  0  0  0  0
    8.1468   26.4227    9.2917 C   0  0  0  0  0  0  0  0  0  0  0  0
    9.3478   27.1557    9.7500 C   0  0  0  0  0  0  0  0  0  0  0  0
   10.6732   26.7110    9.3403 C   0  0  0  0  0  0  0  0  0  0  0  0
    9.2071   28.3320   10.6160 F   0  0  0  0  0  0  0  0  0  0  0  0
   11.9308   27.4396    9.7860 F   0  0  0  0  0  0  0  0  0  0  0  0
   15.1884   20.9831    7.4302 C   0  0  0  0  0  0  0  0  0  0  0  0
   16.2475   20.5554    8.3656 C   0  0  0  0  0  0  0  0  0  0  0  0
   17.2205   21.3181    8.5960 O   0  0  0  0  0  0  0  0  0  0  0  0
   16.1424   19.3418    8.9653 N   0  0  0  0  0  0  0  0  0  0  0  0
   15.3659   18.7708    8.7646 H   0  0  0  0  0  0  0  0  0  0  0  0
   17.1485   18.8696    9.8939 C   0  0  0  0  0  0  0  0  0  0  0  0
   16.6920   17.5945   10.5276 C   0  0  0  0  0  0  0  0  0  0  0  0
   17.8524   16.7506   10.8233 C   0  0  0  0  0  0  0  0  0  0  0  0
   15.3225   17.1299   10.8556 C   0  0  0  0  0  0  0  0  0  0  0  0
   15.1443   15.7861   11.4922 C   0  0  0  0  0  0  0  0  0  0  0  0
   16.3327   14.9627   11.7762 C   0  0  0  0  0  0  0  0  0  0  0  0
   18.5105   18.4115    9.3068 C   0  0  0  0  0  0  0  0  0  0  0  0
   18.2317   17.7755    8.0354 O   0  0  0  0  0  0  0  0  0  0  0  0
   17.6951   15.4266   11.4505 C   0  0  0  0  0  0  0  0  0  0  0  0
   19.0811   17.4548   10.3954 C   0  0  0  0  0  0  0  0  0  0  0  0
   17.5846   17.0646    8.1645 H   0  0  0  0  0  0  0  0  0  0  0  0
   15.3345   20.2857    6.0743 O   0  0  0  0  0  0  0  0  0  0  0  0
   16.6571   20.1102    5.4699 C   0  0  0  0  0  0  0  0  0  0  0  0
   16.5667   19.1895    4.2582 C   0  0  0  0  0  0  0  0  0  0  0  0
   15.6228   19.4110    3.1459 C   0  0  0  0  0  0  0  0  0  0  0  0
   15.6030   18.4669    1.9880 C   0  0  0  0  0  0  0  0  0  0  0  0
   16.5440   17.2985    1.9710 C   0  0  0  0  0  0  0  0  0  0  0  0
   17.4818   17.1137    3.1201 C   0  0  0  0  0  0  0  0  0  0  0  0
   17.4760   18.0449    4.2179 C   0  0  0  0  0  0  0  0  0  0  0  0
   14.6731   18.6887    0.8879 F   0  0  0  0  0  0  0  0  0  0  0  0
   14.6954   20.5749    3.1760 F   0  0  0  0  0  0  0  0  0  0  0  0
 25 26  2  0  0  0
 25 30  1  0  0  0
 25 24  1  0  0  0
 26 27  1  0  0  0
 27 28  2  0  0  0
 28 29  1  0  0  0
 29 30  2  0  0  0
 29 31  1  0  0  0
 30 32  1  0  0  0
 51 52  2  0  0  0
 51 56  1  0  0  0
 51 50  1  0  0  0
 52 53  1  0  0  0
 52 58  1  0  0  0
 53 54  2  0  0  0
 53 57  1  0  0  0
 54 55  1  0  0  0
 55 56  2  0  0  0
 50 49  1  0  0  0
 49 33  1  0  0  0
 33  1  1  0  0  0
 33 34  1  0  0  0
  1  4  1  0  0  0
  1  2  1  0  0  0
  4  7  1  0  0  0
  4  5  1  0  0  0
  7  8  1  0  0  0
  7 23  1  0  0  0
  8  9  2  0  0  0
  8 10  1  0  0  0
 10 12  1  0  0  0
 23 24  1  0  0  0
 34 35  2  0  0  0
 34 36  1  0  0  0
 36 38  1  0  0  0
 38 39  1  0  0  0
 38 44  1  0  0  0
 39 40  2  0  0  0
 39 41  1  0  0  0
 40 46  1  0  0  0
 40 47  1  0  0  0
 41 42  2  0  0  0
 42 43  1  0  0  0
 43 46  2  0  0  0
 44 45  1  0  0  0
 44 47  1  0  0  0
 12 13  1  0  0  0
 12 18  1  0  0  0
 13 14  2  0  0  0
 13 15  1  0  0  0
 14 20  1  0  0  0
 14 21  1  0  0  0
 15 16  2  0  0  0
 16 17  1  0  0  0
 17 20  2  0  0  0
 18 19  1  0  0  0
 18 21  1  0  0  0
 10 11  1  0  0  0
  5  6  1  0  0  0
  2  3  1  0  0  0
 36 37  1  0  0  0
 45 48  1  0  0  0
 19 22  1  0  0  0
M  END
> <minimizedAffinity>
-11.52360

$$$$
