1W5X_BE5_A_501
  RCSB PDB12061704303D
Coordinates from PDB:1W5X:A:501 Model:1 without hydrogens
 52 57  0  0  0  0            999 V2000
   16.5670   21.9590    8.7560   C 0  0  0  0  0  0  0  0  0  0  0  0
   18.0130   21.7870    8.5230   C 0  0  0  0  0  0  0  0  0  0  0  0
   18.7110   20.5610    8.8610   C 0  0  0  0  0  0  0  0  0  0  0  0
   17.9830   19.4290    9.4550   C 0  0  0  0  0  0  0  0  0  0  0  0
   16.5300   19.5620    9.7020   C 0  0  0  0  0  0  0  0  0  0  0  0
   15.8430   20.8000    9.3590   C 0  0  0  0  0  0  0  0  0  0  0  0
    9.8110   23.8560    2.1860   C 0  0  0  0  0  0  0  0  0  0  0  0
    8.7700   22.9280    2.6680   C 0  0  0  0  0  0  0  0  0  0  0  0
    7.3420   23.3660    2.7040   C 0  0  0  0  0  0  0  0  0  0  0  0
    6.9810   24.7480    2.2450   C 0  0  0  0  0  0  0  0  0  0  0  0
    8.0690   25.6530    1.7640   C 0  0  0  0  0  0  0  0  0  0  0  0
    9.4350   25.1990    1.7460   C 0  0  0  0  0  0  0  0  0  0  0  0
   11.2900   23.4910    2.1270   C 0  0  0  0  0  0  0  0  0  0  0  0
   11.7600   23.0610    3.4460   O 0  0  0  0  0  0  0  0  0  0  0  0
   11.9360   24.0800    4.5760   C 0  0  0  0  0  0  0  0  0  0  0  0
   12.9970   23.6860    5.5660   C 0  0  0  0  0  0  0  0  0  0  0  0
   14.2820   23.4650    4.9150   C 0  0  0  0  0  0  0  0  0  0  0  0
   15.2290   22.7270    5.9590   C 0  0  0  0  0  0  0  0  0  0  0  0
   15.1860   21.2170    5.7920   C 0  0  0  0  0  0  0  0  0  0  0  0
   14.1280   20.5720    6.0030   O 0  0  0  0  0  0  0  0  0  0  0  0
   16.3400   20.5850    5.4280   N 0  0  0  0  0  0  0  0  0  0  0  0
   14.8860   23.0620    7.3730   O 0  0  0  0  0  0  0  0  0  0  0  0
   15.9460   23.3040    8.3510   C 0  0  0  0  0  0  0  0  0  0  0  0
   14.8430   24.7450    4.5190   O 0  0  0  0  0  0  0  0  0  0  0  0
   13.1370   24.7980    6.5430   O 0  0  0  0  0  0  0  0  0  0  0  0
   10.6970   24.2170    5.3670   C 0  0  0  0  0  0  0  0  0  0  0  0
   10.2670   23.2360    6.0260   O 0  0  0  0  0  0  0  0  0  0  0  0
   10.0490   25.4100    5.3700   N 0  0  0  0  0  0  0  0  0  0  0  0
    8.8310   25.6050    6.1290   C 0  0  0  0  0  0  0  0  0  0  0  0
    9.1430   26.3030    7.4140   C 0  0  0  0  0  0  0  0  0  0  0  0
    8.0090   27.1450    7.8030   C 0  0  0  0  0  0  0  0  0  0  0  0
   10.3610   26.2470    8.2580   C 0  0  0  0  0  0  0  0  0  0  0  0
   10.4140   27.0640    9.5120   C 0  0  0  0  0  0  0  0  0  0  0  0
    9.2560   27.9000    9.8740   C 0  0  0  0  0  0  0  0  0  0  0  0
    7.7660   26.5710    5.5440   C 0  0  0  0  0  0  0  0  0  0  0  0
    8.4830   27.6460    4.8890   O 0  0  0  0  0  0  0  0  0  0  0  0
    8.0440   27.9540    9.0340   C 0  0  0  0  0  0  0  0  0  0  0  0
    6.9400   27.0110    6.7890   C 0  0  0  0  0  0  0  0  0  0  0  0
   16.4420   19.1560    5.2500   C 0  0  0  0  0  0  0  0  0  0  0  0
   16.3600   18.7580    3.7820   C 0  0  0  0  0  0  0  0  0  0  0  0
   17.3050   17.6880    3.5100   C 0  0  0  0  0  0  0  0  0  0  0  0
   15.5120   19.2920    2.7050   C 0  0  0  0  0  0  0  0  0  0  0  0
   15.6360   18.7190    1.3300   C 0  0  0  0  0  0  0  0  0  0  0  0
   16.6010   17.6400    1.0960   C 0  0  0  0  0  0  0  0  0  0  0  0
   17.8460   18.6200    5.6380   C 0  0  0  0  0  0  0  0  0  0  0  0
   18.8120   19.6620    5.3430   O 0  0  0  0  0  0  0  0  0  0  0  0
   17.4490   17.1030    2.1620   C 0  0  0  0  0  0  0  0  0  0  0  0
   18.0230   17.3530    4.7830   C 0  0  0  0  0  0  0  0  0  0  0  0
    6.3150   22.4500    3.1840   F 0  0  0  0  0  0  0  0  0  0  0  0
   15.7780   18.4480   10.2910   F 0  0  0  0  0  0  0  0  0  0  0  0
   14.3510   20.9740    9.5930   F 0  0  0  0  0  0  0  0  0  0  0  0
    9.1430   21.5600    3.1210   F 0  0  0  0  0  0  0  0  0  0  0  0
  1  2  2  0  0  0  0
  1  6  1  0  0  0  0
  1 23  1  0  0  0  0
  2  3  1  0  0  0  0
  3  4  2  0  0  0  0
  4  5  1  0  0  0  0
  5  6  2  0  0  0  0
  5 50  1  0  0  0  0
  6 51  1  0  0  0  0
  7  8  2  0  0  0  0
  7 12  1  0  0  0  0
  7 13  1  0  0  0  0
  8  9  1  0  0  0  0
  8 52  1  0  0  0  0
  9 10  2  0  0  0  0
  9 49  1  0  0  0  0
 10 11  1  0  0  0  0
 11 12  2  0  0  0  0
 13 14  1  0  0  0  0
 14 15  1  0  0  0  0
 15 16  1  0  0  0  0
 15 26  1  0  0  0  0
 16 17  1  0  0  0  0
 16 25  1  0  0  0  0
 17 18  1  0  0  0  0
 17 24  1  0  0  0  0
 18 19  1  0  0  0  0
 18 22  1  0  0  0  0
 19 20  2  0  0  0  0
 19 21  1  0  0  0  0
 21 39  1  0  0  0  0
 22 23  1  0  0  0  0
 26 27  2  0  0  0  0
 26 28  1  0  0  0  0
 28 29  1  0  0  0  0
 29 30  1  0  0  0  0
 29 35  1  0  0  0  0
 30 31  2  0  0  0  0
 30 32  1  0  0  0  0
 31 37  1  0  0  0  0
 31 38  1  0  0  0  0
 32 33  2  0  0  0  0
 33 34  1  0  0  0  0
 34 37  2  0  0  0  0
 35 36  1  0  0  0  0
 35 38  1  0  0  0  0
 39 40  1  0  0  0  0
 39 45  1  0  0  0  0
 40 41  2  0  0  0  0
 40 42  1  0  0  0  0
 41 47  1  0  0  0  0
 41 48  1  0  0  0  0
 42 43  2  0  0  0  0
 43 44  1  0  0  0  0
 44 47  2  0  0  0  0
 45 46  1  0  0  0  0
 45 48  1  0  0  0  0
A    1
C01
A    2
C02
A    3
C03
A    4
C04
A    5
C05
A    6
C06
A    7
C07
A    8
C08
A    9
C09
A   10
C10
A   11
C11
A   12
C12
A   13
C13
A   14
O14
A   15
C15
A   16
C16
A   17
C17
A   18
C18
A   19
C19
A   20
O20
A   21
N21
A   22
O22
A   23
C23
A   24
O24
A   25
O25
A   26
C26
A   27
O27
A   28
N28
A   29
C29
A   30
C30
A   31
C31
A   32
C32
A   33
C33
A   34
C34
A   35
C35
A   36
O36
A   37
C37
A   38
C38
A   39
C39
A   40
C40
A   41
C41
A   42
C42
A   43
C43
A   44
C44
A   45
C45
A   46
O46
A   47
C47
A   48
C48
A   49
F49
A   50
F50
A   51
F51
A   52
F52
M  END
>  <InstanceId>
1W5X_BE5_A_501

>  <ChemCompId>
BE5

>  <PdbId>
1W5X

>  <ChainId>
A

>  <ResidueNumber>
501

>  <InsertionCode>


>  <Model>
1

>  <AltIds>


>  <MissingHeavyAtoms>
0

>  <ObservedFormula>
C38 N2 O8 F4

>  <Name>
(2R,3R,4R,5R)-2,5-BIS[(2,3-DIFLUOROBENZYL)OXY]-3,4-DIHYDROXY-N,N'-BIS[(1S,2R)-2-HYDROXY-2,3-DIHYDRO-1H-INDEN-1-YL]HEXANEDIAMIDE

>  <SystematicName>
(2R,3R,4R,5R)-2,5-bis[(2,3-difluorophenyl)methoxy]-3,4-dihydroxy-N,N'-bis[(1S,2R)-2-hydroxy-2,3-dihydro-1H-inden-1-yl]hexanediamide

>  <Synonyms>
HIV-1 INHIBITOR

>  <Type>
NON-POLYMER

>  <Formula>
C38 H36 F4 N2 O8

>  <MolecularWeight>
724.695

>  <ModifiedDate>
2011-06-04

>  <Parent>


>  <OneLetterCode>


>  <SubcomponentList>


>  <AmbiguousFlag>
N

>  <InChI>
InChI=1S/C38H36F4N2O8/c39-25-13-5-9-21(29(25)41)17-51-35(37(49)43-31-23-11-3-1-7-19(23)15-27(31)45)33(47)34(48)36(52-18-22-10-6-14-26(40)30(22)42)38(50)44-32-24-12-4-2-8-20(24)16-28(32)46/h1-14,27-28,31-36,45-48H,15-18H2,(H,43,49)(H,44,50)/t27-,28-,31+,32+,33-,34-,35-,36-/m1/s1

>  <InChIKey>
FJIRQAXCBOCEQN-QHNIKEGDSA-N

>  <SMILES>
c1ccc2c(c1)C[C@H]([C@H]2NC(=O)[C@@H]([C@@H]([C@H]([C@H](C(=O)N[C@H]3c4ccccc4C[C@H]3O)OCc5cccc(c5F)F)O)O)OCc6cccc(c6F)F)O

$$$$
