2YZ3_M5P_A_401


 17 17  0  0  0  0  0  0  0  0999 V2000
   32.7265    9.7773  108.0691 C   0  0  0  0  0  0  0  0  0  0  0  0
   33.3956    9.0910  109.2613 C   0  0  0  0  0  0  0  0  0  0  0  0
   33.0747    7.5983  109.3628 C   0  0  0  0  0  0  0  0  0  0  0  0
   34.0620    6.0422  107.6408 C   0  0  0  0  0  0  0  0  0  0  0  0
   35.1513    5.4619  106.9973 C   0  0  0  0  0  0  0  0  0  0  0  0
   36.4369    5.6478  107.4985 C   0  0  0  0  0  0  0  0  0  0  0  0
   36.6294    6.4081  108.6501 C   0  0  0  0  0  0  0  0  0  0  0  0
   35.5410    6.9864  109.2933 C   0  0  0  0  0  0  0  0  0  0  0  0
   34.2548    6.8120  108.7837 C   0  0  0  0  0  0  0  0  0  0  0  0
   33.6935   10.8082  107.4828 C   0  0  0  0  0  0  0  0  0  0  0  0
   33.7587   12.0922  108.3104 C   0  0  0  0  0  0  0  0  0  0  0  0
   32.7511   12.4896  108.8973 O   0  0  0  0  0  0  0  0  0  0  0  0
   34.7934   12.7494  108.3762 O   0  0  0  0  0  0  0  0  0  0  0  0
   35.5646   12.4548  107.9330 H   0  0  0  0  0  0  0  0  0  0  0  0
   35.0910   10.2278  107.2792 C   0  0  0  0  0  0  0  0  0  0  0  0
   35.1323    9.2173  105.7545 S   0  0  0  0  0  0  0  0  0  0  0  0
   34.2399    8.1968  105.8627 H   0  0  0  0  0  0  0  0  0  0  0  0
  4  5  1  0  0  0
  4  9  2  0  0  0
  5  6  2  0  0  0
  6  7  1  0  0  0
  7  8  2  0  0  0
  8  9  1  0  0  0
  9  3  1  0  0  0
  3  2  1  0  0  0
  2  1  1  0  0  0
  1 10  1  0  0  0
 10 11  1  0  0  0
 10 15  1  0  0  0
 11 12  2  0  0  0
 11 13  1  0  0  0
 15 16  1  0  0  0
 13 14  1  0  0  0
 16 17  1  0  0  0
M  END
> <minimizedAffinity>
-7.26422

$$$$
2YZ3_M5P_A_401


 17 17  0  0  0  0  0  0  0  0999 V2000
   33.1427    9.4020  107.5971 C   0  0  0  0  0  0  0  0  0  0  0  0
   33.0962    8.9820  109.0672 C   0  0  0  0  0  0  0  0  0  0  0  0
   33.0480    7.4655  109.2655 C   0  0  0  0  0  0  0  0  0  0  0  0
   35.5323    7.0306  109.2889 C   0  0  0  0  0  0  0  0  0  0  0  0
   36.6590    6.3457  108.8431 C   0  0  0  0  0  0  0  0  0  0  0  0
   36.5664    5.4891  107.7492 C   0  0  0  0  0  0  0  0  0  0  0  0
   35.3461    5.3263  107.0969 C   0  0  0  0  0  0  0  0  0  0  0  0
   34.2212    6.0117  107.5417 C   0  0  0  0  0  0  0  0  0  0  0  0
   34.3105    6.8588  108.6457 C   0  0  0  0  0  0  0  0  0  0  0  0
   33.0228   10.9251  107.5118 C   0  0  0  0  0  0  0  0  0  0  0  0
   34.3332   11.6387  107.8458 C   0  0  0  0  0  0  0  0  0  0  0  0
   35.4021   11.1558  107.4691 O   0  0  0  0  0  0  0  0  0  0  0  0
   34.3386   12.6718  108.5089 O   0  0  0  0  0  0  0  0  0  0  0  0
   33.5303   13.0462  108.7996 H   0  0  0  0  0  0  0  0  0  0  0  0
   32.4933   11.3801  106.1538 C   0  0  0  0  0  0  0  0  0  0  0  0
   30.8747   12.2079  106.3593 S   0  0  0  0  0  0  0  0  0  0  0  0
   29.9875   11.3379  106.9121 H   0  0  0  0  0  0  0  0  0  0  0  0
  4  5  1  0  0  0
  4  9  2  0  0  0
  5  6  2  0  0  0
  6  7  1  0  0  0
  7  8  2  0  0  0
  8  9  1  0  0  0
  9  3  1  0  0  0
  3  2  1  0  0  0
  2  1  1  0  0  0
  1 10  1  0  0  0
 10 11  1  0  0  0
 10 15  1  0  0  0
 11 12  2  0  0  0
 11 13  1  0  0  0
 15 16  1  0  0  0
 13 14  1  0  0  0
 16 17  1  0  0  0
M  END
> <minimizedAffinity>
-7.13056

$$$$
2YZ3_M5P_A_401


 17 17  0  0  0  0  0  0  0  0999 V2000
   32.9616    8.9132  107.1627 C   0  0  0  0  0  0  0  0  0  0  0  0
   33.1455    8.9520  108.6808 C   0  0  0  0  0  0  0  0  0  0  0  0
   33.1364    7.5666  109.3304 C   0  0  0  0  0  0  0  0  0  0  0  0
   34.1455    5.9703  107.6585 C   0  0  0  0  0  0  0  0  0  0  0  0
   35.2428    5.3781  107.0401 C   0  0  0  0  0  0  0  0  0  0  0  0
   36.5232    5.5826  107.5477 C   0  0  0  0  0  0  0  0  0  0  0  0
   36.7022    6.3736  108.6806 C   0  0  0  0  0  0  0  0  0  0  0  0
   35.6057    6.9637  109.2988 C   0  0  0  0  0  0  0  0  0  0  0  0
   34.3248    6.7706  108.7826 C   0  0  0  0  0  0  0  0  0  0  0  0
   34.0184    9.8079  106.5115 C   0  0  0  0  0  0  0  0  0  0  0  0
   35.0828    9.0097  105.7580 C   0  0  0  0  0  0  0  0  0  0  0  0
   36.2083    8.8866  106.2437 O   0  0  0  0  0  0  0  0  0  0  0  0
   34.8416    8.5129  104.6617 O   0  0  0  0  0  0  0  0  0  0  0  0
   33.9884    8.6016  104.2847 H   0  0  0  0  0  0  0  0  0  0  0  0
   33.3912   10.8613  105.6013 C   0  0  0  0  0  0  0  0  0  0  0  0
   31.9156   11.5842  106.4059 S   0  0  0  0  0  0  0  0  0  0  0  0
   31.0032   10.6041  106.6441 H   0  0  0  0  0  0  0  0  0  0  0  0
  4  5  1  0  0  0
  4  9  2  0  0  0
  5  6  2  0  0  0
  6  7  1  0  0  0
  7  8  2  0  0  0
  8  9  1  0  0  0
  9  3  1  0  0  0
  3  2  1  0  0  0
  2  1  1  0  0  0
  1 10  1  0  0  0
 10 11  1  0  0  0
 10 15  1  0  0  0
 11 12  2  0  0  0
 11 13  1  0  0  0
 15 16  1  0  0  0
 13 14  1  0  0  0
 16 17  1  0  0  0
M  END
> <minimizedAffinity>
-7.10973

$$$$
2YZ3_M5P_A_401


 17 17  0  0  0  0  0  0  0  0999 V2000
   32.7401    9.9886  108.5825 C   0  0  0  0  0  0  0  0  0  0  0  0
   33.4265    8.8457  109.3325 C   0  0  0  0  0  0  0  0  0  0  0  0
   33.0490    7.4593  108.8063 C   0  0  0  0  0  0  0  0  0  0  0  0
   34.3997    5.8516  107.4089 C   0  0  0  0  0  0  0  0  0  0  0  0
   35.6096    5.2763  107.0314 C   0  0  0  0  0  0  0  0  0  0  0  0
   36.7625    5.5309  107.7694 C   0  0  0  0  0  0  0  0  0  0  0  0
   36.7005    6.3551  108.8911 C   0  0  0  0  0  0  0  0  0  0  0  0
   35.4915    6.9283  109.2686 C   0  0  0  0  0  0  0  0  0  0  0  0
   34.3394    6.6848  108.5217 C   0  0  0  0  0  0  0  0  0  0  0  0
   33.4053   10.1550  107.2145 C   0  0  0  0  0  0  0  0  0  0  0  0
   32.6090   11.0654  106.2791 C   0  0  0  0  0  0  0  0  0  0  0  0
   32.9829   11.2187  105.1154 O   0  0  0  0  0  0  0  0  0  0  0  0
   31.6177   11.6694  106.6784 O   0  0  0  0  0  0  0  0  0  0  0  0
   31.3261   11.5589  107.5620 H   0  0  0  0  0  0  0  0  0  0  0  0
   34.8481   10.6394  107.3372 C   0  0  0  0  0  0  0  0  0  0  0  0
   35.9737    9.4723  106.4896 S   0  0  0  0  0  0  0  0  0  0  0  0
   35.8683    8.2436  107.0630 H   0  0  0  0  0  0  0  0  0  0  0  0
  4  5  1  0  0  0
  4  9  2  0  0  0
  5  6  2  0  0  0
  6  7  1  0  0  0
  7  8  2  0  0  0
  8  9  1  0  0  0
  9  3  1  0  0  0
  3  2  1  0  0  0
  2  1  1  0  0  0
  1 10  1  0  0  0
 10 11  1  0  0  0
 10 15  1  0  0  0
 11 12  2  0  0  0
 11 13  1  0  0  0
 15 16  1  0  0  0
 13 14  1  0  0  0
 16 17  1  0  0  0
M  END
> <minimizedAffinity>
-6.74855

$$$$
2YZ3_M5P_A_401


 17 17  0  0  0  0  0  0  0  0999 V2000
   34.6474    6.1120  107.8135 C   0  0  0  0  0  0  0  0  0  0  0  0
   33.2363    6.5940  108.1550 C   0  0  0  0  0  0  0  0  0  0  0  0
   33.2100    7.6956  109.2167 C   0  0  0  0  0  0  0  0  0  0  0  0
   32.9399    9.0731  107.1212 C   0  0  0  0  0  0  0  0  0  0  0  0
   32.5821   10.2484  106.4669 C   0  0  0  0  0  0  0  0  0  0  0  0
   32.2929   11.3949  107.2021 C   0  0  0  0  0  0  0  0  0  0  0  0
   32.3713   11.3654  108.5929 C   0  0  0  0  0  0  0  0  0  0  0  0
   32.7301   10.1917  109.2459 C   0  0  0  0  0  0  0  0  0  0  0  0
   33.0062    9.0395  108.5106 C   0  0  0  0  0  0  0  0  0  0  0  0
   34.5703    5.1553  106.6217 C   0  0  0  0  0  0  0  0  0  0  0  0
   34.0960    5.8451  105.3422 C   0  0  0  0  0  0  0  0  0  0  0  0
   34.6945    6.8396  104.9295 O   0  0  0  0  0  0  0  0  0  0  0  0
   33.1095    5.4396  104.7345 O   0  0  0  0  0  0  0  0  0  0  0  0
   32.6481    4.6839  105.0412 H   0  0  0  0  0  0  0  0  0  0  0  0
   35.8943    4.4327  106.3843 C   0  0  0  0  0  0  0  0  0  0  0  0
   37.1070    4.9117  107.6678 S   0  0  0  0  0  0  0  0  0  0  0  0
   37.3186    6.2540  107.6131 H   0  0  0  0  0  0  0  0  0  0  0  0
  4  5  1  0  0  0
  4  9  2  0  0  0
  5  6  2  0  0  0
  6  7  1  0  0  0
  7  8  2  0  0  0
  8  9  1  0  0  0
  9  3  1  0  0  0
  3  2  1  0  0  0
  2  1  1  0  0  0
  1 10  1  0  0  0
 10 11  1  0  0  0
 10 15  1  0  0  0
 11 12  2  0  0  0
 11 13  1  0  0  0
 15 16  1  0  0  0
 13 14  1  0  0  0
 16 17  1  0  0  0
M  END
> <minimizedAffinity>
-6.69988

$$$$
2YZ3_M5P_A_401


 17 17  0  0  0  0  0  0  0  0999 V2000
   32.4699   11.3486  106.4916 C   0  0  0  0  0  0  0  0  0  0  0  0
   33.4663   10.2483  106.1221 C   0  0  0  0  0  0  0  0  0  0  0  0
   32.9109    8.8353  106.3133 C   0  0  0  0  0  0  0  0  0  0  0  0
   35.1296    8.0365  107.2081 C   0  0  0  0  0  0  0  0  0  0  0  0
   35.9324    7.5575  108.2394 C   0  0  0  0  0  0  0  0  0  0  0  0
   35.3575    7.1653  109.4453 C   0  0  0  0  0  0  0  0  0  0  0  0
   33.9767    7.2450  109.6140 C   0  0  0  0  0  0  0  0  0  0  0  0
   33.1752    7.7222  108.5833 C   0  0  0  0  0  0  0  0  0  0  0  0
   33.7520    8.1281  107.3804 C   0  0  0  0  0  0  0  0  0  0  0  0
   32.4113   11.4740  108.0156 C   0  0  0  0  0  0  0  0  0  0  0  0
   33.7830   11.7359  108.6382 C   0  0  0  0  0  0  0  0  0  0  0  0
   34.2922   10.8845  109.3686 O   0  0  0  0  0  0  0  0  0  0  0  0
   34.3730   12.7948  108.4442 O   0  0  0  0  0  0  0  0  0  0  0  0
   33.9932   13.4481  107.8902 H   0  0  0  0  0  0  0  0  0  0  0  0
   31.4066   12.5335  108.4622 C   0  0  0  0  0  0  0  0  0  0  0  0
   31.2682   12.5343  110.2865 S   0  0  0  0  0  0  0  0  0  0  0  0
   30.8427   11.3137  110.7093 H   0  0  0  0  0  0  0  0  0  0  0  0
  4  5  1  0  0  0
  4  9  2  0  0  0
  5  6  2  0  0  0
  6  7  1  0  0  0
  7  8  2  0  0  0
  8  9  1  0  0  0
  9  3  1  0  0  0
  3  2  1  0  0  0
  2  1  1  0  0  0
  1 10  1  0  0  0
 10 11  1  0  0  0
 10 15  1  0  0  0
 11 12  2  0  0  0
 11 13  1  0  0  0
 15 16  1  0  0  0
 13 14  1  0  0  0
 16 17  1  0  0  0
M  END
> <minimizedAffinity>
-6.67619

$$$$
2YZ3_M5P_A_401


 17 17  0  0  0  0  0  0  0  0999 V2000
   32.5584   10.5366  108.8051 C   0  0  0  0  0  0  0  0  0  0  0  0
   32.7451    9.1074  108.2930 C   0  0  0  0  0  0  0  0  0  0  0  0
   33.0641    8.1010  109.4006 C   0  0  0  0  0  0  0  0  0  0  0  0
   33.8713    6.3966  107.7258 C   0  0  0  0  0  0  0  0  0  0  0  0
   34.8833    5.6453  107.1351 C   0  0  0  0  0  0  0  0  0  0  0  0
   36.1563    5.6257  107.6988 C   0  0  0  0  0  0  0  0  0  0  0  0
   36.4121    6.3521  108.8599 C   0  0  0  0  0  0  0  0  0  0  0  0
   35.4007    7.1012  109.4503 C   0  0  0  0  0  0  0  0  0  0  0  0
   34.1294    7.1323  108.8782 C   0  0  0  0  0  0  0  0  0  0  0  0
   32.9966   11.5162  107.7142 C   0  0  0  0  0  0  0  0  0  0  0  0
   34.5159   11.5789  107.5546 C   0  0  0  0  0  0  0  0  0  0  0  0
   35.1308   12.5638  107.9664 O   0  0  0  0  0  0  0  0  0  0  0  0
   35.1303   10.6747  106.9961 O   0  0  0  0  0  0  0  0  0  0  0  0
   34.6708    9.9219  106.6797 H   0  0  0  0  0  0  0  0  0  0  0  0
   32.3269   11.2153  106.3754 C   0  0  0  0  0  0  0  0  0  0  0  0
   30.7462   12.1276  106.2480 S   0  0  0  0  0  0  0  0  0  0  0  0
   29.9175   11.7415  107.2549 H   0  0  0  0  0  0  0  0  0  0  0  0
  4  5  1  0  0  0
  4  9  2  0  0  0
  5  6  2  0  0  0
  6  7  1  0  0  0
  7  8  2  0  0  0
  8  9  1  0  0  0
  9  3  1  0  0  0
  3  2  1  0  0  0
  2  1  1  0  0  0
  1 10  1  0  0  0
 10 11  1  0  0  0
 10 15  1  0  0  0
 11 12  2  0  0  0
 11 13  1  0  0  0
 15 16  1  0  0  0
 13 14  1  0  0  0
 16 17  1  0  0  0
M  END
> <minimizedAffinity>
-6.60618

$$$$
2YZ3_M5P_A_401


 17 17  0  0  0  0  0  0  0  0999 V2000
   35.4514    7.0167  109.3768 C   0  0  0  0  0  0  0  0  0  0  0  0
   34.0344    6.9425  108.8053 C   0  0  0  0  0  0  0  0  0  0  0  0
   33.0359    7.8430  109.5356 C   0  0  0  0  0  0  0  0  0  0  0  0
   33.4861   10.3240  109.4731 C   0  0  0  0  0  0  0  0  0  0  0  0
   33.6227   11.5259  108.7847 C   0  0  0  0  0  0  0  0  0  0  0  0
   33.2659   11.6039  107.4411 C   0  0  0  0  0  0  0  0  0  0  0  0
   32.7636   10.4790  106.7902 C   0  0  0  0  0  0  0  0  0  0  0  0
   32.6260    9.2791  107.4786 C   0  0  0  0  0  0  0  0  0  0  0  0
   32.9964    9.1969  108.8204 C   0  0  0  0  0  0  0  0  0  0  0  0
   36.4489    7.1114  108.2202 C   0  0  0  0  0  0  0  0  0  0  0  0
   37.1335    5.7771  107.9221 C   0  0  0  0  0  0  0  0  0  0  0  0
   38.3528    5.6736  108.0648 O   0  0  0  0  0  0  0  0  0  0  0  0
   36.4902    4.8141  107.5149 O   0  0  0  0  0  0  0  0  0  0  0  0
   35.5625    4.8838  107.4034 H   0  0  0  0  0  0  0  0  0  0  0  0
   35.8055    7.6798  106.9575 C   0  0  0  0  0  0  0  0  0  0  0  0
   36.3290    9.4162  106.7165 S   0  0  0  0  0  0  0  0  0  0  0  0
   35.9389   10.1600  107.7861 H   0  0  0  0  0  0  0  0  0  0  0  0
  4  5  1  0  0  0
  4  9  2  0  0  0
  5  6  2  0  0  0
  6  7  1  0  0  0
  7  8  2  0  0  0
  8  9  1  0  0  0
  9  3  1  0  0  0
  3  2  1  0  0  0
  2  1  1  0  0  0
  1 10  1  0  0  0
 10 11  1  0  0  0
 10 15  1  0  0  0
 11 12  2  0  0  0
 11 13  1  0  0  0
 15 16  1  0  0  0
 13 14  1  0  0  0
 16 17  1  0  0  0
M  END
> <minimizedAffinity>
-6.60262

$$$$
2YZ3_M5P_A_401


 17 17  0  0  0  0  0  0  0  0999 V2000
   35.1030    6.9996  109.2790 C   0  0  0  0  0  0  0  0  0  0  0  0
   33.6077    7.0427  108.9594 C   0  0  0  0  0  0  0  0  0  0  0  0
   32.8886    8.2453  109.5743 C   0  0  0  0  0  0  0  0  0  0  0  0
   33.7258   10.5832  109.1328 C   0  0  0  0  0  0  0  0  0  0  0  0
   34.0701   11.6165  108.2661 C   0  0  0  0  0  0  0  0  0  0  0  0
   33.7692   11.5181  106.9102 C   0  0  0  0  0  0  0  0  0  0  0  0
   33.1151   10.3877  106.4249 C   0  0  0  0  0  0  0  0  0  0  0  0
   32.7701    9.3565  107.2911 C   0  0  0  0  0  0  0  0  0  0  0  0
   33.0838    9.4485  108.6467 C   0  0  0  0  0  0  0  0  0  0  0  0
   35.8588    6.4889  108.0504 C   0  0  0  0  0  0  0  0  0  0  0  0
   35.8219    7.4764  106.8836 C   0  0  0  0  0  0  0  0  0  0  0  0
   35.1454    7.2161  105.8875 O   0  0  0  0  0  0  0  0  0  0  0  0
   36.4793    8.5127  106.9120 O   0  0  0  0  0  0  0  0  0  0  0  0
   36.9967    8.7187  107.6656 H   0  0  0  0  0  0  0  0  0  0  0  0
   37.2983    6.1054  108.3853 C   0  0  0  0  0  0  0  0  0  0  0  0
   37.6526    4.4161  107.7787 S   0  0  0  0  0  0  0  0  0  0  0  0
   36.8082    3.5334  108.3765 H   0  0  0  0  0  0  0  0  0  0  0  0
  4  5  1  0  0  0
  4  9  2  0  0  0
  5  6  2  0  0  0
  6  7  1  0  0  0
  7  8  2  0  0  0
  8  9  1  0  0  0
  9  3  1  0  0  0
  3  2  1  0  0  0
  2  1  1  0  0  0
  1 10  1  0  0  0
 10 11  1  0  0  0
 10 15  1  0  0  0
 11 12  2  0  0  0
 11 13  1  0  0  0
 15 16  1  0  0  0
 13 14  1  0  0  0
 16 17  1  0  0  0
M  END
> <minimizedAffinity>
-6.60223

$$$$
2YZ3_M5P_A_401


 17 17  0  0  0  0  0  0  0  0999 V2000
   32.7410    9.4371  107.8441 C   0  0  0  0  0  0  0  0  0  0  0  0
   33.2675    8.8798  109.1677 C   0  0  0  0  0  0  0  0  0  0  0  0
   33.1831    7.3549  109.2623 C   0  0  0  0  0  0  0  0  0  0  0  0
   35.6611    6.8850  109.2814 C   0  0  0  0  0  0  0  0  0  0  0  0
   36.7820    6.2079  108.8096 C   0  0  0  0  0  0  0  0  0  0  0  0
   36.6864    5.4087  107.6735 C   0  0  0  0  0  0  0  0  0  0  0  0
   35.4690    5.2957  107.0052 C   0  0  0  0  0  0  0  0  0  0  0  0
   34.3501    5.9734  107.4759 C   0  0  0  0  0  0  0  0  0  0  0  0
   34.4421    6.7627  108.6217 C   0  0  0  0  0  0  0  0  0  0  0  0
   33.7971   10.3662  107.2414 C   0  0  0  0  0  0  0  0  0  0  0  0
   33.7308   10.4214  105.7148 C   0  0  0  0  0  0  0  0  0  0  0  0
   32.9688   11.2198  105.1674 O   0  0  0  0  0  0  0  0  0  0  0  0
   34.4051    9.6618  105.0254 O   0  0  0  0  0  0  0  0  0  0  0  0
   34.9873    9.0514  105.4332 H   0  0  0  0  0  0  0  0  0  0  0  0
   33.7251   11.7715  107.8342 C   0  0  0  0  0  0  0  0  0  0  0  0
   32.0274   12.1155  108.4231 S   0  0  0  0  0  0  0  0  0  0  0  0
   31.1596   12.0297  107.3795 H   0  0  0  0  0  0  0  0  0  0  0  0
  4  5  1  0  0  0
  4  9  2  0  0  0
  5  6  2  0  0  0
  6  7  1  0  0  0
  7  8  2  0  0  0
  8  9  1  0  0  0
  9  3  1  0  0  0
  3  2  1  0  0  0
  2  1  1  0  0  0
  1 10  1  0  0  0
 10 11  1  0  0  0
 10 15  1  0  0  0
 11 12  2  0  0  0
 11 13  1  0  0  0
 15 16  1  0  0  0
 13 14  1  0  0  0
 16 17  1  0  0  0
M  END
> <minimizedAffinity>
-6.59929

$$$$
