3T84_SG6_A_300


 24 24  0  0  0  0  0  0  0  0999 V2000
   17.0061   -0.9020   11.8316 C   0  0  0  0  0  0  0  0  0  0  0  0
   16.8107   -0.8516   13.2285 O   0  0  0  0  0  0  0  0  0  0  0  0
   16.3757    0.2173   11.1409 C   0  0  0  0  0  0  0  0  0  0  0  0
   16.8142    1.5291   11.5632 C   0  0  0  0  0  0  0  0  0  0  0  0
   16.7074    1.6664   13.0315 C   0  0  0  0  0  0  0  0  0  0  0  0
   17.1854    0.4242   13.7853 C   0  0  0  0  0  0  0  0  0  0  0  0
   18.3559   -1.0271   11.4574 O   0  0  0  0  0  0  0  0  0  0  0  0
   16.4395    0.0396    9.7581 O   0  0  0  0  0  0  0  0  0  0  0  0
   16.2731    2.5669   10.7905 O   0  0  0  0  0  0  0  0  0  0  0  0
   18.8406   -0.2305   11.7245 H   0  0  0  0  0  0  0  0  0  0  0  0
   17.3666    0.0520    9.4729 H   0  0  0  0  0  0  0  0  0  0  0  0
   15.3088    2.5790   10.8950 H   0  0  0  0  0  0  0  0  0  0  0  0
   15.4462    2.1356   13.4570 O   0  0  0  0  0  0  0  0  0  0  0  0
   15.8594    4.4579   13.8209 C   0  0  0  0  0  0  0  0  0  0  0  0
   15.3758    3.1156   14.2631 C   0  0  0  0  0  0  0  0  0  0  0  0
   14.7289    3.0310   15.3476 O   0  0  0  0  0  0  0  0  0  0  0  0
   17.0821    0.4079   15.3082 C   0  0  0  0  0  0  0  0  0  0  0  0
   15.9938   -0.3005   15.7714 O   0  0  0  0  0  0  0  0  0  0  0  0
   15.2682    0.0448   17.0119 S   0  0  0  0  0  0  0  0  0  0  0  0
   15.9289    0.6367   18.1816 O   0  0  0  0  0  0  0  0  0  0  0  0
   15.3938   -1.3219   17.5152 O   0  0  0  0  0  0  0  0  0  0  0  0
   13.7414    0.3702   16.8273 N   0  0  0  0  0  0  0  0  0  0  0  0
   13.6367    1.3221   16.4760 H   0  0  0  0  0  0  0  0  0  0  0  0
   13.2646    0.2848   17.7250 H   0  0  0  0  0  0  0  0  0  0  0  0
  1  2  1  0  0  0
  1  3  1  0  0  0
  1  7  1  0  0  0
  2  6  1  0  0  0
  3  4  1  0  0  0
  3  8  1  0  0  0
  4  5  1  0  0  0
  4  9  1  0  0  0
  5  6  1  0  0  0
  5 13  1  0  0  0
  6 17  1  0  0  0
 13 15  1  0  0  0
 14 15  1  0  0  0
 15 16  2  0  0  0
 17 18  1  0  0  0
 18 19  1  0  0  0
 19 20  2  0  0  0
 19 21  2  0  0  0
 19 22  1  0  0  0
  7 10  1  0  0  0
  8 11  1  0  0  0
  9 12  1  0  0  0
 22 23  1  0  0  0
 22 24  1  0  0  0
M  END
> <minimizedAffinity>
-7.93113

$$$$
3T84_SG6_A_300


 24 24  0  0  0  0  0  0  0  0999 V2000
   19.5570    3.5101   12.7571 C   0  0  0  0  0  0  0  0  0  0  0  0
   18.6320    2.7441   13.4985 O   0  0  0  0  0  0  0  0  0  0  0  0
   20.2241    2.7281   11.7223 C   0  0  0  0  0  0  0  0  0  0  0  0
   19.3460    2.1077   10.7551 C   0  0  0  0  0  0  0  0  0  0  0  0
   18.2929    1.3237   11.4351 C   0  0  0  0  0  0  0  0  0  0  0  0
   17.7022    2.0417   12.6497 C   0  0  0  0  0  0  0  0  0  0  0  0
   19.0082    4.6885   12.2205 O   0  0  0  0  0  0  0  0  0  0  0  0
   21.2497    3.4682   11.1323 O   0  0  0  0  0  0  0  0  0  0  0  0
   20.0353    1.4699    9.7135 O   0  0  0  0  0  0  0  0  0  0  0  0
   18.3288    4.4604   11.5669 H   0  0  0  0  0  0  0  0  0  0  0  0
   20.8722    4.2337   10.6714 H   0  0  0  0  0  0  0  0  0  0  0  0
   20.5652    0.7420   10.0744 H   0  0  0  0  0  0  0  0  0  0  0  0
   18.6722   -0.0103   11.6961 O   0  0  0  0  0  0  0  0  0  0  0  0
   17.8676   -2.2569   11.6540 C   0  0  0  0  0  0  0  0  0  0  0  0
   18.1859   -0.9537   10.9971 C   0  0  0  0  0  0  0  0  0  0  0  0
   17.7807   -0.7558    9.8145 O   0  0  0  0  0  0  0  0  0  0  0  0
   16.6399    1.3241   13.4785 C   0  0  0  0  0  0  0  0  0  0  0  0
   16.7756    1.5332   14.8344 O   0  0  0  0  0  0  0  0  0  0  0  0
   16.8291    0.4367   15.8239 S   0  0  0  0  0  0  0  0  0  0  0  0
   16.3271    0.5781   17.1962 O   0  0  0  0  0  0  0  0  0  0  0  0
   18.2020    0.7789   16.1909 O   0  0  0  0  0  0  0  0  0  0  0  0
   16.8212   -1.0140   15.2186 N   0  0  0  0  0  0  0  0  0  0  0  0
   15.8686   -1.2681   14.9570 H   0  0  0  0  0  0  0  0  0  0  0  0
   17.1706   -1.6742   15.9132 H   0  0  0  0  0  0  0  0  0  0  0  0
  1  2  1  0  0  0
  1  3  1  0  0  0
  1  7  1  0  0  0
  2  6  1  0  0  0
  3  4  1  0  0  0
  3  8  1  0  0  0
  4  5  1  0  0  0
  4  9  1  0  0  0
  5  6  1  0  0  0
  5 13  1  0  0  0
  6 17  1  0  0  0
 13 15  1  0  0  0
 14 15  1  0  0  0
 15 16  2  0  0  0
 17 18  1  0  0  0
 18 19  1  0  0  0
 19 20  2  0  0  0
 19 21  2  0  0  0
 19 22  1  0  0  0
  7 10  1  0  0  0
  8 11  1  0  0  0
  9 12  1  0  0  0
 22 23  1  0  0  0
 22 24  1  0  0  0
M  END
> <minimizedAffinity>
-7.44066

$$$$
3T84_SG6_A_300


 24 24  0  0  0  0  0  0  0  0999 V2000
   17.0256    0.0893   16.0370 C   0  0  0  0  0  0  0  0  0  0  0  0
   17.7000    0.5958   14.9053 O   0  0  0  0  0  0  0  0  0  0  0  0
   16.1884    1.0946   16.6818 C   0  0  0  0  0  0  0  0  0  0  0  0
   15.1738    1.6865   15.8382 C   0  0  0  0  0  0  0  0  0  0  0  0
   15.7710    2.1980   14.5859 C   0  0  0  0  0  0  0  0  0  0  0  0
   16.8030    1.2443   13.9816 C   0  0  0  0  0  0  0  0  0  0  0  0
   16.2928   -1.0824   15.7766 O   0  0  0  0  0  0  0  0  0  0  0  0
   15.6805    0.6101   17.8881 O   0  0  0  0  0  0  0  0  0  0  0  0
   14.3180    2.5550   16.5309 O   0  0  0  0  0  0  0  0  0  0  0  0
   15.5744   -0.8832   15.1561 H   0  0  0  0  0  0  0  0  0  0  0  0
   15.0909   -0.1399   17.7126 H   0  0  0  0  0  0  0  0  0  0  0  0
   14.8277    3.3054   16.8743 H   0  0  0  0  0  0  0  0  0  0  0  0
   16.2243    3.5305   14.6885 O   0  0  0  0  0  0  0  0  0  0  0  0
   16.5067    5.1992   13.0057 C   0  0  0  0  0  0  0  0  0  0  0  0
   15.6774    4.4395   13.9887 C   0  0  0  0  0  0  0  0  0  0  0  0
   14.4200    4.5803   13.9583 O   0  0  0  0  0  0  0  0  0  0  0  0
   17.5380    1.6702   12.7133 C   0  0  0  0  0  0  0  0  0  0  0  0
   17.9611    0.6051   11.9469 O   0  0  0  0  0  0  0  0  0  0  0  0
   17.0356   -0.3531   11.3067 S   0  0  0  0  0  0  0  0  0  0  0  0
   17.0041   -1.7798   11.6509 O   0  0  0  0  0  0  0  0  0  0  0  0
   17.9492   -0.5483   10.1824 O   0  0  0  0  0  0  0  0  0  0  0  0
   15.6986    0.2681   10.7611 N   0  0  0  0  0  0  0  0  0  0  0  0
   15.0494    0.4107   11.5348 H   0  0  0  0  0  0  0  0  0  0  0  0
   15.2818   -0.3667   10.0802 H   0  0  0  0  0  0  0  0  0  0  0  0
  1  2  1  0  0  0
  1  3  1  0  0  0
  1  7  1  0  0  0
  2  6  1  0  0  0
  3  4  1  0  0  0
  3  8  1  0  0  0
  4  5  1  0  0  0
  4  9  1  0  0  0
  5  6  1  0  0  0
  5 13  1  0  0  0
  6 17  1  0  0  0
 13 15  1  0  0  0
 14 15  1  0  0  0
 15 16  2  0  0  0
 17 18  1  0  0  0
 18 19  1  0  0  0
 19 20  2  0  0  0
 19 21  2  0  0  0
 19 22  1  0  0  0
  7 10  1  0  0  0
  8 11  1  0  0  0
  9 12  1  0  0  0
 22 23  1  0  0  0
 22 24  1  0  0  0
M  END
> <minimizedAffinity>
-7.33440

$$$$
3T84_SG6_A_300


 24 24  0  0  0  0  0  0  0  0999 V2000
   16.6629   -0.6047   11.4525 C   0  0  0  0  0  0  0  0  0  0  0  0
   16.3477    0.3692   12.4242 O   0  0  0  0  0  0  0  0  0  0  0  0
   17.5762   -0.0991   10.4339 C   0  0  0  0  0  0  0  0  0  0  0  0
   18.8395    0.3999   10.9304 C   0  0  0  0  0  0  0  0  0  0  0  0
   18.6216    1.3911   12.0058 C   0  0  0  0  0  0  0  0  0  0  0  0
   17.5268    0.9758   12.9899 C   0  0  0  0  0  0  0  0  0  0  0  0
   17.1378   -1.8103   11.9989 O   0  0  0  0  0  0  0  0  0  0  0  0
   17.7238   -1.0276    9.4024 O   0  0  0  0  0  0  0  0  0  0  0  0
   19.7299    0.7612    9.9089 O   0  0  0  0  0  0  0  0  0  0  0  0
   17.9855   -1.6521   12.4432 H   0  0  0  0  0  0  0  0  0  0  0  0
   18.1444   -1.8305    9.7478 H   0  0  0  0  0  0  0  0  0  0  0  0
   19.3542    1.4946    9.3970 H   0  0  0  0  0  0  0  0  0  0  0  0
   18.4803    2.7110   11.5267 O   0  0  0  0  0  0  0  0  0  0  0  0
   19.8128    4.1385   12.8988 C   0  0  0  0  0  0  0  0  0  0  0  0
   19.4635    3.5140   11.5877 C   0  0  0  0  0  0  0  0  0  0  0  0
   20.2700    3.6422   10.6208 O   0  0  0  0  0  0  0  0  0  0  0  0
   17.1604    1.9315   14.1225 C   0  0  0  0  0  0  0  0  0  0  0  0
   16.3167    1.3690   15.0565 O   0  0  0  0  0  0  0  0  0  0  0  0
   16.6925    0.2148   15.8997 S   0  0  0  0  0  0  0  0  0  0  0  0
   16.3460    0.1231   17.3233 O   0  0  0  0  0  0  0  0  0  0  0  0
   18.0136    0.7830   16.1614 O   0  0  0  0  0  0  0  0  0  0  0  0
   16.8770   -1.1446   15.1322 N   0  0  0  0  0  0  0  0  0  0  0  0
   15.9626   -1.5545   14.9418 H   0  0  0  0  0  0  0  0  0  0  0  0
   17.4248   -1.7868   15.7050 H   0  0  0  0  0  0  0  0  0  0  0  0
  1  2  1  0  0  0
  1  3  1  0  0  0
  1  7  1  0  0  0
  2  6  1  0  0  0
  3  4  1  0  0  0
  3  8  1  0  0  0
  4  5  1  0  0  0
  4  9  1  0  0  0
  5  6  1  0  0  0
  5 13  1  0  0  0
  6 17  1  0  0  0
 13 15  1  0  0  0
 14 15  1  0  0  0
 15 16  2  0  0  0
 17 18  1  0  0  0
 18 19  1  0  0  0
 19 20  2  0  0  0
 19 21  2  0  0  0
 19 22  1  0  0  0
  7 10  1  0  0  0
  8 11  1  0  0  0
  9 12  1  0  0  0
 22 23  1  0  0  0
 22 24  1  0  0  0
M  END
> <minimizedAffinity>
-7.11185

$$$$
3T84_SG6_A_300


 24 24  0  0  0  0  0  0  0  0999 V2000
   17.9914    3.7266   14.0529 C   0  0  0  0  0  0  0  0  0  0  0  0
   18.0313    2.4574   14.6691 O   0  0  0  0  0  0  0  0  0  0  0  0
   17.9122    3.6370   12.5993 C   0  0  0  0  0  0  0  0  0  0  0  0
   16.7761    2.9032   12.0871 C   0  0  0  0  0  0  0  0  0  0  0  0
   16.6892    1.5696   12.7197 C   0  0  0  0  0  0  0  0  0  0  0  0
   16.9591    1.6022   14.2249 C   0  0  0  0  0  0  0  0  0  0  0  0
   16.9833    4.5658   14.5600 O   0  0  0  0  0  0  0  0  0  0  0  0
   18.0517    4.8997   12.0214 O   0  0  0  0  0  0  0  0  0  0  0  0
   16.6758    2.9471   10.6890 O   0  0  0  0  0  0  0  0  0  0  0  0
   16.1140    4.1876   14.3544 H   0  0  0  0  0  0  0  0  0  0  0  0
   17.3050    5.4601   12.2845 H   0  0  0  0  0  0  0  0  0  0  0  0
   17.4507    2.5164   10.2955 H   0  0  0  0  0  0  0  0  0  0  0  0
   17.4248    0.5789   12.0346 O   0  0  0  0  0  0  0  0  0  0  0  0
   17.1065   -1.7691   11.7495 C   0  0  0  0  0  0  0  0  0  0  0  0
   16.8130   -0.3442   11.4111 C   0  0  0  0  0  0  0  0  0  0  0  0
   15.8264   -0.0899   10.6604 O   0  0  0  0  0  0  0  0  0  0  0  0
   16.9537    0.2858   14.9977 C   0  0  0  0  0  0  0  0  0  0  0  0
   16.9327    0.4587   16.3654 O   0  0  0  0  0  0  0  0  0  0  0  0
   15.6895    0.4601   17.1648 S   0  0  0  0  0  0  0  0  0  0  0  0
   15.6856    0.3661   18.6298 O   0  0  0  0  0  0  0  0  0  0  0  0
   15.5186   -0.9796   16.9783 O   0  0  0  0  0  0  0  0  0  0  0  0
   14.4682    1.1973   16.5045 N   0  0  0  0  0  0  0  0  0  0  0  0
   14.5728    2.2046   16.6263 H   0  0  0  0  0  0  0  0  0  0  0  0
   13.6038    0.8890   16.9495 H   0  0  0  0  0  0  0  0  0  0  0  0
  1  2  1  0  0  0
  1  3  1  0  0  0
  1  7  1  0  0  0
  2  6  1  0  0  0
  3  4  1  0  0  0
  3  8  1  0  0  0
  4  5  1  0  0  0
  4  9  1  0  0  0
  5  6  1  0  0  0
  5 13  1  0  0  0
  6 17  1  0  0  0
 13 15  1  0  0  0
 14 15  1  0  0  0
 15 16  2  0  0  0
 17 18  1  0  0  0
 18 19  1  0  0  0
 19 20  2  0  0  0
 19 21  2  0  0  0
 19 22  1  0  0  0
  7 10  1  0  0  0
  8 11  1  0  0  0
  9 12  1  0  0  0
 22 23  1  0  0  0
 22 24  1  0  0  0
M  END
> <minimizedAffinity>
-6.88563

$$$$
3T84_SG6_A_300


 24 24  0  0  0  0  0  0  0  0999 V2000
   16.7244    5.1664   12.5350 C   0  0  0  0  0  0  0  0  0  0  0  0
   17.1974    4.4363   13.6464 O   0  0  0  0  0  0  0  0  0  0  0  0
   17.2139    4.6321   11.2692 C   0  0  0  0  0  0  0  0  0  0  0  0
   16.8823    3.2477   11.0141 C   0  0  0  0  0  0  0  0  0  0  0  0
   17.2837    2.3972   12.1551 C   0  0  0  0  0  0  0  0  0  0  0  0
   16.9549    3.0216   13.5121 C   0  0  0  0  0  0  0  0  0  0  0  0
   15.3257    5.3109   12.5118 O   0  0  0  0  0  0  0  0  0  0  0  0
   16.8713    5.4786   10.2138 O   0  0  0  0  0  0  0  0  0  0  0  0
   17.2669    2.8145    9.7369 O   0  0  0  0  0  0  0  0  0  0  0  0
   14.9125    4.4402   12.4023 H   0  0  0  0  0  0  0  0  0  0  0  0
   15.9060    5.5081   10.1232 H   0  0  0  0  0  0  0  0  0  0  0  0
   18.2326    2.8599    9.6573 H   0  0  0  0  0  0  0  0  0  0  0  0
   18.6092    1.9227   12.0571 O   0  0  0  0  0  0  0  0  0  0  0  0
   17.7422   -0.2822   11.7693 C   0  0  0  0  0  0  0  0  0  0  0  0
   18.8278    0.7373   11.6546 C   0  0  0  0  0  0  0  0  0  0  0  0
   19.8607    0.4503   10.9818 O   0  0  0  0  0  0  0  0  0  0  0  0
   17.3624    2.2742   14.7792 C   0  0  0  0  0  0  0  0  0  0  0  0
   16.3829    1.4246   15.2477 O   0  0  0  0  0  0  0  0  0  0  0  0
   16.6743    0.1789   15.9878 S   0  0  0  0  0  0  0  0  0  0  0  0
   16.3039   -0.0158   17.3949 O   0  0  0  0  0  0  0  0  0  0  0  0
   18.0249    0.6365   16.3091 O   0  0  0  0  0  0  0  0  0  0  0  0
   16.7835   -1.1165   15.1040 N   0  0  0  0  0  0  0  0  0  0  0  0
   15.8478   -1.4489   14.8708 H   0  0  0  0  0  0  0  0  0  0  0  0
   17.2822   -1.8402   15.6215 H   0  0  0  0  0  0  0  0  0  0  0  0
  1  2  1  0  0  0
  1  3  1  0  0  0
  1  7  1  0  0  0
  2  6  1  0  0  0
  3  4  1  0  0  0
  3  8  1  0  0  0
  4  5  1  0  0  0
  4  9  1  0  0  0
  5  6  1  0  0  0
  5 13  1  0  0  0
  6 17  1  0  0  0
 13 15  1  0  0  0
 14 15  1  0  0  0
 15 16  2  0  0  0
 17 18  1  0  0  0
 18 19  1  0  0  0
 19 20  2  0  0  0
 19 21  2  0  0  0
 19 22  1  0  0  0
  7 10  1  0  0  0
  8 11  1  0  0  0
  9 12  1  0  0  0
 22 23  1  0  0  0
 22 24  1  0  0  0
M  END
> <minimizedAffinity>
-6.60509

$$$$
3T84_SG6_A_300


 24 24  0  0  0  0  0  0  0  0999 V2000
   16.9272    0.3147   10.9921 C   0  0  0  0  0  0  0  0  0  0  0  0
   17.5534    1.3615   10.2820 O   0  0  0  0  0  0  0  0  0  0  0  0
   17.4390    0.1804   12.3512 C   0  0  0  0  0  0  0  0  0  0  0  0
   17.3136    1.3607   13.1775 C   0  0  0  0  0  0  0  0  0  0  0  0
   17.8888    2.5387   12.4937 C   0  0  0  0  0  0  0  0  0  0  0  0
   17.5257    2.6059   11.0094 C   0  0  0  0  0  0  0  0  0  0  0  0
   15.5232    0.3956   10.9898 O   0  0  0  0  0  0  0  0  0  0  0  0
   16.9261   -0.9672   12.9578 O   0  0  0  0  0  0  0  0  0  0  0  0
   17.7058    1.1477   14.5070 O   0  0  0  0  0  0  0  0  0  0  0  0
   15.2445    1.1916   11.4689 H   0  0  0  0  0  0  0  0  0  0  0  0
   15.9648   -0.8802   13.0534 H   0  0  0  0  0  0  0  0  0  0  0  0
   18.6488    0.9218   14.5337 H   0  0  0  0  0  0  0  0  0  0  0  0
   19.2661    2.7127   12.7474 O   0  0  0  0  0  0  0  0  0  0  0  0
   20.1079    4.9385   12.9302 C   0  0  0  0  0  0  0  0  0  0  0  0
   19.6535    3.6439   13.5207 C   0  0  0  0  0  0  0  0  0  0  0  0
   19.4767    3.5770   14.7721 O   0  0  0  0  0  0  0  0  0  0  0  0
   18.0964    3.7442   10.1675 C   0  0  0  0  0  0  0  0  0  0  0  0
   18.9039    3.3074    9.1390 O   0  0  0  0  0  0  0  0  0  0  0  0
   20.3464    3.0291    9.3010 S   0  0  0  0  0  0  0  0  0  0  0  0
   21.3659    4.0854    9.2955 O   0  0  0  0  0  0  0  0  0  0  0  0
   20.4950    2.7485    7.8741 O   0  0  0  0  0  0  0  0  0  0  0  0
   20.6915    1.7232   10.1050 N   0  0  0  0  0  0  0  0  0  0  0  0
   20.5924    1.9029   11.1041 H   0  0  0  0  0  0  0  0  0  0  0  0
   21.6515    1.4435    9.9035 H   0  0  0  0  0  0  0  0  0  0  0  0
  1  2  1  0  0  0
  1  3  1  0  0  0
  1  7  1  0  0  0
  2  6  1  0  0  0
  3  4  1  0  0  0
  3  8  1  0  0  0
  4  5  1  0  0  0
  4  9  1  0  0  0
  5  6  1  0  0  0
  5 13  1  0  0  0
  6 17  1  0  0  0
 13 15  1  0  0  0
 14 15  1  0  0  0
 15 16  2  0  0  0
 17 18  1  0  0  0
 18 19  1  0  0  0
 19 20  2  0  0  0
 19 21  2  0  0  0
 19 22  1  0  0  0
  7 10  1  0  0  0
  8 11  1  0  0  0
  9 12  1  0  0  0
 22 23  1  0  0  0
 22 24  1  0  0  0
M  END
> <minimizedAffinity>
-6.59042

$$$$
3T84_SG6_A_300


 24 24  0  0  0  0  0  0  0  0999 V2000
   16.1774    3.4127   14.0864 C   0  0  0  0  0  0  0  0  0  0  0  0
   16.2865    3.5614   12.6871 O   0  0  0  0  0  0  0  0  0  0  0  0
   15.9270    2.0311   14.4811 C   0  0  0  0  0  0  0  0  0  0  0  0
   16.9231    1.0756   14.0496 C   0  0  0  0  0  0  0  0  0  0  0  0
   17.1599    1.1911   12.5947 C   0  0  0  0  0  0  0  0  0  0  0  0
   17.2366    2.6412   12.1139 C   0  0  0  0  0  0  0  0  0  0  0  0
   17.2681    3.9475   14.7949 O   0  0  0  0  0  0  0  0  0  0  0  0
   15.6517    1.9530   15.8472 O   0  0  0  0  0  0  0  0  0  0  0  0
   16.7049   -0.2147   14.5538 O   0  0  0  0  0  0  0  0  0  0  0  0
   18.0711    3.4490   14.5768 H   0  0  0  0  0  0  0  0  0  0  0  0
   16.4347    2.2254   16.3508 H   0  0  0  0  0  0  0  0  0  0  0  0
   15.8641   -0.5574   14.2124 H   0  0  0  0  0  0  0  0  0  0  0  0
   16.2956    0.3847   11.8238 O   0  0  0  0  0  0  0  0  0  0  0  0
   17.5554   -1.6131   11.4806 C   0  0  0  0  0  0  0  0  0  0  0  0
   16.7798   -0.4371   10.9840 C   0  0  0  0  0  0  0  0  0  0  0  0
   16.4559   -0.3969    9.7612 O   0  0  0  0  0  0  0  0  0  0  0  0
   17.4256    2.9083   10.6229 C   0  0  0  0  0  0  0  0  0  0  0  0
   18.7034    3.3140   10.3012 O   0  0  0  0  0  0  0  0  0  0  0  0
   19.8974    2.4640   10.4919 S   0  0  0  0  0  0  0  0  0  0  0  0
   20.7885    2.5924   11.6515 O   0  0  0  0  0  0  0  0  0  0  0  0
   20.7089    3.3437    9.6525 O   0  0  0  0  0  0  0  0  0  0  0  0
   19.8289    1.0487    9.8114 N   0  0  0  0  0  0  0  0  0  0  0  0
   19.2652    0.4221   10.3858 H   0  0  0  0  0  0  0  0  0  0  0  0
   20.7714    0.6697    9.7193 H   0  0  0  0  0  0  0  0  0  0  0  0
  1  2  1  0  0  0
  1  3  1  0  0  0
  1  7  1  0  0  0
  2  6  1  0  0  0
  3  4  1  0  0  0
  3  8  1  0  0  0
  4  5  1  0  0  0
  4  9  1  0  0  0
  5  6  1  0  0  0
  5 13  1  0  0  0
  6 17  1  0  0  0
 13 15  1  0  0  0
 14 15  1  0  0  0
 15 16  2  0  0  0
 17 18  1  0  0  0
 18 19  1  0  0  0
 19 20  2  0  0  0
 19 21  2  0  0  0
 19 22  1  0  0  0
  7 10  1  0  0  0
  8 11  1  0  0  0
  9 12  1  0  0  0
 22 23  1  0  0  0
 22 24  1  0  0  0
M  END
> <minimizedAffinity>
-6.19075

$$$$
3T84_SG6_A_300


 24 24  0  0  0  0  0  0  0  0999 V2000
   17.3531    4.5757    9.0707 C   0  0  0  0  0  0  0  0  0  0  0  0
   17.6495    3.2853    9.5599 O   0  0  0  0  0  0  0  0  0  0  0  0
   16.4285    5.2997    9.9357 C   0  0  0  0  0  0  0  0  0  0  0  0
   16.8710    5.4769   11.3011 C   0  0  0  0  0  0  0  0  0  0  0  0
   17.2675    4.1811   11.8926 C   0  0  0  0  0  0  0  0  0  0  0  0
   18.0821    3.3101   10.9348 C   0  0  0  0  0  0  0  0  0  0  0  0
   18.4954    5.3490    8.7977 O   0  0  0  0  0  0  0  0  0  0  0  0
   16.0250    6.4925    9.3338 O   0  0  0  0  0  0  0  0  0  0  0  0
   16.0086    6.2808   12.0607 O   0  0  0  0  0  0  0  0  0  0  0  0
   18.9719    5.5249    9.6240 H   0  0  0  0  0  0  0  0  0  0  0  0
   16.7913    7.0781    9.2308 H   0  0  0  0  0  0  0  0  0  0  0  0
   15.1428    5.8490   12.1316 H   0  0  0  0  0  0  0  0  0  0  0  0
   16.1960    3.4975   12.5060 O   0  0  0  0  0  0  0  0  0  0  0  0
   16.7414    2.3673   14.5361 C   0  0  0  0  0  0  0  0  0  0  0  0
   16.1003    3.4800   13.7731 C   0  0  0  0  0  0  0  0  0  0  0  0
   15.6537    4.4760   14.4136 O   0  0  0  0  0  0  0  0  0  0  0  0
   18.5140    1.9209   11.3973 C   0  0  0  0  0  0  0  0  0  0  0  0
   17.9990    0.9051   10.6204 O   0  0  0  0  0  0  0  0  0  0  0  0
   16.7410    0.1974   10.9383 S   0  0  0  0  0  0  0  0  0  0  0  0
   16.7039   -1.0544   11.7044 O   0  0  0  0  0  0  0  0  0  0  0  0
   16.7490   -0.4845    9.6454 O   0  0  0  0  0  0  0  0  0  0  0  0
   15.4609    1.1066   11.0150 N   0  0  0  0  0  0  0  0  0  0  0  0
   15.4406    1.5901   11.9129 H   0  0  0  0  0  0  0  0  0  0  0  0
   14.6265    0.5274   10.9218 H   0  0  0  0  0  0  0  0  0  0  0  0
  1  2  1  0  0  0
  1  3  1  0  0  0
  1  7  1  0  0  0
  2  6  1  0  0  0
  3  4  1  0  0  0
  3  8  1  0  0  0
  4  5  1  0  0  0
  4  9  1  0  0  0
  5  6  1  0  0  0
  5 13  1  0  0  0
  6 17  1  0  0  0
 13 15  1  0  0  0
 14 15  1  0  0  0
 15 16  2  0  0  0
 17 18  1  0  0  0
 18 19  1  0  0  0
 19 20  2  0  0  0
 19 21  2  0  0  0
 19 22  1  0  0  0
  7 10  1  0  0  0
  8 11  1  0  0  0
  9 12  1  0  0  0
 22 23  1  0  0  0
 22 24  1  0  0  0
M  END
> <minimizedAffinity>
-6.11490

$$$$
3T84_SG6_A_300


 24 24  0  0  0  0  0  0  0  0999 V2000
   18.3732    4.2612   14.6763 C   0  0  0  0  0  0  0  0  0  0  0  0
   18.0137    2.8967   14.7092 O   0  0  0  0  0  0  0  0  0  0  0  0
   19.2942    4.5678   13.5878 C   0  0  0  0  0  0  0  0  0  0  0  0
   18.8133    4.2445   12.2627 C   0  0  0  0  0  0  0  0  0  0  0  0
   18.3503    2.8414   12.2045 C   0  0  0  0  0  0  0  0  0  0  0  0
   17.5368    2.4281   13.4321 C   0  0  0  0  0  0  0  0  0  0  0  0
   17.2695    5.1326   14.6608 O   0  0  0  0  0  0  0  0  0  0  0  0
   19.7608    5.8788   13.6940 O   0  0  0  0  0  0  0  0  0  0  0  0
   19.6787    4.6672   11.2433 O   0  0  0  0  0  0  0  0  0  0  0  0
   16.7725    5.0102   13.8368 H   0  0  0  0  0  0  0  0  0  0  0  0
   19.0202    6.4955   13.5843 H   0  0  0  0  0  0  0  0  0  0  0  0
   20.5252    4.2005   11.3237 H   0  0  0  0  0  0  0  0  0  0  0  0
   19.3751    1.9299   11.8722 O   0  0  0  0  0  0  0  0  0  0  0  0
   20.5049    1.8688    9.7708 C   0  0  0  0  0  0  0  0  0  0  0  0
   19.4234    1.4320   10.7039 C   0  0  0  0  0  0  0  0  0  0  0  0
   18.7087    0.4386   10.3813 O   0  0  0  0  0  0  0  0  0  0  0  0
   17.0393    0.9881   13.5290 C   0  0  0  0  0  0  0  0  0  0  0  0
   16.1117    0.8000   14.5314 O   0  0  0  0  0  0  0  0  0  0  0  0
   16.4366    0.1789   15.8326 S   0  0  0  0  0  0  0  0  0  0  0  0
   15.6136   -0.8747   16.4390 O   0  0  0  0  0  0  0  0  0  0  0  0
   15.7642    1.2534   16.5605 O   0  0  0  0  0  0  0  0  0  0  0  0
   17.9601    0.1911   16.2198 N   0  0  0  0  0  0  0  0  0  0  0  0
   18.4442   -0.5542   15.7192 H   0  0  0  0  0  0  0  0  0  0  0  0
   18.0567    0.0443   17.2246 H   0  0  0  0  0  0  0  0  0  0  0  0
  1  2  1  0  0  0
  1  3  1  0  0  0
  1  7  1  0  0  0
  2  6  1  0  0  0
  3  4  1  0  0  0
  3  8  1  0  0  0
  4  5  1  0  0  0
  4  9  1  0  0  0
  5  6  1  0  0  0
  5 13  1  0  0  0
  6 17  1  0  0  0
 13 15  1  0  0  0
 14 15  1  0  0  0
 15 16  2  0  0  0
 17 18  1  0  0  0
 18 19  1  0  0  0
 19 20  2  0  0  0
 19 21  2  0  0  0
 19 22  1  0  0  0
  7 10  1  0  0  0
  8 11  1  0  0  0
  9 12  1  0  0  0
 22 23  1  0  0  0
 22 24  1  0  0  0
M  END
> <minimizedAffinity>
-6.06456

$$$$
