4I3Z_ADP_A_301


 34 36  0  0  0  0  0  0  0  0999 V2000
    0.4308  -38.8485   -0.9087 C   0  0  0  0  0  0  0  0  0  0  0  0
   -0.0117  -40.1411   -0.4817 O   0  0  0  0  0  0  0  0  0  0  0  0
    1.5246  -38.4411    0.0628 C   0  0  0  0  0  0  0  0  0  0  0  0
    1.5661  -37.0257    0.2788 O   0  0  0  0  0  0  0  0  0  0  0  0
    1.1760  -39.1858    1.3342 C   0  0  0  0  0  0  0  0  0  0  0  0
    0.3270  -38.3851    2.1680 O   0  0  0  0  0  0  0  0  0  0  0  0
    0.4092  -40.4010    0.8565 C   0  0  0  0  0  0  0  0  0  0  0  0
    0.7090  -36.7253    0.6195 H   0  0  0  0  0  0  0  0  0  0  0  0
   -0.4730  -38.1422    1.6762 H   0  0  0  0  0  0  0  0  0  0  0  0
    1.3704  -41.5265    0.8639 N   0  0  0  0  0  0  0  0  0  0  0  0
    2.2691  -41.8039   -0.1022 C   0  0  0  0  0  0  0  0  0  0  0  0
    3.0041  -42.8993    0.2173 N   0  0  0  0  0  0  0  0  0  0  0  0
    2.5748  -43.3322    1.4172 C   0  0  0  0  0  0  0  0  0  0  0  0
    2.9216  -44.4408    2.3358 C   0  0  0  0  0  0  0  0  0  0  0  0
    3.9051  -45.3078    2.0054 N   0  0  0  0  0  0  0  0  0  0  0  0
    2.2346  -44.5490    3.4999 N   0  0  0  0  0  0  0  0  0  0  0  0
    1.2584  -43.6767    3.8157 C   0  0  0  0  0  0  0  0  0  0  0  0
    0.8909  -42.6433    3.0326 N   0  0  0  0  0  0  0  0  0  0  0  0
    1.4989  -42.4250    1.8423 C   0  0  0  0  0  0  0  0  0  0  0  0
    4.3867  -45.2042    1.1531 H   0  0  0  0  0  0  0  0  0  0  0  0
    4.1395  -46.0426    2.6172 H   0  0  0  0  0  0  0  0  0  0  0  0
    0.9367  -38.9077   -2.3454 C   0  0  0  0  0  0  0  0  0  0  0  0
    1.2793  -37.5985   -2.8067 O   0  0  0  0  0  0  0  0  0  0  0  0
    0.7443  -37.0759   -4.2306 P   0  0  0  0  0  0  0  0  0  0  0  0
    1.9462  -36.8895   -5.1160 O   0  0  0  0  0  0  0  0  0  0  0  0
   -0.3570  -37.9950   -4.6962 O   0  0  0  0  0  0  0  0  0  0  0  0
   -0.6898  -37.6916   -5.5553 H   0  0  0  0  0  0  0  0  0  0  0  0
    0.0923  -35.6597   -3.7917 O   0  0  0  0  0  0  0  0  0  0  0  0
   -0.9573  -35.4249   -2.5831 P   0  0  0  0  0  0  0  0  0  0  0  0
   -1.6855  -34.1593   -2.9653 O   0  0  0  0  0  0  0  0  0  0  0  0
   -0.0887  -35.2511   -1.3611 O   0  0  0  0  0  0  0  0  0  0  0  0
   -1.8278  -36.6589   -2.5648 O   0  0  0  0  0  0  0  0  0  0  0  0
   -0.6499  -35.1039   -0.5838 H   0  0  0  0  0  0  0  0  0  0  0  0
   -2.4849  -36.5805   -1.8555 H   0  0  0  0  0  0  0  0  0  0  0  0
 29 30  2  0  0  0
 29 31  1  0  0  0
 29 32  1  0  0  0
 29 28  1  0  0  0
 24 25  2  0  0  0
 24 26  1  0  0  0
 24 28  1  0  0  0
 24 23  1  0  0  0
 23 22  1  0  0  0
 22  1  1  0  0  0
  1  2  1  0  0  0
  1  3  1  0  0  0
  2  7  1  0  0  0
  3  4  1  0  0  0
  3  5  1  0  0  0
  5  6  1  0  0  0
  5  7  1  0  0  0
  7 10  1  0  0  0
 10 11  1  0  0  0
 10 19  1  0  0  0
 11 12  2  0  0  0
 12 13  1  0  0  0
 13 14  1  0  0  0
 13 19  2  0  0  0
 14 15  1  0  0  0
 14 16  2  0  0  0
 16 17  1  0  0  0
 17 18  2  0  0  0
 18 19  1  0  0  0
 31 33  1  0  0  0
 32 34  1  0  0  0
 26 27  1  0  0  0
  4  8  1  0  0  0
  6  9  1  0  0  0
 15 20  1  0  0  0
 15 21  1  0  0  0
M  END
> <minimizedAffinity>
-8.83509

$$$$
4I3Z_ADP_A_301


 34 36  0  0  0  0  0  0  0  0999 V2000
   -0.7651  -39.2525    0.3921 C   0  0  0  0  0  0  0  0  0  0  0  0
   -0.9995  -40.6645    0.3707 O   0  0  0  0  0  0  0  0  0  0  0  0
    0.2135  -39.0103    1.5278 C   0  0  0  0  0  0  0  0  0  0  0  0
    0.0116  -37.7430    2.1640 O   0  0  0  0  0  0  0  0  0  0  0  0
   -0.0468  -40.1570    2.4816 C   0  0  0  0  0  0  0  0  0  0  0  0
   -1.0439  -39.7914    3.4455 O   0  0  0  0  0  0  0  0  0  0  0  0
   -0.5845  -41.2627    1.5976 C   0  0  0  0  0  0  0  0  0  0  0  0
   -0.8942  -37.6945    2.5078 H   0  0  0  0  0  0  0  0  0  0  0  0
   -1.8569  -39.5290    2.9861 H   0  0  0  0  0  0  0  0  0  0  0  0
    0.5501  -42.1786    1.3437 N   0  0  0  0  0  0  0  0  0  0  0  0
    1.1051  -42.4339    0.1416 C   0  0  0  0  0  0  0  0  0  0  0  0
    2.1324  -43.3134    0.2572 N   0  0  0  0  0  0  0  0  0  0  0  0
    2.2459  -43.6256    1.5615 C   0  0  0  0  0  0  0  0  0  0  0  0
    3.1253  -44.4957    2.3756 C   0  0  0  0  0  0  0  0  0  0  0  0
    4.1070  -45.2091    1.7794 N   0  0  0  0  0  0  0  0  0  0  0  0
    2.9179  -44.5454    3.7147 N   0  0  0  0  0  0  0  0  0  0  0  0
    1.9367  -43.8278    4.2943 C   0  0  0  0  0  0  0  0  0  0  0  0
    1.1016  -43.0134    3.6195 N   0  0  0  0  0  0  0  0  0  0  0  0
    1.2029  -42.8753    2.2760 C   0  0  0  0  0  0  0  0  0  0  0  0
    4.2338  -45.1530    0.8047 H   0  0  0  0  0  0  0  0  0  0  0  0
    4.6951  -45.7846    2.3200 H   0  0  0  0  0  0  0  0  0  0  0  0
   -0.2103  -38.7855   -0.9486 C   0  0  0  0  0  0  0  0  0  0  0  0
    0.9792  -39.5088   -1.2742 O   0  0  0  0  0  0  0  0  0  0  0  0
    2.3420  -38.7204   -1.6025 P   0  0  0  0  0  0  0  0  0  0  0  0
    2.3548  -38.4518   -3.0827 O   0  0  0  0  0  0  0  0  0  0  0  0
    2.4594  -37.5508   -0.6577 O   0  0  0  0  0  0  0  0  0  0  0  0
    3.2781  -37.0653   -0.8444 H   0  0  0  0  0  0  0  0  0  0  0  0
    3.4324  -39.8423   -1.1831 O   0  0  0  0  0  0  0  0  0  0  0  0
    3.9365  -41.0750   -2.1017 P   0  0  0  0  0  0  0  0  0  0  0  0
    4.9945  -40.4670   -2.9899 O   0  0  0  0  0  0  0  0  0  0  0  0
    2.7066  -41.4992   -2.8669 O   0  0  0  0  0  0  0  0  0  0  0  0
    4.4603  -42.1075   -1.1321 O   0  0  0  0  0  0  0  0  0  0  0  0
    2.9281  -42.2436   -3.4480 H   0  0  0  0  0  0  0  0  0  0  0  0
    4.7809  -42.8797   -1.6239 H   0  0  0  0  0  0  0  0  0  0  0  0
 29 30  2  0  0  0
 29 31  1  0  0  0
 29 32  1  0  0  0
 29 28  1  0  0  0
 24 25  2  0  0  0
 24 26  1  0  0  0
 24 28  1  0  0  0
 24 23  1  0  0  0
 23 22  1  0  0  0
 22  1  1  0  0  0
  1  2  1  0  0  0
  1  3  1  0  0  0
  2  7  1  0  0  0
  3  4  1  0  0  0
  3  5  1  0  0  0
  5  6  1  0  0  0
  5  7  1  0  0  0
  7 10  1  0  0  0
 10 11  1  0  0  0
 10 19  1  0  0  0
 11 12  2  0  0  0
 12 13  1  0  0  0
 13 14  1  0  0  0
 13 19  2  0  0  0
 14 15  1  0  0  0
 14 16  2  0  0  0
 16 17  1  0  0  0
 17 18  2  0  0  0
 18 19  1  0  0  0
 31 33  1  0  0  0
 32 34  1  0  0  0
 26 27  1  0  0  0
  4  8  1  0  0  0
  6  9  1  0  0  0
 15 20  1  0  0  0
 15 21  1  0  0  0
M  END
> <minimizedAffinity>
-8.82130

$$$$
4I3Z_ADP_A_301


 34 36  0  0  0  0  0  0  0  0999 V2000
    0.2916  -38.6099   -0.9916 C   0  0  0  0  0  0  0  0  0  0  0  0
   -0.5058  -39.6840   -0.4821 O   0  0  0  0  0  0  0  0  0  0  0  0
    1.2552  -38.2421    0.1230 C   0  0  0  0  0  0  0  0  0  0  0  0
    1.5811  -36.8473    0.1274 O   0  0  0  0  0  0  0  0  0  0  0  0
    0.5207  -38.6436    1.3846 C   0  0  0  0  0  0  0  0  0  0  0  0
   -0.2583  -37.5469    1.8823 O   0  0  0  0  0  0  0  0  0  0  0  0
   -0.4053  -39.7559    0.9391 C   0  0  0  0  0  0  0  0  0  0  0  0
    0.7688  -36.3258    0.2231 H   0  0  0  0  0  0  0  0  0  0  0  0
   -0.8784  -37.2534    1.1966 H   0  0  0  0  0  0  0  0  0  0  0  0
    0.2538  -41.0234    1.3259 N   0  0  0  0  0  0  0  0  0  0  0  0
    0.9012  -41.8630    0.4928 C   0  0  0  0  0  0  0  0  0  0  0  0
    1.3988  -42.9302    1.1680 N   0  0  0  0  0  0  0  0  0  0  0  0
    1.0713  -42.7710    2.4638 C   0  0  0  0  0  0  0  0  0  0  0  0
    1.2862  -43.5295    3.7174 C   0  0  0  0  0  0  0  0  0  0  0  0
    1.9751  -44.6926    3.6922 N   0  0  0  0  0  0  0  0  0  0  0  0
    0.7821  -43.0221    4.8694 N   0  0  0  0  0  0  0  0  0  0  0  0
    0.0992  -41.8614    4.8787 C   0  0  0  0  0  0  0  0  0  0  0  0
   -0.1322  -41.1162    3.7800 N   0  0  0  0  0  0  0  0  0  0  0  0
    0.3179  -41.5128    2.5658 C   0  0  0  0  0  0  0  0  0  0  0  0
    2.3294  -45.0366    2.8404 H   0  0  0  0  0  0  0  0  0  0  0  0
    2.1224  -45.1957    4.5255 H   0  0  0  0  0  0  0  0  0  0  0  0
    1.0220  -39.0440   -2.2572 C   0  0  0  0  0  0  0  0  0  0  0  0
    1.7594  -37.9493   -2.8065 O   0  0  0  0  0  0  0  0  0  0  0  0
    1.1336  -37.0677   -3.9973 P   0  0  0  0  0  0  0  0  0  0  0  0
    0.4847  -35.8656   -3.3669 O   0  0  0  0  0  0  0  0  0  0  0  0
    2.1991  -36.8459   -5.0412 O   0  0  0  0  0  0  0  0  0  0  0  0
    1.8353  -36.3147   -5.7667 H   0  0  0  0  0  0  0  0  0  0  0  0
    0.0383  -38.1081   -4.5815 O   0  0  0  0  0  0  0  0  0  0  0  0
   -0.9213  -37.8664   -5.8615 P   0  0  0  0  0  0  0  0  0  0  0  0
   -1.9133  -39.0024   -5.8008 O   0  0  0  0  0  0  0  0  0  0  0  0
    0.0058  -37.9651   -7.0484 O   0  0  0  0  0  0  0  0  0  0  0  0
   -1.5302  -36.5005   -5.6519 O   0  0  0  0  0  0  0  0  0  0  0  0
   -0.4994  -37.8299   -7.8654 H   0  0  0  0  0  0  0  0  0  0  0  0
   -2.1219  -36.2932   -6.3920 H   0  0  0  0  0  0  0  0  0  0  0  0
 29 30  2  0  0  0
 29 31  1  0  0  0
 29 32  1  0  0  0
 29 28  1  0  0  0
 24 25  2  0  0  0
 24 26  1  0  0  0
 24 28  1  0  0  0
 24 23  1  0  0  0
 23 22  1  0  0  0
 22  1  1  0  0  0
  1  2  1  0  0  0
  1  3  1  0  0  0
  2  7  1  0  0  0
  3  4  1  0  0  0
  3  5  1  0  0  0
  5  6  1  0  0  0
  5  7  1  0  0  0
  7 10  1  0  0  0
 10 11  1  0  0  0
 10 19  1  0  0  0
 11 12  2  0  0  0
 12 13  1  0  0  0
 13 14  1  0  0  0
 13 19  2  0  0  0
 14 15  1  0  0  0
 14 16  2  0  0  0
 16 17  1  0  0  0
 17 18  2  0  0  0
 18 19  1  0  0  0
 31 33  1  0  0  0
 32 34  1  0  0  0
 26 27  1  0  0  0
  4  8  1  0  0  0
  6  9  1  0  0  0
 15 20  1  0  0  0
 15 21  1  0  0  0
M  END
> <minimizedAffinity>
-8.48659

$$$$
4I3Z_ADP_A_301


 34 36  0  0  0  0  0  0  0  0999 V2000
    0.3929  -38.6804   -1.0459 C   0  0  0  0  0  0  0  0  0  0  0  0
   -0.1195  -39.9486   -0.6238 O   0  0  0  0  0  0  0  0  0  0  0  0
    1.4631  -38.3068   -0.0354 C   0  0  0  0  0  0  0  0  0  0  0  0
    1.5548  -36.8919    0.1677 O   0  0  0  0  0  0  0  0  0  0  0  0
    1.0337  -39.0214    1.2285 C   0  0  0  0  0  0  0  0  0  0  0  0
    0.1862  -38.1767    2.0193 O   0  0  0  0  0  0  0  0  0  0  0  0
    0.2367  -40.2097    0.7327 C   0  0  0  0  0  0  0  0  0  0  0  0
    0.6981  -36.5525    0.4705 H   0  0  0  0  0  0  0  0  0  0  0  0
   -0.5829  -37.9069    1.4933 H   0  0  0  0  0  0  0  0  0  0  0  0
    1.1493  -41.3736    0.7903 N   0  0  0  0  0  0  0  0  0  0  0  0
    1.9799  -41.7751   -0.1929 C   0  0  0  0  0  0  0  0  0  0  0  0
    2.6856  -42.8715    0.1841 N   0  0  0  0  0  0  0  0  0  0  0  0
    2.3069  -43.1782    1.4388 C   0  0  0  0  0  0  0  0  0  0  0  0
    2.6584  -44.2176    2.4332 C   0  0  0  0  0  0  0  0  0  0  0  0
    3.5850  -45.1546    2.1305 N   0  0  0  0  0  0  0  0  0  0  0  0
    2.0341  -44.1924    3.6366 N   0  0  0  0  0  0  0  0  0  0  0  0
    1.1142  -43.2517    3.9240 C   0  0  0  0  0  0  0  0  0  0  0  0
    0.7465  -42.2744    3.0721 N   0  0  0  0  0  0  0  0  0  0  0  0
    1.2952  -42.1886    1.8369 C   0  0  0  0  0  0  0  0  0  0  0  0
    4.0218  -45.1479    1.2483 H   0  0  0  0  0  0  0  0  0  0  0  0
    3.8228  -45.8436    2.7923 H   0  0  0  0  0  0  0  0  0  0  0  0
    0.9526  -38.7773   -2.4604 C   0  0  0  0  0  0  0  0  0  0  0  0
    1.5086  -37.5231   -2.8626 O   0  0  0  0  0  0  0  0  0  0  0  0
    0.8115  -36.6658   -4.0313 P   0  0  0  0  0  0  0  0  0  0  0  0
   -0.5754  -37.2173   -4.2206 O   0  0  0  0  0  0  0  0  0  0  0  0
    0.9656  -35.2007   -3.7090 O   0  0  0  0  0  0  0  0  0  0  0  0
    0.5492  -34.6706   -4.4065 H   0  0  0  0  0  0  0  0  0  0  0  0
    1.7817  -37.0320   -5.2756 O   0  0  0  0  0  0  0  0  0  0  0  0
    1.5086  -36.6892   -6.8330 P   0  0  0  0  0  0  0  0  0  0  0  0
    1.3269  -35.1910   -6.8564 O   0  0  0  0  0  0  0  0  0  0  0  0
    0.2392  -37.4355   -7.1637 O   0  0  0  0  0  0  0  0  0  0  0  0
    2.7337  -37.1760   -7.5697 O   0  0  0  0  0  0  0  0  0  0  0  0
    0.0049  -37.2795   -8.0920 H   0  0  0  0  0  0  0  0  0  0  0  0
    2.6326  -36.9985   -8.5180 H   0  0  0  0  0  0  0  0  0  0  0  0
 29 30  2  0  0  0
 29 31  1  0  0  0
 29 32  1  0  0  0
 29 28  1  0  0  0
 24 25  2  0  0  0
 24 26  1  0  0  0
 24 28  1  0  0  0
 24 23  1  0  0  0
 23 22  1  0  0  0
 22  1  1  0  0  0
  1  2  1  0  0  0
  1  3  1  0  0  0
  2  7  1  0  0  0
  3  4  1  0  0  0
  3  5  1  0  0  0
  5  6  1  0  0  0
  5  7  1  0  0  0
  7 10  1  0  0  0
 10 11  1  0  0  0
 10 19  1  0  0  0
 11 12  2  0  0  0
 12 13  1  0  0  0
 13 14  1  0  0  0
 13 19  2  0  0  0
 14 15  1  0  0  0
 14 16  2  0  0  0
 16 17  1  0  0  0
 17 18  2  0  0  0
 18 19  1  0  0  0
 31 33  1  0  0  0
 32 34  1  0  0  0
 26 27  1  0  0  0
  4  8  1  0  0  0
  6  9  1  0  0  0
 15 20  1  0  0  0
 15 21  1  0  0  0
M  END
> <minimizedAffinity>
-8.45858

$$$$
4I3Z_ADP_A_301


 34 36  0  0  0  0  0  0  0  0999 V2000
   -0.9309  -39.5268    0.2426 C   0  0  0  0  0  0  0  0  0  0  0  0
   -0.9438  -40.9482    0.4114 O   0  0  0  0  0  0  0  0  0  0  0  0
    0.1987  -39.0140    1.1185 C   0  0  0  0  0  0  0  0  0  0  0  0
   -0.0703  -37.7129    1.6536 O   0  0  0  0  0  0  0  0  0  0  0  0
    0.3075  -40.0526    2.2150 C   0  0  0  0  0  0  0  0  0  0  0  0
   -0.5295  -39.6999    3.3250 O   0  0  0  0  0  0  0  0  0  0  0  0
   -0.2129  -41.3238    1.5775 C   0  0  0  0  0  0  0  0  0  0  0  0
   -0.8893  -37.7399    2.1728 H   0  0  0  0  0  0  0  0  0  0  0  0
   -1.4464  -39.6079    3.0221 H   0  0  0  0  0  0  0  0  0  0  0  0
    0.9793  -42.1079    1.1841 N   0  0  0  0  0  0  0  0  0  0  0  0
    1.6571  -41.9863    0.0249 C   0  0  0  0  0  0  0  0  0  0  0  0
    2.7056  -42.8471   -0.0179 N   0  0  0  0  0  0  0  0  0  0  0  0
    2.7073  -43.5323    1.1406 C   0  0  0  0  0  0  0  0  0  0  0  0
    3.5415  -44.5942    1.7485 C   0  0  0  0  0  0  0  0  0  0  0  0
    4.6056  -45.0849    1.0740 N   0  0  0  0  0  0  0  0  0  0  0  0
    3.2094  -45.0433    2.9841 N   0  0  0  0  0  0  0  0  0  0  0  0
    2.1473  -44.5436    3.6442 C   0  0  0  0  0  0  0  0  0  0  0  0
    1.3461  -43.5758    3.1567 N   0  0  0  0  0  0  0  0  0  0  0  0
    1.5694  -43.0424    1.9320 C   0  0  0  0  0  0  0  0  0  0  0  0
    4.8224  -44.7394    0.1780 H   0  0  0  0  0  0  0  0  0  0  0  0
    5.1635  -45.7878    1.4788 H   0  0  0  0  0  0  0  0  0  0  0  0
   -0.7238  -39.1674   -1.2241 C   0  0  0  0  0  0  0  0  0  0  0  0
   -0.0222  -37.9270   -1.3383 O   0  0  0  0  0  0  0  0  0  0  0  0
   -0.8044  -36.5915   -1.7755 P   0  0  0  0  0  0  0  0  0  0  0  0
   -2.1563  -37.0139   -2.2829 O   0  0  0  0  0  0  0  0  0  0  0  0
   -0.7391  -35.6030   -0.6384 O   0  0  0  0  0  0  0  0  0  0  0  0
   -1.2076  -34.7913   -0.8883 H   0  0  0  0  0  0  0  0  0  0  0  0
    0.1553  -36.0741   -2.9733 O   0  0  0  0  0  0  0  0  0  0  0  0
    0.8679  -36.9987   -4.0935 P   0  0  0  0  0  0  0  0  0  0  0  0
    1.2493  -36.0296   -5.1860 O   0  0  0  0  0  0  0  0  0  0  0  0
   -0.2092  -37.9653   -4.5218 O   0  0  0  0  0  0  0  0  0  0  0  0
    2.0440  -37.6380   -3.3944 O   0  0  0  0  0  0  0  0  0  0  0  0
    0.1431  -38.5619   -5.2007 H   0  0  0  0  0  0  0  0  0  0  0  0
    2.5182  -38.2106   -4.0174 H   0  0  0  0  0  0  0  0  0  0  0  0
 29 30  2  0  0  0
 29 31  1  0  0  0
 29 32  1  0  0  0
 29 28  1  0  0  0
 24 25  2  0  0  0
 24 26  1  0  0  0
 24 28  1  0  0  0
 24 23  1  0  0  0
 23 22  1  0  0  0
 22  1  1  0  0  0
  1  2  1  0  0  0
  1  3  1  0  0  0
  2  7  1  0  0  0
  3  4  1  0  0  0
  3  5  1  0  0  0
  5  6  1  0  0  0
  5  7  1  0  0  0
  7 10  1  0  0  0
 10 11  1  0  0  0
 10 19  1  0  0  0
 11 12  2  0  0  0
 12 13  1  0  0  0
 13 14  1  0  0  0
 13 19  2  0  0  0
 14 15  1  0  0  0
 14 16  2  0  0  0
 16 17  1  0  0  0
 17 18  2  0  0  0
 18 19  1  0  0  0
 31 33  1  0  0  0
 32 34  1  0  0  0
 26 27  1  0  0  0
  4  8  1  0  0  0
  6  9  1  0  0  0
 15 20  1  0  0  0
 15 21  1  0  0  0
M  END
> <minimizedAffinity>
-8.44522

$$$$
4I3Z_ADP_A_301


 34 36  0  0  0  0  0  0  0  0999 V2000
   -0.2798  -38.4204    0.2262 C   0  0  0  0  0  0  0  0  0  0  0  0
   -0.4599  -39.7995   -0.1129 O   0  0  0  0  0  0  0  0  0  0  0  0
    0.1888  -38.4048    1.6706 C   0  0  0  0  0  0  0  0  0  0  0  0
   -0.2653  -37.2471    2.3814 O   0  0  0  0  0  0  0  0  0  0  0  0
   -0.3913  -39.6760    2.2538 C   0  0  0  0  0  0  0  0  0  0  0  0
   -1.6870  -39.4250    2.8151 O   0  0  0  0  0  0  0  0  0  0  0  0
   -0.5303  -40.6026    1.0641 C   0  0  0  0  0  0  0  0  0  0  0  0
   -1.2345  -37.2143    2.3602 H   0  0  0  0  0  0  0  0  0  0  0  0
   -2.2696  -39.0576    2.1321 H   0  0  0  0  0  0  0  0  0  0  0  0
    0.6339  -41.5153    1.1117 N   0  0  0  0  0  0  0  0  0  0  0  0
    1.0119  -42.2585    2.1714 C   0  0  0  0  0  0  0  0  0  0  0  0
    2.1162  -42.9924    1.8815 N   0  0  0  0  0  0  0  0  0  0  0  0
    2.4523  -42.7218    0.6066 C   0  0  0  0  0  0  0  0  0  0  0  0
    3.5144  -43.1557   -0.3298 C   0  0  0  0  0  0  0  0  0  0  0  0
    4.4434  -44.0518    0.0726 N   0  0  0  0  0  0  0  0  0  0  0  0
    3.5175  -42.6363   -1.5824 N   0  0  0  0  0  0  0  0  0  0  0  0
    2.5845  -41.7455   -1.9690 C   0  0  0  0  0  0  0  0  0  0  0  0
    1.5879  -41.3077   -1.1746 N   0  0  0  0  0  0  0  0  0  0  0  0
    1.4730  -41.7490    0.1006 C   0  0  0  0  0  0  0  0  0  0  0  0
    4.4158  -44.4118    0.9885 H   0  0  0  0  0  0  0  0  0  0  0  0
    5.1474  -44.3444   -0.5503 H   0  0  0  0  0  0  0  0  0  0  0  0
    0.7332  -37.7710   -0.7094 C   0  0  0  0  0  0  0  0  0  0  0  0
    0.0722  -36.9033   -1.6336 O   0  0  0  0  0  0  0  0  0  0  0  0
   -0.5607  -37.4946   -2.9887 P   0  0  0  0  0  0  0  0  0  0  0  0
    0.1617  -38.7786   -3.2936 O   0  0  0  0  0  0  0  0  0  0  0  0
   -2.0612  -37.5304   -2.8418 O   0  0  0  0  0  0  0  0  0  0  0  0
   -2.4571  -37.8855   -3.6531 H   0  0  0  0  0  0  0  0  0  0  0  0
   -0.1655  -36.3179   -4.0292 O   0  0  0  0  0  0  0  0  0  0  0  0
    0.8311  -36.4578   -5.2960 P   0  0  0  0  0  0  0  0  0  0  0  0
    0.8926  -35.0651   -5.8747 O   0  0  0  0  0  0  0  0  0  0  0  0
    0.1390  -37.4388   -6.2105 O   0  0  0  0  0  0  0  0  0  0  0  0
    2.1392  -36.9486   -4.7227 O   0  0  0  0  0  0  0  0  0  0  0  0
    0.6796  -37.5783   -7.0036 H   0  0  0  0  0  0  0  0  0  0  0  0
    2.7862  -37.0541   -5.4377 H   0  0  0  0  0  0  0  0  0  0  0  0
 29 30  2  0  0  0
 29 31  1  0  0  0
 29 32  1  0  0  0
 29 28  1  0  0  0
 24 25  2  0  0  0
 24 26  1  0  0  0
 24 28  1  0  0  0
 24 23  1  0  0  0
 23 22  1  0  0  0
 22  1  1  0  0  0
  1  2  1  0  0  0
  1  3  1  0  0  0
  2  7  1  0  0  0
  3  4  1  0  0  0
  3  5  1  0  0  0
  5  6  1  0  0  0
  5  7  1  0  0  0
  7 10  1  0  0  0
 10 11  1  0  0  0
 10 19  1  0  0  0
 11 12  2  0  0  0
 12 13  1  0  0  0
 13 14  1  0  0  0
 13 19  2  0  0  0
 14 15  1  0  0  0
 14 16  2  0  0  0
 16 17  1  0  0  0
 17 18  2  0  0  0
 18 19  1  0  0  0
 31 33  1  0  0  0
 32 34  1  0  0  0
 26 27  1  0  0  0
  4  8  1  0  0  0
  6  9  1  0  0  0
 15 20  1  0  0  0
 15 21  1  0  0  0
M  END
> <minimizedAffinity>
-8.12567

$$$$
4I3Z_ADP_A_301


 34 36  0  0  0  0  0  0  0  0999 V2000
   -0.8771  -40.3908    2.2951 C   0  0  0  0  0  0  0  0  0  0  0  0
   -0.7637  -41.1301    1.0746 O   0  0  0  0  0  0  0  0  0  0  0  0
    0.4697  -40.5177    2.9851 C   0  0  0  0  0  0  0  0  0  0  0  0
    0.3559  -40.5175    4.4129 O   0  0  0  0  0  0  0  0  0  0  0  0
    1.0171  -41.8332    2.4729 C   0  0  0  0  0  0  0  0  0  0  0  0
    0.6271  -42.9094    3.3371 O   0  0  0  0  0  0  0  0  0  0  0  0
    0.3580  -42.0104    1.1212 C   0  0  0  0  0  0  0  0  0  0  0  0
   -0.2155  -41.2500    4.6918 H   0  0  0  0  0  0  0  0  0  0  0  0
   -0.3403  -42.9367    3.4031 H   0  0  0  0  0  0  0  0  0  0  0  0
    1.3588  -41.5917    0.1143 N   0  0  0  0  0  0  0  0  0  0  0  0
    1.2599  -40.5214   -0.6997 C   0  0  0  0  0  0  0  0  0  0  0  0
    2.3524  -40.4150   -1.4980 N   0  0  0  0  0  0  0  0  0  0  0  0
    3.1752  -41.4337   -1.1868 C   0  0  0  0  0  0  0  0  0  0  0  0
    4.4987  -41.9124   -1.6474 C   0  0  0  0  0  0  0  0  0  0  0  0
    5.1568  -41.2429   -2.6204 N   0  0  0  0  0  0  0  0  0  0  0  0
    5.0188  -43.0212   -1.0652 N   0  0  0  0  0  0  0  0  0  0  0  0
    4.3518  -43.6765   -0.0961 C   0  0  0  0  0  0  0  0  0  0  0  0
    3.1474  -43.2985    0.3756 N   0  0  0  0  0  0  0  0  0  0  0  0
    2.5189  -42.2072   -0.1228 C   0  0  0  0  0  0  0  0  0  0  0  0
    4.7541  -40.4407   -3.0248 H   0  0  0  0  0  0  0  0  0  0  0  0
    6.0387  -41.5576   -2.9245 H   0  0  0  0  0  0  0  0  0  0  0  0
   -1.2350  -38.9378    2.0050 C   0  0  0  0  0  0  0  0  0  0  0  0
   -0.0827  -38.2220    1.5537 O   0  0  0  0  0  0  0  0  0  0  0  0
   -0.2379  -37.0252    0.4905 P   0  0  0  0  0  0  0  0  0  0  0  0
   -1.2944  -36.0942    1.0200 O   0  0  0  0  0  0  0  0  0  0  0  0
    1.1311  -36.4662    0.1941 O   0  0  0  0  0  0  0  0  0  0  0  0
    1.0528  -35.7423   -0.4468 H   0  0  0  0  0  0  0  0  0  0  0  0
   -0.7554  -37.8528   -0.8020 O   0  0  0  0  0  0  0  0  0  0  0  0
   -1.2629  -37.2194   -2.2016 P   0  0  0  0  0  0  0  0  0  0  0  0
   -0.3017  -36.0860   -2.4656 O   0  0  0  0  0  0  0  0  0  0  0  0
   -2.6637  -36.7396   -1.9094 O   0  0  0  0  0  0  0  0  0  0  0  0
   -1.1811  -38.3468   -3.2031 O   0  0  0  0  0  0  0  0  0  0  0  0
   -3.0425  -36.3417   -2.7088 H   0  0  0  0  0  0  0  0  0  0  0  0
   -1.4746  -38.0297   -4.0715 H   0  0  0  0  0  0  0  0  0  0  0  0
 29 30  2  0  0  0
 29 31  1  0  0  0
 29 32  1  0  0  0
 29 28  1  0  0  0
 24 25  2  0  0  0
 24 26  1  0  0  0
 24 28  1  0  0  0
 24 23  1  0  0  0
 23 22  1  0  0  0
 22  1  1  0  0  0
  1  2  1  0  0  0
  1  3  1  0  0  0
  2  7  1  0  0  0
  3  4  1  0  0  0
  3  5  1  0  0  0
  5  6  1  0  0  0
  5  7  1  0  0  0
  7 10  1  0  0  0
 10 11  1  0  0  0
 10 19  1  0  0  0
 11 12  2  0  0  0
 12 13  1  0  0  0
 13 14  1  0  0  0
 13 19  2  0  0  0
 14 15  1  0  0  0
 14 16  2  0  0  0
 16 17  1  0  0  0
 17 18  2  0  0  0
 18 19  1  0  0  0
 31 33  1  0  0  0
 32 34  1  0  0  0
 26 27  1  0  0  0
  4  8  1  0  0  0
  6  9  1  0  0  0
 15 20  1  0  0  0
 15 21  1  0  0  0
M  END
> <minimizedAffinity>
-8.07783

$$$$
4I3Z_ADP_A_301


 34 36  0  0  0  0  0  0  0  0999 V2000
    0.5265  -38.4398   -1.1243 C   0  0  0  0  0  0  0  0  0  0  0  0
   -0.2735  -39.6024   -0.8845 O   0  0  0  0  0  0  0  0  0  0  0  0
    1.0266  -37.9907    0.2374 C   0  0  0  0  0  0  0  0  0  0  0  0
    1.1811  -36.5693    0.3228 O   0  0  0  0  0  0  0  0  0  0  0  0
   -0.0328  -38.4917    1.1961 C   0  0  0  0  0  0  0  0  0  0  0  0
   -1.0449  -37.4943    1.3914 O   0  0  0  0  0  0  0  0  0  0  0  0
   -0.6367  -39.6889    0.4924 C   0  0  0  0  0  0  0  0  0  0  0  0
    0.3311  -36.1400    0.1379 H   0  0  0  0  0  0  0  0  0  0  0  0
   -1.4342  -37.2568    0.5352 H   0  0  0  0  0  0  0  0  0  0  0  0
   -0.0082  -40.8849    1.0966 N   0  0  0  0  0  0  0  0  0  0  0  0
    0.6603  -41.8476    0.4300 C   0  0  0  0  0  0  0  0  0  0  0  0
    1.1187  -42.8000    1.2815 N   0  0  0  0  0  0  0  0  0  0  0  0
    0.7439  -42.4397    2.5230 C   0  0  0  0  0  0  0  0  0  0  0  0
    0.9014  -42.9956    3.8864 C   0  0  0  0  0  0  0  0  0  0  0  0
    1.5766  -44.1527    4.0690 N   0  0  0  0  0  0  0  0  0  0  0  0
    0.3598  -42.3125    4.9250 N   0  0  0  0  0  0  0  0  0  0  0  0
   -0.3088  -41.1603    4.7274 C   0  0  0  0  0  0  0  0  0  0  0  0
   -0.4889  -40.5933    3.5182 N   0  0  0  0  0  0  0  0  0  0  0  0
    0.0024  -41.1763    2.3989 C   0  0  0  0  0  0  0  0  0  0  0  0
    1.9590  -44.6268    3.2956 H   0  0  0  0  0  0  0  0  0  0  0  0
    1.6858  -44.5211    4.9754 H   0  0  0  0  0  0  0  0  0  0  0  0
    1.6731  -38.7699   -2.0729 C   0  0  0  0  0  0  0  0  0  0  0  0
    2.2686  -40.0201   -1.7177 O   0  0  0  0  0  0  0  0  0  0  0  0
    3.8214  -40.0892   -1.3047 P   0  0  0  0  0  0  0  0  0  0  0  0
    4.6083  -40.3083   -2.5681 O   0  0  0  0  0  0  0  0  0  0  0  0
    4.1457  -38.8867   -0.4543 O   0  0  0  0  0  0  0  0  0  0  0  0
    5.0806  -38.9150   -0.1973 H   0  0  0  0  0  0  0  0  0  0  0  0
    3.8112  -41.4073   -0.3635 O   0  0  0  0  0  0  0  0  0  0  0  0
    4.2414  -42.9021   -0.8084 P   0  0  0  0  0  0  0  0  0  0  0  0
    3.3117  -43.2307   -1.9512 O   0  0  0  0  0  0  0  0  0  0  0  0
    3.9816  -43.7464    0.4154 O   0  0  0  0  0  0  0  0  0  0  0  0
    5.6954  -42.7985   -1.2030 O   0  0  0  0  0  0  0  0  0  0  0  0
    4.2173  -44.6685    0.2280 H   0  0  0  0  0  0  0  0  0  0  0  0
    6.0174  -43.6697   -1.4827 H   0  0  0  0  0  0  0  0  0  0  0  0
 29 30  2  0  0  0
 29 31  1  0  0  0
 29 32  1  0  0  0
 29 28  1  0  0  0
 24 25  2  0  0  0
 24 26  1  0  0  0
 24 28  1  0  0  0
 24 23  1  0  0  0
 23 22  1  0  0  0
 22  1  1  0  0  0
  1  2  1  0  0  0
  1  3  1  0  0  0
  2  7  1  0  0  0
  3  4  1  0  0  0
  3  5  1  0  0  0
  5  6  1  0  0  0
  5  7  1  0  0  0
  7 10  1  0  0  0
 10 11  1  0  0  0
 10 19  1  0  0  0
 11 12  2  0  0  0
 12 13  1  0  0  0
 13 14  1  0  0  0
 13 19  2  0  0  0
 14 15  1  0  0  0
 14 16  2  0  0  0
 16 17  1  0  0  0
 17 18  2  0  0  0
 18 19  1  0  0  0
 31 33  1  0  0  0
 32 34  1  0  0  0
 26 27  1  0  0  0
  4  8  1  0  0  0
  6  9  1  0  0  0
 15 20  1  0  0  0
 15 21  1  0  0  0
M  END
> <minimizedAffinity>
-8.06981

$$$$
4I3Z_ADP_A_301


 34 36  0  0  0  0  0  0  0  0999 V2000
   -0.7936  -39.2284    0.3990 C   0  0  0  0  0  0  0  0  0  0  0  0
   -0.8770  -40.6550    0.3147 O   0  0  0  0  0  0  0  0  0  0  0  0
    0.1996  -38.9345    1.5096 C   0  0  0  0  0  0  0  0  0  0  0  0
   -0.1098  -37.7274    2.2159 O   0  0  0  0  0  0  0  0  0  0  0  0
    0.1023  -40.1457    2.4130 C   0  0  0  0  0  0  0  0  0  0  0  0
   -0.8876  -39.9353    3.4294 O   0  0  0  0  0  0  0  0  0  0  0  0
   -0.3506  -41.2610    1.4941 C   0  0  0  0  0  0  0  0  0  0  0  0
   -1.0006  -37.7933    2.5940 H   0  0  0  0  0  0  0  0  0  0  0  0
   -1.7421  -39.7416    3.0133 H   0  0  0  0  0  0  0  0  0  0  0  0
    0.8636  -42.0358    1.1536 N   0  0  0  0  0  0  0  0  0  0  0  0
    1.6060  -41.8903    0.0374 C   0  0  0  0  0  0  0  0  0  0  0  0
    2.6571  -42.7491    0.0372 N   0  0  0  0  0  0  0  0  0  0  0  0
    2.5945  -43.4573    1.1800 C   0  0  0  0  0  0  0  0  0  0  0  0
    3.3951  -44.5302    1.8131 C   0  0  0  0  0  0  0  0  0  0  0  0
    4.4968  -45.0063    1.1905 N   0  0  0  0  0  0  0  0  0  0  0  0
    2.9944  -45.0042    3.0187 N   0  0  0  0  0  0  0  0  0  0  0  0
    1.8954  -44.5189    3.6272 C   0  0  0  0  0  0  0  0  0  0  0  0
    1.1211  -43.5424    3.1143 N   0  0  0  0  0  0  0  0  0  0  0  0
    1.4124  -42.9844    1.9151 C   0  0  0  0  0  0  0  0  0  0  0  0
    4.7634  -44.6427    0.3153 H   0  0  0  0  0  0  0  0  0  0  0  0
    5.0324  -45.7165    1.6123 H   0  0  0  0  0  0  0  0  0  0  0  0
   -0.3473  -38.6423   -0.9354 C   0  0  0  0  0  0  0  0  0  0  0  0
   -1.4547  -38.0395   -1.6094 O   0  0  0  0  0  0  0  0  0  0  0  0
   -1.2778  -36.6234   -2.3512 P   0  0  0  0  0  0  0  0  0  0  0  0
    0.0823  -36.0958   -1.9839 O   0  0  0  0  0  0  0  0  0  0  0  0
   -1.6104  -36.8017   -3.8113 O   0  0  0  0  0  0  0  0  0  0  0  0
   -1.5079  -35.9543   -4.2721 H   0  0  0  0  0  0  0  0  0  0  0  0
   -2.4646  -35.7774   -1.6446 O   0  0  0  0  0  0  0  0  0  0  0  0
   -2.7804  -35.7158   -0.0590 P   0  0  0  0  0  0  0  0  0  0  0  0
   -3.5081  -34.4061    0.1233 O   0  0  0  0  0  0  0  0  0  0  0  0
   -1.4199  -35.7225    0.5944 O   0  0  0  0  0  0  0  0  0  0  0  0
   -3.6213  -36.9369    0.2284 O   0  0  0  0  0  0  0  0  0  0  0  0
   -1.5239  -35.6870    1.5581 H   0  0  0  0  0  0  0  0  0  0  0  0
   -3.8469  -36.9595    1.1715 H   0  0  0  0  0  0  0  0  0  0  0  0
 29 30  2  0  0  0
 29 31  1  0  0  0
 29 32  1  0  0  0
 29 28  1  0  0  0
 24 25  2  0  0  0
 24 26  1  0  0  0
 24 28  1  0  0  0
 24 23  1  0  0  0
 23 22  1  0  0  0
 22  1  1  0  0  0
  1  2  1  0  0  0
  1  3  1  0  0  0
  2  7  1  0  0  0
  3  4  1  0  0  0
  3  5  1  0  0  0
  5  6  1  0  0  0
  5  7  1  0  0  0
  7 10  1  0  0  0
 10 11  1  0  0  0
 10 19  1  0  0  0
 11 12  2  0  0  0
 12 13  1  0  0  0
 13 14  1  0  0  0
 13 19  2  0  0  0
 14 15  1  0  0  0
 14 16  2  0  0  0
 16 17  1  0  0  0
 17 18  2  0  0  0
 18 19  1  0  0  0
 31 33  1  0  0  0
 32 34  1  0  0  0
 26 27  1  0  0  0
  4  8  1  0  0  0
  6  9  1  0  0  0
 15 20  1  0  0  0
 15 21  1  0  0  0
M  END
> <minimizedAffinity>
-7.98993

$$$$
4I3Z_ADP_A_301


 34 36  0  0  0  0  0  0  0  0999 V2000
   -0.0934  -38.7640    0.2847 C   0  0  0  0  0  0  0  0  0  0  0  0
   -0.3006  -40.1537    0.0107 O   0  0  0  0  0  0  0  0  0  0  0  0
    0.3306  -38.6858    1.7409 C   0  0  0  0  0  0  0  0  0  0  0  0
   -0.1134  -37.4815    2.3767 O   0  0  0  0  0  0  0  0  0  0  0  0
   -0.3018  -39.9097    2.3690 C   0  0  0  0  0  0  0  0  0  0  0  0
   -1.6070  -39.5966    2.8747 O   0  0  0  0  0  0  0  0  0  0  0  0
   -0.4293  -40.8927    1.2242 C   0  0  0  0  0  0  0  0  0  0  0  0
   -1.0802  -37.4248    2.3227 H   0  0  0  0  0  0  0  0  0  0  0  0
   -2.1579  -39.2502    2.1554 H   0  0  0  0  0  0  0  0  0  0  0  0
    0.7074  -41.8315    1.3558 N   0  0  0  0  0  0  0  0  0  0  0  0
    1.0210  -42.5423    2.4578 C   0  0  0  0  0  0  0  0  0  0  0  0
    2.1167  -43.3140    2.2432 N   0  0  0  0  0  0  0  0  0  0  0  0
    2.5129  -43.1012    0.9745 C   0  0  0  0  0  0  0  0  0  0  0  0
    3.6014  -43.5970    0.1014 C   0  0  0  0  0  0  0  0  0  0  0  0
    4.4888  -44.4997    0.5766 N   0  0  0  0  0  0  0  0  0  0  0  0
    3.6706  -43.1267   -1.1685 N   0  0  0  0  0  0  0  0  0  0  0  0
    2.7784  -42.2287   -1.6279 C   0  0  0  0  0  0  0  0  0  0  0  0
    1.7613  -41.7359   -0.8938 N   0  0  0  0  0  0  0  0  0  0  0  0
    1.5816  -42.1247    0.3910 C   0  0  0  0  0  0  0  0  0  0  0  0
    4.4134  -44.8232    1.5033 H   0  0  0  0  0  0  0  0  0  0  0  0
    5.2103  -44.8334   -0.0042 H   0  0  0  0  0  0  0  0  0  0  0  0
    0.9656  -38.1902   -0.6495 C   0  0  0  0  0  0  0  0  0  0  0  0
    0.7566  -38.6565   -1.9847 O   0  0  0  0  0  0  0  0  0  0  0  0
    0.8093  -37.6273   -3.2195 P   0  0  0  0  0  0  0  0  0  0  0  0
    0.2590  -36.3158   -2.7290 O   0  0  0  0  0  0  0  0  0  0  0  0
    2.1989  -37.6508   -3.8049 O   0  0  0  0  0  0  0  0  0  0  0  0
    2.2456  -37.0337   -4.5518 H   0  0  0  0  0  0  0  0  0  0  0  0
   -0.2039  -38.3598   -4.2491 O   0  0  0  0  0  0  0  0  0  0  0  0
   -0.8070  -37.7255   -5.6097 P   0  0  0  0  0  0  0  0  0  0  0  0
    0.3987  -37.5401   -6.4985 O   0  0  0  0  0  0  0  0  0  0  0  0
   -1.4168  -36.4155   -5.1740 O   0  0  0  0  0  0  0  0  0  0  0  0
   -1.8007  -38.7427   -6.1183 O   0  0  0  0  0  0  0  0  0  0  0  0
   -1.8048  -35.9680   -5.9422 H   0  0  0  0  0  0  0  0  0  0  0  0
   -2.2020  -38.4197   -6.9403 H   0  0  0  0  0  0  0  0  0  0  0  0
 29 30  2  0  0  0
 29 31  1  0  0  0
 29 32  1  0  0  0
 29 28  1  0  0  0
 24 25  2  0  0  0
 24 26  1  0  0  0
 24 28  1  0  0  0
 24 23  1  0  0  0
 23 22  1  0  0  0
 22  1  1  0  0  0
  1  2  1  0  0  0
  1  3  1  0  0  0
  2  7  1  0  0  0
  3  4  1  0  0  0
  3  5  1  0  0  0
  5  6  1  0  0  0
  5  7  1  0  0  0
  7 10  1  0  0  0
 10 11  1  0  0  0
 10 19  1  0  0  0
 11 12  2  0  0  0
 12 13  1  0  0  0
 13 14  1  0  0  0
 13 19  2  0  0  0
 14 15  1  0  0  0
 14 16  2  0  0  0
 16 17  1  0  0  0
 17 18  2  0  0  0
 18 19  1  0  0  0
 31 33  1  0  0  0
 32 34  1  0  0  0
 26 27  1  0  0  0
  4  8  1  0  0  0
  6  9  1  0  0  0
 15 20  1  0  0  0
 15 21  1  0  0  0
M  END
> <minimizedAffinity>
-7.96799

$$$$
