5XSR_8EC_A_401


 26 29  0  0  0  0  0  0  0  0999 V2000
   22.4062  -14.5965  -20.9978 C   0  0  0  0  0  0  0  0  0  0  0  0
   21.0453  -14.7613  -20.9953 C   0  0  0  0  0  0  0  0  0  0  0  0
   20.3413  -14.5884  -22.1774 C   0  0  0  0  0  0  0  0  0  0  0  0
   21.0122  -14.2278  -23.3897 C   0  0  0  0  0  0  0  0  0  0  0  0
   22.4121  -14.0932  -23.3835 C   0  0  0  0  0  0  0  0  0  0  0  0
   24.5302  -13.7319  -23.7638 C   0  0  0  0  0  0  0  0  0  0  0  0
   23.0830  -14.2870  -22.1679 C   0  0  0  0  0  0  0  0  0  0  0  0
   18.9760  -14.7737  -22.0653 F   0  0  0  0  0  0  0  0  0  0  0  0
   23.3627  -13.7914  -24.1717 N   0  0  0  0  0  0  0  0  0  0  0  0
   24.4800  -14.0430  -22.4508 N   0  0  0  0  0  0  0  0  0  0  0  0
   23.1681  -13.6026  -25.1181 H   0  0  0  0  0  0  0  0  0  0  0  0
   25.8391  -13.4314  -24.5410 C   0  0  0  0  0  0  0  0  0  0  0  0
   26.9784  -13.3812  -24.0190 C   0  0  0  0  0  0  0  0  0  0  0  0
   28.0521  -13.1164  -24.9729 C   0  0  0  0  0  0  0  0  0  0  0  0
   29.5113  -12.9358  -24.9568 C   0  0  0  0  0  0  0  0  0  0  0  0
   30.1942  -12.3827  -26.3847 C   0  0  0  0  0  0  0  0  0  0  0  0
   28.0927  -12.7251  -27.4973 C   0  0  0  0  0  0  0  0  0  0  0  0
   27.5044  -12.9769  -26.3095 C   0  0  0  0  0  0  0  0  0  0  0  0
   29.4825  -12.8790  -27.6623 N   0  0  0  0  0  0  0  0  0  0  0  0
   25.6095  -13.2184  -26.1508 S   0  0  0  0  0  0  0  0  0  0  0  0
   29.7952  -12.3308  -28.4636 H   0  0  0  0  0  0  0  0  0  0  0  0
   23.2066  -14.8479  -19.6910 C   0  0  0  0  0  0  0  0  0  0  0  0
   24.6235  -14.9643  -19.7880 N   0  0  0  0  0  0  0  0  0  0  0  0
   22.6239  -14.9863  -18.6450 O   0  0  0  0  0  0  0  0  0  0  0  0
   25.0688  -14.8454  -20.6580 H   0  0  0  0  0  0  0  0  0  0  0  0
   25.1572  -15.1636  -18.9851 H   0  0  0  0  0  0  0  0  0  0  0  0
 19 17  1  0  0  0
 19 16  1  0  0  0
 17 18  1  0  0  0
 18 20  1  0  0  0
 18 14  2  0  0  0
 16 15  1  0  0  0
 20 12  1  0  0  0
 14 15  1  0  0  0
 14 13  1  0  0  0
 12 13  2  0  0  0
 12  6  1  0  0  0
  9  6  1  0  0  0
  9  5  1  0  0  0
  6 10  2  0  0  0
  4  5  2  0  0  0
  4  3  1  0  0  0
  5  7  1  0  0  0
 10  7  1  0  0  0
  3  8  1  0  0  0
  3  2  2  0  0  0
  7  1  2  0  0  0
  2  1  1  0  0  0
  1 22  1  0  0  0
 23 22  1  0  0  0
 22 24  2  0  0  0
 23 25  1  0  0  0
 23 26  1  0  0  0
  9 11  1  0  0  0
 19 21  1  0  0  0
M  END
> <minimizedAffinity>
-10.49675

$$$$
5XSR_8EC_A_401


 26 29  0  0  0  0  0  0  0  0999 V2000
   23.3605  -14.6257  -21.0113 C   0  0  0  0  0  0  0  0  0  0  0  0
   22.3814  -14.5125  -21.9641 C   0  0  0  0  0  0  0  0  0  0  0  0
   22.7192  -14.0568  -23.2295 C   0  0  0  0  0  0  0  0  0  0  0  0
   24.0666  -13.6916  -23.5468 C   0  0  0  0  0  0  0  0  0  0  0  0
   25.0655  -13.8430  -22.5686 C   0  0  0  0  0  0  0  0  0  0  0  0
   26.8591  -13.8709  -21.3261 C   0  0  0  0  0  0  0  0  0  0  0  0
   24.6796  -14.3164  -21.3067 C   0  0  0  0  0  0  0  0  0  0  0  0
   21.6590  -13.9761  -24.1130 F   0  0  0  0  0  0  0  0  0  0  0  0
   26.3113  -13.6435  -22.4129 N   0  0  0  0  0  0  0  0  0  0  0  0
   25.8854  -14.3254  -20.5084 N   0  0  0  0  0  0  0  0  0  0  0  0
   26.8471  -13.3041  -23.1658 H   0  0  0  0  0  0  0  0  0  0  0  0
   28.3519  -13.7462  -20.9216 C   0  0  0  0  0  0  0  0  0  0  0  0
   28.7852  -12.9666  -20.0398 C   0  0  0  0  0  0  0  0  0  0  0  0
   30.2259  -13.0658  -19.8223 C   0  0  0  0  0  0  0  0  0  0  0  0
   31.2527  -12.4317  -18.9822 C   0  0  0  0  0  0  0  0  0  0  0  0
   32.8421  -12.7982  -19.3704 C   0  0  0  0  0  0  0  0  0  0  0  0
   32.0596  -14.5001  -20.8748 C   0  0  0  0  0  0  0  0  0  0  0  0
   30.7930  -14.0664  -20.7072 C   0  0  0  0  0  0  0  0  0  0  0  0
   33.0493  -14.2302  -19.9104 N   0  0  0  0  0  0  0  0  0  0  0  0
   29.3380  -14.7731  -21.7357 S   0  0  0  0  0  0  0  0  0  0  0  0
   33.9728  -14.3054  -20.3368 H   0  0  0  0  0  0  0  0  0  0  0  0
   22.9994  -15.1924  -19.6113 C   0  0  0  0  0  0  0  0  0  0  0  0
   22.1301  -14.4238  -18.7840 N   0  0  0  0  0  0  0  0  0  0  0  0
   23.4892  -16.2278  -19.2360 O   0  0  0  0  0  0  0  0  0  0  0  0
   21.7465  -13.5821  -19.1211 H   0  0  0  0  0  0  0  0  0  0  0  0
   21.9131  -14.7346  -17.8754 H   0  0  0  0  0  0  0  0  0  0  0  0
 19 17  1  0  0  0
 19 16  1  0  0  0
 17 18  1  0  0  0
 18 20  1  0  0  0
 18 14  2  0  0  0
 16 15  1  0  0  0
 20 12  1  0  0  0
 14 15  1  0  0  0
 14 13  1  0  0  0
 12 13  2  0  0  0
 12  6  1  0  0  0
  9  6  1  0  0  0
  9  5  1  0  0  0
  6 10  2  0  0  0
  4  5  2  0  0  0
  4  3  1  0  0  0
  5  7  1  0  0  0
 10  7  1  0  0  0
  3  8  1  0  0  0
  3  2  2  0  0  0
  7  1  2  0  0  0
  2  1  1  0  0  0
  1 22  1  0  0  0
 23 22  1  0  0  0
 22 24  2  0  0  0
 23 25  1  0  0  0
 23 26  1  0  0  0
  9 11  1  0  0  0
 19 21  1  0  0  0
M  END
> <minimizedAffinity>
-9.80221

$$$$
5XSR_8EC_A_401


 26 29  0  0  0  0  0  0  0  0999 V2000
   22.5213  -14.3125  -22.3196 C   0  0  0  0  0  0  0  0  0  0  0  0
   22.1407  -14.5987  -21.0342 C   0  0  0  0  0  0  0  0  0  0  0  0
   23.1059  -14.6551  -20.0401 C   0  0  0  0  0  0  0  0  0  0  0  0
   24.4881  -14.4340  -20.3405 C   0  0  0  0  0  0  0  0  0  0  0  0
   24.8592  -14.1104  -21.6578 C   0  0  0  0  0  0  0  0  0  0  0  0
   25.8294  -13.6565  -23.5590 C   0  0  0  0  0  0  0  0  0  0  0  0
   23.8486  -14.0549  -22.6277 C   0  0  0  0  0  0  0  0  0  0  0  0
   22.6178  -14.9542  -18.7818 F   0  0  0  0  0  0  0  0  0  0  0  0
   25.9028  -13.8634  -22.3404 N   0  0  0  0  0  0  0  0  0  0  0  0
   24.5194  -13.7518  -23.8725 N   0  0  0  0  0  0  0  0  0  0  0  0
   26.7802  -13.8363  -21.8947 H   0  0  0  0  0  0  0  0  0  0  0  0
   26.9466  -13.2968  -24.5738 C   0  0  0  0  0  0  0  0  0  0  0  0
   28.1546  -13.1423  -24.2738 C   0  0  0  0  0  0  0  0  0  0  0  0
   29.0118  -12.8426  -25.4175 C   0  0  0  0  0  0  0  0  0  0  0  0
   30.4307  -12.5572  -25.6775 C   0  0  0  0  0  0  0  0  0  0  0  0
   30.7958  -12.0188  -27.2228 C   0  0  0  0  0  0  0  0  0  0  0  0
   28.5599  -12.5592  -27.9161 C   0  0  0  0  0  0  0  0  0  0  0  0
   28.2200  -12.8009  -26.6329 C   0  0  0  0  0  0  0  0  0  0  0  0
   29.9039  -12.6198  -28.3312 N   0  0  0  0  0  0  0  0  0  0  0  0
   26.4109  -13.1708  -26.1187 S   0  0  0  0  0  0  0  0  0  0  0  0
   30.0210  -12.0858  -29.1923 H   0  0  0  0  0  0  0  0  0  0  0  0
   21.4380  -14.1884  -23.4254 C   0  0  0  0  0  0  0  0  0  0  0  0
   21.8320  -14.4213  -24.7749 N   0  0  0  0  0  0  0  0  0  0  0  0
   20.3164  -13.8560  -23.1350 O   0  0  0  0  0  0  0  0  0  0  0  0
   22.7565  -14.6920  -24.9781 H   0  0  0  0  0  0  0  0  0  0  0  0
   21.1796  -14.3116  -25.5040 H   0  0  0  0  0  0  0  0  0  0  0  0
 19 17  1  0  0  0
 19 16  1  0  0  0
 17 18  1  0  0  0
 18 20  1  0  0  0
 18 14  2  0  0  0
 16 15  1  0  0  0
 20 12  1  0  0  0
 14 15  1  0  0  0
 14 13  1  0  0  0
 12 13  2  0  0  0
 12  6  1  0  0  0
  9  6  1  0  0  0
  9  5  1  0  0  0
  6 10  2  0  0  0
  4  5  2  0  0  0
  4  3  1  0  0  0
  5  7  1  0  0  0
 10  7  1  0  0  0
  3  8  1  0  0  0
  3  2  2  0  0  0
  7  1  2  0  0  0
  2  1  1  0  0  0
  1 22  1  0  0  0
 23 22  1  0  0  0
 22 24  2  0  0  0
 23 25  1  0  0  0
 23 26  1  0  0  0
  9 11  1  0  0  0
 19 21  1  0  0  0
M  END
> <minimizedAffinity>
-9.71976

$$$$
5XSR_8EC_A_401


 26 29  0  0  0  0  0  0  0  0999 V2000
   30.0535  -14.8314  -20.3318 C   0  0  0  0  0  0  0  0  0  0  0  0
   31.1196  -13.9998  -20.1060 C   0  0  0  0  0  0  0  0  0  0  0  0
   30.9332  -12.6274  -20.1763 C   0  0  0  0  0  0  0  0  0  0  0  0
   29.6524  -12.0723  -20.4943 C   0  0  0  0  0  0  0  0  0  0  0  0
   28.5613  -12.9371  -20.6924 C   0  0  0  0  0  0  0  0  0  0  0  0
   26.6673  -13.9301  -21.1262 C   0  0  0  0  0  0  0  0  0  0  0  0
   28.7945  -14.3165  -20.6018 C   0  0  0  0  0  0  0  0  0  0  0  0
   32.0710  -11.8801  -19.9363 F   0  0  0  0  0  0  0  0  0  0  0  0
   27.3262  -12.8908  -20.9897 N   0  0  0  0  0  0  0  0  0  0  0  0
   27.5253  -14.9461  -20.8916 N   0  0  0  0  0  0  0  0  0  0  0  0
   26.8883  -12.0178  -21.1129 H   0  0  0  0  0  0  0  0  0  0  0  0
   25.1588  -14.1152  -21.4390 C   0  0  0  0  0  0  0  0  0  0  0  0
   24.6385  -13.9208  -22.5635 C   0  0  0  0  0  0  0  0  0  0  0  0
   23.2056  -14.1997  -22.6056 C   0  0  0  0  0  0  0  0  0  0  0  0
   22.1072  -14.1431  -23.5815 C   0  0  0  0  0  0  0  0  0  0  0  0
   20.5649  -14.3510  -22.9577 C   0  0  0  0  0  0  0  0  0  0  0  0
   21.5266  -14.9994  -20.8538 C   0  0  0  0  0  0  0  0  0  0  0  0
   22.7478  -14.6398  -21.3008 C   0  0  0  0  0  0  0  0  0  0  0  0
   20.4920  -15.3166  -21.7546 N   0  0  0  0  0  0  0  0  0  0  0  0
   24.2839  -14.6381  -20.1542 S   0  0  0  0  0  0  0  0  0  0  0  0
   19.5899  -15.2167  -21.2892 H   0  0  0  0  0  0  0  0  0  0  0  0
   30.2423  -16.3667  -20.1951 C   0  0  0  0  0  0  0  0  0  0  0  0
   29.4007  -17.2146  -20.9719 N   0  0  0  0  0  0  0  0  0  0  0  0
   31.0475  -16.8073  -19.4137 O   0  0  0  0  0  0  0  0  0  0  0  0
   28.7532  -16.8225  -21.6014 H   0  0  0  0  0  0  0  0  0  0  0  0
   29.4667  -18.1925  -20.8791 H   0  0  0  0  0  0  0  0  0  0  0  0
 19 17  1  0  0  0
 19 16  1  0  0  0
 17 18  1  0  0  0
 18 20  1  0  0  0
 18 14  2  0  0  0
 16 15  1  0  0  0
 20 12  1  0  0  0
 14 15  1  0  0  0
 14 13  1  0  0  0
 12 13  2  0  0  0
 12  6  1  0  0  0
  9  6  1  0  0  0
  9  5  1  0  0  0
  6 10  2  0  0  0
  4  5  2  0  0  0
  4  3  1  0  0  0
  5  7  1  0  0  0
 10  7  1  0  0  0
  3  8  1  0  0  0
  3  2  2  0  0  0
  7  1  2  0  0  0
  2  1  1  0  0  0
  1 22  1  0  0  0
 23 22  1  0  0  0
 22 24  2  0  0  0
 23 25  1  0  0  0
 23 26  1  0  0  0
  9 11  1  0  0  0
 19 21  1  0  0  0
M  END
> <minimizedAffinity>
-9.57108

$$$$
5XSR_8EC_A_401


 26 29  0  0  0  0  0  0  0  0999 V2000
   24.0540  -13.9583  -22.7862 C   0  0  0  0  0  0  0  0  0  0  0  0
   22.7848  -14.2570  -22.3632 C   0  0  0  0  0  0  0  0  0  0  0  0
   22.5919  -14.6975  -21.0625 C   0  0  0  0  0  0  0  0  0  0  0  0
   23.6968  -14.8572  -20.1662 C   0  0  0  0  0  0  0  0  0  0  0  0
   24.9889  -14.5168  -20.6047 C   0  0  0  0  0  0  0  0  0  0  0  0
   27.1188  -14.1644  -20.9223 C   0  0  0  0  0  0  0  0  0  0  0  0
   25.1349  -14.0665  -21.9243 C   0  0  0  0  0  0  0  0  0  0  0  0
   21.2768  -14.9743  -20.7389 F   0  0  0  0  0  0  0  0  0  0  0  0
   26.1883  -14.5126  -20.1835 N   0  0  0  0  0  0  0  0  0  0  0  0
   26.5519  -13.8405  -22.1042 N   0  0  0  0  0  0  0  0  0  0  0  0
   26.3796  -14.7895  -19.2583 H   0  0  0  0  0  0  0  0  0  0  0  0
   28.6349  -14.0389  -20.6171 C   0  0  0  0  0  0  0  0  0  0  0  0
   29.1134  -13.3982  -19.6509 C   0  0  0  0  0  0  0  0  0  0  0  0
   30.5697  -13.4644  -19.5636 C   0  0  0  0  0  0  0  0  0  0  0  0
   31.6407  -12.9321  -18.7082 C   0  0  0  0  0  0  0  0  0  0  0  0
   33.2039  -13.1535  -19.2728 C   0  0  0  0  0  0  0  0  0  0  0  0
   32.3569  -14.6150  -20.9811 C   0  0  0  0  0  0  0  0  0  0  0  0
   31.0947  -14.2754  -20.6464 C   0  0  0  0  0  0  0  0  0  0  0  0
   33.4135  -14.4638  -20.0628 N   0  0  0  0  0  0  0  0  0  0  0  0
   29.5840  -14.8680  -21.6666 S   0  0  0  0  0  0  0  0  0  0  0  0
   34.3005  -14.4232  -20.5647 H   0  0  0  0  0  0  0  0  0  0  0  0
   24.2688  -13.4073  -24.2221 C   0  0  0  0  0  0  0  0  0  0  0  0
   25.2736  -12.4150  -24.4130 N   0  0  0  0  0  0  0  0  0  0  0  0
   23.5633  -13.7845  -25.1238 O   0  0  0  0  0  0  0  0  0  0  0  0
   25.8332  -12.1290  -23.6551 H   0  0  0  0  0  0  0  0  0  0  0  0
   25.4083  -12.0156  -25.3027 H   0  0  0  0  0  0  0  0  0  0  0  0
 19 17  1  0  0  0
 19 16  1  0  0  0
 17 18  1  0  0  0
 18 20  1  0  0  0
 18 14  2  0  0  0
 16 15  1  0  0  0
 20 12  1  0  0  0
 14 15  1  0  0  0
 14 13  1  0  0  0
 12 13  2  0  0  0
 12  6  1  0  0  0
  9  6  1  0  0  0
  9  5  1  0  0  0
  6 10  2  0  0  0
  4  5  2  0  0  0
  4  3  1  0  0  0
  5  7  1  0  0  0
 10  7  1  0  0  0
  3  8  1  0  0  0
  3  2  2  0  0  0
  7  1  2  0  0  0
  2  1  1  0  0  0
  1 22  1  0  0  0
 23 22  1  0  0  0
 22 24  2  0  0  0
 23 25  1  0  0  0
 23 26  1  0  0  0
  9 11  1  0  0  0
 19 21  1  0  0  0
M  END
> <minimizedAffinity>
-9.21988

$$$$
5XSR_8EC_A_401


 26 29  0  0  0  0  0  0  0  0999 V2000
   22.0996  -14.2067  -23.7779 C   0  0  0  0  0  0  0  0  0  0  0  0
   20.7877  -14.4405  -23.4568 C   0  0  0  0  0  0  0  0  0  0  0  0
   20.4401  -14.6274  -22.1274 C   0  0  0  0  0  0  0  0  0  0  0  0
   21.4306  -14.5938  -21.0942 C   0  0  0  0  0  0  0  0  0  0  0  0
   22.7674  -14.3216  -21.4358 C   0  0  0  0  0  0  0  0  0  0  0  0
   24.9219  -14.0001  -21.5639 C   0  0  0  0  0  0  0  0  0  0  0  0
   23.0706  -14.1296  -22.7909 C   0  0  0  0  0  0  0  0  0  0  0  0
   19.0945  -14.8595  -21.9126 F   0  0  0  0  0  0  0  0  0  0  0  0
   23.9086  -14.2164  -20.8859 N   0  0  0  0  0  0  0  0  0  0  0  0
   24.5002  -13.9180  -22.8440 N   0  0  0  0  0  0  0  0  0  0  0  0
   23.9879  -14.3080  -19.9089 H   0  0  0  0  0  0  0  0  0  0  0  0
   26.3921  -13.7928  -21.1133 C   0  0  0  0  0  0  0  0  0  0  0  0
   27.1401  -14.7065  -20.6908 C   0  0  0  0  0  0  0  0  0  0  0  0
   28.4912  -14.2581  -20.3649 C   0  0  0  0  0  0  0  0  0  0  0  0
   29.7386  -14.8324  -19.8391 C   0  0  0  0  0  0  0  0  0  0  0  0
   30.9319  -13.7300  -19.4243 C   0  0  0  0  0  0  0  0  0  0  0  0
   29.6535  -11.9853  -20.4702 C   0  0  0  0  0  0  0  0  0  0  0  0
   28.6168  -12.8354  -20.6219 C   0  0  0  0  0  0  0  0  0  0  0  0
   30.9669  -12.4682  -20.3142 N   0  0  0  0  0  0  0  0  0  0  0  0
   26.9142  -12.2467  -21.2767 S   0  0  0  0  0  0  0  0  0  0  0  0
   31.5446  -11.7531  -19.8722 H   0  0  0  0  0  0  0  0  0  0  0  0
   22.4855  -13.9369  -25.2578 C   0  0  0  0  0  0  0  0  0  0  0  0
   23.6652  -13.1793  -25.5125 N   0  0  0  0  0  0  0  0  0  0  0  0
   21.7691  -14.3228  -26.1470 O   0  0  0  0  0  0  0  0  0  0  0  0
   24.2289  -12.8791  -24.7632 H   0  0  0  0  0  0  0  0  0  0  0  0
   23.9166  -12.9560  -26.4378 H   0  0  0  0  0  0  0  0  0  0  0  0
 19 17  1  0  0  0
 19 16  1  0  0  0
 17 18  1  0  0  0
 18 20  1  0  0  0
 18 14  2  0  0  0
 16 15  1  0  0  0
 20 12  1  0  0  0
 14 15  1  0  0  0
 14 13  1  0  0  0
 12 13  2  0  0  0
 12  6  1  0  0  0
  9  6  1  0  0  0
  9  5  1  0  0  0
  6 10  2  0  0  0
  4  5  2  0  0  0
  4  3  1  0  0  0
  5  7  1  0  0  0
 10  7  1  0  0  0
  3  8  1  0  0  0
  3  2  2  0  0  0
  7  1  2  0  0  0
  2  1  1  0  0  0
  1 22  1  0  0  0
 23 22  1  0  0  0
 22 24  2  0  0  0
 23 25  1  0  0  0
 23 26  1  0  0  0
  9 11  1  0  0  0
 19 21  1  0  0  0
M  END
> <minimizedAffinity>
-9.00906

$$$$
5XSR_8EC_A_401


 26 29  0  0  0  0  0  0  0  0999 V2000
   29.5238  -11.9943  -20.5599 C   0  0  0  0  0  0  0  0  0  0  0  0
   30.7811  -12.4993  -20.3516 C   0  0  0  0  0  0  0  0  0  0  0  0
   30.9702  -13.8729  -20.3744 C   0  0  0  0  0  0  0  0  0  0  0  0
   29.8727  -14.7650  -20.5967 C   0  0  0  0  0  0  0  0  0  0  0  0
   28.5947  -14.2310  -20.8400 C   0  0  0  0  0  0  0  0  0  0  0  0
   26.4829  -13.8031  -21.1848 C   0  0  0  0  0  0  0  0  0  0  0  0
   28.4527  -12.8365  -20.8172 C   0  0  0  0  0  0  0  0  0  0  0  0
   32.2728  -14.2772  -20.1499 F   0  0  0  0  0  0  0  0  0  0  0  0
   27.4044  -14.6203  -21.0583 N   0  0  0  0  0  0  0  0  0  0  0  0
   27.0478  -12.5842  -21.0494 N   0  0  0  0  0  0  0  0  0  0  0  0
   27.2130  -15.5836  -21.1276 H   0  0  0  0  0  0  0  0  0  0  0  0
   24.9813  -14.0405  -21.4951 C   0  0  0  0  0  0  0  0  0  0  0  0
   24.4536  -13.8684  -22.6198 C   0  0  0  0  0  0  0  0  0  0  0  0
   23.0309  -14.1959  -22.6592 C   0  0  0  0  0  0  0  0  0  0  0  0
   21.9302  -14.1805  -23.6341 C   0  0  0  0  0  0  0  0  0  0  0  0
   20.3965  -14.4381  -23.0077 C   0  0  0  0  0  0  0  0  0  0  0  0
   21.3817  -15.0451  -20.9023 C   0  0  0  0  0  0  0  0  0  0  0  0
   22.5896  -14.6461  -21.3521 C   0  0  0  0  0  0  0  0  0  0  0  0
   20.3576  -15.4008  -21.8007 N   0  0  0  0  0  0  0  0  0  0  0  0
   24.1259  -14.5877  -20.2073 S   0  0  0  0  0  0  0  0  0  0  0  0
   19.4531  -15.3298  -21.3347 H   0  0  0  0  0  0  0  0  0  0  0  0
   29.3169  -10.4556  -20.5955 C   0  0  0  0  0  0  0  0  0  0  0  0
   28.6465   -9.8982  -21.7227 N   0  0  0  0  0  0  0  0  0  0  0  0
   29.7610   -9.7675  -19.7111 O   0  0  0  0  0  0  0  0  0  0  0  0
   28.2954  -10.4884  -22.4281 H   0  0  0  0  0  0  0  0  0  0  0  0
   28.5345   -8.9228  -21.7961 H   0  0  0  0  0  0  0  0  0  0  0  0
 19 17  1  0  0  0
 19 16  1  0  0  0
 17 18  1  0  0  0
 18 20  1  0  0  0
 18 14  2  0  0  0
 16 15  1  0  0  0
 20 12  1  0  0  0
 14 15  1  0  0  0
 14 13  1  0  0  0
 12 13  2  0  0  0
 12  6  1  0  0  0
  9  6  1  0  0  0
  9  5  1  0  0  0
  6 10  2  0  0  0
  4  5  2  0  0  0
  4  3  1  0  0  0
  5  7  1  0  0  0
 10  7  1  0  0  0
  3  8  1  0  0  0
  3  2  2  0  0  0
  7  1  2  0  0  0
  2  1  1  0  0  0
  1 22  1  0  0  0
 23 22  1  0  0  0
 22 24  2  0  0  0
 23 25  1  0  0  0
 23 26  1  0  0  0
  9 11  1  0  0  0
 19 21  1  0  0  0
M  END
> <minimizedAffinity>
-8.70758

$$$$
5XSR_8EC_A_401


 26 29  0  0  0  0  0  0  0  0999 V2000
   24.5070  -13.8440  -22.0721 C   0  0  0  0  0  0  0  0  0  0  0  0
   23.7528  -13.8968  -23.2156 C   0  0  0  0  0  0  0  0  0  0  0  0
   24.2759  -13.3870  -24.3944 C   0  0  0  0  0  0  0  0  0  0  0  0
   25.5797  -12.7968  -24.4285 C   0  0  0  0  0  0  0  0  0  0  0  0
   26.3538  -12.7783  -23.2545 C   0  0  0  0  0  0  0  0  0  0  0  0
   27.8145  -12.5033  -21.6569 C   0  0  0  0  0  0  0  0  0  0  0  0
   25.7882  -13.3137  -22.0889 C   0  0  0  0  0  0  0  0  0  0  0  0
   23.4341  -13.4860  -25.4865 F   0  0  0  0  0  0  0  0  0  0  0  0
   27.4851  -12.3699  -22.8429 N   0  0  0  0  0  0  0  0  0  0  0  0
   26.7765  -13.1191  -21.0513 N   0  0  0  0  0  0  0  0  0  0  0  0
   28.1070  -11.9421  -23.4750 H   0  0  0  0  0  0  0  0  0  0  0  0
   29.1419  -12.1270  -20.9469 C   0  0  0  0  0  0  0  0  0  0  0  0
   30.0323  -11.3992  -21.4473 C   0  0  0  0  0  0  0  0  0  0  0  0
   31.1697  -11.1667  -20.5612 C   0  0  0  0  0  0  0  0  0  0  0  0
   32.4552  -10.4534  -20.5935 C   0  0  0  0  0  0  0  0  0  0  0  0
   33.4973  -10.7688  -19.3186 C   0  0  0  0  0  0  0  0  0  0  0  0
   31.7300  -11.9439  -18.1928 C   0  0  0  0  0  0  0  0  0  0  0  0
   30.9658  -11.8574  -19.3013 C   0  0  0  0  0  0  0  0  0  0  0  0
   32.7896  -11.0430  -17.9736 N   0  0  0  0  0  0  0  0  0  0  0  0
   29.2709  -12.7431  -19.4325 S   0  0  0  0  0  0  0  0  0  0  0  0
   33.4532  -11.4486  -17.3136 H   0  0  0  0  0  0  0  0  0  0  0  0
   23.9508  -14.4674  -20.7630 C   0  0  0  0  0  0  0  0  0  0  0  0
   24.8870  -14.9503  -19.8033 N   0  0  0  0  0  0  0  0  0  0  0  0
   22.7606  -14.5750  -20.6054 O   0  0  0  0  0  0  0  0  0  0  0  0
   25.8530  -14.8465  -19.9626 H   0  0  0  0  0  0  0  0  0  0  0  0
   24.5679  -15.3875  -18.9810 H   0  0  0  0  0  0  0  0  0  0  0  0
 19 17  1  0  0  0
 19 16  1  0  0  0
 17 18  1  0  0  0
 18 20  1  0  0  0
 18 14  2  0  0  0
 16 15  1  0  0  0
 20 12  1  0  0  0
 14 15  1  0  0  0
 14 13  1  0  0  0
 12 13  2  0  0  0
 12  6  1  0  0  0
  9  6  1  0  0  0
  9  5  1  0  0  0
  6 10  2  0  0  0
  4  5  2  0  0  0
  4  3  1  0  0  0
  5  7  1  0  0  0
 10  7  1  0  0  0
  3  8  1  0  0  0
  3  2  2  0  0  0
  7  1  2  0  0  0
  2  1  1  0  0  0
  1 22  1  0  0  0
 23 22  1  0  0  0
 22 24  2  0  0  0
 23 25  1  0  0  0
 23 26  1  0  0  0
  9 11  1  0  0  0
 19 21  1  0  0  0
M  END
> <minimizedAffinity>
-8.67777

$$$$
5XSR_8EC_A_401


 26 29  0  0  0  0  0  0  0  0999 V2000
   28.4978  -12.6353  -23.6209 C   0  0  0  0  0  0  0  0  0  0  0  0
   27.2523  -12.8177  -24.1637 C   0  0  0  0  0  0  0  0  0  0  0  0
   26.1360  -12.4232  -23.4417 C   0  0  0  0  0  0  0  0  0  0  0  0
   26.2667  -11.8448  -22.1386 C   0  0  0  0  0  0  0  0  0  0  0  0
   27.5522  -11.6352  -21.6084 C   0  0  0  0  0  0  0  0  0  0  0  0
   29.3401  -11.2135  -20.4305 C   0  0  0  0  0  0  0  0  0  0  0  0
   28.6518  -12.0405  -22.3778 C   0  0  0  0  0  0  0  0  0  0  0  0
   24.9301  -12.6545  -24.0766 F   0  0  0  0  0  0  0  0  0  0  0  0
   28.1082  -11.1947  -20.5535 N   0  0  0  0  0  0  0  0  0  0  0  0
   29.8183  -11.7481  -21.5746 N   0  0  0  0  0  0  0  0  0  0  0  0
   27.5524  -10.8342  -19.8252 H   0  0  0  0  0  0  0  0  0  0  0  0
   30.2297  -10.6970  -19.2689 C   0  0  0  0  0  0  0  0  0  0  0  0
   29.9048  -10.7297  -18.0580 C   0  0  0  0  0  0  0  0  0  0  0  0
   30.9335  -10.2150  -17.1581 C   0  0  0  0  0  0  0  0  0  0  0  0
   31.1155   -9.9931  -15.7159 C   0  0  0  0  0  0  0  0  0  0  0  0
   32.4670   -9.1020  -15.2793 C   0  0  0  0  0  0  0  0  0  0  0  0
   33.2682   -9.2499  -17.5393 C   0  0  0  0  0  0  0  0  0  0  0  0
   32.0920   -9.7893  -17.9214 C   0  0  0  0  0  0  0  0  0  0  0  0
   33.6904   -9.3138  -16.1977 N   0  0  0  0  0  0  0  0  0  0  0  0
   31.6851  -10.1258  -19.7641 S   0  0  0  0  0  0  0  0  0  0  0  0
   34.3817   -8.5849  -16.0210 H   0  0  0  0  0  0  0  0  0  0  0  0
   29.7538  -13.0195  -24.4495 C   0  0  0  0  0  0  0  0  0  0  0  0
   30.8125  -13.6995  -23.7805 N   0  0  0  0  0  0  0  0  0  0  0  0
   29.8316  -12.6993  -25.6089 O   0  0  0  0  0  0  0  0  0  0  0  0
   30.7170  -13.9470  -22.8324 H   0  0  0  0  0  0  0  0  0  0  0  0
   31.6394  -13.9218  -24.2664 H   0  0  0  0  0  0  0  0  0  0  0  0
 19 17  1  0  0  0
 19 16  1  0  0  0
 17 18  1  0  0  0
 18 20  1  0  0  0
 18 14  2  0  0  0
 16 15  1  0  0  0
 20 12  1  0  0  0
 14 15  1  0  0  0
 14 13  1  0  0  0
 12 13  2  0  0  0
 12  6  1  0  0  0
  9  6  1  0  0  0
  9  5  1  0  0  0
  6 10  2  0  0  0
  4  5  2  0  0  0
  4  3  1  0  0  0
  5  7  1  0  0  0
 10  7  1  0  0  0
  3  8  1  0  0  0
  3  2  2  0  0  0
  7  1  2  0  0  0
  2  1  1  0  0  0
  1 22  1  0  0  0
 23 22  1  0  0  0
 22 24  2  0  0  0
 23 25  1  0  0  0
 23 26  1  0  0  0
  9 11  1  0  0  0
 19 21  1  0  0  0
M  END
> <minimizedAffinity>
-8.44068

$$$$
5XSR_8EC_A_401


 26 29  0  0  0  0  0  0  0  0999 V2000
   31.3800  -15.8153  -22.5895 C   0  0  0  0  0  0  0  0  0  0  0  0
   30.5516  -16.1780  -23.6197 C   0  0  0  0  0  0  0  0  0  0  0  0
   29.4164  -15.4225  -23.8721 C   0  0  0  0  0  0  0  0  0  0  0  0
   29.0934  -14.2843  -23.0660 C   0  0  0  0  0  0  0  0  0  0  0  0
   29.9694  -13.9061  -22.0329 C   0  0  0  0  0  0  0  0  0  0  0  0
   31.0214  -13.0502  -20.3235 C   0  0  0  0  0  0  0  0  0  0  0  0
   31.1097  -14.6935  -21.8205 C   0  0  0  0  0  0  0  0  0  0  0  0
   28.6485  -15.8750  -24.9287 F   0  0  0  0  0  0  0  0  0  0  0  0
   30.0701  -13.0317  -21.1157 N   0  0  0  0  0  0  0  0  0  0  0  0
   31.7852  -14.1029  -20.6864 N   0  0  0  0  0  0  0  0  0  0  0  0
   29.3832  -12.3312  -21.0343 H   0  0  0  0  0  0  0  0  0  0  0  0
   31.3709  -12.0741  -19.1691 C   0  0  0  0  0  0  0  0  0  0  0  0
   32.3505  -11.2908  -19.1745 C   0  0  0  0  0  0  0  0  0  0  0  0
   32.4391  -10.4503  -17.9835 C   0  0  0  0  0  0  0  0  0  0  0  0
   33.3267   -9.4117  -17.4397 C   0  0  0  0  0  0  0  0  0  0  0  0
   33.0477   -8.9744  -15.8454 C   0  0  0  0  0  0  0  0  0  0  0  0
   31.0098  -10.2464  -15.8757 C   0  0  0  0  0  0  0  0  0  0  0  0
   31.3417  -10.7501  -17.0826 C   0  0  0  0  0  0  0  0  0  0  0  0
   31.5638   -9.0343  -15.4215 N   0  0  0  0  0  0  0  0  0  0  0  0
   30.3033  -12.1234  -17.9252 S   0  0  0  0  0  0  0  0  0  0  0  0
   31.4956   -8.9860  -14.4049 H   0  0  0  0  0  0  0  0  0  0  0  0
   32.6838  -16.6215  -22.3402 C   0  0  0  0  0  0  0  0  0  0  0  0
   33.8461  -15.9028  -21.9365 N   0  0  0  0  0  0  0  0  0  0  0  0
   32.7032  -17.8107  -22.5359 O   0  0  0  0  0  0  0  0  0  0  0  0
   33.7962  -14.9313  -21.7849 H   0  0  0  0  0  0  0  0  0  0  0  0
   34.6990  -16.3777  -21.8091 H   0  0  0  0  0  0  0  0  0  0  0  0
 19 17  1  0  0  0
 19 16  1  0  0  0
 17 18  1  0  0  0
 18 20  1  0  0  0
 18 14  2  0  0  0
 16 15  1  0  0  0
 20 12  1  0  0  0
 14 15  1  0  0  0
 14 13  1  0  0  0
 12 13  2  0  0  0
 12  6  1  0  0  0
  9  6  1  0  0  0
  9  5  1  0  0  0
  6 10  2  0  0  0
  4  5  2  0  0  0
  4  3  1  0  0  0
  5  7  1  0  0  0
 10  7  1  0  0  0
  3  8  1  0  0  0
  3  2  2  0  0  0
  7  1  2  0  0  0
  2  1  1  0  0  0
  1 22  1  0  0  0
 23 22  1  0  0  0
 22 24  2  0  0  0
 23 25  1  0  0  0
 23 26  1  0  0  0
  9 11  1  0  0  0
 19 21  1  0  0  0
M  END
> <minimizedAffinity>
-8.34345

$$$$
