1IE9_VDX_A_500
  RCSB PDB12061702503D
Coordinates from PDB:1IE9:A:500 Model:1 without hydrogens
 30 32  0  0  0  0            999 V2000
   16.9800   17.5100   34.6530   O 0  0  0  0  0  0  0  0  0  0  0  0
    4.6030   26.3090   34.8340   O 0  0  0  0  0  0  0  0  0  0  0  0
   14.1900   17.4070   35.5340   C 0  0  0  0  0  0  0  0  0  0  0  0
   14.8850   16.3260   34.6780   C 0  0  0  0  0  0  0  0  0  0  0  0
   15.9770   17.0020   33.7970   C 0  0  0  0  0  0  0  0  0  0  0  0
   15.3640   18.1640   33.0050   C 0  0  0  0  0  0  0  0  0  0  0  0
   14.5540   19.1610   33.7870   C 0  0  0  0  0  0  0  0  0  0  0  0
   14.7020   20.4720   33.4950   C 0  0  0  0  0  0  0  0  0  0  0  0
   14.0990   21.6380   34.1650   C 0  0  0  0  0  0  0  0  0  0  0  0
   13.8420   22.8600   33.6810   C 0  0  0  0  0  0  0  0  0  0  0  0
   14.1920   23.3060   32.2700   C 0  0  0  0  0  0  0  0  0  0  0  0
   13.6120   18.5750   34.7620   C 0  0  0  0  0  0  0  0  0  0  0  0
   12.8740   23.6780   31.5580   C 0  0  0  0  0  0  0  0  0  0  0  0
   12.0280   24.6670   32.4050   C 0  0  0  0  0  0  0  0  0  0  0  0
   11.7400   24.1920   33.8560   C 0  0  0  0  0  0  0  0  0  0  0  0
   13.1630   23.9190   34.4800   C 0  0  0  0  0  0  0  0  0  0  0  0
   12.9450   23.7500   35.9730   C 0  0  0  0  0  0  0  0  0  0  0  0
   11.7720   24.7360   36.1940   C 0  0  0  0  0  0  0  0  0  0  0  0
   11.2500   25.2820   34.8340   C 0  0  0  0  0  0  0  0  0  0  0  0
   10.8410   22.9170   33.8900   C 0  0  0  0  0  0  0  0  0  0  0  0
   12.2960   18.9620   34.8400   C 0  0  0  0  0  0  0  0  0  0  0  0
    9.7230   25.5380   34.9110   C 0  0  0  0  0  0  0  0  0  0  0  0
    9.4280   26.5180   36.1020   C 0  0  0  0  0  0  0  0  0  0  0  0
    9.0600   25.8970   33.6160   C 0  0  0  0  0  0  0  0  0  0  0  0
    7.4920   26.0950   33.8050   C 0  0  0  0  0  0  0  0  0  0  0  0
    6.5730   24.9620   34.2050   C 0  0  0  0  0  0  0  0  0  0  0  0
    5.0440   25.2150   34.0620   C 0  0  0  0  0  0  0  0  0  0  0  0
    4.6470   25.4180   32.6280   C 0  0  0  0  0  0  0  0  0  0  0  0
    4.2480   24.0530   34.6660   C 0  0  0  0  0  0  0  0  0  0  0  0
   13.2270   16.8630   36.4060   O 0  0  0  0  0  0  0  0  0  0  0  0
  1  5  1  0  0  0  0
  2 27  1  0  0  0  0
  3  4  1  0  0  0  0
  3 12  1  0  0  0  0
  3 30  1  0  0  0  0
  4  5  1  0  0  0  0
  5  6  1  0  0  0  0
  6  7  1  0  0  0  0
  7  8  2  0  0  0  0
  7 12  1  0  0  0  0
  8  9  1  0  0  0  0
  9 10  2  0  0  0  0
 10 11  1  0  0  0  0
 10 16  1  0  0  0  0
 11 13  1  0  0  0  0
 12 21  2  0  0  0  0
 13 14  1  0  0  0  0
 14 15  1  0  0  0  0
 15 16  1  0  0  0  0
 15 19  1  0  0  0  0
 15 20  1  0  0  0  0
 16 17  1  0  0  0  0
 17 18  1  0  0  0  0
 18 19  1  0  0  0  0
 19 22  1  0  0  0  0
 22 23  1  0  0  0  0
 22 24  1  0  0  0  0
 24 25  1  0  0  0  0
 25 26  1  0  0  0  0
 26 27  1  0  0  0  0
 27 28  1  0  0  0  0
 27 29  1  0  0  0  0
A    1
O2
A    2
O3
A    3
C1
A    4
C2
A    5
C3
A    6
C4
A    7
C5
A    8
C6
A    9
C7
A   10
C8
A   11
C9
A   12
C10
A   13
C11
A   14
C12
A   15
C13
A   16
C14
A   17
C15
A   18
C16
A   19
C17
A   20
C18
A   21
C19
A   22
C20
A   23
C21
A   24
C22
A   25
C23
A   26
C24
A   27
C25
A   28
C26
A   29
C27
A   30
O1
M  END
>  <InstanceId>
1IE9_VDX_A_500

>  <ChemCompId>
VDX

>  <PdbId>
1IE9

>  <ChainId>
A

>  <ResidueNumber>
500

>  <InsertionCode>


>  <Model>
1

>  <AltIds>


>  <MissingHeavyAtoms>
0

>  <ObservedFormula>
C27 O3

>  <Name>
5-{2-[1-(5-HYDROXY-1,5-DIMETHYL-HEXYL)-7A-METHYL-OCTAHYDRO-INDEN-4-YLIDENE]-ETHYLIDENE}-4-METHYLENE-CYCLOHEXANE-1,3-DIOL

>  <SystematicName>
(1R,3S,5Z)-5-[(2E)-2-[(1R,3aS,7aR)-1-[(2R)-6-hydroxy-6-methyl-heptan-2-yl]-7a-methyl-2,3,3a,5,6,7-hexahydro-1H-inden-4-ylidene]ethylidene]-4-methylidene-cyclohexane-1,3-diol

>  <Synonyms>
1,25 DIHYDROXY VITAMIN D3

>  <Type>
NON-POLYMER

>  <Formula>
C27 H44 O3

>  <MolecularWeight>
416.636

>  <ModifiedDate>
2011-06-04

>  <Parent>


>  <OneLetterCode>


>  <SubcomponentList>


>  <AmbiguousFlag>
N

>  <InChI>
InChI=1S/C27H44O3/c1-18(8-6-14-26(3,4)30)23-12-13-24-20(9-7-15-27(23,24)5)10-11-21-16-22(28)17-25(29)19(21)2/h10-11,18,22-25,28-30H,2,6-9,12-17H2,1,3-5H3/b20-10+,21-11-/t18-,22-,23-,24+,25+,27-/m1/s1

>  <InChIKey>
GMRQFYUYWCNGIN-NKMMMXOESA-N

>  <SMILES>
C[C@H](CCCC(C)(C)O)[C@H]1CC[C@@H]\2[C@@]1(CCC/C2=C\C=C/3\C[C@H](C[C@@H](C3=C)O)O)C

$$$$
