4BCK_T3E_A_1298
  RCSB PDB12061711493D
Coordinates from PDB:4BCK:A:1298 Model:1 without hydrogens
 27 29  0  0  0  0            999 V2000
    3.5300   18.8590   21.3710   C 0  0  0  0  0  0  0  0  0  0  0  0
    3.7440   20.1870   21.9020   N 0  0  0  0  0  0  0  0  0  0  0  0
    5.0090   20.5260   22.5060   C 0  0  0  0  0  0  0  0  0  0  0  0
    6.0760   19.6490   22.7100   N 0  0  0  0  0  0  0  0  0  0  0  0
    7.2260   20.3260   23.3580   C 0  0  0  0  0  0  0  0  0  0  0  0
    8.4940   19.6310   23.6920   C 0  0  0  0  0  0  0  0  0  0  0  0
    6.9200   21.7070   23.5890   C 0  0  0  0  0  0  0  0  0  0  0  0
    7.7740   22.7830   24.2370   C 0  0  0  0  0  0  0  0  0  0  0  0
    7.1820   23.5280   25.2100   N 0  0  0  0  0  0  0  0  0  0  0  0
    7.8510   24.5430   25.8450   C 0  0  0  0  0  0  0  0  0  0  0  0
    7.1760   25.3050   26.8850   N 0  0  0  0  0  0  0  0  0  0  0  0
    5.9730   26.0640   26.5690   C 0  0  0  0  0  0  0  0  0  0  0  0
    4.9750   25.5080   25.7630   C 0  0  0  0  0  0  0  0  0  0  0  0
    3.8120   26.2380   25.4680   C 0  0  0  0  0  0  0  0  0  0  0  0
    2.5510   25.5310   24.4340   S 0  0  0  0  0  0  0  0  0  0  0  0
    2.6310   24.0890   24.4590   O 0  0  0  0  0  0  0  0  0  0  0  0
    2.8390   26.0810   22.9140   N 0  0  0  0  0  0  0  0  0  0  0  0
    1.2500   25.9460   24.8840   O 0  0  0  0  0  0  0  0  0  0  0  0
    3.6440   27.5110   25.9880   C 0  0  0  0  0  0  0  0  0  0  0  0
    4.6320   28.0650   26.8020   C 0  0  0  0  0  0  0  0  0  0  0  0
    5.7950   27.3390   27.0910   C 0  0  0  0  0  0  0  0  0  0  0  0
    9.1470   24.8010   25.5150   N 0  0  0  0  0  0  0  0  0  0  0  0
    9.7550   24.0660   24.5480   C 0  0  0  0  0  0  0  0  0  0  0  0
    9.0800   23.0580   23.8960   C 0  0  0  0  0  0  0  0  0  0  0  0
    9.8070   22.2870   22.8370   C 0  0  0  0  0  0  0  0  0  0  0  0
   10.3780   21.7080   22.0310   N 0  0  0  0  0  0  0  0  0  0  0  0
    5.4280   21.9970   23.0680   S 0  0  0  0  0  0  0  0  0  0  0  0
  1  2  1  0  0  0  0
  2  3  1  0  0  0  0
  3  4  2  0  0  0  0
  3 27  1  0  0  0  0
  4  5  1  0  0  0  0
  5  6  1  0  0  0  0
  5  7  2  0  0  0  0
  7  8  1  0  0  0  0
  7 27  1  0  0  0  0
  8  9  1  0  0  0  0
  8 24  2  0  0  0  0
  9 10  2  0  0  0  0
 10 11  1  0  0  0  0
 10 22  1  0  0  0  0
 11 12  1  0  0  0  0
 12 13  1  0  0  0  0
 12 21  2  0  0  0  0
 13 14  2  0  0  0  0
 14 15  1  0  0  0  0
 14 19  1  0  0  0  0
 15 16  2  0  0  0  0
 15 17  1  0  0  0  0
 15 18  2  0  0  0  0
 19 20  2  0  0  0  0
 20 21  1  0  0  0  0
 22 23  2  0  0  0  0
 23 24  1  0  0  0  0
 24 25  1  0  0  0  0
 25 26  3  0  0  0  0
A    1
C7A
A    2
N6A
A    3
C3A
A    4
N2A
A    5
C1A
A    6
C8A
A    7
C5A
A    8
C4
A    9
N3
A   10
C2
A   11
N7
A   12
C1B
A   13
C2B
A   14
C3B
A   15
S7B
A   16
O8B
A   17
N9B
A   18
O1B
A   19
C4B
A   20
C5B
A   21
C6B
A   22
N1
A   23
C6
A   24
C5
A   25
C8
A   26
N9
A   27
S4A
M  END
>  <InstanceId>
4BCK_T3E_A_1298

>  <ChemCompId>
T3E

>  <PdbId>
4BCK

>  <ChainId>
A

>  <ResidueNumber>
1298

>  <InsertionCode>


>  <Model>
1

>  <AltIds>


>  <MissingHeavyAtoms>
0

>  <ObservedFormula>
C16 N7 O2 S2

>  <Name>
3-[[5-cyano-4-[4-methyl-2-(methylamino)-1,3-thiazol-5-yl]pyrimidin-2-yl]amino]benzenesulfonamide

>  <SystematicName>
3-[[5-cyano-4-[4-methyl-2-(methylamino)-1,3-thiazol-5-yl]pyrimidin-2-yl]amino]benzenesulfonamide

>  <Synonyms>


>  <Type>
non-polymer

>  <Formula>
C16 H15 N7 O2 S2

>  <MolecularWeight>
401.466

>  <ModifiedDate>
2014-09-05

>  <Parent>


>  <OneLetterCode>


>  <SubcomponentList>


>  <AmbiguousFlag>
N

>  <InChI>
InChI=1S/C16H15N7O2S2/c1-9-14(26-16(19-2)21-9)13-10(7-17)8-20-15(23-13)22-11-4-3-5-12(6-11)27(18,24)25/h3-6,8H,1-2H3,(H,19,21)(H2,18,24,25)(H,20,22,23)

>  <InChIKey>
SGOFFNQMBSXTRU-UHFFFAOYSA-N

>  <SMILES>
Cc1c(sc(n1)NC)c2c(cnc(n2)Nc3cccc(c3)S(=O)(=O)N)C#N

$$$$
