5AVF_TAU_A_501


 10  9  0  0  0  0  0  0  0  0999 V2000
   24.1641  143.0245  145.6160 C   0  0  0  0  0  0  0  0  0  0  0  0
   25.1771  143.5625  144.3639 S   0  0  0  0  0  0  0  0  0  0  0  0
   26.4770  143.9166  144.9578 O   0  0  0  0  0  0  0  0  0  0  0  0
   25.3893  142.4464  143.4177 O   0  0  0  0  0  0  0  0  0  0  0  0
   24.5303  144.6906  143.6899 O   0  0  0  0  0  0  0  0  0  0  0  0
   25.8178  141.7085  143.8790 H   0  0  0  0  0  0  0  0  0  0  0  0
   24.4809  141.5940  146.1081 C   0  0  0  0  0  0  0  0  0  0  0  0
   24.0543  140.6032  145.1194 N   0  0  0  0  0  0  0  0  0  0  0  0
   23.0476  140.6795  144.9741 H   0  0  0  0  0  0  0  0  0  0  0  0
   24.2791  139.6673  145.4572 H   0  0  0  0  0  0  0  0  0  0  0  0
  7  1  1  0  0  0
  7  8  1  0  0  0
  1  2  1  0  0  0
  2  3  2  0  0  0
  2  4  1  0  0  0
  2  5  2  0  0  0
  8  9  1  0  0  0
  8 10  1  0  0  0
  4  6  1  0  0  0
M  END
> <minimizedAffinity>
-5.81006

$$$$
5AVF_TAU_A_501


 10  9  0  0  0  0  0  0  0  0999 V2000
   24.1439  143.0156  145.6106 C   0  0  0  0  0  0  0  0  0  0  0  0
   25.1552  143.4980  144.3347 S   0  0  0  0  0  0  0  0  0  0  0  0
   24.5361  144.6664  143.6872 O   0  0  0  0  0  0  0  0  0  0  0  0
   26.4565  143.9166  144.8980 O   0  0  0  0  0  0  0  0  0  0  0  0
   25.3313  142.3655  143.4226 O   0  0  0  0  0  0  0  0  0  0  0  0
   26.3226  144.6662  145.4988 H   0  0  0  0  0  0  0  0  0  0  0  0
   24.4341  141.5917  146.1369 C   0  0  0  0  0  0  0  0  0  0  0  0
   24.0279  140.5867  145.1540 N   0  0  0  0  0  0  0  0  0  0  0  0
   23.0265  140.6684  144.9781 H   0  0  0  0  0  0  0  0  0  0  0  0
   24.2349  139.6553  145.5146 H   0  0  0  0  0  0  0  0  0  0  0  0
  7  1  1  0  0  0
  7  8  1  0  0  0
  1  2  1  0  0  0
  2  3  2  0  0  0
  2  4  1  0  0  0
  2  5  2  0  0  0
  8  9  1  0  0  0
  8 10  1  0  0  0
  4  6  1  0  0  0
M  END
> <minimizedAffinity>
-5.80369

$$$$
5AVF_TAU_A_501


 10  9  0  0  0  0  0  0  0  0999 V2000
   24.1797  143.0180  145.6494 C   0  0  0  0  0  0  0  0  0  0  0  0
   25.1848  143.5125  144.3731 S   0  0  0  0  0  0  0  0  0  0  0  0
   25.2944  142.3903  143.4264 O   0  0  0  0  0  0  0  0  0  0  0  0
   24.5379  144.6445  143.6761 O   0  0  0  0  0  0  0  0  0  0  0  0
   26.4776  143.9219  144.9266 O   0  0  0  0  0  0  0  0  0  0  0  0
   23.6843  144.3572  143.3160 H   0  0  0  0  0  0  0  0  0  0  0  0
   24.4572  141.5809  146.1456 C   0  0  0  0  0  0  0  0  0  0  0  0
   24.0097  140.5994  145.1568 N   0  0  0  0  0  0  0  0  0  0  0  0
   23.0060  140.7013  145.0067 H   0  0  0  0  0  0  0  0  0  0  0  0
   24.2088  139.6587  145.4973 H   0  0  0  0  0  0  0  0  0  0  0  0
  7  1  1  0  0  0
  7  8  1  0  0  0
  1  2  1  0  0  0
  2  3  2  0  0  0
  2  4  1  0  0  0
  2  5  2  0  0  0
  8  9  1  0  0  0
  8 10  1  0  0  0
  4  6  1  0  0  0
M  END
> <minimizedAffinity>
-5.77778

$$$$
5AVF_TAU_A_501


 10  9  0  0  0  0  0  0  0  0999 V2000
   25.2349  142.3211  144.3238 C   0  0  0  0  0  0  0  0  0  0  0  0
   24.2772  141.5477  145.4934 S   0  0  0  0  0  0  0  0  0  0  0  0
   23.0594  142.3534  145.6819 O   0  0  0  0  0  0  0  0  0  0  0  0
   23.8791  140.2219  144.9740 O   0  0  0  0  0  0  0  0  0  0  0  0
   25.0627  141.4030  146.7211 O   0  0  0  0  0  0  0  0  0  0  0  0
   23.3605  140.3351  144.1621 H   0  0  0  0  0  0  0  0  0  0  0  0
   25.4127  143.8378  144.5618 C   0  0  0  0  0  0  0  0  0  0  0  0
   24.4449  144.5999  143.7719 N   0  0  0  0  0  0  0  0  0  0  0  0
   24.5899  144.4092  142.7805 H   0  0  0  0  0  0  0  0  0  0  0  0
   24.5715  145.5965  143.9485 H   0  0  0  0  0  0  0  0  0  0  0  0
  7  1  1  0  0  0
  7  8  1  0  0  0
  1  2  1  0  0  0
  2  3  2  0  0  0
  2  4  1  0  0  0
  2  5  2  0  0  0
  8  9  1  0  0  0
  8 10  1  0  0  0
  4  6  1  0  0  0
M  END
> <minimizedAffinity>
-5.34790

$$$$
5AVF_TAU_A_501


 10  9  0  0  0  0  0  0  0  0999 V2000
   25.6612  143.0299  145.4393 C   0  0  0  0  0  0  0  0  0  0  0  0
   24.6770  143.2652  144.0757 S   0  0  0  0  0  0  0  0  0  0  0  0
   24.7808  144.6810  143.6852 O   0  0  0  0  0  0  0  0  0  0  0  0
   25.2028  142.4397  142.9676 O   0  0  0  0  0  0  0  0  0  0  0  0
   23.3088  142.8634  144.4104 O   0  0  0  0  0  0  0  0  0  0  0  0
   26.1082  142.7181  142.7585 H   0  0  0  0  0  0  0  0  0  0  0  0
   25.0973  142.0060  146.4505 C   0  0  0  0  0  0  0  0  0  0  0  0
   24.5436  140.8449  145.7531 N   0  0  0  0  0  0  0  0  0  0  0  0
   23.7853  141.1457  145.1409 H   0  0  0  0  0  0  0  0  0  0  0  0
   24.1849  140.1774  146.4359 H   0  0  0  0  0  0  0  0  0  0  0  0
  7  1  1  0  0  0
  7  8  1  0  0  0
  1  2  1  0  0  0
  2  3  2  0  0  0
  2  4  1  0  0  0
  2  5  2  0  0  0
  8  9  1  0  0  0
  8 10  1  0  0  0
  4  6  1  0  0  0
M  END
> <minimizedAffinity>
-5.33216

$$$$
5AVF_TAU_A_501


 10  9  0  0  0  0  0  0  0  0999 V2000
   25.1080  143.4968  145.6618 C   0  0  0  0  0  0  0  0  0  0  0  0
   24.2769  142.0224  145.5245 S   0  0  0  0  0  0  0  0  0  0  0  0
   24.5823  141.4558  144.2003 O   0  0  0  0  0  0  0  0  0  0  0  0
   24.7909  141.0947  146.5545 O   0  0  0  0  0  0  0  0  0  0  0  0
   22.8473  142.2701  145.7245 O   0  0  0  0  0  0  0  0  0  0  0  0
   25.7375  140.9414  146.4082 H   0  0  0  0  0  0  0  0  0  0  0  0
   26.4689  143.5202  144.9296 C   0  0  0  0  0  0  0  0  0  0  0  0
   27.2834  142.3689  145.3199 N   0  0  0  0  0  0  0  0  0  0  0  0
   27.4564  142.3997  146.3246 H   0  0  0  0  0  0  0  0  0  0  0  0
   28.1725  142.3966  144.8208 H   0  0  0  0  0  0  0  0  0  0  0  0
  7  1  1  0  0  0
  7  8  1  0  0  0
  1  2  1  0  0  0
  2  3  2  0  0  0
  2  4  1  0  0  0
  2  5  2  0  0  0
  8  9  1  0  0  0
  8 10  1  0  0  0
  4  6  1  0  0  0
M  END
> <minimizedAffinity>
-5.21903

$$$$
5AVF_TAU_A_501


 10  9  0  0  0  0  0  0  0  0999 V2000
   25.5694  142.9121  145.0858 C   0  0  0  0  0  0  0  0  0  0  0  0
   24.4289  141.7436  145.5519 S   0  0  0  0  0  0  0  0  0  0  0  0
   24.8880  141.1469  146.8172 O   0  0  0  0  0  0  0  0  0  0  0  0
   23.1376  142.4192  145.8006 O   0  0  0  0  0  0  0  0  0  0  0  0
   24.2953  140.7626  144.4725 O   0  0  0  0  0  0  0  0  0  0  0  0
   23.2430  143.0646  146.5171 H   0  0  0  0  0  0  0  0  0  0  0  0
   24.9768  144.0671  144.2470 C   0  0  0  0  0  0  0  0  0  0  0  0
   23.9919  143.5575  143.2923 N   0  0  0  0  0  0  0  0  0  0  0  0
   24.4423  142.8965  142.6594 H   0  0  0  0  0  0  0  0  0  0  0  0
   23.6061  144.3339  142.7548 H   0  0  0  0  0  0  0  0  0  0  0  0
  7  1  1  0  0  0
  7  8  1  0  0  0
  1  2  1  0  0  0
  2  3  2  0  0  0
  2  4  1  0  0  0
  2  5  2  0  0  0
  8  9  1  0  0  0
  8 10  1  0  0  0
  4  6  1  0  0  0
M  END
> <minimizedAffinity>
-5.11851

$$$$
5AVF_TAU_A_501


 10  9  0  0  0  0  0  0  0  0999 V2000
   24.2996  142.0720  144.5802 C   0  0  0  0  0  0  0  0  0  0  0  0
   25.4121  142.4075  145.8184 S   0  0  0  0  0  0  0  0  0  0  0  0
   25.4267  141.2548  146.7342 O   0  0  0  0  0  0  0  0  0  0  0  0
   26.7573  142.5397  145.2194 O   0  0  0  0  0  0  0  0  0  0  0  0
   25.0185  143.6555  146.4764 O   0  0  0  0  0  0  0  0  0  0  0  0
   27.0026  141.7061  144.7884 H   0  0  0  0  0  0  0  0  0  0  0  0
   24.4902  142.9379  143.3143 C   0  0  0  0  0  0  0  0  0  0  0  0
   24.7116  144.3382  143.6768 N   0  0  0  0  0  0  0  0  0  0  0  0
   23.9023  144.6887  144.1893 H   0  0  0  0  0  0  0  0  0  0  0  0
   24.8438  144.8917  142.8303 H   0  0  0  0  0  0  0  0  0  0  0  0
  7  1  1  0  0  0
  7  8  1  0  0  0
  1  2  1  0  0  0
  2  3  2  0  0  0
  2  4  1  0  0  0
  2  5  2  0  0  0
  8  9  1  0  0  0
  8 10  1  0  0  0
  4  6  1  0  0  0
M  END
> <minimizedAffinity>
-4.03991

$$$$
5AVF_TAU_A_501


 10  9  0  0  0  0  0  0  0  0999 V2000
   25.3404  143.9077  145.4734 C   0  0  0  0  0  0  0  0  0  0  0  0
   26.0723  142.4017  145.1907 S   0  0  0  0  0  0  0  0  0  0  0  0
   25.6408  141.4845  146.2585 O   0  0  0  0  0  0  0  0  0  0  0  0
   25.5800  141.8740  143.9004 O   0  0  0  0  0  0  0  0  0  0  0  0
   27.5246  142.5872  145.1487 O   0  0  0  0  0  0  0  0  0  0  0  0
   24.6181  141.7570  143.9447 H   0  0  0  0  0  0  0  0  0  0  0  0
   23.8928  143.8112  146.0062 C   0  0  0  0  0  0  0  0  0  0  0  0
   23.2180  142.6362  145.4536 N   0  0  0  0  0  0  0  0  0  0  0  0
   23.1839  142.7105  144.4369 H   0  0  0  0  0  0  0  0  0  0  0  0
   22.2685  142.5845  145.8227 H   0  0  0  0  0  0  0  0  0  0  0  0
  7  1  1  0  0  0
  7  8  1  0  0  0
  1  2  1  0  0  0
  2  3  2  0  0  0
  2  4  1  0  0  0
  2  5  2  0  0  0
  8  9  1  0  0  0
  8 10  1  0  0  0
  4  6  1  0  0  0
M  END
> <minimizedAffinity>
-3.78900

$$$$
5AVF_TAU_A_501


 10  9  0  0  0  0  0  0  0  0999 V2000
   27.8745  137.5105  149.1624 C   0  0  0  0  0  0  0  0  0  0  0  0
   27.8451  137.9619  147.5257 S   0  0  0  0  0  0  0  0  0  0  0  0
   28.1671  139.3965  147.4491 O   0  0  0  0  0  0  0  0  0  0  0  0
   28.9004  137.2121  146.8116 O   0  0  0  0  0  0  0  0  0  0  0  0
   26.5262  137.6418  146.9750 O   0  0  0  0  0  0  0  0  0  0  0  0
   29.7663  137.4349  147.1878 H   0  0  0  0  0  0  0  0  0  0  0  0
   28.9338  138.2610  150.0010 C   0  0  0  0  0  0  0  0  0  0  0  0
   30.2447  138.1935  149.3545 N   0  0  0  0  0  0  0  0  0  0  0  0
   30.5318  137.2185  149.2689 H   0  0  0  0  0  0  0  0  0  0  0  0
   30.9278  138.7009  149.9170 H   0  0  0  0  0  0  0  0  0  0  0  0
  7  1  1  0  0  0
  7  8  1  0  0  0
  1  2  1  0  0  0
  2  3  2  0  0  0
  2  4  1  0  0  0
  2  5  2  0  0  0
  8  9  1  0  0  0
  8 10  1  0  0  0
  4  6  1  0  0  0
M  END
> <minimizedAffinity>
-3.44852

$$$$
