2AVQ_2NC_B_300


 70 69  0  0  0  0  0  0  0  0999 V2000
   14.5522   22.1579   16.1604 C   0  0  0  0  0  0  0  0  0  0  0  0
   15.9862   22.5996   16.0367 C   0  0  0  0  0  0  0  0  0  0  0  0
   16.9378   21.7968   16.0743 O   0  0  0  0  0  0  0  0  0  0  0  0
   16.1998   23.8884   15.9243 N   0  0  0  0  0  0  0  0  0  0  0  0
   15.4357   24.5072   15.8754 H   0  0  0  0  0  0  0  0  0  0  0  0
   17.5752   24.4193   15.8704 C   0  0  0  0  0  0  0  0  0  0  0  0
   17.9674   24.7972   17.2971 C   0  0  0  0  0  0  0  0  0  0  0  0
   17.1480   25.1646   18.1529 O   0  0  0  0  0  0  0  0  0  0  0  0
   19.2562   24.8568   17.4980 N   0  0  0  0  0  0  0  0  0  0  0  0
   19.8711   24.6522   16.7568 H   0  0  0  0  0  0  0  0  0  0  0  0
   19.7972   25.2184   18.7914 C   0  0  0  0  0  0  0  0  0  0  0  0
   20.9184   26.2053   18.5802 C   0  0  0  0  0  0  0  0  0  0  0  0
   20.7168   27.3087   18.1150 O   0  0  0  0  0  0  0  0  0  0  0  0
   21.7732   26.0024   18.7926 N   0  0  0  0  0  0  0  0  0  0  0  0
   21.9898   25.1205   19.1730 H   0  0  0  0  0  0  0  0  0  0  0  0
   22.4876   26.6631   18.6435 H   0  0  0  0  0  0  0  0  0  0  0  0
   20.3524   23.9771   19.4699 C   0  0  0  0  0  0  0  0  0  0  0  0
   19.7684   23.7716   20.8653 C   0  0  0  0  0  0  0  0  0  0  0  0
   19.5303   22.3054   21.1951 C   0  0  0  0  0  0  0  0  0  0  0  0
   18.1316   21.9160   21.0085 N   0  0  0  0  0  0  0  0  0  0  0  0
   17.6977   21.4269   21.7446 H   0  0  0  0  0  0  0  0  0  0  0  0
   17.3985   22.1669   19.9295 C   0  0  0  0  0  0  0  0  0  0  0  0
   17.7437   21.5800   18.7883 N   0  0  0  0  0  0  0  0  0  0  0  0
   16.3450   22.9813   19.9695 N   0  0  0  0  0  0  0  0  0  0  0  0
   18.5225   20.9784   18.7601 H   0  0  0  0  0  0  0  0  0  0  0  0
   17.2207   21.7468   17.9711 H   0  0  0  0  0  0  0  0  0  0  0  0
   16.0903   23.4154   20.8156 H   0  0  0  0  0  0  0  0  0  0  0  0
   15.8211   23.1489   19.1530 H   0  0  0  0  0  0  0  0  0  0  0  0
   17.6843   25.5474   14.8786 C   0  0  0  0  0  0  0  0  0  0  0  0
   18.9984   26.2411   14.7904 C   0  0  0  0  0  0  0  0  0  0  0  0
   20.0972   25.4429   14.0778 C   0  0  0  0  0  0  0  0  0  0  0  0
   19.8695   24.9867   12.9895 O   0  0  0  0  0  0  0  0  0  0  0  0
   21.2605   25.3180   14.6737 N   0  0  0  0  0  0  0  0  0  0  0  0
   21.4008   25.7089   15.5663 H   0  0  0  0  0  0  0  0  0  0  0  0
   21.9924   24.8335   14.2279 H   0  0  0  0  0  0  0  0  0  0  0  0
   14.1367   22.0751   17.5672 N   0  0  0  0  0  0  0  0  0  0  0  0
   13.1330   22.2566   17.5704 H   0  0  0  0  0  0  0  0  0  0  0  0
   14.3162   20.9718   18.3512 C   0  0  0  0  0  0  0  0  0  0  0  0
   13.0648   20.1275   18.6115 C   0  0  0  0  0  0  0  0  0  0  0  0
   11.1080   19.5056   17.3279 C   0  0  0  0  0  0  0  0  0  0  0  0
   10.3824   19.8876   18.2724 O   0  0  0  0  0  0  0  0  0  0  0  0
   12.4068   19.6553   17.3838 N   0  0  0  0  0  0  0  0  0  0  0  0
   12.9526   19.4483   16.5910 H   0  0  0  0  0  0  0  0  0  0  0  0
   10.5187   18.8703   16.1026 C   0  0  0  0  0  0  0  0  0  0  0  0
   10.1285   16.4867   16.3148 C   0  0  0  0  0  0  0  0  0  0  0  0
   11.1881   16.2314   15.7575 O   0  0  0  0  0  0  0  0  0  0  0  0
    9.7465   17.7239   16.5415 N   0  0  0  0  0  0  0  0  0  0  0  0
    8.9044   17.8781   17.0276 H   0  0  0  0  0  0  0  0  0  0  0  0
    9.2034   15.3579   16.8063 C   0  0  0  0  0  0  0  0  0  0  0  0
    7.2209   14.5226   15.7486 C   0  0  0  0  0  0  0  0  0  0  0  0
    6.5161   15.0900   16.6067 O   0  0  0  0  0  0  0  0  0  0  0  0
    6.6075   13.6969   14.6547 C   0  0  0  0  0  0  0  0  0  0  0  0
    8.5520   14.5841   15.7945 N   0  0  0  0  0  0  0  0  0  0  0  0
    9.0887   14.0951   15.1296 H   0  0  0  0  0  0  0  0  0  0  0  0
   10.0617   14.4364   17.6824 C   0  0  0  0  0  0  0  0  0  0  0  0
   10.6088   13.3875   16.8438 O   0  0  0  0  0  0  0  0  0  0  0  0
    9.2290   13.8212   18.8229 C   0  0  0  0  0  0  0  0  0  0  0  0
    9.8839   12.8801   16.4464 H   0  0  0  0  0  0  0  0  0  0  0  0
    9.6886   19.8650   15.2553 C   0  0  0  0  0  0  0  0  0  0  0  0
   10.2263   21.2881   15.3528 C   0  0  0  0  0  0  0  0  0  0  0  0
    9.5001   19.4356   13.8096 C   0  0  0  0  0  0  0  0  0  0  0  0
   10.6138   18.6160   13.2036 C   0  0  0  0  0  0  0  0  0  0  0  0
   13.3628   18.9365   19.4940 C   0  0  0  0  0  0  0  0  0  0  0  0
   12.8017   18.9770   20.8885 C   0  0  0  0  0  0  0  0  0  0  0  0
   11.7591   17.9668   21.1870 C   0  0  0  0  0  0  0  0  0  0  0  0
   11.4724   17.0170   20.0219 C   0  0  0  0  0  0  0  0  0  0  0  0
   13.6813   23.0823   15.3289 C   0  0  0  0  0  0  0  0  0  0  0  0
   13.0502   22.6808   14.0299 C   0  0  0  0  0  0  0  0  0  0  0  0
   13.5223   21.3250   13.5269 C   0  0  0  0  0  0  0  0  0  0  0  0
   14.5075   21.4877   12.3630 C   0  0  0  0  0  0  0  0  0  0  0  0
 50 51  2  0  0  0
 50 52  1  0  0  0
 53 49  1  0  0  0
 49 45  1  0  0  0
 49 55  1  0  0  0
 45 46  2  0  0  0
 55 56  1  0  0  0
 55 57  1  0  0  0
 47 44  1  0  0  0
 44 40  1  0  0  0
 44 59  1  0  0  0
 40 41  2  0  0  0
 59 61  1  0  0  0
 59 60  1  0  0  0
 61 62  1  0  0  0
 42 39  1  0  0  0
 39 38  1  0  0  0
 39 63  1  0  0  0
 63 64  1  0  0  0
 64 65  1  0  0  0
 65 66  1  0  0  0
 36  1  1  0  0  0
  1  2  1  0  0  0
  1 67  1  0  0  0
  2  3  2  0  0  0
 67 68  1  0  0  0
 68 69  1  0  0  0
 69 70  1  0  0  0
  4  6  1  0  0  0
  6  7  1  0  0  0
  6 29  1  0  0  0
  7  8  2  0  0  0
 29 30  1  0  0  0
 30 31  1  0  0  0
 31 32  2  0  0  0
 31 33  1  0  0  0
  9 11  1  0  0  0
 11 12  1  0  0  0
 11 17  1  0  0  0
 12 13  2  0  0  0
 17 18  1  0  0  0
 18 19  1  0  0  0
 19 20  1  0  0  0
 20 22  1  0  0  0
 22 23  1  0  0  0
 22 24  2  0  0  0
 50 53  1  0  0  0
 45 47  1  0  0  0
 40 42  1  0  0  0
 38 36  1  0  0  0
  2  4  1  0  0  0
  7  9  1  0  0  0
 12 14  1  0  0  0
 53 54  1  0  0  0
 56 58  1  0  0  0
 47 48  1  0  0  0
 42 43  1  0  0  0
 36 37  1  0  0  0
  4  5  1  0  0  0
 33 34  1  0  0  0
 33 35  1  0  0  0
  9 10  1  0  0  0
 20 21  1  0  0  0
 23 25  1  0  0  0
 23 26  1  0  0  0
 24 27  1  0  0  0
 24 28  1  0  0  0
 14 15  1  0  0  0
 14 16  1  0  0  0
M  CHG 1  24   1
M  END
> <minimizedAffinity>
-8.13914

$$$$
2AVQ_2NC_B_300


 70 69  0  0  0  0  0  0  0  0999 V2000
   17.1620   24.2943   19.3621 C   0  0  0  0  0  0  0  0  0  0  0  0
   18.1577   24.2921   18.2328 C   0  0  0  0  0  0  0  0  0  0  0  0
   18.5405   23.2425   17.6821 O   0  0  0  0  0  0  0  0  0  0  0  0
   18.6433   25.4551   17.8709 N   0  0  0  0  0  0  0  0  0  0  0  0
   18.3147   26.2767   18.3025 H   0  0  0  0  0  0  0  0  0  0  0  0
   19.6777   25.5433   16.8228 C   0  0  0  0  0  0  0  0  0  0  0  0
   20.8006   26.4204   17.3721 C   0  0  0  0  0  0  0  0  0  0  0  0
   20.6055   27.5329   17.8850 O   0  0  0  0  0  0  0  0  0  0  0  0
   22.0005   25.9753   17.1130 N   0  0  0  0  0  0  0  0  0  0  0  0
   22.1065   25.1337   16.6133 H   0  0  0  0  0  0  0  0  0  0  0  0
   23.1778   26.6974   17.5475 C   0  0  0  0  0  0  0  0  0  0  0  0
   23.9632   27.1076   16.3266 C   0  0  0  0  0  0  0  0  0  0  0  0
   23.7446   28.1539   15.7503 O   0  0  0  0  0  0  0  0  0  0  0  0
   24.6182   26.5849   15.9881 N   0  0  0  0  0  0  0  0  0  0  0  0
   24.8347   25.7263   16.4186 H   0  0  0  0  0  0  0  0  0  0  0  0
   25.1153   26.8740   15.1890 H   0  0  0  0  0  0  0  0  0  0  0  0
   24.0391   25.7863   18.4063 C   0  0  0  0  0  0  0  0  0  0  0  0
   24.4894   26.4653   19.6972 C   0  0  0  0  0  0  0  0  0  0  0  0
   23.7619   25.9390   20.9254 C   0  0  0  0  0  0  0  0  0  0  0  0
   22.3070   26.0020   20.7767 N   0  0  0  0  0  0  0  0  0  0  0  0
   21.8808   25.3140   20.2160 H   0  0  0  0  0  0  0  0  0  0  0  0
   21.5133   26.9095   21.3346 C   0  0  0  0  0  0  0  0  0  0  0  0
   21.1951   26.7590   22.6160 N   0  0  0  0  0  0  0  0  0  0  0  0
   21.0389   27.9465   20.6461 N   0  0  0  0  0  0  0  0  0  0  0  0
   21.5464   25.9922   23.1237 H   0  0  0  0  0  0  0  0  0  0  0  0
   20.6081   27.4145   23.0577 H   0  0  0  0  0  0  0  0  0  0  0  0
   21.2754   28.0568   19.6968 H   0  0  0  0  0  0  0  0  0  0  0  0
   20.4518   28.6027   21.0865 H   0  0  0  0  0  0  0  0  0  0  0  0
   19.0938   26.0272   15.5216 C   0  0  0  0  0  0  0  0  0  0  0  0
   20.0467   26.2614   14.4023 C   0  0  0  0  0  0  0  0  0  0  0  0
   20.5607   27.7022   14.2899 C   0  0  0  0  0  0  0  0  0  0  0  0
   19.9830   28.5721   14.8850 O   0  0  0  0  0  0  0  0  0  0  0  0
   21.6372   27.9238   13.5717 N   0  0  0  0  0  0  0  0  0  0  0  0
   22.0769   27.1791   13.1012 H   0  0  0  0  0  0  0  0  0  0  0  0
   22.0046   28.8346   13.5036 H   0  0  0  0  0  0  0  0  0  0  0  0
   16.0351   23.3934   19.0845 N   0  0  0  0  0  0  0  0  0  0  0  0
   15.4865   23.3635   19.9439 H   0  0  0  0  0  0  0  0  0  0  0  0
   15.1347   23.5874   18.0767 C   0  0  0  0  0  0  0  0  0  0  0  0
   14.8618   22.3735   17.1831 C   0  0  0  0  0  0  0  0  0  0  0  0
   13.6480   20.4037   17.8972 C   0  0  0  0  0  0  0  0  0  0  0  0
   14.7365   19.8225   18.1023 O   0  0  0  0  0  0  0  0  0  0  0  0
   13.6230   21.6577   17.5239 N   0  0  0  0  0  0  0  0  0  0  0  0
   12.7607   22.1297   17.4703 H   0  0  0  0  0  0  0  0  0  0  0  0
   12.3400   19.6898   18.0752 C   0  0  0  0  0  0  0  0  0  0  0  0
   11.3584   19.5568   15.8622 C   0  0  0  0  0  0  0  0  0  0  0  0
   10.9531   20.7094   15.9379 O   0  0  0  0  0  0  0  0  0  0  0  0
   12.0524   19.0023   16.8311 N   0  0  0  0  0  0  0  0  0  0  0  0
   12.3897   18.0856   16.7075 H   0  0  0  0  0  0  0  0  0  0  0  0
   11.0962   18.7094   14.6033 C   0  0  0  0  0  0  0  0  0  0  0  0
   12.4044   17.6618   12.8892 C   0  0  0  0  0  0  0  0  0  0  0  0
   11.6934   18.1926   12.0131 O   0  0  0  0  0  0  0  0  0  0  0  0
   13.5383   16.7464   12.5272 C   0  0  0  0  0  0  0  0  0  0  0  0
   12.1574   17.8450   14.1866 N   0  0  0  0  0  0  0  0  0  0  0  0
   12.7074   17.3837   14.8604 H   0  0  0  0  0  0  0  0  0  0  0  0
    9.8396   17.8767   14.8878 C   0  0  0  0  0  0  0  0  0  0  0  0
    9.1600   18.4512   16.0328 O   0  0  0  0  0  0  0  0  0  0  0  0
   10.2002   16.4062   15.1700 C   0  0  0  0  0  0  0  0  0  0  0  0
    9.7492   18.4289   16.8031 H   0  0  0  0  0  0  0  0  0  0  0  0
   12.3392   18.7421   19.2993 C   0  0  0  0  0  0  0  0  0  0  0  0
   12.8404   19.4358   20.5608 C   0  0  0  0  0  0  0  0  0  0  0  0
   11.0115   18.0414   19.5356 C   0  0  0  0  0  0  0  0  0  0  0  0
   10.9449   16.5839   19.1475 C   0  0  0  0  0  0  0  0  0  0  0  0
   14.8202   22.7500   15.7193 C   0  0  0  0  0  0  0  0  0  0  0  0
   13.4571   22.9398   15.1134 C   0  0  0  0  0  0  0  0  0  0  0  0
   13.2693   22.3509   13.7663 C   0  0  0  0  0  0  0  0  0  0  0  0
   13.9874   21.0131   13.5751 C   0  0  0  0  0  0  0  0  0  0  0  0
   17.8876   23.9700   20.6555 C   0  0  0  0  0  0  0  0  0  0  0  0
   19.3802   23.8971   20.7730 C   0  0  0  0  0  0  0  0  0  0  0  0
   19.9041   22.4741   20.8934 C   0  0  0  0  0  0  0  0  0  0  0  0
   18.8112   21.5324   21.4134 C   0  0  0  0  0  0  0  0  0  0  0  0
 50 51  2  0  0  0
 50 52  1  0  0  0
 53 49  1  0  0  0
 49 45  1  0  0  0
 49 55  1  0  0  0
 45 46  2  0  0  0
 55 56  1  0  0  0
 55 57  1  0  0  0
 47 44  1  0  0  0
 44 40  1  0  0  0
 44 59  1  0  0  0
 40 41  2  0  0  0
 59 61  1  0  0  0
 59 60  1  0  0  0
 61 62  1  0  0  0
 42 39  1  0  0  0
 39 38  1  0  0  0
 39 63  1  0  0  0
 63 64  1  0  0  0
 64 65  1  0  0  0
 65 66  1  0  0  0
 36  1  1  0  0  0
  1  2  1  0  0  0
  1 67  1  0  0  0
  2  3  2  0  0  0
 67 68  1  0  0  0
 68 69  1  0  0  0
 69 70  1  0  0  0
  4  6  1  0  0  0
  6  7  1  0  0  0
  6 29  1  0  0  0
  7  8  2  0  0  0
 29 30  1  0  0  0
 30 31  1  0  0  0
 31 32  2  0  0  0
 31 33  1  0  0  0
  9 11  1  0  0  0
 11 12  1  0  0  0
 11 17  1  0  0  0
 12 13  2  0  0  0
 17 18  1  0  0  0
 18 19  1  0  0  0
 19 20  1  0  0  0
 20 22  1  0  0  0
 22 23  1  0  0  0
 22 24  2  0  0  0
 50 53  1  0  0  0
 45 47  1  0  0  0
 40 42  1  0  0  0
 38 36  1  0  0  0
  2  4  1  0  0  0
  7  9  1  0  0  0
 12 14  1  0  0  0
 53 54  1  0  0  0
 56 58  1  0  0  0
 47 48  1  0  0  0
 42 43  1  0  0  0
 36 37  1  0  0  0
  4  5  1  0  0  0
 33 34  1  0  0  0
 33 35  1  0  0  0
  9 10  1  0  0  0
 20 21  1  0  0  0
 23 25  1  0  0  0
 23 26  1  0  0  0
 24 27  1  0  0  0
 24 28  1  0  0  0
 14 15  1  0  0  0
 14 16  1  0  0  0
M  CHG 1  24   1
M  END
> <minimizedAffinity>
-8.08502

$$$$
2AVQ_2NC_B_300


 70 69  0  0  0  0  0  0  0  0999 V2000
   14.0192   22.0690   16.5111 C   0  0  0  0  0  0  0  0  0  0  0  0
   15.4853   22.3074   16.2656 C   0  0  0  0  0  0  0  0  0  0  0  0
   16.2126   21.4692   15.6999 O   0  0  0  0  0  0  0  0  0  0  0  0
   15.9835   23.4350   16.7124 N   0  0  0  0  0  0  0  0  0  0  0  0
   15.3908   24.0953   17.1388 H   0  0  0  0  0  0  0  0  0  0  0  0
   17.4245   23.7228   16.5818 C   0  0  0  0  0  0  0  0  0  0  0  0
   18.1065   23.1825   17.8368 C   0  0  0  0  0  0  0  0  0  0  0  0
   18.0190   22.0005   18.2028 O   0  0  0  0  0  0  0  0  0  0  0  0
   18.6579   24.1020   18.5820 N   0  0  0  0  0  0  0  0  0  0  0  0
   18.6150   25.0439   18.2988 H   0  0  0  0  0  0  0  0  0  0  0  0
   19.3314   23.7610   19.8175 C   0  0  0  0  0  0  0  0  0  0  0  0
   18.2908   23.5887   20.8960 C   0  0  0  0  0  0  0  0  0  0  0  0
   17.4455   24.4347   21.1066 O   0  0  0  0  0  0  0  0  0  0  0  0
   18.2681   22.8510   21.4176 N   0  0  0  0  0  0  0  0  0  0  0  0
   18.9316   22.1354   21.2873 H   0  0  0  0  0  0  0  0  0  0  0  0
   17.5800   22.7630   22.1162 H   0  0  0  0  0  0  0  0  0  0  0  0
   20.2673   24.8923   20.2097 C   0  0  0  0  0  0  0  0  0  0  0  0
   21.7299   24.5543   19.9323 C   0  0  0  0  0  0  0  0  0  0  0  0
   22.5526   25.7725   19.5396 C   0  0  0  0  0  0  0  0  0  0  0  0
   23.2090   25.6027   18.2422 N   0  0  0  0  0  0  0  0  0  0  0  0
   23.5281   24.6999   18.0131 H   0  0  0  0  0  0  0  0  0  0  0  0
   23.4102   26.5642   17.3480 C   0  0  0  0  0  0  0  0  0  0  0  0
   24.0834   26.2602   16.2433 N   0  0  0  0  0  0  0  0  0  0  0  0
   22.9594   27.8037   17.5355 N   0  0  0  0  0  0  0  0  0  0  0  0
   24.4160   25.3438   16.1060 H   0  0  0  0  0  0  0  0  0  0  0  0
   24.2495   26.9514   15.5622 H   0  0  0  0  0  0  0  0  0  0  0  0
   22.4609   28.0276   18.3543 H   0  0  0  0  0  0  0  0  0  0  0  0
   23.1248   28.4958   16.8551 H   0  0  0  0  0  0  0  0  0  0  0  0
   17.6657   25.1876   16.3276 C   0  0  0  0  0  0  0  0  0  0  0  0
   18.6074   25.5336   15.2279 C   0  0  0  0  0  0  0  0  0  0  0  0
   20.0774   25.6383   15.6531 C   0  0  0  0  0  0  0  0  0  0  0  0
   20.3333   25.9841   16.7753 O   0  0  0  0  0  0  0  0  0  0  0  0
   21.0017   25.3114   14.7798 N   0  0  0  0  0  0  0  0  0  0  0  0
   20.7442   25.0340   13.8710 H   0  0  0  0  0  0  0  0  0  0  0  0
   21.9524   25.3438   15.0338 H   0  0  0  0  0  0  0  0  0  0  0  0
   13.6903   22.1785   17.9389 N   0  0  0  0  0  0  0  0  0  0  0  0
   12.6719   22.2066   17.9870 H   0  0  0  0  0  0  0  0  0  0  0  0
   14.0809   21.2724   18.8825 C   0  0  0  0  0  0  0  0  0  0  0  0
   13.2310   20.0016   18.9794 C   0  0  0  0  0  0  0  0  0  0  0  0
   11.4346   19.2659   17.5319 C   0  0  0  0  0  0  0  0  0  0  0  0
   10.6157   19.5082   18.4457 O   0  0  0  0  0  0  0  0  0  0  0  0
   12.7040   19.5452   17.6843 N   0  0  0  0  0  0  0  0  0  0  0  0
   13.3163   19.4481   16.9195 H   0  0  0  0  0  0  0  0  0  0  0  0
   10.9931   18.6546   16.2343 C   0  0  0  0  0  0  0  0  0  0  0  0
   10.0212   16.4615   16.5867 C   0  0  0  0  0  0  0  0  0  0  0  0
   11.1086   15.9201   16.4349 O   0  0  0  0  0  0  0  0  0  0  0  0
    9.8849   17.7677   16.5317 N   0  0  0  0  0  0  0  0  0  0  0  0
    8.9970   18.1588   16.6987 H   0  0  0  0  0  0  0  0  0  0  0  0
    8.7597   15.6290   16.8821 C   0  0  0  0  0  0  0  0  0  0  0  0
    7.8747   14.2702   15.1165 C   0  0  0  0  0  0  0  0  0  0  0  0
    7.1943   15.2322   14.7083 O   0  0  0  0  0  0  0  0  0  0  0  0
    7.8130   12.9284   14.4453 C   0  0  0  0  0  0  0  0  0  0  0  0
    8.6488   14.3781   16.1967 N   0  0  0  0  0  0  0  0  0  0  0  0
    9.1460   13.5939   16.5240 H   0  0  0  0  0  0  0  0  0  0  0  0
    8.7377   15.3867   18.3967 C   0  0  0  0  0  0  0  0  0  0  0  0
    9.5635   16.3946   19.0330 O   0  0  0  0  0  0  0  0  0  0  0  0
    9.2611   13.9797   18.7413 C   0  0  0  0  0  0  0  0  0  0  0  0
   10.4728   16.3233   18.7029 H   0  0  0  0  0  0  0  0  0  0  0  0
   10.6425   19.7161   15.1634 C   0  0  0  0  0  0  0  0  0  0  0  0
   10.2558   19.0810   13.8327 C   0  0  0  0  0  0  0  0  0  0  0  0
    9.6097   20.7338   15.6191 C   0  0  0  0  0  0  0  0  0  0  0  0
    9.0307   21.6262   14.5478 C   0  0  0  0  0  0  0  0  0  0  0  0
   13.9902   18.8644   19.6248 C   0  0  0  0  0  0  0  0  0  0  0  0
   13.2603   17.5556   19.7502 C   0  0  0  0  0  0  0  0  0  0  0  0
   12.2247   17.5008   20.8090 C   0  0  0  0  0  0  0  0  0  0  0  0
   12.2986   18.6634   21.8014 C   0  0  0  0  0  0  0  0  0  0  0  0
   13.2158   23.0126   15.6343 C   0  0  0  0  0  0  0  0  0  0  0  0
   13.0561   22.8354   14.1545 C   0  0  0  0  0  0  0  0  0  0  0  0
   13.2402   21.3957   13.6989 C   0  0  0  0  0  0  0  0  0  0  0  0
   14.3694   21.2902   12.6667 C   0  0  0  0  0  0  0  0  0  0  0  0
 50 51  2  0  0  0
 50 52  1  0  0  0
 53 49  1  0  0  0
 49 45  1  0  0  0
 49 55  1  0  0  0
 45 46  2  0  0  0
 55 56  1  0  0  0
 55 57  1  0  0  0
 47 44  1  0  0  0
 44 40  1  0  0  0
 44 59  1  0  0  0
 40 41  2  0  0  0
 59 61  1  0  0  0
 59 60  1  0  0  0
 61 62  1  0  0  0
 42 39  1  0  0  0
 39 38  1  0  0  0
 39 63  1  0  0  0
 63 64  1  0  0  0
 64 65  1  0  0  0
 65 66  1  0  0  0
 36  1  1  0  0  0
  1  2  1  0  0  0
  1 67  1  0  0  0
  2  3  2  0  0  0
 67 68  1  0  0  0
 68 69  1  0  0  0
 69 70  1  0  0  0
  4  6  1  0  0  0
  6  7  1  0  0  0
  6 29  1  0  0  0
  7  8  2  0  0  0
 29 30  1  0  0  0
 30 31  1  0  0  0
 31 32  2  0  0  0
 31 33  1  0  0  0
  9 11  1  0  0  0
 11 12  1  0  0  0
 11 17  1  0  0  0
 12 13  2  0  0  0
 17 18  1  0  0  0
 18 19  1  0  0  0
 19 20  1  0  0  0
 20 22  1  0  0  0
 22 23  1  0  0  0
 22 24  2  0  0  0
 50 53  1  0  0  0
 45 47  1  0  0  0
 40 42  1  0  0  0
 38 36  1  0  0  0
  2  4  1  0  0  0
  7  9  1  0  0  0
 12 14  1  0  0  0
 53 54  1  0  0  0
 56 58  1  0  0  0
 47 48  1  0  0  0
 42 43  1  0  0  0
 36 37  1  0  0  0
  4  5  1  0  0  0
 33 34  1  0  0  0
 33 35  1  0  0  0
  9 10  1  0  0  0
 20 21  1  0  0  0
 23 25  1  0  0  0
 23 26  1  0  0  0
 24 27  1  0  0  0
 24 28  1  0  0  0
 14 15  1  0  0  0
 14 16  1  0  0  0
M  CHG 1  24   1
M  END
> <minimizedAffinity>
-8.06442

$$$$
2AVQ_2NC_B_300


 70 69  0  0  0  0  0  0  0  0999 V2000
   15.1907   21.8239   17.1600 C   0  0  0  0  0  0  0  0  0  0  0  0
   15.9478   22.9931   17.7313 C   0  0  0  0  0  0  0  0  0  0  0  0
   15.4529   23.7590   18.5799 O   0  0  0  0  0  0  0  0  0  0  0  0
   17.1555   23.2000   17.2645 N   0  0  0  0  0  0  0  0  0  0  0  0
   17.5394   22.5733   16.6094 H   0  0  0  0  0  0  0  0  0  0  0  0
   17.9442   24.3635   17.7123 C   0  0  0  0  0  0  0  0  0  0  0  0
   18.1867   25.2410   16.4863 C   0  0  0  0  0  0  0  0  0  0  0  0
   17.3770   25.3429   15.5521 O   0  0  0  0  0  0  0  0  0  0  0  0
   19.3871   25.7513   16.4245 N   0  0  0  0  0  0  0  0  0  0  0  0
   20.0314   25.5600   17.1438 H   0  0  0  0  0  0  0  0  0  0  0  0
   19.7873   26.5933   15.3167 C   0  0  0  0  0  0  0  0  0  0  0  0
   20.2757   25.7082   14.1971 C   0  0  0  0  0  0  0  0  0  0  0  0
   21.3565   25.1569   14.2460 O   0  0  0  0  0  0  0  0  0  0  0  0
   19.7778   25.5645   13.4565 N   0  0  0  0  0  0  0  0  0  0  0  0
   18.8938   25.9885   13.3678 H   0  0  0  0  0  0  0  0  0  0  0  0
   20.1197   24.9840   12.7386 H   0  0  0  0  0  0  0  0  0  0  0  0
   20.9221   27.5021   15.7594 C   0  0  0  0  0  0  0  0  0  0  0  0
   21.1234   27.4796   17.2725 C   0  0  0  0  0  0  0  0  0  0  0  0
   22.5112   27.0037   17.6759 C   0  0  0  0  0  0  0  0  0  0  0  0
   22.5130   25.6053   18.1088 N   0  0  0  0  0  0  0  0  0  0  0  0
   22.5972   24.9171   17.4098 H   0  0  0  0  0  0  0  0  0  0  0  0
   22.4108   25.1870   19.3654 C   0  0  0  0  0  0  0  0  0  0  0  0
   22.8427   23.9639   19.6546 N   0  0  0  0  0  0  0  0  0  0  0  0
   21.8922   25.9555   20.3219 N   0  0  0  0  0  0  0  0  0  0  0  0
   23.2257   23.3970   18.9467 H   0  0  0  0  0  0  0  0  0  0  0  0
   22.7796   23.6248   20.5767 H   0  0  0  0  0  0  0  0  0  0  0  0
   21.5726   26.8614   20.1063 H   0  0  0  0  0  0  0  0  0  0  0  0
   21.8285   25.6176   21.2444 H   0  0  0  0  0  0  0  0  0  0  0  0
   19.2001   23.9290   18.4212 C   0  0  0  0  0  0  0  0  0  0  0  0
   19.0304   23.2448   19.7322 C   0  0  0  0  0  0  0  0  0  0  0  0
   18.6173   24.1664   20.8867 C   0  0  0  0  0  0  0  0  0  0  0  0
   19.4618   24.5571   21.6474 O   0  0  0  0  0  0  0  0  0  0  0  0
   17.3565   24.5210   20.9782 N   0  0  0  0  0  0  0  0  0  0  0  0
   16.6997   24.1751   20.3316 H   0  0  0  0  0  0  0  0  0  0  0  0
   17.0679   25.1328   21.6935 H   0  0  0  0  0  0  0  0  0  0  0  0
   13.8490   21.7154   17.7487 N   0  0  0  0  0  0  0  0  0  0  0  0
   13.3123   21.1303   17.1084 H   0  0  0  0  0  0  0  0  0  0  0  0
   13.6023   21.2210   18.9973 C   0  0  0  0  0  0  0  0  0  0  0  0
   12.9681   19.8276   19.0498 C   0  0  0  0  0  0  0  0  0  0  0  0
   11.1186   19.3541   17.5603 C   0  0  0  0  0  0  0  0  0  0  0  0
   10.3305   19.8269   18.4088 O   0  0  0  0  0  0  0  0  0  0  0  0
   12.4111   19.3848   17.7626 N   0  0  0  0  0  0  0  0  0  0  0  0
   13.0208   19.1070   17.0412 H   0  0  0  0  0  0  0  0  0  0  0  0
   10.6139   18.7428   16.2861 C   0  0  0  0  0  0  0  0  0  0  0  0
   10.1144   16.3720   16.3771 C   0  0  0  0  0  0  0  0  0  0  0  0
   11.1769   16.0949   15.8357 O   0  0  0  0  0  0  0  0  0  0  0  0
    9.7806   17.6134   16.6513 N   0  0  0  0  0  0  0  0  0  0  0  0
    8.9330   17.7830   17.1224 H   0  0  0  0  0  0  0  0  0  0  0  0
    9.1278   15.2646   16.7917 C   0  0  0  0  0  0  0  0  0  0  0  0
    7.1385   14.5603   15.6544 C   0  0  0  0  0  0  0  0  0  0  0  0
    6.4373   15.1091   16.5274 O   0  0  0  0  0  0  0  0  0  0  0  0
    6.5181   13.8158   14.5075 C   0  0  0  0  0  0  0  0  0  0  0  0
    8.4697   14.5689   15.7288 N   0  0  0  0  0  0  0  0  0  0  0  0
    9.0019   14.0948   15.0496 H   0  0  0  0  0  0  0  0  0  0  0  0
    9.9212   14.2654   17.6435 C   0  0  0  0  0  0  0  0  0  0  0  0
   10.3765   13.1911   16.7825 O   0  0  0  0  0  0  0  0  0  0  0  0
    9.0555   13.6981   18.7841 C   0  0  0  0  0  0  0  0  0  0  0  0
    9.6103   12.7477   16.3859 H   0  0  0  0  0  0  0  0  0  0  0  0
    9.8794   19.7644   15.3842 C   0  0  0  0  0  0  0  0  0  0  0  0
   10.5530   21.1318   15.4016 C   0  0  0  0  0  0  0  0  0  0  0  0
    9.6423   19.2752   13.9649 C   0  0  0  0  0  0  0  0  0  0  0  0
   10.7909   18.5505   13.3055 C   0  0  0  0  0  0  0  0  0  0  0  0
   13.9437   18.7834   19.5438 C   0  0  0  0  0  0  0  0  0  0  0  0
   13.6319   18.1476   20.8705 C   0  0  0  0  0  0  0  0  0  0  0  0
   12.1919   17.9557   21.1639 C   0  0  0  0  0  0  0  0  0  0  0  0
   11.5194   16.9038   20.2790 C   0  0  0  0  0  0  0  0  0  0  0  0
   15.1763   21.9419   15.6466 C   0  0  0  0  0  0  0  0  0  0  0  0
   14.2750   22.8754   14.8963 C   0  0  0  0  0  0  0  0  0  0  0  0
   13.4632   22.1837   13.8116 C   0  0  0  0  0  0  0  0  0  0  0  0
   14.3785   21.4117   12.8536 C   0  0  0  0  0  0  0  0  0  0  0  0
 50 51  2  0  0  0
 50 52  1  0  0  0
 53 49  1  0  0  0
 49 45  1  0  0  0
 49 55  1  0  0  0
 45 46  2  0  0  0
 55 56  1  0  0  0
 55 57  1  0  0  0
 47 44  1  0  0  0
 44 40  1  0  0  0
 44 59  1  0  0  0
 40 41  2  0  0  0
 59 61  1  0  0  0
 59 60  1  0  0  0
 61 62  1  0  0  0
 42 39  1  0  0  0
 39 38  1  0  0  0
 39 63  1  0  0  0
 63 64  1  0  0  0
 64 65  1  0  0  0
 65 66  1  0  0  0
 36  1  1  0  0  0
  1  2  1  0  0  0
  1 67  1  0  0  0
  2  3  2  0  0  0
 67 68  1  0  0  0
 68 69  1  0  0  0
 69 70  1  0  0  0
  4  6  1  0  0  0
  6  7  1  0  0  0
  6 29  1  0  0  0
  7  8  2  0  0  0
 29 30  1  0  0  0
 30 31  1  0  0  0
 31 32  2  0  0  0
 31 33  1  0  0  0
  9 11  1  0  0  0
 11 12  1  0  0  0
 11 17  1  0  0  0
 12 13  2  0  0  0
 17 18  1  0  0  0
 18 19  1  0  0  0
 19 20  1  0  0  0
 20 22  1  0  0  0
 22 23  1  0  0  0
 22 24  2  0  0  0
 50 53  1  0  0  0
 45 47  1  0  0  0
 40 42  1  0  0  0
 38 36  1  0  0  0
  2  4  1  0  0  0
  7  9  1  0  0  0
 12 14  1  0  0  0
 53 54  1  0  0  0
 56 58  1  0  0  0
 47 48  1  0  0  0
 42 43  1  0  0  0
 36 37  1  0  0  0
  4  5  1  0  0  0
 33 34  1  0  0  0
 33 35  1  0  0  0
  9 10  1  0  0  0
 20 21  1  0  0  0
 23 25  1  0  0  0
 23 26  1  0  0  0
 24 27  1  0  0  0
 24 28  1  0  0  0
 14 15  1  0  0  0
 14 16  1  0  0  0
M  CHG 1  24   1
M  END
> <minimizedAffinity>
-7.99587

$$$$
2AVQ_2NC_B_300


 70 69  0  0  0  0  0  0  0  0999 V2000
   17.7933   23.9198   17.5342 C   0  0  0  0  0  0  0  0  0  0  0  0
   18.7815   24.3881   18.5690 C   0  0  0  0  0  0  0  0  0  0  0  0
   18.6492   24.1352   19.7814 O   0  0  0  0  0  0  0  0  0  0  0  0
   19.7837   25.1176   18.1414 N   0  0  0  0  0  0  0  0  0  0  0  0
   19.8848   25.2909   17.1776 H   0  0  0  0  0  0  0  0  0  0  0  0
   20.7611   25.6811   19.0920 C   0  0  0  0  0  0  0  0  0  0  0  0
   21.2338   27.0132   18.5140 C   0  0  0  0  0  0  0  0  0  0  0  0
   20.9326   28.1122   19.0040 O   0  0  0  0  0  0  0  0  0  0  0  0
   21.8491   26.9087   17.3670 N   0  0  0  0  0  0  0  0  0  0  0  0
   21.9776   26.0185   16.9666 H   0  0  0  0  0  0  0  0  0  0  0  0
   22.3458   28.0786   16.6737 C   0  0  0  0  0  0  0  0  0  0  0  0
   21.5841   28.2254   15.3799 C   0  0  0  0  0  0  0  0  0  0  0  0
   20.4224   28.5785   15.3611 O   0  0  0  0  0  0  0  0  0  0  0  0
   21.9708   28.0528   14.5814 N   0  0  0  0  0  0  0  0  0  0  0  0
   22.9110   27.7634   14.5420 H   0  0  0  0  0  0  0  0  0  0  0  0
   21.4518   28.1543   13.7510 H   0  0  0  0  0  0  0  0  0  0  0  0
   23.8209   27.8899   16.3603 C   0  0  0  0  0  0  0  0  0  0  0  0
   24.2794   26.4511   16.5842 C   0  0  0  0  0  0  0  0  0  0  0  0
   25.7261   26.2222   16.1724 C   0  0  0  0  0  0  0  0  0  0  0  0
   26.5708   27.3858   16.4470 N   0  0  0  0  0  0  0  0  0  0  0  0
   26.5612   27.7436   17.3641 H   0  0  0  0  0  0  0  0  0  0  0  0
   27.3493   27.9995   15.5626 C   0  0  0  0  0  0  0  0  0  0  0  0
   27.9803   27.2543   14.6613 N   0  0  0  0  0  0  0  0  0  0  0  0
   27.5068   29.3223   15.5637 N   0  0  0  0  0  0  0  0  0  0  0  0
   27.8631   26.2768   14.6616 H   0  0  0  0  0  0  0  0  0  0  0  0
   28.5651   27.6797   13.9932 H   0  0  0  0  0  0  0  0  0  0  0  0
   27.0387   29.8732   16.2320 H   0  0  0  0  0  0  0  0  0  0  0  0
   28.0913   29.7490   14.8962 H   0  0  0  0  0  0  0  0  0  0  0  0
   21.8691   24.7017   19.3775 C   0  0  0  0  0  0  0  0  0  0  0  0
   23.0083   25.1951   20.1987 C   0  0  0  0  0  0  0  0  0  0  0  0
   24.3790   24.6406   19.7909 C   0  0  0  0  0  0  0  0  0  0  0  0
   25.3694   25.1665   20.2233 O   0  0  0  0  0  0  0  0  0  0  0  0
   24.4154   23.5867   19.0087 N   0  0  0  0  0  0  0  0  0  0  0  0
   23.5772   23.1896   18.6784 H   0  0  0  0  0  0  0  0  0  0  0  0
   25.2808   23.1936   18.7524 H   0  0  0  0  0  0  0  0  0  0  0  0
   16.4351   24.3894   17.8395 N   0  0  0  0  0  0  0  0  0  0  0  0
   16.0589   24.7401   16.9586 H   0  0  0  0  0  0  0  0  0  0  0  0
   15.4570   23.5992   18.3715 C   0  0  0  0  0  0  0  0  0  0  0  0
   14.8952   22.5173   17.4439 C   0  0  0  0  0  0  0  0  0  0  0  0
   13.9169   20.5280   18.4179 C   0  0  0  0  0  0  0  0  0  0  0  0
   15.0476   19.9935   18.4315 O   0  0  0  0  0  0  0  0  0  0  0  0
   13.7713   21.7679   18.0257 N   0  0  0  0  0  0  0  0  0  0  0  0
   12.8951   22.2064   18.1217 H   0  0  0  0  0  0  0  0  0  0  0  0
   12.6949   19.7729   18.8526 C   0  0  0  0  0  0  0  0  0  0  0  0
   10.8405   19.3863   17.3392 C   0  0  0  0  0  0  0  0  0  0  0  0
   10.1063   20.1055   18.0043 O   0  0  0  0  0  0  0  0  0  0  0  0
   12.1002   19.1954   17.6626 N   0  0  0  0  0  0  0  0  0  0  0  0
   12.6611   18.6393   17.0749 H   0  0  0  0  0  0  0  0  0  0  0  0
   10.3227   18.6926   16.0655 C   0  0  0  0  0  0  0  0  0  0  0  0
    9.8995   16.3533   16.3750 C   0  0  0  0  0  0  0  0  0  0  0  0
   11.1182   16.1120   16.2676 O   0  0  0  0  0  0  0  0  0  0  0  0
    8.9000   15.2525   16.5839 C   0  0  0  0  0  0  0  0  0  0  0  0
    9.4263   17.5945   16.2595 N   0  0  0  0  0  0  0  0  0  0  0  0
    8.4564   17.7560   16.3079 H   0  0  0  0  0  0  0  0  0  0  0  0
    9.6325   19.7747   15.2253 C   0  0  0  0  0  0  0  0  0  0  0  0
    8.9349   19.1279   14.1307 O   0  0  0  0  0  0  0  0  0  0  0  0
   10.6549   20.7872   14.6759 C   0  0  0  0  0  0  0  0  0  0  0  0
    9.5720   18.6439   13.5823 H   0  0  0  0  0  0  0  0  0  0  0  0
   13.0019   18.7180   19.9432 C   0  0  0  0  0  0  0  0  0  0  0  0
   12.3644   19.0753   21.2811 C   0  0  0  0  0  0  0  0  0  0  0  0
   12.6759   17.2920   19.5309 C   0  0  0  0  0  0  0  0  0  0  0  0
   11.2967   16.7908   19.8856 C   0  0  0  0  0  0  0  0  0  0  0  0
   14.4636   23.0868   16.1114 C   0  0  0  0  0  0  0  0  0  0  0  0
   15.0525   22.4460   14.8850 C   0  0  0  0  0  0  0  0  0  0  0  0
   14.2971   21.2922   14.3421 C   0  0  0  0  0  0  0  0  0  0  0  0
   14.3409   21.1926   12.8157 C   0  0  0  0  0  0  0  0  0  0  0  0
   18.2829   24.3448   16.1615 C   0  0  0  0  0  0  0  0  0  0  0  0
   17.6150   25.4006   15.3333 C   0  0  0  0  0  0  0  0  0  0  0  0
   18.4801   25.9003   14.1862 C   0  0  0  0  0  0  0  0  0  0  0  0
   19.8645   25.2416   14.2198 C   0  0  0  0  0  0  0  0  0  0  0  0
 50 51  2  0  0  0
 50 52  1  0  0  0
 53 49  1  0  0  0
 49 45  1  0  0  0
 49 55  1  0  0  0
 45 46  2  0  0  0
 55 56  1  0  0  0
 55 57  1  0  0  0
 47 44  1  0  0  0
 44 40  1  0  0  0
 44 59  1  0  0  0
 40 41  2  0  0  0
 59 61  1  0  0  0
 59 60  1  0  0  0
 61 62  1  0  0  0
 42 39  1  0  0  0
 39 38  1  0  0  0
 39 63  1  0  0  0
 63 64  1  0  0  0
 64 65  1  0  0  0
 65 66  1  0  0  0
 36  1  1  0  0  0
  1  2  1  0  0  0
  1 67  1  0  0  0
  2  3  2  0  0  0
 67 68  1  0  0  0
 68 69  1  0  0  0
 69 70  1  0  0  0
  4  6  1  0  0  0
  6  7  1  0  0  0
  6 29  1  0  0  0
  7  8  2  0  0  0
 29 30  1  0  0  0
 30 31  1  0  0  0
 31 32  2  0  0  0
 31 33  1  0  0  0
  9 11  1  0  0  0
 11 12  1  0  0  0
 11 17  1  0  0  0
 12 13  2  0  0  0
 17 18  1  0  0  0
 18 19  1  0  0  0
 19 20  1  0  0  0
 20 22  1  0  0  0
 22 23  1  0  0  0
 22 24  2  0  0  0
 50 53  1  0  0  0
 45 47  1  0  0  0
 40 42  1  0  0  0
 38 36  1  0  0  0
  2  4  1  0  0  0
  7  9  1  0  0  0
 12 14  1  0  0  0
 53 54  1  0  0  0
 56 58  1  0  0  0
 47 48  1  0  0  0
 42 43  1  0  0  0
 36 37  1  0  0  0
  4  5  1  0  0  0
 33 34  1  0  0  0
 33 35  1  0  0  0
  9 10  1  0  0  0
 20 21  1  0  0  0
 23 25  1  0  0  0
 23 26  1  0  0  0
 24 27  1  0  0  0
 24 28  1  0  0  0
 14 15  1  0  0  0
 14 16  1  0  0  0
M  CHG 1  24   1
M  END
> <minimizedAffinity>
-7.92296

$$$$
2AVQ_2NC_B_300


 70 69  0  0  0  0  0  0  0  0999 V2000
   13.1686   19.9985   18.3288 C   0  0  0  0  0  0  0  0  0  0  0  0
   11.8025   19.4913   17.9508 C   0  0  0  0  0  0  0  0  0  0  0  0
   10.7578   19.9516   18.4491 O   0  0  0  0  0  0  0  0  0  0  0  0
   11.7563   18.5030   17.0903 N   0  0  0  0  0  0  0  0  0  0  0  0
   12.5900   18.1648   16.6906 H   0  0  0  0  0  0  0  0  0  0  0  0
   10.4662   17.8935   16.7158 C   0  0  0  0  0  0  0  0  0  0  0  0
   10.4779   16.4589   17.2394 C   0  0  0  0  0  0  0  0  0  0  0  0
   11.2490   16.0656   18.1279 O   0  0  0  0  0  0  0  0  0  0  0  0
    9.7200   15.6382   16.5634 N   0  0  0  0  0  0  0  0  0  0  0  0
    9.2001   15.9781   15.7996 H   0  0  0  0  0  0  0  0  0  0  0  0
    9.6307   14.2370   16.9171 C   0  0  0  0  0  0  0  0  0  0  0  0
   10.5004   13.4495   15.9688 C   0  0  0  0  0  0  0  0  0  0  0  0
   11.1666   13.9954   15.1130 O   0  0  0  0  0  0  0  0  0  0  0  0
   10.5487   12.5479   16.0098 N   0  0  0  0  0  0  0  0  0  0  0  0
   10.0278   12.0572   16.6860 H   0  0  0  0  0  0  0  0  0  0  0  0
   11.1223   12.0565   15.3783 H   0  0  0  0  0  0  0  0  0  0  0  0
    8.1915   13.7714   16.7705 C   0  0  0  0  0  0  0  0  0  0  0  0
    7.2056   14.7210   17.4461 C   0  0  0  0  0  0  0  0  0  0  0  0
    6.7672   14.2365   18.8201 C   0  0  0  0  0  0  0  0  0  0  0  0
    6.5279   15.3436   19.7474 N   0  0  0  0  0  0  0  0  0  0  0  0
    7.2185   16.0431   19.8024 H   0  0  0  0  0  0  0  0  0  0  0  0
    5.4571   15.4839   20.5210 C   0  0  0  0  0  0  0  0  0  0  0  0
    4.7257   14.4047   20.7784 N   0  0  0  0  0  0  0  0  0  0  0  0
    5.1093   16.6638   21.0323 N   0  0  0  0  0  0  0  0  0  0  0  0
    4.9838   13.5333   20.3999 H   0  0  0  0  0  0  0  0  0  0  0  0
    3.9256   14.4765   21.3476 H   0  0  0  0  0  0  0  0  0  0  0  0
    5.6520   17.4625   20.8409 H   0  0  0  0  0  0  0  0  0  0  0  0
    4.3095   16.7370   21.6017 H   0  0  0  0  0  0  0  0  0  0  0  0
   10.2188   18.0103   15.2348 C   0  0  0  0  0  0  0  0  0  0  0  0
   11.2727   18.6838   14.4276 C   0  0  0  0  0  0  0  0  0  0  0  0
   12.2006   17.7310   13.6636 C   0  0  0  0  0  0  0  0  0  0  0  0
   13.1961   18.1738   13.1562 O   0  0  0  0  0  0  0  0  0  0  0  0
   11.8863   16.4569   13.6229 N   0  0  0  0  0  0  0  0  0  0  0  0
   11.0595   16.1399   14.0532 H   0  0  0  0  0  0  0  0  0  0  0  0
   12.4774   15.8185   13.1622 H   0  0  0  0  0  0  0  0  0  0  0  0
   13.2533   21.4592   18.1964 N   0  0  0  0  0  0  0  0  0  0  0  0
   12.3577   21.8194   18.5259 H   0  0  0  0  0  0  0  0  0  0  0  0
   14.2066   22.2255   18.8032 C   0  0  0  0  0  0  0  0  0  0  0  0
   14.9156   23.2437   17.9047 C   0  0  0  0  0  0  0  0  0  0  0  0
   17.0132   24.0364   18.8185 C   0  0  0  0  0  0  0  0  0  0  0  0
   16.3781   24.7790   19.5994 O   0  0  0  0  0  0  0  0  0  0  0  0
   16.3814   23.2127   18.0218 N   0  0  0  0  0  0  0  0  0  0  0  0
   16.8957   22.5615   17.4920 H   0  0  0  0  0  0  0  0  0  0  0  0
   18.5130   24.0600   18.7707 C   0  0  0  0  0  0  0  0  0  0  0  0
   19.3952   25.0126   16.7230 C   0  0  0  0  0  0  0  0  0  0  0  0
   19.5162   23.9025   16.2212 O   0  0  0  0  0  0  0  0  0  0  0  0
   18.8991   25.1763   17.9292 N   0  0  0  0  0  0  0  0  0  0  0  0
   18.7854   26.0912   18.2745 H   0  0  0  0  0  0  0  0  0  0  0  0
   19.7941   26.2789   15.9428 C   0  0  0  0  0  0  0  0  0  0  0  0
   21.9821   27.2150   16.2318 C   0  0  0  0  0  0  0  0  0  0  0  0
   21.5561   27.9440   17.1494 O   0  0  0  0  0  0  0  0  0  0  0  0
   23.4159   27.2721   15.7897 C   0  0  0  0  0  0  0  0  0  0  0  0
   21.1712   26.3887   15.5705 N   0  0  0  0  0  0  0  0  0  0  0  0
   21.5213   25.8520   14.8231 H   0  0  0  0  0  0  0  0  0  0  0  0
   18.9190   26.3132   14.6833 C   0  0  0  0  0  0  0  0  0  0  0  0
   17.6965   25.5825   14.9560 O   0  0  0  0  0  0  0  0  0  0  0  0
   19.6516   25.6881   13.4813 C   0  0  0  0  0  0  0  0  0  0  0  0
   17.9121   24.6638   15.1804 H   0  0  0  0  0  0  0  0  0  0  0  0
   19.1540   24.1191   20.1786 C   0  0  0  0  0  0  0  0  0  0  0  0
   19.0504   22.7864   20.9114 C   0  0  0  0  0  0  0  0  0  0  0  0
   20.5769   24.6531   20.1862 C   0  0  0  0  0  0  0  0  0  0  0  0
   20.8483   25.8232   21.1008 C   0  0  0  0  0  0  0  0  0  0  0  0
   14.5389   23.0699   16.4507 C   0  0  0  0  0  0  0  0  0  0  0  0
   15.3379   22.0666   15.6656 C   0  0  0  0  0  0  0  0  0  0  0  0
   14.6780   21.5356   14.4493 C   0  0  0  0  0  0  0  0  0  0  0  0
   13.2090   21.9443   14.3193 C   0  0  0  0  0  0  0  0  0  0  0  0
   13.5083   19.4996   19.7218 C   0  0  0  0  0  0  0  0  0  0  0  0
   13.9161   18.0884   20.0204 C   0  0  0  0  0  0  0  0  0  0  0  0
   12.9204   17.3495   20.9018 C   0  0  0  0  0  0  0  0  0  0  0  0
   11.9252   18.3270   21.5387 C   0  0  0  0  0  0  0  0  0  0  0  0
 50 51  2  0  0  0
 50 52  1  0  0  0
 53 49  1  0  0  0
 49 45  1  0  0  0
 49 55  1  0  0  0
 45 46  2  0  0  0
 55 56  1  0  0  0
 55 57  1  0  0  0
 47 44  1  0  0  0
 44 40  1  0  0  0
 44 59  1  0  0  0
 40 41  2  0  0  0
 59 61  1  0  0  0
 59 60  1  0  0  0
 61 62  1  0  0  0
 42 39  1  0  0  0
 39 38  1  0  0  0
 39 63  1  0  0  0
 63 64  1  0  0  0
 64 65  1  0  0  0
 65 66  1  0  0  0
 36  1  1  0  0  0
  1  2  1  0  0  0
  1 67  1  0  0  0
  2  3  2  0  0  0
 67 68  1  0  0  0
 68 69  1  0  0  0
 69 70  1  0  0  0
  4  6  1  0  0  0
  6  7  1  0  0  0
  6 29  1  0  0  0
  7  8  2  0  0  0
 29 30  1  0  0  0
 30 31  1  0  0  0
 31 32  2  0  0  0
 31 33  1  0  0  0
  9 11  1  0  0  0
 11 12  1  0  0  0
 11 17  1  0  0  0
 12 13  2  0  0  0
 17 18  1  0  0  0
 18 19  1  0  0  0
 19 20  1  0  0  0
 20 22  1  0  0  0
 22 23  1  0  0  0
 22 24  2  0  0  0
 50 53  1  0  0  0
 45 47  1  0  0  0
 40 42  1  0  0  0
 38 36  1  0  0  0
  2  4  1  0  0  0
  7  9  1  0  0  0
 12 14  1  0  0  0
 53 54  1  0  0  0
 56 58  1  0  0  0
 47 48  1  0  0  0
 42 43  1  0  0  0
 36 37  1  0  0  0
  4  5  1  0  0  0
 33 34  1  0  0  0
 33 35  1  0  0  0
  9 10  1  0  0  0
 20 21  1  0  0  0
 23 25  1  0  0  0
 23 26  1  0  0  0
 24 27  1  0  0  0
 24 28  1  0  0  0
 14 15  1  0  0  0
 14 16  1  0  0  0
M  CHG 1  24   1
M  END
> <minimizedAffinity>
-7.91445

$$$$
2AVQ_2NC_B_300


 70 69  0  0  0  0  0  0  0  0999 V2000
   14.5778   21.8667   17.3915 C   0  0  0  0  0  0  0  0  0  0  0  0
   13.6116   21.5518   16.2807 C   0  0  0  0  0  0  0  0  0  0  0  0
   13.2220   22.4137   15.4702 O   0  0  0  0  0  0  0  0  0  0  0  0
   13.1587   20.3227   16.2223 N   0  0  0  0  0  0  0  0  0  0  0  0
   13.4925   19.6490   16.8578 H   0  0  0  0  0  0  0  0  0  0  0  0
   12.1534   19.9405   15.2125 C   0  0  0  0  0  0  0  0  0  0  0  0
   11.0476   19.1824   15.9437 C   0  0  0  0  0  0  0  0  0  0  0  0
    9.8398   19.4015   15.7645 O   0  0  0  0  0  0  0  0  0  0  0  0
   11.4779   18.3950   16.8922 N   0  0  0  0  0  0  0  0  0  0  0  0
   12.4450   18.3293   17.0645 H   0  0  0  0  0  0  0  0  0  0  0  0
   10.5581   17.6168   17.6952 C   0  0  0  0  0  0  0  0  0  0  0  0
   10.7168   18.0300   19.1373 C   0  0  0  0  0  0  0  0  0  0  0  0
   10.9011   19.1884   19.4515 O   0  0  0  0  0  0  0  0  0  0  0  0
   10.6810   17.4261   19.8088 N   0  0  0  0  0  0  0  0  0  0  0  0
   10.5336   16.4738   19.6072 H   0  0  0  0  0  0  0  0  0  0  0  0
   10.7894   17.7206   20.7420 H   0  0  0  0  0  0  0  0  0  0  0  0
   10.8984   16.1415   17.5633 C   0  0  0  0  0  0  0  0  0  0  0  0
    9.6799   15.2983   17.1965 C   0  0  0  0  0  0  0  0  0  0  0  0
    9.6195   13.9847   17.9619 C   0  0  0  0  0  0  0  0  0  0  0  0
    9.8853   12.8301   17.1022 N   0  0  0  0  0  0  0  0  0  0  0  0
   10.3847   12.0792   17.4972 H   0  0  0  0  0  0  0  0  0  0  0  0
    9.5094   12.7103   15.8337 C   0  0  0  0  0  0  0  0  0  0  0  0
    8.2093   12.6252   15.5720 N   0  0  0  0  0  0  0  0  0  0  0  0
   10.3945   12.6735   14.8389 N   0  0  0  0  0  0  0  0  0  0  0  0
    7.5561   12.6525   16.3081 H   0  0  0  0  0  0  0  0  0  0  0  0
    7.8992   12.5348   14.6420 H   0  0  0  0  0  0  0  0  0  0  0  0
   11.3574   12.7367   15.0342 H   0  0  0  0  0  0  0  0  0  0  0  0
   10.0858   12.5831   13.9084 H   0  0  0  0  0  0  0  0  0  0  0  0
   12.7844   19.1749   14.0794 C   0  0  0  0  0  0  0  0  0  0  0  0
   11.9656   18.0997   13.4555 C   0  0  0  0  0  0  0  0  0  0  0  0
   12.7383   17.1763   12.5052 C   0  0  0  0  0  0  0  0  0  0  0  0
   13.8933   16.9394   12.7385 O   0  0  0  0  0  0  0  0  0  0  0  0
   12.0945   16.6516   11.4884 N   0  0  0  0  0  0  0  0  0  0  0  0
   11.1478   16.8752   11.3368 H   0  0  0  0  0  0  0  0  0  0  0  0
   12.5585   16.0346   10.8774 H   0  0  0  0  0  0  0  0  0  0  0  0
   14.8981   23.3000   17.4327 N   0  0  0  0  0  0  0  0  0  0  0  0
   14.0107   23.7857   17.3023 H   0  0  0  0  0  0  0  0  0  0  0  0
   15.5053   23.9151   18.4896 C   0  0  0  0  0  0  0  0  0  0  0  0
   17.0126   23.6773   18.6238 C   0  0  0  0  0  0  0  0  0  0  0  0
   18.3157   24.5997   16.8033 C   0  0  0  0  0  0  0  0  0  0  0  0
   17.9814   23.6291   16.0887 O   0  0  0  0  0  0  0  0  0  0  0  0
   17.8325   24.7340   18.0120 N   0  0  0  0  0  0  0  0  0  0  0  0
   18.0210   25.5559   18.5201 H   0  0  0  0  0  0  0  0  0  0  0  0
   19.2731   25.6410   16.3018 C   0  0  0  0  0  0  0  0  0  0  0  0
   21.1165   26.5242   17.6057 C   0  0  0  0  0  0  0  0  0  0  0  0
   20.6608   27.6585   17.5406 O   0  0  0  0  0  0  0  0  0  0  0  0
   20.5002   25.4986   17.0615 N   0  0  0  0  0  0  0  0  0  0  0  0
   20.8861   24.5999   17.1739 H   0  0  0  0  0  0  0  0  0  0  0  0
   22.4283   26.2431   18.3619 C   0  0  0  0  0  0  0  0  0  0  0  0
   24.2777   27.0329   17.0570 C   0  0  0  0  0  0  0  0  0  0  0  0
   24.1219   26.0915   16.2543 O   0  0  0  0  0  0  0  0  0  0  0  0
   25.3805   28.0365   16.8803 C   0  0  0  0  0  0  0  0  0  0  0  0
   23.5023   27.1604   18.1342 N   0  0  0  0  0  0  0  0  0  0  0  0
   23.6695   27.8886   18.7753 H   0  0  0  0  0  0  0  0  0  0  0  0
   22.0792   26.2242   19.8556 C   0  0  0  0  0  0  0  0  0  0  0  0
   20.6412   26.3540   19.9907 O   0  0  0  0  0  0  0  0  0  0  0  0
   22.7862   27.3688   20.6054 C   0  0  0  0  0  0  0  0  0  0  0  0
   20.3540   27.1930   19.5977 H   0  0  0  0  0  0  0  0  0  0  0  0
   19.4999   25.5560   14.7728 C   0  0  0  0  0  0  0  0  0  0  0  0
   18.4799   26.3806   13.9958 C   0  0  0  0  0  0  0  0  0  0  0  0
   20.9221   25.8742   14.3419 C   0  0  0  0  0  0  0  0  0  0  0  0
   21.2019   27.3083   13.9619 C   0  0  0  0  0  0  0  0  0  0  0  0
   17.4298   23.5111   20.0676 C   0  0  0  0  0  0  0  0  0  0  0  0
   17.7458   22.1116   20.5182 C   0  0  0  0  0  0  0  0  0  0  0  0
   19.1366   21.8876   20.9786 C   0  0  0  0  0  0  0  0  0  0  0  0
   20.1363   22.9104   20.4341 C   0  0  0  0  0  0  0  0  0  0  0  0
   14.0120   21.3385   18.6974 C   0  0  0  0  0  0  0  0  0  0  0  0
   14.7307   20.3603   19.5769 C   0  0  0  0  0  0  0  0  0  0  0  0
   14.2581   18.9264   19.3915 C   0  0  0  0  0  0  0  0  0  0  0  0
   14.1255   18.2163   20.7442 C   0  0  0  0  0  0  0  0  0  0  0  0
 50 51  2  0  0  0
 50 52  1  0  0  0
 53 49  1  0  0  0
 49 45  1  0  0  0
 49 55  1  0  0  0
 45 46  2  0  0  0
 55 56  1  0  0  0
 55 57  1  0  0  0
 47 44  1  0  0  0
 44 40  1  0  0  0
 44 59  1  0  0  0
 40 41  2  0  0  0
 59 61  1  0  0  0
 59 60  1  0  0  0
 61 62  1  0  0  0
 42 39  1  0  0  0
 39 38  1  0  0  0
 39 63  1  0  0  0
 63 64  1  0  0  0
 64 65  1  0  0  0
 65 66  1  0  0  0
 36  1  1  0  0  0
  1  2  1  0  0  0
  1 67  1  0  0  0
  2  3  2  0  0  0
 67 68  1  0  0  0
 68 69  1  0  0  0
 69 70  1  0  0  0
  4  6  1  0  0  0
  6  7  1  0  0  0
  6 29  1  0  0  0
  7  8  2  0  0  0
 29 30  1  0  0  0
 30 31  1  0  0  0
 31 32  2  0  0  0
 31 33  1  0  0  0
  9 11  1  0  0  0
 11 12  1  0  0  0
 11 17  1  0  0  0
 12 13  2  0  0  0
 17 18  1  0  0  0
 18 19  1  0  0  0
 19 20  1  0  0  0
 20 22  1  0  0  0
 22 23  1  0  0  0
 22 24  2  0  0  0
 50 53  1  0  0  0
 45 47  1  0  0  0
 40 42  1  0  0  0
 38 36  1  0  0  0
  2  4  1  0  0  0
  7  9  1  0  0  0
 12 14  1  0  0  0
 53 54  1  0  0  0
 56 58  1  0  0  0
 47 48  1  0  0  0
 42 43  1  0  0  0
 36 37  1  0  0  0
  4  5  1  0  0  0
 33 34  1  0  0  0
 33 35  1  0  0  0
  9 10  1  0  0  0
 20 21  1  0  0  0
 23 25  1  0  0  0
 23 26  1  0  0  0
 24 27  1  0  0  0
 24 28  1  0  0  0
 14 15  1  0  0  0
 14 16  1  0  0  0
M  CHG 1  24   1
M  END
> <minimizedAffinity>
-7.87979

$$$$
2AVQ_2NC_B_300


 70 69  0  0  0  0  0  0  0  0999 V2000
   17.8240   22.3922   18.7999 C   0  0  0  0  0  0  0  0  0  0  0  0
   16.9769   21.3384   18.1377 C   0  0  0  0  0  0  0  0  0  0  0  0
   17.2134   20.9152   16.9903 O   0  0  0  0  0  0  0  0  0  0  0  0
   15.9400   20.9038   18.8124 N   0  0  0  0  0  0  0  0  0  0  0  0
   15.7792   21.2336   19.7260 H   0  0  0  0  0  0  0  0  0  0  0  0
   15.0122   19.9249   18.2147 C   0  0  0  0  0  0  0  0  0  0  0  0
   13.8973   20.7182   17.5365 C   0  0  0  0  0  0  0  0  0  0  0  0
   13.6388   21.8997   17.8122 O   0  0  0  0  0  0  0  0  0  0  0  0
   13.1326   20.0032   16.7561 N   0  0  0  0  0  0  0  0  0  0  0  0
   13.3179   19.0427   16.6456 H   0  0  0  0  0  0  0  0  0  0  0  0
   12.0171   20.5980   16.0503 C   0  0  0  0  0  0  0  0  0  0  0  0
   10.7390   20.1500   16.7147 C   0  0  0  0  0  0  0  0  0  0  0  0
   10.5895   19.0099   17.1049 O   0  0  0  0  0  0  0  0  0  0  0  0
   10.0469   20.7177   16.8396 N   0  0  0  0  0  0  0  0  0  0  0  0
   10.1175   21.6532   16.5411 H   0  0  0  0  0  0  0  0  0  0  0  0
    9.2224   20.4006   17.2742 H   0  0  0  0  0  0  0  0  0  0  0  0
   12.0195   20.1176   14.6085 C   0  0  0  0  0  0  0  0  0  0  0  0
   13.3949   20.2468   13.9590 C   0  0  0  0  0  0  0  0  0  0  0  0
   13.7875   21.6922   13.6913 C   0  0  0  0  0  0  0  0  0  0  0  0
   14.8454   22.1546   14.5912 N   0  0  0  0  0  0  0  0  0  0  0  0
   15.6507   21.5933   14.6663 H   0  0  0  0  0  0  0  0  0  0  0  0
   14.8101   23.2679   15.3150 C   0  0  0  0  0  0  0  0  0  0  0  0
   13.6397   23.8787   15.4665 N   0  0  0  0  0  0  0  0  0  0  0  0
   15.9054   23.7740   15.8797 N   0  0  0  0  0  0  0  0  0  0  0  0
   12.8310   23.5037   15.0487 H   0  0  0  0  0  0  0  0  0  0  0  0
   13.5813   24.7063   15.9965 H   0  0  0  0  0  0  0  0  0  0  0  0
   16.7719   23.3205   15.7666 H   0  0  0  0  0  0  0  0  0  0  0  0
   15.8484   24.6015   16.4099 H   0  0  0  0  0  0  0  0  0  0  0  0
   14.5308   18.9342   19.2418 C   0  0  0  0  0  0  0  0  0  0  0  0
   13.4430   19.3842   20.1528 C   0  0  0  0  0  0  0  0  0  0  0  0
   12.1711   18.5284   20.1028 C   0  0  0  0  0  0  0  0  0  0  0  0
   11.2655   18.7913   20.8480 O   0  0  0  0  0  0  0  0  0  0  0  0
   12.1087   17.5587   19.2198 N   0  0  0  0  0  0  0  0  0  0  0  0
   12.8763   17.3800   18.6299 H   0  0  0  0  0  0  0  0  0  0  0  0
   11.2942   17.0104   19.1476 H   0  0  0  0  0  0  0  0  0  0  0  0
   18.2944   23.3895   17.8290 N   0  0  0  0  0  0  0  0  0  0  0  0
   17.4540   23.7701   17.3940 H   0  0  0  0  0  0  0  0  0  0  0  0
   19.0630   24.4691   18.1572 C   0  0  0  0  0  0  0  0  0  0  0  0
   19.5458   25.3260   16.9828 C   0  0  0  0  0  0  0  0  0  0  0  0
   21.4301   26.7421   17.5372 C   0  0  0  0  0  0  0  0  0  0  0  0
   20.6526   27.5248   18.1267 O   0  0  0  0  0  0  0  0  0  0  0  0
   20.9856   25.6237   17.0235 N   0  0  0  0  0  0  0  0  0  0  0  0
   21.6255   24.9708   16.6582 H   0  0  0  0  0  0  0  0  0  0  0  0
   22.8921   27.0533   17.4029 C   0  0  0  0  0  0  0  0  0  0  0  0
   24.4548   25.6200   18.5785 C   0  0  0  0  0  0  0  0  0  0  0  0
   24.6392   26.4721   19.4379 O   0  0  0  0  0  0  0  0  0  0  0  0
   23.6152   25.8095   17.5850 N   0  0  0  0  0  0  0  0  0  0  0  0
   23.4719   25.0795   16.9402 H   0  0  0  0  0  0  0  0  0  0  0  0
   25.1827   24.2644   18.6426 C   0  0  0  0  0  0  0  0  0  0  0  0
   27.5144   24.6648   18.2557 C   0  0  0  0  0  0  0  0  0  0  0  0
   27.2752   24.9454   17.0645 O   0  0  0  0  0  0  0  0  0  0  0  0
   28.9154   24.6777   18.7958 C   0  0  0  0  0  0  0  0  0  0  0  0
   26.5418   24.2932   19.0886 N   0  0  0  0  0  0  0  0  0  0  0  0
   26.7597   24.0376   20.0140 H   0  0  0  0  0  0  0  0  0  0  0  0
   24.3576   23.3660   19.5729 C   0  0  0  0  0  0  0  0  0  0  0  0
   22.9703   23.7813   19.4975 O   0  0  0  0  0  0  0  0  0  0  0  0
   24.8598   23.4615   21.0258 C   0  0  0  0  0  0  0  0  0  0  0  0
   22.8935   24.7056   19.7816 H   0  0  0  0  0  0  0  0  0  0  0  0
   23.2322   27.7557   16.0660 C   0  0  0  0  0  0  0  0  0  0  0  0
   21.9952   28.3447   15.3976 C   0  0  0  0  0  0  0  0  0  0  0  0
   24.3508   28.7789   16.1742 C   0  0  0  0  0  0  0  0  0  0  0  0
   25.7590   28.2464   16.0608 C   0  0  0  0  0  0  0  0  0  0  0  0
   19.2167   24.6917   15.6503 C   0  0  0  0  0  0  0  0  0  0  0  0
   20.1083   25.0553   14.4952 C   0  0  0  0  0  0  0  0  0  0  0  0
   19.4538   25.7986   13.3926 C   0  0  0  0  0  0  0  0  0  0  0  0
   18.3045   26.6971   13.8547 C   0  0  0  0  0  0  0  0  0  0  0  0
   17.0423   22.9961   19.9526 C   0  0  0  0  0  0  0  0  0  0  0  0
   17.6683   23.4194   21.2472 C   0  0  0  0  0  0  0  0  0  0  0  0
   19.0972   22.9248   21.4131 C   0  0  0  0  0  0  0  0  0  0  0  0
   19.1219   21.5357   22.0622 C   0  0  0  0  0  0  0  0  0  0  0  0
 50 51  2  0  0  0
 50 52  1  0  0  0
 53 49  1  0  0  0
 49 45  1  0  0  0
 49 55  1  0  0  0
 45 46  2  0  0  0
 55 56  1  0  0  0
 55 57  1  0  0  0
 47 44  1  0  0  0
 44 40  1  0  0  0
 44 59  1  0  0  0
 40 41  2  0  0  0
 59 61  1  0  0  0
 59 60  1  0  0  0
 61 62  1  0  0  0
 42 39  1  0  0  0
 39 38  1  0  0  0
 39 63  1  0  0  0
 63 64  1  0  0  0
 64 65  1  0  0  0
 65 66  1  0  0  0
 36  1  1  0  0  0
  1  2  1  0  0  0
  1 67  1  0  0  0
  2  3  2  0  0  0
 67 68  1  0  0  0
 68 69  1  0  0  0
 69 70  1  0  0  0
  4  6  1  0  0  0
  6  7  1  0  0  0
  6 29  1  0  0  0
  7  8  2  0  0  0
 29 30  1  0  0  0
 30 31  1  0  0  0
 31 32  2  0  0  0
 31 33  1  0  0  0
  9 11  1  0  0  0
 11 12  1  0  0  0
 11 17  1  0  0  0
 12 13  2  0  0  0
 17 18  1  0  0  0
 18 19  1  0  0  0
 19 20  1  0  0  0
 20 22  1  0  0  0
 22 23  1  0  0  0
 22 24  2  0  0  0
 50 53  1  0  0  0
 45 47  1  0  0  0
 40 42  1  0  0  0
 38 36  1  0  0  0
  2  4  1  0  0  0
  7  9  1  0  0  0
 12 14  1  0  0  0
 53 54  1  0  0  0
 56 58  1  0  0  0
 47 48  1  0  0  0
 42 43  1  0  0  0
 36 37  1  0  0  0
  4  5  1  0  0  0
 33 34  1  0  0  0
 33 35  1  0  0  0
  9 10  1  0  0  0
 20 21  1  0  0  0
 23 25  1  0  0  0
 23 26  1  0  0  0
 24 27  1  0  0  0
 24 28  1  0  0  0
 14 15  1  0  0  0
 14 16  1  0  0  0
M  CHG 1  24   1
M  END
> <minimizedAffinity>
-7.87759

$$$$
2AVQ_2NC_B_300


 70 69  0  0  0  0  0  0  0  0999 V2000
   17.9031   23.9356   17.5183 C   0  0  0  0  0  0  0  0  0  0  0  0
   18.9086   24.4047   18.5360 C   0  0  0  0  0  0  0  0  0  0  0  0
   18.7330   24.2661   19.7613 O   0  0  0  0  0  0  0  0  0  0  0  0
   19.9770   25.0095   18.0756 N   0  0  0  0  0  0  0  0  0  0  0  0
   20.1102   25.0923   17.1037 H   0  0  0  0  0  0  0  0  0  0  0  0
   20.9814   25.5669   19.0013 C   0  0  0  0  0  0  0  0  0  0  0  0
   21.3769   26.9398   18.4620 C   0  0  0  0  0  0  0  0  0  0  0  0
   21.0564   28.0045   19.0118 O   0  0  0  0  0  0  0  0  0  0  0  0
   21.9439   26.9078   17.2862 N   0  0  0  0  0  0  0  0  0  0  0  0
   22.0881   26.0410   16.8423 H   0  0  0  0  0  0  0  0  0  0  0  0
   22.3643   28.1246   16.6236 C   0  0  0  0  0  0  0  0  0  0  0  0
   21.5894   28.2589   15.3364 C   0  0  0  0  0  0  0  0  0  0  0  0
   20.4262   28.6075   15.3264 O   0  0  0  0  0  0  0  0  0  0  0  0
   21.9688   28.0818   14.5354 N   0  0  0  0  0  0  0  0  0  0  0  0
   22.9096   27.7955   14.4889 H   0  0  0  0  0  0  0  0  0  0  0  0
   21.4413   28.1751   13.7094 H   0  0  0  0  0  0  0  0  0  0  0  0
   23.8468   28.0360   16.3013 C   0  0  0  0  0  0  0  0  0  0  0  0
   24.4344   26.6723   16.6551 C   0  0  0  0  0  0  0  0  0  0  0  0
   25.6598   26.3241   15.8232 C   0  0  0  0  0  0  0  0  0  0  0  0
   26.5914   25.4563   16.5458 N   0  0  0  0  0  0  0  0  0  0  0  0
   26.2041   24.7906   17.1591 H   0  0  0  0  0  0  0  0  0  0  0  0
   27.9154   25.4916   16.4436 C   0  0  0  0  0  0  0  0  0  0  0  0
   28.6338   25.2341   17.5315 N   0  0  0  0  0  0  0  0  0  0  0  0
   28.5240   25.7761   15.2933 N   0  0  0  0  0  0  0  0  0  0  0  0
   28.1828   25.0240   18.3810 H   0  0  0  0  0  0  0  0  0  0  0  0
   29.6172   25.2534   17.4879 H   0  0  0  0  0  0  0  0  0  0  0  0
   27.9906   25.9666   14.4881 H   0  0  0  0  0  0  0  0  0  0  0  0
   29.5073   25.7957   15.2484 H   0  0  0  0  0  0  0  0  0  0  0  0
   22.1363   24.6180   19.1866 C   0  0  0  0  0  0  0  0  0  0  0  0
   23.3401   25.1508   19.8812 C   0  0  0  0  0  0  0  0  0  0  0  0
   24.6643   24.5060   19.4528 C   0  0  0  0  0  0  0  0  0  0  0  0
   25.6868   25.1150   19.6201 O   0  0  0  0  0  0  0  0  0  0  0  0
   24.6310   23.2939   18.9491 N   0  0  0  0  0  0  0  0  0  0  0  0
   23.7689   22.8337   18.8303 H   0  0  0  0  0  0  0  0  0  0  0  0
   25.4682   22.8454   18.6901 H   0  0  0  0  0  0  0  0  0  0  0  0
   16.5589   24.4471   17.8183 N   0  0  0  0  0  0  0  0  0  0  0  0
   16.1845   24.7794   16.9296 H   0  0  0  0  0  0  0  0  0  0  0  0
   15.5663   23.6975   18.3813 C   0  0  0  0  0  0  0  0  0  0  0  0
   15.0144   22.5617   17.5141 C   0  0  0  0  0  0  0  0  0  0  0  0
   13.9201   20.5870   18.3894 C   0  0  0  0  0  0  0  0  0  0  0  0
   14.9930   19.9550   18.2707 O   0  0  0  0  0  0  0  0  0  0  0  0
   13.8669   21.8655   18.1155 N   0  0  0  0  0  0  0  0  0  0  0  0
   13.0452   22.3696   18.3153 H   0  0  0  0  0  0  0  0  0  0  0  0
   12.6646   19.9072   18.8517 C   0  0  0  0  0  0  0  0  0  0  0  0
   10.9686   19.2203   17.2609 C   0  0  0  0  0  0  0  0  0  0  0  0
   10.1870   20.0632   17.6819 O   0  0  0  0  0  0  0  0  0  0  0  0
   12.1829   19.0975   17.7492 N   0  0  0  0  0  0  0  0  0  0  0  0
   12.7881   18.4306   17.3515 H   0  0  0  0  0  0  0  0  0  0  0  0
   10.5693   18.2794   16.1091 C   0  0  0  0  0  0  0  0  0  0  0  0
   11.6445   18.3401   13.9673 C   0  0  0  0  0  0  0  0  0  0  0  0
   10.7397   19.0765   13.5266 O   0  0  0  0  0  0  0  0  0  0  0  0
   12.7786   17.8870   13.0937 C   0  0  0  0  0  0  0  0  0  0  0  0
   11.6175   17.8831   15.2196 N   0  0  0  0  0  0  0  0  0  0  0  0
   12.3215   17.2707   15.5333 H   0  0  0  0  0  0  0  0  0  0  0  0
    9.9473   17.0343   16.7541 C   0  0  0  0  0  0  0  0  0  0  0  0
    9.9754   17.2030   18.1941 O   0  0  0  0  0  0  0  0  0  0  0  0
   10.7157   15.7603   16.3559 C   0  0  0  0  0  0  0  0  0  0  0  0
   10.8938   17.3014   18.4903 H   0  0  0  0  0  0  0  0  0  0  0  0
   12.8715   19.0912   20.1508 C   0  0  0  0  0  0  0  0  0  0  0  0
   11.5510   18.7671   20.8401 C   0  0  0  0  0  0  0  0  0  0  0  0
   13.7276   17.8487   19.9687 C   0  0  0  0  0  0  0  0  0  0  0  0
   14.8562   17.6625   20.9539 C   0  0  0  0  0  0  0  0  0  0  0  0
   14.6236   23.0449   16.1357 C   0  0  0  0  0  0  0  0  0  0  0  0
   15.0082   22.1620   14.9807 C   0  0  0  0  0  0  0  0  0  0  0  0
   13.9195   21.3206   14.4298 C   0  0  0  0  0  0  0  0  0  0  0  0
   12.5182   21.8688   14.7088 C   0  0  0  0  0  0  0  0  0  0  0  0
   18.3956   24.3132   16.1329 C   0  0  0  0  0  0  0  0  0  0  0  0
   17.7405   25.3534   15.2751 C   0  0  0  0  0  0  0  0  0  0  0  0
   18.6343   25.8540   14.1506 C   0  0  0  0  0  0  0  0  0  0  0  0
   20.0157   25.1913   14.2154 C   0  0  0  0  0  0  0  0  0  0  0  0
 50 51  2  0  0  0
 50 52  1  0  0  0
 53 49  1  0  0  0
 49 45  1  0  0  0
 49 55  1  0  0  0
 45 46  2  0  0  0
 55 56  1  0  0  0
 55 57  1  0  0  0
 47 44  1  0  0  0
 44 40  1  0  0  0
 44 59  1  0  0  0
 40 41  2  0  0  0
 59 61  1  0  0  0
 59 60  1  0  0  0
 61 62  1  0  0  0
 42 39  1  0  0  0
 39 38  1  0  0  0
 39 63  1  0  0  0
 63 64  1  0  0  0
 64 65  1  0  0  0
 65 66  1  0  0  0
 36  1  1  0  0  0
  1  2  1  0  0  0
  1 67  1  0  0  0
  2  3  2  0  0  0
 67 68  1  0  0  0
 68 69  1  0  0  0
 69 70  1  0  0  0
  4  6  1  0  0  0
  6  7  1  0  0  0
  6 29  1  0  0  0
  7  8  2  0  0  0
 29 30  1  0  0  0
 30 31  1  0  0  0
 31 32  2  0  0  0
 31 33  1  0  0  0
  9 11  1  0  0  0
 11 12  1  0  0  0
 11 17  1  0  0  0
 12 13  2  0  0  0
 17 18  1  0  0  0
 18 19  1  0  0  0
 19 20  1  0  0  0
 20 22  1  0  0  0
 22 23  1  0  0  0
 22 24  2  0  0  0
 50 53  1  0  0  0
 45 47  1  0  0  0
 40 42  1  0  0  0
 38 36  1  0  0  0
  2  4  1  0  0  0
  7  9  1  0  0  0
 12 14  1  0  0  0
 53 54  1  0  0  0
 56 58  1  0  0  0
 47 48  1  0  0  0
 42 43  1  0  0  0
 36 37  1  0  0  0
  4  5  1  0  0  0
 33 34  1  0  0  0
 33 35  1  0  0  0
  9 10  1  0  0  0
 20 21  1  0  0  0
 23 25  1  0  0  0
 23 26  1  0  0  0
 24 27  1  0  0  0
 24 28  1  0  0  0
 14 15  1  0  0  0
 14 16  1  0  0  0
M  CHG 1  24   1
M  END
> <minimizedAffinity>
-7.87507

$$$$
2AVQ_2NC_B_300


 70 69  0  0  0  0  0  0  0  0999 V2000
   18.1710   23.7239   16.3020 C   0  0  0  0  0  0  0  0  0  0  0  0
   18.6103   24.3894   17.5790 C   0  0  0  0  0  0  0  0  0  0  0  0
   17.8023   24.8965   18.3800 O   0  0  0  0  0  0  0  0  0  0  0  0
   19.9013   24.4494   17.8003 N   0  0  0  0  0  0  0  0  0  0  0  0
   20.5250   24.0255   17.1673 H   0  0  0  0  0  0  0  0  0  0  0  0
   20.4274   25.1462   18.9893 C   0  0  0  0  0  0  0  0  0  0  0  0
   21.5098   26.1082   18.5044 C   0  0  0  0  0  0  0  0  0  0  0  0
   22.1352   26.8658   19.2617 O   0  0  0  0  0  0  0  0  0  0  0  0
   21.6123   26.1845   17.2048 N   0  0  0  0  0  0  0  0  0  0  0  0
   21.0225   25.6344   16.6402 H   0  0  0  0  0  0  0  0  0  0  0  0
   22.5778   27.0638   16.5796 C   0  0  0  0  0  0  0  0  0  0  0  0
   21.8443   27.9816   15.6334 C   0  0  0  0  0  0  0  0  0  0  0  0
   20.7733   28.4738   15.9254 O   0  0  0  0  0  0  0  0  0  0  0  0
   22.1808   28.1899   14.8208 N   0  0  0  0  0  0  0  0  0  0  0  0
   23.0462   27.8168   14.5360 H   0  0  0  0  0  0  0  0  0  0  0  0
   21.6818   28.7899   14.2205 H   0  0  0  0  0  0  0  0  0  0  0  0
   23.5764   26.2345   15.7892 C   0  0  0  0  0  0  0  0  0  0  0  0
   25.0179   26.5137   16.2069 C   0  0  0  0  0  0  0  0  0  0  0  0
   25.2716   26.2263   17.6793 C   0  0  0  0  0  0  0  0  0  0  0  0
   25.0805   24.8128   18.0086 N   0  0  0  0  0  0  0  0  0  0  0  0
   25.3247   24.1525   17.3203 H   0  0  0  0  0  0  0  0  0  0  0  0
   24.6053   24.3461   19.1579 C   0  0  0  0  0  0  0  0  0  0  0  0
   24.1820   23.0869   19.1946 N   0  0  0  0  0  0  0  0  0  0  0  0
   24.5455   25.1028   20.2526 N   0  0  0  0  0  0  0  0  0  0  0  0
   24.2268   22.5287   18.3849 H   0  0  0  0  0  0  0  0  0  0  0  0
   23.8236   22.7123   20.0315 H   0  0  0  0  0  0  0  0  0  0  0  0
   24.8594   26.0354   20.2241 H   0  0  0  0  0  0  0  0  0  0  0  0
   24.1873   24.7294   21.0902 H   0  0  0  0  0  0  0  0  0  0  0  0
   20.8929   24.1653   20.0331 C   0  0  0  0  0  0  0  0  0  0  0  0
   19.8821   23.7087   21.0258 C   0  0  0  0  0  0  0  0  0  0  0  0
   19.3438   22.2926   20.7862 C   0  0  0  0  0  0  0  0  0  0  0  0
   19.2309   21.8985   19.6564 O   0  0  0  0  0  0  0  0  0  0  0  0
   19.0583   21.5511   21.8314 N   0  0  0  0  0  0  0  0  0  0  0  0
   19.1664   21.9171   22.7389 H   0  0  0  0  0  0  0  0  0  0  0  0
   18.7362   20.6290   21.7077 H   0  0  0  0  0  0  0  0  0  0  0  0
   17.2237   22.6322   16.5652 N   0  0  0  0  0  0  0  0  0  0  0  0
   17.5751   22.1550   17.3954 H   0  0  0  0  0  0  0  0  0  0  0  0
   15.8885   22.8173   16.7816 C   0  0  0  0  0  0  0  0  0  0  0  0
   14.9486   21.9851   15.9037 C   0  0  0  0  0  0  0  0  0  0  0  0
   13.7727   21.1688   17.8567 C   0  0  0  0  0  0  0  0  0  0  0  0
   13.8473   22.3101   18.3632 O   0  0  0  0  0  0  0  0  0  0  0  0
   14.2142   20.9484   16.6447 N   0  0  0  0  0  0  0  0  0  0  0  0
   14.0520   20.0742   16.2219 H   0  0  0  0  0  0  0  0  0  0  0  0
   13.1740   20.0198   18.6140 C   0  0  0  0  0  0  0  0  0  0  0  0
   11.1536   19.0959   17.6429 C   0  0  0  0  0  0  0  0  0  0  0  0
   10.4518   19.7343   18.4165 O   0  0  0  0  0  0  0  0  0  0  0  0
   12.4643   19.1956   17.6548 N   0  0  0  0  0  0  0  0  0  0  0  0
   12.9837   18.6916   16.9874 H   0  0  0  0  0  0  0  0  0  0  0  0
   10.5232   18.1633   16.5920 C   0  0  0  0  0  0  0  0  0  0  0  0
   10.8676   18.5017   14.2438 C   0  0  0  0  0  0  0  0  0  0  0  0
    9.8066   19.1532   14.1754 O   0  0  0  0  0  0  0  0  0  0  0  0
   11.7102   18.2499   13.0268 C   0  0  0  0  0  0  0  0  0  0  0  0
   11.2743   17.9586   15.3916 N   0  0  0  0  0  0  0  0  0  0  0  0
   12.0946   17.4146   15.4132 H   0  0  0  0  0  0  0  0  0  0  0  0
   10.2885   16.8150   17.2852 C   0  0  0  0  0  0  0  0  0  0  0  0
   11.5729   16.2836   17.6982 O   0  0  0  0  0  0  0  0  0  0  0  0
    9.5836   15.8216   16.3426 C   0  0  0  0  0  0  0  0  0  0  0  0
   12.1364   16.1576   16.9189 H   0  0  0  0  0  0  0  0  0  0  0  0
   14.2271   19.2263   19.4250 C   0  0  0  0  0  0  0  0  0  0  0  0
   15.2279   20.1445   20.1172 C   0  0  0  0  0  0  0  0  0  0  0  0
   13.6288   18.2191   20.3933 C   0  0  0  0  0  0  0  0  0  0  0  0
   12.5212   18.7246   21.2860 C   0  0  0  0  0  0  0  0  0  0  0  0
   13.9549   22.8517   15.1636 C   0  0  0  0  0  0  0  0  0  0  0  0
   13.1915   22.1943   14.0472 C   0  0  0  0  0  0  0  0  0  0  0  0
   13.9372   21.1673   13.2819 C   0  0  0  0  0  0  0  0  0  0  0  0
   14.5949   21.7062   12.0096 C   0  0  0  0  0  0  0  0  0  0  0  0
   17.6236   24.7822   15.3612 C   0  0  0  0  0  0  0  0  0  0  0  0
   18.4052   25.9822   14.9185 C   0  0  0  0  0  0  0  0  0  0  0  0
   19.2081   25.7409   13.6492 C   0  0  0  0  0  0  0  0  0  0  0  0
   20.5218   25.0152   13.9642 C   0  0  0  0  0  0  0  0  0  0  0  0
 50 51  2  0  0  0
 50 52  1  0  0  0
 53 49  1  0  0  0
 49 45  1  0  0  0
 49 55  1  0  0  0
 45 46  2  0  0  0
 55 56  1  0  0  0
 55 57  1  0  0  0
 47 44  1  0  0  0
 44 40  1  0  0  0
 44 59  1  0  0  0
 40 41  2  0  0  0
 59 61  1  0  0  0
 59 60  1  0  0  0
 61 62  1  0  0  0
 42 39  1  0  0  0
 39 38  1  0  0  0
 39 63  1  0  0  0
 63 64  1  0  0  0
 64 65  1  0  0  0
 65 66  1  0  0  0
 36  1  1  0  0  0
  1  2  1  0  0  0
  1 67  1  0  0  0
  2  3  2  0  0  0
 67 68  1  0  0  0
 68 69  1  0  0  0
 69 70  1  0  0  0
  4  6  1  0  0  0
  6  7  1  0  0  0
  6 29  1  0  0  0
  7  8  2  0  0  0
 29 30  1  0  0  0
 30 31  1  0  0  0
 31 32  2  0  0  0
 31 33  1  0  0  0
  9 11  1  0  0  0
 11 12  1  0  0  0
 11 17  1  0  0  0
 12 13  2  0  0  0
 17 18  1  0  0  0
 18 19  1  0  0  0
 19 20  1  0  0  0
 20 22  1  0  0  0
 22 23  1  0  0  0
 22 24  2  0  0  0
 50 53  1  0  0  0
 45 47  1  0  0  0
 40 42  1  0  0  0
 38 36  1  0  0  0
  2  4  1  0  0  0
  7  9  1  0  0  0
 12 14  1  0  0  0
 53 54  1  0  0  0
 56 58  1  0  0  0
 47 48  1  0  0  0
 42 43  1  0  0  0
 36 37  1  0  0  0
  4  5  1  0  0  0
 33 34  1  0  0  0
 33 35  1  0  0  0
  9 10  1  0  0  0
 20 21  1  0  0  0
 23 25  1  0  0  0
 23 26  1  0  0  0
 24 27  1  0  0  0
 24 28  1  0  0  0
 14 15  1  0  0  0
 14 16  1  0  0  0
M  CHG 1  24   1
M  END
> <minimizedAffinity>
-7.82215

$$$$
