4OR4_M7G_A_501
  RCSB PDB12061714063D
Coordinates from PDB:4OR4:A:501 Model:1 without hydrogens
 29 31  0  0  0  0            999 V2000
   -9.9430   24.9820  -46.3540   P 0  0  0  0  0  0  0  0  0  0  0  0
  -10.1520   26.4540  -46.6510   O 0  0  0  0  0  0  0  0  0  0  0  0
   -9.0400   24.1600  -47.1610   O 0  0  0  0  0  0  0  0  0  0  0  0
  -11.4010   24.2400  -46.5160   O 0  0  0  0  0  0  0  0  0  0  0  0
   -9.5700   24.7210  -44.7750   O 0  0  0  0  0  0  0  0  0  0  0  0
  -12.7650   24.7580  -45.8110   P 0  0  0  0  0  0  0  0  0  0  0  0
  -13.0920   26.2210  -45.8450   O 0  0  0  0  0  0  0  0  0  0  0  0
  -13.8260   23.8760  -46.4280   O 0  0  0  0  0  0  0  0  0  0  0  0
  -12.8070   24.5460  -44.2240   O 0  0  0  0  0  0  0  0  0  0  0  0
   -9.2980   23.3770  -44.3750   C 0  0  0  0  0  0  0  0  0  0  0  0
   -8.2540   23.4760  -43.2620   C 0  0  0  0  0  0  0  0  0  0  0  0
   -8.3400   22.2700  -42.4910   O 0  0  0  0  0  0  0  0  0  0  0  0
   -6.8820   23.4860  -43.9240   C 0  0  0  0  0  0  0  0  0  0  0  0
   -6.0100   24.1940  -43.0540   O 0  0  0  0  0  0  0  0  0  0  0  0
   -6.5070   22.0260  -43.9060   C 0  0  0  0  0  0  0  0  0  0  0  0
   -5.0830   21.9210  -43.7600   O 0  0  0  0  0  0  0  0  0  0  0  0
   -7.1700   21.4630  -42.6360   C 0  0  0  0  0  0  0  0  0  0  0  0
   -7.2420   19.9570  -42.6860   N 0  0  0  0  0  0  0  0  0  0  0  0
   -7.8830   18.9850  -43.6930   C 0  0  0  0  0  0  0  0  0  0  0  0
   -7.9190   17.5450  -43.1140   N 0  0  0  0  0  0  0  0  0  0  0  0
   -8.4340   16.6720  -43.9380   C 0  0  0  0  0  0  0  0  0  0  0  0
   -7.7810   17.8970  -41.7420   C 0  0  0  0  0  0  0  0  0  0  0  0
   -7.9590   17.1650  -40.4970   C 0  0  0  0  0  0  0  0  0  0  0  0
   -8.2690   16.0020  -40.5990   O 0  0  0  0  0  0  0  0  0  0  0  0
   -7.7890   17.8050  -39.2880   N 0  0  0  0  0  0  0  0  0  0  0  0
   -7.4020   19.1140  -39.1590   C 0  0  0  0  0  0  0  0  0  0  0  0
   -7.2160   19.7450  -37.9550   N 0  0  0  0  0  0  0  0  0  0  0  0
   -7.2270   19.8700  -40.2700   N 0  0  0  0  0  0  0  0  0  0  0  0
   -7.4370   19.3160  -41.4990   C 0  0  0  0  0  0  0  0  0  0  0  0
  1  2  2  0  0  0  0
  1  3  1  0  0  0  0
  1  4  1  0  0  0  0
  1  5  1  0  0  0  0
  4  6  1  0  0  0  0
  5 10  1  0  0  0  0
  6  7  2  0  0  0  0
  6  8  1  0  0  0  0
  6  9  1  0  0  0  0
 10 11  1  0  0  0  0
 11 12  1  0  0  0  0
 11 13  1  0  0  0  0
 12 17  1  0  0  0  0
 13 14  1  0  0  0  0
 13 15  1  0  0  0  0
 15 16  1  0  0  0  0
 15 17  1  0  0  0  0
 17 18  1  0  0  0  0
 18 19  1  0  0  0  0
 18 29  1  0  0  0  0
 19 20  1  0  0  0  0
 20 21  1  0  0  0  0
 20 22  1  0  0  0  0
 22 23  1  0  0  0  0
 22 29  2  0  0  0  0
 23 24  2  0  0  0  0
 23 25  1  0  0  0  0
 25 26  1  0  0  0  0
 26 27  1  0  0  0  0
 26 28  2  0  0  0  0
 28 29  1  0  0  0  0
A    1
PA
A    2
O1A
A    3
O2A
A    4
O3A
A    5
O5'
A    6
PB
A    7
O1B
A    8
O2B
A    9
O3B
A   10
C5'
A   11
C4'
A   12
O4'
A   13
C3'
A   14
O3'
A   15
C2'
A   16
O2'
A   17
C1'
A   18
N9
A   19
C8
A   20
N7
A   21
CM7
A   22
C5
A   23
C6
A   24
O6
A   25
N1
A   26
C2
A   27
N2
A   28
N3
A   29
C4
M  END
>  <InstanceId>
4OR4_M7G_A_501

>  <ChemCompId>
M7G

>  <PdbId>
4OR4

>  <ChainId>
A

>  <ResidueNumber>
501

>  <InsertionCode>


>  <Model>
1

>  <AltIds>


>  <MissingHeavyAtoms>
0

>  <ObservedFormula>
C11 N5 O11 P2

>  <Name>
7N-METHYL-8-HYDROGUANOSINE-5'-DIPHOSPHATE

>  <SystematicName>
[(2R,3S,4R,5R)-5-(2-amino-7-methyl-6-oxo-1,8-dihydropurin-9-yl)-3,4-dihydroxy-oxolan-2-yl]methyl phosphono hydrogen phosphate

>  <Synonyms>


>  <Type>
NON-POLYMER

>  <Formula>
C11 H19 N5 O11 P2

>  <MolecularWeight>
459.243

>  <ModifiedDate>
2011-06-04

>  <Parent>


>  <OneLetterCode>


>  <SubcomponentList>


>  <AmbiguousFlag>
N

>  <InChI>
InChI=1S/C11H19N5O11P2/c1-15-3-16(8-5(15)9(19)14-11(12)13-8)10-7(18)6(17)4(26-10)2-25-29(23,24)27-28(20,21)22/h4,6-7,10,17-18H,2-3H2,1H3,(H,23,24)(H2,20,21,22)(H3,12,13,14,19)/t4-,6-,7-,10-/m1/s1

>  <InChIKey>
QQODJOAVWUWVHJ-KQYNXXCUSA-N

>  <SMILES>
CN1CN(C2=C1C(=O)NC(=N2)N)[C@H]3[C@@H]([C@@H]([C@H](O3)CO[P@](=O)(O)OP(=O)(O)O)O)O

$$$$
