5N3V_8L5_E_406


 32 32  0  0  0  0  0  0  0  0999 V2000
   10.7138   40.3956   -5.8484 O   0  0  0  0  0  0  0  0  0  0  0  0
   10.8780   38.9303   -5.5042 P   0  0  0  0  0  0  0  0  0  0  0  0
    9.6657   38.1435   -5.9165 O   0  0  0  0  0  0  0  0  0  0  0  0
    8.8805   38.5052   -5.4765 H   0  0  0  0  0  0  0  0  0  0  0  0
   11.2469   38.8416   -3.8808 N   0  0  0  0  0  0  0  0  0  0  0  0
   11.6813   39.7292   -3.6282 H   0  0  0  0  0  0  0  0  0  0  0  0
   10.1841   38.5967   -2.9031 C   0  0  0  0  0  0  0  0  0  0  0  0
    8.9500   39.4296   -3.2080 C   0  0  0  0  0  0  0  0  0  0  0  0
    7.8892   38.9623   -3.4970 O   0  0  0  0  0  0  0  0  0  0  0  0
    9.1201   40.8189   -3.0438 N   0  0  0  0  0  0  0  0  0  0  0  0
   10.0166   41.1532   -2.8118 H   0  0  0  0  0  0  0  0  0  0  0  0
    8.0488   41.7833   -3.1972 C   0  0  0  0  0  0  0  0  0  0  0  0
    7.5716   41.7825   -4.5285 N   0  0  0  0  0  0  0  0  0  0  0  0
    8.3304   42.0344   -5.1618 H   0  0  0  0  0  0  0  0  0  0  0  0
    6.8144   42.4599   -4.6186 H   0  0  0  0  0  0  0  0  0  0  0  0
   10.6892   39.0028   -1.5138 C   0  0  0  0  0  0  0  0  0  0  0  0
   10.3503   38.0165   -0.4050 C   0  0  0  0  0  0  0  0  0  0  0  0
    9.4539   38.6564    0.6525 C   0  0  0  0  0  0  0  0  0  0  0  0
    9.6872   36.7740   -0.9752 C   0  0  0  0  0  0  0  0  0  0  0  0
   12.3536   38.2315   -6.3465 C   0  0  0  0  0  0  0  0  0  0  0  0
   12.2241   38.4266   -7.7561 N   0  0  0  0  0  0  0  0  0  0  0  0
   13.2251   38.1204   -8.6816 C   0  0  0  0  0  0  0  0  0  0  0  0
   14.2670   37.6304   -8.3787 O   0  0  0  0  0  0  0  0  0  0  0  0
   11.3785   38.7993   -8.0957 H   0  0  0  0  0  0  0  0  0  0  0  0
   12.8108   38.4526   -9.9566 O   0  0  0  0  0  0  0  0  0  0  0  0
   13.7991   38.7617  -10.8969 C   0  0  0  0  0  0  0  0  0  0  0  0
   13.7460   37.7888  -12.0569 C   0  0  0  0  0  0  0  0  0  0  0  0
   13.3097   36.4869  -11.8773 C   0  0  0  0  0  0  0  0  0  0  0  0
   13.2763   35.6067  -12.9374 C   0  0  0  0  0  0  0  0  0  0  0  0
   13.6772   36.0089  -14.1965 C   0  0  0  0  0  0  0  0  0  0  0  0
   14.0910   37.3024  -14.3989 C   0  0  0  0  0  0  0  0  0  0  0  0
   14.1314   38.1956  -13.3393 C   0  0  0  0  0  0  0  0  0  0  0  0
 26 27  1  0  0  0
 26 25  1  0  0  0
 27 28  2  0  0  0
 27 32  1  0  0  0
 28 29  1  0  0  0
 29 30  2  0  0  0
 30 31  1  0  0  0
 31 32  2  0  0  0
  1  2  2  0  0  0
  2  5  1  0  0  0
  2  3  1  0  0  0
  2 20  1  0  0  0
  5  7  1  0  0  0
  7 16  1  0  0  0
  7  8  1  0  0  0
 16 17  1  0  0  0
 17 18  1  0  0  0
 17 19  1  0  0  0
  8  9  2  0  0  0
  8 10  1  0  0  0
 20 21  1  0  0  0
 21 22  1  0  0  0
 22 25  1  0  0  0
 22 23  2  0  0  0
 10 12  1  0  0  0
 12 13  1  0  0  0
  5  6  1  0  0  0
  3  4  1  0  0  0
 21 24  1  0  0  0
 10 11  1  0  0  0
 13 14  1  0  0  0
 13 15  1  0  0  0
M  END
> <minimizedAffinity>
-9.10467

$$$$
5N3V_8L5_E_406


 32 32  0  0  0  0  0  0  0  0999 V2000
    9.7924   38.0949   -5.4964 O   0  0  0  0  0  0  0  0  0  0  0  0
   11.1580   38.7096   -5.2729 P   0  0  0  0  0  0  0  0  0  0  0  0
   12.2442   37.7983   -5.7710 O   0  0  0  0  0  0  0  0  0  0  0  0
   12.1830   36.9436   -5.3165 H   0  0  0  0  0  0  0  0  0  0  0  0
   11.2653   39.1023   -3.6562 N   0  0  0  0  0  0  0  0  0  0  0  0
   11.4742   40.0995   -3.6082 H   0  0  0  0  0  0  0  0  0  0  0  0
   10.1231   38.8657   -2.7702 C   0  0  0  0  0  0  0  0  0  0  0  0
    9.2738   40.1167   -2.6172 C   0  0  0  0  0  0  0  0  0  0  0  0
    9.1636   40.7225   -1.5935 O   0  0  0  0  0  0  0  0  0  0  0  0
    8.6761   40.5737   -3.8089 N   0  0  0  0  0  0  0  0  0  0  0  0
    8.7920   40.0336   -4.6238 H   0  0  0  0  0  0  0  0  0  0  0  0
    7.9004   41.7947   -3.9018 C   0  0  0  0  0  0  0  0  0  0  0  0
    8.7499   42.9240   -3.8476 N   0  0  0  0  0  0  0  0  0  0  0  0
    9.2567   42.9261   -2.9624 H   0  0  0  0  0  0  0  0  0  0  0  0
    8.1908   43.7739   -3.9213 H   0  0  0  0  0  0  0  0  0  0  0  0
   10.6475   38.4853   -1.3807 C   0  0  0  0  0  0  0  0  0  0  0  0
    9.9082   37.3300   -0.7208 C   0  0  0  0  0  0  0  0  0  0  0  0
    8.9739   37.8254    0.3806 C   0  0  0  0  0  0  0  0  0  0  0  0
    9.1290   36.5314   -1.7523 C   0  0  0  0  0  0  0  0  0  0  0  0
   11.2898   40.3216   -6.1440 C   0  0  0  0  0  0  0  0  0  0  0  0
   12.1264   40.1663   -7.2919 N   0  0  0  0  0  0  0  0  0  0  0  0
   11.8686   40.7575   -8.5313 C   0  0  0  0  0  0  0  0  0  0  0  0
   10.9431   41.4793   -8.7308 O   0  0  0  0  0  0  0  0  0  0  0  0
   12.9333   39.6091   -7.2042 H   0  0  0  0  0  0  0  0  0  0  0  0
   12.8394   40.3917   -9.4432 O   0  0  0  0  0  0  0  0  0  0  0  0
   13.4565   39.1490   -9.2660 C   0  0  0  0  0  0  0  0  0  0  0  0
   13.5558   38.4163  -10.5881 C   0  0  0  0  0  0  0  0  0  0  0  0
   13.9949   39.0627  -11.7313 C   0  0  0  0  0  0  0  0  0  0  0  0
   14.0704   38.3894  -12.9316 C   0  0  0  0  0  0  0  0  0  0  0  0
   13.7095   37.0587  -13.0138 C   0  0  0  0  0  0  0  0  0  0  0  0
   13.2936   36.3946  -11.8862 C   0  0  0  0  0  0  0  0  0  0  0  0
   13.2110   37.0626  -10.6741 C   0  0  0  0  0  0  0  0  0  0  0  0
 26 27  1  0  0  0
 26 25  1  0  0  0
 27 28  2  0  0  0
 27 32  1  0  0  0
 28 29  1  0  0  0
 29 30  2  0  0  0
 30 31  1  0  0  0
 31 32  2  0  0  0
  1  2  2  0  0  0
  2  5  1  0  0  0
  2  3  1  0  0  0
  2 20  1  0  0  0
  5  7  1  0  0  0
  7 16  1  0  0  0
  7  8  1  0  0  0
 16 17  1  0  0  0
 17 18  1  0  0  0
 17 19  1  0  0  0
  8  9  2  0  0  0
  8 10  1  0  0  0
 20 21  1  0  0  0
 21 22  1  0  0  0
 22 25  1  0  0  0
 22 23  2  0  0  0
 10 12  1  0  0  0
 12 13  1  0  0  0
  5  6  1  0  0  0
  3  4  1  0  0  0
 21 24  1  0  0  0
 10 11  1  0  0  0
 13 14  1  0  0  0
 13 15  1  0  0  0
M  END
> <minimizedAffinity>
-8.36471

$$$$
5N3V_8L5_E_406


 32 32  0  0  0  0  0  0  0  0999 V2000
   10.6601   40.4514   -5.8404 O   0  0  0  0  0  0  0  0  0  0  0  0
   10.9469   38.9872   -5.5827 P   0  0  0  0  0  0  0  0  0  0  0  0
    9.8080   38.1268   -6.0531 O   0  0  0  0  0  0  0  0  0  0  0  0
    8.9928   38.3934   -5.6001 H   0  0  0  0  0  0  0  0  0  0  0  0
   11.3142   38.8323   -3.9640 N   0  0  0  0  0  0  0  0  0  0  0  0
   11.7646   39.7021   -3.6792 H   0  0  0  0  0  0  0  0  0  0  0  0
   10.2473   38.5710   -2.9951 C   0  0  0  0  0  0  0  0  0  0  0  0
    8.9996   39.3771   -3.3160 C   0  0  0  0  0  0  0  0  0  0  0  0
    7.9499   38.8869   -3.6076 O   0  0  0  0  0  0  0  0  0  0  0  0
    9.1420   40.7710   -3.1637 N   0  0  0  0  0  0  0  0  0  0  0  0
   10.0304   41.1245   -2.9290 H   0  0  0  0  0  0  0  0  0  0  0  0
    8.0536   41.7131   -3.3333 C   0  0  0  0  0  0  0  0  0  0  0  0
    7.8401   41.9780   -4.7060 N   0  0  0  0  0  0  0  0  0  0  0  0
    8.6858   42.3804   -5.1101 H   0  0  0  0  0  0  0  0  0  0  0  0
    7.0676   42.6359   -4.8092 H   0  0  0  0  0  0  0  0  0  0  0  0
   10.7308   38.9942   -1.6032 C   0  0  0  0  0  0  0  0  0  0  0  0
   10.3923   38.0118   -0.4909 C   0  0  0  0  0  0  0  0  0  0  0  0
    9.4631   38.6426    0.5435 C   0  0  0  0  0  0  0  0  0  0  0  0
    9.7664   36.7499   -1.0606 C   0  0  0  0  0  0  0  0  0  0  0  0
   12.4806   38.4681   -6.4506 C   0  0  0  0  0  0  0  0  0  0  0  0
   12.8233   39.4548   -7.4257 N   0  0  0  0  0  0  0  0  0  0  0  0
   12.8482   39.2160   -8.8022 C   0  0  0  0  0  0  0  0  0  0  0  0
   12.5463   38.1727   -9.2898 O   0  0  0  0  0  0  0  0  0  0  0  0
   13.0561   40.3572   -7.1086 H   0  0  0  0  0  0  0  0  0  0  0  0
   13.2488   40.3542   -9.4745 O   0  0  0  0  0  0  0  0  0  0  0  0
   14.5586   40.3878   -9.9641 C   0  0  0  0  0  0  0  0  0  0  0  0
   15.2689   41.6369   -9.4845 C   0  0  0  0  0  0  0  0  0  0  0  0
   14.7266   42.4274   -8.4852 C   0  0  0  0  0  0  0  0  0  0  0  0
   15.3758   43.5680   -8.0645 C   0  0  0  0  0  0  0  0  0  0  0  0
   16.5781   43.9414   -8.6326 C   0  0  0  0  0  0  0  0  0  0  0  0
   17.1429   43.1579   -9.6086 C   0  0  0  0  0  0  0  0  0  0  0  0
   16.4974   42.0098  -10.0417 C   0  0  0  0  0  0  0  0  0  0  0  0
 26 27  1  0  0  0
 26 25  1  0  0  0
 27 28  2  0  0  0
 27 32  1  0  0  0
 28 29  1  0  0  0
 29 30  2  0  0  0
 30 31  1  0  0  0
 31 32  2  0  0  0
  1  2  2  0  0  0
  2  5  1  0  0  0
  2  3  1  0  0  0
  2 20  1  0  0  0
  5  7  1  0  0  0
  7 16  1  0  0  0
  7  8  1  0  0  0
 16 17  1  0  0  0
 17 18  1  0  0  0
 17 19  1  0  0  0
  8  9  2  0  0  0
  8 10  1  0  0  0
 20 21  1  0  0  0
 21 22  1  0  0  0
 22 25  1  0  0  0
 22 23  2  0  0  0
 10 12  1  0  0  0
 12 13  1  0  0  0
  5  6  1  0  0  0
  3  4  1  0  0  0
 21 24  1  0  0  0
 10 11  1  0  0  0
 13 14  1  0  0  0
 13 15  1  0  0  0
M  END
> <minimizedAffinity>
-8.17859

$$$$
5N3V_8L5_E_406


 32 32  0  0  0  0  0  0  0  0999 V2000
   14.3747   37.0714   -8.0936 O   0  0  0  0  0  0  0  0  0  0  0  0
   13.6238   38.1732   -8.8112 P   0  0  0  0  0  0  0  0  0  0  0  0
   12.5082   37.6074   -9.6441 O   0  0  0  0  0  0  0  0  0  0  0  0
   12.8714   36.9766  -10.2854 H   0  0  0  0  0  0  0  0  0  0  0  0
   14.7466   39.0635   -9.6632 N   0  0  0  0  0  0  0  0  0  0  0  0
   15.5790   38.4808   -9.7524 H   0  0  0  0  0  0  0  0  0  0  0  0
   14.4247   39.5507  -11.0066 C   0  0  0  0  0  0  0  0  0  0  0  0
   14.7739   38.5194  -12.0669 C   0  0  0  0  0  0  0  0  0  0  0  0
   15.8848   38.3208  -12.4585 O   0  0  0  0  0  0  0  0  0  0  0  0
   13.6884   37.7370  -12.5094 N   0  0  0  0  0  0  0  0  0  0  0  0
   12.7919   37.9464  -12.1606 H   0  0  0  0  0  0  0  0  0  0  0  0
   13.8183   36.6412  -13.4493 C   0  0  0  0  0  0  0  0  0  0  0  0
   14.3860   35.5120  -12.8149 N   0  0  0  0  0  0  0  0  0  0  0  0
   15.3128   35.7505  -12.4619 H   0  0  0  0  0  0  0  0  0  0  0  0
   14.4642   34.7482  -13.4864 H   0  0  0  0  0  0  0  0  0  0  0  0
   15.2557   40.8080  -11.2874 C   0  0  0  0  0  0  0  0  0  0  0  0
   16.3157   41.1123  -10.2382 C   0  0  0  0  0  0  0  0  0  0  0  0
   17.7171   41.0967  -10.8439 C   0  0  0  0  0  0  0  0  0  0  0  0
   16.0445   42.4512   -9.5730 C   0  0  0  0  0  0  0  0  0  0  0  0
   12.9177   39.3643   -7.6038 C   0  0  0  0  0  0  0  0  0  0  0  0
   12.3305   38.6404   -6.5209 N   0  0  0  0  0  0  0  0  0  0  0  0
   11.3204   39.1478   -5.6995 C   0  0  0  0  0  0  0  0  0  0  0  0
   10.8297   40.2213   -5.8551 O   0  0  0  0  0  0  0  0  0  0  0  0
   12.6573   37.7289   -6.3427 H   0  0  0  0  0  0  0  0  0  0  0  0
   10.9894   38.2238   -4.7277 O   0  0  0  0  0  0  0  0  0  0  0  0
    9.6723   38.2252   -4.2570 C   0  0  0  0  0  0  0  0  0  0  0  0
    9.6532   38.1657   -2.7435 C   0  0  0  0  0  0  0  0  0  0  0  0
    9.3620   36.9861   -2.0790 C   0  0  0  0  0  0  0  0  0  0  0  0
    9.3360   36.9460   -0.7016 C   0  0  0  0  0  0  0  0  0  0  0  0
    9.6002   38.0817    0.0388 C   0  0  0  0  0  0  0  0  0  0  0  0
    9.9137   39.2550   -0.6019 C   0  0  0  0  0  0  0  0  0  0  0  0
    9.9399   39.3078   -1.9872 C   0  0  0  0  0  0  0  0  0  0  0  0
 26 27  1  0  0  0
 26 25  1  0  0  0
 27 28  2  0  0  0
 27 32  1  0  0  0
 28 29  1  0  0  0
 29 30  2  0  0  0
 30 31  1  0  0  0
 31 32  2  0  0  0
  1  2  2  0  0  0
  2  5  1  0  0  0
  2  3  1  0  0  0
  2 20  1  0  0  0
  5  7  1  0  0  0
  7 16  1  0  0  0
  7  8  1  0  0  0
 16 17  1  0  0  0
 17 18  1  0  0  0
 17 19  1  0  0  0
  8  9  2  0  0  0
  8 10  1  0  0  0
 20 21  1  0  0  0
 21 22  1  0  0  0
 22 25  1  0  0  0
 22 23  2  0  0  0
 10 12  1  0  0  0
 12 13  1  0  0  0
  5  6  1  0  0  0
  3  4  1  0  0  0
 21 24  1  0  0  0
 10 11  1  0  0  0
 13 14  1  0  0  0
 13 15  1  0  0  0
M  END
> <minimizedAffinity>
-7.86216

$$$$
5N3V_8L5_E_406


 32 32  0  0  0  0  0  0  0  0999 V2000
   11.1100   40.7727   -8.1320 O   0  0  0  0  0  0  0  0  0  0  0  0
   12.1552   40.0698   -7.2917 P   0  0  0  0  0  0  0  0  0  0  0  0
   12.4671   40.8602   -6.0522 O   0  0  0  0  0  0  0  0  0  0  0  0
   12.7773   41.7446   -6.3022 H   0  0  0  0  0  0  0  0  0  0  0  0
   13.4665   39.7749   -8.2780 N   0  0  0  0  0  0  0  0  0  0  0  0
   14.1444   39.2557   -7.7200 H   0  0  0  0  0  0  0  0  0  0  0  0
   13.2878   39.0310   -9.5271 C   0  0  0  0  0  0  0  0  0  0  0  0
   14.1178   37.7580   -9.5359 C   0  0  0  0  0  0  0  0  0  0  0  0
   14.5492   37.2406   -8.5493 O   0  0  0  0  0  0  0  0  0  0  0  0
   14.2802   37.1680  -10.8055 N   0  0  0  0  0  0  0  0  0  0  0  0
   13.9113   37.6389  -11.5874 H   0  0  0  0  0  0  0  0  0  0  0  0
   14.9602   35.9067  -11.0242 C   0  0  0  0  0  0  0  0  0  0  0  0
   14.4408   35.2586  -12.1688 N   0  0  0  0  0  0  0  0  0  0  0  0
   13.4468   35.0740  -12.0333 H   0  0  0  0  0  0  0  0  0  0  0  0
   14.9336   34.3773  -12.3135 H   0  0  0  0  0  0  0  0  0  0  0  0
   13.7623   39.9052  -10.6937 C   0  0  0  0  0  0  0  0  0  0  0  0
   15.0095   40.7271  -10.4009 C   0  0  0  0  0  0  0  0  0  0  0  0
   16.1336   40.3985  -11.3806 C   0  0  0  0  0  0  0  0  0  0  0  0
   14.6951   42.2132  -10.4398 C   0  0  0  0  0  0  0  0  0  0  0  0
   11.5698   38.3997   -6.7989 C   0  0  0  0  0  0  0  0  0  0  0  0
   11.7260   38.2467   -5.3869 N   0  0  0  0  0  0  0  0  0  0  0  0
   10.6975   38.4443   -4.4619 C   0  0  0  0  0  0  0  0  0  0  0  0
    9.5827   38.7217   -4.7741 O   0  0  0  0  0  0  0  0  0  0  0  0
   12.6118   37.9864   -5.0450 H   0  0  0  0  0  0  0  0  0  0  0  0
   11.1702   38.2535   -3.1782 O   0  0  0  0  0  0  0  0  0  0  0  0
   10.7781   39.1752   -2.2019 C   0  0  0  0  0  0  0  0  0  0  0  0
    9.9476   38.4920   -1.1349 C   0  0  0  0  0  0  0  0  0  0  0  0
    9.2988   37.2960   -1.3922 C   0  0  0  0  0  0  0  0  0  0  0  0
    8.5364   36.6888   -0.4177 C   0  0  0  0  0  0  0  0  0  0  0  0
    8.4072   37.2632    0.8318 C   0  0  0  0  0  0  0  0  0  0  0  0
    9.0618   38.4370    1.1130 C   0  0  0  0  0  0  0  0  0  0  0  0
    9.8292   39.0581    0.1394 C   0  0  0  0  0  0  0  0  0  0  0  0
 26 27  1  0  0  0
 26 25  1  0  0  0
 27 28  2  0  0  0
 27 32  1  0  0  0
 28 29  1  0  0  0
 29 30  2  0  0  0
 30 31  1  0  0  0
 31 32  2  0  0  0
  1  2  2  0  0  0
  2  5  1  0  0  0
  2  3  1  0  0  0
  2 20  1  0  0  0
  5  7  1  0  0  0
  7 16  1  0  0  0
  7  8  1  0  0  0
 16 17  1  0  0  0
 17 18  1  0  0  0
 17 19  1  0  0  0
  8  9  2  0  0  0
  8 10  1  0  0  0
 20 21  1  0  0  0
 21 22  1  0  0  0
 22 25  1  0  0  0
 22 23  2  0  0  0
 10 12  1  0  0  0
 12 13  1  0  0  0
  5  6  1  0  0  0
  3  4  1  0  0  0
 21 24  1  0  0  0
 10 11  1  0  0  0
 13 14  1  0  0  0
 13 15  1  0  0  0
M  END
> <minimizedAffinity>
-7.84068

$$$$
5N3V_8L5_E_406


 32 32  0  0  0  0  0  0  0  0999 V2000
   12.3179   38.1775   -5.7578 O   0  0  0  0  0  0  0  0  0  0  0  0
   11.7528   38.9982   -6.8978 P   0  0  0  0  0  0  0  0  0  0  0  0
   10.6180   38.2757   -7.5677 O   0  0  0  0  0  0  0  0  0  0  0  0
   10.9296   37.4174   -7.8950 H   0  0  0  0  0  0  0  0  0  0  0  0
   13.0230   39.3861   -7.9055 N   0  0  0  0  0  0  0  0  0  0  0  0
   13.8656   38.9990   -7.4804 H   0  0  0  0  0  0  0  0  0  0  0  0
   13.0099   38.9412   -9.3009 C   0  0  0  0  0  0  0  0  0  0  0  0
   13.9062   37.7307   -9.5035 C   0  0  0  0  0  0  0  0  0  0  0  0
   14.4991   37.1889   -8.6191 O   0  0  0  0  0  0  0  0  0  0  0  0
   13.9287   37.2265  -10.8194 N   0  0  0  0  0  0  0  0  0  0  0  0
   13.4285   37.7146  -11.5128 H   0  0  0  0  0  0  0  0  0  0  0  0
   14.6473   36.0293  -11.2089 C   0  0  0  0  0  0  0  0  0  0  0  0
   13.8248   35.1971  -12.0032 N   0  0  0  0  0  0  0  0  0  0  0  0
   13.0007   34.9233  -11.4682 H   0  0  0  0  0  0  0  0  0  0  0  0
   14.3461   34.3635  -12.2750 H   0  0  0  0  0  0  0  0  0  0  0  0
   13.5478   40.0728  -10.1843 C   0  0  0  0  0  0  0  0  0  0  0  0
   14.9486   40.5456   -9.8224 C   0  0  0  0  0  0  0  0  0  0  0  0
   15.8906   40.4599  -11.0210 C   0  0  0  0  0  0  0  0  0  0  0  0
   14.9135   41.9648   -9.2809 C   0  0  0  0  0  0  0  0  0  0  0  0
   11.1445   40.6198   -6.2851 C   0  0  0  0  0  0  0  0  0  0  0  0
   10.1739   40.3987   -5.2601 N   0  0  0  0  0  0  0  0  0  0  0  0
    9.2657   41.3665   -4.8233 C   0  0  0  0  0  0  0  0  0  0  0  0
    9.1945   42.4564   -5.2970 O   0  0  0  0  0  0  0  0  0  0  0  0
   10.1432   39.5108   -4.8360 H   0  0  0  0  0  0  0  0  0  0  0  0
    8.4851   40.8592   -3.8030 O   0  0  0  0  0  0  0  0  0  0  0  0
    8.4290   39.4686   -3.6629 C   0  0  0  0  0  0  0  0  0  0  0  0
    9.0245   39.0479   -2.3352 C   0  0  0  0  0  0  0  0  0  0  0  0
    9.4435   39.9895   -1.4102 C   0  0  0  0  0  0  0  0  0  0  0  0
    9.9945   39.5955   -0.2100 C   0  0  0  0  0  0  0  0  0  0  0  0
   10.1378   38.2549    0.0902 C   0  0  0  0  0  0  0  0  0  0  0  0
    9.7071   37.3066   -0.8045 C   0  0  0  0  0  0  0  0  0  0  0  0
    9.1538   37.6914   -2.0162 C   0  0  0  0  0  0  0  0  0  0  0  0
 26 27  1  0  0  0
 26 25  1  0  0  0
 27 28  2  0  0  0
 27 32  1  0  0  0
 28 29  1  0  0  0
 29 30  2  0  0  0
 30 31  1  0  0  0
 31 32  2  0  0  0
  1  2  2  0  0  0
  2  5  1  0  0  0
  2  3  1  0  0  0
  2 20  1  0  0  0
  5  7  1  0  0  0
  7 16  1  0  0  0
  7  8  1  0  0  0
 16 17  1  0  0  0
 17 18  1  0  0  0
 17 19  1  0  0  0
  8  9  2  0  0  0
  8 10  1  0  0  0
 20 21  1  0  0  0
 21 22  1  0  0  0
 22 25  1  0  0  0
 22 23  2  0  0  0
 10 12  1  0  0  0
 12 13  1  0  0  0
  5  6  1  0  0  0
  3  4  1  0  0  0
 21 24  1  0  0  0
 10 11  1  0  0  0
 13 14  1  0  0  0
 13 15  1  0  0  0
M  END
> <minimizedAffinity>
-7.76757

$$$$
5N3V_8L5_E_406


 32 32  0  0  0  0  0  0  0  0999 V2000
   12.6060   42.4498   -8.3373 O   0  0  0  0  0  0  0  0  0  0  0  0
   12.6654   41.4045   -7.2435 P   0  0  0  0  0  0  0  0  0  0  0  0
   13.5110   41.8778   -6.0948 O   0  0  0  0  0  0  0  0  0  0  0  0
   14.4044   42.0810   -6.4132 H   0  0  0  0  0  0  0  0  0  0  0  0
   13.1780   39.9820   -7.9458 N   0  0  0  0  0  0  0  0  0  0  0  0
   12.4293   39.3018   -7.8146 H   0  0  0  0  0  0  0  0  0  0  0  0
   13.5303   39.9552   -9.3672 C   0  0  0  0  0  0  0  0  0  0  0  0
   13.1877   38.6149   -9.9964 C   0  0  0  0  0  0  0  0  0  0  0  0
   12.4851   37.7992   -9.4784 O   0  0  0  0  0  0  0  0  0  0  0  0
   13.6974   38.4256  -11.2966 N   0  0  0  0  0  0  0  0  0  0  0  0
   14.2772   39.1255  -11.6750 H   0  0  0  0  0  0  0  0  0  0  0  0
   13.4156   37.2580  -12.1080 C   0  0  0  0  0  0  0  0  0  0  0  0
   13.7281   36.0762  -11.3969 N   0  0  0  0  0  0  0  0  0  0  0  0
   14.7196   36.0756  -11.1577 H   0  0  0  0  0  0  0  0  0  0  0  0
   13.5179   35.2644  -11.9775 H   0  0  0  0  0  0  0  0  0  0  0  0
   15.0432   40.1616   -9.5042 C   0  0  0  0  0  0  0  0  0  0  0  0
   15.4433   41.4198  -10.2615 C   0  0  0  0  0  0  0  0  0  0  0  0
   14.3054   41.9195  -11.1485 C   0  0  0  0  0  0  0  0  0  0  0  0
   15.8781   42.5114   -9.2982 C   0  0  0  0  0  0  0  0  0  0  0  0
   10.9788   41.0250   -6.6221 C   0  0  0  0  0  0  0  0  0  0  0  0
   11.0823   40.1882   -5.4684 N   0  0  0  0  0  0  0  0  0  0  0  0
   11.0161   38.7931   -5.5077 C   0  0  0  0  0  0  0  0  0  0  0  0
   10.9054   38.1726   -6.5177 O   0  0  0  0  0  0  0  0  0  0  0  0
   11.2080   40.6209   -4.5930 H   0  0  0  0  0  0  0  0  0  0  0  0
   11.1144   38.2769   -4.2304 O   0  0  0  0  0  0  0  0  0  0  0  0
   10.8279   39.1345   -3.1632 C   0  0  0  0  0  0  0  0  0  0  0  0
   10.1153   38.3819   -2.0584 C   0  0  0  0  0  0  0  0  0  0  0  0
   10.0398   38.8989   -0.7760 C   0  0  0  0  0  0  0  0  0  0  0  0
    9.3989   38.2003    0.2243 C   0  0  0  0  0  0  0  0  0  0  0  0
    8.8213   36.9730   -0.0358 C   0  0  0  0  0  0  0  0  0  0  0  0
    8.8658   36.4547   -1.3066 C   0  0  0  0  0  0  0  0  0  0  0  0
    9.5103   37.1474   -2.3201 C   0  0  0  0  0  0  0  0  0  0  0  0
 26 27  1  0  0  0
 26 25  1  0  0  0
 27 28  2  0  0  0
 27 32  1  0  0  0
 28 29  1  0  0  0
 29 30  2  0  0  0
 30 31  1  0  0  0
 31 32  2  0  0  0
  1  2  2  0  0  0
  2  5  1  0  0  0
  2  3  1  0  0  0
  2 20  1  0  0  0
  5  7  1  0  0  0
  7 16  1  0  0  0
  7  8  1  0  0  0
 16 17  1  0  0  0
 17 18  1  0  0  0
 17 19  1  0  0  0
  8  9  2  0  0  0
  8 10  1  0  0  0
 20 21  1  0  0  0
 21 22  1  0  0  0
 22 25  1  0  0  0
 22 23  2  0  0  0
 10 12  1  0  0  0
 12 13  1  0  0  0
  5  6  1  0  0  0
  3  4  1  0  0  0
 21 24  1  0  0  0
 10 11  1  0  0  0
 13 14  1  0  0  0
 13 15  1  0  0  0
M  END
> <minimizedAffinity>
-7.68670

$$$$
5N3V_8L5_E_406


 32 32  0  0  0  0  0  0  0  0999 V2000
   11.3872   40.4564   -6.2359 O   0  0  0  0  0  0  0  0  0  0  0  0
   11.2917   38.9454   -6.2520 P   0  0  0  0  0  0  0  0  0  0  0  0
   10.1140   38.4912   -7.0677 O   0  0  0  0  0  0  0  0  0  0  0  0
    9.3010   38.8746   -6.7031 H   0  0  0  0  0  0  0  0  0  0  0  0
   11.2790   38.4335   -4.6654 N   0  0  0  0  0  0  0  0  0  0  0  0
   12.2525   38.3744   -4.3668 H   0  0  0  0  0  0  0  0  0  0  0  0
   10.5715   39.2182   -3.6509 C   0  0  0  0  0  0  0  0  0  0  0  0
   10.4206   38.4385   -2.3552 C   0  0  0  0  0  0  0  0  0  0  0  0
   11.2541   38.4054   -1.5000 O   0  0  0  0  0  0  0  0  0  0  0  0
    9.1709   37.8090   -2.1872 N   0  0  0  0  0  0  0  0  0  0  0  0
    8.5215   37.8606   -2.9254 H   0  0  0  0  0  0  0  0  0  0  0  0
    8.7882   37.0898   -0.9883 C   0  0  0  0  0  0  0  0  0  0  0  0
    9.3964   35.8133   -0.9637 N   0  0  0  0  0  0  0  0  0  0  0  0
    9.0936   35.2767   -1.7765 H   0  0  0  0  0  0  0  0  0  0  0  0
    9.1237   35.3231   -0.1118 H   0  0  0  0  0  0  0  0  0  0  0  0
    9.1647   39.5394   -4.1685 C   0  0  0  0  0  0  0  0  0  0  0  0
    8.6540   40.9233   -3.7933 C   0  0  0  0  0  0  0  0  0  0  0  0
    8.9151   41.9328   -4.9088 C   0  0  0  0  0  0  0  0  0  0  0  0
    7.1721   40.8775   -3.4612 C   0  0  0  0  0  0  0  0  0  0  0  0
   12.8206   38.2101   -6.9567 C   0  0  0  0  0  0  0  0  0  0  0  0
   12.7218   38.2013   -8.3821 N   0  0  0  0  0  0  0  0  0  0  0  0
   13.6865   37.6481   -9.2280 C   0  0  0  0  0  0  0  0  0  0  0  0
   14.6644   37.0970   -8.8312 O   0  0  0  0  0  0  0  0  0  0  0  0
   11.9258   38.6096   -8.7931 H   0  0  0  0  0  0  0  0  0  0  0  0
   13.3195   37.8260  -10.5476 O   0  0  0  0  0  0  0  0  0  0  0  0
   13.2017   36.6830  -11.3451 C   0  0  0  0  0  0  0  0  0  0  0  0
   13.6326   36.9844  -12.7657 C   0  0  0  0  0  0  0  0  0  0  0  0
   13.5875   36.0089  -13.7475 C   0  0  0  0  0  0  0  0  0  0  0  0
   13.9929   36.2909  -15.0343 C   0  0  0  0  0  0  0  0  0  0  0  0
   14.4506   37.5512  -15.3657 C   0  0  0  0  0  0  0  0  0  0  0  0
   14.4808   38.5379  -14.4113 C   0  0  0  0  0  0  0  0  0  0  0  0
   14.0782   38.2648  -13.1129 C   0  0  0  0  0  0  0  0  0  0  0  0
 26 27  1  0  0  0
 26 25  1  0  0  0
 27 28  2  0  0  0
 27 32  1  0  0  0
 28 29  1  0  0  0
 29 30  2  0  0  0
 30 31  1  0  0  0
 31 32  2  0  0  0
  1  2  2  0  0  0
  2  5  1  0  0  0
  2  3  1  0  0  0
  2 20  1  0  0  0
  5  7  1  0  0  0
  7 16  1  0  0  0
  7  8  1  0  0  0
 16 17  1  0  0  0
 17 18  1  0  0  0
 17 19  1  0  0  0
  8  9  2  0  0  0
  8 10  1  0  0  0
 20 21  1  0  0  0
 21 22  1  0  0  0
 22 25  1  0  0  0
 22 23  2  0  0  0
 10 12  1  0  0  0
 12 13  1  0  0  0
  5  6  1  0  0  0
  3  4  1  0  0  0
 21 24  1  0  0  0
 10 11  1  0  0  0
 13 14  1  0  0  0
 13 15  1  0  0  0
M  END
> <minimizedAffinity>
-7.54862

$$$$
5N3V_8L5_E_406


 32 32  0  0  0  0  0  0  0  0999 V2000
   10.6770   41.5281   -8.7984 O   0  0  0  0  0  0  0  0  0  0  0  0
   12.1158   41.6374   -8.3397 P   0  0  0  0  0  0  0  0  0  0  0  0
   12.3480   42.9281   -7.6057 O   0  0  0  0  0  0  0  0  0  0  0  0
   12.1229   43.6738   -8.1837 H   0  0  0  0  0  0  0  0  0  0  0  0
   13.0809   41.4156   -9.6808 N   0  0  0  0  0  0  0  0  0  0  0  0
   13.5120   42.3169   -9.8863 H   0  0  0  0  0  0  0  0  0  0  0  0
   14.1614   40.4272   -9.6472 C   0  0  0  0  0  0  0  0  0  0  0  0
   15.5101   41.0732   -9.9173 C   0  0  0  0  0  0  0  0  0  0  0  0
   15.9009   42.0526   -9.3558 O   0  0  0  0  0  0  0  0  0  0  0  0
   16.3238   40.3793  -10.8354 N   0  0  0  0  0  0  0  0  0  0  0  0
   15.9513   39.5816  -11.2760 H   0  0  0  0  0  0  0  0  0  0  0  0
   17.6783   40.7746  -11.1671 C   0  0  0  0  0  0  0  0  0  0  0  0
   17.6855   42.0557  -11.7659 N   0  0  0  0  0  0  0  0  0  0  0  0
   17.1331   42.0335  -12.6230 H   0  0  0  0  0  0  0  0  0  0  0  0
   18.6449   42.3226  -11.9866 H   0  0  0  0  0  0  0  0  0  0  0  0
   13.9134   39.3880  -10.7467 C   0  0  0  0  0  0  0  0  0  0  0  0
   13.3363   38.0695  -10.2516 C   0  0  0  0  0  0  0  0  0  0  0  0
   13.2562   37.0408  -11.3771 C   0  0  0  0  0  0  0  0  0  0  0  0
   14.1586   37.5230   -9.0966 C   0  0  0  0  0  0  0  0  0  0  0  0
   12.5470   40.2380   -7.2304 C   0  0  0  0  0  0  0  0  0  0  0  0
   11.6492   40.2280   -6.1188 N   0  0  0  0  0  0  0  0  0  0  0  0
   11.0098   39.0807   -5.6422 C   0  0  0  0  0  0  0  0  0  0  0  0
   11.1880   37.9960   -6.0994 O   0  0  0  0  0  0  0  0  0  0  0  0
   11.4704   41.0811   -5.6611 H   0  0  0  0  0  0  0  0  0  0  0  0
   10.1838   39.4027   -4.5830 O   0  0  0  0  0  0  0  0  0  0  0  0
    9.3333   38.4028   -4.1001 C   0  0  0  0  0  0  0  0  0  0  0  0
    9.4160   38.3243   -2.5895 C   0  0  0  0  0  0  0  0  0  0  0  0
    9.6985   39.4477   -1.8307 C   0  0  0  0  0  0  0  0  0  0  0  0
    9.7828   39.3626   -0.4577 C   0  0  0  0  0  0  0  0  0  0  0  0
    9.5867   38.1554    0.1841 C   0  0  0  0  0  0  0  0  0  0  0  0
    9.2829   37.0352   -0.5496 C   0  0  0  0  0  0  0  0  0  0  0  0
    9.1984   37.1084   -1.9316 C   0  0  0  0  0  0  0  0  0  0  0  0
 26 27  1  0  0  0
 26 25  1  0  0  0
 27 28  2  0  0  0
 27 32  1  0  0  0
 28 29  1  0  0  0
 29 30  2  0  0  0
 30 31  1  0  0  0
 31 32  2  0  0  0
  1  2  2  0  0  0
  2  5  1  0  0  0
  2  3  1  0  0  0
  2 20  1  0  0  0
  5  7  1  0  0  0
  7 16  1  0  0  0
  7  8  1  0  0  0
 16 17  1  0  0  0
 17 18  1  0  0  0
 17 19  1  0  0  0
  8  9  2  0  0  0
  8 10  1  0  0  0
 20 21  1  0  0  0
 21 22  1  0  0  0
 22 25  1  0  0  0
 22 23  2  0  0  0
 10 12  1  0  0  0
 12 13  1  0  0  0
  5  6  1  0  0  0
  3  4  1  0  0  0
 21 24  1  0  0  0
 10 11  1  0  0  0
 13 14  1  0  0  0
 13 15  1  0  0  0
M  END
> <minimizedAffinity>
-7.41995

$$$$
5N3V_8L5_E_406


 32 32  0  0  0  0  0  0  0  0999 V2000
   12.0462   43.0824   -7.4264 O   0  0  0  0  0  0  0  0  0  0  0  0
   12.5427   41.6669   -7.2204 P   0  0  0  0  0  0  0  0  0  0  0  0
   13.1581   41.5073   -5.8586 O   0  0  0  0  0  0  0  0  0  0  0  0
   13.8892   42.1369   -5.7584 H   0  0  0  0  0  0  0  0  0  0  0  0
   13.5611   41.3098   -8.4910 N   0  0  0  0  0  0  0  0  0  0  0  0
   14.1067   40.4946   -8.2116 H   0  0  0  0  0  0  0  0  0  0  0  0
   13.0033   41.0135   -9.8126 C   0  0  0  0  0  0  0  0  0  0  0  0
   13.4966   39.6735  -10.3329 C   0  0  0  0  0  0  0  0  0  0  0  0
   13.9154   39.5048  -11.4389 O   0  0  0  0  0  0  0  0  0  0  0  0
   13.5054   38.6366   -9.3784 N   0  0  0  0  0  0  0  0  0  0  0  0
   13.1425   38.8261   -8.4830 H   0  0  0  0  0  0  0  0  0  0  0  0
   14.0188   37.3068   -9.6414 C   0  0  0  0  0  0  0  0  0  0  0  0
   13.3538   36.7316  -10.7490 N   0  0  0  0  0  0  0  0  0  0  0  0
   12.3561   36.6622  -10.5481 H   0  0  0  0  0  0  0  0  0  0  0  0
   13.7305   35.8004  -10.9258 H   0  0  0  0  0  0  0  0  0  0  0  0
   13.4654   42.0946  -10.7965 C   0  0  0  0  0  0  0  0  0  0  0  0
   12.3524   42.6960  -11.6429 C   0  0  0  0  0  0  0  0  0  0  0  0
   11.5421   43.7184  -10.8495 C   0  0  0  0  0  0  0  0  0  0  0  0
   12.9187   43.3343  -12.9001 C   0  0  0  0  0  0  0  0  0  0  0  0
   11.1615   40.4678   -7.3916 C   0  0  0  0  0  0  0  0  0  0  0  0
   10.9666   39.7971   -6.1450 N   0  0  0  0  0  0  0  0  0  0  0  0
   11.4242   38.5050   -5.8740 C   0  0  0  0  0  0  0  0  0  0  0  0
   12.0550   37.8593   -6.6502 O   0  0  0  0  0  0  0  0  0  0  0  0
   10.4806   40.2742   -5.4341 H   0  0  0  0  0  0  0  0  0  0  0  0
   11.0513   38.1268   -4.5990 O   0  0  0  0  0  0  0  0  0  0  0  0
   10.5286   39.1154   -3.7589 C   0  0  0  0  0  0  0  0  0  0  0  0
   10.0502   38.5034   -2.4584 C   0  0  0  0  0  0  0  0  0  0  0  0
    9.4623   37.2499   -2.4330 C   0  0  0  0  0  0  0  0  0  0  0  0
    9.0202   36.7074   -1.2457 C   0  0  0  0  0  0  0  0  0  0  0  0
    9.1565   37.4051   -0.0614 C   0  0  0  0  0  0  0  0  0  0  0  0
    9.7577   38.6395   -0.0632 C   0  0  0  0  0  0  0  0  0  0  0  0
   10.2037   39.1963   -1.2521 C   0  0  0  0  0  0  0  0  0  0  0  0
 26 27  1  0  0  0
 26 25  1  0  0  0
 27 28  2  0  0  0
 27 32  1  0  0  0
 28 29  1  0  0  0
 29 30  2  0  0  0
 30 31  1  0  0  0
 31 32  2  0  0  0
  1  2  2  0  0  0
  2  5  1  0  0  0
  2  3  1  0  0  0
  2 20  1  0  0  0
  5  7  1  0  0  0
  7 16  1  0  0  0
  7  8  1  0  0  0
 16 17  1  0  0  0
 17 18  1  0  0  0
 17 19  1  0  0  0
  8  9  2  0  0  0
  8 10  1  0  0  0
 20 21  1  0  0  0
 21 22  1  0  0  0
 22 25  1  0  0  0
 22 23  2  0  0  0
 10 12  1  0  0  0
 12 13  1  0  0  0
  5  6  1  0  0  0
  3  4  1  0  0  0
 21 24  1  0  0  0
 10 11  1  0  0  0
 13 14  1  0  0  0
 13 15  1  0  0  0
M  END
> <minimizedAffinity>
-7.36283

$$$$
