5ULN_8JS_A_303


 25 26  0  0  0  0  0  0  0  0999 V2000
   -0.5875    5.2778   83.4436 N   0  0  0  0  0  0  0  0  0  0  0  0
   -0.7641    6.2438   83.5125 H   0  0  0  0  0  0  0  0  0  0  0  0
   -0.5189    3.4692   84.9117 C   0  0  0  0  0  0  0  0  0  0  0  0
   -2.6304    4.5909   84.6593 C   0  0  0  0  0  0  0  0  0  0  0  0
   -1.1207    2.5938   85.8139 C   0  0  0  0  0  0  0  0  0  0  0  0
   -3.2246    3.7231   85.5293 C   0  0  0  0  0  0  0  0  0  0  0  0
   -1.3036    4.4500   84.3284 C   0  0  0  0  0  0  0  0  0  0  0  0
   -2.4801    2.7077   86.1222 C   0  0  0  0  0  0  0  0  0  0  0  0
   -2.4071    0.2701   87.2706 N   0  0  0  0  0  0  0  0  0  0  0  0
   -3.0532    2.2969   88.5946 O   0  0  0  0  0  0  0  0  0  0  0  0
   -4.6050    1.4540   86.8321 O   0  0  0  0  0  0  0  0  0  0  0  0
   -3.2329    1.6505   87.3087 S   0  0  0  0  0  0  0  0  0  0  0  0
   -2.5376   -0.1793   86.3643 H   0  0  0  0  0  0  0  0  0  0  0  0
   -2.7442   -0.3483   88.0084 H   0  0  0  0  0  0  0  0  0  0  0  0
    0.2978    4.9076   82.5276 C   0  0  0  0  0  0  0  0  0  0  0  0
    1.8844    5.3765   82.5279 S   0  0  0  0  0  0  0  0  0  0  0  0
   -0.2466    4.1180   81.4927 N   0  0  0  0  0  0  0  0  0  0  0  0
   -0.6776    4.6210   80.7643 H   0  0  0  0  0  0  0  0  0  0  0  0
    0.9380    2.0457   81.1071 C   0  0  0  0  0  0  0  0  0  0  0  0
   -1.4068    1.9093   81.4563 C   0  0  0  0  0  0  0  0  0  0  0  0
    1.0069    0.6668   80.9810 C   0  0  0  0  0  0  0  0  0  0  0  0
   -1.3134    0.5233   81.3574 C   0  0  0  0  0  0  0  0  0  0  0  0
   -0.2654    2.6931   81.3440 C   0  0  0  0  0  0  0  0  0  0  0  0
   -0.1182   -0.1240   81.1061 C   0  0  0  0  0  0  0  0  0  0  0  0
   -0.0459   -1.5117   80.9922 F   0  0  0  0  0  0  0  0  0  0  0  0
 16 15  2  0  0  0
 19 21  2  0  0  0
 19 23  1  0  0  0
 17 15  1  0  0  0
 17 23  1  0  0  0
 15  1  1  0  0  0
 21 24  1  0  0  0
 23 20  2  0  0  0
  1  7  1  0  0  0
 24 25  1  0  0  0
 24 22  2  0  0  0
  7  3  2  0  0  0
  7  4  1  0  0  0
 20 22  1  0  0  0
  3  5  1  0  0  0
  4  6  2  0  0  0
  5  8  2  0  0  0
  6  8  1  0  0  0
  8 12  1  0  0  0
  9 12  1  0  0  0
 11 12  2  0  0  0
 12 10  2  0  0  0
  9 13  1  0  0  0
  9 14  1  0  0  0
 17 18  1  0  0  0
  1  2  1  0  0  0
M  END
> <minimizedAffinity>
-8.26378

$$$$
5ULN_8JS_A_303


 25 26  0  0  0  0  0  0  0  0999 V2000
   -0.8450    5.4539   83.3539 N   0  0  0  0  0  0  0  0  0  0  0  0
   -1.1097    6.3911   83.4985 H   0  0  0  0  0  0  0  0  0  0  0  0
   -2.6110    4.6745   84.6595 C   0  0  0  0  0  0  0  0  0  0  0  0
   -0.5077    3.5295   84.8724 C   0  0  0  0  0  0  0  0  0  0  0  0
   -3.1506    3.8060   85.6065 C   0  0  0  0  0  0  0  0  0  0  0  0
   -1.0307    2.6898   85.8129 C   0  0  0  0  0  0  0  0  0  0  0  0
   -1.2752    4.5293   84.3239 C   0  0  0  0  0  0  0  0  0  0  0  0
   -2.3625    2.8134   86.1977 C   0  0  0  0  0  0  0  0  0  0  0  0
   -3.1266    2.4396   88.7555 N   0  0  0  0  0  0  0  0  0  0  0  0
   -4.3899    1.3817   86.8678 O   0  0  0  0  0  0  0  0  0  0  0  0
   -2.0947    0.5617   87.4014 O   0  0  0  0  0  0  0  0  0  0  0  0
   -3.0507    1.6712   87.3438 S   0  0  0  0  0  0  0  0  0  0  0  0
   -2.1822    2.6402   89.0846 H   0  0  0  0  0  0  0  0  0  0  0  0
   -3.6065    1.8519   89.4372 H   0  0  0  0  0  0  0  0  0  0  0  0
   -0.1242    5.2095   82.2674 C   0  0  0  0  0  0  0  0  0  0  0  0
    1.2867    5.9893   81.8952 S   0  0  0  0  0  0  0  0  0  0  0  0
   -0.7014    4.2573   81.4007 N   0  0  0  0  0  0  0  0  0  0  0  0
   -1.3645    4.6151   80.7671 H   0  0  0  0  0  0  0  0  0  0  0  0
   -1.5547    1.9950   81.4148 C   0  0  0  0  0  0  0  0  0  0  0  0
    0.7789    2.2751   81.0756 C   0  0  0  0  0  0  0  0  0  0  0  0
   -1.4132    0.6203   81.3042 C   0  0  0  0  0  0  0  0  0  0  0  0
    0.8968    0.8944   80.9368 C   0  0  0  0  0  0  0  0  0  0  0  0
   -0.4660    2.8473   81.3056 C   0  0  0  0  0  0  0  0  0  0  0  0
   -0.1837    0.0411   81.0602 C   0  0  0  0  0  0  0  0  0  0  0  0
   -0.0444   -1.3406   80.9361 F   0  0  0  0  0  0  0  0  0  0  0  0
 16 15  2  0  0  0
 19 21  2  0  0  0
 19 23  1  0  0  0
 17 15  1  0  0  0
 17 23  1  0  0  0
 15  1  1  0  0  0
 21 24  1  0  0  0
 23 20  2  0  0  0
  1  7  1  0  0  0
 24 25  1  0  0  0
 24 22  2  0  0  0
  7  3  2  0  0  0
  7  4  1  0  0  0
 20 22  1  0  0  0
  3  5  1  0  0  0
  4  6  2  0  0  0
  5  8  2  0  0  0
  6  8  1  0  0  0
  8 12  1  0  0  0
  9 12  1  0  0  0
 11 12  2  0  0  0
 12 10  2  0  0  0
  9 13  1  0  0  0
  9 14  1  0  0  0
 17 18  1  0  0  0
  1  2  1  0  0  0
M  END
> <minimizedAffinity>
-7.97704

$$$$
5ULN_8JS_A_303


 25 26  0  0  0  0  0  0  0  0999 V2000
   -1.2172    4.4619   82.4214 N   0  0  0  0  0  0  0  0  0  0  0  0
   -1.7160    4.2981   81.5885 H   0  0  0  0  0  0  0  0  0  0  0  0
   -2.5568    4.3803   84.3266 C   0  0  0  0  0  0  0  0  0  0  0  0
   -1.2119    2.4443   83.8539 C   0  0  0  0  0  0  0  0  0  0  0  0
   -3.0385    3.7362   85.4648 C   0  0  0  0  0  0  0  0  0  0  0  0
   -1.6699    1.8198   84.9779 C   0  0  0  0  0  0  0  0  0  0  0  0
   -1.6234    3.7192   83.5458 C   0  0  0  0  0  0  0  0  0  0  0  0
   -2.5917    2.4553   85.8047 C   0  0  0  0  0  0  0  0  0  0  0  0
   -2.4370    0.2190   87.3017 N   0  0  0  0  0  0  0  0  0  0  0  0
   -2.9394    2.4378   88.3519 O   0  0  0  0  0  0  0  0  0  0  0  0
   -4.6544    1.3740   86.8849 O   0  0  0  0  0  0  0  0  0  0  0  0
   -3.2426    1.6082   87.2014 S   0  0  0  0  0  0  0  0  0  0  0  0
   -2.6544   -0.3595   86.4902 H   0  0  0  0  0  0  0  0  0  0  0  0
   -2.7109   -0.2722   88.1526 H   0  0  0  0  0  0  0  0  0  0  0  0
   -0.2406    5.3571   82.3533 C   0  0  0  0  0  0  0  0  0  0  0  0
    1.1231    5.3153   83.2891 S   0  0  0  0  0  0  0  0  0  0  0  0
   -0.4910    6.4085   81.4462 N   0  0  0  0  0  0  0  0  0  0  0  0
    0.3095    6.8781   81.1178 H   0  0  0  0  0  0  0  0  0  0  0  0
   -2.0270    6.6611   79.5960 C   0  0  0  0  0  0  0  0  0  0  0  0
   -2.6934    7.5552   81.6925 C   0  0  0  0  0  0  0  0  0  0  0  0
   -3.2241    7.0736   79.0313 C   0  0  0  0  0  0  0  0  0  0  0  0
   -3.9027    7.9348   81.1155 C   0  0  0  0  0  0  0  0  0  0  0  0
   -1.7369    6.8943   80.9320 C   0  0  0  0  0  0  0  0  0  0  0  0
   -4.1887    7.7174   79.7807 C   0  0  0  0  0  0  0  0  0  0  0  0
   -5.3977    8.1203   79.2151 F   0  0  0  0  0  0  0  0  0  0  0  0
 16 15  2  0  0  0
 19 21  2  0  0  0
 19 23  1  0  0  0
 17 15  1  0  0  0
 17 23  1  0  0  0
 15  1  1  0  0  0
 21 24  1  0  0  0
 23 20  2  0  0  0
  1  7  1  0  0  0
 24 25  1  0  0  0
 24 22  2  0  0  0
  7  3  2  0  0  0
  7  4  1  0  0  0
 20 22  1  0  0  0
  3  5  1  0  0  0
  4  6  2  0  0  0
  5  8  2  0  0  0
  6  8  1  0  0  0
  8 12  1  0  0  0
  9 12  1  0  0  0
 11 12  2  0  0  0
 12 10  2  0  0  0
  9 13  1  0  0  0
  9 14  1  0  0  0
 17 18  1  0  0  0
  1  2  1  0  0  0
M  END
> <minimizedAffinity>
-6.93985

$$$$
5ULN_8JS_A_303


 25 26  0  0  0  0  0  0  0  0999 V2000
   -1.1229    4.6587   82.6251 N   0  0  0  0  0  0  0  0  0  0  0  0
   -1.6943    4.6318   81.8239 H   0  0  0  0  0  0  0  0  0  0  0  0
   -2.6106    4.4491   84.4067 C   0  0  0  0  0  0  0  0  0  0  0  0
   -1.0399    2.6585   84.0796 C   0  0  0  0  0  0  0  0  0  0  0  0
   -3.1234    3.7643   85.5068 C   0  0  0  0  0  0  0  0  0  0  0  0
   -1.5300    1.9956   85.1675 C   0  0  0  0  0  0  0  0  0  0  0  0
   -1.5496    3.8834   83.7196 C   0  0  0  0  0  0  0  0  0  0  0  0
   -2.5809    2.5372   85.9017 C   0  0  0  0  0  0  0  0  0  0  0  0
   -2.4390    0.2551   87.3292 N   0  0  0  0  0  0  0  0  0  0  0  0
   -3.0125    2.4298   88.4338 O   0  0  0  0  0  0  0  0  0  0  0  0
   -4.6602    1.3890   86.8760 O   0  0  0  0  0  0  0  0  0  0  0  0
   -3.2637    1.6343   87.2473 S   0  0  0  0  0  0  0  0  0  0  0  0
   -2.6199   -0.2994   86.4924 H   0  0  0  0  0  0  0  0  0  0  0  0
   -2.7329   -0.2683   88.1539 H   0  0  0  0  0  0  0  0  0  0  0  0
   -0.0404    5.4215   82.5478 C   0  0  0  0  0  0  0  0  0  0  0  0
    1.4906    4.8388   82.3160 S   0  0  0  0  0  0  0  0  0  0  0  0
   -0.2934    6.7950   82.7487 N   0  0  0  0  0  0  0  0  0  0  0  0
   -1.1233    7.1323   82.3405 H   0  0  0  0  0  0  0  0  0  0  0  0
    1.2328    8.6702   82.7189 C   0  0  0  0  0  0  0  0  0  0  0  0
    0.4938    7.9031   84.8412 C   0  0  0  0  0  0  0  0  0  0  0  0
    1.9824    9.6632   83.3307 C   0  0  0  0  0  0  0  0  0  0  0  0
    1.2283    8.9258   85.4363 C   0  0  0  0  0  0  0  0  0  0  0  0
    0.4780    7.7719   83.4583 C   0  0  0  0  0  0  0  0  0  0  0  0
    1.9937    9.8132   84.7033 C   0  0  0  0  0  0  0  0  0  0  0  0
    2.7375   10.8203   85.3169 F   0  0  0  0  0  0  0  0  0  0  0  0
 16 15  2  0  0  0
 19 21  2  0  0  0
 19 23  1  0  0  0
 17 15  1  0  0  0
 17 23  1  0  0  0
 15  1  1  0  0  0
 21 24  1  0  0  0
 23 20  2  0  0  0
  1  7  1  0  0  0
 24 25  1  0  0  0
 24 22  2  0  0  0
  7  3  2  0  0  0
  7  4  1  0  0  0
 20 22  1  0  0  0
  3  5  1  0  0  0
  4  6  2  0  0  0
  5  8  2  0  0  0
  6  8  1  0  0  0
  8 12  1  0  0  0
  9 12  1  0  0  0
 11 12  2  0  0  0
 12 10  2  0  0  0
  9 13  1  0  0  0
  9 14  1  0  0  0
 17 18  1  0  0  0
  1  2  1  0  0  0
M  END
> <minimizedAffinity>
-6.83083

$$$$
5ULN_8JS_A_303


 25 26  0  0  0  0  0  0  0  0999 V2000
   -0.1702    3.3759   81.5488 N   0  0  0  0  0  0  0  0  0  0  0  0
   -0.8493    3.9896   81.1862 H   0  0  0  0  0  0  0  0  0  0  0  0
    1.6019    4.8569   81.8606 C   0  0  0  0  0  0  0  0  0  0  0  0
    2.0243    2.9201   80.5002 C   0  0  0  0  0  0  0  0  0  0  0  0
    2.9182    5.2622   81.6473 C   0  0  0  0  0  0  0  0  0  0  0  0
    3.3083    3.3254   80.2765 C   0  0  0  0  0  0  0  0  0  0  0  0
    1.1704    3.6883   81.2555 C   0  0  0  0  0  0  0  0  0  0  0  0
    3.7786    4.5051   80.8459 C   0  0  0  0  0  0  0  0  0  0  0  0
    6.2015    4.6581   82.0173 N   0  0  0  0  0  0  0  0  0  0  0  0
    5.9824    4.1117   79.5817 O   0  0  0  0  0  0  0  0  0  0  0  0
    5.4251    6.4148   80.3631 O   0  0  0  0  0  0  0  0  0  0  0  0
    5.4591    4.9730   80.6249 S   0  0  0  0  0  0  0  0  0  0  0  0
    5.8292    5.2667   82.7463 H   0  0  0  0  0  0  0  0  0  0  0  0
    7.2026    4.8243   81.9140 H   0  0  0  0  0  0  0  0  0  0  0  0
   -0.6252    2.3507   82.2571 C   0  0  0  0  0  0  0  0  0  0  0  0
   -1.3864    1.0357   81.6025 S   0  0  0  0  0  0  0  0  0  0  0  0
   -0.4646    2.5026   83.6507 N   0  0  0  0  0  0  0  0  0  0  0  0
    0.4477    2.7263   83.9455 H   0  0  0  0  0  0  0  0  0  0  0  0
   -1.4337    1.2145   85.4530 C   0  0  0  0  0  0  0  0  0  0  0  0
   -2.3484    3.3667   85.0402 C   0  0  0  0  0  0  0  0  0  0  0  0
   -2.3186    1.0320   86.5046 C   0  0  0  0  0  0  0  0  0  0  0  0
   -3.2086    3.1780   86.1191 C   0  0  0  0  0  0  0  0  0  0  0  0
   -1.4317    2.3796   84.7006 C   0  0  0  0  0  0  0  0  0  0  0  0
   -3.2236    2.0120   86.8613 C   0  0  0  0  0  0  0  0  0  0  0  0
   -4.1042    1.8329   87.9273 F   0  0  0  0  0  0  0  0  0  0  0  0
 16 15  2  0  0  0
 19 21  2  0  0  0
 19 23  1  0  0  0
 17 15  1  0  0  0
 17 23  1  0  0  0
 15  1  1  0  0  0
 21 24  1  0  0  0
 23 20  2  0  0  0
  1  7  1  0  0  0
 24 25  1  0  0  0
 24 22  2  0  0  0
  7  3  2  0  0  0
  7  4  1  0  0  0
 20 22  1  0  0  0
  3  5  1  0  0  0
  4  6  2  0  0  0
  5  8  2  0  0  0
  6  8  1  0  0  0
  8 12  1  0  0  0
  9 12  1  0  0  0
 11 12  2  0  0  0
 12 10  2  0  0  0
  9 13  1  0  0  0
  9 14  1  0  0  0
 17 18  1  0  0  0
  1  2  1  0  0  0
M  END
> <minimizedAffinity>
-6.77387

$$$$
5ULN_8JS_A_303


 25 26  0  0  0  0  0  0  0  0999 V2000
   -1.0422    6.0833   83.9334 N   0  0  0  0  0  0  0  0  0  0  0  0
   -1.2106    6.9617   84.3449 H   0  0  0  0  0  0  0  0  0  0  0  0
   -0.6259    4.0015   84.8945 C   0  0  0  0  0  0  0  0  0  0  0  0
   -2.8808    4.8272   85.0128 C   0  0  0  0  0  0  0  0  0  0  0  0
   -1.0380    2.8536   85.5690 C   0  0  0  0  0  0  0  0  0  0  0  0
   -3.2887    3.6955   85.6577 C   0  0  0  0  0  0  0  0  0  0  0  0
   -1.5749    4.9684   84.6073 C   0  0  0  0  0  0  0  0  0  0  0  0
   -2.3741    2.6872   85.9471 C   0  0  0  0  0  0  0  0  0  0  0  0
   -2.4090    1.5123   88.3728 N   0  0  0  0  0  0  0  0  0  0  0  0
   -4.3395    1.2632   86.7950 O   0  0  0  0  0  0  0  0  0  0  0  0
   -2.1762    0.1456   86.2509 O   0  0  0  0  0  0  0  0  0  0  0  0
   -2.8904    1.2734   86.8562 S   0  0  0  0  0  0  0  0  0  0  0  0
   -1.3896    1.5184   88.4090 H   0  0  0  0  0  0  0  0  0  0  0  0
   -2.7657    0.7623   88.9650 H   0  0  0  0  0  0  0  0  0  0  0  0
   -0.3397    6.0882   82.8082 C   0  0  0  0  0  0  0  0  0  0  0  0
   -0.8099    5.3252   81.4175 S   0  0  0  0  0  0  0  0  0  0  0  0
    0.8997    6.7548   82.9109 N   0  0  0  0  0  0  0  0  0  0  0  0
    1.6824    6.2305   82.6250 H   0  0  0  0  0  0  0  0  0  0  0  0
    1.0498    9.1273   82.4695 C   0  0  0  0  0  0  0  0  0  0  0  0
    1.5659    8.3955   84.6688 C   0  0  0  0  0  0  0  0  0  0  0  0
    1.2821   10.4417   82.8445 C   0  0  0  0  0  0  0  0  0  0  0  0
    1.7650    9.7243   85.0350 C   0  0  0  0  0  0  0  0  0  0  0  0
    1.1885    8.0811   83.3693 C   0  0  0  0  0  0  0  0  0  0  0  0
    1.6424   10.7680   84.1369 C   0  0  0  0  0  0  0  0  0  0  0  0
    1.8631   12.0913   84.5164 F   0  0  0  0  0  0  0  0  0  0  0  0
 16 15  2  0  0  0
 19 21  2  0  0  0
 19 23  1  0  0  0
 17 15  1  0  0  0
 17 23  1  0  0  0
 15  1  1  0  0  0
 21 24  1  0  0  0
 23 20  2  0  0  0
  1  7  1  0  0  0
 24 25  1  0  0  0
 24 22  2  0  0  0
  7  3  2  0  0  0
  7  4  1  0  0  0
 20 22  1  0  0  0
  3  5  1  0  0  0
  4  6  2  0  0  0
  5  8  2  0  0  0
  6  8  1  0  0  0
  8 12  1  0  0  0
  9 12  1  0  0  0
 11 12  2  0  0  0
 12 10  2  0  0  0
  9 13  1  0  0  0
  9 14  1  0  0  0
 17 18  1  0  0  0
  1  2  1  0  0  0
M  END
> <minimizedAffinity>
-6.76995

$$$$
5ULN_8JS_A_303


 25 26  0  0  0  0  0  0  0  0999 V2000
   -0.9515    3.6080   82.1319 N   0  0  0  0  0  0  0  0  0  0  0  0
   -1.3949    3.3298   81.2980 H   0  0  0  0  0  0  0  0  0  0  0  0
   -1.1055    1.9320   83.7438 C   0  0  0  0  0  0  0  0  0  0  0  0
   -2.4496    3.8969   84.0801 C   0  0  0  0  0  0  0  0  0  0  0  0
   -1.6259    1.4051   84.9245 C   0  0  0  0  0  0  0  0  0  0  0  0
   -2.9728    3.3740   85.2272 C   0  0  0  0  0  0  0  0  0  0  0  0
   -1.5517    3.1758   83.3294 C   0  0  0  0  0  0  0  0  0  0  0  0
   -2.5706    2.1174   85.6702 C   0  0  0  0  0  0  0  0  0  0  0  0
   -3.0023    2.6714   88.2726 N   0  0  0  0  0  0  0  0  0  0  0  0
   -4.5938    1.2279   86.9835 O   0  0  0  0  0  0  0  0  0  0  0  0
   -2.3196    0.3506   87.5158 O   0  0  0  0  0  0  0  0  0  0  0  0
   -3.1831    1.4906   87.1946 S   0  0  0  0  0  0  0  0  0  0  0  0
   -2.0086    2.8512   88.4165 H   0  0  0  0  0  0  0  0  0  0  0  0
   -3.4290    2.3933   89.1563 H   0  0  0  0  0  0  0  0  0  0  0  0
    0.1420    4.3465   81.9961 C   0  0  0  0  0  0  0  0  0  0  0  0
    1.6639    3.7252   81.8096 S   0  0  0  0  0  0  0  0  0  0  0  0
   -0.0905    5.7350   82.0911 N   0  0  0  0  0  0  0  0  0  0  0  0
   -0.6584    6.1143   81.3819 H   0  0  0  0  0  0  0  0  0  0  0  0
    1.4553    7.4806   82.7314 C   0  0  0  0  0  0  0  0  0  0  0  0
   -0.2009    6.8595   84.3158 C   0  0  0  0  0  0  0  0  0  0  0  0
    1.9474    8.4346   83.6088 C   0  0  0  0  0  0  0  0  0  0  0  0
    0.2877    7.8436   85.1716 C   0  0  0  0  0  0  0  0  0  0  0  0
    0.3770    6.6751   83.0660 C   0  0  0  0  0  0  0  0  0  0  0  0
    1.3716    8.6377   84.8473 C   0  0  0  0  0  0  0  0  0  0  0  0
    1.8590    9.6062   85.7239 F   0  0  0  0  0  0  0  0  0  0  0  0
 16 15  2  0  0  0
 19 21  2  0  0  0
 19 23  1  0  0  0
 17 15  1  0  0  0
 17 23  1  0  0  0
 15  1  1  0  0  0
 21 24  1  0  0  0
 23 20  2  0  0  0
  1  7  1  0  0  0
 24 25  1  0  0  0
 24 22  2  0  0  0
  7  3  2  0  0  0
  7  4  1  0  0  0
 20 22  1  0  0  0
  3  5  1  0  0  0
  4  6  2  0  0  0
  5  8  2  0  0  0
  6  8  1  0  0  0
  8 12  1  0  0  0
  9 12  1  0  0  0
 11 12  2  0  0  0
 12 10  2  0  0  0
  9 13  1  0  0  0
  9 14  1  0  0  0
 17 18  1  0  0  0
  1  2  1  0  0  0
M  END
> <minimizedAffinity>
-6.59869

$$$$
5ULN_8JS_A_303


 25 26  0  0  0  0  0  0  0  0999 V2000
    1.0933    5.9128   81.7099 N   0  0  0  0  0  0  0  0  0  0  0  0
    1.7415    6.2692   81.0603 H   0  0  0  0  0  0  0  0  0  0  0  0
    1.5091    3.6268   81.5309 C   0  0  0  0  0  0  0  0  0  0  0  0
   -0.7457    4.3605   81.1338 C   0  0  0  0  0  0  0  0  0  0  0  0
    1.1000    2.3180   81.2818 C   0  0  0  0  0  0  0  0  0  0  0  0
   -1.1433    3.0812   80.8724 C   0  0  0  0  0  0  0  0  0  0  0  0
    0.5681    4.6376   81.4286 C   0  0  0  0  0  0  0  0  0  0  0  0
   -0.2268    2.0361   80.9411 C   0  0  0  0  0  0  0  0  0  0  0  0
   -2.2923    0.4773   80.1863 N   0  0  0  0  0  0  0  0  0  0  0  0
    0.0677   -0.1580   79.6338 O   0  0  0  0  0  0  0  0  0  0  0  0
   -0.6894   -0.2522   82.0093 O   0  0  0  0  0  0  0  0  0  0  0  0
   -0.7671    0.3817   80.6900 S   0  0  0  0  0  0  0  0  0  0  0  0
   -2.8738    0.8573   80.9332 H   0  0  0  0  0  0  0  0  0  0  0  0
   -2.6264   -0.4532   79.9352 H   0  0  0  0  0  0  0  0  0  0  0  0
    0.8163    6.6902   82.7484 C   0  0  0  0  0  0  0  0  0  0  0  0
    0.6946    8.3382   82.6674 S   0  0  0  0  0  0  0  0  0  0  0  0
    0.6956    5.9924   83.9688 N   0  0  0  0  0  0  0  0  0  0  0  0
    1.4908    6.0215   84.5486 H   0  0  0  0  0  0  0  0  0  0  0  0
   -1.6538    5.8642   84.5258 C   0  0  0  0  0  0  0  0  0  0  0  0
   -0.3331    3.9326   84.9307 C   0  0  0  0  0  0  0  0  0  0  0  0
   -2.7796    5.2002   84.9880 C   0  0  0  0  0  0  0  0  0  0  0  0
   -1.4805    3.2720   85.3627 C   0  0  0  0  0  0  0  0  0  0  0  0
   -0.4119    5.2477   84.4898 C   0  0  0  0  0  0  0  0  0  0  0  0
   -2.7167    3.8883   85.4142 C   0  0  0  0  0  0  0  0  0  0  0  0
   -3.8520    3.2172   85.8666 F   0  0  0  0  0  0  0  0  0  0  0  0
 16 15  2  0  0  0
 19 21  2  0  0  0
 19 23  1  0  0  0
 17 15  1  0  0  0
 17 23  1  0  0  0
 15  1  1  0  0  0
 21 24  1  0  0  0
 23 20  2  0  0  0
  1  7  1  0  0  0
 24 25  1  0  0  0
 24 22  2  0  0  0
  7  3  2  0  0  0
  7  4  1  0  0  0
 20 22  1  0  0  0
  3  5  1  0  0  0
  4  6  2  0  0  0
  5  8  2  0  0  0
  6  8  1  0  0  0
  8 12  1  0  0  0
  9 12  1  0  0  0
 11 12  2  0  0  0
 12 10  2  0  0  0
  9 13  1  0  0  0
  9 14  1  0  0  0
 17 18  1  0  0  0
  1  2  1  0  0  0
M  END
> <minimizedAffinity>
-6.58796

$$$$
5ULN_8JS_A_303


 25 26  0  0  0  0  0  0  0  0999 V2000
    0.1325    4.8033   82.6350 N   0  0  0  0  0  0  0  0  0  0  0  0
   -0.6235    4.6393   82.0260 H   0  0  0  0  0  0  0  0  0  0  0  0
    2.1192    5.9320   82.1767 C   0  0  0  0  0  0  0  0  0  0  0  0
    1.9860    3.6326   81.4873 C   0  0  0  0  0  0  0  0  0  0  0  0
    3.4088    5.9882   81.6513 C   0  0  0  0  0  0  0  0  0  0  0  0
    3.2422    3.6920   80.9569 C   0  0  0  0  0  0  0  0  0  0  0  0
    1.4167    4.7440   82.0622 C   0  0  0  0  0  0  0  0  0  0  0  0
    3.9767    4.8720   81.0288 C   0  0  0  0  0  0  0  0  0  0  0  0
    5.7429    3.7177   79.3513 N   0  0  0  0  0  0  0  0  0  0  0  0
    5.7773    6.1908   79.7527 O   0  0  0  0  0  0  0  0  0  0  0  0
    6.4721    4.6538   81.5912 O   0  0  0  0  0  0  0  0  0  0  0  0
    5.6267    4.9129   80.4222 S   0  0  0  0  0  0  0  0  0  0  0  0
    5.6362    2.8224   79.8282 H   0  0  0  0  0  0  0  0  0  0  0  0
    6.6560    3.7548   78.8982 H   0  0  0  0  0  0  0  0  0  0  0  0
   -0.1778    5.0546   83.9000 C   0  0  0  0  0  0  0  0  0  0  0  0
   -0.4733    6.5679   84.4998 S   0  0  0  0  0  0  0  0  0  0  0  0
   -0.1718    3.9120   84.7279 N   0  0  0  0  0  0  0  0  0  0  0  0
    0.7177    3.5318   84.9108 H   0  0  0  0  0  0  0  0  0  0  0  0
   -1.0041    2.0269   85.9928 C   0  0  0  0  0  0  0  0  0  0  0  0
   -2.5756    3.6907   85.3595 C   0  0  0  0  0  0  0  0  0  0  0  0
   -2.0053    1.3157   86.6362 C   0  0  0  0  0  0  0  0  0  0  0  0
   -3.5619    2.9782   86.0371 C   0  0  0  0  0  0  0  0  0  0  0  0
   -1.2677    3.2228   85.3419 C   0  0  0  0  0  0  0  0  0  0  0  0
   -3.3057    1.7784   86.6739 C   0  0  0  0  0  0  0  0  0  0  0  0
   -4.3094    1.0691   87.3323 F   0  0  0  0  0  0  0  0  0  0  0  0
 16 15  2  0  0  0
 19 21  2  0  0  0
 19 23  1  0  0  0
 17 15  1  0  0  0
 17 23  1  0  0  0
 15  1  1  0  0  0
 21 24  1  0  0  0
 23 20  2  0  0  0
  1  7  1  0  0  0
 24 25  1  0  0  0
 24 22  2  0  0  0
  7  3  2  0  0  0
  7  4  1  0  0  0
 20 22  1  0  0  0
  3  5  1  0  0  0
  4  6  2  0  0  0
  5  8  2  0  0  0
  6  8  1  0  0  0
  8 12  1  0  0  0
  9 12  1  0  0  0
 11 12  2  0  0  0
 12 10  2  0  0  0
  9 13  1  0  0  0
  9 14  1  0  0  0
 17 18  1  0  0  0
  1  2  1  0  0  0
M  END
> <minimizedAffinity>
-6.58686

$$$$
5ULN_8JS_A_303


 25 26  0  0  0  0  0  0  0  0999 V2000
   -1.2921    5.2670   82.9707 N   0  0  0  0  0  0  0  0  0  0  0  0
   -1.8890    5.3048   82.1887 H   0  0  0  0  0  0  0  0  0  0  0  0
   -2.8277    4.7212   84.6366 C   0  0  0  0  0  0  0  0  0  0  0  0
   -0.9884    3.2080   84.3091 C   0  0  0  0  0  0  0  0  0  0  0  0
   -3.2912    3.8960   85.6596 C   0  0  0  0  0  0  0  0  0  0  0  0
   -1.4321    2.4085   85.3226 C   0  0  0  0  0  0  0  0  0  0  0  0
   -1.6567    4.3656   83.9883 C   0  0  0  0  0  0  0  0  0  0  0  0
   -2.5921    2.7387   86.0171 C   0  0  0  0  0  0  0  0  0  0  0  0
   -2.3330    0.3083   87.1536 N   0  0  0  0  0  0  0  0  0  0  0  0
   -2.9430    2.3125   88.5281 O   0  0  0  0  0  0  0  0  0  0  0  0
   -4.6025    1.4079   86.8993 O   0  0  0  0  0  0  0  0  0  0  0  0
   -3.2041    1.6568   87.2609 S   0  0  0  0  0  0  0  0  0  0  0  0
   -2.5210   -0.1478   86.2608 H   0  0  0  0  0  0  0  0  0  0  0  0
   -2.5845   -0.3206   87.9163 H   0  0  0  0  0  0  0  0  0  0  0  0
   -0.2378    6.0715   82.9428 C   0  0  0  0  0  0  0  0  0  0  0  0
    0.1777    7.0994   84.1708 S   0  0  0  0  0  0  0  0  0  0  0  0
    0.4814    6.0295   81.7295 N   0  0  0  0  0  0  0  0  0  0  0  0
   -0.0423    6.2458   80.9244 H   0  0  0  0  0  0  0  0  0  0  0  0
    2.2053    4.3908   81.2947 C   0  0  0  0  0  0  0  0  0  0  0  0
    2.8741    6.6659   81.4196 C   0  0  0  0  0  0  0  0  0  0  0  0
    3.5132    4.0131   81.0327 C   0  0  0  0  0  0  0  0  0  0  0  0
    4.1767    6.2708   81.1251 C   0  0  0  0  0  0  0  0  0  0  0  0
    1.8603    5.7191   81.4950 C   0  0  0  0  0  0  0  0  0  0  0  0
    4.5266    4.9465   80.9400 C   0  0  0  0  0  0  0  0  0  0  0  0
    5.8394    4.5669   80.6636 F   0  0  0  0  0  0  0  0  0  0  0  0
 16 15  2  0  0  0
 19 21  2  0  0  0
 19 23  1  0  0  0
 17 15  1  0  0  0
 17 23  1  0  0  0
 15  1  1  0  0  0
 21 24  1  0  0  0
 23 20  2  0  0  0
  1  7  1  0  0  0
 24 25  1  0  0  0
 24 22  2  0  0  0
  7  3  2  0  0  0
  7  4  1  0  0  0
 20 22  1  0  0  0
  3  5  1  0  0  0
  4  6  2  0  0  0
  5  8  2  0  0  0
  6  8  1  0  0  0
  8 12  1  0  0  0
  9 12  1  0  0  0
 11 12  2  0  0  0
 12 10  2  0  0  0
  9 13  1  0  0  0
  9 14  1  0  0  0
 17 18  1  0  0  0
  1  2  1  0  0  0
M  END
> <minimizedAffinity>
-6.23863

$$$$
