2P3C_3TL_A_201
  RCSB PDB12061706353D
Coordinates from PDB:2P3C:A:201 Model:1 without hydrogens
 66 69  0  0  0  0            999 V2000
  -11.6970  -11.7070    5.4010   C 0  0  0  0  0  0  0  0  0  0  0  0
  -10.6620  -11.1610    5.7560   O 0  0  0  0  0  0  0  0  0  0  0  0
  -12.1000  -11.6040    4.0050   O 0  0  0  0  0  0  0  0  0  0  0  0
  -11.5180  -10.6300    3.1420   C 0  0  0  0  0  0  0  0  0  0  0  0
  -12.0500   -9.2340    3.3870   C 0  0  0  0  0  0  0  0  0  0  0  0
  -11.2170   -8.1330    3.1340   C 0  0  0  0  0  0  0  0  0  0  0  0
  -11.6840   -6.8380    3.3310   C 0  0  0  0  0  0  0  0  0  0  0  0
  -12.9880   -6.6340    3.7910   C 0  0  0  0  0  0  0  0  0  0  0  0
  -13.8200   -7.7300    4.0430   C 0  0  0  0  0  0  0  0  0  0  0  0
  -13.3480   -9.0340    3.8350   C 0  0  0  0  0  0  0  0  0  0  0  0
  -12.4990  -12.3820    6.2310   N 0  0  0  0  0  0  0  0  0  0  0  0
  -12.2500  -12.4720    7.6590   C 0  0  0  0  0  0  0  0  0  0  0  0
  -11.6120  -13.7830    8.0210   C 0  0  0  0  0  0  0  0  0  0  0  0
  -11.9560  -14.8200    7.4890   O 0  0  0  0  0  0  0  0  0  0  0  0
  -13.5470  -12.2970    8.4420   C 0  0  0  0  0  0  0  0  0  0  0  0
  -10.6500  -13.7320    8.9270   N 0  0  0  0  0  0  0  0  0  0  0  0
   -9.9200  -14.9030    9.3970   C 0  0  0  0  0  0  0  0  0  0  0  0
   -9.7140  -14.7090   10.8630   C 0  0  0  0  0  0  0  0  0  0  0  0
   -8.9370  -13.8740   11.2760   O 0  0  0  0  0  0  0  0  0  0  0  0
   -8.6040  -15.0860    8.6420   C 0  0  0  0  0  0  0  0  0  0  0  0
   -8.8390  -15.4600    7.1820   C 0  0  0  0  0  0  0  0  0  0  0  0
   -7.6350  -16.0840    9.2810   C 0  0  0  0  0  0  0  0  0  0  0  0
   -9.8850  -16.5460   13.7550   C 0  0  0  0  0  0  0  0  0  0  0  0
  -10.7170  -17.6220   13.3810   O 0  0  0  0  0  0  0  0  0  0  0  0
  -10.4590  -15.3080   13.0890   C 0  0  0  0  0  0  0  0  0  0  0  0
  -10.4620  -15.4670   11.6520   N 0  0  0  0  0  0  0  0  0  0  0  0
  -11.8870  -15.0520   13.5630   C 0  0  0  0  0  0  0  0  0  0  0  0
  -12.2070  -13.5980   13.3430   C 0  0  0  0  0  0  0  0  0  0  0  0
  -13.0210  -13.2240   12.2710   C 0  0  0  0  0  0  0  0  0  0  0  0
  -11.6910  -12.6440   14.2180   C 0  0  0  0  0  0  0  0  0  0  0  0
  -13.3020  -11.8730   12.0760   C 0  0  0  0  0  0  0  0  0  0  0  0
  -11.9720  -11.2970   14.0120   C 0  0  0  0  0  0  0  0  0  0  0  0
  -12.7720  -10.9140   12.9410   C 0  0  0  0  0  0  0  0  0  0  0  0
   -7.4340  -16.1420   15.3070   N 0  0  0  0  0  0  0  0  0  0  0  0
   -7.3580  -16.0730   13.8530   C 0  0  0  0  0  0  0  0  0  0  0  0
   -8.4860  -16.9260   13.3040   C 0  0  0  0  0  0  0  0  0  0  0  0
   -8.2600  -18.2620   13.7460   O 0  0  0  0  0  0  0  0  0  0  0  0
   -6.1070  -16.7490   13.3000   C 0  0  0  0  0  0  0  0  0  0  0  0
   -4.8150  -16.1800   13.8230   C 0  0  0  0  0  0  0  0  0  0  0  0
   -4.4190  -16.4080   15.1320   C 0  0  0  0  0  0  0  0  0  0  0  0
   -4.0260  -15.4460   12.9650   C 0  0  0  0  0  0  0  0  0  0  0  0
   -3.2240  -15.8820   15.6070   C 0  0  0  0  0  0  0  0  0  0  0  0
   -2.8360  -14.9170   13.4290   C 0  0  0  0  0  0  0  0  0  0  0  0
   -2.4410  -15.1300   14.7490   C 0  0  0  0  0  0  0  0  0  0  0  0
   -6.4280  -15.7080   18.1860   N 0  0  0  0  0  0  0  0  0  0  0  0
   -7.7440  -15.5150   17.5790   C 0  0  0  0  0  0  0  0  0  0  0  0
   -7.5540  -15.1130   16.1450   C 0  0  0  0  0  0  0  0  0  0  0  0
   -7.4890  -13.9360   15.8140   O 0  0  0  0  0  0  0  0  0  0  0  0
   -8.6460  -14.5300   18.3460   C 0  0  0  0  0  0  0  0  0  0  0  0
   -8.6160  -14.7410   19.8670   C 0  0  0  0  0  0  0  0  0  0  0  0
  -10.0840  -14.6370   17.8590   C 0  0  0  0  0  0  0  0  0  0  0  0
   -4.4250  -16.8840   20.6960   N 0  0  0  0  0  0  0  0  0  0  0  0
   -4.6030  -16.8670   19.2570   C 0  0  0  0  0  0  0  0  0  0  0  0
   -6.0690  -16.7580   18.9300   C 0  0  0  0  0  0  0  0  0  0  0  0
   -6.8610  -17.5630   19.3900   O 0  0  0  0  0  0  0  0  0  0  0  0
   -3.9200  -18.0950   18.6590   C 0  0  0  0  0  0  0  0  0  0  0  0
   -4.0890  -15.7890   21.3680   C 0  0  0  0  0  0  0  0  0  0  0  0
   -3.8480  -14.7170   20.8330   O 0  0  0  0  0  0  0  0  0  0  0  0
   -3.9850  -15.9170   22.8110   O 0  0  0  0  0  0  0  0  0  0  0  0
   -3.4950  -14.8330   23.6000   C 0  0  0  0  0  0  0  0  0  0  0  0
   -1.9830  -14.7630   23.5710   C 0  0  0  0  0  0  0  0  0  0  0  0
   -1.3570  -13.5350   23.7900   C 0  0  0  0  0  0  0  0  0  0  0  0
    0.0360  -13.4460   23.7840   C 0  0  0  0  0  0  0  0  0  0  0  0
    0.8080  -14.5830   23.5600   C 0  0  0  0  0  0  0  0  0  0  0  0
    0.1790  -15.8120   23.3490   C 0  0  0  0  0  0  0  0  0  0  0  0
   -1.2160  -15.9100   23.3590   C 0  0  0  0  0  0  0  0  0  0  0  0
  1  2  2  0  0  0  0
  1  3  1  0  0  0  0
  1 11  1  0  0  0  0
  3  4  1  0  0  0  0
  4  5  1  0  0  0  0
  5  6  2  0  0  0  0
  5 10  1  0  0  0  0
  6  7  1  0  0  0  0
  7  8  2  0  0  0  0
  8  9  1  0  0  0  0
  9 10  2  0  0  0  0
 11 12  1  0  0  0  0
 12 13  1  0  0  0  0
 12 15  1  0  0  0  0
 13 14  2  0  0  0  0
 13 16  1  0  0  0  0
 16 17  1  0  0  0  0
 17 18  1  0  0  0  0
 17 20  1  0  0  0  0
 18 19  2  0  0  0  0
 18 26  1  0  0  0  0
 20 21  1  0  0  0  0
 20 22  1  0  0  0  0
 23 24  1  0  0  0  0
 23 25  1  0  0  0  0
 23 36  1  0  0  0  0
 25 26  1  0  0  0  0
 25 27  1  0  0  0  0
 27 28  1  0  0  0  0
 28 29  2  0  0  0  0
 28 30  1  0  0  0  0
 29 31  1  0  0  0  0
 30 32  2  0  0  0  0
 31 33  2  0  0  0  0
 32 33  1  0  0  0  0
 34 35  1  0  0  0  0
 34 47  1  0  0  0  0
 35 36  1  0  0  0  0
 35 38  1  0  0  0  0
 36 37  1  0  0  0  0
 38 39  1  0  0  0  0
 39 40  2  0  0  0  0
 39 41  1  0  0  0  0
 40 42  1  0  0  0  0
 41 43  2  0  0  0  0
 42 44  2  0  0  0  0
 43 44  1  0  0  0  0
 45 46  1  0  0  0  0
 45 54  1  0  0  0  0
 46 47  1  0  0  0  0
 46 49  1  0  0  0  0
 47 48  2  0  0  0  0
 49 50  1  0  0  0  0
 49 51  1  0  0  0  0
 52 53  1  0  0  0  0
 52 57  1  0  0  0  0
 53 54  1  0  0  0  0
 53 56  1  0  0  0  0
 54 55  2  0  0  0  0
 57 58  2  0  0  0  0
 57 59  1  0  0  0  0
 59 60  1  0  0  0  0
 60 61  1  0  0  0  0
 61 62  2  0  0  0  0
 61 66  1  0  0  0  0
 62 63  1  0  0  0  0
 63 64  2  0  0  0  0
 64 65  1  0  0  0  0
 65 66  2  0  0  0  0
A    1
C31
A    2
O8
A    3
O9
A    4
CA
A    5
C
A    6
C13
A    7
C14
A    8
C15
A    9
C16
A   10
C17
A   11
N4
A   12
C18
A   13
C19
A   14
O4
A   15
C20
A   16
N2
A   17
C10
A   18
C11
A   19
O2
A   20
C12
A   21
CG2
A   22
CG1
A   23
C2
A   24
O1
A   25
C1
A   26
N1
A   27
C3
A   28
C4
A   29
C5
A   30
C9
A   31
C6
A   32
C8
A   33
C7
A   34
N51
A   35
C51
A   36
C52
A   37
O51
A   38
C53
A   39
C54
A   40
C55
A   41
C59
A   42
C56
A   43
C58
A   44
C57
A   45
N52
A   46
C60
A   47
C61
A   48
O52
A   49
C62
A   50
CG6
A   51
CG5
A   52
N54
A   53
C68
A   54
C69
A   55
O54
A   56
C70
A   57
C81
A   58
O58
A   59
O59
A   60
CA5
A   61
C50
A   62
C63
A   63
C64
A   64
C65
A   65
C66
A   66
C67
M  END
>  <InstanceId>
2P3C_3TL_A_201

>  <ChemCompId>
3TL

>  <PdbId>
2P3C

>  <ChainId>
A

>  <ResidueNumber>
201

>  <InsertionCode>


>  <Model>
1

>  <AltIds>


>  <MissingHeavyAtoms>
0

>  <ObservedFormula>
C50 N6 O10

>  <Name>
benzyl [(1S,4S,7S,8R,9R,10S,13S,16S)-7,10-dibenzyl-8,9-dihydroxy-1,16-dimethyl-4,13-bis(1-methylethyl)-2,5,12,15,18-pentaoxo-20-phenyl-19-oxa-3,6,11,14,17-pentaazaicos-1-yl]carbamate

>  <SystematicName>
phenylmethyl N-[(2S)-1-[[(2S)-1-[[(2S,3R,4R,5S)-3,4-dihydroxy-5-[[(2S)-3-methyl-2-[[(2S)-2-(phenylmethoxycarbonylamino)propanoyl]amino]butanoyl]amino]-1,6-diphenyl-hexan-2-yl]amino]-3-methyl-1-oxo-butan-2-yl]amino]-1-oxo-propan-2-yl]carbamate

>  <Synonyms>
TL-3, C2 symmetric inhibitor

>  <Type>
peptide-like

>  <Formula>
C50 H64 N6 O10

>  <MolecularWeight>
909.077

>  <ModifiedDate>
2011-06-04

>  <Parent>


>  <OneLetterCode>


>  <SubcomponentList>
PHQ ALA VAL PHL PHL VAL ALA PHQ

>  <AmbiguousFlag>
N

>  <InChI>
InChI=1S/C50H64N6O10/c1-31(2)41(55-45(59)33(5)51-49(63)65-29-37-23-15-9-16-24-37)47(61)53-39(27-35-19-11-7-12-20-35)43(57)44(58)40(28-36-21-13-8-14-22-36)54-48(62)42(32(3)4)56-46(60)34(6)52-50(64)66-30-38-25-17-10-18-26-38/h7-26,31-34,39-44,57-58H,27-30H2,1-6H3,(H,51,63)(H,52,64)(H,53,61)(H,54,62)(H,55,59)(H,56,60)/t33-,34-,39-,40-,41-,42-,43+,44+/m0/s1

>  <InChIKey>
BJJPNOGMLLUCER-KUTQPOQPSA-N

>  <SMILES>
C[C@@H](C(=O)N[C@@H](C(C)C)C(=O)N[C@@H](Cc1ccccc1)[C@H]([C@@H]([C@H](Cc2ccccc2)NC(=O)[C@H](C(C)C)NC(=O)[C@H](C)NC(=O)OCc3ccccc3)O)O)NC(=O)OCc4ccccc4

$$$$
