2P3C_3TL_A_201


 74 77  0  0  0  0  0  0  0  0999 V2000
   -9.9406  -16.2603   13.8297 C   0  0  0  0  0  0  0  0  0  0  0  0
  -10.3303  -17.4534   13.1859 O   0  0  0  0  0  0  0  0  0  0  0  0
   -9.9106  -17.5016   12.3128 H   0  0  0  0  0  0  0  0  0  0  0  0
   -8.4318  -16.3415   13.9778 C   0  0  0  0  0  0  0  0  0  0  0  0
   -8.0843  -17.7214   13.8971 O   0  0  0  0  0  0  0  0  0  0  0  0
   -8.4981  -18.2025   14.6308 H   0  0  0  0  0  0  0  0  0  0  0  0
   -7.8640  -15.8094   15.2801 C   0  0  0  0  0  0  0  0  0  0  0  0
   -6.4714  -15.4580   15.0313 N   0  0  0  0  0  0  0  0  0  0  0  0
   -5.4221  -16.2763   15.1005 C   0  0  0  0  0  0  0  0  0  0  0  0
   -5.4652  -17.4282   15.5131 O   0  0  0  0  0  0  0  0  0  0  0  0
   -6.2877  -14.5220   14.7876 H   0  0  0  0  0  0  0  0  0  0  0  0
   -4.1320  -15.6503   14.6557 C   0  0  0  0  0  0  0  0  0  0  0  0
   -3.0710  -16.0734   15.5683 N   0  0  0  0  0  0  0  0  0  0  0  0
   -2.1014  -15.2853   16.0411 C   0  0  0  0  0  0  0  0  0  0  0  0
   -1.8434  -14.1838   15.5860 O   0  0  0  0  0  0  0  0  0  0  0  0
   -3.0712  -17.0145   15.8577 H   0  0  0  0  0  0  0  0  0  0  0  0
   -1.2569  -15.8648   17.1452 C   0  0  0  0  0  0  0  0  0  0  0  0
   -0.7790  -17.2911   16.8820 C   0  0  0  0  0  0  0  0  0  0  0  0
   -1.9995  -15.8399   18.3904 N   0  0  0  0  0  0  0  0  0  0  0  0
   -1.7446  -14.9409   19.3340 C   0  0  0  0  0  0  0  0  0  0  0  0
   -0.8431  -14.1194   19.2568 O   0  0  0  0  0  0  0  0  0  0  0  0
   -2.7095  -16.5053   18.5399 H   0  0  0  0  0  0  0  0  0  0  0  0
   -2.5843  -14.9843   20.5183 O   0  0  0  0  0  0  0  0  0  0  0  0
   -3.1094  -16.2260   20.9877 C   0  0  0  0  0  0  0  0  0  0  0  0
   -4.5433  -16.4261   20.5456 C   0  0  0  0  0  0  0  0  0  0  0  0
   -5.5764  -16.0233   21.3931 C   0  0  0  0  0  0  0  0  0  0  0  0
   -6.9072  -16.1823   21.0028 C   0  0  0  0  0  0  0  0  0  0  0  0
   -7.2102  -16.7432   19.7649 C   0  0  0  0  0  0  0  0  0  0  0  0
   -6.1742  -17.1381   18.9155 C   0  0  0  0  0  0  0  0  0  0  0  0
   -4.8386  -16.9769   19.2973 C   0  0  0  0  0  0  0  0  0  0  0  0
   -3.8279  -15.9327   13.1725 C   0  0  0  0  0  0  0  0  0  0  0  0
   -5.0920  -16.1276   12.3222 C   0  0  0  0  0  0  0  0  0  0  0  0
   -2.9443  -17.1645   13.0365 C   0  0  0  0  0  0  0  0  0  0  0  0
   -8.7328  -14.5886   15.5677 C   0  0  0  0  0  0  0  0  0  0  0  0
   -9.0366  -14.3767   17.0269 C   0  0  0  0  0  0  0  0  0  0  0  0
  -10.2392  -14.8033   17.5694 C   0  0  0  0  0  0  0  0  0  0  0  0
   -8.0839  -13.7686   17.8143 C   0  0  0  0  0  0  0  0  0  0  0  0
  -10.5116  -14.6068   18.9175 C   0  0  0  0  0  0  0  0  0  0  0  0
   -8.3466  -13.5671   19.1565 C   0  0  0  0  0  0  0  0  0  0  0  0
   -9.5608  -13.9798   19.7034 C   0  0  0  0  0  0  0  0  0  0  0  0
  -10.4387  -15.1203   12.9590 C   0  0  0  0  0  0  0  0  0  0  0  0
   -9.7706  -14.5190   10.7093 C   0  0  0  0  0  0  0  0  0  0  0  0
   -9.4470  -13.3961   11.0346 O   0  0  0  0  0  0  0  0  0  0  0  0
  -10.2257  -15.4259   11.5620 N   0  0  0  0  0  0  0  0  0  0  0  0
  -10.4242  -16.3330   11.2350 H   0  0  0  0  0  0  0  0  0  0  0  0
   -9.7247  -14.9439    9.2787 C   0  0  0  0  0  0  0  0  0  0  0  0
  -11.5058  -13.7643    8.0758 C   0  0  0  0  0  0  0  0  0  0  0  0
  -12.3158  -14.6462    8.2834 O   0  0  0  0  0  0  0  0  0  0  0  0
  -10.2560  -13.8299    8.5029 N   0  0  0  0  0  0  0  0  0  0  0  0
   -9.6506  -13.0848    8.2848 H   0  0  0  0  0  0  0  0  0  0  0  0
  -11.8723  -12.5388    7.2880 C   0  0  0  0  0  0  0  0  0  0  0  0
  -10.7873  -12.2459    6.2571 C   0  0  0  0  0  0  0  0  0  0  0  0
  -13.2867  -10.8977    8.4264 C   0  0  0  0  0  0  0  0  0  0  0  0
  -14.3263  -11.3954    8.0178 O   0  0  0  0  0  0  0  0  0  0  0  0
  -12.0743  -11.3929    8.1571 N   0  0  0  0  0  0  0  0  0  0  0  0
  -11.2872  -10.9636    8.5640 H   0  0  0  0  0  0  0  0  0  0  0  0
  -13.3595   -9.6865    9.2324 O   0  0  0  0  0  0  0  0  0  0  0  0
  -12.1868   -9.1141    9.8062 C   0  0  0  0  0  0  0  0  0  0  0  0
  -12.3582   -7.6519   10.1592 C   0  0  0  0  0  0  0  0  0  0  0  0
  -11.3257   -6.9899   10.8417 C   0  0  0  0  0  0  0  0  0  0  0  0
  -11.4459   -5.6421   11.1624 C   0  0  0  0  0  0  0  0  0  0  0  0
  -12.6055   -4.9464   10.8090 C   0  0  0  0  0  0  0  0  0  0  0  0
  -13.6353   -5.6042   10.1280 C   0  0  0  0  0  0  0  0  0  0  0  0
  -13.5066   -6.9613    9.7991 C   0  0  0  0  0  0  0  0  0  0  0  0
   -8.3145  -15.3220    8.8273 C   0  0  0  0  0  0  0  0  0  0  0  0
   -8.2608  -15.6131    7.3309 C   0  0  0  0  0  0  0  0  0  0  0  0
   -7.6862  -16.4831    9.6020 C   0  0  0  0  0  0  0  0  0  0  0  0
  -11.9266  -14.8727   13.1916 C   0  0  0  0  0  0  0  0  0  0  0  0
  -12.1579  -13.3866   13.2463 C   0  0  0  0  0  0  0  0  0  0  0  0
  -12.9048  -12.7660   12.2420 C   0  0  0  0  0  0  0  0  0  0  0  0
  -11.6282  -12.6503   14.3043 C   0  0  0  0  0  0  0  0  0  0  0  0
  -13.1038  -11.3880   12.3025 C   0  0  0  0  0  0  0  0  0  0  0  0
  -11.8270  -11.2741   14.3532 C   0  0  0  0  0  0  0  0  0  0  0  0
  -12.5594  -10.6457   13.3521 C   0  0  0  0  0  0  0  0  0  0  0  0
 53 54  2  0  0  0
 53 57  1  0  0  0
 53 55  1  0  0  0
 57 58  1  0  0  0
 58 59  1  0  0  0
 59 60  2  0  0  0
 59 64  1  0  0  0
 60 61  1  0  0  0
 61 62  2  0  0  0
 62 63  1  0  0  0
 63 64  2  0  0  0
 55 51  1  0  0  0
 51 47  1  0  0  0
 51 52  1  0  0  0
 47 48  2  0  0  0
 47 49  1  0  0  0
 49 46  1  0  0  0
 46 42  1  0  0  0
 46 65  1  0  0  0
 42 43  2  0  0  0
 42 44  1  0  0  0
 65 66  1  0  0  0
 65 67  1  0  0  0
  1  2  1  0  0  0
  1 41  1  0  0  0
  1  4  1  0  0  0
 41 44  1  0  0  0
 41 68  1  0  0  0
 68 69  1  0  0  0
 69 70  2  0  0  0
 69 71  1  0  0  0
 70 72  1  0  0  0
 71 73  2  0  0  0
 72 74  2  0  0  0
 73 74  1  0  0  0
  8  7  1  0  0  0
  8  9  1  0  0  0
  7  4  1  0  0  0
  7 34  1  0  0  0
  4  5  1  0  0  0
 34 35  1  0  0  0
 35 36  2  0  0  0
 35 37  1  0  0  0
 36 38  1  0  0  0
 37 39  2  0  0  0
 38 40  2  0  0  0
 39 40  1  0  0  0
 13 12  1  0  0  0
 13 14  1  0  0  0
 12  9  1  0  0  0
 12 31  1  0  0  0
  9 10  2  0  0  0
 31 32  1  0  0  0
 31 33  1  0  0  0
 19 17  1  0  0  0
 19 20  1  0  0  0
 17 14  1  0  0  0
 17 18  1  0  0  0
 14 15  2  0  0  0
 20 21  2  0  0  0
 20 23  1  0  0  0
 23 24  1  0  0  0
 24 25  1  0  0  0
 25 26  2  0  0  0
 25 30  1  0  0  0
 26 27  1  0  0  0
 27 28  2  0  0  0
 28 29  1  0  0  0
 29 30  2  0  0  0
 55 56  1  0  0  0
 49 50  1  0  0  0
  2  3  1  0  0  0
 44 45  1  0  0  0
  8 11  1  0  0  0
  5  6  1  0  0  0
 13 16  1  0  0  0
 19 22  1  0  0  0
M  END
> <minimizedAffinity>
-10.87521

$$$$
2P3C_3TL_A_201


 74 77  0  0  0  0  0  0  0  0999 V2000
   -9.8660  -16.1272   13.0093 C   0  0  0  0  0  0  0  0  0  0  0  0
  -10.4776  -17.3852   13.1915 O   0  0  0  0  0  0  0  0  0  0  0  0
  -10.6568  -17.5240   14.1347 H   0  0  0  0  0  0  0  0  0  0  0  0
  -10.8681  -15.1016   13.5082 C   0  0  0  0  0  0  0  0  0  0  0  0
  -12.1052  -15.7871   13.6844 O   0  0  0  0  0  0  0  0  0  0  0  0
  -12.4081  -16.1321   12.8299 H   0  0  0  0  0  0  0  0  0  0  0  0
  -11.1311  -13.9278   12.5840 C   0  0  0  0  0  0  0  0  0  0  0  0
  -10.8290  -14.3705   11.2285 N   0  0  0  0  0  0  0  0  0  0  0  0
   -9.7254  -14.0994   10.5327 C   0  0  0  0  0  0  0  0  0  0  0  0
   -8.8504  -13.3222   10.8926 O   0  0  0  0  0  0  0  0  0  0  0  0
  -11.5086  -14.9256   10.7822 H   0  0  0  0  0  0  0  0  0  0  0  0
   -9.6475  -14.8117    9.2134 C   0  0  0  0  0  0  0  0  0  0  0  0
  -10.1698  -13.9251    8.1748 N   0  0  0  0  0  0  0  0  0  0  0  0
  -11.4630  -13.7548    7.8857 C   0  0  0  0  0  0  0  0  0  0  0  0
  -12.3482  -14.4908    8.2877 O   0  0  0  0  0  0  0  0  0  0  0  0
   -9.5163  -13.4126    7.6462 H   0  0  0  0  0  0  0  0  0  0  0  0
  -11.7874  -12.6247    6.9446 C   0  0  0  0  0  0  0  0  0  0  0  0
  -10.9818  -12.6423    5.6474 C   0  0  0  0  0  0  0  0  0  0  0  0
  -11.5727  -11.3565    7.6142 N   0  0  0  0  0  0  0  0  0  0  0  0
  -12.2527  -10.2674    7.2751 C   0  0  0  0  0  0  0  0  0  0  0  0
  -13.0518  -10.2319    6.3512 O   0  0  0  0  0  0  0  0  0  0  0  0
  -10.9071  -11.3016    8.3375 H   0  0  0  0  0  0  0  0  0  0  0  0
  -11.9859   -9.0666    8.0474 O   0  0  0  0  0  0  0  0  0  0  0  0
  -12.9888   -8.0610    8.1909 C   0  0  0  0  0  0  0  0  0  0  0  0
  -12.6204   -7.0570    9.2625 C   0  0  0  0  0  0  0  0  0  0  0  0
  -13.3453   -5.8681    9.3553 C   0  0  0  0  0  0  0  0  0  0  0  0
  -13.0361   -4.9325   10.3440 C   0  0  0  0  0  0  0  0  0  0  0  0
  -12.0027   -5.1818   11.2434 C   0  0  0  0  0  0  0  0  0  0  0  0
  -11.2841   -6.3760   11.1531 C   0  0  0  0  0  0  0  0  0  0  0  0
  -11.5916   -7.3204   10.1686 C   0  0  0  0  0  0  0  0  0  0  0  0
   -8.2330  -15.3472    8.9226 C   0  0  0  0  0  0  0  0  0  0  0  0
   -8.0673  -15.8707    7.4883 C   0  0  0  0  0  0  0  0  0  0  0  0
   -7.8738  -16.4572    9.9000 C   0  0  0  0  0  0  0  0  0  0  0  0
  -12.6164  -13.6463   12.7898 C   0  0  0  0  0  0  0  0  0  0  0  0
  -13.2019  -12.6681   11.8065 C   0  0  0  0  0  0  0  0  0  0  0  0
  -14.1542  -13.0746   10.8845 C   0  0  0  0  0  0  0  0  0  0  0  0
  -12.7850  -11.3562   11.8582 C   0  0  0  0  0  0  0  0  0  0  0  0
  -14.6921  -12.1658    9.9818 C   0  0  0  0  0  0  0  0  0  0  0  0
  -13.3132  -10.4449   10.9628 C   0  0  0  0  0  0  0  0  0  0  0  0
  -14.2594  -10.8521   10.0233 C   0  0  0  0  0  0  0  0  0  0  0  0
   -8.5570  -16.1709   13.7777 C   0  0  0  0  0  0  0  0  0  0  0  0
   -8.1498  -15.2926   15.9984 C   0  0  0  0  0  0  0  0  0  0  0  0
   -7.3380  -14.4834   15.6013 O   0  0  0  0  0  0  0  0  0  0  0  0
   -8.8086  -16.1209   15.2005 N   0  0  0  0  0  0  0  0  0  0  0  0
   -9.4882  -16.7188   15.5876 H   0  0  0  0  0  0  0  0  0  0  0  0
   -8.4258  -15.4459   17.4577 C   0  0  0  0  0  0  0  0  0  0  0  0
   -7.0178  -16.4165   19.2143 C   0  0  0  0  0  0  0  0  0  0  0  0
   -7.9732  -16.8507   19.8271 O   0  0  0  0  0  0  0  0  0  0  0  0
   -7.1438  -15.7324   18.0896 N   0  0  0  0  0  0  0  0  0  0  0  0
   -6.3262  -15.3980   17.6549 H   0  0  0  0  0  0  0  0  0  0  0  0
   -5.6155  -16.6109   19.7168 C   0  0  0  0  0  0  0  0  0  0  0  0
   -5.3037  -15.5713   20.7883 C   0  0  0  0  0  0  0  0  0  0  0  0
   -3.6906  -17.4476   18.4581 C   0  0  0  0  0  0  0  0  0  0  0  0
   -3.5763  -18.4498   19.1494 O   0  0  0  0  0  0  0  0  0  0  0  0
   -4.6507  -16.5338   18.6340 N   0  0  0  0  0  0  0  0  0  0  0  0
   -4.7059  -15.7789   18.0045 H   0  0  0  0  0  0  0  0  0  0  0  0
   -2.7203  -17.2143   17.3970 O   0  0  0  0  0  0  0  0  0  0  0  0
   -2.3487  -15.8910   17.0189 C   0  0  0  0  0  0  0  0  0  0  0  0
   -0.8591  -15.6441   17.1292 C   0  0  0  0  0  0  0  0  0  0  0  0
   -0.3987  -14.3339   17.3328 C   0  0  0  0  0  0  0  0  0  0  0  0
    0.9626  -14.0783   17.4576 C   0  0  0  0  0  0  0  0  0  0  0  0
    1.8763  -15.1325   17.3716 C   0  0  0  0  0  0  0  0  0  0  0  0
    1.4193  -16.4391   17.1694 C   0  0  0  0  0  0  0  0  0  0  0  0
    0.0453  -16.6937   17.0526 C   0  0  0  0  0  0  0  0  0  0  0  0
   -9.0854  -14.2059   18.0601 C   0  0  0  0  0  0  0  0  0  0  0  0
   -8.0997  -13.3904   18.8907 C   0  0  0  0  0  0  0  0  0  0  0  0
  -10.3441  -14.4892   18.8840 C   0  0  0  0  0  0  0  0  0  0  0  0
   -7.7831  -17.4462   13.4551 C   0  0  0  0  0  0  0  0  0  0  0  0
   -6.3114  -17.1396   13.5265 C   0  0  0  0  0  0  0  0  0  0  0  0
   -5.8096  -16.0059   12.8826 C   0  0  0  0  0  0  0  0  0  0  0  0
   -5.4695  -17.9893   14.2414 C   0  0  0  0  0  0  0  0  0  0  0  0
   -4.4434  -15.7397   12.9515 C   0  0  0  0  0  0  0  0  0  0  0  0
   -4.1060  -17.7188   14.2998 C   0  0  0  0  0  0  0  0  0  0  0  0
   -3.5955  -16.5989   13.6525 C   0  0  0  0  0  0  0  0  0  0  0  0
 53 54  2  0  0  0
 53 57  1  0  0  0
 53 55  1  0  0  0
 57 58  1  0  0  0
 58 59  1  0  0  0
 59 60  2  0  0  0
 59 64  1  0  0  0
 60 61  1  0  0  0
 61 62  2  0  0  0
 62 63  1  0  0  0
 63 64  2  0  0  0
 55 51  1  0  0  0
 51 47  1  0  0  0
 51 52  1  0  0  0
 47 48  2  0  0  0
 47 49  1  0  0  0
 49 46  1  0  0  0
 46 42  1  0  0  0
 46 65  1  0  0  0
 42 43  2  0  0  0
 42 44  1  0  0  0
 65 66  1  0  0  0
 65 67  1  0  0  0
  1  2  1  0  0  0
  1 41  1  0  0  0
  1  4  1  0  0  0
 41 44  1  0  0  0
 41 68  1  0  0  0
 68 69  1  0  0  0
 69 70  2  0  0  0
 69 71  1  0  0  0
 70 72  1  0  0  0
 71 73  2  0  0  0
 72 74  2  0  0  0
 73 74  1  0  0  0
  8  7  1  0  0  0
  8  9  1  0  0  0
  7  4  1  0  0  0
  7 34  1  0  0  0
  4  5  1  0  0  0
 34 35  1  0  0  0
 35 36  2  0  0  0
 35 37  1  0  0  0
 36 38  1  0  0  0
 37 39  2  0  0  0
 38 40  2  0  0  0
 39 40  1  0  0  0
 13 12  1  0  0  0
 13 14  1  0  0  0
 12  9  1  0  0  0
 12 31  1  0  0  0
  9 10  2  0  0  0
 31 32  1  0  0  0
 31 33  1  0  0  0
 19 17  1  0  0  0
 19 20  1  0  0  0
 17 14  1  0  0  0
 17 18  1  0  0  0
 14 15  2  0  0  0
 20 21  2  0  0  0
 20 23  1  0  0  0
 23 24  1  0  0  0
 24 25  1  0  0  0
 25 26  2  0  0  0
 25 30  1  0  0  0
 26 27  1  0  0  0
 27 28  2  0  0  0
 28 29  1  0  0  0
 29 30  2  0  0  0
 55 56  1  0  0  0
 49 50  1  0  0  0
  2  3  1  0  0  0
 44 45  1  0  0  0
  8 11  1  0  0  0
  5  6  1  0  0  0
 13 16  1  0  0  0
 19 22  1  0  0  0
M  END
> <minimizedAffinity>
-10.73183

$$$$
2P3C_3TL_A_201


 74 77  0  0  0  0  0  0  0  0999 V2000
   -9.8933  -16.2852   13.8804 C   0  0  0  0  0  0  0  0  0  0  0  0
  -10.3527  -17.4699   13.2677 O   0  0  0  0  0  0  0  0  0  0  0  0
   -9.9770  -17.5395   12.3761 H   0  0  0  0  0  0  0  0  0  0  0  0
   -8.3827  -16.4158   13.9574 C   0  0  0  0  0  0  0  0  0  0  0  0
   -8.0783  -17.7940   13.7589 O   0  0  0  0  0  0  0  0  0  0  0  0
   -8.4755  -18.3187   14.4715 H   0  0  0  0  0  0  0  0  0  0  0  0
   -7.7474  -15.9988   15.2704 C   0  0  0  0  0  0  0  0  0  0  0  0
   -6.3131  -15.8840   15.0378 N   0  0  0  0  0  0  0  0  0  0  0  0
   -5.3418  -16.3044   15.8473 C   0  0  0  0  0  0  0  0  0  0  0  0
   -5.5192  -16.7399   16.9778 O   0  0  0  0  0  0  0  0  0  0  0  0
   -6.0338  -15.4524   14.1981 H   0  0  0  0  0  0  0  0  0  0  0  0
   -3.9638  -16.1661   15.2675 C   0  0  0  0  0  0  0  0  0  0  0  0
   -2.9908  -16.2547   16.3551 N   0  0  0  0  0  0  0  0  0  0  0  0
   -2.0897  -15.3170   16.6613 C   0  0  0  0  0  0  0  0  0  0  0  0
   -1.8105  -14.3830   15.9289 O   0  0  0  0  0  0  0  0  0  0  0  0
   -3.0003  -17.0707   16.9058 H   0  0  0  0  0  0  0  0  0  0  0  0
   -1.3478  -15.5105   17.9575 C   0  0  0  0  0  0  0  0  0  0  0  0
   -2.2416  -15.4983   19.1957 C   0  0  0  0  0  0  0  0  0  0  0  0
   -0.3360  -14.4812   18.0977 N   0  0  0  0  0  0  0  0  0  0  0  0
    0.9569  -14.7550   17.9677 C   0  0  0  0  0  0  0  0  0  0  0  0
    1.3923  -15.8821   17.7846 O   0  0  0  0  0  0  0  0  0  0  0  0
   -0.6143  -13.5575   18.2940 H   0  0  0  0  0  0  0  0  0  0  0  0
    1.8742  -13.6349   18.0829 O   0  0  0  0  0  0  0  0  0  0  0  0
    1.5144  -12.3500   17.5756 C   0  0  0  0  0  0  0  0  0  0  0  0
    1.7018  -12.2719   16.0754 C   0  0  0  0  0  0  0  0  0  0  0  0
    2.9243  -12.6584   15.5240 C   0  0  0  0  0  0  0  0  0  0  0  0
    3.1178  -12.6108   14.1425 C   0  0  0  0  0  0  0  0  0  0  0  0
    2.0911  -12.1777   13.3074 C   0  0  0  0  0  0  0  0  0  0  0  0
    0.8662  -11.7991   13.8613 C   0  0  0  0  0  0  0  0  0  0  0  0
    0.6630  -11.8493   15.2441 C   0  0  0  0  0  0  0  0  0  0  0  0
   -3.7107  -17.1635   14.1215 C   0  0  0  0  0  0  0  0  0  0  0  0
   -3.9054  -16.5466   12.7286 C   0  0  0  0  0  0  0  0  0  0  0  0
   -4.6231  -18.3739   14.2596 C   0  0  0  0  0  0  0  0  0  0  0  0
   -8.4020  -14.6522   15.5637 C   0  0  0  0  0  0  0  0  0  0  0  0
   -8.8653  -14.4875   16.9866 C   0  0  0  0  0  0  0  0  0  0  0  0
  -10.2065  -14.6149   17.3142 C   0  0  0  0  0  0  0  0  0  0  0  0
   -7.9235  -14.2287   17.9579 C   0  0  0  0  0  0  0  0  0  0  0  0
  -10.6265  -14.4643   18.6299 C   0  0  0  0  0  0  0  0  0  0  0  0
   -8.3320  -14.0754   19.2697 C   0  0  0  0  0  0  0  0  0  0  0  0
   -9.6815  -14.1867   19.6018 C   0  0  0  0  0  0  0  0  0  0  0  0
  -10.3944  -15.1365   13.0230 C   0  0  0  0  0  0  0  0  0  0  0  0
   -9.7299  -14.6120   10.7532 C   0  0  0  0  0  0  0  0  0  0  0  0
   -9.2682  -13.5350   11.0669 O   0  0  0  0  0  0  0  0  0  0  0  0
  -10.2611  -15.4617   11.6206 N   0  0  0  0  0  0  0  0  0  0  0  0
  -10.5735  -16.3389   11.3011 H   0  0  0  0  0  0  0  0  0  0  0  0
   -9.7773  -15.0361    9.3224 C   0  0  0  0  0  0  0  0  0  0  0  0
  -11.5522  -13.8208    8.1462 C   0  0  0  0  0  0  0  0  0  0  0  0
  -12.3646  -14.7063    8.3274 O   0  0  0  0  0  0  0  0  0  0  0  0
  -10.3039  -13.9005    8.5754 N   0  0  0  0  0  0  0  0  0  0  0  0
   -9.6963  -13.1510    8.3793 H   0  0  0  0  0  0  0  0  0  0  0  0
  -11.9138  -12.5737    7.3907 C   0  0  0  0  0  0  0  0  0  0  0  0
  -10.7501  -12.1575    6.4972 C   0  0  0  0  0  0  0  0  0  0  0  0
  -13.5384  -11.2625    8.6679 C   0  0  0  0  0  0  0  0  0  0  0  0
  -14.4827  -11.9645    8.3350 O   0  0  0  0  0  0  0  0  0  0  0  0
  -12.2761  -11.4953    8.2935 N   0  0  0  0  0  0  0  0  0  0  0  0
  -11.5640  -10.9126    8.6437 H   0  0  0  0  0  0  0  0  0  0  0  0
  -13.7934  -10.0935    9.4987 O   0  0  0  0  0  0  0  0  0  0  0  0
  -13.9308   -8.7974    8.9212 C   0  0  0  0  0  0  0  0  0  0  0  0
  -13.1079   -7.7455    9.6341 C   0  0  0  0  0  0  0  0  0  0  0  0
  -13.5635   -6.4180    9.6486 C   0  0  0  0  0  0  0  0  0  0  0  0
  -12.8394   -5.4332   10.3117 C   0  0  0  0  0  0  0  0  0  0  0  0
  -11.6473   -5.7679   10.9603 C   0  0  0  0  0  0  0  0  0  0  0  0
  -11.1920   -7.0906   10.9476 C   0  0  0  0  0  0  0  0  0  0  0  0
  -11.9296   -8.0822   10.2849 C   0  0  0  0  0  0  0  0  0  0  0  0
   -8.4095  -15.4699    8.7968 C   0  0  0  0  0  0  0  0  0  0  0  0
   -7.6785  -16.3612    9.7957 C   0  0  0  0  0  0  0  0  0  0  0  0
   -7.4963  -14.3187    8.3674 C   0  0  0  0  0  0  0  0  0  0  0  0
  -11.8598  -14.8354   13.3255 C   0  0  0  0  0  0  0  0  0  0  0  0
  -12.0398  -13.3417   13.3630 C   0  0  0  0  0  0  0  0  0  0  0  0
  -11.4061  -12.5939   14.3584 C   0  0  0  0  0  0  0  0  0  0  0  0
  -12.8325  -12.7238   12.3977 C   0  0  0  0  0  0  0  0  0  0  0  0
  -11.5886  -11.2126   14.3843 C   0  0  0  0  0  0  0  0  0  0  0  0
  -13.0139  -11.3449   12.4350 C   0  0  0  0  0  0  0  0  0  0  0  0
  -12.3963  -10.5934   13.4288 C   0  0  0  0  0  0  0  0  0  0  0  0
 53 54  2  0  0  0
 53 57  1  0  0  0
 53 55  1  0  0  0
 57 58  1  0  0  0
 58 59  1  0  0  0
 59 60  2  0  0  0
 59 64  1  0  0  0
 60 61  1  0  0  0
 61 62  2  0  0  0
 62 63  1  0  0  0
 63 64  2  0  0  0
 55 51  1  0  0  0
 51 47  1  0  0  0
 51 52  1  0  0  0
 47 48  2  0  0  0
 47 49  1  0  0  0
 49 46  1  0  0  0
 46 42  1  0  0  0
 46 65  1  0  0  0
 42 43  2  0  0  0
 42 44  1  0  0  0
 65 66  1  0  0  0
 65 67  1  0  0  0
  1  2  1  0  0  0
  1 41  1  0  0  0
  1  4  1  0  0  0
 41 44  1  0  0  0
 41 68  1  0  0  0
 68 69  1  0  0  0
 69 70  2  0  0  0
 69 71  1  0  0  0
 70 72  1  0  0  0
 71 73  2  0  0  0
 72 74  2  0  0  0
 73 74  1  0  0  0
  8  7  1  0  0  0
  8  9  1  0  0  0
  7  4  1  0  0  0
  7 34  1  0  0  0
  4  5  1  0  0  0
 34 35  1  0  0  0
 35 36  2  0  0  0
 35 37  1  0  0  0
 36 38  1  0  0  0
 37 39  2  0  0  0
 38 40  2  0  0  0
 39 40  1  0  0  0
 13 12  1  0  0  0
 13 14  1  0  0  0
 12  9  1  0  0  0
 12 31  1  0  0  0
  9 10  2  0  0  0
 31 32  1  0  0  0
 31 33  1  0  0  0
 19 17  1  0  0  0
 19 20  1  0  0  0
 17 14  1  0  0  0
 17 18  1  0  0  0
 14 15  2  0  0  0
 20 21  2  0  0  0
 20 23  1  0  0  0
 23 24  1  0  0  0
 24 25  1  0  0  0
 25 26  2  0  0  0
 25 30  1  0  0  0
 26 27  1  0  0  0
 27 28  2  0  0  0
 28 29  1  0  0  0
 29 30  2  0  0  0
 55 56  1  0  0  0
 49 50  1  0  0  0
  2  3  1  0  0  0
 44 45  1  0  0  0
  8 11  1  0  0  0
  5  6  1  0  0  0
 13 16  1  0  0  0
 19 22  1  0  0  0
M  END
> <minimizedAffinity>
-10.68407

$$$$
2P3C_3TL_A_201


 74 77  0  0  0  0  0  0  0  0999 V2000
   -9.8712  -16.2446   13.8780 C   0  0  0  0  0  0  0  0  0  0  0  0
  -10.3045  -17.4307   13.2494 O   0  0  0  0  0  0  0  0  0  0  0  0
   -9.9188  -17.4854   12.3611 H   0  0  0  0  0  0  0  0  0  0  0  0
   -8.3594  -16.3508   13.9692 C   0  0  0  0  0  0  0  0  0  0  0  0
   -8.0263  -17.7122   13.7103 O   0  0  0  0  0  0  0  0  0  0  0  0
   -8.4224  -18.2772   14.3920 H   0  0  0  0  0  0  0  0  0  0  0  0
   -7.7488  -15.9845   15.3087 C   0  0  0  0  0  0  0  0  0  0  0  0
   -6.3055  -15.9114   15.1188 N   0  0  0  0  0  0  0  0  0  0  0  0
   -5.3714  -16.3698   15.9511 C   0  0  0  0  0  0  0  0  0  0  0  0
   -5.5947  -16.8115   17.0710 O   0  0  0  0  0  0  0  0  0  0  0  0
   -5.9889  -15.4798   14.2924 H   0  0  0  0  0  0  0  0  0  0  0  0
   -3.9736  -16.2678   15.4127 C   0  0  0  0  0  0  0  0  0  0  0  0
   -3.0350  -16.5043   16.5085 N   0  0  0  0  0  0  0  0  0  0  0  0
   -2.1290  -15.6272   16.9500 C   0  0  0  0  0  0  0  0  0  0  0  0
   -1.8136  -14.6178   16.3430 O   0  0  0  0  0  0  0  0  0  0  0  0
   -3.0736  -17.3799   16.9569 H   0  0  0  0  0  0  0  0  0  0  0  0
   -1.4293  -15.9881   18.2338 C   0  0  0  0  0  0  0  0  0  0  0  0
   -1.5716  -17.4560   18.6305 C   0  0  0  0  0  0  0  0  0  0  0  0
   -1.9317  -15.1588   19.3120 N   0  0  0  0  0  0  0  0  0  0  0  0
   -1.1123  -14.4822   20.1084 C   0  0  0  0  0  0  0  0  0  0  0  0
    0.1058  -14.5508   20.0375 O   0  0  0  0  0  0  0  0  0  0  0  0
   -2.9034  -15.0959   19.4570 H   0  0  0  0  0  0  0  0  0  0  0  0
   -1.7322  -13.6487   21.1235 O   0  0  0  0  0  0  0  0  0  0  0  0
   -1.1976  -13.6014   22.4462 C   0  0  0  0  0  0  0  0  0  0  0  0
   -0.5002  -12.2854   22.7175 C   0  0  0  0  0  0  0  0  0  0  0  0
   -0.7357  -11.2053   21.8656 C   0  0  0  0  0  0  0  0  0  0  0  0
   -0.1174   -9.9764   22.1023 C   0  0  0  0  0  0  0  0  0  0  0  0
    0.7373   -9.8223   23.1907 C   0  0  0  0  0  0  0  0  0  0  0  0
    0.9650  -10.9026   24.0460 C   0  0  0  0  0  0  0  0  0  0  0  0
    0.3449  -12.1352   23.8185 C   0  0  0  0  0  0  0  0  0  0  0  0
   -3.7506  -17.1811   14.1928 C   0  0  0  0  0  0  0  0  0  0  0  0
   -4.0249  -16.4801   12.8541 C   0  0  0  0  0  0  0  0  0  0  0  0
   -4.6263  -18.4220   14.2911 C   0  0  0  0  0  0  0  0  0  0  0  0
   -8.3680  -14.6243   15.6154 C   0  0  0  0  0  0  0  0  0  0  0  0
   -8.8784  -14.4815   17.0245 C   0  0  0  0  0  0  0  0  0  0  0  0
  -10.2327  -14.5879   17.3016 C   0  0  0  0  0  0  0  0  0  0  0  0
   -7.9668  -14.2640   18.0340 C   0  0  0  0  0  0  0  0  0  0  0  0
  -10.6963  -14.4577   18.6049 C   0  0  0  0  0  0  0  0  0  0  0  0
   -8.4187  -14.1313   19.3338 C   0  0  0  0  0  0  0  0  0  0  0  0
   -9.7811  -14.2216   19.6156 C   0  0  0  0  0  0  0  0  0  0  0  0
  -10.3828  -15.0961   13.0266 C   0  0  0  0  0  0  0  0  0  0  0  0
   -9.6755  -14.6324   10.7564 C   0  0  0  0  0  0  0  0  0  0  0  0
   -9.1116  -13.6057   11.0715 O   0  0  0  0  0  0  0  0  0  0  0  0
  -10.2842  -15.4292   11.6231 N   0  0  0  0  0  0  0  0  0  0  0  0
  -10.6804  -16.2714   11.3023 H   0  0  0  0  0  0  0  0  0  0  0  0
   -9.7664  -15.0465    9.3248 C   0  0  0  0  0  0  0  0  0  0  0  0
  -11.5340  -13.7943    8.1766 C   0  0  0  0  0  0  0  0  0  0  0  0
  -12.3556  -14.6726    8.3506 O   0  0  0  0  0  0  0  0  0  0  0  0
  -10.2841  -13.8945    8.5968 N   0  0  0  0  0  0  0  0  0  0  0  0
   -9.6689  -13.1496    8.4074 H   0  0  0  0  0  0  0  0  0  0  0  0
  -11.8853  -12.5326    7.4407 C   0  0  0  0  0  0  0  0  0  0  0  0
  -10.8561  -12.2714    6.3461 C   0  0  0  0  0  0  0  0  0  0  0  0
  -12.9875  -10.5338    8.3235 C   0  0  0  0  0  0  0  0  0  0  0  0
  -13.9586  -10.6508    7.5895 O   0  0  0  0  0  0  0  0  0  0  0  0
  -11.9686  -11.3992    8.3450 N   0  0  0  0  0  0  0  0  0  0  0  0
  -11.2461  -11.2627    8.9997 H   0  0  0  0  0  0  0  0  0  0  0  0
  -12.9151   -9.3807    9.2107 O   0  0  0  0  0  0  0  0  0  0  0  0
  -13.1255   -8.0598    8.7177 C   0  0  0  0  0  0  0  0  0  0  0  0
  -12.6573   -6.9906    9.6818 C   0  0  0  0  0  0  0  0  0  0  0  0
  -11.5013   -7.2192   10.4443 C   0  0  0  0  0  0  0  0  0  0  0  0
  -11.0357   -6.2480   11.3240 C   0  0  0  0  0  0  0  0  0  0  0  0
  -11.7286   -5.0411   11.4538 C   0  0  0  0  0  0  0  0  0  0  0  0
  -12.8805   -4.8110   10.6942 C   0  0  0  0  0  0  0  0  0  0  0  0
  -13.3419   -5.7896    9.8020 C   0  0  0  0  0  0  0  0  0  0  0  0
   -8.4218  -15.5084    8.7644 C   0  0  0  0  0  0  0  0  0  0  0  0
   -7.6478  -16.3476    9.7760 C   0  0  0  0  0  0  0  0  0  0  0  0
   -7.5291  -14.3820    8.2375 C   0  0  0  0  0  0  0  0  0  0  0  0
  -11.8384  -14.7818   13.3610 C   0  0  0  0  0  0  0  0  0  0  0  0
  -12.0355  -13.2925   13.2713 C   0  0  0  0  0  0  0  0  0  0  0  0
  -11.5397  -12.4675   14.2837 C   0  0  0  0  0  0  0  0  0  0  0  0
  -12.7054  -12.7561   12.1733 C   0  0  0  0  0  0  0  0  0  0  0  0
  -11.7368  -11.0910   14.1901 C   0  0  0  0  0  0  0  0  0  0  0  0
  -12.9028  -11.3813   12.0913 C   0  0  0  0  0  0  0  0  0  0  0  0
  -12.4228  -10.5529   13.0999 C   0  0  0  0  0  0  0  0  0  0  0  0
 53 54  2  0  0  0
 53 57  1  0  0  0
 53 55  1  0  0  0
 57 58  1  0  0  0
 58 59  1  0  0  0
 59 60  2  0  0  0
 59 64  1  0  0  0
 60 61  1  0  0  0
 61 62  2  0  0  0
 62 63  1  0  0  0
 63 64  2  0  0  0
 55 51  1  0  0  0
 51 47  1  0  0  0
 51 52  1  0  0  0
 47 48  2  0  0  0
 47 49  1  0  0  0
 49 46  1  0  0  0
 46 42  1  0  0  0
 46 65  1  0  0  0
 42 43  2  0  0  0
 42 44  1  0  0  0
 65 66  1  0  0  0
 65 67  1  0  0  0
  1  2  1  0  0  0
  1 41  1  0  0  0
  1  4  1  0  0  0
 41 44  1  0  0  0
 41 68  1  0  0  0
 68 69  1  0  0  0
 69 70  2  0  0  0
 69 71  1  0  0  0
 70 72  1  0  0  0
 71 73  2  0  0  0
 72 74  2  0  0  0
 73 74  1  0  0  0
  8  7  1  0  0  0
  8  9  1  0  0  0
  7  4  1  0  0  0
  7 34  1  0  0  0
  4  5  1  0  0  0
 34 35  1  0  0  0
 35 36  2  0  0  0
 35 37  1  0  0  0
 36 38  1  0  0  0
 37 39  2  0  0  0
 38 40  2  0  0  0
 39 40  1  0  0  0
 13 12  1  0  0  0
 13 14  1  0  0  0
 12  9  1  0  0  0
 12 31  1  0  0  0
  9 10  2  0  0  0
 31 32  1  0  0  0
 31 33  1  0  0  0
 19 17  1  0  0  0
 19 20  1  0  0  0
 17 14  1  0  0  0
 17 18  1  0  0  0
 14 15  2  0  0  0
 20 21  2  0  0  0
 20 23  1  0  0  0
 23 24  1  0  0  0
 24 25  1  0  0  0
 25 26  2  0  0  0
 25 30  1  0  0  0
 26 27  1  0  0  0
 27 28  2  0  0  0
 28 29  1  0  0  0
 29 30  2  0  0  0
 55 56  1  0  0  0
 49 50  1  0  0  0
  2  3  1  0  0  0
 44 45  1  0  0  0
  8 11  1  0  0  0
  5  6  1  0  0  0
 13 16  1  0  0  0
 19 22  1  0  0  0
M  END
> <minimizedAffinity>
-10.66383

$$$$
2P3C_3TL_A_201


 74 77  0  0  0  0  0  0  0  0999 V2000
   -9.9557  -16.0601   13.7848 C   0  0  0  0  0  0  0  0  0  0  0  0
  -10.3901  -17.2911   13.2501 O   0  0  0  0  0  0  0  0  0  0  0  0
   -9.9941  -17.4209   12.3741 H   0  0  0  0  0  0  0  0  0  0  0  0
   -8.4460  -16.1680   13.9034 C   0  0  0  0  0  0  0  0  0  0  0  0
   -8.1003  -17.5052   13.5516 O   0  0  0  0  0  0  0  0  0  0  0  0
   -8.5093  -18.1209   14.1797 H   0  0  0  0  0  0  0  0  0  0  0  0
   -7.8686  -15.9010   15.2806 C   0  0  0  0  0  0  0  0  0  0  0  0
   -6.4238  -15.7841   15.1269 N   0  0  0  0  0  0  0  0  0  0  0  0
   -5.4959  -16.3008   15.9315 C   0  0  0  0  0  0  0  0  0  0  0  0
   -5.7305  -16.8486   17.0011 O   0  0  0  0  0  0  0  0  0  0  0  0
   -6.1012  -15.2720   14.3505 H   0  0  0  0  0  0  0  0  0  0  0  0
   -4.0909  -16.1237   15.4327 C   0  0  0  0  0  0  0  0  0  0  0  0
   -3.1753  -16.2581   16.5646 N   0  0  0  0  0  0  0  0  0  0  0  0
   -2.1544  -15.4387   16.8315 C   0  0  0  0  0  0  0  0  0  0  0  0
   -1.7172  -14.6228   16.0378 O   0  0  0  0  0  0  0  0  0  0  0  0
   -3.3229  -17.0129   17.1793 H   0  0  0  0  0  0  0  0  0  0  0  0
   -1.4892  -15.6245   18.1697 C   0  0  0  0  0  0  0  0  0  0  0  0
   -0.7194  -16.9362   18.3071 C   0  0  0  0  0  0  0  0  0  0  0  0
   -2.4838  -15.5506   19.2224 N   0  0  0  0  0  0  0  0  0  0  0  0
   -2.2123  -14.9955   20.3978 C   0  0  0  0  0  0  0  0  0  0  0  0
   -1.1090  -14.5672   20.7023 O   0  0  0  0  0  0  0  0  0  0  0  0
   -3.3818  -15.9208   19.0617 H   0  0  0  0  0  0  0  0  0  0  0  0
   -3.3011  -14.9370   21.3572 O   0  0  0  0  0  0  0  0  0  0  0  0
   -3.0945  -14.3741   22.6526 C   0  0  0  0  0  0  0  0  0  0  0  0
   -3.0504  -15.4437   23.7231 C   0  0  0  0  0  0  0  0  0  0  0  0
   -3.7440  -16.6372   23.5178 C   0  0  0  0  0  0  0  0  0  0  0  0
   -3.7070  -17.6457   24.4821 C   0  0  0  0  0  0  0  0  0  0  0  0
   -2.9767  -17.4657   25.6540 C   0  0  0  0  0  0  0  0  0  0  0  0
   -2.2770  -16.2735   25.8532 C   0  0  0  0  0  0  0  0  0  0  0  0
   -2.3050  -15.2607   24.8892 C   0  0  0  0  0  0  0  0  0  0  0  0
   -3.7679  -17.0618   14.2547 C   0  0  0  0  0  0  0  0  0  0  0  0
   -4.0602  -16.4341   12.8838 C   0  0  0  0  0  0  0  0  0  0  0  0
   -4.5492  -18.3619   14.3812 C   0  0  0  0  0  0  0  0  0  0  0  0
   -8.5222  -14.5829   15.6846 C   0  0  0  0  0  0  0  0  0  0  0  0
   -8.9027  -14.5023   17.1390 C   0  0  0  0  0  0  0  0  0  0  0  0
   -7.9336  -14.3375   18.1167 C   0  0  0  0  0  0  0  0  0  0  0  0
  -10.2370  -14.5748   17.4735 C   0  0  0  0  0  0  0  0  0  0  0  0
   -8.2923  -14.2612   19.4567 C   0  0  0  0  0  0  0  0  0  0  0  0
  -10.6036  -14.5016   18.8044 C   0  0  0  0  0  0  0  0  0  0  0  0
   -9.6316  -14.3519   19.7927 C   0  0  0  0  0  0  0  0  0  0  0  0
  -10.4486  -14.9821   12.8357 C   0  0  0  0  0  0  0  0  0  0  0  0
   -9.7614  -14.5110   10.5609 C   0  0  0  0  0  0  0  0  0  0  0  0
   -9.4702  -13.3615   10.8168 O   0  0  0  0  0  0  0  0  0  0  0  0
  -10.2071  -15.3720   11.4646 N   0  0  0  0  0  0  0  0  0  0  0  0
  -10.3785  -16.3031   11.1947 H   0  0  0  0  0  0  0  0  0  0  0  0
   -9.6835  -15.0262    9.1617 C   0  0  0  0  0  0  0  0  0  0  0  0
  -11.4345  -13.8373    7.9245 C   0  0  0  0  0  0  0  0  0  0  0  0
  -12.2933  -14.6319    8.2528 O   0  0  0  0  0  0  0  0  0  0  0  0
  -10.1727  -13.9551    8.3025 N   0  0  0  0  0  0  0  0  0  0  0  0
   -9.5279  -13.2818    7.9860 H   0  0  0  0  0  0  0  0  0  0  0  0
  -11.7524  -12.6689    7.0353 C   0  0  0  0  0  0  0  0  0  0  0  0
  -10.8074  -12.6608    5.8383 C   0  0  0  0  0  0  0  0  0  0  0  0
  -12.3570  -10.3259    7.4018 C   0  0  0  0  0  0  0  0  0  0  0  0
  -13.1555  -10.3067    6.4758 O   0  0  0  0  0  0  0  0  0  0  0  0
  -11.6681  -11.4139    7.7614 N   0  0  0  0  0  0  0  0  0  0  0  0
  -11.0806  -11.3623    8.5496 H   0  0  0  0  0  0  0  0  0  0  0  0
  -12.1182   -9.0968    8.1462 O   0  0  0  0  0  0  0  0  0  0  0  0
  -12.3831   -9.0215    9.5449 C   0  0  0  0  0  0  0  0  0  0  0  0
  -12.3225   -7.6066   10.0798 C   0  0  0  0  0  0  0  0  0  0  0  0
  -11.2188   -7.2176   10.8547 C   0  0  0  0  0  0  0  0  0  0  0  0
  -11.1255   -5.9191   11.3437 C   0  0  0  0  0  0  0  0  0  0  0  0
  -12.1415   -4.9998   11.0673 C   0  0  0  0  0  0  0  0  0  0  0  0
  -13.2420   -5.3854   10.2945 C   0  0  0  0  0  0  0  0  0  0  0  0
  -13.3281   -6.6934    9.7963 C   0  0  0  0  0  0  0  0  0  0  0  0
   -8.2684  -15.4551    8.7758 C   0  0  0  0  0  0  0  0  0  0  0  0
   -8.2099  -15.9845    7.3465 C   0  0  0  0  0  0  0  0  0  0  0  0
   -7.6262  -16.4672    9.7279 C   0  0  0  0  0  0  0  0  0  0  0  0
  -11.9429  -14.7363   13.0259 C   0  0  0  0  0  0  0  0  0  0  0  0
  -12.1722  -13.2517   13.1168 C   0  0  0  0  0  0  0  0  0  0  0  0
  -12.9148  -12.6052   12.1257 C   0  0  0  0  0  0  0  0  0  0  0  0
  -11.6451  -12.5428   14.1945 C   0  0  0  0  0  0  0  0  0  0  0  0
  -13.1120  -11.2288   12.2198 C   0  0  0  0  0  0  0  0  0  0  0  0
  -11.8420  -11.1680   14.2770 C   0  0  0  0  0  0  0  0  0  0  0  0
  -12.5702  -10.5138   13.2893 C   0  0  0  0  0  0  0  0  0  0  0  0
 53 54  2  0  0  0
 53 57  1  0  0  0
 53 55  1  0  0  0
 57 58  1  0  0  0
 58 59  1  0  0  0
 59 60  2  0  0  0
 59 64  1  0  0  0
 60 61  1  0  0  0
 61 62  2  0  0  0
 62 63  1  0  0  0
 63 64  2  0  0  0
 55 51  1  0  0  0
 51 47  1  0  0  0
 51 52  1  0  0  0
 47 48  2  0  0  0
 47 49  1  0  0  0
 49 46  1  0  0  0
 46 42  1  0  0  0
 46 65  1  0  0  0
 42 43  2  0  0  0
 42 44  1  0  0  0
 65 66  1  0  0  0
 65 67  1  0  0  0
  1  2  1  0  0  0
  1 41  1  0  0  0
  1  4  1  0  0  0
 41 44  1  0  0  0
 41 68  1  0  0  0
 68 69  1  0  0  0
 69 70  2  0  0  0
 69 71  1  0  0  0
 70 72  1  0  0  0
 71 73  2  0  0  0
 72 74  2  0  0  0
 73 74  1  0  0  0
  8  7  1  0  0  0
  8  9  1  0  0  0
  7  4  1  0  0  0
  7 34  1  0  0  0
  4  5  1  0  0  0
 34 35  1  0  0  0
 35 36  2  0  0  0
 35 37  1  0  0  0
 36 38  1  0  0  0
 37 39  2  0  0  0
 38 40  2  0  0  0
 39 40  1  0  0  0
 13 12  1  0  0  0
 13 14  1  0  0  0
 12  9  1  0  0  0
 12 31  1  0  0  0
  9 10  2  0  0  0
 31 32  1  0  0  0
 31 33  1  0  0  0
 19 17  1  0  0  0
 19 20  1  0  0  0
 17 14  1  0  0  0
 17 18  1  0  0  0
 14 15  2  0  0  0
 20 21  2  0  0  0
 20 23  1  0  0  0
 23 24  1  0  0  0
 24 25  1  0  0  0
 25 26  2  0  0  0
 25 30  1  0  0  0
 26 27  1  0  0  0
 27 28  2  0  0  0
 28 29  1  0  0  0
 29 30  2  0  0  0
 55 56  1  0  0  0
 49 50  1  0  0  0
  2  3  1  0  0  0
 44 45  1  0  0  0
  8 11  1  0  0  0
  5  6  1  0  0  0
 13 16  1  0  0  0
 19 22  1  0  0  0
M  END
> <minimizedAffinity>
-10.48709

$$$$
2P3C_3TL_A_201


 74 77  0  0  0  0  0  0  0  0999 V2000
  -10.0653  -15.6558   13.4582 C   0  0  0  0  0  0  0  0  0  0  0  0
  -11.3120  -16.2840   13.2555 O   0  0  0  0  0  0  0  0  0  0  0  0
  -11.2789  -16.8135   12.4434 H   0  0  0  0  0  0  0  0  0  0  0  0
   -9.0534  -16.7780   13.6055 C   0  0  0  0  0  0  0  0  0  0  0  0
   -9.6848  -17.8039   14.3673 O   0  0  0  0  0  0  0  0  0  0  0  0
   -9.9059  -17.4629   15.2481 H   0  0  0  0  0  0  0  0  0  0  0  0
   -7.7631  -16.4177   14.3174 C   0  0  0  0  0  0  0  0  0  0  0  0
   -8.0171  -16.5222   15.7489 N   0  0  0  0  0  0  0  0  0  0  0  0
   -7.8899  -15.5493   16.6504 C   0  0  0  0  0  0  0  0  0  0  0  0
   -7.4123  -14.4459   16.4193 O   0  0  0  0  0  0  0  0  0  0  0  0
   -8.3122  -17.3999   16.0833 H   0  0  0  0  0  0  0  0  0  0  0  0
   -8.3564  -15.9295   18.0259 C   0  0  0  0  0  0  0  0  0  0  0  0
   -7.2092  -15.8961   18.9316 N   0  0  0  0  0  0  0  0  0  0  0  0
   -6.3902  -16.9229   19.1761 C   0  0  0  0  0  0  0  0  0  0  0  0
   -6.6370  -18.0745   18.8603 O   0  0  0  0  0  0  0  0  0  0  0  0
   -7.0255  -15.0491   19.3987 H   0  0  0  0  0  0  0  0  0  0  0  0
   -5.1425  -16.6029   19.9565 C   0  0  0  0  0  0  0  0  0  0  0  0
   -5.2521  -15.3493   20.8216 C   0  0  0  0  0  0  0  0  0  0  0  0
   -4.0246  -16.4495   19.0458 N   0  0  0  0  0  0  0  0  0  0  0  0
   -2.8606  -17.0494   19.2667 C   0  0  0  0  0  0  0  0  0  0  0  0
   -2.6233  -17.7143   20.2642 O   0  0  0  0  0  0  0  0  0  0  0  0
   -4.1310  -15.8873   18.2447 H   0  0  0  0  0  0  0  0  0  0  0  0
   -1.8295  -16.8600   18.2614 O   0  0  0  0  0  0  0  0  0  0  0  0
   -0.5258  -16.4164   18.6369 C   0  0  0  0  0  0  0  0  0  0  0  0
   -0.0830  -15.2282   17.8098 C   0  0  0  0  0  0  0  0  0  0  0  0
   -1.0439  -14.4839   17.1240 C   0  0  0  0  0  0  0  0  0  0  0  0
   -0.6641  -13.3744   16.3668 C   0  0  0  0  0  0  0  0  0  0  0  0
    0.6763  -13.0046   16.2929 C   0  0  0  0  0  0  0  0  0  0  0  0
    1.6349  -13.7466   16.9866 C   0  0  0  0  0  0  0  0  0  0  0  0
    1.2612  -14.8560   17.7516 C   0  0  0  0  0  0  0  0  0  0  0  0
   -9.5467  -15.0723   18.4955 C   0  0  0  0  0  0  0  0  0  0  0  0
  -10.4435  -14.5987   17.3421 C   0  0  0  0  0  0  0  0  0  0  0  0
   -9.0542  -13.8587   19.2709 C   0  0  0  0  0  0  0  0  0  0  0  0
   -6.7816  -17.4741   13.8189 C   0  0  0  0  0  0  0  0  0  0  0  0
   -5.3332  -17.0933   13.9729 C   0  0  0  0  0  0  0  0  0  0  0  0
   -4.6376  -17.4066   15.1306 C   0  0  0  0  0  0  0  0  0  0  0  0
   -4.7102  -16.4457   12.9290 C   0  0  0  0  0  0  0  0  0  0  0  0
   -3.3003  -17.0544   15.2646 C   0  0  0  0  0  0  0  0  0  0  0  0
   -3.3802  -16.0896   13.0537 C   0  0  0  0  0  0  0  0  0  0  0  0
   -2.6806  -16.3882   14.2221 C   0  0  0  0  0  0  0  0  0  0  0  0
   -9.8438  -14.7459   12.2629 C   0  0  0  0  0  0  0  0  0  0  0  0
  -11.3046  -12.9672   11.5070 C   0  0  0  0  0  0  0  0  0  0  0  0
  -11.5305  -13.5132   10.4476 O   0  0  0  0  0  0  0  0  0  0  0  0
  -10.5373  -13.4914   12.4520 N   0  0  0  0  0  0  0  0  0  0  0  0
  -10.4367  -13.0132   13.3066 H   0  0  0  0  0  0  0  0  0  0  0  0
  -11.8502  -11.6083   11.7984 C   0  0  0  0  0  0  0  0  0  0  0  0
  -12.2236   -9.7642   10.2266 C   0  0  0  0  0  0  0  0  0  0  0  0
  -11.8334   -8.9282   11.0176 O   0  0  0  0  0  0  0  0  0  0  0  0
  -12.2731  -11.0531   10.5186 N   0  0  0  0  0  0  0  0  0  0  0  0
  -12.6146  -11.6721    9.8335 H   0  0  0  0  0  0  0  0  0  0  0  0
  -12.7045   -9.3772    8.8570 C   0  0  0  0  0  0  0  0  0  0  0  0
  -14.2061   -9.1135    8.8941 C   0  0  0  0  0  0  0  0  0  0  0  0
  -11.8215  -10.1226    6.6997 C   0  0  0  0  0  0  0  0  0  0  0  0
  -11.4660   -9.0000    6.3699 O   0  0  0  0  0  0  0  0  0  0  0  0
  -12.3896  -10.4021    7.8773 N   0  0  0  0  0  0  0  0  0  0  0  0
  -12.6029  -11.3397    8.0887 H   0  0  0  0  0  0  0  0  0  0  0  0
  -11.6422  -11.2190    5.7575 O   0  0  0  0  0  0  0  0  0  0  0  0
  -10.9735  -11.0181    4.5147 C   0  0  0  0  0  0  0  0  0  0  0  0
  -11.9294  -10.8343    3.3553 C   0  0  0  0  0  0  0  0  0  0  0  0
  -12.9275  -11.7964    3.1356 C   0  0  0  0  0  0  0  0  0  0  0  0
  -13.8323  -11.6449    2.0906 C   0  0  0  0  0  0  0  0  0  0  0  0
  -13.7409  -10.5315    1.2506 C   0  0  0  0  0  0  0  0  0  0  0  0
  -12.7473   -9.5711    1.4683 C   0  0  0  0  0  0  0  0  0  0  0  0
  -11.8421   -9.7233    2.5284 C   0  0  0  0  0  0  0  0  0  0  0  0
  -13.0006  -11.6446   12.8037 C   0  0  0  0  0  0  0  0  0  0  0  0
  -12.5612  -11.1586   14.1811 C   0  0  0  0  0  0  0  0  0  0  0  0
  -13.6930  -13.0038   12.9325 C   0  0  0  0  0  0  0  0  0  0  0  0
   -8.3566  -14.4659   12.0648 C   0  0  0  0  0  0  0  0  0  0  0  0
   -7.9945  -14.8057   10.6442 C   0  0  0  0  0  0  0  0  0  0  0  0
   -7.5386  -16.0896   10.3353 C   0  0  0  0  0  0  0  0  0  0  0  0
   -8.1260  -13.8342    9.6537 C   0  0  0  0  0  0  0  0  0  0  0  0
   -7.2000  -16.3866    9.0165 C   0  0  0  0  0  0  0  0  0  0  0  0
   -7.7799  -14.1380    8.3408 C   0  0  0  0  0  0  0  0  0  0  0  0
   -7.3143  -15.4099    8.0256 C   0  0  0  0  0  0  0  0  0  0  0  0
 53 54  2  0  0  0
 53 57  1  0  0  0
 53 55  1  0  0  0
 57 58  1  0  0  0
 58 59  1  0  0  0
 59 60  2  0  0  0
 59 64  1  0  0  0
 60 61  1  0  0  0
 61 62  2  0  0  0
 62 63  1  0  0  0
 63 64  2  0  0  0
 55 51  1  0  0  0
 51 47  1  0  0  0
 51 52  1  0  0  0
 47 48  2  0  0  0
 47 49  1  0  0  0
 49 46  1  0  0  0
 46 42  1  0  0  0
 46 65  1  0  0  0
 42 43  2  0  0  0
 42 44  1  0  0  0
 65 66  1  0  0  0
 65 67  1  0  0  0
  1  2  1  0  0  0
  1 41  1  0  0  0
  1  4  1  0  0  0
 41 44  1  0  0  0
 41 68  1  0  0  0
 68 69  1  0  0  0
 69 70  2  0  0  0
 69 71  1  0  0  0
 70 72  1  0  0  0
 71 73  2  0  0  0
 72 74  2  0  0  0
 73 74  1  0  0  0
  8  7  1  0  0  0
  8  9  1  0  0  0
  7  4  1  0  0  0
  7 34  1  0  0  0
  4  5  1  0  0  0
 34 35  1  0  0  0
 35 36  2  0  0  0
 35 37  1  0  0  0
 36 38  1  0  0  0
 37 39  2  0  0  0
 38 40  2  0  0  0
 39 40  1  0  0  0
 13 12  1  0  0  0
 13 14  1  0  0  0
 12  9  1  0  0  0
 12 31  1  0  0  0
  9 10  2  0  0  0
 31 32  1  0  0  0
 31 33  1  0  0  0
 19 17  1  0  0  0
 19 20  1  0  0  0
 17 14  1  0  0  0
 17 18  1  0  0  0
 14 15  2  0  0  0
 20 21  2  0  0  0
 20 23  1  0  0  0
 23 24  1  0  0  0
 24 25  1  0  0  0
 25 26  2  0  0  0
 25 30  1  0  0  0
 26 27  1  0  0  0
 27 28  2  0  0  0
 28 29  1  0  0  0
 29 30  2  0  0  0
 55 56  1  0  0  0
 49 50  1  0  0  0
  2  3  1  0  0  0
 44 45  1  0  0  0
  8 11  1  0  0  0
  5  6  1  0  0  0
 13 16  1  0  0  0
 19 22  1  0  0  0
M  END
> <minimizedAffinity>
-10.45694

$$$$
2P3C_3TL_A_201


 74 77  0  0  0  0  0  0  0  0999 V2000
   -7.6205  -16.9210   13.8096 C   0  0  0  0  0  0  0  0  0  0  0  0
   -7.6674  -18.3156   13.6025 O   0  0  0  0  0  0  0  0  0  0  0  0
   -7.9253  -18.7564   14.4272 H   0  0  0  0  0  0  0  0  0  0  0  0
   -9.0284  -16.5118   14.2040 C   0  0  0  0  0  0  0  0  0  0  0  0
   -9.9005  -17.5392   13.7403 O   0  0  0  0  0  0  0  0  0  0  0  0
   -9.8491  -17.5949   12.7732 H   0  0  0  0  0  0  0  0  0  0  0  0
   -9.5255  -15.2021   13.6218 C   0  0  0  0  0  0  0  0  0  0  0  0
   -9.5037  -15.3396   12.1709 N   0  0  0  0  0  0  0  0  0  0  0  0
   -9.4438  -14.3498   11.2808 C   0  0  0  0  0  0  0  0  0  0  0  0
   -9.5276  -13.1601   11.5579 O   0  0  0  0  0  0  0  0  0  0  0  0
   -9.5366  -16.2560   11.8125 H   0  0  0  0  0  0  0  0  0  0  0  0
   -9.2983  -14.8161    9.8612 C   0  0  0  0  0  0  0  0  0  0  0  0
  -10.0272  -13.8937    8.9919 N   0  0  0  0  0  0  0  0  0  0  0  0
  -10.6971  -14.2406    7.8893 C   0  0  0  0  0  0  0  0  0  0  0  0
  -10.5855  -15.3254    7.3437 O   0  0  0  0  0  0  0  0  0  0  0  0
  -10.0241  -12.9407    9.2389 H   0  0  0  0  0  0  0  0  0  0  0  0
  -11.5657  -13.1723    7.2792 C   0  0  0  0  0  0  0  0  0  0  0  0
  -11.0204  -12.5942    5.9752 C   0  0  0  0  0  0  0  0  0  0  0  0
  -11.7515  -12.0937    8.2303 N   0  0  0  0  0  0  0  0  0  0  0  0
  -12.8753  -11.9665    8.9265 C   0  0  0  0  0  0  0  0  0  0  0  0
  -13.8451  -12.6956    8.7802 O   0  0  0  0  0  0  0  0  0  0  0  0
  -11.0274  -11.4401    8.3632 H   0  0  0  0  0  0  0  0  0  0  0  0
  -12.9284  -10.8749    9.8831 O   0  0  0  0  0  0  0  0  0  0  0  0
  -13.8737   -9.8174    9.7223 C   0  0  0  0  0  0  0  0  0  0  0  0
  -13.2535   -8.4678   10.0153 C   0  0  0  0  0  0  0  0  0  0  0  0
  -14.0282   -7.3176    9.8588 C   0  0  0  0  0  0  0  0  0  0  0  0
  -13.4854   -6.0621   10.1372 C   0  0  0  0  0  0  0  0  0  0  0  0
  -12.1676   -5.9516   10.5734 C   0  0  0  0  0  0  0  0  0  0  0  0
  -11.3971   -7.1050   10.7367 C   0  0  0  0  0  0  0  0  0  0  0  0
  -11.9358   -8.3666   10.4649 C   0  0  0  0  0  0  0  0  0  0  0  0
   -7.8245  -15.0164    9.4614 C   0  0  0  0  0  0  0  0  0  0  0  0
   -7.3351  -13.9957    8.4234 C   0  0  0  0  0  0  0  0  0  0  0  0
   -7.6083  -16.4207    8.9158 C   0  0  0  0  0  0  0  0  0  0  0  0
  -10.9420  -15.0875   14.1772 C   0  0  0  0  0  0  0  0  0  0  0  0
  -11.6022  -13.7599   13.9164 C   0  0  0  0  0  0  0  0  0  0  0  0
  -12.6861  -13.6645   13.0570 C   0  0  0  0  0  0  0  0  0  0  0  0
  -11.1181  -12.6468   14.5674 C   0  0  0  0  0  0  0  0  0  0  0  0
  -13.2921  -12.4363   12.8231 C   0  0  0  0  0  0  0  0  0  0  0  0
  -11.7134  -11.4200   14.3398 C   0  0  0  0  0  0  0  0  0  0  0  0
  -12.7934  -11.3160   13.4643 C   0  0  0  0  0  0  0  0  0  0  0  0
   -6.5619  -16.6801   14.8712 C   0  0  0  0  0  0  0  0  0  0  0  0
   -7.3719  -15.5746   16.8689 C   0  0  0  0  0  0  0  0  0  0  0  0
   -7.1400  -14.4676   16.4303 O   0  0  0  0  0  0  0  0  0  0  0  0
   -7.1597  -16.6914   16.1876 N   0  0  0  0  0  0  0  0  0  0  0  0
   -7.4162  -17.5529   16.5891 H   0  0  0  0  0  0  0  0  0  0  0  0
   -7.8758  -15.7546   18.2628 C   0  0  0  0  0  0  0  0  0  0  0  0
   -5.9689  -16.7201   19.4639 C   0  0  0  0  0  0  0  0  0  0  0  0
   -6.2150  -17.8454   19.0769 O   0  0  0  0  0  0  0  0  0  0  0  0
   -6.7096  -15.6753   19.1338 N   0  0  0  0  0  0  0  0  0  0  0  0
   -6.4593  -14.7950   19.4965 H   0  0  0  0  0  0  0  0  0  0  0  0
   -4.8063  -16.4455   20.3747 C   0  0  0  0  0  0  0  0  0  0  0  0
   -5.3013  -15.7823   21.6558 C   0  0  0  0  0  0  0  0  0  0  0  0
   -2.5443  -15.5384   20.1509 C   0  0  0  0  0  0  0  0  0  0  0  0
   -2.1048  -16.1965   21.0832 O   0  0  0  0  0  0  0  0  0  0  0  0
   -3.8084  -15.6160   19.7224 N   0  0  0  0  0  0  0  0  0  0  0  0
   -4.0734  -15.0899   18.9336 H   0  0  0  0  0  0  0  0  0  0  0  0
   -1.6577  -14.5991   19.4774 O   0  0  0  0  0  0  0  0  0  0  0  0
   -0.3654  -14.3034   20.0014 C   0  0  0  0  0  0  0  0  0  0  0  0
   -0.3030  -12.9553   20.6874 C   0  0  0  0  0  0  0  0  0  0  0  0
    0.4412  -11.9230   20.0952 C   0  0  0  0  0  0  0  0  0  0  0  0
    0.5013  -10.6682   20.6915 C   0  0  0  0  0  0  0  0  0  0  0  0
   -0.1775  -10.4379   21.8915 C   0  0  0  0  0  0  0  0  0  0  0  0
   -0.9203  -11.4652   22.4829 C   0  0  0  0  0  0  0  0  0  0  0  0
   -0.9853  -12.7267   21.8739 C   0  0  0  0  0  0  0  0  0  0  0  0
   -8.9316  -14.7163   18.6403 C   0  0  0  0  0  0  0  0  0  0  0  0
   -9.2077  -14.7128   20.1405 C   0  0  0  0  0  0  0  0  0  0  0  0
  -10.2505  -14.8390   17.8730 C   0  0  0  0  0  0  0  0  0  0  0  0
   -5.4792  -17.7539   14.8085 C   0  0  0  0  0  0  0  0  0  0  0  0
   -4.2154  -17.1892   15.3991 C   0  0  0  0  0  0  0  0  0  0  0  0
   -3.5520  -17.8891   16.4099 C   0  0  0  0  0  0  0  0  0  0  0  0
   -3.7202  -15.9766   14.9233 C   0  0  0  0  0  0  0  0  0  0  0  0
   -2.3871  -17.3495   16.9521 C   0  0  0  0  0  0  0  0  0  0  0  0
   -2.5598  -15.4425   15.4747 C   0  0  0  0  0  0  0  0  0  0  0  0
   -1.8987  -16.1264   16.4892 C   0  0  0  0  0  0  0  0  0  0  0  0
 53 54  2  0  0  0
 53 57  1  0  0  0
 53 55  1  0  0  0
 57 58  1  0  0  0
 58 59  1  0  0  0
 59 60  2  0  0  0
 59 64  1  0  0  0
 60 61  1  0  0  0
 61 62  2  0  0  0
 62 63  1  0  0  0
 63 64  2  0  0  0
 55 51  1  0  0  0
 51 47  1  0  0  0
 51 52  1  0  0  0
 47 48  2  0  0  0
 47 49  1  0  0  0
 49 46  1  0  0  0
 46 42  1  0  0  0
 46 65  1  0  0  0
 42 43  2  0  0  0
 42 44  1  0  0  0
 65 66  1  0  0  0
 65 67  1  0  0  0
  1  2  1  0  0  0
  1 41  1  0  0  0
  1  4  1  0  0  0
 41 44  1  0  0  0
 41 68  1  0  0  0
 68 69  1  0  0  0
 69 70  2  0  0  0
 69 71  1  0  0  0
 70 72  1  0  0  0
 71 73  2  0  0  0
 72 74  2  0  0  0
 73 74  1  0  0  0
  8  7  1  0  0  0
  8  9  1  0  0  0
  7  4  1  0  0  0
  7 34  1  0  0  0
  4  5  1  0  0  0
 34 35  1  0  0  0
 35 36  2  0  0  0
 35 37  1  0  0  0
 36 38  1  0  0  0
 37 39  2  0  0  0
 38 40  2  0  0  0
 39 40  1  0  0  0
 13 12  1  0  0  0
 13 14  1  0  0  0
 12  9  1  0  0  0
 12 31  1  0  0  0
  9 10  2  0  0  0
 31 32  1  0  0  0
 31 33  1  0  0  0
 19 17  1  0  0  0
 19 20  1  0  0  0
 17 14  1  0  0  0
 17 18  1  0  0  0
 14 15  2  0  0  0
 20 21  2  0  0  0
 20 23  1  0  0  0
 23 24  1  0  0  0
 24 25  1  0  0  0
 25 26  2  0  0  0
 25 30  1  0  0  0
 26 27  1  0  0  0
 27 28  2  0  0  0
 28 29  1  0  0  0
 29 30  2  0  0  0
 55 56  1  0  0  0
 49 50  1  0  0  0
  2  3  1  0  0  0
 44 45  1  0  0  0
  8 11  1  0  0  0
  5  6  1  0  0  0
 13 16  1  0  0  0
 19 22  1  0  0  0
M  END
> <minimizedAffinity>
-10.43814

$$$$
2P3C_3TL_A_201


 74 77  0  0  0  0  0  0  0  0999 V2000
   -9.3736  -15.9146   13.5987 C   0  0  0  0  0  0  0  0  0  0  0  0
  -10.0522  -17.1372   13.4124 O   0  0  0  0  0  0  0  0  0  0  0  0
  -10.0421  -17.3725   12.4715 H   0  0  0  0  0  0  0  0  0  0  0  0
   -7.9483  -16.1552   13.1344 C   0  0  0  0  0  0  0  0  0  0  0  0
   -7.8854  -17.5054   12.6822 O   0  0  0  0  0  0  0  0  0  0  0  0
   -8.0801  -18.1031   13.4210 H   0  0  0  0  0  0  0  0  0  0  0  0
   -6.8700  -15.9821   14.1874 C   0  0  0  0  0  0  0  0  0  0  0  0
   -7.4823  -16.2596   15.4807 N   0  0  0  0  0  0  0  0  0  0  0  0
   -7.7271  -15.3769   16.4484 C   0  0  0  0  0  0  0  0  0  0  0  0
   -7.3508  -14.2118   16.4378 O   0  0  0  0  0  0  0  0  0  0  0  0
   -7.7409  -17.1930   15.6571 H   0  0  0  0  0  0  0  0  0  0  0  0
   -8.4919  -15.9434   17.6096 C   0  0  0  0  0  0  0  0  0  0  0  0
   -7.6106  -15.9748   18.7757 N   0  0  0  0  0  0  0  0  0  0  0  0
   -6.5669  -16.7943   18.9311 C   0  0  0  0  0  0  0  0  0  0  0  0
   -6.3651  -17.7721   18.2312 O   0  0  0  0  0  0  0  0  0  0  0  0
   -7.8016  -15.3415   19.5049 H   0  0  0  0  0  0  0  0  0  0  0  0
   -5.6609  -16.4981   20.0970 C   0  0  0  0  0  0  0  0  0  0  0  0
   -6.1989  -15.4334   21.0505 C   0  0  0  0  0  0  0  0  0  0  0  0
   -4.3611  -16.0792   19.6095 N   0  0  0  0  0  0  0  0  0  0  0  0
   -3.2457  -16.3622   20.2723 C   0  0  0  0  0  0  0  0  0  0  0  0
   -3.2299  -16.9320   21.3533 O   0  0  0  0  0  0  0  0  0  0  0  0
   -4.3041  -15.5729   18.7671 H   0  0  0  0  0  0  0  0  0  0  0  0
   -1.9994  -15.9317   19.6632 O   0  0  0  0  0  0  0  0  0  0  0  0
   -1.2623  -14.8417   20.2165 C   0  0  0  0  0  0  0  0  0  0  0  0
   -0.5209  -14.0708   19.1451 C   0  0  0  0  0  0  0  0  0  0  0  0
    0.4149  -13.1086   19.5273 C   0  0  0  0  0  0  0  0  0  0  0  0
    1.1235  -12.3947   18.5594 C   0  0  0  0  0  0  0  0  0  0  0  0
    0.9001  -12.6401   17.2071 C   0  0  0  0  0  0  0  0  0  0  0  0
   -0.0313  -13.6092   16.8275 C   0  0  0  0  0  0  0  0  0  0  0  0
   -0.7410  -14.3322   17.7916 C   0  0  0  0  0  0  0  0  0  0  0  0
   -9.8195  -15.2010   17.8512 C   0  0  0  0  0  0  0  0  0  0  0  0
  -10.3074  -14.4188   16.6228 C   0  0  0  0  0  0  0  0  0  0  0  0
   -9.6867  -14.2442   19.0274 C   0  0  0  0  0  0  0  0  0  0  0  0
   -5.8288  -17.0267   13.7970 C   0  0  0  0  0  0  0  0  0  0  0  0
   -4.8338  -17.3425   14.8819 C   0  0  0  0  0  0  0  0  0  0  0  0
   -4.0238  -16.3495   15.4111 C   0  0  0  0  0  0  0  0  0  0  0  0
   -4.7621  -18.6357   15.3507 C   0  0  0  0  0  0  0  0  0  0  0  0
   -3.1097  -16.6477   16.4140 C   0  0  0  0  0  0  0  0  0  0  0  0
   -3.8544  -18.9426   16.3472 C   0  0  0  0  0  0  0  0  0  0  0  0
   -3.0264  -17.9509   16.8716 C   0  0  0  0  0  0  0  0  0  0  0  0
  -10.1398  -14.8729   12.8027 C   0  0  0  0  0  0  0  0  0  0  0  0
   -9.4652  -14.4963   10.5066 C   0  0  0  0  0  0  0  0  0  0  0  0
   -8.7659  -13.5489   10.7979 O   0  0  0  0  0  0  0  0  0  0  0  0
  -10.1361  -15.2126   11.3974 N   0  0  0  0  0  0  0  0  0  0  0  0
  -10.6462  -15.9979   11.0937 H   0  0  0  0  0  0  0  0  0  0  0  0
   -9.6606  -14.8926    9.0804 C   0  0  0  0  0  0  0  0  0  0  0  0
  -11.5748  -13.6962    8.1239 C   0  0  0  0  0  0  0  0  0  0  0  0
  -12.3436  -14.6060    8.3648 O   0  0  0  0  0  0  0  0  0  0  0  0
  -10.2874  -13.7539    8.4206 N   0  0  0  0  0  0  0  0  0  0  0  0
   -9.7206  -12.9848    8.1825 H   0  0  0  0  0  0  0  0  0  0  0  0
  -12.0409  -12.4416    7.4416 C   0  0  0  0  0  0  0  0  0  0  0  0
  -11.0308  -12.0293    6.3760 C   0  0  0  0  0  0  0  0  0  0  0  0
  -13.2271  -10.4672    8.2691 C   0  0  0  0  0  0  0  0  0  0  0  0
  -14.0676  -10.5048    7.3817 O   0  0  0  0  0  0  0  0  0  0  0  0
  -12.2451  -11.3658    8.3958 N   0  0  0  0  0  0  0  0  0  0  0  0
  -11.6364  -11.2955    9.1663 H   0  0  0  0  0  0  0  0  0  0  0  0
  -13.2745   -9.3760    9.2329 O   0  0  0  0  0  0  0  0  0  0  0  0
  -12.0777   -8.8114    9.7631 C   0  0  0  0  0  0  0  0  0  0  0  0
  -12.2458   -7.3676   10.1865 C   0  0  0  0  0  0  0  0  0  0  0  0
  -13.3958   -6.6695    9.7864 C   0  0  0  0  0  0  0  0  0  0  0  0
  -13.5875   -5.3483   10.1759 C   0  0  0  0  0  0  0  0  0  0  0  0
  -12.6246   -4.7114   10.9639 C   0  0  0  0  0  0  0  0  0  0  0  0
  -11.4781   -5.4058   11.3643 C   0  0  0  0  0  0  0  0  0  0  0  0
  -11.2927   -6.7406   10.9763 C   0  0  0  0  0  0  0  0  0  0  0  0
   -8.3504  -15.2863    8.3994 C   0  0  0  0  0  0  0  0  0  0  0  0
   -8.5704  -15.6917    6.9455 C   0  0  0  0  0  0  0  0  0  0  0  0
   -7.5563  -16.3757    9.1246 C   0  0  0  0  0  0  0  0  0  0  0  0
  -11.5842  -14.7775   13.2865 C   0  0  0  0  0  0  0  0  0  0  0  0
  -12.0530  -13.3589   13.1055 C   0  0  0  0  0  0  0  0  0  0  0  0
  -11.6435  -12.3751   14.0088 C   0  0  0  0  0  0  0  0  0  0  0  0
  -12.8853  -13.0451   12.0328 C   0  0  0  0  0  0  0  0  0  0  0  0
  -12.0922  -11.0676   13.8322 C   0  0  0  0  0  0  0  0  0  0  0  0
  -13.3332  -11.7382   11.8678 C   0  0  0  0  0  0  0  0  0  0  0  0
  -12.9401  -10.7543   12.7684 C   0  0  0  0  0  0  0  0  0  0  0  0
 53 54  2  0  0  0
 53 57  1  0  0  0
 53 55  1  0  0  0
 57 58  1  0  0  0
 58 59  1  0  0  0
 59 60  2  0  0  0
 59 64  1  0  0  0
 60 61  1  0  0  0
 61 62  2  0  0  0
 62 63  1  0  0  0
 63 64  2  0  0  0
 55 51  1  0  0  0
 51 47  1  0  0  0
 51 52  1  0  0  0
 47 48  2  0  0  0
 47 49  1  0  0  0
 49 46  1  0  0  0
 46 42  1  0  0  0
 46 65  1  0  0  0
 42 43  2  0  0  0
 42 44  1  0  0  0
 65 66  1  0  0  0
 65 67  1  0  0  0
  1  2  1  0  0  0
  1 41  1  0  0  0
  1  4  1  0  0  0
 41 44  1  0  0  0
 41 68  1  0  0  0
 68 69  1  0  0  0
 69 70  2  0  0  0
 69 71  1  0  0  0
 70 72  1  0  0  0
 71 73  2  0  0  0
 72 74  2  0  0  0
 73 74  1  0  0  0
  8  7  1  0  0  0
  8  9  1  0  0  0
  7  4  1  0  0  0
  7 34  1  0  0  0
  4  5  1  0  0  0
 34 35  1  0  0  0
 35 36  2  0  0  0
 35 37  1  0  0  0
 36 38  1  0  0  0
 37 39  2  0  0  0
 38 40  2  0  0  0
 39 40  1  0  0  0
 13 12  1  0  0  0
 13 14  1  0  0  0
 12  9  1  0  0  0
 12 31  1  0  0  0
  9 10  2  0  0  0
 31 32  1  0  0  0
 31 33  1  0  0  0
 19 17  1  0  0  0
 19 20  1  0  0  0
 17 14  1  0  0  0
 17 18  1  0  0  0
 14 15  2  0  0  0
 20 21  2  0  0  0
 20 23  1  0  0  0
 23 24  1  0  0  0
 24 25  1  0  0  0
 25 26  2  0  0  0
 25 30  1  0  0  0
 26 27  1  0  0  0
 27 28  2  0  0  0
 28 29  1  0  0  0
 29 30  2  0  0  0
 55 56  1  0  0  0
 49 50  1  0  0  0
  2  3  1  0  0  0
 44 45  1  0  0  0
  8 11  1  0  0  0
  5  6  1  0  0  0
 13 16  1  0  0  0
 19 22  1  0  0  0
M  END
> <minimizedAffinity>
-10.24050

$$$$
2P3C_3TL_A_201


 74 77  0  0  0  0  0  0  0  0999 V2000
   -7.5903  -17.0327   13.8200 C   0  0  0  0  0  0  0  0  0  0  0  0
   -7.6513  -18.4389   13.7276 O   0  0  0  0  0  0  0  0  0  0  0  0
   -7.8742  -18.8106   14.5954 H   0  0  0  0  0  0  0  0  0  0  0  0
   -8.9779  -16.5832   14.2413 C   0  0  0  0  0  0  0  0  0  0  0  0
   -9.8898  -17.5765   13.7799 O   0  0  0  0  0  0  0  0  0  0  0  0
   -9.8552  -17.6224   12.8116 H   0  0  0  0  0  0  0  0  0  0  0  0
   -9.4415  -15.2514   13.6819 C   0  0  0  0  0  0  0  0  0  0  0  0
   -9.6473  -15.4335   12.2505 N   0  0  0  0  0  0  0  0  0  0  0  0
   -9.3238  -14.5723   11.2865 C   0  0  0  0  0  0  0  0  0  0  0  0
   -8.9169  -13.4338   11.4796 O   0  0  0  0  0  0  0  0  0  0  0  0
  -10.0675  -16.2776   11.9674 H   0  0  0  0  0  0  0  0  0  0  0  0
   -9.5369  -15.1041    9.8987 C   0  0  0  0  0  0  0  0  0  0  0  0
  -10.1293  -14.0465    9.0815 N   0  0  0  0  0  0  0  0  0  0  0  0
  -10.8246  -14.2395    7.9570 C   0  0  0  0  0  0  0  0  0  0  0  0
  -10.8474  -15.2965    7.3494 O   0  0  0  0  0  0  0  0  0  0  0  0
  -10.0061  -13.1177    9.3839 H   0  0  0  0  0  0  0  0  0  0  0  0
  -11.5400  -13.0342    7.4063 C   0  0  0  0  0  0  0  0  0  0  0  0
  -10.8045  -12.3413    6.2613 C   0  0  0  0  0  0  0  0  0  0  0  0
  -11.7660  -12.0742    8.4692 N   0  0  0  0  0  0  0  0  0  0  0  0
  -12.9916  -11.7539    8.8679 C   0  0  0  0  0  0  0  0  0  0  0  0
  -14.0063  -12.1862    8.3415 O   0  0  0  0  0  0  0  0  0  0  0  0
  -10.9924  -11.6497    8.9058 H   0  0  0  0  0  0  0  0  0  0  0  0
  -13.0926  -10.8160    9.9722 O   0  0  0  0  0  0  0  0  0  0  0  0
  -14.0260   -9.7371    9.9220 C   0  0  0  0  0  0  0  0  0  0  0  0
  -13.3462   -8.4028   10.1444 C   0  0  0  0  0  0  0  0  0  0  0  0
  -14.0917   -7.2310   10.0068 C   0  0  0  0  0  0  0  0  0  0  0  0
  -13.4929   -5.9886   10.2215 C   0  0  0  0  0  0  0  0  0  0  0  0
  -12.1482   -5.9126   10.5750 C   0  0  0  0  0  0  0  0  0  0  0  0
  -11.4066   -7.0872   10.7197 C   0  0  0  0  0  0  0  0  0  0  0  0
  -12.0010   -8.3358   10.5116 C   0  0  0  0  0  0  0  0  0  0  0  0
   -8.2516  -15.7073    9.3018 C   0  0  0  0  0  0  0  0  0  0  0  0
   -7.3379  -16.3489   10.3565 C   0  0  0  0  0  0  0  0  0  0  0  0
   -7.4667  -14.6441    8.5468 C   0  0  0  0  0  0  0  0  0  0  0  0
  -10.7446  -14.9915   14.4317 C   0  0  0  0  0  0  0  0  0  0  0  0
  -11.4453  -13.7208   14.0305 C   0  0  0  0  0  0  0  0  0  0  0  0
  -12.5780  -13.7583   13.2318 C   0  0  0  0  0  0  0  0  0  0  0  0
  -10.9473  -12.5226   14.4926 C   0  0  0  0  0  0  0  0  0  0  0  0
  -13.2210  -12.5817   12.8677 C   0  0  0  0  0  0  0  0  0  0  0  0
  -11.5792  -11.3464   14.1342 C   0  0  0  0  0  0  0  0  0  0  0  0
  -12.7092  -11.3776   13.3182 C   0  0  0  0  0  0  0  0  0  0  0  0
   -6.4851  -16.7153   14.8117 C   0  0  0  0  0  0  0  0  0  0  0  0
   -7.2636  -15.5862   16.8087 C   0  0  0  0  0  0  0  0  0  0  0  0
   -7.1400  -14.4853   16.3145 O   0  0  0  0  0  0  0  0  0  0  0  0
   -7.0063  -16.7131   16.1603 N   0  0  0  0  0  0  0  0  0  0  0  0
   -7.1749  -17.5728   16.6094 H   0  0  0  0  0  0  0  0  0  0  0  0
   -7.6745  -15.7419   18.2357 C   0  0  0  0  0  0  0  0  0  0  0  0
   -6.1587  -16.1967   20.1082 C   0  0  0  0  0  0  0  0  0  0  0  0
   -6.8489  -17.1046   20.5278 O   0  0  0  0  0  0  0  0  0  0  0  0
   -6.4812  -15.4938   19.0354 N   0  0  0  0  0  0  0  0  0  0  0  0
   -5.8819  -14.7623   18.7615 H   0  0  0  0  0  0  0  0  0  0  0  0
   -4.8911  -15.7939   20.8065 C   0  0  0  0  0  0  0  0  0  0  0  0
   -3.6871  -16.3190   20.0314 C   0  0  0  0  0  0  0  0  0  0  0  0
   -4.0751  -15.7429   23.1133 C   0  0  0  0  0  0  0  0  0  0  0  0
   -3.3529  -14.7756   22.9181 O   0  0  0  0  0  0  0  0  0  0  0  0
   -4.8665  -16.2755   22.1764 N   0  0  0  0  0  0  0  0  0  0  0  0
   -5.4560  -17.0238   22.4251 H   0  0  0  0  0  0  0  0  0  0  0  0
   -4.0640  -16.3715   24.4273 O   0  0  0  0  0  0  0  0  0  0  0  0
   -2.9013  -17.0380   24.9133 C   0  0  0  0  0  0  0  0  0  0  0  0
   -2.8422  -18.4936   24.5013 C   0  0  0  0  0  0  0  0  0  0  0  0
   -1.8532  -18.9057   23.5946 C   0  0  0  0  0  0  0  0  0  0  0  0
   -1.7616  -20.2396   23.2124 C   0  0  0  0  0  0  0  0  0  0  0  0
   -2.6653  -21.1723   23.7292 C   0  0  0  0  0  0  0  0  0  0  0  0
   -3.6512  -20.7636   24.6336 C   0  0  0  0  0  0  0  0  0  0  0  0
   -3.7349  -19.4191   25.0230 C   0  0  0  0  0  0  0  0  0  0  0  0
   -8.8153  -14.8007   18.6205 C   0  0  0  0  0  0  0  0  0  0  0  0
   -8.2995  -13.4179   19.0060 C   0  0  0  0  0  0  0  0  0  0  0  0
   -9.7381  -15.3324   19.7199 C   0  0  0  0  0  0  0  0  0  0  0  0
   -5.3610  -17.7432   14.7158 C   0  0  0  0  0  0  0  0  0  0  0  0
   -4.1401  -17.1761   15.3887 C   0  0  0  0  0  0  0  0  0  0  0  0
   -3.4847  -17.9204   16.3726 C   0  0  0  0  0  0  0  0  0  0  0  0
   -3.6758  -15.9165   15.0146 C   0  0  0  0  0  0  0  0  0  0  0  0
   -2.3600  -17.3784   16.9919 C   0  0  0  0  0  0  0  0  0  0  0  0
   -2.5557  -15.3810   15.6426 C   0  0  0  0  0  0  0  0  0  0  0  0
   -1.9033  -16.1095   16.6312 C   0  0  0  0  0  0  0  0  0  0  0  0
 53 54  2  0  0  0
 53 57  1  0  0  0
 53 55  1  0  0  0
 57 58  1  0  0  0
 58 59  1  0  0  0
 59 60  2  0  0  0
 59 64  1  0  0  0
 60 61  1  0  0  0
 61 62  2  0  0  0
 62 63  1  0  0  0
 63 64  2  0  0  0
 55 51  1  0  0  0
 51 47  1  0  0  0
 51 52  1  0  0  0
 47 48  2  0  0  0
 47 49  1  0  0  0
 49 46  1  0  0  0
 46 42  1  0  0  0
 46 65  1  0  0  0
 42 43  2  0  0  0
 42 44  1  0  0  0
 65 66  1  0  0  0
 65 67  1  0  0  0
  1  2  1  0  0  0
  1 41  1  0  0  0
  1  4  1  0  0  0
 41 44  1  0  0  0
 41 68  1  0  0  0
 68 69  1  0  0  0
 69 70  2  0  0  0
 69 71  1  0  0  0
 70 72  1  0  0  0
 71 73  2  0  0  0
 72 74  2  0  0  0
 73 74  1  0  0  0
  8  7  1  0  0  0
  8  9  1  0  0  0
  7  4  1  0  0  0
  7 34  1  0  0  0
  4  5  1  0  0  0
 34 35  1  0  0  0
 35 36  2  0  0  0
 35 37  1  0  0  0
 36 38  1  0  0  0
 37 39  2  0  0  0
 38 40  2  0  0  0
 39 40  1  0  0  0
 13 12  1  0  0  0
 13 14  1  0  0  0
 12  9  1  0  0  0
 12 31  1  0  0  0
  9 10  2  0  0  0
 31 32  1  0  0  0
 31 33  1  0  0  0
 19 17  1  0  0  0
 19 20  1  0  0  0
 17 14  1  0  0  0
 17 18  1  0  0  0
 14 15  2  0  0  0
 20 21  2  0  0  0
 20 23  1  0  0  0
 23 24  1  0  0  0
 24 25  1  0  0  0
 25 26  2  0  0  0
 25 30  1  0  0  0
 26 27  1  0  0  0
 27 28  2  0  0  0
 28 29  1  0  0  0
 29 30  2  0  0  0
 55 56  1  0  0  0
 49 50  1  0  0  0
  2  3  1  0  0  0
 44 45  1  0  0  0
  8 11  1  0  0  0
  5  6  1  0  0  0
 13 16  1  0  0  0
 19 22  1  0  0  0
M  END
> <minimizedAffinity>
-10.22319

$$$$
2P3C_3TL_A_201


 74 77  0  0  0  0  0  0  0  0999 V2000
  -11.0894  -14.5480   13.7912 C   0  0  0  0  0  0  0  0  0  0  0  0
  -12.2477  -15.3503   13.8572 O   0  0  0  0  0  0  0  0  0  0  0  0
  -12.2333  -15.9990   13.1361 H   0  0  0  0  0  0  0  0  0  0  0  0
   -9.9164  -15.4964   13.9634 C   0  0  0  0  0  0  0  0  0  0  0  0
  -10.2940  -16.7313   13.3604 O   0  0  0  0  0  0  0  0  0  0  0  0
  -11.0634  -17.0961   13.8250 H   0  0  0  0  0  0  0  0  0  0  0  0
   -9.5128  -15.7985   15.3942 C   0  0  0  0  0  0  0  0  0  0  0  0
   -8.1218  -16.2333   15.3669 N   0  0  0  0  0  0  0  0  0  0  0  0
   -7.1119  -15.6236   14.7474 C   0  0  0  0  0  0  0  0  0  0  0  0
   -7.2348  -14.6647   13.9960 O   0  0  0  0  0  0  0  0  0  0  0  0
   -7.9069  -17.0607   15.8552 H   0  0  0  0  0  0  0  0  0  0  0  0
   -5.7705  -16.2414   15.0173 C   0  0  0  0  0  0  0  0  0  0  0  0
   -5.7691  -16.7732   16.3792 N   0  0  0  0  0  0  0  0  0  0  0  0
   -4.7342  -16.7285   17.2230 C   0  0  0  0  0  0  0  0  0  0  0  0
   -3.5958  -16.4547   16.8825 O   0  0  0  0  0  0  0  0  0  0  0  0
   -6.5970  -17.1983   16.7002 H   0  0  0  0  0  0  0  0  0  0  0  0
   -5.0243  -17.1221   18.6474 C   0  0  0  0  0  0  0  0  0  0  0  0
   -6.4988  -17.4017   18.9295 C   0  0  0  0  0  0  0  0  0  0  0  0
   -4.5634  -16.0798   19.5440 N   0  0  0  0  0  0  0  0  0  0  0  0
   -3.4933  -16.2468   20.3125 C   0  0  0  0  0  0  0  0  0  0  0  0
   -2.8610  -17.2911   20.3702 O   0  0  0  0  0  0  0  0  0  0  0  0
   -5.0555  -15.2281   19.5841 H   0  0  0  0  0  0  0  0  0  0  0  0
   -3.0997  -15.1164   21.1350 O   0  0  0  0  0  0  0  0  0  0  0  0
   -1.8037  -15.0723   21.7318 C   0  0  0  0  0  0  0  0  0  0  0  0
   -1.1542  -13.7168   21.5515 C   0  0  0  0  0  0  0  0  0  0  0  0
   -1.3653  -12.7303   22.5159 C   0  0  0  0  0  0  0  0  0  0  0  0
   -0.7655  -11.4771   22.3816 C   0  0  0  0  0  0  0  0  0  0  0  0
    0.0475  -11.2055   21.2842 C   0  0  0  0  0  0  0  0  0  0  0  0
    0.2634  -12.1971   20.3247 C   0  0  0  0  0  0  0  0  0  0  0  0
   -0.3298  -13.4568   20.4553 C   0  0  0  0  0  0  0  0  0  0  0  0
   -5.3777  -17.2741   13.9443 C   0  0  0  0  0  0  0  0  0  0  0  0
   -5.0689  -18.6621   14.5249 C   0  0  0  0  0  0  0  0  0  0  0  0
   -4.1709  -16.7873   13.1550 C   0  0  0  0  0  0  0  0  0  0  0  0
   -9.6926  -14.4574   16.0991 C   0  0  0  0  0  0  0  0  0  0  0  0
   -9.2950  -14.4646   17.5512 C   0  0  0  0  0  0  0  0  0  0  0  0
  -10.1147  -15.0443   18.5073 C   0  0  0  0  0  0  0  0  0  0  0  0
   -8.0887  -13.9009   17.9042 C   0  0  0  0  0  0  0  0  0  0  0  0
   -9.7400  -15.0497   19.8451 C   0  0  0  0  0  0  0  0  0  0  0  0
   -7.7080  -13.8998   19.2333 C   0  0  0  0  0  0  0  0  0  0  0  0
   -8.5361  -14.4674   20.2007 C   0  0  0  0  0  0  0  0  0  0  0  0
  -11.1412  -13.8286   12.4549 C   0  0  0  0  0  0  0  0  0  0  0  0
   -9.5312  -14.3540   10.7225 C   0  0  0  0  0  0  0  0  0  0  0  0
   -8.8640  -13.3670   10.9511 O   0  0  0  0  0  0  0  0  0  0  0  0
  -10.6188  -14.6774   11.4075 N   0  0  0  0  0  0  0  0  0  0  0  0
  -11.0839  -15.5192   11.1973 H   0  0  0  0  0  0  0  0  0  0  0  0
   -9.1883  -15.2630    9.5889 C   0  0  0  0  0  0  0  0  0  0  0  0
  -10.7642  -14.3540    7.9455 C   0  0  0  0  0  0  0  0  0  0  0  0
  -11.7311  -14.7894    8.5390 O   0  0  0  0  0  0  0  0  0  0  0  0
   -9.5251  -14.5411    8.3680 N   0  0  0  0  0  0  0  0  0  0  0  0
   -8.7892  -14.1723    7.8281 H   0  0  0  0  0  0  0  0  0  0  0  0
  -10.9171  -13.5868    6.6629 C   0  0  0  0  0  0  0  0  0  0  0  0
   -9.7896  -13.9562    5.7046 C   0  0  0  0  0  0  0  0  0  0  0  0
  -11.4127  -11.2806    6.0107 C   0  0  0  0  0  0  0  0  0  0  0  0
  -11.9253  -11.6090    4.9502 O   0  0  0  0  0  0  0  0  0  0  0  0
  -10.9352  -12.1546    6.9029 N   0  0  0  0  0  0  0  0  0  0  0  0
  -10.5819  -11.8137    7.7562 H   0  0  0  0  0  0  0  0  0  0  0  0
  -11.2895   -9.8625    6.3197 O   0  0  0  0  0  0  0  0  0  0  0  0
  -12.1358   -8.8986    5.6976 C   0  0  0  0  0  0  0  0  0  0  0  0
  -13.2784   -8.4575    6.5874 C   0  0  0  0  0  0  0  0  0  0  0  0
  -13.1076   -7.3319    7.4084 C   0  0  0  0  0  0  0  0  0  0  0  0
  -14.1456   -6.8910    8.2221 C   0  0  0  0  0  0  0  0  0  0  0  0
  -15.3624   -7.5786    8.2268 C   0  0  0  0  0  0  0  0  0  0  0  0
  -15.5349   -8.7002    7.4087 C   0  0  0  0  0  0  0  0  0  0  0  0
  -14.4885   -9.1365    6.5834 C   0  0  0  0  0  0  0  0  0  0  0  0
   -7.7202  -15.6873    9.6047 C   0  0  0  0  0  0  0  0  0  0  0  0
   -7.3314  -16.4201    8.3246 C   0  0  0  0  0  0  0  0  0  0  0  0
   -7.3097  -16.5204   10.8215 C   0  0  0  0  0  0  0  0  0  0  0  0
  -12.5746  -13.4364   12.1073 C   0  0  0  0  0  0  0  0  0  0  0  0
  -12.5524  -12.0747   11.4668 C   0  0  0  0  0  0  0  0  0  0  0  0
  -12.0789  -10.9780   12.1910 C   0  0  0  0  0  0  0  0  0  0  0  0
  -12.9993  -11.9284   10.1550 C   0  0  0  0  0  0  0  0  0  0  0  0
  -12.0717   -9.7222   11.5868 C   0  0  0  0  0  0  0  0  0  0  0  0
  -12.9941  -10.6698    9.5619 C   0  0  0  0  0  0  0  0  0  0  0  0
  -12.5352   -9.5702   10.2788 C   0  0  0  0  0  0  0  0  0  0  0  0
 53 54  2  0  0  0
 53 57  1  0  0  0
 53 55  1  0  0  0
 57 58  1  0  0  0
 58 59  1  0  0  0
 59 60  2  0  0  0
 59 64  1  0  0  0
 60 61  1  0  0  0
 61 62  2  0  0  0
 62 63  1  0  0  0
 63 64  2  0  0  0
 55 51  1  0  0  0
 51 47  1  0  0  0
 51 52  1  0  0  0
 47 48  2  0  0  0
 47 49  1  0  0  0
 49 46  1  0  0  0
 46 42  1  0  0  0
 46 65  1  0  0  0
 42 43  2  0  0  0
 42 44  1  0  0  0
 65 66  1  0  0  0
 65 67  1  0  0  0
  1  2  1  0  0  0
  1 41  1  0  0  0
  1  4  1  0  0  0
 41 44  1  0  0  0
 41 68  1  0  0  0
 68 69  1  0  0  0
 69 70  2  0  0  0
 69 71  1  0  0  0
 70 72  1  0  0  0
 71 73  2  0  0  0
 72 74  2  0  0  0
 73 74  1  0  0  0
  8  7  1  0  0  0
  8  9  1  0  0  0
  7  4  1  0  0  0
  7 34  1  0  0  0
  4  5  1  0  0  0
 34 35  1  0  0  0
 35 36  2  0  0  0
 35 37  1  0  0  0
 36 38  1  0  0  0
 37 39  2  0  0  0
 38 40  2  0  0  0
 39 40  1  0  0  0
 13 12  1  0  0  0
 13 14  1  0  0  0
 12  9  1  0  0  0
 12 31  1  0  0  0
  9 10  2  0  0  0
 31 32  1  0  0  0
 31 33  1  0  0  0
 19 17  1  0  0  0
 19 20  1  0  0  0
 17 14  1  0  0  0
 17 18  1  0  0  0
 14 15  2  0  0  0
 20 21  2  0  0  0
 20 23  1  0  0  0
 23 24  1  0  0  0
 24 25  1  0  0  0
 25 26  2  0  0  0
 25 30  1  0  0  0
 26 27  1  0  0  0
 27 28  2  0  0  0
 28 29  1  0  0  0
 29 30  2  0  0  0
 55 56  1  0  0  0
 49 50  1  0  0  0
  2  3  1  0  0  0
 44 45  1  0  0  0
  8 11  1  0  0  0
  5  6  1  0  0  0
 13 16  1  0  0  0
 19 22  1  0  0  0
M  END
> <minimizedAffinity>
-10.14796

$$$$
