2CLK_G3H_A_1268
  RCSB PDB12061705163D
Coordinates from PDB:2CLK:A:1268 Model:1 without hydrogens
 10  9  0  0  0  0            999 V2000
   46.9860   27.2870   15.2650   O 0  0  0  0  0  0  0  0  0  0  0  0
   47.9020   28.1380   14.8630   C 0  0  0  0  0  0  0  0  0  0  0  0
   48.3840   28.1090   13.4640   C 0  0  0  0  0  0  0  0  0  0  0  0
   49.1880   29.3230   13.4700   O 0  0  0  0  0  0  0  0  0  0  0  0
   47.2500   28.2580   12.4260   C 0  0  0  0  0  0  0  0  0  0  0  0
   47.7060   28.0570   11.0750   O 0  0  0  0  0  0  0  0  0  0  0  0
   46.7000   30.1770   10.1680   O 0  0  0  0  0  0  0  0  0  0  0  0
   48.3290   28.6780    8.8370   O 0  0  0  0  0  0  0  0  0  0  0  0
   49.1550   30.1180   10.7850   O 0  0  0  0  0  0  0  0  0  0  0  0
   47.9900   29.3520   10.1650   P 0  0  0  0  0  0  0  0  0  0  0  0
  1  2  2  0  0  0  0
  2  3  1  0  0  0  0
  3  4  1  0  0  0  0
  3  5  1  0  0  0  0
  5  6  1  0  0  0  0
  6 10  1  0  0  0  0
  7 10  2  0  0  0  0
  8 10  1  0  0  0  0
  9 10  1  0  0  0  0
A    1
O1
A    2
C1
A    3
C2
A    4
O2
A    5
C3
A    6
O1P
A    7
O2P
A    8
O3P
A    9
O4P
A   10
P
M  END
>  <InstanceId>
2CLK_G3H_A_1268

>  <ChemCompId>
G3H

>  <PdbId>
2CLK

>  <ChainId>
A

>  <ResidueNumber>
1268

>  <InsertionCode>


>  <Model>
1

>  <AltIds>


>  <MissingHeavyAtoms>
0

>  <ObservedFormula>
C3 O6 P

>  <Name>
GLYCERALDEHYDE-3-PHOSPHATE

>  <SystematicName>
[(2R)-2-hydroxy-3-oxo-propyl] dihydrogen phosphate

>  <Synonyms>


>  <Type>
NON-POLYMER

>  <Formula>
C3 H7 O6 P

>  <MolecularWeight>
170.058

>  <ModifiedDate>
2011-06-04

>  <Parent>


>  <OneLetterCode>


>  <SubcomponentList>


>  <AmbiguousFlag>
N

>  <InChI>
InChI=1S/C3H7O6P/c4-1-3(5)2-9-10(6,7)8/h1,3,5H,2H2,(H2,6,7,8)/t3-/m0/s1

>  <InChIKey>
LXJXRIRHZLFYRP-VKHMYHEASA-N

>  <SMILES>
C([C@H](C=O)O)OP(=O)(O)O

$$$$
