2CLK_G3H_A_1268


 13 12  0  0  0  0  0  0  0  0999 V2000
   47.6011   30.2279   10.3817 O   0  0  0  0  0  0  0  0  0  0  0  0
   45.3979   29.5323    9.3862 O   0  0  0  0  0  0  0  0  0  0  0  0
   47.4217   30.3161    7.9854 O   0  0  0  0  0  0  0  0  0  0  0  0
   46.0611   31.9759    9.3797 O   0  0  0  0  0  0  0  0  0  0  0  0
   46.5405   30.5369    9.2132 P   0  0  0  0  0  0  0  0  0  0  0  0
   47.6886   29.3845    7.9423 H   0  0  0  0  0  0  0  0  0  0  0  0
   45.5097   32.0431   10.1750 H   0  0  0  0  0  0  0  0  0  0  0  0
   48.1024   28.8842   10.5116 C   0  0  0  0  0  0  0  0  0  0  0  0
   48.0026   28.3502   11.9574 C   0  0  0  0  0  0  0  0  0  0  0  0
   48.7597   29.2244   12.8423 O   0  0  0  0  0  0  0  0  0  0  0  0
   48.3802   30.1167   12.8174 H   0  0  0  0  0  0  0  0  0  0  0  0
   45.6725   27.7280   12.1962 O   0  0  0  0  0  0  0  0  0  0  0  0
   46.6576   28.5207   12.5510 C   0  0  0  0  0  0  0  0  0  0  0  0
 12 13  2  0  0  0
 13  9  1  0  0  0
  9 10  1  0  0  0
  9  8  1  0  0  0
  8  1  1  0  0  0
  1  5  1  0  0  0
  2  5  2  0  0  0
  3  5  1  0  0  0
  4  5  1  0  0  0
 10 11  1  0  0  0
  3  6  1  0  0  0
  4  7  1  0  0  0
M  END
> <minimizedAffinity>
-6.67044

$$$$
2CLK_G3H_A_1268


 13 12  0  0  0  0  0  0  0  0999 V2000
   47.6060   30.2186   10.4065 O   0  0  0  0  0  0  0  0  0  0  0  0
   45.4095   29.5174    9.4001 O   0  0  0  0  0  0  0  0  0  0  0  0
   47.4504   30.2706    8.0074 O   0  0  0  0  0  0  0  0  0  0  0  0
   46.0838   31.9577    9.3625 O   0  0  0  0  0  0  0  0  0  0  0  0
   46.5583   30.5142    9.2229 P   0  0  0  0  0  0  0  0  0  0  0  0
   47.7135   29.3373    7.9813 H   0  0  0  0  0  0  0  0  0  0  0  0
   45.5250   32.0395   10.1512 H   0  0  0  0  0  0  0  0  0  0  0  0
   47.7284   28.8674   10.8889 C   0  0  0  0  0  0  0  0  0  0  0  0
   47.1123   28.6798   12.2928 C   0  0  0  0  0  0  0  0  0  0  0  0
   46.1404   27.5966   12.2465 O   0  0  0  0  0  0  0  0  0  0  0  0
   46.5860   26.7729   11.9939 H   0  0  0  0  0  0  0  0  0  0  0  0
   47.6380   27.7298   14.4595 O   0  0  0  0  0  0  0  0  0  0  0  0
   48.0599   28.1052   13.2738 C   0  0  0  0  0  0  0  0  0  0  0  0
 12 13  2  0  0  0
 13  9  1  0  0  0
  9 10  1  0  0  0
  9  8  1  0  0  0
  8  1  1  0  0  0
  1  5  1  0  0  0
  2  5  2  0  0  0
  3  5  1  0  0  0
  4  5  1  0  0  0
 10 11  1  0  0  0
  3  6  1  0  0  0
  4  7  1  0  0  0
M  END
> <minimizedAffinity>
-6.58242

$$$$
2CLK_G3H_A_1268


 13 12  0  0  0  0  0  0  0  0999 V2000
   47.6449   30.0967   10.6537 O   0  0  0  0  0  0  0  0  0  0  0  0
   46.4430   31.8119    9.2599 O   0  0  0  0  0  0  0  0  0  0  0  0
   45.6739   29.3569    9.4916 O   0  0  0  0  0  0  0  0  0  0  0  0
   47.7496   29.9648    8.1233 O   0  0  0  0  0  0  0  0  0  0  0  0
   46.8321   30.3312    9.2861 P   0  0  0  0  0  0  0  0  0  0  0  0
   45.1347   29.6495   10.2430 H   0  0  0  0  0  0  0  0  0  0  0  0
   48.4588   30.6227    8.0513 H   0  0  0  0  0  0  0  0  0  0  0  0
   47.8269   28.7456   11.1172 C   0  0  0  0  0  0  0  0  0  0  0  0
   47.6341   28.6103   12.6437 C   0  0  0  0  0  0  0  0  0  0  0  0
   48.0118   27.2655   13.0551 O   0  0  0  0  0  0  0  0  0  0  0  0
   48.9477   27.1153   12.8490 H   0  0  0  0  0  0  0  0  0  0  0  0
   49.3858   28.7800   14.3099 O   0  0  0  0  0  0  0  0  0  0  0  0
   48.6229   29.3836   13.4276 C   0  0  0  0  0  0  0  0  0  0  0  0
 12 13  2  0  0  0
 13  9  1  0  0  0
  9 10  1  0  0  0
  9  8  1  0  0  0
  8  1  1  0  0  0
  1  5  1  0  0  0
  2  5  2  0  0  0
  3  5  1  0  0  0
  4  5  1  0  0  0
 10 11  1  0  0  0
  3  6  1  0  0  0
  4  7  1  0  0  0
M  END
> <minimizedAffinity>
-6.06765

$$$$
2CLK_G3H_A_1268


 13 12  0  0  0  0  0  0  0  0999 V2000
   47.3973   29.7416   11.2687 O   0  0  0  0  0  0  0  0  0  0  0  0
   47.9009   27.4040   12.0506 O   0  0  0  0  0  0  0  0  0  0  0  0
   45.5094   28.3374   11.7652 O   0  0  0  0  0  0  0  0  0  0  0  0
   47.0048   29.1098   13.6933 O   0  0  0  0  0  0  0  0  0  0  0  0
   46.9327   28.5703   12.2678 P   0  0  0  0  0  0  0  0  0  0  0  0
   45.5387   27.9962   10.8576 H   0  0  0  0  0  0  0  0  0  0  0  0
   47.9332   29.2333   13.9457 H   0  0  0  0  0  0  0  0  0  0  0  0
   47.7401   29.3892    9.9153 C   0  0  0  0  0  0  0  0  0  0  0  0
   46.7000   29.8905    8.8894 C   0  0  0  0  0  0  0  0  0  0  0  0
   45.3751   29.8447    9.4918 O   0  0  0  0  0  0  0  0  0  0  0  0
   45.3510   30.4300   10.2649 H   0  0  0  0  0  0  0  0  0  0  0  0
   46.0414   32.1857    9.3040 O   0  0  0  0  0  0  0  0  0  0  0  0
   46.7910   31.3445    8.6291 C   0  0  0  0  0  0  0  0  0  0  0  0
 12 13  2  0  0  0
 13  9  1  0  0  0
  9 10  1  0  0  0
  9  8  1  0  0  0
  8  1  1  0  0  0
  1  5  1  0  0  0
  2  5  2  0  0  0
  3  5  1  0  0  0
  4  5  1  0  0  0
 10 11  1  0  0  0
  3  6  1  0  0  0
  4  7  1  0  0  0
M  END
> <minimizedAffinity>
-5.84680

$$$$
2CLK_G3H_A_1268


 13 12  0  0  0  0  0  0  0  0999 V2000
   47.1060   28.4475   11.1005 O   0  0  0  0  0  0  0  0  0  0  0  0
   49.0503   30.0353   10.9341 O   0  0  0  0  0  0  0  0  0  0  0  0
   46.7674   30.4380    9.7945 O   0  0  0  0  0  0  0  0  0  0  0  0
   48.3821   28.6557    8.9188 O   0  0  0  0  0  0  0  0  0  0  0  0
   47.8893   29.4546   10.1218 P   0  0  0  0  0  0  0  0  0  0  0  0
   46.5048   30.9089   10.6008 H   0  0  0  0  0  0  0  0  0  0  0  0
   49.0904   28.0546    9.1980 H   0  0  0  0  0  0  0  0  0  0  0  0
   47.8351   27.8442   12.1858 C   0  0  0  0  0  0  0  0  0  0  0  0
   47.6420   28.5958   13.5213 C   0  0  0  0  0  0  0  0  0  0  0  0
   47.2895   27.6390   14.5608 O   0  0  0  0  0  0  0  0  0  0  0  0
   48.0106   26.9995   14.6695 H   0  0  0  0  0  0  0  0  0  0  0  0
   49.6513   28.3366   14.8515 O   0  0  0  0  0  0  0  0  0  0  0  0
   48.9084   29.1078   14.0911 C   0  0  0  0  0  0  0  0  0  0  0  0
 12 13  2  0  0  0
 13  9  1  0  0  0
  9 10  1  0  0  0
  9  8  1  0  0  0
  8  1  1  0  0  0
  1  5  1  0  0  0
  2  5  2  0  0  0
  3  5  1  0  0  0
  4  5  1  0  0  0
 10 11  1  0  0  0
  3  6  1  0  0  0
  4  7  1  0  0  0
M  END
> <minimizedAffinity>
-5.60398

$$$$
2CLK_G3H_A_1268


 13 12  0  0  0  0  0  0  0  0999 V2000
   47.7997   28.0845   11.7020 O   0  0  0  0  0  0  0  0  0  0  0  0
   48.4214   28.3664    9.2806 O   0  0  0  0  0  0  0  0  0  0  0  0
   49.0489   30.0578   11.1293 O   0  0  0  0  0  0  0  0  0  0  0  0
   46.6375   29.8477   10.2978 O   0  0  0  0  0  0  0  0  0  0  0  0
   47.9798   29.1556   10.5163 P   0  0  0  0  0  0  0  0  0  0  0  0
   49.8714   29.5555   11.2396 H   0  0  0  0  0  0  0  0  0  0  0  0
   46.0095   29.2195    9.9080 H   0  0  0  0  0  0  0  0  0  0  0  0
   46.8943   28.4002   12.7763 C   0  0  0  0  0  0  0  0  0  0  0  0
   47.6203   28.6056   14.1240 C   0  0  0  0  0  0  0  0  0  0  0  0
   47.0816   27.6724   15.1033 O   0  0  0  0  0  0  0  0  0  0  0  0
   47.2396   26.7631   14.8045 H   0  0  0  0  0  0  0  0  0  0  0  0
   49.9418   28.7829   14.7968 O   0  0  0  0  0  0  0  0  0  0  0  0
   49.0262   28.1435   14.1057 C   0  0  0  0  0  0  0  0  0  0  0  0
 12 13  2  0  0  0
 13  9  1  0  0  0
  9 10  1  0  0  0
  9  8  1  0  0  0
  8  1  1  0  0  0
  1  5  1  0  0  0
  2  5  2  0  0  0
  3  5  1  0  0  0
  4  5  1  0  0  0
 10 11  1  0  0  0
  3  6  1  0  0  0
  4  7  1  0  0  0
M  END
> <minimizedAffinity>
-5.59586

$$$$
2CLK_G3H_A_1268


 13 12  0  0  0  0  0  0  0  0999 V2000
   47.8852   29.2654   13.4491 O   0  0  0  0  0  0  0  0  0  0  0  0
   48.5397   26.8448   13.6529 O   0  0  0  0  0  0  0  0  0  0  0  0
   47.3302   28.1656   15.5143 O   0  0  0  0  0  0  0  0  0  0  0  0
   49.7951   28.5991   14.9786 O   0  0  0  0  0  0  0  0  0  0  0  0
   48.4349   28.1420   14.4598 P   0  0  0  0  0  0  0  0  0  0  0  0
   46.4979   27.8647   15.1174 H   0  0  0  0  0  0  0  0  0  0  0  0
   50.4454   28.5590   14.2600 H   0  0  0  0  0  0  0  0  0  0  0  0
   48.2062   29.1423   12.0507 C   0  0  0  0  0  0  0  0  0  0  0  0
   46.9980   28.6898   11.2015 C   0  0  0  0  0  0  0  0  0  0  0  0
   45.7724   28.9259   11.9515 O   0  0  0  0  0  0  0  0  0  0  0  0
   45.6823   29.8744   12.1334 H   0  0  0  0  0  0  0  0  0  0  0  0
   45.5130   29.7364    9.5975 O   0  0  0  0  0  0  0  0  0  0  0  0
   46.7380   29.5705   10.0409 C   0  0  0  0  0  0  0  0  0  0  0  0
 12 13  2  0  0  0
 13  9  1  0  0  0
  9 10  1  0  0  0
  9  8  1  0  0  0
  8  1  1  0  0  0
  1  5  1  0  0  0
  2  5  2  0  0  0
  3  5  1  0  0  0
  4  5  1  0  0  0
 10 11  1  0  0  0
  3  6  1  0  0  0
  4  7  1  0  0  0
M  END
> <minimizedAffinity>
-5.36259

$$$$
2CLK_G3H_A_1268


 13 12  0  0  0  0  0  0  0  0999 V2000
   46.7360   29.0994   12.6442 O   0  0  0  0  0  0  0  0  0  0  0  0
   48.9828   29.5727   13.6724 O   0  0  0  0  0  0  0  0  0  0  0  0
   48.2050   27.2195   12.9447 O   0  0  0  0  0  0  0  0  0  0  0  0
   47.2202   28.3510   15.0184 O   0  0  0  0  0  0  0  0  0  0  0  0
   47.8597   28.5322   13.6449 P   0  0  0  0  0  0  0  0  0  0  0  0
   48.6057   27.4089   12.0819 H   0  0  0  0  0  0  0  0  0  0  0  0
   47.0285   29.2206   15.4031 H   0  0  0  0  0  0  0  0  0  0  0  0
   46.7286   28.6238   11.2851 C   0  0  0  0  0  0  0  0  0  0  0  0
   47.5756   29.5067   10.3423 C   0  0  0  0  0  0  0  0  0  0  0  0
   48.3638   28.6507    9.4670 O   0  0  0  0  0  0  0  0  0  0  0  0
   47.7699   28.1060    8.9270 H   0  0  0  0  0  0  0  0  0  0  0  0
   47.3075   30.5535    8.1729 O   0  0  0  0  0  0  0  0  0  0  0  0
   46.7686   30.2103    9.3204 C   0  0  0  0  0  0  0  0  0  0  0  0
 12 13  2  0  0  0
 13  9  1  0  0  0
  9 10  1  0  0  0
  9  8  1  0  0  0
  8  1  1  0  0  0
  1  5  1  0  0  0
  2  5  2  0  0  0
  3  5  1  0  0  0
  4  5  1  0  0  0
 10 11  1  0  0  0
  3  6  1  0  0  0
  4  7  1  0  0  0
M  END
> <minimizedAffinity>
-5.11244

$$$$
2CLK_G3H_A_1268


 13 12  0  0  0  0  0  0  0  0999 V2000
   47.4187   29.4361   12.8583 O   0  0  0  0  0  0  0  0  0  0  0  0
   47.6169   29.9894   10.4121 O   0  0  0  0  0  0  0  0  0  0  0  0
   45.5976   28.7528   11.4443 O   0  0  0  0  0  0  0  0  0  0  0  0
   47.8614   27.5885   11.1785 O   0  0  0  0  0  0  0  0  0  0  0  0
   47.1155   28.9057   11.3708 P   0  0  0  0  0  0  0  0  0  0  0  0
   45.1903   29.6246   11.5665 H   0  0  0  0  0  0  0  0  0  0  0  0
   48.8154   27.7597   11.1407 H   0  0  0  0  0  0  0  0  0  0  0  0
   48.7576   29.3033   13.3714 C   0  0  0  0  0  0  0  0  0  0  0  0
   48.8447   28.3149   14.5550 C   0  0  0  0  0  0  0  0  0  0  0  0
   48.2465   27.0467   14.1628 O   0  0  0  0  0  0  0  0  0  0  0  0
   48.7391   26.6745   13.4146 H   0  0  0  0  0  0  0  0  0  0  0  0
   51.1283   28.6925   15.2735 O   0  0  0  0  0  0  0  0  0  0  0  0
   50.2235   27.8514   14.8278 C   0  0  0  0  0  0  0  0  0  0  0  0
 12 13  2  0  0  0
 13  9  1  0  0  0
  9 10  1  0  0  0
  9  8  1  0  0  0
  8  1  1  0  0  0
  1  5  1  0  0  0
  2  5  2  0  0  0
  3  5  1  0  0  0
  4  5  1  0  0  0
 10 11  1  0  0  0
  3  6  1  0  0  0
  4  7  1  0  0  0
M  END
> <minimizedAffinity>
-4.99636

$$$$
2CLK_G3H_A_1268


 13 12  0  0  0  0  0  0  0  0999 V2000
   47.1890   28.1682   13.0446 O   0  0  0  0  0  0  0  0  0  0  0  0
   47.2161   28.1384   15.5600 O   0  0  0  0  0  0  0  0  0  0  0  0
   48.9937   29.3381   14.1201 O   0  0  0  0  0  0  0  0  0  0  0  0
   48.9240   26.7841   14.2715 O   0  0  0  0  0  0  0  0  0  0  0  0
   48.1395   28.0911   14.3393 P   0  0  0  0  0  0  0  0  0  0  0  0
   48.4334   30.1278   14.1763 H   0  0  0  0  0  0  0  0  0  0  0  0
   48.3222   26.0377   14.4188 H   0  0  0  0  0  0  0  0  0  0  0  0
   47.6877   27.6455   11.7989 C   0  0  0  0  0  0  0  0  0  0  0  0
   47.3141   28.5322   10.5907 C   0  0  0  0  0  0  0  0  0  0  0  0
   46.2453   29.4418   10.9787 O   0  0  0  0  0  0  0  0  0  0  0  0
   46.5540   30.0156   11.6972 H   0  0  0  0  0  0  0  0  0  0  0  0
   49.0936   30.0617   11.1970 O   0  0  0  0  0  0  0  0  0  0  0  0
   48.3576   29.5252   10.2508 C   0  0  0  0  0  0  0  0  0  0  0  0
 12 13  2  0  0  0
 13  9  1  0  0  0
  9 10  1  0  0  0
  9  8  1  0  0  0
  8  1  1  0  0  0
  1  5  1  0  0  0
  2  5  2  0  0  0
  3  5  1  0  0  0
  4  5  1  0  0  0
 10 11  1  0  0  0
  3  6  1  0  0  0
  4  7  1  0  0  0
M  END
> <minimizedAffinity>
-4.73288

$$$$
