4DE5_0JD_A_401


 14 15  0  0  0  0  0  0  0  0999 V2000
   16.9897   10.9530    0.0943 C   0  0  0  0  0  0  0  0  0  0  0  0
   16.0633   11.4604    1.0701 O   0  0  0  0  0  0  0  0  0  0  0  0
   15.0619   10.5726    1.3255 C   0  0  0  0  0  0  0  0  0  0  0  0
   14.3877   10.5806    2.5493 C   0  0  0  0  0  0  0  0  0  0  0  0
   13.3590    9.6830    2.8052 C   0  0  0  0  0  0  0  0  0  0  0  0
   13.0399    8.7906    1.7911 C   0  0  0  0  0  0  0  0  0  0  0  0
   13.6762    8.7783    0.5567 C   0  0  0  0  0  0  0  0  0  0  0  0
   14.6999    9.6779    0.3142 C   0  0  0  0  0  0  0  0  0  0  0  0
   15.3711    9.6965   -0.8948 O   0  0  0  0  0  0  0  0  0  0  0  0
   16.2055   10.8170   -1.1606 C   0  0  0  0  0  0  0  0  0  0  0  0
   19.2794   11.3593   -0.3315 O   0  0  0  0  0  0  0  0  0  0  0  0
   18.1859   11.8746   -0.1196 C   0  0  0  0  0  0  0  0  0  0  0  0
   17.9596   13.0997   -0.1096 O   0  0  0  0  0  0  0  0  0  0  0  0
   19.3676   10.4265   -0.3216 H   0  0  0  0  0  0  0  0  0  0  0  0
 13 12  2  0  0  0
 12 11  1  0  0  0
 12  1  1  0  0  0
 10  1  1  0  0  0
 10  9  1  0  0  0
  1  2  1  0  0  0
  9  8  1  0  0  0
  2  3  1  0  0  0
  8  3  2  0  0  0
  8  7  1  0  0  0
  3  4  1  0  0  0
  7  6  2  0  0  0
  4  5  2  0  0  0
  6  5  1  0  0  0
 11 14  1  0  0  0
M  END
> <minimizedAffinity>
-6.65525

$$$$
4DE5_0JD_A_401


 14 15  0  0  0  0  0  0  0  0999 V2000
   14.3348    9.9855    6.5986 C   0  0  0  0  0  0  0  0  0  0  0  0
   13.1753   10.2486    7.4074 O   0  0  0  0  0  0  0  0  0  0  0  0
   13.5153   10.7201    8.6396 C   0  0  0  0  0  0  0  0  0  0  0  0
   12.6356   11.5219    9.3713 C   0  0  0  0  0  0  0  0  0  0  0  0
   12.9777   11.9929   10.6325 C   0  0  0  0  0  0  0  0  0  0  0  0
   14.2243   11.6265   11.1208 C   0  0  0  0  0  0  0  0  0  0  0  0
   15.1067   10.8099   10.4256 C   0  0  0  0  0  0  0  0  0  0  0  0
   14.7539   10.3471    9.1697 C   0  0  0  0  0  0  0  0  0  0  0  0
   15.6035    9.5411    8.4342 O   0  0  0  0  0  0  0  0  0  0  0  0
   15.0597    8.8899    7.2930 C   0  0  0  0  0  0  0  0  0  0  0  0
   13.8085   10.4605    4.3432 O   0  0  0  0  0  0  0  0  0  0  0  0
   13.9797    9.5733    5.1738 C   0  0  0  0  0  0  0  0  0  0  0  0
   13.9324    8.3509    4.9383 O   0  0  0  0  0  0  0  0  0  0  0  0
   13.8607   11.3599    4.6009 H   0  0  0  0  0  0  0  0  0  0  0  0
 13 12  2  0  0  0
 12 11  1  0  0  0
 12  1  1  0  0  0
 10  1  1  0  0  0
 10  9  1  0  0  0
  1  2  1  0  0  0
  9  8  1  0  0  0
  2  3  1  0  0  0
  8  3  2  0  0  0
  8  7  1  0  0  0
  3  4  1  0  0  0
  7  6  2  0  0  0
  4  5  2  0  0  0
  6  5  1  0  0  0
 11 14  1  0  0  0
M  END
> <minimizedAffinity>
-6.54190

$$$$
4DE5_0JD_A_401


 14 15  0  0  0  0  0  0  0  0999 V2000
   17.3224   11.4200    0.6767 C   0  0  0  0  0  0  0  0  0  0  0  0
   17.0619   10.3280   -0.2219 O   0  0  0  0  0  0  0  0  0  0  0  0
   15.7283   10.1699   -0.4515 C   0  0  0  0  0  0  0  0  0  0  0  0
   15.2658    9.5821   -1.6317 C   0  0  0  0  0  0  0  0  0  0  0  0
   13.9066    9.4105   -1.8606 C   0  0  0  0  0  0  0  0  0  0  0  0
   13.0439    9.8471   -0.8647 C   0  0  0  0  0  0  0  0  0  0  0  0
   13.4778   10.4105    0.3282 C   0  0  0  0  0  0  0  0  0  0  0  0
   14.8349   10.5762    0.5441 C   0  0  0  0  0  0  0  0  0  0  0  0
   15.3149   11.1428    1.7108 O   0  0  0  0  0  0  0  0  0  0  0  0
   16.7079   11.0221    1.9697 C   0  0  0  0  0  0  0  0  0  0  0  0
   19.2520   11.7664    1.9980 O   0  0  0  0  0  0  0  0  0  0  0  0
   18.8119   11.6959    0.8545 C   0  0  0  0  0  0  0  0  0  0  0  0
   19.4940   11.7862   -0.1840 O   0  0  0  0  0  0  0  0  0  0  0  0
   18.6713   11.6885    2.7292 H   0  0  0  0  0  0  0  0  0  0  0  0
 13 12  2  0  0  0
 12 11  1  0  0  0
 12  1  1  0  0  0
 10  1  1  0  0  0
 10  9  1  0  0  0
  1  2  1  0  0  0
  9  8  1  0  0  0
  2  3  1  0  0  0
  8  3  2  0  0  0
  8  7  1  0  0  0
  3  4  1  0  0  0
  7  6  2  0  0  0
  4  5  2  0  0  0
  6  5  1  0  0  0
 11 14  1  0  0  0
M  END
> <minimizedAffinity>
-6.32973

$$$$
4DE5_0JD_A_401


 14 15  0  0  0  0  0  0  0  0999 V2000
   14.7823   10.4893    4.4151 C   0  0  0  0  0  0  0  0  0  0  0  0
   14.2687   11.0164    5.6505 O   0  0  0  0  0  0  0  0  0  0  0  0
   14.2437   10.0712    6.6314 C   0  0  0  0  0  0  0  0  0  0  0  0
   14.3078   10.4314    7.9798 C   0  0  0  0  0  0  0  0  0  0  0  0
   14.2706    9.4683    8.9801 C   0  0  0  0  0  0  0  0  0  0  0  0
   14.1654    8.1457    8.5723 C   0  0  0  0  0  0  0  0  0  0  0  0
   14.0739    7.7624    7.2406 C   0  0  0  0  0  0  0  0  0  0  0  0
   14.1123    8.7317    6.2533 C   0  0  0  0  0  0  0  0  0  0  0  0
   14.0363    8.3984    4.9133 O   0  0  0  0  0  0  0  0  0  0  0  0
   13.8037    9.4550    3.9904 C   0  0  0  0  0  0  0  0  0  0  0  0
   15.3061   12.6746    3.6803 O   0  0  0  0  0  0  0  0  0  0  0  0
   14.9353   11.5563    3.3361 C   0  0  0  0  0  0  0  0  0  0  0  0
   14.7150   11.2031    2.1619 O   0  0  0  0  0  0  0  0  0  0  0  0
   15.4503   12.8618    4.5870 H   0  0  0  0  0  0  0  0  0  0  0  0
 13 12  2  0  0  0
 12 11  1  0  0  0
 12  1  1  0  0  0
 10  1  1  0  0  0
 10  9  1  0  0  0
  1  2  1  0  0  0
  9  8  1  0  0  0
  2  3  1  0  0  0
  8  3  2  0  0  0
  8  7  1  0  0  0
  3  4  1  0  0  0
  7  6  2  0  0  0
  4  5  2  0  0  0
  6  5  1  0  0  0
 11 14  1  0  0  0
M  END
> <minimizedAffinity>
-6.23651

$$$$
4DE5_0JD_A_401


 14 15  0  0  0  0  0  0  0  0999 V2000
   14.8799    8.9162    6.2315 C   0  0  0  0  0  0  0  0  0  0  0  0
   13.7757    8.4771    5.4218 O   0  0  0  0  0  0  0  0  0  0  0  0
   13.6835    9.1892    4.2640 C   0  0  0  0  0  0  0  0  0  0  0  0
   13.0846    8.6404    3.1271 C   0  0  0  0  0  0  0  0  0  0  0  0
   12.9805    9.3708    1.9502 C   0  0  0  0  0  0  0  0  0  0  0  0
   13.4951   10.6598    1.9655 C   0  0  0  0  0  0  0  0  0  0  0  0
   14.0717   11.2383    3.0888 C   0  0  0  0  0  0  0  0  0  0  0  0
   14.1697   10.4999    4.2554 C   0  0  0  0  0  0  0  0  0  0  0  0
   14.7460   11.0283    5.3961 O   0  0  0  0  0  0  0  0  0  0  0  0
   14.5576   10.3159    6.6123 C   0  0  0  0  0  0  0  0  0  0  0  0
   16.2272    7.7575    7.7907 O   0  0  0  0  0  0  0  0  0  0  0  0
   15.0794    8.0558    7.4749 C   0  0  0  0  0  0  0  0  0  0  0  0
   14.0560    7.7503    8.1163 O   0  0  0  0  0  0  0  0  0  0  0  0
   16.9460    8.0261    7.2529 H   0  0  0  0  0  0  0  0  0  0  0  0
 13 12  2  0  0  0
 12 11  1  0  0  0
 12  1  1  0  0  0
 10  1  1  0  0  0
 10  9  1  0  0  0
  1  2  1  0  0  0
  9  8  1  0  0  0
  2  3  1  0  0  0
  8  3  2  0  0  0
  8  7  1  0  0  0
  3  4  1  0  0  0
  7  6  2  0  0  0
  4  5  2  0  0  0
  6  5  1  0  0  0
 11 14  1  0  0  0
M  END
> <minimizedAffinity>
-6.09509

$$$$
4DE5_0JD_A_401


 14 15  0  0  0  0  0  0  0  0999 V2000
   13.0993   11.2547    9.9269 C   0  0  0  0  0  0  0  0  0  0  0  0
   12.9717   11.0760    8.5058 O   0  0  0  0  0  0  0  0  0  0  0  0
   13.5108    9.8942    8.0948 C   0  0  0  0  0  0  0  0  0  0  0  0
   13.0612    9.2638    6.9318 C   0  0  0  0  0  0  0  0  0  0  0  0
   13.6189    8.0648    6.5067 C   0  0  0  0  0  0  0  0  0  0  0  0
   14.6358    7.5350    7.2890 C   0  0  0  0  0  0  0  0  0  0  0  0
   15.1190    8.1538    8.4346 C   0  0  0  0  0  0  0  0  0  0  0  0
   14.5546    9.3483    8.8477 C   0  0  0  0  0  0  0  0  0  0  0  0
   14.9937    9.9962    9.9878 O   0  0  0  0  0  0  0  0  0  0  0  0
   14.5604   11.3362   10.1846 C   0  0  0  0  0  0  0  0  0  0  0  0
   11.7335   13.1609    9.6264 O   0  0  0  0  0  0  0  0  0  0  0  0
   12.3964   12.5114   10.4296 C   0  0  0  0  0  0  0  0  0  0  0  0
   12.5075   12.7695   11.6433 O   0  0  0  0  0  0  0  0  0  0  0  0
   11.7008   12.9005    8.7269 H   0  0  0  0  0  0  0  0  0  0  0  0
 13 12  2  0  0  0
 12 11  1  0  0  0
 12  1  1  0  0  0
 10  1  1  0  0  0
 10  9  1  0  0  0
  1  2  1  0  0  0
  9  8  1  0  0  0
  2  3  1  0  0  0
  8  3  2  0  0  0
  8  7  1  0  0  0
  3  4  1  0  0  0
  7  6  2  0  0  0
  4  5  2  0  0  0
  6  5  1  0  0  0
 11 14  1  0  0  0
M  END
> <minimizedAffinity>
-6.06568

$$$$
4DE5_0JD_A_401


 14 15  0  0  0  0  0  0  0  0999 V2000
   14.1282    9.4938    3.9595 C   0  0  0  0  0  0  0  0  0  0  0  0
   14.2259    8.4451    4.9385 O   0  0  0  0  0  0  0  0  0  0  0  0
   13.9555    8.8993    6.1942 C   0  0  0  0  0  0  0  0  0  0  0  0
   13.4710    8.0385    7.1823 C   0  0  0  0  0  0  0  0  0  0  0  0
   13.2064    8.4993    8.4656 C   0  0  0  0  0  0  0  0  0  0  0  0
   13.4486    9.8440    8.7105 C   0  0  0  0  0  0  0  0  0  0  0  0
   13.9542   10.7151    7.7543 C   0  0  0  0  0  0  0  0  0  0  0  0
   14.2136   10.2435    6.4790 C   0  0  0  0  0  0  0  0  0  0  0  0
   14.7066   11.0749    5.4900 O   0  0  0  0  0  0  0  0  0  0  0  0
   15.2023   10.4597    4.3077 C   0  0  0  0  0  0  0  0  0  0  0  0
   15.0107    7.9982    2.3552 O   0  0  0  0  0  0  0  0  0  0  0  0
   14.3060    8.9874    2.5319 C   0  0  0  0  0  0  0  0  0  0  0  0
   13.6805    9.5917    1.6399 O   0  0  0  0  0  0  0  0  0  0  0  0
   15.4497    7.6001    3.0810 H   0  0  0  0  0  0  0  0  0  0  0  0
 13 12  2  0  0  0
 12 11  1  0  0  0
 12  1  1  0  0  0
 10  1  1  0  0  0
 10  9  1  0  0  0
  1  2  1  0  0  0
  9  8  1  0  0  0
  2  3  1  0  0  0
  8  3  2  0  0  0
  8  7  1  0  0  0
  3  4  1  0  0  0
  7  6  2  0  0  0
  4  5  2  0  0  0
  6  5  1  0  0  0
 11 14  1  0  0  0
M  END
> <minimizedAffinity>
-6.05249

$$$$
4DE5_0JD_A_401


 14 15  0  0  0  0  0  0  0  0999 V2000
   17.0951   11.2933    0.9775 C   0  0  0  0  0  0  0  0  0  0  0  0
   16.1000   10.5408    0.2624 O   0  0  0  0  0  0  0  0  0  0  0  0
   15.1280   10.0709    1.0934 C   0  0  0  0  0  0  0  0  0  0  0  0
   13.8425    9.8010    0.6173 C   0  0  0  0  0  0  0  0  0  0  0  0
   12.8549    9.3109    1.4623 C   0  0  0  0  0  0  0  0  0  0  0  0
   13.2108    9.1045    2.7879 C   0  0  0  0  0  0  0  0  0  0  0  0
   14.4876    9.3398    3.2811 C   0  0  0  0  0  0  0  0  0  0  0  0
   15.4628    9.8283    2.4289 C   0  0  0  0  0  0  0  0  0  0  0  0
   16.7452   10.0891    2.8760 O   0  0  0  0  0  0  0  0  0  0  0  0
   17.7453   10.3187    1.8915 C   0  0  0  0  0  0  0  0  0  0  0  0
   18.0015   13.1242   -0.2122 O   0  0  0  0  0  0  0  0  0  0  0  0
   18.1276   11.9330    0.0551 C   0  0  0  0  0  0  0  0  0  0  0  0
   19.0628   11.2059   -0.3305 O   0  0  0  0  0  0  0  0  0  0  0  0
   17.2668   13.6032    0.1176 H   0  0  0  0  0  0  0  0  0  0  0  0
 13 12  2  0  0  0
 12 11  1  0  0  0
 12  1  1  0  0  0
 10  1  1  0  0  0
 10  9  1  0  0  0
  1  2  1  0  0  0
  9  8  1  0  0  0
  2  3  1  0  0  0
  8  3  2  0  0  0
  8  7  1  0  0  0
  3  4  1  0  0  0
  7  6  2  0  0  0
  4  5  2  0  0  0
  6  5  1  0  0  0
 11 14  1  0  0  0
M  END
> <minimizedAffinity>
-6.01802

$$$$
4DE5_0JD_A_401


 14 15  0  0  0  0  0  0  0  0999 V2000
   13.5942    9.4030    2.9235 C   0  0  0  0  0  0  0  0  0  0  0  0
   14.8072    9.5728    2.1700 O   0  0  0  0  0  0  0  0  0  0  0  0
   14.5559    9.9640    0.8894 C   0  0  0  0  0  0  0  0  0  0  0  0
   15.5033   10.6846    0.1578 C   0  0  0  0  0  0  0  0  0  0  0  0
   15.2515   11.0733   -1.1517 C   0  0  0  0  0  0  0  0  0  0  0  0
   14.0239   10.7096   -1.6878 C   0  0  0  0  0  0  0  0  0  0  0  0
   13.0754    9.9716   -0.9918 C   0  0  0  0  0  0  0  0  0  0  0  0
   13.3384    9.5904    0.3126 C   0  0  0  0  0  0  0  0  0  0  0  0
   12.4206    8.8650    1.0501 O   0  0  0  0  0  0  0  0  0  0  0  0
   12.8745    8.2821    2.2651 C   0  0  0  0  0  0  0  0  0  0  0  0
   12.9185    9.2076    5.1806 O   0  0  0  0  0  0  0  0  0  0  0  0
   13.8514    9.0844    4.3927 C   0  0  0  0  0  0  0  0  0  0  0  0
   14.9899    8.6730    4.6870 O   0  0  0  0  0  0  0  0  0  0  0  0
   12.0898    9.5251    4.8797 H   0  0  0  0  0  0  0  0  0  0  0  0
 13 12  2  0  0  0
 12 11  1  0  0  0
 12  1  1  0  0  0
 10  1  1  0  0  0
 10  9  1  0  0  0
  1  2  1  0  0  0
  9  8  1  0  0  0
  2  3  1  0  0  0
  8  3  2  0  0  0
  8  7  1  0  0  0
  3  4  1  0  0  0
  7  6  2  0  0  0
  4  5  2  0  0  0
  6  5  1  0  0  0
 11 14  1  0  0  0
M  END
> <minimizedAffinity>
-5.95445

$$$$
4DE5_0JD_A_401


 14 15  0  0  0  0  0  0  0  0999 V2000
   15.0103    9.2866    7.6571 C   0  0  0  0  0  0  0  0  0  0  0  0
   15.5752   10.0585    8.7308 O   0  0  0  0  0  0  0  0  0  0  0  0
   14.6150   10.7122    9.4427 C   0  0  0  0  0  0  0  0  0  0  0  0
   14.8230   11.0623   10.7792 C   0  0  0  0  0  0  0  0  0  0  0  0
   13.8483   11.7389   11.5015 C   0  0  0  0  0  0  0  0  0  0  0  0
   12.6725   12.0465   10.8310 C   0  0  0  0  0  0  0  0  0  0  0  0
   12.4505   11.7333    9.4963 C   0  0  0  0  0  0  0  0  0  0  0  0
   13.4295   11.0587    8.7876 C   0  0  0  0  0  0  0  0  0  0  0  0
   13.2501   10.7148    7.4602 O   0  0  0  0  0  0  0  0  0  0  0  0
   14.3955   10.2796    6.7384 C   0  0  0  0  0  0  0  0  0  0  0  0
   16.5377    7.4882    7.5090 O   0  0  0  0  0  0  0  0  0  0  0  0
   16.0508    8.4491    6.9209 C   0  0  0  0  0  0  0  0  0  0  0  0
   16.3036    8.7743    5.7451 O   0  0  0  0  0  0  0  0  0  0  0  0
   16.2952    7.3100    8.3964 H   0  0  0  0  0  0  0  0  0  0  0  0
 13 12  2  0  0  0
 12 11  1  0  0  0
 12  1  1  0  0  0
 10  1  1  0  0  0
 10  9  1  0  0  0
  1  2  1  0  0  0
  9  8  1  0  0  0
  2  3  1  0  0  0
  8  3  2  0  0  0
  8  7  1  0  0  0
  3  4  1  0  0  0
  7  6  2  0  0  0
  4  5  2  0  0  0
  6  5  1  0  0  0
 11 14  1  0  0  0
M  END
> <minimizedAffinity>
-5.92388

$$$$
