2P09_ATP_A_500
  RCSB PDB12061706343D
Coordinates from PDB:2P09:A:500 Model:1 without hydrogens
 31 33  0  0  0  0            999 V2000
   -3.2400   26.0270   20.6140   P 0  0  0  0  0  0  0  0  0  0  0  0
   -3.5630   25.4860   22.0040   O 0  0  0  0  0  0  0  0  0  0  0  0
   -3.8050   25.1340   19.5150   O 0  0  0  0  0  0  0  0  0  0  0  0
   -3.5840   27.5050   20.4060   O 0  0  0  0  0  0  0  0  0  0  0  0
   -0.7210   25.7520   19.1450   P 0  0  0  0  0  0  0  0  0  0  0  0
   -1.6470   25.3820   17.9860   O 0  0  0  0  0  0  0  0  0  0  0  0
    0.4760   24.8390   19.5070   O 0  0  0  0  0  0  0  0  0  0  0  0
   -1.5900   25.9870   20.5070   O 0  0  0  0  0  0  0  0  0  0  0  0
   -0.2770   28.6810   19.1860   P 0  0  0  0  0  0  0  0  0  0  0  0
   -1.7430   29.0980   19.4140   O 0  0  0  0  0  0  0  0  0  0  0  0
    0.6920   28.9140   20.3340   O 0  0  0  0  0  0  0  0  0  0  0  0
   -0.0910   27.1800   18.6420   O 0  0  0  0  0  0  0  0  0  0  0  0
    0.2570   29.4780   17.9420   O 0  0  0  0  0  0  0  0  0  0  0  0
   -0.3620   29.3290   16.6370   C 0  0  0  0  0  0  0  0  0  0  0  0
    0.5290   29.9810   15.5690   C 0  0  0  0  0  0  0  0  0  0  0  0
    0.4590   31.4100   15.6640   O 0  0  0  0  0  0  0  0  0  0  0  0
    2.0060   29.6410   15.6620   C 0  0  0  0  0  0  0  0  0  0  0  0
    2.5910   29.7290   14.3410   O 0  0  0  0  0  0  0  0  0  0  0  0
    2.5420   30.8290   16.4810   C 0  0  0  0  0  0  0  0  0  0  0  0
    3.9230   31.0820   16.3450   O 0  0  0  0  0  0  0  0  0  0  0  0
    1.7420   31.9900   15.8340   C 0  0  0  0  0  0  0  0  0  0  0  0
    1.5790   33.1250   16.7850   N 0  0  0  0  0  0  0  0  0  0  0  0
    0.6150   33.2490   17.7370   C 0  0  0  0  0  0  0  0  0  0  0  0
    0.7750   34.4250   18.4050   N 0  0  0  0  0  0  0  0  0  0  0  0
    1.8340   35.0600   17.8760   C 0  0  0  0  0  0  0  0  0  0  0  0
    2.5310   36.3250   18.1300   C 0  0  0  0  0  0  0  0  0  0  0  0
    2.1010   37.1530   19.1260   N 0  0  0  0  0  0  0  0  0  0  0  0
    3.6300   36.6300   17.3590   N 0  0  0  0  0  0  0  0  0  0  0  0
    4.0480   35.7750   16.3690   C 0  0  0  0  0  0  0  0  0  0  0  0
    3.4490   34.5930   16.0920   N 0  0  0  0  0  0  0  0  0  0  0  0
    2.3640   34.1890   16.7960   C 0  0  0  0  0  0  0  0  0  0  0  0
  1  2  2  0  0  0  0
  1  3  1  0  0  0  0
  1  4  1  0  0  0  0
  1  8  1  0  0  0  0
  5  6  2  0  0  0  0
  5  7  1  0  0  0  0
  5  8  1  0  0  0  0
  5 12  1  0  0  0  0
  9 10  2  0  0  0  0
  9 11  1  0  0  0  0
  9 12  1  0  0  0  0
  9 13  1  0  0  0  0
 13 14  1  0  0  0  0
 14 15  1  0  0  0  0
 15 16  1  0  0  0  0
 15 17  1  0  0  0  0
 16 21  1  0  0  0  0
 17 18  1  0  0  0  0
 17 19  1  0  0  0  0
 19 20  1  0  0  0  0
 19 21  1  0  0  0  0
 21 22  1  0  0  0  0
 22 23  1  0  0  0  0
 22 31  1  0  0  0  0
 23 24  2  0  0  0  0
 24 25  1  0  0  0  0
 25 26  1  0  0  0  0
 25 31  2  0  0  0  0
 26 27  1  0  0  0  0
 26 28  2  0  0  0  0
 28 29  1  0  0  0  0
 29 30  2  0  0  0  0
 30 31  1  0  0  0  0
A    1
PG
A    2
O1G
A    3
O2G
A    4
O3G
A    5
PB
A    6
O1B
A    7
O2B
A    8
O3B
A    9
PA
A   10
O1A
A   11
O2A
A   12
O3A
A   13
O5'
A   14
C5'
A   15
C4'
A   16
O4'
A   17
C3'
A   18
O3'
A   19
C2'
A   20
O2'
A   21
C1'
A   22
N9
A   23
C8
A   24
N7
A   25
C5
A   26
C6
A   27
N6
A   28
N1
A   29
C2
A   30
N3
A   31
C4
M  END
>  <InstanceId>
2P09_ATP_A_500

>  <ChemCompId>
ATP

>  <PdbId>
2P09

>  <ChainId>
A

>  <ResidueNumber>
500

>  <InsertionCode>


>  <Model>
1

>  <AltIds>


>  <MissingHeavyAtoms>
0

>  <ObservedFormula>
C10 N5 O13 P3

>  <Name>
ADENOSINE-5'-TRIPHOSPHATE

>  <SystematicName>
[[(2R,3S,4R,5R)-5-(6-aminopurin-9-yl)-3,4-dihydroxy-oxolan-2-yl]methoxy-hydroxy-phosphoryl] phosphono hydrogen phosphate

>  <Synonyms>


>  <Type>
NON-POLYMER

>  <Formula>
C10 H16 N5 O13 P3

>  <MolecularWeight>
507.181

>  <ModifiedDate>
2011-06-04

>  <Parent>


>  <OneLetterCode>


>  <SubcomponentList>


>  <AmbiguousFlag>
N

>  <InChI>
InChI=1S/C10H16N5O13P3/c11-8-5-9(13-2-12-8)15(3-14-5)10-7(17)6(16)4(26-10)1-25-30(21,22)28-31(23,24)27-29(18,19)20/h2-4,6-7,10,16-17H,1H2,(H,21,22)(H,23,24)(H2,11,12,13)(H2,18,19,20)/t4-,6-,7-,10-/m1/s1

>  <InChIKey>
ZKHQWZAMYRWXGA-KQYNXXCUSA-N

>  <SMILES>
c1nc(c2c(n1)n(cn2)[C@H]3[C@@H]([C@@H]([C@H](O3)CO[P@@](=O)(O)O[P@](=O)(O)OP(=O)(O)O)O)O)N

$$$$
