1ELA_0Z1_A_256


 37 38  0  0  0  0  0  0  0  0999 V2000
   39.2952   21.0785   37.2999 C   0  0  0  0  0  0  0  0  0  0  0  0
   38.6247   21.5660   38.1970 O   0  0  0  0  0  0  0  0  0  0  0  0
   38.6413   20.4142   36.3326 N   0  0  0  0  0  0  0  0  0  0  0  0
   37.2338   19.9948   36.4631 C   0  0  0  0  0  0  0  0  0  0  0  0
   36.8139   19.7430   35.0172 C   0  0  0  0  0  0  0  0  0  0  0  0
   38.0917   19.3290   34.3096 C   0  0  0  0  0  0  0  0  0  0  0  0
   39.2104   20.1010   35.0202 C   0  0  0  0  0  0  0  0  0  0  0  0
   37.0671   18.7969   37.4219 C   0  0  0  0  0  0  0  0  0  0  0  0
   37.9015   17.8776   37.5292 O   0  0  0  0  0  0  0  0  0  0  0  0
   35.9208   18.9911   38.1203 N   0  0  0  0  0  0  0  0  0  0  0  0
   35.3632   19.7656   37.8785 H   0  0  0  0  0  0  0  0  0  0  0  0
   35.4871   18.1904   39.1324 C   0  0  0  0  0  0  0  0  0  0  0  0
   34.6592   17.0695   38.9088 C   0  0  0  0  0  0  0  0  0  0  0  0
   34.3396   16.2013   39.9626 C   0  0  0  0  0  0  0  0  0  0  0  0
   34.8426   16.4372   41.2567 C   0  0  0  0  0  0  0  0  0  0  0  0
   35.6578   17.5527   41.4794 C   0  0  0  0  0  0  0  0  0  0  0  0
   35.9700   18.4223   40.4284 C   0  0  0  0  0  0  0  0  0  0  0  0
   34.5439   15.4742   42.4170 C   0  0  0  0  0  0  0  0  0  0  0  0
   35.2691   14.1181   42.2688 C   0  0  0  0  0  0  0  0  0  0  0  0
   33.0654   15.2750   42.4216 C   0  0  0  0  0  0  0  0  0  0  0  0
   40.8189   21.3318   37.3108 C   0  0  0  0  0  0  0  0  0  0  0  0
   40.8965   23.7686   37.8276 C   0  0  0  0  0  0  0  0  0  0  0  0
   40.6186   24.0764   36.6620 O   0  0  0  0  0  0  0  0  0  0  0  0
   41.1107   22.4772   38.1510 N   0  0  0  0  0  0  0  0  0  0  0  0
   41.5000   22.2956   39.0368 H   0  0  0  0  0  0  0  0  0  0  0  0
   41.0507   24.8589   38.9601 C   0  0  0  0  0  0  0  0  0  0  0  0
   41.6037   25.9731   38.4909 F   0  0  0  0  0  0  0  0  0  0  0  0
   39.9101   25.2812   39.5244 F   0  0  0  0  0  0  0  0  0  0  0  0
   41.8261   24.4844   39.9728 F   0  0  0  0  0  0  0  0  0  0  0  0
   41.6465   20.1813   37.9215 C   0  0  0  0  0  0  0  0  0  0  0  0
   40.9786   19.2645   38.9315 C   0  0  0  0  0  0  0  0  0  0  0  0
   41.8633   18.0891   39.3584 C   0  0  0  0  0  0  0  0  0  0  0  0
   41.0783   16.8037   39.0628 C   0  0  0  0  0  0  0  0  0  0  0  0
   40.6450   16.7376   37.6844 N   0  0  0  0  0  0  0  0  0  0  0  0
   40.0246   17.5223   37.4850 H   0  0  0  0  0  0  0  0  0  0  0  0
   40.1468   15.8616   37.5262 H   0  0  0  0  0  0  0  0  0  0  0  0
   41.4579   16.7822   37.0699 H   0  0  0  0  0  0  0  0  0  0  0  0
 22 26  1  0  0  0
 22 23  2  0  0  0
 26 27  1  0  0  0
 26 28  1  0  0  0
 26 29  1  0  0  0
 24 21  1  0  0  0
 21  1  1  0  0  0
 21 30  1  0  0  0
  1  2  2  0  0  0
 30 31  1  0  0  0
 31 32  1  0  0  0
 32 33  1  0  0  0
 33 34  1  0  0  0
  3  4  1  0  0  0
  3  7  1  0  0  0
  4  8  1  0  0  0
  4  5  1  0  0  0
  8  9  2  0  0  0
  5  6  1  0  0  0
  6  7  1  0  0  0
 12 10  1  0  0  0
 12 13  2  0  0  0
 12 17  1  0  0  0
 13 14  1  0  0  0
 14 15  2  0  0  0
 15 16  1  0  0  0
 15 18  1  0  0  0
 16 17  2  0  0  0
 18 19  1  0  0  0
 18 20  1  0  0  0
 22 24  1  0  0  0
  1  3  1  0  0  0
  8 10  1  0  0  0
 24 25  1  0  0  0
 34 35  1  0  0  0
 34 36  1  0  0  0
 34 37  1  0  0  0
 10 11  1  0  0  0
M  CHG 1  34   1
M  END
> <minimizedAffinity>
-7.98895

$$$$
1ELA_0Z1_A_256


 37 38  0  0  0  0  0  0  0  0999 V2000
   39.5106   19.7745   37.2362 C   0  0  0  0  0  0  0  0  0  0  0  0
   38.9791   20.4465   38.1068 O   0  0  0  0  0  0  0  0  0  0  0  0
   38.7626   19.4417   36.1712 N   0  0  0  0  0  0  0  0  0  0  0  0
   37.2948   19.5808   36.1514 C   0  0  0  0  0  0  0  0  0  0  0  0
   36.9668   19.5585   34.6607 C   0  0  0  0  0  0  0  0  0  0  0  0
   38.0656   18.7181   34.0352 C   0  0  0  0  0  0  0  0  0  0  0  0
   39.3094   18.9841   34.8922 C   0  0  0  0  0  0  0  0  0  0  0  0
   36.5936   18.5011   37.0025 C   0  0  0  0  0  0  0  0  0  0  0  0
   36.5649   17.2931   36.6978 O   0  0  0  0  0  0  0  0  0  0  0  0
   36.1075   19.1101   38.1126 N   0  0  0  0  0  0  0  0  0  0  0  0
   36.1949   20.0889   38.1730 H   0  0  0  0  0  0  0  0  0  0  0  0
   35.5071   18.4631   39.1492 C   0  0  0  0  0  0  0  0  0  0  0  0
   34.1571   18.0543   39.1061 C   0  0  0  0  0  0  0  0  0  0  0  0
   33.6157   17.2815   40.1434 C   0  0  0  0  0  0  0  0  0  0  0  0
   34.4139   16.9029   41.2402 C   0  0  0  0  0  0  0  0  0  0  0  0
   35.7507   17.3144   41.2859 C   0  0  0  0  0  0  0  0  0  0  0  0
   36.2876   18.0917   40.2535 C   0  0  0  0  0  0  0  0  0  0  0  0
   33.8556   16.0175   42.3659 C   0  0  0  0  0  0  0  0  0  0  0  0
   34.5072   14.6172   42.4027 C   0  0  0  0  0  0  0  0  0  0  0  0
   32.3894   15.9020   42.1154 C   0  0  0  0  0  0  0  0  0  0  0  0
   41.0086   19.4327   37.3942 C   0  0  0  0  0  0  0  0  0  0  0  0
   42.8396   20.4719   36.0606 C   0  0  0  0  0  0  0  0  0  0  0  0
   43.3156   19.3699   35.7609 O   0  0  0  0  0  0  0  0  0  0  0  0
   41.8090   20.5479   36.9267 N   0  0  0  0  0  0  0  0  0  0  0  0
   41.5793   21.4406   37.2727 H   0  0  0  0  0  0  0  0  0  0  0  0
   43.4336   21.8173   35.4844 C   0  0  0  0  0  0  0  0  0  0  0  0
   42.7356   22.8721   35.8938 F   0  0  0  0  0  0  0  0  0  0  0  0
   44.6913   22.1049   35.8493 F   0  0  0  0  0  0  0  0  0  0  0  0
   43.4277   21.8893   34.1570 F   0  0  0  0  0  0  0  0  0  0  0  0
   41.4574   19.2182   38.8551 C   0  0  0  0  0  0  0  0  0  0  0  0
   41.9635   17.8458   39.2638 C   0  0  0  0  0  0  0  0  0  0  0  0
   40.9360   16.7317   39.0413 C   0  0  0  0  0  0  0  0  0  0  0  0
   41.6990   15.4005   39.0808 C   0  0  0  0  0  0  0  0  0  0  0  0
   40.9031   14.3357   39.6508 N   0  0  0  0  0  0  0  0  0  0  0  0
   40.6583   14.5716   40.6125 H   0  0  0  0  0  0  0  0  0  0  0  0
   41.4384   13.4676   39.6394 H   0  0  0  0  0  0  0  0  0  0  0  0
   40.0512   14.2171   39.1025 H   0  0  0  0  0  0  0  0  0  0  0  0
 22 26  1  0  0  0
 22 23  2  0  0  0
 26 27  1  0  0  0
 26 28  1  0  0  0
 26 29  1  0  0  0
 24 21  1  0  0  0
 21  1  1  0  0  0
 21 30  1  0  0  0
  1  2  2  0  0  0
 30 31  1  0  0  0
 31 32  1  0  0  0
 32 33  1  0  0  0
 33 34  1  0  0  0
  3  4  1  0  0  0
  3  7  1  0  0  0
  4  8  1  0  0  0
  4  5  1  0  0  0
  8  9  2  0  0  0
  5  6  1  0  0  0
  6  7  1  0  0  0
 12 10  1  0  0  0
 12 13  2  0  0  0
 12 17  1  0  0  0
 13 14  1  0  0  0
 14 15  2  0  0  0
 15 16  1  0  0  0
 15 18  1  0  0  0
 16 17  2  0  0  0
 18 19  1  0  0  0
 18 20  1  0  0  0
 22 24  1  0  0  0
  1  3  1  0  0  0
  8 10  1  0  0  0
 24 25  1  0  0  0
 34 35  1  0  0  0
 34 36  1  0  0  0
 34 37  1  0  0  0
 10 11  1  0  0  0
M  CHG 1  34   1
M  END
> <minimizedAffinity>
-6.63790

$$$$
1ELA_0Z1_A_256


 37 38  0  0  0  0  0  0  0  0999 V2000
   39.5477   20.8903   37.3037 C   0  0  0  0  0  0  0  0  0  0  0  0
   38.7298   21.3604   38.0796 O   0  0  0  0  0  0  0  0  0  0  0  0
   39.0747   20.2679   36.2113 N   0  0  0  0  0  0  0  0  0  0  0  0
   37.6626   19.8682   36.0686 C   0  0  0  0  0  0  0  0  0  0  0  0
   37.5114   19.6692   34.5626 C   0  0  0  0  0  0  0  0  0  0  0  0
   38.8926   19.2564   34.0863 C   0  0  0  0  0  0  0  0  0  0  0  0
   39.8707   19.9867   35.0148 C   0  0  0  0  0  0  0  0  0  0  0  0
   37.3106   18.6436   36.9395 C   0  0  0  0  0  0  0  0  0  0  0  0
   37.8466   17.5264   36.8082 O   0  0  0  0  0  0  0  0  0  0  0  0
   36.3988   19.0468   37.8591 N   0  0  0  0  0  0  0  0  0  0  0  0
   36.0598   19.9688   37.7937 H   0  0  0  0  0  0  0  0  0  0  0  0
   35.9193   18.2662   38.8662 C   0  0  0  0  0  0  0  0  0  0  0  0
   35.0722   17.1623   38.6304 C   0  0  0  0  0  0  0  0  0  0  0  0
   34.7041   16.3121   39.6829 C   0  0  0  0  0  0  0  0  0  0  0  0
   35.1770   16.5492   40.9881 C   0  0  0  0  0  0  0  0  0  0  0  0
   36.0113   17.6480   41.2228 C   0  0  0  0  0  0  0  0  0  0  0  0
   36.3719   18.4998   40.1727 C   0  0  0  0  0  0  0  0  0  0  0  0
   34.8247   15.6048   42.1486 C   0  0  0  0  0  0  0  0  0  0  0  0
   35.7405   14.3618   42.2057 C   0  0  0  0  0  0  0  0  0  0  0  0
   33.4060   15.1955   41.9354 C   0  0  0  0  0  0  0  0  0  0  0  0
   41.0464   21.1174   37.6010 C   0  0  0  0  0  0  0  0  0  0  0  0
   41.6986   18.9122   38.5616 C   0  0  0  0  0  0  0  0  0  0  0  0
   41.2132   19.1920   39.6647 O   0  0  0  0  0  0  0  0  0  0  0  0
   41.7387   19.8433   37.5871 N   0  0  0  0  0  0  0  0  0  0  0  0
   42.2871   19.6398   36.7952 H   0  0  0  0  0  0  0  0  0  0  0  0
   42.3191   17.4904   38.2640 C   0  0  0  0  0  0  0  0  0  0  0  0
   42.7928   16.9250   39.3700 F   0  0  0  0  0  0  0  0  0  0  0  0
   41.4723   16.5738   37.7737 F   0  0  0  0  0  0  0  0  0  0  0  0
   43.3434   17.5113   37.4169 F   0  0  0  0  0  0  0  0  0  0  0  0
   41.7788   21.9689   36.5427 C   0  0  0  0  0  0  0  0  0  0  0  0
   43.0805   21.4430   35.9634 C   0  0  0  0  0  0  0  0  0  0  0  0
   43.8766   22.5071   35.2014 C   0  0  0  0  0  0  0  0  0  0  0  0
   45.3537   22.0950   35.2632 C   0  0  0  0  0  0  0  0  0  0  0  0
   46.1748   22.8844   34.3716 N   0  0  0  0  0  0  0  0  0  0  0  0
   45.8631   22.7459   33.4104 H   0  0  0  0  0  0  0  0  0  0  0  0
   47.1484   22.5929   34.4587 H   0  0  0  0  0  0  0  0  0  0  0  0
   46.0920   23.8709   34.6172 H   0  0  0  0  0  0  0  0  0  0  0  0
 22 26  1  0  0  0
 22 23  2  0  0  0
 26 27  1  0  0  0
 26 28  1  0  0  0
 26 29  1  0  0  0
 24 21  1  0  0  0
 21  1  1  0  0  0
 21 30  1  0  0  0
  1  2  2  0  0  0
 30 31  1  0  0  0
 31 32  1  0  0  0
 32 33  1  0  0  0
 33 34  1  0  0  0
  3  4  1  0  0  0
  3  7  1  0  0  0
  4  8  1  0  0  0
  4  5  1  0  0  0
  8  9  2  0  0  0
  5  6  1  0  0  0
  6  7  1  0  0  0
 12 10  1  0  0  0
 12 13  2  0  0  0
 12 17  1  0  0  0
 13 14  1  0  0  0
 14 15  2  0  0  0
 15 16  1  0  0  0
 15 18  1  0  0  0
 16 17  2  0  0  0
 18 19  1  0  0  0
 18 20  1  0  0  0
 22 24  1  0  0  0
  1  3  1  0  0  0
  8 10  1  0  0  0
 24 25  1  0  0  0
 34 35  1  0  0  0
 34 36  1  0  0  0
 34 37  1  0  0  0
 10 11  1  0  0  0
M  CHG 1  34   1
M  END
> <minimizedAffinity>
-6.56292

$$$$
1ELA_0Z1_A_256


 37 38  0  0  0  0  0  0  0  0999 V2000
   40.1200   19.3560   35.8228 C   0  0  0  0  0  0  0  0  0  0  0  0
   39.1053   20.0340   35.7699 O   0  0  0  0  0  0  0  0  0  0  0  0
   40.0583   18.1132   35.3166 N   0  0  0  0  0  0  0  0  0  0  0  0
   38.7843   17.4445   34.9944 C   0  0  0  0  0  0  0  0  0  0  0  0
   39.2113   16.3302   34.0424 C   0  0  0  0  0  0  0  0  0  0  0  0
   40.6324   15.9917   34.4554 C   0  0  0  0  0  0  0  0  0  0  0  0
   41.2300   17.3138   34.9527 C   0  0  0  0  0  0  0  0  0  0  0  0
   38.0289   16.9850   36.2594 C   0  0  0  0  0  0  0  0  0  0  0  0
   38.0694   15.8210   36.7027 O   0  0  0  0  0  0  0  0  0  0  0  0
   37.4087   18.0727   36.7807 N   0  0  0  0  0  0  0  0  0  0  0  0
   37.4596   18.9152   36.2739 H   0  0  0  0  0  0  0  0  0  0  0  0
   36.7206   18.0813   37.9555 C   0  0  0  0  0  0  0  0  0  0  0  0
   35.3496   17.7558   38.0319 C   0  0  0  0  0  0  0  0  0  0  0  0
   34.7118   17.6554   39.2767 C   0  0  0  0  0  0  0  0  0  0  0  0
   35.4331   17.8771   40.4659 C   0  0  0  0  0  0  0  0  0  0  0  0
   36.7910   18.2067   40.3893 C   0  0  0  0  0  0  0  0  0  0  0  0
   37.4243   18.3135   39.1460 C   0  0  0  0  0  0  0  0  0  0  0  0
   34.7670   17.7274   41.8431 C   0  0  0  0  0  0  0  0  0  0  0  0
   35.6761   17.0188   42.8720 C   0  0  0  0  0  0  0  0  0  0  0  0
   33.5217   16.9370   41.6188 C   0  0  0  0  0  0  0  0  0  0  0  0
   41.4004   20.0064   36.3914 C   0  0  0  0  0  0  0  0  0  0  0  0
   41.5026   22.4199   37.0041 C   0  0  0  0  0  0  0  0  0  0  0  0
   42.4619   22.6231   36.2497 O   0  0  0  0  0  0  0  0  0  0  0  0
   41.0403   21.1661   37.1841 N   0  0  0  0  0  0  0  0  0  0  0  0
   40.4010   21.0254   37.9194 H   0  0  0  0  0  0  0  0  0  0  0  0
   40.8152   23.5933   37.8077 C   0  0  0  0  0  0  0  0  0  0  0  0
   41.4562   23.8452   38.9448 F   0  0  0  0  0  0  0  0  0  0  0  0
   40.7802   24.7829   37.1902 F   0  0  0  0  0  0  0  0  0  0  0  0
   39.5586   23.3450   38.1633 F   0  0  0  0  0  0  0  0  0  0  0  0
   42.1909   19.1033   37.3615 C   0  0  0  0  0  0  0  0  0  0  0  0
   41.6593   18.9137   38.7715 C   0  0  0  0  0  0  0  0  0  0  0  0
   41.8241   17.4825   39.2922 C   0  0  0  0  0  0  0  0  0  0  0  0
   40.5731   16.7015   38.8672 C   0  0  0  0  0  0  0  0  0  0  0  0
   40.9058   15.5147   38.1100 N   0  0  0  0  0  0  0  0  0  0  0  0
   41.3983   15.7821   37.2578 H   0  0  0  0  0  0  0  0  0  0  0  0
   40.0500   15.0162   37.8660 H   0  0  0  0  0  0  0  0  0  0  0  0
   41.5035   14.9091   38.6724 H   0  0  0  0  0  0  0  0  0  0  0  0
 22 26  1  0  0  0
 22 23  2  0  0  0
 26 27  1  0  0  0
 26 28  1  0  0  0
 26 29  1  0  0  0
 24 21  1  0  0  0
 21  1  1  0  0  0
 21 30  1  0  0  0
  1  2  2  0  0  0
 30 31  1  0  0  0
 31 32  1  0  0  0
 32 33  1  0  0  0
 33 34  1  0  0  0
  3  4  1  0  0  0
  3  7  1  0  0  0
  4  8  1  0  0  0
  4  5  1  0  0  0
  8  9  2  0  0  0
  5  6  1  0  0  0
  6  7  1  0  0  0
 12 10  1  0  0  0
 12 13  2  0  0  0
 12 17  1  0  0  0
 13 14  1  0  0  0
 14 15  2  0  0  0
 15 16  1  0  0  0
 15 18  1  0  0  0
 16 17  2  0  0  0
 18 19  1  0  0  0
 18 20  1  0  0  0
 22 24  1  0  0  0
  1  3  1  0  0  0
  8 10  1  0  0  0
 24 25  1  0  0  0
 34 35  1  0  0  0
 34 36  1  0  0  0
 34 37  1  0  0  0
 10 11  1  0  0  0
M  CHG 1  34   1
M  END
> <minimizedAffinity>
-6.47857

$$$$
1ELA_0Z1_A_256


 37 38  0  0  0  0  0  0  0  0999 V2000
   38.3984   19.9839   37.5370 C   0  0  0  0  0  0  0  0  0  0  0  0
   38.2361   21.0893   38.0307 O   0  0  0  0  0  0  0  0  0  0  0  0
   39.6347   19.4611   37.5883 N   0  0  0  0  0  0  0  0  0  0  0  0
   40.8270   20.2617   37.9225 C   0  0  0  0  0  0  0  0  0  0  0  0
   41.8514   19.2032   38.3233 C   0  0  0  0  0  0  0  0  0  0  0  0
   41.4624   17.9684   37.5304 C   0  0  0  0  0  0  0  0  0  0  0  0
   39.9358   18.0403   37.4016 C   0  0  0  0  0  0  0  0  0  0  0  0
   41.2500   21.1916   36.7656 C   0  0  0  0  0  0  0  0  0  0  0  0
   40.7056   22.2866   36.5261 O   0  0  0  0  0  0  0  0  0  0  0  0
   42.3163   20.6196   36.1528 N   0  0  0  0  0  0  0  0  0  0  0  0
   42.5952   19.7264   36.4589 H   0  0  0  0  0  0  0  0  0  0  0  0
   43.0280   21.1938   35.1442 C   0  0  0  0  0  0  0  0  0  0  0  0
   44.0119   22.1783   35.3775 C   0  0  0  0  0  0  0  0  0  0  0  0
   44.8072   22.6511   34.3237 C   0  0  0  0  0  0  0  0  0  0  0  0
   44.6342   22.1475   33.0200 C   0  0  0  0  0  0  0  0  0  0  0  0
   43.6538   21.1762   32.7878 C   0  0  0  0  0  0  0  0  0  0  0  0
   42.8559   20.7107   33.8391 C   0  0  0  0  0  0  0  0  0  0  0  0
   45.5250   22.6165   31.8584 C   0  0  0  0  0  0  0  0  0  0  0  0
   45.3447   24.1167   31.5360 C   0  0  0  0  0  0  0  0  0  0  0  0
   45.1457   21.7828   30.6808 C   0  0  0  0  0  0  0  0  0  0  0  0
   37.1621   19.2522   36.9695 C   0  0  0  0  0  0  0  0  0  0  0  0
   36.1255   18.0348   38.8811 C   0  0  0  0  0  0  0  0  0  0  0  0
   36.8119   17.0260   38.6768 O   0  0  0  0  0  0  0  0  0  0  0  0
   36.1822   19.0737   38.0235 N   0  0  0  0  0  0  0  0  0  0  0  0
   35.4970   19.7738   38.1216 H   0  0  0  0  0  0  0  0  0  0  0  0
   35.1391   18.1329   40.1110 C   0  0  0  0  0  0  0  0  0  0  0  0
   34.2758   17.1219   40.1241 F   0  0  0  0  0  0  0  0  0  0  0  0
   35.7092   18.0823   41.3234 F   0  0  0  0  0  0  0  0  0  0  0  0
   34.3901   19.2311   40.1204 F   0  0  0  0  0  0  0  0  0  0  0  0
   36.4128   20.0357   35.8712 C   0  0  0  0  0  0  0  0  0  0  0  0
   36.9535   19.9923   34.4526 C   0  0  0  0  0  0  0  0  0  0  0  0
   35.8641   20.1391   33.3858 C   0  0  0  0  0  0  0  0  0  0  0  0
   35.9455   21.5764   32.8535 C   0  0  0  0  0  0  0  0  0  0  0  0
   35.0280   22.4610   33.5375 N   0  0  0  0  0  0  0  0  0  0  0  0
   34.0716   22.1386   33.3904 H   0  0  0  0  0  0  0  0  0  0  0  0
   35.1287   23.4066   33.1686 H   0  0  0  0  0  0  0  0  0  0  0  0
   35.2369   22.4615   34.5359 H   0  0  0  0  0  0  0  0  0  0  0  0
 22 26  1  0  0  0
 22 23  2  0  0  0
 26 27  1  0  0  0
 26 28  1  0  0  0
 26 29  1  0  0  0
 24 21  1  0  0  0
 21  1  1  0  0  0
 21 30  1  0  0  0
  1  2  2  0  0  0
 30 31  1  0  0  0
 31 32  1  0  0  0
 32 33  1  0  0  0
 33 34  1  0  0  0
  3  4  1  0  0  0
  3  7  1  0  0  0
  4  8  1  0  0  0
  4  5  1  0  0  0
  8  9  2  0  0  0
  5  6  1  0  0  0
  6  7  1  0  0  0
 12 10  1  0  0  0
 12 13  2  0  0  0
 12 17  1  0  0  0
 13 14  1  0  0  0
 14 15  2  0  0  0
 15 16  1  0  0  0
 15 18  1  0  0  0
 16 17  2  0  0  0
 18 19  1  0  0  0
 18 20  1  0  0  0
 22 24  1  0  0  0
  1  3  1  0  0  0
  8 10  1  0  0  0
 24 25  1  0  0  0
 34 35  1  0  0  0
 34 36  1  0  0  0
 34 37  1  0  0  0
 10 11  1  0  0  0
M  CHG 1  34   1
M  END
> <minimizedAffinity>
-6.36968

$$$$
1ELA_0Z1_A_256


 37 38  0  0  0  0  0  0  0  0999 V2000
   41.2627   17.8627   35.1750 C   0  0  0  0  0  0  0  0  0  0  0  0
   40.2186   17.2936   34.8956 O   0  0  0  0  0  0  0  0  0  0  0  0
   42.1350   17.2031   35.9550 N   0  0  0  0  0  0  0  0  0  0  0  0
   41.7697   15.9946   36.7167 C   0  0  0  0  0  0  0  0  0  0  0  0
   43.1233   15.3600   37.0258 C   0  0  0  0  0  0  0  0  0  0  0  0
   44.0927   16.5268   37.0873 C   0  0  0  0  0  0  0  0  0  0  0  0
   43.5524   17.5491   36.0798 C   0  0  0  0  0  0  0  0  0  0  0  0
   40.8923   16.3199   37.9440 C   0  0  0  0  0  0  0  0  0  0  0  0
   41.3506   16.5318   39.0832 O   0  0  0  0  0  0  0  0  0  0  0  0
   39.6059   16.3843   37.5190 N   0  0  0  0  0  0  0  0  0  0  0  0
   39.4222   16.1541   36.5796 H   0  0  0  0  0  0  0  0  0  0  0  0
   38.5508   16.7450   38.3002 C   0  0  0  0  0  0  0  0  0  0  0  0
   37.7382   15.7978   38.9589 C   0  0  0  0  0  0  0  0  0  0  0  0
   36.7415   16.2161   39.8522 C   0  0  0  0  0  0  0  0  0  0  0  0
   36.5408   17.5872   40.1036 C   0  0  0  0  0  0  0  0  0  0  0  0
   37.3423   18.5265   39.4448 C   0  0  0  0  0  0  0  0  0  0  0  0
   38.3317   18.1077   38.5481 C   0  0  0  0  0  0  0  0  0  0  0  0
   35.4860   18.0676   41.1132 C   0  0  0  0  0  0  0  0  0  0  0  0
   35.4854   17.2375   42.4163 C   0  0  0  0  0  0  0  0  0  0  0  0
   34.1681   17.9530   40.4236 C   0  0  0  0  0  0  0  0  0  0  0  0
   41.5247   19.2503   34.5490 C   0  0  0  0  0  0  0  0  0  0  0  0
   40.3564   20.9017   36.0046 C   0  0  0  0  0  0  0  0  0  0  0  0
   39.3054   20.8033   35.3595 O   0  0  0  0  0  0  0  0  0  0  0  0
   41.4677   20.2642   35.5842 N   0  0  0  0  0  0  0  0  0  0  0  0
   42.3164   20.5090   36.0189 H   0  0  0  0  0  0  0  0  0  0  0  0
   40.4528   21.7956   37.3034 C   0  0  0  0  0  0  0  0  0  0  0  0
   39.4256   21.5805   38.1195 F   0  0  0  0  0  0  0  0  0  0  0  0
   41.5264   21.5865   38.0788 F   0  0  0  0  0  0  0  0  0  0  0  0
   40.4409   23.1033   37.0650 F   0  0  0  0  0  0  0  0  0  0  0  0
   42.9282   19.4085   33.9273 C   0  0  0  0  0  0  0  0  0  0  0  0
   43.5831   20.7786   33.9550 C   0  0  0  0  0  0  0  0  0  0  0  0
   45.1112   20.7164   34.0416 C   0  0  0  0  0  0  0  0  0  0  0  0
   45.5186   21.4309   35.3374 C   0  0  0  0  0  0  0  0  0  0  0  0
   44.3847   22.0313   36.0053 N   0  0  0  0  0  0  0  0  0  0  0  0
   43.9621   22.7310   35.3952 H   0  0  0  0  0  0  0  0  0  0  0  0
   44.6954   22.4763   36.8689 H   0  0  0  0  0  0  0  0  0  0  0  0
   43.6972   21.3100   36.2228 H   0  0  0  0  0  0  0  0  0  0  0  0
 22 26  1  0  0  0
 22 23  2  0  0  0
 26 27  1  0  0  0
 26 28  1  0  0  0
 26 29  1  0  0  0
 24 21  1  0  0  0
 21  1  1  0  0  0
 21 30  1  0  0  0
  1  2  2  0  0  0
 30 31  1  0  0  0
 31 32  1  0  0  0
 32 33  1  0  0  0
 33 34  1  0  0  0
  3  4  1  0  0  0
  3  7  1  0  0  0
  4  8  1  0  0  0
  4  5  1  0  0  0
  8  9  2  0  0  0
  5  6  1  0  0  0
  6  7  1  0  0  0
 12 10  1  0  0  0
 12 13  2  0  0  0
 12 17  1  0  0  0
 13 14  1  0  0  0
 14 15  2  0  0  0
 15 16  1  0  0  0
 15 18  1  0  0  0
 16 17  2  0  0  0
 18 19  1  0  0  0
 18 20  1  0  0  0
 22 24  1  0  0  0
  1  3  1  0  0  0
  8 10  1  0  0  0
 24 25  1  0  0  0
 34 35  1  0  0  0
 34 36  1  0  0  0
 34 37  1  0  0  0
 10 11  1  0  0  0
M  CHG 1  34   1
M  END
> <minimizedAffinity>
-6.14743

$$$$
1ELA_0Z1_A_256


 37 38  0  0  0  0  0  0  0  0999 V2000
   41.1050   18.5986   36.1067 C   0  0  0  0  0  0  0  0  0  0  0  0
   39.9984   18.3613   35.6471 O   0  0  0  0  0  0  0  0  0  0  0  0
   41.8352   17.5525   36.5275 N   0  0  0  0  0  0  0  0  0  0  0  0
   41.2604   16.2114   36.7403 C   0  0  0  0  0  0  0  0  0  0  0  0
   42.4884   15.3046   36.7288 C   0  0  0  0  0  0  0  0  0  0  0  0
   43.6208   16.1801   37.2349 C   0  0  0  0  0  0  0  0  0  0  0  0
   43.2827   17.5938   36.7454 C   0  0  0  0  0  0  0  0  0  0  0  0
   40.3947   16.1420   38.0161 C   0  0  0  0  0  0  0  0  0  0  0  0
   40.8353   15.8030   39.1314 O   0  0  0  0  0  0  0  0  0  0  0  0
   39.1497   16.5673   37.6867 N   0  0  0  0  0  0  0  0  0  0  0  0
   38.9700   16.7673   36.7396 H   0  0  0  0  0  0  0  0  0  0  0  0
   38.1308   16.7371   38.5736 C   0  0  0  0  0  0  0  0  0  0  0  0
   37.4183   15.6508   39.1248 C   0  0  0  0  0  0  0  0  0  0  0  0
   36.4620   15.8644   40.1279 C   0  0  0  0  0  0  0  0  0  0  0  0
   36.2025   17.1663   40.5982 C   0  0  0  0  0  0  0  0  0  0  0  0
   36.9043   18.2440   40.0464 C   0  0  0  0  0  0  0  0  0  0  0  0
   37.8531   18.0300   39.0403 C   0  0  0  0  0  0  0  0  0  0  0  0
   35.1926   17.4200   41.7289 C   0  0  0  0  0  0  0  0  0  0  0  0
   35.0197   16.1991   42.6598 C   0  0  0  0  0  0  0  0  0  0  0  0
   33.8994   17.7537   41.0641 C   0  0  0  0  0  0  0  0  0  0  0  0
   41.5996   20.0618   36.0934 C   0  0  0  0  0  0  0  0  0  0  0  0
   43.6027   21.0145   34.9572 C   0  0  0  0  0  0  0  0  0  0  0  0
   43.8363   21.7805   35.9003 O   0  0  0  0  0  0  0  0  0  0  0  0
   42.4848   20.2607   34.9621 N   0  0  0  0  0  0  0  0  0  0  0  0
   42.2482   19.8045   34.1223 H   0  0  0  0  0  0  0  0  0  0  0  0
   44.5653   20.9173   33.7086 C   0  0  0  0  0  0  0  0  0  0  0  0
   44.1600   19.9837   32.8532 F   0  0  0  0  0  0  0  0  0  0  0  0
   44.6589   22.0223   32.9550 F   0  0  0  0  0  0  0  0  0  0  0  0
   45.8179   20.5919   34.0122 F   0  0  0  0  0  0  0  0  0  0  0  0
   40.4800   21.1058   35.8986 C   0  0  0  0  0  0  0  0  0  0  0  0
   39.8335   21.7140   37.1311 C   0  0  0  0  0  0  0  0  0  0  0  0
   40.8495   22.2527   38.1430 C   0  0  0  0  0  0  0  0  0  0  0  0
   40.6412   23.7710   38.2260 C   0  0  0  0  0  0  0  0  0  0  0  0
   41.5189   24.3868   39.1969 N   0  0  0  0  0  0  0  0  0  0  0  0
   41.3237   24.0046   40.1222 H   0  0  0  0  0  0  0  0  0  0  0  0
   41.3627   25.3947   39.2054 H   0  0  0  0  0  0  0  0  0  0  0  0
   42.4893   24.1952   38.9477 H   0  0  0  0  0  0  0  0  0  0  0  0
 22 26  1  0  0  0
 22 23  2  0  0  0
 26 27  1  0  0  0
 26 28  1  0  0  0
 26 29  1  0  0  0
 24 21  1  0  0  0
 21  1  1  0  0  0
 21 30  1  0  0  0
  1  2  2  0  0  0
 30 31  1  0  0  0
 31 32  1  0  0  0
 32 33  1  0  0  0
 33 34  1  0  0  0
  3  4  1  0  0  0
  3  7  1  0  0  0
  4  8  1  0  0  0
  4  5  1  0  0  0
  8  9  2  0  0  0
  5  6  1  0  0  0
  6  7  1  0  0  0
 12 10  1  0  0  0
 12 13  2  0  0  0
 12 17  1  0  0  0
 13 14  1  0  0  0
 14 15  2  0  0  0
 15 16  1  0  0  0
 15 18  1  0  0  0
 16 17  2  0  0  0
 18 19  1  0  0  0
 18 20  1  0  0  0
 22 24  1  0  0  0
  1  3  1  0  0  0
  8 10  1  0  0  0
 24 25  1  0  0  0
 34 35  1  0  0  0
 34 36  1  0  0  0
 34 37  1  0  0  0
 10 11  1  0  0  0
M  CHG 1  34   1
M  END
> <minimizedAffinity>
-6.12658

$$$$
1ELA_0Z1_A_256


 37 38  0  0  0  0  0  0  0  0999 V2000
   39.7998   19.5884   36.5192 C   0  0  0  0  0  0  0  0  0  0  0  0
   39.8457   19.9560   37.6832 O   0  0  0  0  0  0  0  0  0  0  0  0
   38.6569   19.8074   35.8481 N   0  0  0  0  0  0  0  0  0  0  0  0
   37.3957   20.1753   36.5174 C   0  0  0  0  0  0  0  0  0  0  0  0
   36.5654   20.7718   35.3838 C   0  0  0  0  0  0  0  0  0  0  0  0
   37.0572   20.0676   34.1319 C   0  0  0  0  0  0  0  0  0  0  0  0
   38.5431   19.7875   34.3883 C   0  0  0  0  0  0  0  0  0  0  0  0
   36.7542   18.9802   37.2536 C   0  0  0  0  0  0  0  0  0  0  0  0
   36.2276   18.0127   36.6708 O   0  0  0  0  0  0  0  0  0  0  0  0
   36.9390   19.1744   38.5832 N   0  0  0  0  0  0  0  0  0  0  0  0
   37.3522   20.0211   38.8689 H   0  0  0  0  0  0  0  0  0  0  0  0
   36.5933   18.2808   39.5504 C   0  0  0  0  0  0  0  0  0  0  0  0
   35.6881   18.5983   40.5855 C   0  0  0  0  0  0  0  0  0  0  0  0
   35.2646   17.6107   41.4863 C   0  0  0  0  0  0  0  0  0  0  0  0
   35.7370   16.2892   41.3675 C   0  0  0  0  0  0  0  0  0  0  0  0
   36.6400   15.9764   40.3452 C   0  0  0  0  0  0  0  0  0  0  0  0
   37.0673   16.9647   39.4515 C   0  0  0  0  0  0  0  0  0  0  0  0
   35.2514   15.1799   42.3143 C   0  0  0  0  0  0  0  0  0  0  0  0
   36.1379   13.9158   42.2569 C   0  0  0  0  0  0  0  0  0  0  0  0
   33.8569   14.8561   41.8946 C   0  0  0  0  0  0  0  0  0  0  0  0
   41.0758   18.9784   35.8983 C   0  0  0  0  0  0  0  0  0  0  0  0
   42.5466   20.6856   34.8337 C   0  0  0  0  0  0  0  0  0  0  0  0
   42.1704   20.3746   33.6968 O   0  0  0  0  0  0  0  0  0  0  0  0
   42.1336   19.9704   35.8995 N   0  0  0  0  0  0  0  0  0  0  0  0
   42.5911   20.1365   36.7552 H   0  0  0  0  0  0  0  0  0  0  0  0
   43.5422   21.8872   35.0792 C   0  0  0  0  0  0  0  0  0  0  0  0
   44.6220   21.4954   35.7485 F   0  0  0  0  0  0  0  0  0  0  0  0
   44.0413   22.4672   33.9783 F   0  0  0  0  0  0  0  0  0  0  0  0
   43.0280   22.8806   35.7974 F   0  0  0  0  0  0  0  0  0  0  0  0
   41.6580   17.7889   36.6905 C   0  0  0  0  0  0  0  0  0  0  0  0
   43.1530   17.7571   36.9561 C   0  0  0  0  0  0  0  0  0  0  0  0
   43.6592   16.3804   37.3976 C   0  0  0  0  0  0  0  0  0  0  0  0
   44.9316   16.0880   36.5907 C   0  0  0  0  0  0  0  0  0  0  0  0
   45.8458   15.2296   37.3115 N   0  0  0  0  0  0  0  0  0  0  0  0
   46.1352   15.6896   38.1746 H   0  0  0  0  0  0  0  0  0  0  0  0
   46.6656   15.0444   36.7335 H   0  0  0  0  0  0  0  0  0  0  0  0
   45.3813   14.3493   37.5346 H   0  0  0  0  0  0  0  0  0  0  0  0
 22 26  1  0  0  0
 22 23  2  0  0  0
 26 27  1  0  0  0
 26 28  1  0  0  0
 26 29  1  0  0  0
 24 21  1  0  0  0
 21  1  1  0  0  0
 21 30  1  0  0  0
  1  2  2  0  0  0
 30 31  1  0  0  0
 31 32  1  0  0  0
 32 33  1  0  0  0
 33 34  1  0  0  0
  3  4  1  0  0  0
  3  7  1  0  0  0
  4  8  1  0  0  0
  4  5  1  0  0  0
  8  9  2  0  0  0
  5  6  1  0  0  0
  6  7  1  0  0  0
 12 10  1  0  0  0
 12 13  2  0  0  0
 12 17  1  0  0  0
 13 14  1  0  0  0
 14 15  2  0  0  0
 15 16  1  0  0  0
 15 18  1  0  0  0
 16 17  2  0  0  0
 18 19  1  0  0  0
 18 20  1  0  0  0
 22 24  1  0  0  0
  1  3  1  0  0  0
  8 10  1  0  0  0
 24 25  1  0  0  0
 34 35  1  0  0  0
 34 36  1  0  0  0
 34 37  1  0  0  0
 10 11  1  0  0  0
M  CHG 1  34   1
M  END
> <minimizedAffinity>
-6.09998

$$$$
1ELA_0Z1_A_256


 37 38  0  0  0  0  0  0  0  0999 V2000
   40.5151   18.6949   36.4037 C   0  0  0  0  0  0  0  0  0  0  0  0
   40.3727   17.7759   35.6118 O   0  0  0  0  0  0  0  0  0  0  0  0
   40.9016   18.3798   37.6510 N   0  0  0  0  0  0  0  0  0  0  0  0
   40.8615   17.0023   38.1755 C   0  0  0  0  0  0  0  0  0  0  0  0
   41.8056   17.0623   39.3736 C   0  0  0  0  0  0  0  0  0  0  0  0
   41.7206   18.4974   39.8618 C   0  0  0  0  0  0  0  0  0  0  0  0
   41.4764   19.3351   38.6005 C   0  0  0  0  0  0  0  0  0  0  0  0
   39.4232   16.5362   38.4852 C   0  0  0  0  0  0  0  0  0  0  0  0
   39.1284   15.3651   38.7926 O   0  0  0  0  0  0  0  0  0  0  0  0
   38.6187   17.6261   38.4174 N   0  0  0  0  0  0  0  0  0  0  0  0
   39.0222   18.4753   38.1255 H   0  0  0  0  0  0  0  0  0  0  0  0
   37.2924   17.6283   38.7248 C   0  0  0  0  0  0  0  0  0  0  0  0
   36.3104   17.1290   37.8428 C   0  0  0  0  0  0  0  0  0  0  0  0
   34.9718   17.0353   38.2499 C   0  0  0  0  0  0  0  0  0  0  0  0
   34.5920   17.4373   39.5451 C   0  0  0  0  0  0  0  0  0  0  0  0
   35.5650   17.9389   40.4171 C   0  0  0  0  0  0  0  0  0  0  0  0
   36.8992   18.0386   40.0067 C   0  0  0  0  0  0  0  0  0  0  0  0
   33.1396   17.3007   40.0296 C   0  0  0  0  0  0  0  0  0  0  0  0
   32.2663   18.5168   39.6480 C   0  0  0  0  0  0  0  0  0  0  0  0
   33.2081   17.1551   41.5127 C   0  0  0  0  0  0  0  0  0  0  0  0
   40.3167   20.1371   35.8874 C   0  0  0  0  0  0  0  0  0  0  0  0
   42.3765   21.5360   35.7806 C   0  0  0  0  0  0  0  0  0  0  0  0
   42.0162   22.2299   36.7394 O   0  0  0  0  0  0  0  0  0  0  0  0
   41.5457   20.6025   35.2742 N   0  0  0  0  0  0  0  0  0  0  0  0
   41.7959   20.2008   34.4109 H   0  0  0  0  0  0  0  0  0  0  0  0
   43.7842   21.7370   35.0928 C   0  0  0  0  0  0  0  0  0  0  0  0
   44.1953   22.9979   35.1851 F   0  0  0  0  0  0  0  0  0  0  0  0
   44.7969   21.0314   35.6163 F   0  0  0  0  0  0  0  0  0  0  0  0
   43.7981   21.4600   33.7927 F   0  0  0  0  0  0  0  0  0  0  0  0
   39.2539   20.2702   34.7765 C   0  0  0  0  0  0  0  0  0  0  0  0
   37.7949   20.0549   35.1395 C   0  0  0  0  0  0  0  0  0  0  0  0
   37.0344   19.2115   34.1115 C   0  0  0  0  0  0  0  0  0  0  0  0
   35.9373   20.1057   33.5180 C   0  0  0  0  0  0  0  0  0  0  0  0
   35.8789   21.3965   34.1680 N   0  0  0  0  0  0  0  0  0  0  0  0
   35.6626   21.2698   35.1567 H   0  0  0  0  0  0  0  0  0  0  0  0
   35.1530   21.9646   33.7312 H   0  0  0  0  0  0  0  0  0  0  0  0
   36.7798   21.8654   34.0744 H   0  0  0  0  0  0  0  0  0  0  0  0
 22 26  1  0  0  0
 22 23  2  0  0  0
 26 27  1  0  0  0
 26 28  1  0  0  0
 26 29  1  0  0  0
 24 21  1  0  0  0
 21  1  1  0  0  0
 21 30  1  0  0  0
  1  2  2  0  0  0
 30 31  1  0  0  0
 31 32  1  0  0  0
 32 33  1  0  0  0
 33 34  1  0  0  0
  3  4  1  0  0  0
  3  7  1  0  0  0
  4  8  1  0  0  0
  4  5  1  0  0  0
  8  9  2  0  0  0
  5  6  1  0  0  0
  6  7  1  0  0  0
 12 10  1  0  0  0
 12 13  2  0  0  0
 12 17  1  0  0  0
 13 14  1  0  0  0
 14 15  2  0  0  0
 15 16  1  0  0  0
 15 18  1  0  0  0
 16 17  2  0  0  0
 18 19  1  0  0  0
 18 20  1  0  0  0
 22 24  1  0  0  0
  1  3  1  0  0  0
  8 10  1  0  0  0
 24 25  1  0  0  0
 34 35  1  0  0  0
 34 36  1  0  0  0
 34 37  1  0  0  0
 10 11  1  0  0  0
M  CHG 1  34   1
M  END
> <minimizedAffinity>
-6.09457

$$$$
1ELA_0Z1_A_256


 37 38  0  0  0  0  0  0  0  0999 V2000
   37.1560   15.8108   38.7777 C   0  0  0  0  0  0  0  0  0  0  0  0
   37.8430   16.6820   39.2887 O   0  0  0  0  0  0  0  0  0  0  0  0
   37.4039   14.5403   39.1365 N   0  0  0  0  0  0  0  0  0  0  0  0
   38.6269   14.1374   39.8548 C   0  0  0  0  0  0  0  0  0  0  0  0
   38.2483   12.7821   40.4466 C   0  0  0  0  0  0  0  0  0  0  0  0
   37.2221   12.2125   39.4836 C   0  0  0  0  0  0  0  0  0  0  0  0
   36.4698   13.4308   38.9340 C   0  0  0  0  0  0  0  0  0  0  0  0
   39.8698   14.1394   38.9399 C   0  0  0  0  0  0  0  0  0  0  0  0
   40.0515   13.3176   38.0209 O   0  0  0  0  0  0  0  0  0  0  0  0
   40.6338   15.2028   39.2935 N   0  0  0  0  0  0  0  0  0  0  0  0
   40.3487   15.7320   40.0732 H   0  0  0  0  0  0  0  0  0  0  0  0
   41.7672   15.5898   38.6461 C   0  0  0  0  0  0  0  0  0  0  0  0
   43.0194   14.9843   38.8848 C   0  0  0  0  0  0  0  0  0  0  0  0
   44.1343   15.3279   38.1067 C   0  0  0  0  0  0  0  0  0  0  0  0
   44.0167   16.2808   37.0764 C   0  0  0  0  0  0  0  0  0  0  0  0
   42.7764   16.8861   36.8446 C   0  0  0  0  0  0  0  0  0  0  0  0
   41.6665   16.5475   37.6267 C   0  0  0  0  0  0  0  0  0  0  0  0
   45.2132   16.6394   36.1805 C   0  0  0  0  0  0  0  0  0  0  0  0
   44.7870   17.3104   34.8557 C   0  0  0  0  0  0  0  0  0  0  0  0
   45.9270   15.3581   35.9078 C   0  0  0  0  0  0  0  0  0  0  0  0
   36.0172   16.2456   37.8291 C   0  0  0  0  0  0  0  0  0  0  0  0
   33.8992   17.0741   38.8484 C   0  0  0  0  0  0  0  0  0  0  0  0
   33.2572   16.1045   38.4261 O   0  0  0  0  0  0  0  0  0  0  0  0
   35.1896   17.2349   38.4918 N   0  0  0  0  0  0  0  0  0  0  0  0
   35.6074   18.1017   38.7002 H   0  0  0  0  0  0  0  0  0  0  0  0
   33.2366   18.1693   39.7739 C   0  0  0  0  0  0  0  0  0  0  0  0
   33.1053   17.7355   41.0237 F   0  0  0  0  0  0  0  0  0  0  0  0
   33.9190   19.3160   39.9036 F   0  0  0  0  0  0  0  0  0  0  0  0
   32.0129   18.5290   39.3993 F   0  0  0  0  0  0  0  0  0  0  0  0
   36.4998   16.9436   36.5402 C   0  0  0  0  0  0  0  0  0  0  0  0
   36.5351   18.4616   36.5075 C   0  0  0  0  0  0  0  0  0  0  0  0
   37.9313   19.0393   36.7594 C   0  0  0  0  0  0  0  0  0  0  0  0
   37.9122   20.4939   36.2701 C   0  0  0  0  0  0  0  0  0  0  0  0
   36.5799   21.0566   36.2934 N   0  0  0  0  0  0  0  0  0  0  0  0
   35.9739   20.5213   35.6716 H   0  0  0  0  0  0  0  0  0  0  0  0
   36.6152   22.0270   35.9813 H   0  0  0  0  0  0  0  0  0  0  0  0
   36.2112   21.0182   37.2436 H   0  0  0  0  0  0  0  0  0  0  0  0
 22 26  1  0  0  0
 22 23  2  0  0  0
 26 27  1  0  0  0
 26 28  1  0  0  0
 26 29  1  0  0  0
 24 21  1  0  0  0
 21  1  1  0  0  0
 21 30  1  0  0  0
  1  2  2  0  0  0
 30 31  1  0  0  0
 31 32  1  0  0  0
 32 33  1  0  0  0
 33 34  1  0  0  0
  3  4  1  0  0  0
  3  7  1  0  0  0
  4  8  1  0  0  0
  4  5  1  0  0  0
  8  9  2  0  0  0
  5  6  1  0  0  0
  6  7  1  0  0  0
 12 10  1  0  0  0
 12 13  2  0  0  0
 12 17  1  0  0  0
 13 14  1  0  0  0
 14 15  2  0  0  0
 15 16  1  0  0  0
 15 18  1  0  0  0
 16 17  2  0  0  0
 18 19  1  0  0  0
 18 20  1  0  0  0
 22 24  1  0  0  0
  1  3  1  0  0  0
  8 10  1  0  0  0
 24 25  1  0  0  0
 34 35  1  0  0  0
 34 36  1  0  0  0
 34 37  1  0  0  0
 10 11  1  0  0  0
M  CHG 1  34   1
M  END
> <minimizedAffinity>
-5.97024

$$$$
