5J20_6FJ_A_301


 34 37  0  0  0  0  0  0  0  0999 V2000
    0.4953   31.8833   26.2743 C   0  0  0  0  0  0  0  0  0  0  0  0
   -0.8315   32.1369   25.8489 C   0  0  0  0  0  0  0  0  0  0  0  0
    1.5883   32.3952   25.5366 C   0  0  0  0  0  0  0  0  0  0  0  0
   -1.0463   32.8167   24.6326 C   0  0  0  0  0  0  0  0  0  0  0  0
    0.0395   33.3468   23.9121 C   0  0  0  0  0  0  0  0  0  0  0  0
    1.3506   33.0811   24.3347 C   0  0  0  0  0  0  0  0  0  0  0  0
   -2.3148   33.0640   24.1839 O   0  0  0  0  0  0  0  0  0  0  0  0
    0.7594   31.2120   27.4125 O   0  0  0  0  0  0  0  0  0  0  0  0
   -2.4454   33.5167   23.3740 H   0  0  0  0  0  0  0  0  0  0  0  0
    1.6469   31.0581   27.6704 H   0  0  0  0  0  0  0  0  0  0  0  0
   -0.1763   34.1688   22.6946 C   0  0  0  0  0  0  0  0  0  0  0  0
   -0.0823   35.9155   21.3581 C   0  0  0  0  0  0  0  0  0  0  0  0
   -0.8261   33.8266   21.5947 N   0  0  0  0  0  0  0  0  0  0  0  0
    0.2948   35.4692   22.5701 N   0  0  0  0  0  0  0  0  0  0  0  0
   -0.7644   34.9290   20.7252 N   0  0  0  0  0  0  0  0  0  0  0  0
    0.1377   37.0508   20.9394 O   0  0  0  0  0  0  0  0  0  0  0  0
   -1.1475   34.9766   19.8195 H   0  0  0  0  0  0  0  0  0  0  0  0
    0.1481   36.8955   24.5585 C   0  0  0  0  0  0  0  0  0  0  0  0
    0.9271   36.2325   23.5924 C   0  0  0  0  0  0  0  0  0  0  0  0
    2.1427   37.7455   25.6471 C   0  0  0  0  0  0  0  0  0  0  0  0
    2.3244   36.3424   23.6795 C   0  0  0  0  0  0  0  0  0  0  0  0
    2.9319   37.0912   24.6970 C   0  0  0  0  0  0  0  0  0  0  0  0
    0.7636   37.6352   25.5716 C   0  0  0  0  0  0  0  0  0  0  0  0
    3.0793   35.7220   22.7504 F   0  0  0  0  0  0  0  0  0  0  0  0
    3.0205   32.1088   25.8331 C   0  0  0  0  0  0  0  0  0  0  0  0
    3.6385   30.9909   25.3406 N   0  0  0  0  0  0  0  0  0  0  0  0
    3.6652   32.9707   26.4099 O   0  0  0  0  0  0  0  0  0  0  0  0
    2.9189   29.8923   24.6980 C   0  0  0  0  0  0  0  0  0  0  0  0
    5.0886   30.7849   25.5257 C   0  0  0  0  0  0  0  0  0  0  0  0
    5.7268   30.5927   24.1669 C   0  0  0  0  0  0  0  0  0  0  0  0
    6.3527   29.4685   23.7461 C   0  0  0  0  0  0  0  0  0  0  0  0
    5.7566   31.5120   23.1743 O   0  0  0  0  0  0  0  0  0  0  0  0
    6.4049   31.0021   22.1183 C   0  0  0  0  0  0  0  0  0  0  0  0
    6.7779   29.7347   22.4194 C   0  0  0  0  0  0  0  0  0  0  0  0
 15 12  1  0  0  0
 15 13  1  0  0  0
 16 12  2  0  0  0
 12 14  1  0  0  0
 13 11  2  0  0  0
 14 11  1  0  0  0
 14 19  1  0  0  0
 11  5  1  0  0  0
 33 34  2  0  0  0
 33 32  1  0  0  0
 24 21  1  0  0  0
 34 31  1  0  0  0
 19 21  2  0  0  0
 19 18  1  0  0  0
 32 30  1  0  0  0
  5  6  2  0  0  0
  5  4  1  0  0  0
  7  4  1  0  0  0
 21 22  1  0  0  0
 31 30  2  0  0  0
  6  3  1  0  0  0
  4  2  2  0  0  0
 18 23  2  0  0  0
 30 29  1  0  0  0
 22 20  2  0  0  0
 28 26  1  0  0  0
  3 25  1  0  0  0
  3  1  2  0  0  0
  2  1  1  0  0  0
 26 29  1  0  0  0
 26 25  1  0  0  0
 23 20  1  0  0  0
 25 27  2  0  0  0
  1  8  1  0  0  0
  7  9  1  0  0  0
  8 10  1  0  0  0
 15 17  1  0  0  0
M  END
> <minimizedAffinity>
-10.62427

$$$$
5J20_6FJ_A_301


 34 37  0  0  0  0  0  0  0  0999 V2000
    0.5444   31.5327   26.1627 C   0  0  0  0  0  0  0  0  0  0  0  0
   -0.6840   32.2304   26.0629 C   0  0  0  0  0  0  0  0  0  0  0  0
    1.5132   31.6494   25.1387 C   0  0  0  0  0  0  0  0  0  0  0  0
   -0.9687   32.9584   24.8896 C   0  0  0  0  0  0  0  0  0  0  0  0
    0.0041   33.0944   23.8826 C   0  0  0  0  0  0  0  0  0  0  0  0
    1.2135   32.3908   23.9845 C   0  0  0  0  0  0  0  0  0  0  0  0
   -2.1525   33.6306   24.7533 O   0  0  0  0  0  0  0  0  0  0  0  0
    0.8562   30.7969   27.2476 O   0  0  0  0  0  0  0  0  0  0  0  0
   -2.3308   34.1111   23.9690 H   0  0  0  0  0  0  0  0  0  0  0  0
    1.6763   30.3452   27.2874 H   0  0  0  0  0  0  0  0  0  0  0  0
   -0.2344   33.9563   22.6973 C   0  0  0  0  0  0  0  0  0  0  0  0
   -0.0626   35.6983   21.3624 C   0  0  0  0  0  0  0  0  0  0  0  0
   -1.0365   33.7165   21.6735 N   0  0  0  0  0  0  0  0  0  0  0  0
    0.3821   35.1887   22.5255 N   0  0  0  0  0  0  0  0  0  0  0  0
   -0.9285   34.8160   20.8048 N   0  0  0  0  0  0  0  0  0  0  0  0
    0.2539   36.8033   20.9249 O   0  0  0  0  0  0  0  0  0  0  0  0
   -1.3972   34.9260   19.9460 H   0  0  0  0  0  0  0  0  0  0  0  0
    2.6087   35.6871   23.4220 C   0  0  0  0  0  0  0  0  0  0  0  0
    1.2121   35.8498   23.4751 C   0  0  0  0  0  0  0  0  0  0  0  0
    2.8964   37.1559   25.3314 C   0  0  0  0  0  0  0  0  0  0  0  0
    0.6799   36.6804   24.4746 C   0  0  0  0  0  0  0  0  0  0  0  0
    1.5112   37.3307   25.3971 C   0  0  0  0  0  0  0  0  0  0  0  0
    3.4289   36.3438   24.3431 C   0  0  0  0  0  0  0  0  0  0  0  0
   -0.6582   36.8318   24.5424 F   0  0  0  0  0  0  0  0  0  0  0  0
    2.7926   30.8864   25.0903 C   0  0  0  0  0  0  0  0  0  0  0  0
    3.9938   31.4970   25.3319 N   0  0  0  0  0  0  0  0  0  0  0  0
    2.7269   29.6731   24.9686 O   0  0  0  0  0  0  0  0  0  0  0  0
    4.1537   32.9473   25.4241 C   0  0  0  0  0  0  0  0  0  0  0  0
    5.2394   30.7090   25.4155 C   0  0  0  0  0  0  0  0  0  0  0  0
    6.0467   30.9463   24.1575 C   0  0  0  0  0  0  0  0  0  0  0  0
    7.3121   31.4256   24.1162 C   0  0  0  0  0  0  0  0  0  0  0  0
    5.6247   30.7061   22.8944 O   0  0  0  0  0  0  0  0  0  0  0  0
    6.5968   31.0350   22.0329 C   0  0  0  0  0  0  0  0  0  0  0  0
    7.6657   31.4696   22.7433 C   0  0  0  0  0  0  0  0  0  0  0  0
 15 12  1  0  0  0
 15 13  1  0  0  0
 16 12  2  0  0  0
 12 14  1  0  0  0
 13 11  2  0  0  0
 14 11  1  0  0  0
 14 19  1  0  0  0
 11  5  1  0  0  0
 33 34  2  0  0  0
 33 32  1  0  0  0
 24 21  1  0  0  0
 34 31  1  0  0  0
 19 21  2  0  0  0
 19 18  1  0  0  0
 32 30  1  0  0  0
  5  6  2  0  0  0
  5  4  1  0  0  0
  7  4  1  0  0  0
 21 22  1  0  0  0
 31 30  2  0  0  0
  6  3  1  0  0  0
  4  2  2  0  0  0
 18 23  2  0  0  0
 30 29  1  0  0  0
 22 20  2  0  0  0
 28 26  1  0  0  0
  3 25  1  0  0  0
  3  1  2  0  0  0
  2  1  1  0  0  0
 26 29  1  0  0  0
 26 25  1  0  0  0
 23 20  1  0  0  0
 25 27  2  0  0  0
  1  8  1  0  0  0
  7  9  1  0  0  0
  8 10  1  0  0  0
 15 17  1  0  0  0
M  END
> <minimizedAffinity>
-9.93380

$$$$
5J20_6FJ_A_301


 34 37  0  0  0  0  0  0  0  0999 V2000
    5.4183   34.6053   26.2915 C   0  0  0  0  0  0  0  0  0  0  0  0
    6.7623   34.7731   26.7054 C   0  0  0  0  0  0  0  0  0  0  0  0
    5.1054   33.7168   25.2363 C   0  0  0  0  0  0  0  0  0  0  0  0
    7.7890   34.1235   25.9902 C   0  0  0  0  0  0  0  0  0  0  0  0
    7.4760   33.2214   24.9571 C   0  0  0  0  0  0  0  0  0  0  0  0
    6.1432   33.0699   24.5463 C   0  0  0  0  0  0  0  0  0  0  0  0
    9.0992   34.2767   26.3530 O   0  0  0  0  0  0  0  0  0  0  0  0
    4.3999   35.2256   26.9191 O   0  0  0  0  0  0  0  0  0  0  0  0
    9.7731   33.8400   25.8701 H   0  0  0  0  0  0  0  0  0  0  0  0
    3.5199   35.0968   26.6242 H   0  0  0  0  0  0  0  0  0  0  0  0
    8.5373   32.4380   24.2755 C   0  0  0  0  0  0  0  0  0  0  0  0
    9.4713   30.7733   23.1789 C   0  0  0  0  0  0  0  0  0  0  0  0
    9.8115   32.7613   24.1303 N   0  0  0  0  0  0  0  0  0  0  0  0
    8.3027   31.2002   23.6913 N   0  0  0  0  0  0  0  0  0  0  0  0
   10.4198   31.7120   23.4202 N   0  0  0  0  0  0  0  0  0  0  0  0
    9.6279   29.6871   22.6237 O   0  0  0  0  0  0  0  0  0  0  0  0
   11.3645   31.6667   23.1470 H   0  0  0  0  0  0  0  0  0  0  0  0
    6.8236   29.6379   24.8664 C   0  0  0  0  0  0  0  0  0  0  0  0
    7.0878   30.4603   23.7558 C   0  0  0  0  0  0  0  0  0  0  0  0
    4.6822   28.9868   23.9302 C   0  0  0  0  0  0  0  0  0  0  0  0
    6.1221   30.5295   22.7386 C   0  0  0  0  0  0  0  0  0  0  0  0
    4.9273   29.8010   22.8208 C   0  0  0  0  0  0  0  0  0  0  0  0
    5.6273   28.9197   24.9411 C   0  0  0  0  0  0  0  0  0  0  0  0
    6.3720   31.3042   21.6637 F   0  0  0  0  0  0  0  0  0  0  0  0
    3.7453   33.5370   24.6537 C   0  0  0  0  0  0  0  0  0  0  0  0
    2.9282   32.5158   25.0582 N   0  0  0  0  0  0  0  0  0  0  0  0
    3.3260   34.4090   23.9087 O   0  0  0  0  0  0  0  0  0  0  0  0
    3.3826   31.4068   25.8955 C   0  0  0  0  0  0  0  0  0  0  0  0
    1.5357   32.4254   24.5763 C   0  0  0  0  0  0  0  0  0  0  0  0
    0.6450   32.0486   25.7404 C   0  0  0  0  0  0  0  0  0  0  0  0
   -0.6248   31.5898   25.6402 C   0  0  0  0  0  0  0  0  0  0  0  0
    0.9909   32.1072   27.0473 O   0  0  0  0  0  0  0  0  0  0  0  0
   -0.0433   31.7032   27.7974 C   0  0  0  0  0  0  0  0  0  0  0  0
   -1.0595   31.3578   26.9703 C   0  0  0  0  0  0  0  0  0  0  0  0
 15 12  1  0  0  0
 15 13  1  0  0  0
 16 12  2  0  0  0
 12 14  1  0  0  0
 13 11  2  0  0  0
 14 11  1  0  0  0
 14 19  1  0  0  0
 11  5  1  0  0  0
 33 34  2  0  0  0
 33 32  1  0  0  0
 24 21  1  0  0  0
 34 31  1  0  0  0
 19 21  2  0  0  0
 19 18  1  0  0  0
 32 30  1  0  0  0
  5  6  2  0  0  0
  5  4  1  0  0  0
  7  4  1  0  0  0
 21 22  1  0  0  0
 31 30  2  0  0  0
  6  3  1  0  0  0
  4  2  2  0  0  0
 18 23  2  0  0  0
 30 29  1  0  0  0
 22 20  2  0  0  0
 28 26  1  0  0  0
  3 25  1  0  0  0
  3  1  2  0  0  0
  2  1  1  0  0  0
 26 29  1  0  0  0
 26 25  1  0  0  0
 23 20  1  0  0  0
 25 27  2  0  0  0
  1  8  1  0  0  0
  7  9  1  0  0  0
  8 10  1  0  0  0
 15 17  1  0  0  0
M  END
> <minimizedAffinity>
-9.75966

$$$$
5J20_6FJ_A_301


 34 37  0  0  0  0  0  0  0  0999 V2000
    3.2783   36.5313   25.9530 C   0  0  0  0  0  0  0  0  0  0  0  0
    2.0043   37.1361   25.8235 C   0  0  0  0  0  0  0  0  0  0  0  0
    3.7093   35.5724   25.0067 C   0  0  0  0  0  0  0  0  0  0  0  0
    1.1356   36.6992   24.8026 C   0  0  0  0  0  0  0  0  0  0  0  0
    1.5733   35.7638   23.8474 C   0  0  0  0  0  0  0  0  0  0  0  0
    2.8323   35.1616   23.9900 C   0  0  0  0  0  0  0  0  0  0  0  0
   -0.1083   37.2505   24.6591 O   0  0  0  0  0  0  0  0  0  0  0  0
    4.1372   36.8881   26.9281 O   0  0  0  0  0  0  0  0  0  0  0  0
   -0.6771   36.9521   23.9769 H   0  0  0  0  0  0  0  0  0  0  0  0
    4.9741   36.4714   26.9908 H   0  0  0  0  0  0  0  0  0  0  0  0
    0.7151   35.3841   22.6968 C   0  0  0  0  0  0  0  0  0  0  0  0
   -0.7663   34.2450   21.5332 C   0  0  0  0  0  0  0  0  0  0  0  0
    0.6545   35.9636   21.5096 N   0  0  0  0  0  0  0  0  0  0  0  0
   -0.1616   34.3077   22.7335 N   0  0  0  0  0  0  0  0  0  0  0  0
   -0.2977   35.2541   20.7578 N   0  0  0  0  0  0  0  0  0  0  0  0
   -1.5773   33.3783   21.2113 O   0  0  0  0  0  0  0  0  0  0  0  0
   -0.5746   35.4536   19.8343 H   0  0  0  0  0  0  0  0  0  0  0  0
    0.7688   32.4691   24.0615 C   0  0  0  0  0  0  0  0  0  0  0  0
   -0.2840   33.3628   23.7916 C   0  0  0  0  0  0  0  0  0  0  0  0
   -0.4802   31.4819   25.8922 C   0  0  0  0  0  0  0  0  0  0  0  0
   -1.4328   33.2947   24.5964 C   0  0  0  0  0  0  0  0  0  0  0  0
   -1.5346   32.3640   25.6397 C   0  0  0  0  0  0  0  0  0  0  0  0
    0.6594   31.5485   25.1070 C   0  0  0  0  0  0  0  0  0  0  0  0
   -2.4528   34.1377   24.3370 F   0  0  0  0  0  0  0  0  0  0  0  0
    4.9819   34.8020   25.0989 C   0  0  0  0  0  0  0  0  0  0  0  0
    4.9922   33.4915   25.4947 N   0  0  0  0  0  0  0  0  0  0  0  0
    5.9983   35.3303   24.6759 O   0  0  0  0  0  0  0  0  0  0  0  0
    3.8297   32.8167   26.0698 C   0  0  0  0  0  0  0  0  0  0  0  0
    6.2370   32.6988   25.4530 C   0  0  0  0  0  0  0  0  0  0  0  0
    5.9859   31.4474   24.6397 C   0  0  0  0  0  0  0  0  0  0  0  0
    6.3617   30.1950   24.9908 C   0  0  0  0  0  0  0  0  0  0  0  0
    5.3430   31.3976   23.4500 O   0  0  0  0  0  0  0  0  0  0  0  0
    5.3073   30.1294   23.0189 C   0  0  0  0  0  0  0  0  0  0  0  0
    5.9108   29.3476   23.9466 C   0  0  0  0  0  0  0  0  0  0  0  0
 15 12  1  0  0  0
 15 13  1  0  0  0
 16 12  2  0  0  0
 12 14  1  0  0  0
 13 11  2  0  0  0
 14 11  1  0  0  0
 14 19  1  0  0  0
 11  5  1  0  0  0
 33 34  2  0  0  0
 33 32  1  0  0  0
 24 21  1  0  0  0
 34 31  1  0  0  0
 19 21  2  0  0  0
 19 18  1  0  0  0
 32 30  1  0  0  0
  5  6  2  0  0  0
  5  4  1  0  0  0
  7  4  1  0  0  0
 21 22  1  0  0  0
 31 30  2  0  0  0
  6  3  1  0  0  0
  4  2  2  0  0  0
 18 23  2  0  0  0
 30 29  1  0  0  0
 22 20  2  0  0  0
 28 26  1  0  0  0
  3 25  1  0  0  0
  3  1  2  0  0  0
  2  1  1  0  0  0
 26 29  1  0  0  0
 26 25  1  0  0  0
 23 20  1  0  0  0
 25 27  2  0  0  0
  1  8  1  0  0  0
  7  9  1  0  0  0
  8 10  1  0  0  0
 15 17  1  0  0  0
M  END
> <minimizedAffinity>
-9.70983

$$$$
5J20_6FJ_A_301


 34 37  0  0  0  0  0  0  0  0999 V2000
    5.6597   34.5307   26.7111 C   0  0  0  0  0  0  0  0  0  0  0  0
    7.0356   34.8215   26.8788 C   0  0  0  0  0  0  0  0  0  0  0  0
    5.2502   33.5385   25.7899 C   0  0  0  0  0  0  0  0  0  0  0  0
    7.9800   34.1844   26.0482 C   0  0  0  0  0  0  0  0  0  0  0  0
    7.5751   33.1805   25.1497 C   0  0  0  0  0  0  0  0  0  0  0  0
    6.2094   32.9069   24.9821 C   0  0  0  0  0  0  0  0  0  0  0  0
    9.3154   34.4542   26.1723 O   0  0  0  0  0  0  0  0  0  0  0  0
    4.7115   35.1319   27.4562 O   0  0  0  0  0  0  0  0  0  0  0  0
    9.9340   34.0247   25.6148 H   0  0  0  0  0  0  0  0  0  0  0  0
    3.8082   34.9207   27.3244 H   0  0  0  0  0  0  0  0  0  0  0  0
    8.5696   32.4155   24.3558 C   0  0  0  0  0  0  0  0  0  0  0  0
    9.3870   30.7994   23.1044 C   0  0  0  0  0  0  0  0  0  0  0  0
    9.8406   32.7169   24.1485 N   0  0  0  0  0  0  0  0  0  0  0  0
    8.2650   31.2216   23.7154 N   0  0  0  0  0  0  0  0  0  0  0  0
   10.3741   31.6990   23.3395 N   0  0  0  0  0  0  0  0  0  0  0  0
    9.4786   29.7457   22.4767 O   0  0  0  0  0  0  0  0  0  0  0  0
   11.2982   31.6482   23.0039 H   0  0  0  0  0  0  0  0  0  0  0  0
    6.7885   29.6862   24.9288 C   0  0  0  0  0  0  0  0  0  0  0  0
    7.0368   30.5078   23.8138 C   0  0  0  0  0  0  0  0  0  0  0  0
    4.6060   29.0861   24.0554 C   0  0  0  0  0  0  0  0  0  0  0  0
    6.0425   30.6026   22.8267 C   0  0  0  0  0  0  0  0  0  0  0  0
    4.8351   29.8999   22.9423 C   0  0  0  0  0  0  0  0  0  0  0  0
    5.5796   28.9938   25.0369 C   0  0  0  0  0  0  0  0  0  0  0  0
    6.2765   31.3767   21.7478 F   0  0  0  0  0  0  0  0  0  0  0  0
    3.8319   33.2206   25.4601 C   0  0  0  0  0  0  0  0  0  0  0  0
    3.0899   34.0384   24.6509 N   0  0  0  0  0  0  0  0  0  0  0  0
    3.3941   32.1378   25.8166 O   0  0  0  0  0  0  0  0  0  0  0  0
    3.5256   35.3722   24.2401 C   0  0  0  0  0  0  0  0  0  0  0  0
    1.7329   33.6474   24.2207 C   0  0  0  0  0  0  0  0  0  0  0  0
    0.9922   34.8883   23.7710 C   0  0  0  0  0  0  0  0  0  0  0  0
    0.7170   35.2153   22.4864 C   0  0  0  0  0  0  0  0  0  0  0  0
    0.4909   35.8447   24.5866 O   0  0  0  0  0  0  0  0  0  0  0  0
   -0.0961   36.7947   23.8461 C   0  0  0  0  0  0  0  0  0  0  0  0
    0.0046   36.4405   22.5421 C   0  0  0  0  0  0  0  0  0  0  0  0
 15 12  1  0  0  0
 15 13  1  0  0  0
 16 12  2  0  0  0
 12 14  1  0  0  0
 13 11  2  0  0  0
 14 11  1  0  0  0
 14 19  1  0  0  0
 11  5  1  0  0  0
 33 34  2  0  0  0
 33 32  1  0  0  0
 24 21  1  0  0  0
 34 31  1  0  0  0
 19 21  2  0  0  0
 19 18  1  0  0  0
 32 30  1  0  0  0
  5  6  2  0  0  0
  5  4  1  0  0  0
  7  4  1  0  0  0
 21 22  1  0  0  0
 31 30  2  0  0  0
  6  3  1  0  0  0
  4  2  2  0  0  0
 18 23  2  0  0  0
 30 29  1  0  0  0
 22 20  2  0  0  0
 28 26  1  0  0  0
  3 25  1  0  0  0
  3  1  2  0  0  0
  2  1  1  0  0  0
 26 29  1  0  0  0
 26 25  1  0  0  0
 23 20  1  0  0  0
 25 27  2  0  0  0
  1  8  1  0  0  0
  7  9  1  0  0  0
  8 10  1  0  0  0
 15 17  1  0  0  0
M  END
> <minimizedAffinity>
-9.33068

$$$$
5J20_6FJ_A_301


 34 37  0  0  0  0  0  0  0  0999 V2000
    0.3073   35.0445   22.1462 C   0  0  0  0  0  0  0  0  0  0  0  0
   -0.7816   34.1440   22.0508 C   0  0  0  0  0  0  0  0  0  0  0  0
    1.0417   35.1465   23.3508 C   0  0  0  0  0  0  0  0  0  0  0  0
   -1.1852   33.4281   23.1963 C   0  0  0  0  0  0  0  0  0  0  0  0
   -0.4401   33.5111   24.3867 C   0  0  0  0  0  0  0  0  0  0  0  0
    0.6300   34.4139   24.4757 C   0  0  0  0  0  0  0  0  0  0  0  0
   -2.2431   32.5623   23.1434 O   0  0  0  0  0  0  0  0  0  0  0  0
    0.7169   35.7768   21.0918 O   0  0  0  0  0  0  0  0  0  0  0  0
   -2.5023   32.0918   23.9112 H   0  0  0  0  0  0  0  0  0  0  0  0
    1.4405   36.3651   21.1828 H   0  0  0  0  0  0  0  0  0  0  0  0
   -0.7796   32.6722   25.5638 C   0  0  0  0  0  0  0  0  0  0  0  0
   -0.4824   31.2743   27.2381 C   0  0  0  0  0  0  0  0  0  0  0  0
   -1.9669   32.5094   26.1231 N   0  0  0  0  0  0  0  0  0  0  0  0
    0.1618   31.9090   26.2419 N   0  0  0  0  0  0  0  0  0  0  0  0
   -1.7912   31.6274   27.2032 N   0  0  0  0  0  0  0  0  0  0  0  0
    0.0505   30.4801   28.0114 O   0  0  0  0  0  0  0  0  0  0  0  0
   -2.4923   31.3211   27.8228 H   0  0  0  0  0  0  0  0  0  0  0  0
    2.5141   32.5912   26.3448 C   0  0  0  0  0  0  0  0  0  0  0  0
    1.5205   31.7211   25.8596 C   0  0  0  0  0  0  0  0  0  0  0  0
    4.2310   31.3743   25.1376 C   0  0  0  0  0  0  0  0  0  0  0  0
    1.9141   30.6755   25.0089 C   0  0  0  0  0  0  0  0  0  0  0  0
    3.2572   30.4990   24.6484 C   0  0  0  0  0  0  0  0  0  0  0  0
    3.8508   32.4037   25.9834 C   0  0  0  0  0  0  0  0  0  0  0  0
    0.9675   29.8445   24.5277 F   0  0  0  0  0  0  0  0  0  0  0  0
    2.1374   36.1265   23.5960 C   0  0  0  0  0  0  0  0  0  0  0  0
    2.0541   37.0480   24.6050 N   0  0  0  0  0  0  0  0  0  0  0  0
    3.1726   35.9925   22.9623 O   0  0  0  0  0  0  0  0  0  0  0  0
    0.8283   37.3048   25.3593 C   0  0  0  0  0  0  0  0  0  0  0  0
    3.1988   37.9232   24.9263 C   0  0  0  0  0  0  0  0  0  0  0  0
    4.2325   37.1111   25.6763 C   0  0  0  0  0  0  0  0  0  0  0  0
    5.5011   36.8820   25.2628 C   0  0  0  0  0  0  0  0  0  0  0  0
    4.0417   36.5046   26.8708 O   0  0  0  0  0  0  0  0  0  0  0  0
    5.1677   35.8745   27.2321 C   0  0  0  0  0  0  0  0  0  0  0  0
    6.1030   36.0933   26.2764 C   0  0  0  0  0  0  0  0  0  0  0  0
 15 12  1  0  0  0
 15 13  1  0  0  0
 16 12  2  0  0  0
 12 14  1  0  0  0
 13 11  2  0  0  0
 14 11  1  0  0  0
 14 19  1  0  0  0
 11  5  1  0  0  0
 33 34  2  0  0  0
 33 32  1  0  0  0
 24 21  1  0  0  0
 34 31  1  0  0  0
 19 21  2  0  0  0
 19 18  1  0  0  0
 32 30  1  0  0  0
  5  6  2  0  0  0
  5  4  1  0  0  0
  7  4  1  0  0  0
 21 22  1  0  0  0
 31 30  2  0  0  0
  6  3  1  0  0  0
  4  2  2  0  0  0
 18 23  2  0  0  0
 30 29  1  0  0  0
 22 20  2  0  0  0
 28 26  1  0  0  0
  3 25  1  0  0  0
  3  1  2  0  0  0
  2  1  1  0  0  0
 26 29  1  0  0  0
 26 25  1  0  0  0
 23 20  1  0  0  0
 25 27  2  0  0  0
  1  8  1  0  0  0
  7  9  1  0  0  0
  8 10  1  0  0  0
 15 17  1  0  0  0
M  END
> <minimizedAffinity>
-9.21708

$$$$
5J20_6FJ_A_301


 34 37  0  0  0  0  0  0  0  0999 V2000
    5.1164   31.5671   24.5953 C   0  0  0  0  0  0  0  0  0  0  0  0
    4.1648   30.6087   24.1692 C   0  0  0  0  0  0  0  0  0  0  0  0
    4.7733   32.5179   25.5848 C   0  0  0  0  0  0  0  0  0  0  0  0
    2.8478   30.6775   24.6676 C   0  0  0  0  0  0  0  0  0  0  0  0
    2.5136   31.6072   25.6692 C   0  0  0  0  0  0  0  0  0  0  0  0
    3.4590   32.5599   26.0771 C   0  0  0  0  0  0  0  0  0  0  0  0
    1.8994   29.7776   24.2648 O   0  0  0  0  0  0  0  0  0  0  0  0
    6.3808   31.5674   24.1293 O   0  0  0  0  0  0  0  0  0  0  0  0
    1.0273   29.8331   24.6028 H   0  0  0  0  0  0  0  0  0  0  0  0
    6.9901   32.2133   24.4283 H   0  0  0  0  0  0  0  0  0  0  0  0
    1.1652   31.6127   26.2910 C   0  0  0  0  0  0  0  0  0  0  0  0
   -0.9741   32.0670   26.5415 C   0  0  0  0  0  0  0  0  0  0  0  0
    0.8014   31.0550   27.4337 N   0  0  0  0  0  0  0  0  0  0  0  0
    0.0737   32.2517   25.7178 N   0  0  0  0  0  0  0  0  0  0  0  0
   -0.5673   31.3263   27.6021 N   0  0  0  0  0  0  0  0  0  0  0  0
   -2.0940   32.5394   26.3534 O   0  0  0  0  0  0  0  0  0  0  0  0
   -1.1295   31.0317   28.3547 H   0  0  0  0  0  0  0  0  0  0  0  0
   -0.5689   32.6572   23.3871 C   0  0  0  0  0  0  0  0  0  0  0  0
    0.0992   33.0717   24.5540 C   0  0  0  0  0  0  0  0  0  0  0  0
    0.1124   34.6763   22.2273 C   0  0  0  0  0  0  0  0  0  0  0  0
    0.7703   34.3050   24.5299 C   0  0  0  0  0  0  0  0  0  0  0  0
    0.7793   35.1046   23.3785 C   0  0  0  0  0  0  0  0  0  0  0  0
   -0.5582   33.4639   22.2463 C   0  0  0  0  0  0  0  0  0  0  0  0
    1.4251   34.7047   25.6388 F   0  0  0  0  0  0  0  0  0  0  0  0
    5.6572   33.6302   26.0353 C   0  0  0  0  0  0  0  0  0  0  0  0
    5.4250   34.9231   25.6500 N   0  0  0  0  0  0  0  0  0  0  0  0
    6.5101   33.3757   26.8714 O   0  0  0  0  0  0  0  0  0  0  0  0
    4.4661   35.2916   24.6098 C   0  0  0  0  0  0  0  0  0  0  0  0
    6.2221   36.0333   26.2084 C   0  0  0  0  0  0  0  0  0  0  0  0
    5.2769   37.1166   26.6815 C   0  0  0  0  0  0  0  0  0  0  0  0
    5.3114   38.4127   26.2922 C   0  0  0  0  0  0  0  0  0  0  0  0
    4.2568   36.9451   27.5539 O   0  0  0  0  0  0  0  0  0  0  0  0
    3.6359   38.1172   27.7447 C   0  0  0  0  0  0  0  0  0  0  0  0
    4.2430   39.0508   26.9727 C   0  0  0  0  0  0  0  0  0  0  0  0
 15 12  1  0  0  0
 15 13  1  0  0  0
 16 12  2  0  0  0
 12 14  1  0  0  0
 13 11  2  0  0  0
 14 11  1  0  0  0
 14 19  1  0  0  0
 11  5  1  0  0  0
 33 34  2  0  0  0
 33 32  1  0  0  0
 24 21  1  0  0  0
 34 31  1  0  0  0
 19 21  2  0  0  0
 19 18  1  0  0  0
 32 30  1  0  0  0
  5  6  2  0  0  0
  5  4  1  0  0  0
  7  4  1  0  0  0
 21 22  1  0  0  0
 31 30  2  0  0  0
  6  3  1  0  0  0
  4  2  2  0  0  0
 18 23  2  0  0  0
 30 29  1  0  0  0
 22 20  2  0  0  0
 28 26  1  0  0  0
  3 25  1  0  0  0
  3  1  2  0  0  0
  2  1  1  0  0  0
 26 29  1  0  0  0
 26 25  1  0  0  0
 23 20  1  0  0  0
 25 27  2  0  0  0
  1  8  1  0  0  0
  7  9  1  0  0  0
  8 10  1  0  0  0
 15 17  1  0  0  0
M  END
> <minimizedAffinity>
-8.70531

$$$$
5J20_6FJ_A_301


 34 37  0  0  0  0  0  0  0  0999 V2000
    0.9216   35.4226   22.3286 C   0  0  0  0  0  0  0  0  0  0  0  0
   -0.1459   34.5459   22.0161 C   0  0  0  0  0  0  0  0  0  0  0  0
    1.4671   35.4414   23.6336 C   0  0  0  0  0  0  0  0  0  0  0  0
   -0.7213   33.7690   23.0422 C   0  0  0  0  0  0  0  0  0  0  0  0
   -0.1632   33.7694   24.3335 C   0  0  0  0  0  0  0  0  0  0  0  0
    0.8865   34.6491   24.6371 C   0  0  0  0  0  0  0  0  0  0  0  0
   -1.7643   32.9238   22.7785 O   0  0  0  0  0  0  0  0  0  0  0  0
    1.4894   36.2104   21.3944 O   0  0  0  0  0  0  0  0  0  0  0  0
   -2.1388   32.4123   23.4684 H   0  0  0  0  0  0  0  0  0  0  0  0
    2.1945   36.7814   21.6286 H   0  0  0  0  0  0  0  0  0  0  0  0
   -0.6808   32.8669   25.3928 C   0  0  0  0  0  0  0  0  0  0  0  0
   -0.6596   31.3103   26.9493 C   0  0  0  0  0  0  0  0  0  0  0  0
   -1.9255   32.7636   25.8276 N   0  0  0  0  0  0  0  0  0  0  0  0
    0.1264   31.9676   26.0772 N   0  0  0  0  0  0  0  0  0  0  0  0
   -1.9262   31.7805   26.8321 N   0  0  0  0  0  0  0  0  0  0  0  0
   -0.2693   30.4087   27.6892 O   0  0  0  0  0  0  0  0  0  0  0  0
   -2.7058   31.4862   27.3562 H   0  0  0  0  0  0  0  0  0  0  0  0
    2.5015   32.5126   26.3444 C   0  0  0  0  0  0  0  0  0  0  0  0
    1.4957   31.6926   25.8005 C   0  0  0  0  0  0  0  0  0  0  0  0
    4.2263   31.1725   25.2883 C   0  0  0  0  0  0  0  0  0  0  0  0
    1.8873   30.6084   24.9984 C   0  0  0  0  0  0  0  0  0  0  0  0
    3.2403   30.3461   24.7420 C   0  0  0  0  0  0  0  0  0  0  0  0
    3.8474   32.2396   26.0868 C   0  0  0  0  0  0  0  0  0  0  0  0
    0.9305   29.8248   24.4613 F   0  0  0  0  0  0  0  0  0  0  0  0
    2.5192   36.3885   24.0998 C   0  0  0  0  0  0  0  0  0  0  0  0
    2.2030   37.4883   24.8512 N   0  0  0  0  0  0  0  0  0  0  0  0
    3.6857   36.0796   23.9127 O   0  0  0  0  0  0  0  0  0  0  0  0
    0.8320   37.9509   25.0610 C   0  0  0  0  0  0  0  0  0  0  0  0
    3.2619   38.3444   25.4216 C   0  0  0  0  0  0  0  0  0  0  0  0
    3.4332   39.5577   24.5333 C   0  0  0  0  0  0  0  0  0  0  0  0
    4.1470   39.5935   23.3835 C   0  0  0  0  0  0  0  0  0  0  0  0
    2.8917   40.7779   24.7545 O   0  0  0  0  0  0  0  0  0  0  0  0
    3.2552   41.6088   23.7681 C   0  0  0  0  0  0  0  0  0  0  0  0
    4.0188   40.9165   22.8884 C   0  0  0  0  0  0  0  0  0  0  0  0
 15 12  1  0  0  0
 15 13  1  0  0  0
 16 12  2  0  0  0
 12 14  1  0  0  0
 13 11  2  0  0  0
 14 11  1  0  0  0
 14 19  1  0  0  0
 11  5  1  0  0  0
 33 34  2  0  0  0
 33 32  1  0  0  0
 24 21  1  0  0  0
 34 31  1  0  0  0
 19 21  2  0  0  0
 19 18  1  0  0  0
 32 30  1  0  0  0
  5  6  2  0  0  0
  5  4  1  0  0  0
  7  4  1  0  0  0
 21 22  1  0  0  0
 31 30  2  0  0  0
  6  3  1  0  0  0
  4  2  2  0  0  0
 18 23  2  0  0  0
 30 29  1  0  0  0
 22 20  2  0  0  0
 28 26  1  0  0  0
  3 25  1  0  0  0
  3  1  2  0  0  0
  2  1  1  0  0  0
 26 29  1  0  0  0
 26 25  1  0  0  0
 23 20  1  0  0  0
 25 27  2  0  0  0
  1  8  1  0  0  0
  7  9  1  0  0  0
  8 10  1  0  0  0
 15 17  1  0  0  0
M  END
> <minimizedAffinity>
-8.59855

$$$$
5J20_6FJ_A_301


 34 37  0  0  0  0  0  0  0  0999 V2000
    2.8216   31.7093   25.1200 C   0  0  0  0  0  0  0  0  0  0  0  0
    1.8377   32.6824   25.4212 C   0  0  0  0  0  0  0  0  0  0  0  0
    4.0766   32.1046   24.6008 C   0  0  0  0  0  0  0  0  0  0  0  0
    2.0863   34.0335   25.1046 C   0  0  0  0  0  0  0  0  0  0  0  0
    3.3428   34.4294   24.6113 C   0  0  0  0  0  0  0  0  0  0  0  0
    4.3073   33.4578   24.3053 C   0  0  0  0  0  0  0  0  0  0  0  0
    1.1512   34.9970   25.3671 O   0  0  0  0  0  0  0  0  0  0  0  0
    2.6257   30.4003   25.3731 O   0  0  0  0  0  0  0  0  0  0  0  0
    1.3275   35.8919   25.1523 H   0  0  0  0  0  0  0  0  0  0  0  0
    3.2938   29.7776   25.1637 H   0  0  0  0  0  0  0  0  0  0  0  0
    3.6619   35.8622   24.3874 C   0  0  0  0  0  0  0  0  0  0  0  0
    4.6869   37.7953   24.6286 C   0  0  0  0  0  0  0  0  0  0  0  0
    3.0570   36.7049   23.5671 N   0  0  0  0  0  0  0  0  0  0  0  0
    4.6811   36.5215   25.0619 N   0  0  0  0  0  0  0  0  0  0  0  0
    3.7089   37.9428   23.7008 N   0  0  0  0  0  0  0  0  0  0  0  0
    5.4427   38.6675   25.0538 O   0  0  0  0  0  0  0  0  0  0  0  0
    3.4942   38.7684   23.2094 H   0  0  0  0  0  0  0  0  0  0  0  0
    4.8922   35.7577   27.3817 C   0  0  0  0  0  0  0  0  0  0  0  0
    5.4699   35.9851   26.1190 C   0  0  0  0  0  0  0  0  0  0  0  0
    6.9962   34.9076   28.2399 C   0  0  0  0  0  0  0  0  0  0  0  0
    6.8245   35.6597   25.9425 C   0  0  0  0  0  0  0  0  0  0  0  0
    7.5855   35.1246   26.9912 C   0  0  0  0  0  0  0  0  0  0  0  0
    5.6581   35.2193   28.4190 C   0  0  0  0  0  0  0  0  0  0  0  0
    7.3909   35.8866   24.7401 F   0  0  0  0  0  0  0  0  0  0  0  0
    5.1448   31.1652   24.1561 C   0  0  0  0  0  0  0  0  0  0  0  0
    6.3084   31.0258   24.8637 N   0  0  0  0  0  0  0  0  0  0  0  0
    4.8938   30.4200   23.2218 O   0  0  0  0  0  0  0  0  0  0  0  0
    6.7006   31.9224   25.9498 C   0  0  0  0  0  0  0  0  0  0  0  0
    7.3004   29.9973   24.4927 C   0  0  0  0  0  0  0  0  0  0  0  0
    8.4237   30.6631   23.7276 C   0  0  0  0  0  0  0  0  0  0  0  0
    8.2709   31.4520   22.6381 C   0  0  0  0  0  0  0  0  0  0  0  0
    9.7406   30.5737   24.0262 O   0  0  0  0  0  0  0  0  0  0  0  0
   10.4454   31.2856   23.1363 C   0  0  0  0  0  0  0  0  0  0  0  0
    9.5780   31.8599   22.2681 C   0  0  0  0  0  0  0  0  0  0  0  0
 15 12  1  0  0  0
 15 13  1  0  0  0
 16 12  2  0  0  0
 12 14  1  0  0  0
 13 11  2  0  0  0
 14 11  1  0  0  0
 14 19  1  0  0  0
 11  5  1  0  0  0
 33 34  2  0  0  0
 33 32  1  0  0  0
 24 21  1  0  0  0
 34 31  1  0  0  0
 19 21  2  0  0  0
 19 18  1  0  0  0
 32 30  1  0  0  0
  5  6  2  0  0  0
  5  4  1  0  0  0
  7  4  1  0  0  0
 21 22  1  0  0  0
 31 30  2  0  0  0
  6  3  1  0  0  0
  4  2  2  0  0  0
 18 23  2  0  0  0
 30 29  1  0  0  0
 22 20  2  0  0  0
 28 26  1  0  0  0
  3 25  1  0  0  0
  3  1  2  0  0  0
  2  1  1  0  0  0
 26 29  1  0  0  0
 26 25  1  0  0  0
 23 20  1  0  0  0
 25 27  2  0  0  0
  1  8  1  0  0  0
  7  9  1  0  0  0
  8 10  1  0  0  0
 15 17  1  0  0  0
M  END
> <minimizedAffinity>
-8.35573

$$$$
5J20_6FJ_A_301


 34 37  0  0  0  0  0  0  0  0999 V2000
   -0.3110   32.6012   24.6101 C   0  0  0  0  0  0  0  0  0  0  0  0
    0.2592   32.0603   25.7882 C   0  0  0  0  0  0  0  0  0  0  0  0
    0.4476   33.4639   23.7847 C   0  0  0  0  0  0  0  0  0  0  0  0
    1.5505   32.4700   26.1788 C   0  0  0  0  0  0  0  0  0  0  0  0
    2.3137   33.3082   25.3457 C   0  0  0  0  0  0  0  0  0  0  0  0
    1.7370   33.8482   24.1865 C   0  0  0  0  0  0  0  0  0  0  0  0
    2.1248   31.9797   27.3196 O   0  0  0  0  0  0  0  0  0  0  0  0
   -1.5525   32.2687   24.2054 O   0  0  0  0  0  0  0  0  0  0  0  0
    2.9836   32.2591   27.5692 H   0  0  0  0  0  0  0  0  0  0  0  0
   -1.9054   32.6416   23.4216 H   0  0  0  0  0  0  0  0  0  0  0  0
    3.7185   33.6509   25.6828 C   0  0  0  0  0  0  0  0  0  0  0  0
    5.9062   33.4395   25.8070 C   0  0  0  0  0  0  0  0  0  0  0  0
    4.1554   34.7167   26.3327 N   0  0  0  0  0  0  0  0  0  0  0  0
    4.7937   32.8388   25.3468 N   0  0  0  0  0  0  0  0  0  0  0  0
    5.5540   34.6022   26.4096 N   0  0  0  0  0  0  0  0  0  0  0  0
    7.0374   32.9657   25.7144 O   0  0  0  0  0  0  0  0  0  0  0  0
    6.1677   35.2497   26.8261 H   0  0  0  0  0  0  0  0  0  0  0  0
    4.0513   30.5041   25.4353 C   0  0  0  0  0  0  0  0  0  0  0  0
    4.7141   31.5445   24.7585 C   0  0  0  0  0  0  0  0  0  0  0  0
    4.5203   28.9651   23.6194 C   0  0  0  0  0  0  0  0  0  0  0  0
    5.2741   31.2652   23.5014 C   0  0  0  0  0  0  0  0  0  0  0  0
    5.1801   29.9877   22.9320 C   0  0  0  0  0  0  0  0  0  0  0  0
    3.9589   29.2355   24.8569 C   0  0  0  0  0  0  0  0  0  0  0  0
    5.9232   32.2519   22.8509 F   0  0  0  0  0  0  0  0  0  0  0  0
   -0.0797   34.1671   22.5811 C   0  0  0  0  0  0  0  0  0  0  0  0
    0.0169   35.5267   22.4530 N   0  0  0  0  0  0  0  0  0  0  0  0
   -0.4729   33.4827   21.6493 O   0  0  0  0  0  0  0  0  0  0  0  0
    0.4177   36.4102   23.5467 C   0  0  0  0  0  0  0  0  0  0  0  0
   -0.3844   36.1987   21.2012 C   0  0  0  0  0  0  0  0  0  0  0  0
    0.8643   36.6287   20.4619 C   0  0  0  0  0  0  0  0  0  0  0  0
    2.1115   36.1521   20.6854 C   0  0  0  0  0  0  0  0  0  0  0  0
    0.9137   37.5439   19.4663 O   0  0  0  0  0  0  0  0  0  0  0  0
    2.1800   37.6757   19.0488 C   0  0  0  0  0  0  0  0  0  0  0  0
    2.9543   36.8230   19.7626 C   0  0  0  0  0  0  0  0  0  0  0  0
 15 12  1  0  0  0
 15 13  1  0  0  0
 16 12  2  0  0  0
 12 14  1  0  0  0
 13 11  2  0  0  0
 14 11  1  0  0  0
 14 19  1  0  0  0
 11  5  1  0  0  0
 33 34  2  0  0  0
 33 32  1  0  0  0
 24 21  1  0  0  0
 34 31  1  0  0  0
 19 21  2  0  0  0
 19 18  1  0  0  0
 32 30  1  0  0  0
  5  6  2  0  0  0
  5  4  1  0  0  0
  7  4  1  0  0  0
 21 22  1  0  0  0
 31 30  2  0  0  0
  6  3  1  0  0  0
  4  2  2  0  0  0
 18 23  2  0  0  0
 30 29  1  0  0  0
 22 20  2  0  0  0
 28 26  1  0  0  0
  3 25  1  0  0  0
  3  1  2  0  0  0
  2  1  1  0  0  0
 26 29  1  0  0  0
 26 25  1  0  0  0
 23 20  1  0  0  0
 25 27  2  0  0  0
  1  8  1  0  0  0
  7  9  1  0  0  0
  8 10  1  0  0  0
 15 17  1  0  0  0
M  END
> <minimizedAffinity>
-8.29186

$$$$
