5J20_6FJ_A_301
  RCSB PDB12061718173D
Coordinates from PDB:5J20:A:301 Model:1 without hydrogens
 31 34  0  0  0  0            999 V2000
    0.1720   36.9690   24.4660   C 0  0  0  0  0  0  0  0  0  0  0  0
   -0.1970   31.8900   26.0580   C 0  0  0  0  0  0  0  0  0  0  0  0
   -1.4530   32.2350   25.5020   C 0  0  0  0  0  0  0  0  0  0  0  0
    0.9970   32.3590   25.4620   C 0  0  0  0  0  0  0  0  0  0  0  0
   -0.3440   34.3220   22.5150   C 0  0  0  0  0  0  0  0  0  0  0  0
    0.0440   36.0770   21.2440   C 0  0  0  0  0  0  0  0  0  0  0  0
    0.9290   36.2180   23.5480   C 0  0  0  0  0  0  0  0  0  0  0  0
    2.1700   37.5270   25.7240   C 0  0  0  0  0  0  0  0  0  0  0  0
    2.3700   31.9790   25.9000   C 0  0  0  0  0  0  0  0  0  0  0  0
    5.1210   30.3430   24.5410   C 0  0  0  0  0  0  0  0  0  0  0  0
    5.7630   29.2220   24.1360   C 0  0  0  0  0  0  0  0  0  0  0  0
   -1.4950   32.9640   24.2960   C 0  0  0  0  0  0  0  0  0  0  0  0
   -0.3090   33.4510   23.7170   C 0  0  0  0  0  0  0  0  0  0  0  0
    0.9310   33.0950   24.2680   C 0  0  0  0  0  0  0  0  0  0  0  0
   -0.9530   34.0860   21.3650   N 0  0  0  0  0  0  0  0  0  0  0  0
    0.2830   35.5600   22.4630   N 0  0  0  0  0  0  0  0  0  0  0  0
   -2.6910   33.3000   23.7230   O 0  0  0  0  0  0  0  0  0  0  0  0
   -0.0970   31.1690   27.1920   O 0  0  0  0  0  0  0  0  0  0  0  0
   -0.7040   35.1940   20.5370   N 0  0  0  0  0  0  0  0  0  0  0  0
    0.4230   37.1880   20.8770   O 0  0  0  0  0  0  0  0  0  0  0  0
    2.3170   36.1360   23.7450   C 0  0  0  0  0  0  0  0  0  0  0  0
    2.9370   36.7830   24.8230   C 0  0  0  0  0  0  0  0  0  0  0  0
    2.9400   30.7980   25.5070   N 0  0  0  0  0  0  0  0  0  0  0  0
    3.0260   32.8140   26.5030   O 0  0  0  0  0  0  0  0  0  0  0  0
    4.3470   30.4920   25.8330   C 0  0  0  0  0  0  0  0  0  0  0  0
    0.7990   37.6060   25.5400   C 0  0  0  0  0  0  0  0  0  0  0  0
    2.1970   29.7300   24.8400   C 0  0  0  0  0  0  0  0  0  0  0  0
    5.2760   31.3040   23.6010   O 0  0  0  0  0  0  0  0  0  0  0  0
    6.0210   30.8240   22.5960   C 0  0  0  0  0  0  0  0  0  0  0  0
    6.3320   29.5350   22.8750   C 0  0  0  0  0  0  0  0  0  0  0  0
    3.0530   35.4300   22.8630   F 0  0  0  0  0  0  0  0  0  0  0  0
 19  6  1  0  0  0  0
 19 15  1  0  0  0  0
 20  6  2  0  0  0  0
  6 16  1  0  0  0  0
 15  5  2  0  0  0  0
 16  5  1  0  0  0  0
 16  7  1  0  0  0  0
  5 13  1  0  0  0  0
 29 30  2  0  0  0  0
 29 28  1  0  0  0  0
 31 21  1  0  0  0  0
 30 11  1  0  0  0  0
  7 21  2  0  0  0  0
  7  1  1  0  0  0  0
 28 10  1  0  0  0  0
 13 14  2  0  0  0  0
 13 12  1  0  0  0  0
 17 12  1  0  0  0  0
 21 22  1  0  0  0  0
 11 10  2  0  0  0  0
 14  4  1  0  0  0  0
 12  3  2  0  0  0  0
  1 26  2  0  0  0  0
 10 25  1  0  0  0  0
 22  8  2  0  0  0  0
 27 23  1  0  0  0  0
  4  9  1  0  0  0  0
  4  2  2  0  0  0  0
  3  2  1  0  0  0  0
 23 25  1  0  0  0  0
 23  9  1  0  0  0  0
 26  8  1  0  0  0  0
  9 24  2  0  0  0  0
  2 18  1  0  0  0  0
A    1
C1
A    2
C2
A    3
C3
A    4
C7
A    5
C8
A    6
C14
A    7
C16
A    8
C19
A    9
C20
A   10
C24
A   11
C30
A   12
C4
A   13
C5
A   14
C6
A   15
N9
A   16
N10
A   17
O11
A   18
O12
A   19
N13
A   20
O15
A   21
C17
A   22
C18
A   23
N21
A   24
O22
A   25
C23
A   26
C25
A   27
C26
A   28
O27
A   29
C28
A   30
C29
A   31
F31
M  END
>  <InstanceId>
5J20_6FJ_A_301

>  <ChemCompId>
6FJ

>  <PdbId>
5J20

>  <ChainId>
A

>  <ResidueNumber>
301

>  <InsertionCode>


>  <Model>
1

>  <AltIds>


>  <MissingHeavyAtoms>
0

>  <ObservedFormula>
C21 N4 O5 F

>  <Name>
5-[4-(2-fluorophenyl)-5-oxo-4,5-dihydro-1H-1,2,4-triazol-3-yl]-N-[(furan-2-yl)methyl]-2,4-dihydroxy-N-methylbenzamide

>  <SystematicName>
5-[4-(2-fluorophenyl)-5-oxidanylidene-1~{H}-1,2,4-triazol-3-yl]-~{N}-(furan-2-ylmethyl)-~{N}-methyl-2,4-bis(oxidanyl)benzamide

>  <Synonyms>


>  <Type>
NON-POLYMER

>  <Formula>
C21 H17 F N4 O5

>  <MolecularWeight>
424.382

>  <ModifiedDate>
2017-12-01

>  <Parent>


>  <OneLetterCode>


>  <SubcomponentList>


>  <AmbiguousFlag>
N

>  <InChI>
InChI=1S/C21H17FN4O5/c1-25(11-12-5-4-8-31-12)20(29)14-9-13(17(27)10-18(14)28)19-23-24-21(30)26(19)16-7-3-2-6-15(16)22/h2-10,27-28H,11H2,1H3,(H,24,30)

>  <InChIKey>
PAVRUOXGJYRCJO-UHFFFAOYSA-N

>  <SMILES>
CN(Cc1ccco1)C(=O)c2cc(c(cc2O)O)C3=NNC(=O)N3c4ccccc4F

$$$$
