3GI4_K60_A_200


 49 53  0  0  0  0  0  0  0  0999 V2000
   21.6155   30.0926   12.8012 C   0  0  0  0  0  0  0  0  0  0  0  0
   20.2220   30.3992   13.1378 N   0  0  0  0  0  0  0  0  0  0  0  0
   19.5441   31.4309   12.6162 C   0  0  0  0  0  0  0  0  0  0  0  0
   19.9603   32.1901   11.7439 O   0  0  0  0  0  0  0  0  0  0  0  0
   19.7593   29.8158   13.7818 H   0  0  0  0  0  0  0  0  0  0  0  0
   18.1781   31.7023   13.1798 C   0  0  0  0  0  0  0  0  0  0  0  0
   17.7253   30.7620   14.1653 O   0  0  0  0  0  0  0  0  0  0  0  0
   17.2590   31.5291   15.3005 C   0  0  0  0  0  0  0  0  0  0  0  0
   16.6351   30.9714   16.1821 O   0  0  0  0  0  0  0  0  0  0  0  0
   18.2981   33.0508   13.9139 C   0  0  0  0  0  0  0  0  0  0  0  0
   17.5833   32.8143   15.1571 N   0  0  0  0  0  0  0  0  0  0  0  0
   17.2746   33.8799   16.0346 C   0  0  0  0  0  0  0  0  0  0  0  0
   16.0111   34.4778   16.0348 C   0  0  0  0  0  0  0  0  0  0  0  0
   15.7206   35.5306   16.8988 C   0  0  0  0  0  0  0  0  0  0  0  0
   16.6929   36.0261   17.7593 C   0  0  0  0  0  0  0  0  0  0  0  0
   18.2488   34.3922   16.9073 C   0  0  0  0  0  0  0  0  0  0  0  0
   17.9636   35.4493   17.7761 C   0  0  0  0  0  0  0  0  0  0  0  0
   19.0271   35.9732   18.7127 C   0  0  0  0  0  0  0  0  0  0  0  0
   18.7762   37.2083   19.0968 F   0  0  0  0  0  0  0  0  0  0  0  0
   20.1877   36.0108   18.1180 F   0  0  0  0  0  0  0  0  0  0  0  0
   19.1264   35.1865   19.7687 F   0  0  0  0  0  0  0  0  0  0  0  0
   21.8116   28.9028   11.8578 C   0  0  0  0  0  0  0  0  0  0  0  0
   21.3807   29.1499   10.5048 O   0  0  0  0  0  0  0  0  0  0  0  0
   20.4252   29.3168   10.4951 H   0  0  0  0  0  0  0  0  0  0  0  0
   21.0403   27.6889   12.3940 C   0  0  0  0  0  0  0  0  0  0  0  0
   20.4956   26.8970   11.2786 N   0  0  0  0  0  0  0  0  0  0  0  0
   20.5192   24.4232   11.1522 O   0  0  0  0  0  0  0  0  0  0  0  0
   21.3501   25.5659   10.9099 S   0  0  0  0  0  0  0  0  0  0  0  0
   22.5122   25.5966   11.7659 O   0  0  0  0  0  0  0  0  0  0  0  0
   21.7995   25.5842    9.3486 C   0  0  0  0  0  0  0  0  0  0  0  0
   20.8418   25.6055    8.3198 C   0  0  0  0  0  0  0  0  0  0  0  0
   21.2752   25.5918    6.9876 C   0  0  0  0  0  0  0  0  0  0  0  0
   22.6117   25.5458    6.6673 C   0  0  0  0  0  0  0  0  0  0  0  0
   22.7710   25.5270    5.3111 O   0  0  0  0  0  0  0  0  0  0  0  0
   21.4490   25.5261    4.7235 C   0  0  0  0  0  0  0  0  0  0  0  0
   20.5415   25.6113    5.8384 O   0  0  0  0  0  0  0  0  0  0  0  0
   23.5756   25.5186    7.6547 C   0  0  0  0  0  0  0  0  0  0  0  0
   23.1594   25.5348    9.0028 C   0  0  0  0  0  0  0  0  0  0  0  0
   19.0374   26.6338   11.4060 C   0  0  0  0  0  0  0  0  0  0  0  0
   18.3082   27.8711   11.9516 C   0  0  0  0  0  0  0  0  0  0  0  0
   17.5606   28.6740   10.8793 C   0  0  0  0  0  0  0  0  0  0  0  0
   17.3588   27.4382   13.0645 C   0  0  0  0  0  0  0  0  0  0  0  0
   22.2549   29.9045   14.1825 C   0  0  0  0  0  0  0  0  0  0  0  0
   22.3072   31.2383   14.9110 C   0  0  0  0  0  0  0  0  0  0  0  0
   23.3125   32.1596   14.6127 C   0  0  0  0  0  0  0  0  0  0  0  0
   23.3833   33.3702   15.2833 C   0  0  0  0  0  0  0  0  0  0  0  0
   22.4528   33.6909   16.2619 C   0  0  0  0  0  0  0  0  0  0  0  0
   21.4521   32.7814   16.5708 C   0  0  0  0  0  0  0  0  0  0  0  0
   21.3769   31.5550   15.9006 C   0  0  0  0  0  0  0  0  0  0  0  0
 27 28  2  0  0  0
 28 29  2  0  0  0
 28 30  1  0  0  0
 28 26  1  0  0  0
 30 31  2  0  0  0
 30 38  1  0  0  0
 31 32  1  0  0  0
 32 33  2  0  0  0
 32 36  1  0  0  0
 33 34  1  0  0  0
 33 37  1  0  0  0
 34 35  1  0  0  0
 35 36  1  0  0  0
 37 38  2  0  0  0
 26 39  1  0  0  0
 26 25  1  0  0  0
 39 40  1  0  0  0
 40 41  1  0  0  0
 40 42  1  0  0  0
 25 22  1  0  0  0
 22 23  1  0  0  0
 22  1  1  0  0  0
  1 43  1  0  0  0
  1  2  1  0  0  0
 43 44  1  0  0  0
 44 45  2  0  0  0
 44 49  1  0  0  0
 45 46  1  0  0  0
 46 47  2  0  0  0
 47 48  1  0  0  0
 48 49  2  0  0  0
  2  3  1  0  0  0
  3  4  2  0  0  0
  3  6  1  0  0  0
  6  7  1  0  0  0
  6 10  1  0  0  0
  7  8  1  0  0  0
  8  9  2  0  0  0
  8 11  1  0  0  0
 10 11  1  0  0  0
 11 12  1  0  0  0
 12 13  2  0  0  0
 12 16  1  0  0  0
 13 14  1  0  0  0
 14 15  2  0  0  0
 15 17  1  0  0  0
 16 17  2  0  0  0
 17 18  1  0  0  0
 18 19  1  0  0  0
 18 20  1  0  0  0
 18 21  1  0  0  0
 23 24  1  0  0  0
  2  5  1  0  0  0
M  END
> <minimizedAffinity>
-9.95888

$$$$
3GI4_K60_A_200


 49 53  0  0  0  0  0  0  0  0999 V2000
   21.8634   29.7754   12.8172 C   0  0  0  0  0  0  0  0  0  0  0  0
   21.8145   30.4550   14.1153 N   0  0  0  0  0  0  0  0  0  0  0  0
   22.0068   31.7724   14.2691 C   0  0  0  0  0  0  0  0  0  0  0  0
   22.1623   32.5819   13.3575 O   0  0  0  0  0  0  0  0  0  0  0  0
   21.6304   29.9145   14.9173 H   0  0  0  0  0  0  0  0  0  0  0  0
   22.0800   32.2895   15.6777 C   0  0  0  0  0  0  0  0  0  0  0  0
   22.8369   33.4974   15.8473 O   0  0  0  0  0  0  0  0  0  0  0  0
   22.0124   34.4111   16.6089 C   0  0  0  0  0  0  0  0  0  0  0  0
   22.5064   35.4255   17.0610 O   0  0  0  0  0  0  0  0  0  0  0  0
   20.6315   32.6480   16.0586 C   0  0  0  0  0  0  0  0  0  0  0  0
   20.7737   33.9319   16.7248 N   0  0  0  0  0  0  0  0  0  0  0  0
   19.6903   34.5150   17.4228 C   0  0  0  0  0  0  0  0  0  0  0  0
   19.8998   35.4660   18.4256 C   0  0  0  0  0  0  0  0  0  0  0  0
   18.8256   36.0285   19.1105 C   0  0  0  0  0  0  0  0  0  0  0  0
   17.5237   35.6328   18.8282 C   0  0  0  0  0  0  0  0  0  0  0  0
   18.3696   34.1221   17.1494 C   0  0  0  0  0  0  0  0  0  0  0  0
   17.2875   34.6823   17.8341 C   0  0  0  0  0  0  0  0  0  0  0  0
   15.8763   34.2496   17.5120 C   0  0  0  0  0  0  0  0  0  0  0  0
   15.8421   33.0416   16.9868 F   0  0  0  0  0  0  0  0  0  0  0  0
   15.3419   35.0423   16.6243 F   0  0  0  0  0  0  0  0  0  0  0  0
   15.1327   34.2855   18.6026 F   0  0  0  0  0  0  0  0  0  0  0  0
   20.5860   29.8775   11.9795 C   0  0  0  0  0  0  0  0  0  0  0  0
   20.3294   31.1972   11.4597 O   0  0  0  0  0  0  0  0  0  0  0  0
   20.1908   31.8133   12.1959 H   0  0  0  0  0  0  0  0  0  0  0  0
   19.3796   29.4517   12.8275 C   0  0  0  0  0  0  0  0  0  0  0  0
   18.1254   29.7446   12.1140 N   0  0  0  0  0  0  0  0  0  0  0  0
   15.9974   28.8661   11.1998 O   0  0  0  0  0  0  0  0  0  0  0  0
   17.2906   28.4338   11.6420 S   0  0  0  0  0  0  0  0  0  0  0  0
   17.2208   27.5753   12.8005 O   0  0  0  0  0  0  0  0  0  0  0  0
   18.0511   27.6748   10.4232 C   0  0  0  0  0  0  0  0  0  0  0  0
   18.0752   28.2257    9.1301 C   0  0  0  0  0  0  0  0  0  0  0  0
   18.7186   27.5221    8.1036 C   0  0  0  0  0  0  0  0  0  0  0  0
   19.3136   26.3035    8.3313 C   0  0  0  0  0  0  0  0  0  0  0  0
   19.8555   25.8201    7.1748 O   0  0  0  0  0  0  0  0  0  0  0  0
   19.5586   26.7751    6.1294 C   0  0  0  0  0  0  0  0  0  0  0  0
   18.8719   27.8549    6.7901 O   0  0  0  0  0  0  0  0  0  0  0  0
   19.3020   25.7341    9.5884 C   0  0  0  0  0  0  0  0  0  0  0  0
   18.6616   26.4286   10.6365 C   0  0  0  0  0  0  0  0  0  0  0  0
   17.2799   30.7524   12.8078 C   0  0  0  0  0  0  0  0  0  0  0  0
   18.0347   31.3688   13.9955 C   0  0  0  0  0  0  0  0  0  0  0  0
   18.0853   32.9019   13.9705 C   0  0  0  0  0  0  0  0  0  0  0  0
   17.4109   30.8685   15.2947 C   0  0  0  0  0  0  0  0  0  0  0  0
   22.2382   28.3410   13.2097 C   0  0  0  0  0  0  0  0  0  0  0  0
   23.0208   27.6869   12.0818 C   0  0  0  0  0  0  0  0  0  0  0  0
   22.3458   27.1045   11.0079 C   0  0  0  0  0  0  0  0  0  0  0  0
   23.0463   26.4876    9.9836 C   0  0  0  0  0  0  0  0  0  0  0  0
   24.4332   26.4410   10.0048 C   0  0  0  0  0  0  0  0  0  0  0  0
   25.1151   27.0117   11.0694 C   0  0  0  0  0  0  0  0  0  0  0  0
   24.4141   27.6327   12.1094 C   0  0  0  0  0  0  0  0  0  0  0  0
 27 28  2  0  0  0
 28 29  2  0  0  0
 28 30  1  0  0  0
 28 26  1  0  0  0
 30 31  2  0  0  0
 30 38  1  0  0  0
 31 32  1  0  0  0
 32 33  2  0  0  0
 32 36  1  0  0  0
 33 34  1  0  0  0
 33 37  1  0  0  0
 34 35  1  0  0  0
 35 36  1  0  0  0
 37 38  2  0  0  0
 26 39  1  0  0  0
 26 25  1  0  0  0
 39 40  1  0  0  0
 40 41  1  0  0  0
 40 42  1  0  0  0
 25 22  1  0  0  0
 22 23  1  0  0  0
 22  1  1  0  0  0
  1 43  1  0  0  0
  1  2  1  0  0  0
 43 44  1  0  0  0
 44 45  2  0  0  0
 44 49  1  0  0  0
 45 46  1  0  0  0
 46 47  2  0  0  0
 47 48  1  0  0  0
 48 49  2  0  0  0
  2  3  1  0  0  0
  3  4  2  0  0  0
  3  6  1  0  0  0
  6  7  1  0  0  0
  6 10  1  0  0  0
  7  8  1  0  0  0
  8  9  2  0  0  0
  8 11  1  0  0  0
 10 11  1  0  0  0
 11 12  1  0  0  0
 12 13  2  0  0  0
 12 16  1  0  0  0
 13 14  1  0  0  0
 14 15  2  0  0  0
 15 17  1  0  0  0
 16 17  2  0  0  0
 17 18  1  0  0  0
 18 19  1  0  0  0
 18 20  1  0  0  0
 18 21  1  0  0  0
 23 24  1  0  0  0
  2  5  1  0  0  0
M  END
> <minimizedAffinity>
-9.75641

$$$$
3GI4_K60_A_200


 49 53  0  0  0  0  0  0  0  0999 V2000
   19.6909   28.8804   13.5471 C   0  0  0  0  0  0  0  0  0  0  0  0
   20.3664   27.7517   12.8997 N   0  0  0  0  0  0  0  0  0  0  0  0
   21.6402   27.7902   12.4850 C   0  0  0  0  0  0  0  0  0  0  0  0
   22.4204   28.7231   12.6626 O   0  0  0  0  0  0  0  0  0  0  0  0
   19.8567   26.9207   12.7622 H   0  0  0  0  0  0  0  0  0  0  0  0
   22.1366   26.6087   11.7010 C   0  0  0  0  0  0  0  0  0  0  0  0
   21.3583   25.4107   11.8416 O   0  0  0  0  0  0  0  0  0  0  0  0
   21.0835   24.9244   10.5064 C   0  0  0  0  0  0  0  0  0  0  0  0
   20.6171   23.8115   10.3607 O   0  0  0  0  0  0  0  0  0  0  0  0
   22.0109   27.0165   10.2213 C   0  0  0  0  0  0  0  0  0  0  0  0
   21.4500   25.8292    9.5983 N   0  0  0  0  0  0  0  0  0  0  0  0
   21.3741   25.7111    8.1908 C   0  0  0  0  0  0  0  0  0  0  0  0
   22.4080   25.1258    7.4543 C   0  0  0  0  0  0  0  0  0  0  0  0
   22.3250   25.0208    6.0681 C   0  0  0  0  0  0  0  0  0  0  0  0
   21.2225   25.5228    5.3871 C   0  0  0  0  0  0  0  0  0  0  0  0
   20.2668   26.2167    7.4898 C   0  0  0  0  0  0  0  0  0  0  0  0
   20.1783   26.1152    6.0986 C   0  0  0  0  0  0  0  0  0  0  0  0
   18.9704   26.6575    5.3710 C   0  0  0  0  0  0  0  0  0  0  0  0
   19.1252   27.9235    5.0404 F   0  0  0  0  0  0  0  0  0  0  0  0
   17.9132   26.6124    6.1342 F   0  0  0  0  0  0  0  0  0  0  0  0
   18.7335   25.9374    4.2897 F   0  0  0  0  0  0  0  0  0  0  0  0
   20.1624   29.1932   14.9697 C   0  0  0  0  0  0  0  0  0  0  0  0
   20.1881   28.0477   15.8443 O   0  0  0  0  0  0  0  0  0  0  0  0
   19.2876   27.7040   15.9534 H   0  0  0  0  0  0  0  0  0  0  0  0
   19.2452   30.2541   15.5937 C   0  0  0  0  0  0  0  0  0  0  0  0
   19.6149   31.5954   15.1119 N   0  0  0  0  0  0  0  0  0  0  0  0
   17.6274   31.5517   13.6340 O   0  0  0  0  0  0  0  0  0  0  0  0
   18.3938   32.4418   14.4558 S   0  0  0  0  0  0  0  0  0  0  0  0
   19.0146   33.5003   13.6956 O   0  0  0  0  0  0  0  0  0  0  0  0
   17.4379   33.0646   15.6127 C   0  0  0  0  0  0  0  0  0  0  0  0
   17.7766   34.2635   16.2638 C   0  0  0  0  0  0  0  0  0  0  0  0
   16.9370   34.7482   17.2752 C   0  0  0  0  0  0  0  0  0  0  0  0
   15.8000   34.0719   17.6506 C   0  0  0  0  0  0  0  0  0  0  0  0
   15.1665   34.7389   18.6599 O   0  0  0  0  0  0  0  0  0  0  0  0
   15.9680   35.9011   18.9760 C   0  0  0  0  0  0  0  0  0  0  0  0
   17.0566   35.8751   18.0336 O   0  0  0  0  0  0  0  0  0  0  0  0
   15.4436   32.8897   17.0340 C   0  0  0  0  0  0  0  0  0  0  0  0
   16.2747   32.3865   16.0108 C   0  0  0  0  0  0  0  0  0  0  0  0
   20.3957   32.3789   16.1061 C   0  0  0  0  0  0  0  0  0  0  0  0
   21.9028   32.2472   15.8380 C   0  0  0  0  0  0  0  0  0  0  0  0
   22.2737   32.2801   14.3498 C   0  0  0  0  0  0  0  0  0  0  0  0
   22.6415   33.3397   16.6048 C   0  0  0  0  0  0  0  0  0  0  0  0
   18.2138   28.4781   13.4545 C   0  0  0  0  0  0  0  0  0  0  0  0
   17.8929   28.0210   12.0400 C   0  0  0  0  0  0  0  0  0  0  0  0
   17.9017   26.6612   11.7252 C   0  0  0  0  0  0  0  0  0  0  0  0
   17.6307   26.2327   10.4355 C   0  0  0  0  0  0  0  0  0  0  0  0
   17.3414   27.1482    9.4332 C   0  0  0  0  0  0  0  0  0  0  0  0
   17.3347   28.5026    9.7327 C   0  0  0  0  0  0  0  0  0  0  0  0
   17.6116   28.9429   11.0321 C   0  0  0  0  0  0  0  0  0  0  0  0
 27 28  2  0  0  0
 28 29  2  0  0  0
 28 30  1  0  0  0
 28 26  1  0  0  0
 30 31  2  0  0  0
 30 38  1  0  0  0
 31 32  1  0  0  0
 32 33  2  0  0  0
 32 36  1  0  0  0
 33 34  1  0  0  0
 33 37  1  0  0  0
 34 35  1  0  0  0
 35 36  1  0  0  0
 37 38  2  0  0  0
 26 39  1  0  0  0
 26 25  1  0  0  0
 39 40  1  0  0  0
 40 41  1  0  0  0
 40 42  1  0  0  0
 25 22  1  0  0  0
 22 23  1  0  0  0
 22  1  1  0  0  0
  1 43  1  0  0  0
  1  2  1  0  0  0
 43 44  1  0  0  0
 44 45  2  0  0  0
 44 49  1  0  0  0
 45 46  1  0  0  0
 46 47  2  0  0  0
 47 48  1  0  0  0
 48 49  2  0  0  0
  2  3  1  0  0  0
  3  4  2  0  0  0
  3  6  1  0  0  0
  6  7  1  0  0  0
  6 10  1  0  0  0
  7  8  1  0  0  0
  8  9  2  0  0  0
  8 11  1  0  0  0
 10 11  1  0  0  0
 11 12  1  0  0  0
 12 13  2  0  0  0
 12 16  1  0  0  0
 13 14  1  0  0  0
 14 15  2  0  0  0
 15 17  1  0  0  0
 16 17  2  0  0  0
 17 18  1  0  0  0
 18 19  1  0  0  0
 18 20  1  0  0  0
 18 21  1  0  0  0
 23 24  1  0  0  0
  2  5  1  0  0  0
M  END
> <minimizedAffinity>
-9.69228

$$$$
3GI4_K60_A_200


 49 53  0  0  0  0  0  0  0  0999 V2000
   19.7007   32.2668   14.1991 C   0  0  0  0  0  0  0  0  0  0  0  0
   20.1890   33.1857   15.2317 N   0  0  0  0  0  0  0  0  0  0  0  0
   20.7586   32.7798   16.3749 C   0  0  0  0  0  0  0  0  0  0  0  0
   21.0191   31.6149   16.6678 O   0  0  0  0  0  0  0  0  0  0  0  0
   20.0933   34.1533   15.0770 H   0  0  0  0  0  0  0  0  0  0  0  0
   21.0625   33.8380   17.3971 C   0  0  0  0  0  0  0  0  0  0  0  0
   22.2115   34.6503   17.1135 O   0  0  0  0  0  0  0  0  0  0  0  0
   21.8014   36.0306   17.2591 C   0  0  0  0  0  0  0  0  0  0  0  0
   22.6451   36.9055   17.2742 O   0  0  0  0  0  0  0  0  0  0  0  0
   19.8568   34.7957   17.3665 C   0  0  0  0  0  0  0  0  0  0  0  0
   20.4780   36.1093   17.3997 N   0  0  0  0  0  0  0  0  0  0  0  0
   19.7047   37.2766   17.6004 C   0  0  0  0  0  0  0  0  0  0  0  0
   20.2696   38.5503   17.4886 C   0  0  0  0  0  0  0  0  0  0  0  0
   19.4998   39.6923   17.6948 C   0  0  0  0  0  0  0  0  0  0  0  0
   18.1590   39.5859   18.0442 C   0  0  0  0  0  0  0  0  0  0  0  0
   18.3491   37.1833   17.9568 C   0  0  0  0  0  0  0  0  0  0  0  0
   17.5717   38.3258   18.1660 C   0  0  0  0  0  0  0  0  0  0  0  0
   16.1129   38.1965   18.5373 C   0  0  0  0  0  0  0  0  0  0  0  0
   15.9575   37.8391   19.7960 F   0  0  0  0  0  0  0  0  0  0  0  0
   15.5364   37.2669   17.8263 F   0  0  0  0  0  0  0  0  0  0  0  0
   15.4872   39.3380   18.3149 F   0  0  0  0  0  0  0  0  0  0  0  0
   20.7478   31.8214   13.1749 C   0  0  0  0  0  0  0  0  0  0  0  0
   20.2775   31.8326   11.8125 O   0  0  0  0  0  0  0  0  0  0  0  0
   19.5521   31.1960   11.7156 H   0  0  0  0  0  0  0  0  0  0  0  0
   21.2212   30.3999   13.5085 C   0  0  0  0  0  0  0  0  0  0  0  0
   20.3431   29.4062   12.8686 N   0  0  0  0  0  0  0  0  0  0  0  0
   22.0043   27.6165   12.4517 O   0  0  0  0  0  0  0  0  0  0  0  0
   21.0741   28.4644   11.7656 S   0  0  0  0  0  0  0  0  0  0  0  0
   21.7235   29.3686   10.8466 O   0  0  0  0  0  0  0  0  0  0  0  0
   19.9869   27.5472   10.9802 C   0  0  0  0  0  0  0  0  0  0  0  0
   19.8642   26.1742   11.2558 C   0  0  0  0  0  0  0  0  0  0  0  0
   18.9327   25.4169   10.5337 C   0  0  0  0  0  0  0  0  0  0  0  0
   18.1483   25.9839    9.5569 C   0  0  0  0  0  0  0  0  0  0  0  0
   17.3382   25.0388    8.9952 O   0  0  0  0  0  0  0  0  0  0  0  0
   17.6479   23.7759    9.6295 C   0  0  0  0  0  0  0  0  0  0  0  0
   18.6377   24.0889   10.6276 O   0  0  0  0  0  0  0  0  0  0  0  0
   18.2492   27.3278    9.2596 C   0  0  0  0  0  0  0  0  0  0  0  0
   19.1796   28.1085    9.9780 C   0  0  0  0  0  0  0  0  0  0  0  0
   19.5277   28.6332   13.8429 C   0  0  0  0  0  0  0  0  0  0  0  0
   18.0310   28.9165   13.6433 C   0  0  0  0  0  0  0  0  0  0  0  0
   17.7230   29.7969   12.4253 C   0  0  0  0  0  0  0  0  0  0  0  0
   17.2813   27.5906   13.5570 C   0  0  0  0  0  0  0  0  0  0  0  0
   18.5273   33.0459   13.5922 C   0  0  0  0  0  0  0  0  0  0  0  0
   17.4069   33.1666   14.6134 C   0  0  0  0  0  0  0  0  0  0  0  0
   16.9322   34.4253   14.9857 C   0  0  0  0  0  0  0  0  0  0  0  0
   15.9255   34.5500   15.9298 C   0  0  0  0  0  0  0  0  0  0  0  0
   15.3676   33.4247   16.5202 C   0  0  0  0  0  0  0  0  0  0  0  0
   15.8346   32.1685   16.1622 C   0  0  0  0  0  0  0  0  0  0  0  0
   16.8539   32.0351   15.2124 C   0  0  0  0  0  0  0  0  0  0  0  0
 27 28  2  0  0  0
 28 29  2  0  0  0
 28 30  1  0  0  0
 28 26  1  0  0  0
 30 31  2  0  0  0
 30 38  1  0  0  0
 31 32  1  0  0  0
 32 33  2  0  0  0
 32 36  1  0  0  0
 33 34  1  0  0  0
 33 37  1  0  0  0
 34 35  1  0  0  0
 35 36  1  0  0  0
 37 38  2  0  0  0
 26 39  1  0  0  0
 26 25  1  0  0  0
 39 40  1  0  0  0
 40 41  1  0  0  0
 40 42  1  0  0  0
 25 22  1  0  0  0
 22 23  1  0  0  0
 22  1  1  0  0  0
  1 43  1  0  0  0
  1  2  1  0  0  0
 43 44  1  0  0  0
 44 45  2  0  0  0
 44 49  1  0  0  0
 45 46  1  0  0  0
 46 47  2  0  0  0
 47 48  1  0  0  0
 48 49  2  0  0  0
  2  3  1  0  0  0
  3  4  2  0  0  0
  3  6  1  0  0  0
  6  7  1  0  0  0
  6 10  1  0  0  0
  7  8  1  0  0  0
  8  9  2  0  0  0
  8 11  1  0  0  0
 10 11  1  0  0  0
 11 12  1  0  0  0
 12 13  2  0  0  0
 12 16  1  0  0  0
 13 14  1  0  0  0
 14 15  2  0  0  0
 15 17  1  0  0  0
 16 17  2  0  0  0
 17 18  1  0  0  0
 18 19  1  0  0  0
 18 20  1  0  0  0
 18 21  1  0  0  0
 23 24  1  0  0  0
  2  5  1  0  0  0
M  END
> <minimizedAffinity>
-9.48825

$$$$
3GI4_K60_A_200


 49 53  0  0  0  0  0  0  0  0999 V2000
   19.6091   29.0290   13.7516 C   0  0  0  0  0  0  0  0  0  0  0  0
   20.6996   28.5031   12.9249 N   0  0  0  0  0  0  0  0  0  0  0  0
   21.9360   29.0202   12.9137 C   0  0  0  0  0  0  0  0  0  0  0  0
   22.3360   29.9283   13.6388 O   0  0  0  0  0  0  0  0  0  0  0  0
   20.5136   27.7283   12.3466 H   0  0  0  0  0  0  0  0  0  0  0  0
   22.8954   28.4679   11.8981 C   0  0  0  0  0  0  0  0  0  0  0  0
   23.7660   27.4328   12.3787 O   0  0  0  0  0  0  0  0  0  0  0  0
   23.6848   26.3384   11.4350 C   0  0  0  0  0  0  0  0  0  0  0  0
   24.4856   25.4268   11.5079 O   0  0  0  0  0  0  0  0  0  0  0  0
   22.0160   27.8065   10.8206 C   0  0  0  0  0  0  0  0  0  0  0  0
   22.7000   26.5505   10.5618 N   0  0  0  0  0  0  0  0  0  0  0  0
   22.3293   25.7297    9.4710 C   0  0  0  0  0  0  0  0  0  0  0  0
   21.0911   25.0820    9.4372 C   0  0  0  0  0  0  0  0  0  0  0  0
   20.7397   24.2712    8.3609 C   0  0  0  0  0  0  0  0  0  0  0  0
   21.6274   24.0680    7.3112 C   0  0  0  0  0  0  0  0  0  0  0  0
   23.2181   25.5135    8.4049 C   0  0  0  0  0  0  0  0  0  0  0  0
   22.8715   24.7001    7.3225 C   0  0  0  0  0  0  0  0  0  0  0  0
   23.8425   24.4940    6.1834 C   0  0  0  0  0  0  0  0  0  0  0  0
   25.0858   24.7287    6.5510 F   0  0  0  0  0  0  0  0  0  0  0  0
   23.5934   25.3247    5.2087 F   0  0  0  0  0  0  0  0  0  0  0  0
   23.7375   23.2629    5.7174 F   0  0  0  0  0  0  0  0  0  0  0  0
   19.9872   29.3546   15.1990 C   0  0  0  0  0  0  0  0  0  0  0  0
   19.9694   28.2144   16.0806 O   0  0  0  0  0  0  0  0  0  0  0  0
   19.0673   27.8620   16.1352 H   0  0  0  0  0  0  0  0  0  0  0  0
   19.0222   30.4095   15.7576 C   0  0  0  0  0  0  0  0  0  0  0  0
   19.3789   31.7458   15.2526 N   0  0  0  0  0  0  0  0  0  0  0  0
   17.3208   31.6672   13.8764 O   0  0  0  0  0  0  0  0  0  0  0  0
   18.1424   32.5823   14.6127 S   0  0  0  0  0  0  0  0  0  0  0  0
   18.7440   33.5876   13.7693 O   0  0  0  0  0  0  0  0  0  0  0  0
   17.2559   33.2830   15.7802 C   0  0  0  0  0  0  0  0  0  0  0  0
   17.6717   34.4829   16.3832 C   0  0  0  0  0  0  0  0  0  0  0  0
   16.8898   35.0359   17.4058 C   0  0  0  0  0  0  0  0  0  0  0  0
   15.7360   34.4255   17.8381 C   0  0  0  0  0  0  0  0  0  0  0  0
   15.1683   35.1508   18.8464 O   0  0  0  0  0  0  0  0  0  0  0  0
   16.0332   36.2823   19.1010 C   0  0  0  0  0  0  0  0  0  0  0  0
   17.0871   36.1774   18.1253 O   0  0  0  0  0  0  0  0  0  0  0  0
   15.3045   33.2442   17.2697 C   0  0  0  0  0  0  0  0  0  0  0  0
   16.0765   32.6727   16.2361 C   0  0  0  0  0  0  0  0  0  0  0  0
   20.1791   32.5422   16.2207 C   0  0  0  0  0  0  0  0  0  0  0  0
   21.6784   32.4358   15.9027 C   0  0  0  0  0  0  0  0  0  0  0  0
   22.1153   33.2642   14.6876 C   0  0  0  0  0  0  0  0  0  0  0  0
   22.4783   32.8274   17.1413 C   0  0  0  0  0  0  0  0  0  0  0  0
   18.5383   27.9393   13.6174 C   0  0  0  0  0  0  0  0  0  0  0  0
   18.1344   27.7919   12.1587 C   0  0  0  0  0  0  0  0  0  0  0  0
   17.7209   28.9088   11.4309 C   0  0  0  0  0  0  0  0  0  0  0  0
   17.3311   28.7849   10.1069 C   0  0  0  0  0  0  0  0  0  0  0  0
   17.3487   27.5476    9.4784 C   0  0  0  0  0  0  0  0  0  0  0  0
   17.7528   26.4293   10.1928 C   0  0  0  0  0  0  0  0  0  0  0  0
   18.1438   26.5463   11.5315 C   0  0  0  0  0  0  0  0  0  0  0  0
 27 28  2  0  0  0
 28 29  2  0  0  0
 28 30  1  0  0  0
 28 26  1  0  0  0
 30 31  2  0  0  0
 30 38  1  0  0  0
 31 32  1  0  0  0
 32 33  2  0  0  0
 32 36  1  0  0  0
 33 34  1  0  0  0
 33 37  1  0  0  0
 34 35  1  0  0  0
 35 36  1  0  0  0
 37 38  2  0  0  0
 26 39  1  0  0  0
 26 25  1  0  0  0
 39 40  1  0  0  0
 40 41  1  0  0  0
 40 42  1  0  0  0
 25 22  1  0  0  0
 22 23  1  0  0  0
 22  1  1  0  0  0
  1 43  1  0  0  0
  1  2  1  0  0  0
 43 44  1  0  0  0
 44 45  2  0  0  0
 44 49  1  0  0  0
 45 46  1  0  0  0
 46 47  2  0  0  0
 47 48  1  0  0  0
 48 49  2  0  0  0
  2  3  1  0  0  0
  3  4  2  0  0  0
  3  6  1  0  0  0
  6  7  1  0  0  0
  6 10  1  0  0  0
  7  8  1  0  0  0
  8  9  2  0  0  0
  8 11  1  0  0  0
 10 11  1  0  0  0
 11 12  1  0  0  0
 12 13  2  0  0  0
 12 16  1  0  0  0
 13 14  1  0  0  0
 14 15  2  0  0  0
 15 17  1  0  0  0
 16 17  2  0  0  0
 17 18  1  0  0  0
 18 19  1  0  0  0
 18 20  1  0  0  0
 18 21  1  0  0  0
 23 24  1  0  0  0
  2  5  1  0  0  0
M  END
> <minimizedAffinity>
-9.43728

$$$$
3GI4_K60_A_200


 49 53  0  0  0  0  0  0  0  0999 V2000
   21.6442   29.3533   12.9927 C   0  0  0  0  0  0  0  0  0  0  0  0
   20.2672   29.8038   13.2167 N   0  0  0  0  0  0  0  0  0  0  0  0
   19.7354   30.8823   12.6249 C   0  0  0  0  0  0  0  0  0  0  0  0
   20.2881   31.5731   11.7719 O   0  0  0  0  0  0  0  0  0  0  0  0
   19.7026   29.2861   13.8352 H   0  0  0  0  0  0  0  0  0  0  0  0
   18.3656   31.3011   13.0780 C   0  0  0  0  0  0  0  0  0  0  0  0
   17.7846   30.4838   14.1051 O   0  0  0  0  0  0  0  0  0  0  0  0
   17.3172   31.3768   15.1438 C   0  0  0  0  0  0  0  0  0  0  0  0
   16.6022   30.9436   16.0261 O   0  0  0  0  0  0  0  0  0  0  0  0
   18.5504   32.6942   13.7080 C   0  0  0  0  0  0  0  0  0  0  0  0
   17.7500   32.6176   14.9187 N   0  0  0  0  0  0  0  0  0  0  0  0
   17.4775   33.7736   15.6870 C   0  0  0  0  0  0  0  0  0  0  0  0
   16.3840   34.5955   15.3997 C   0  0  0  0  0  0  0  0  0  0  0  0
   16.1294   35.7348   16.1592 C   0  0  0  0  0  0  0  0  0  0  0  0
   16.9763   36.0918   17.2015 C   0  0  0  0  0  0  0  0  0  0  0  0
   18.3270   34.1475   16.7414 C   0  0  0  0  0  0  0  0  0  0  0  0
   18.0773   35.2902   17.5065 C   0  0  0  0  0  0  0  0  0  0  0  0
   19.0011   35.6627   18.6425 C   0  0  0  0  0  0  0  0  0  0  0  0
   20.2650   35.4529   18.3349 F   0  0  0  0  0  0  0  0  0  0  0  0
   18.7604   34.9276   19.6930 F   0  0  0  0  0  0  0  0  0  0  0  0
   18.8241   36.9292   18.9719 F   0  0  0  0  0  0  0  0  0  0  0  0
   21.7835   27.9312   12.4430 C   0  0  0  0  0  0  0  0  0  0  0  0
   23.1385   27.5545   12.1274 O   0  0  0  0  0  0  0  0  0  0  0  0
   23.4765   28.1259   11.4202 H   0  0  0  0  0  0  0  0  0  0  0  0
   20.9354   27.7859   11.1719 C   0  0  0  0  0  0  0  0  0  0  0  0
   20.0585   26.6077   11.2754 N   0  0  0  0  0  0  0  0  0  0  0  0
   18.1940   28.2363   11.3641 O   0  0  0  0  0  0  0  0  0  0  0  0
   18.4929   26.8961   10.9527 S   0  0  0  0  0  0  0  0  0  0  0  0
   17.7505   25.9092   11.7002 O   0  0  0  0  0  0  0  0  0  0  0  0
   18.1945   26.7409    9.3631 C   0  0  0  0  0  0  0  0  0  0  0  0
   18.5820   27.7397    8.4530 C   0  0  0  0  0  0  0  0  0  0  0  0
   18.2784   27.5763    7.0950 C   0  0  0  0  0  0  0  0  0  0  0  0
   17.6016   26.4700    6.6382 C   0  0  0  0  0  0  0  0  0  0  0  0
   17.4178   26.5543    5.2876 O   0  0  0  0  0  0  0  0  0  0  0  0
   17.9835   27.8137    4.8550 C   0  0  0  0  0  0  0  0  0  0  0  0
   18.5531   28.3978    6.0418 O   0  0  0  0  0  0  0  0  0  0  0  0
   17.2032   25.4750    7.5076 C   0  0  0  0  0  0  0  0  0  0  0  0
   17.5022   25.6195    8.8790 C   0  0  0  0  0  0  0  0  0  0  0  0
   20.5897   25.4188   10.5570 C   0  0  0  0  0  0  0  0  0  0  0  0
   21.7414   25.8193    9.6224 C   0  0  0  0  0  0  0  0  0  0  0  0
   23.0673   25.1129    9.9334 C   0  0  0  0  0  0  0  0  0  0  0  0
   21.3197   25.5684    8.1779 C   0  0  0  0  0  0  0  0  0  0  0  0
   22.2853   29.5540   14.3714 C   0  0  0  0  0  0  0  0  0  0  0  0
   22.1640   31.0116   14.7878 C   0  0  0  0  0  0  0  0  0  0  0  0
   21.3583   31.3649   15.8715 C   0  0  0  0  0  0  0  0  0  0  0  0
   21.2233   32.6914   16.2488 C   0  0  0  0  0  0  0  0  0  0  0  0
   21.8904   33.6936   15.5582 C   0  0  0  0  0  0  0  0  0  0  0  0
   22.6899   33.3554   14.4762 C   0  0  0  0  0  0  0  0  0  0  0  0
   22.8277   32.0181   14.0868 C   0  0  0  0  0  0  0  0  0  0  0  0
 27 28  2  0  0  0
 28 29  2  0  0  0
 28 30  1  0  0  0
 28 26  1  0  0  0
 30 31  2  0  0  0
 30 38  1  0  0  0
 31 32  1  0  0  0
 32 33  2  0  0  0
 32 36  1  0  0  0
 33 34  1  0  0  0
 33 37  1  0  0  0
 34 35  1  0  0  0
 35 36  1  0  0  0
 37 38  2  0  0  0
 26 39  1  0  0  0
 26 25  1  0  0  0
 39 40  1  0  0  0
 40 41  1  0  0  0
 40 42  1  0  0  0
 25 22  1  0  0  0
 22 23  1  0  0  0
 22  1  1  0  0  0
  1 43  1  0  0  0
  1  2  1  0  0  0
 43 44  1  0  0  0
 44 45  2  0  0  0
 44 49  1  0  0  0
 45 46  1  0  0  0
 46 47  2  0  0  0
 47 48  1  0  0  0
 48 49  2  0  0  0
  2  3  1  0  0  0
  3  4  2  0  0  0
  3  6  1  0  0  0
  6  7  1  0  0  0
  6 10  1  0  0  0
  7  8  1  0  0  0
  8  9  2  0  0  0
  8 11  1  0  0  0
 10 11  1  0  0  0
 11 12  1  0  0  0
 12 13  2  0  0  0
 12 16  1  0  0  0
 13 14  1  0  0  0
 14 15  2  0  0  0
 15 17  1  0  0  0
 16 17  2  0  0  0
 17 18  1  0  0  0
 18 19  1  0  0  0
 18 20  1  0  0  0
 18 21  1  0  0  0
 23 24  1  0  0  0
  2  5  1  0  0  0
M  END
> <minimizedAffinity>
-9.36039

$$$$
3GI4_K60_A_200


 49 53  0  0  0  0  0  0  0  0999 V2000
   20.5920   27.6160   11.4892 C   0  0  0  0  0  0  0  0  0  0  0  0
   19.8450   27.9775   12.6977 N   0  0  0  0  0  0  0  0  0  0  0  0
   18.5814   28.4240   12.6813 C   0  0  0  0  0  0  0  0  0  0  0  0
   17.8676   28.5085   11.6844 O   0  0  0  0  0  0  0  0  0  0  0  0
   20.2958   27.8875   13.5683 H   0  0  0  0  0  0  0  0  0  0  0  0
   18.0107   28.8994   13.9872 C   0  0  0  0  0  0  0  0  0  0  0  0
   18.9707   29.1126   15.0328 O   0  0  0  0  0  0  0  0  0  0  0  0
   18.7167   30.4282   15.5799 C   0  0  0  0  0  0  0  0  0  0  0  0
   19.2617   30.7598   16.6146 O   0  0  0  0  0  0  0  0  0  0  0  0
   17.4037   30.2832   13.6897 C   0  0  0  0  0  0  0  0  0  0  0  0
   17.8370   31.0839   14.8226 N   0  0  0  0  0  0  0  0  0  0  0  0
   17.3106   32.3780   15.0445 C   0  0  0  0  0  0  0  0  0  0  0  0
   17.6131   33.4416   14.1895 C   0  0  0  0  0  0  0  0  0  0  0  0
   17.0941   34.7129   14.4218 C   0  0  0  0  0  0  0  0  0  0  0  0
   16.2867   34.9544   15.5268 C   0  0  0  0  0  0  0  0  0  0  0  0
   16.4956   32.6365   16.1591 C   0  0  0  0  0  0  0  0  0  0  0  0
   15.9727   33.9105   16.3981 C   0  0  0  0  0  0  0  0  0  0  0  0
   15.0893   34.1579   17.5985 C   0  0  0  0  0  0  0  0  0  0  0  0
   15.7930   34.4614   18.6703 F   0  0  0  0  0  0  0  0  0  0  0  0
   14.4145   33.0840   17.9041 F   0  0  0  0  0  0  0  0  0  0  0  0
   14.2316   35.1271   17.3360 F   0  0  0  0  0  0  0  0  0  0  0  0
   20.6918   26.1141   11.2095 C   0  0  0  0  0  0  0  0  0  0  0  0
   21.6570   25.4274   12.0307 O   0  0  0  0  0  0  0  0  0  0  0  0
   22.5442   25.7720   11.8437 H   0  0  0  0  0  0  0  0  0  0  0  0
   21.0656   25.8889    9.7379 C   0  0  0  0  0  0  0  0  0  0  0  0
   19.9513   25.2470    9.0208 N   0  0  0  0  0  0  0  0  0  0  0  0
   20.1858   23.5540    7.2277 O   0  0  0  0  0  0  0  0  0  0  0  0
   20.2278   24.9704    7.4444 S   0  0  0  0  0  0  0  0  0  0  0  0
   21.5281   25.5340    7.1697 O   0  0  0  0  0  0  0  0  0  0  0  0
   19.0965   25.6898    6.5264 C   0  0  0  0  0  0  0  0  0  0  0  0
   19.1837   27.0562    6.2083 C   0  0  0  0  0  0  0  0  0  0  0  0
   18.1702   27.6406    5.4376 C   0  0  0  0  0  0  0  0  0  0  0  0
   17.0906   26.9110    4.9983 C   0  0  0  0  0  0  0  0  0  0  0  0
   16.2423   27.7080    4.2839 O   0  0  0  0  0  0  0  0  0  0  0  0
   16.7971   29.0441    4.2950 C   0  0  0  0  0  0  0  0  0  0  0  0
   18.0435   28.9282    5.0069 O   0  0  0  0  0  0  0  0  0  0  0  0
   16.9737   25.5691    5.2987 C   0  0  0  0  0  0  0  0  0  0  0  0
   17.9858   24.9612    6.0714 C   0  0  0  0  0  0  0  0  0  0  0  0
   19.4055   24.0599    9.7313 C   0  0  0  0  0  0  0  0  0  0  0  0
   17.8764   24.1526    9.8476 C   0  0  0  0  0  0  0  0  0  0  0  0
   17.3112   23.5157   11.1237 C   0  0  0  0  0  0  0  0  0  0  0  0
   17.4575   25.6157    9.7409 C   0  0  0  0  0  0  0  0  0  0  0  0
   21.9459   28.2978   11.7220 C   0  0  0  0  0  0  0  0  0  0  0  0
   21.7419   29.6029   12.4754 C   0  0  0  0  0  0  0  0  0  0  0  0
   21.0087   30.6389   11.8944 C   0  0  0  0  0  0  0  0  0  0  0  0
   20.8323   31.8404   12.5619 C   0  0  0  0  0  0  0  0  0  0  0  0
   21.3784   32.0346   13.8230 C   0  0  0  0  0  0  0  0  0  0  0  0
   22.1134   31.0143   14.4085 C   0  0  0  0  0  0  0  0  0  0  0  0
   22.2992   29.7996   13.7386 C   0  0  0  0  0  0  0  0  0  0  0  0
 27 28  2  0  0  0
 28 29  2  0  0  0
 28 30  1  0  0  0
 28 26  1  0  0  0
 30 31  2  0  0  0
 30 38  1  0  0  0
 31 32  1  0  0  0
 32 33  2  0  0  0
 32 36  1  0  0  0
 33 34  1  0  0  0
 33 37  1  0  0  0
 34 35  1  0  0  0
 35 36  1  0  0  0
 37 38  2  0  0  0
 26 39  1  0  0  0
 26 25  1  0  0  0
 39 40  1  0  0  0
 40 41  1  0  0  0
 40 42  1  0  0  0
 25 22  1  0  0  0
 22 23  1  0  0  0
 22  1  1  0  0  0
  1 43  1  0  0  0
  1  2  1  0  0  0
 43 44  1  0  0  0
 44 45  2  0  0  0
 44 49  1  0  0  0
 45 46  1  0  0  0
 46 47  2  0  0  0
 47 48  1  0  0  0
 48 49  2  0  0  0
  2  3  1  0  0  0
  3  4  2  0  0  0
  3  6  1  0  0  0
  6  7  1  0  0  0
  6 10  1  0  0  0
  7  8  1  0  0  0
  8  9  2  0  0  0
  8 11  1  0  0  0
 10 11  1  0  0  0
 11 12  1  0  0  0
 12 13  2  0  0  0
 12 16  1  0  0  0
 13 14  1  0  0  0
 14 15  2  0  0  0
 15 17  1  0  0  0
 16 17  2  0  0  0
 17 18  1  0  0  0
 18 19  1  0  0  0
 18 20  1  0  0  0
 18 21  1  0  0  0
 23 24  1  0  0  0
  2  5  1  0  0  0
M  END
> <minimizedAffinity>
-9.33735

$$$$
3GI4_K60_A_200


 49 53  0  0  0  0  0  0  0  0999 V2000
   22.2458   29.0538   12.2124 C   0  0  0  0  0  0  0  0  0  0  0  0
   22.0687   29.6768   13.5276 N   0  0  0  0  0  0  0  0  0  0  0  0
   21.7473   30.9666   13.6987 C   0  0  0  0  0  0  0  0  0  0  0  0
   21.4814   31.7609   12.7993 O   0  0  0  0  0  0  0  0  0  0  0  0
   22.1925   29.1176   14.3283 H   0  0  0  0  0  0  0  0  0  0  0  0
   21.7565   31.4892   15.1072 C   0  0  0  0  0  0  0  0  0  0  0  0
   22.5137   32.6920   15.3084 O   0  0  0  0  0  0  0  0  0  0  0  0
   21.6605   33.6152   16.0257 C   0  0  0  0  0  0  0  0  0  0  0  0
   22.1400   34.6277   16.4972 O   0  0  0  0  0  0  0  0  0  0  0  0
   20.2941   31.8603   15.4162 C   0  0  0  0  0  0  0  0  0  0  0  0
   20.4139   33.1459   16.0835 N   0  0  0  0  0  0  0  0  0  0  0  0
   19.3027   33.7402   16.7261 C   0  0  0  0  0  0  0  0  0  0  0  0
   19.4660   34.5745   17.8357 C   0  0  0  0  0  0  0  0  0  0  0  0
   18.3639   35.1488   18.4641 C   0  0  0  0  0  0  0  0  0  0  0  0
   17.0763   34.8798   18.0159 C   0  0  0  0  0  0  0  0  0  0  0  0
   17.9958   33.4744   16.2851 C   0  0  0  0  0  0  0  0  0  0  0  0
   16.8858   34.0470   16.9123 C   0  0  0  0  0  0  0  0  0  0  0  0
   15.4916   33.7531   16.4099 C   0  0  0  0  0  0  0  0  0  0  0  0
   14.6140   34.6260   16.8615 F   0  0  0  0  0  0  0  0  0  0  0  0
   15.0862   32.5863   16.8298 F   0  0  0  0  0  0  0  0  0  0  0  0
   15.4792   33.7469   15.0894 F   0  0  0  0  0  0  0  0  0  0  0  0
   20.9497   28.6830   11.4869 C   0  0  0  0  0  0  0  0  0  0  0  0
   20.1925   29.8179   11.0219 O   0  0  0  0  0  0  0  0  0  0  0  0
   19.9061   30.3487   11.7816 H   0  0  0  0  0  0  0  0  0  0  0  0
   20.0547   27.8584   12.4224 C   0  0  0  0  0  0  0  0  0  0  0  0
   18.7519   27.6011   11.7864 N   0  0  0  0  0  0  0  0  0  0  0  0
   17.3504   25.6735   11.1107 O   0  0  0  0  0  0  0  0  0  0  0  0
   18.6683   26.2131   10.9470 S   0  0  0  0  0  0  0  0  0  0  0  0
   19.6896   25.3571   11.5022 O   0  0  0  0  0  0  0  0  0  0  0  0
   18.9505   26.4767    9.3688 C   0  0  0  0  0  0  0  0  0  0  0  0
   18.1504   27.3644    8.6287 C   0  0  0  0  0  0  0  0  0  0  0  0
   18.4128   27.5389    7.2636 C   0  0  0  0  0  0  0  0  0  0  0  0
   19.4246   26.8535    6.6332 C   0  0  0  0  0  0  0  0  0  0  0  0
   19.4658   27.1864    5.3094 O   0  0  0  0  0  0  0  0  0  0  0  0
   18.3878   28.1205    5.0677 C   0  0  0  0  0  0  0  0  0  0  0  0
   17.7822   28.3378    6.3560 O   0  0  0  0  0  0  0  0  0  0  0  0
   20.2238   25.9712    7.3313 C   0  0  0  0  0  0  0  0  0  0  0  0
   19.9774   25.7838    8.7079 C   0  0  0  0  0  0  0  0  0  0  0  0
   17.6025   27.7902   12.7111 C   0  0  0  0  0  0  0  0  0  0  0  0
   16.9362   29.1545   12.4766 C   0  0  0  0  0  0  0  0  0  0  0  0
   17.7206   30.3368   13.0601 C   0  0  0  0  0  0  0  0  0  0  0  0
   16.7039   29.3438   10.9808 C   0  0  0  0  0  0  0  0  0  0  0  0
   23.1450   27.8538   12.5343 C   0  0  0  0  0  0  0  0  0  0  0  0
   23.4547   27.0862   11.2586 C   0  0  0  0  0  0  0  0  0  0  0  0
   22.9511   25.7970   11.0781 C   0  0  0  0  0  0  0  0  0  0  0  0
   23.2423   25.0790    9.9291 C   0  0  0  0  0  0  0  0  0  0  0  0
   24.0373   25.6306    8.9341 C   0  0  0  0  0  0  0  0  0  0  0  0
   24.5478   26.9091    9.1043 C   0  0  0  0  0  0  0  0  0  0  0  0
   24.2613   27.6385   10.2640 C   0  0  0  0  0  0  0  0  0  0  0  0
 27 28  2  0  0  0
 28 29  2  0  0  0
 28 30  1  0  0  0
 28 26  1  0  0  0
 30 31  2  0  0  0
 30 38  1  0  0  0
 31 32  1  0  0  0
 32 33  2  0  0  0
 32 36  1  0  0  0
 33 34  1  0  0  0
 33 37  1  0  0  0
 34 35  1  0  0  0
 35 36  1  0  0  0
 37 38  2  0  0  0
 26 39  1  0  0  0
 26 25  1  0  0  0
 39 40  1  0  0  0
 40 41  1  0  0  0
 40 42  1  0  0  0
 25 22  1  0  0  0
 22 23  1  0  0  0
 22  1  1  0  0  0
  1 43  1  0  0  0
  1  2  1  0  0  0
 43 44  1  0  0  0
 44 45  2  0  0  0
 44 49  1  0  0  0
 45 46  1  0  0  0
 46 47  2  0  0  0
 47 48  1  0  0  0
 48 49  2  0  0  0
  2  3  1  0  0  0
  3  4  2  0  0  0
  3  6  1  0  0  0
  6  7  1  0  0  0
  6 10  1  0  0  0
  7  8  1  0  0  0
  8  9  2  0  0  0
  8 11  1  0  0  0
 10 11  1  0  0  0
 11 12  1  0  0  0
 12 13  2  0  0  0
 12 16  1  0  0  0
 13 14  1  0  0  0
 14 15  2  0  0  0
 15 17  1  0  0  0
 16 17  2  0  0  0
 17 18  1  0  0  0
 18 19  1  0  0  0
 18 20  1  0  0  0
 18 21  1  0  0  0
 23 24  1  0  0  0
  2  5  1  0  0  0
M  END
> <minimizedAffinity>
-9.31668

$$$$
3GI4_K60_A_200


 49 53  0  0  0  0  0  0  0  0999 V2000
   20.2161   28.5813   11.9703 C   0  0  0  0  0  0  0  0  0  0  0  0
   19.6556   28.1569   10.6839 N   0  0  0  0  0  0  0  0  0  0  0  0
   18.6382   27.2922   10.5685 C   0  0  0  0  0  0  0  0  0  0  0  0
   17.9982   26.8150   11.5029 O   0  0  0  0  0  0  0  0  0  0  0  0
   20.0477   28.5272    9.8602 H   0  0  0  0  0  0  0  0  0  0  0  0
   18.2837   26.8397    9.1805 C   0  0  0  0  0  0  0  0  0  0  0  0
   18.0443   27.8939    8.2360 O   0  0  0  0  0  0  0  0  0  0  0  0
   18.8353   27.5979    7.0607 C   0  0  0  0  0  0  0  0  0  0  0  0
   18.6471   28.2302    6.0398 O   0  0  0  0  0  0  0  0  0  0  0  0
   19.5262   26.0908    8.6636 C   0  0  0  0  0  0  0  0  0  0  0  0
   19.6678   26.5854    7.3043 N   0  0  0  0  0  0  0  0  0  0  0  0
   20.5744   25.9839    6.4003 C   0  0  0  0  0  0  0  0  0  0  0  0
   20.1882   25.6490    5.0993 C   0  0  0  0  0  0  0  0  0  0  0  0
   21.0878   25.0512    4.2202 C   0  0  0  0  0  0  0  0  0  0  0  0
   22.3810   24.7501    4.6303 C   0  0  0  0  0  0  0  0  0  0  0  0
   21.8835   25.6717    6.8027 C   0  0  0  0  0  0  0  0  0  0  0  0
   22.7905   25.0708    5.9253 C   0  0  0  0  0  0  0  0  0  0  0  0
   24.1962   24.7564    6.3810 C   0  0  0  0  0  0  0  0  0  0  0  0
   25.0570   24.8073    5.3847 F   0  0  0  0  0  0  0  0  0  0  0  0
   24.2671   23.5430    6.8550 F   0  0  0  0  0  0  0  0  0  0  0  0
   24.5613   25.5963    7.3324 F   0  0  0  0  0  0  0  0  0  0  0  0
   19.3685   29.5904   12.7495 C   0  0  0  0  0  0  0  0  0  0  0  0
   18.7653   30.6087   11.9269 O   0  0  0  0  0  0  0  0  0  0  0  0
   19.4605   31.1413   11.5098 H   0  0  0  0  0  0  0  0  0  0  0  0
   20.2371   30.2810   13.8100 C   0  0  0  0  0  0  0  0  0  0  0  0
   19.5867   31.5169   14.2766 N   0  0  0  0  0  0  0  0  0  0  0  0
   19.0749   30.7173   16.5646 O   0  0  0  0  0  0  0  0  0  0  0  0
   18.4477   31.2973   15.4135 S   0  0  0  0  0  0  0  0  0  0  0  0
   17.4645   30.4229   14.8195 O   0  0  0  0  0  0  0  0  0  0  0  0
   17.7662   32.7131   15.8269 C   0  0  0  0  0  0  0  0  0  0  0  0
   17.8129   33.1793   17.1523 C   0  0  0  0  0  0  0  0  0  0  0  0
   17.1869   34.3921   17.4685 C   0  0  0  0  0  0  0  0  0  0  0  0
   16.5203   35.1263   16.5159 C   0  0  0  0  0  0  0  0  0  0  0  0
   15.9885   36.2527   17.0757 O   0  0  0  0  0  0  0  0  0  0  0  0
   16.3054   36.2214   18.4870 C   0  0  0  0  0  0  0  0  0  0  0  0
   17.1046   35.0371   18.6671 O   0  0  0  0  0  0  0  0  0  0  0  0
   16.4523   34.6925   15.2074 C   0  0  0  0  0  0  0  0  0  0  0  0
   17.0791   33.4747   14.8682 C   0  0  0  0  0  0  0  0  0  0  0  0
   20.5544   32.5913   14.6245 C   0  0  0  0  0  0  0  0  0  0  0  0
   21.8441   31.9924   15.2062 C   0  0  0  0  0  0  0  0  0  0  0  0
   23.1122   32.3840   14.4368 C   0  0  0  0  0  0  0  0  0  0  0  0
   21.9576   32.3883   16.6751 C   0  0  0  0  0  0  0  0  0  0  0  0
   21.5999   29.1073   11.5699 C   0  0  0  0  0  0  0  0  0  0  0  0
   22.5593   27.9421   11.3844 C   0  0  0  0  0  0  0  0  0  0  0  0
   23.7530   27.8969   12.1064 C   0  0  0  0  0  0  0  0  0  0  0  0
   24.6452   26.8510   11.9319 C   0  0  0  0  0  0  0  0  0  0  0  0
   24.3662   25.8262   11.0385 C   0  0  0  0  0  0  0  0  0  0  0  0
   23.1854   25.8627   10.3114 C   0  0  0  0  0  0  0  0  0  0  0  0
   22.2816   26.9181   10.4793 C   0  0  0  0  0  0  0  0  0  0  0  0
 27 28  2  0  0  0
 28 29  2  0  0  0
 28 30  1  0  0  0
 28 26  1  0  0  0
 30 31  2  0  0  0
 30 38  1  0  0  0
 31 32  1  0  0  0
 32 33  2  0  0  0
 32 36  1  0  0  0
 33 34  1  0  0  0
 33 37  1  0  0  0
 34 35  1  0  0  0
 35 36  1  0  0  0
 37 38  2  0  0  0
 26 39  1  0  0  0
 26 25  1  0  0  0
 39 40  1  0  0  0
 40 41  1  0  0  0
 40 42  1  0  0  0
 25 22  1  0  0  0
 22 23  1  0  0  0
 22  1  1  0  0  0
  1 43  1  0  0  0
  1  2  1  0  0  0
 43 44  1  0  0  0
 44 45  2  0  0  0
 44 49  1  0  0  0
 45 46  1  0  0  0
 46 47  2  0  0  0
 47 48  1  0  0  0
 48 49  2  0  0  0
  2  3  1  0  0  0
  3  4  2  0  0  0
  3  6  1  0  0  0
  6  7  1  0  0  0
  6 10  1  0  0  0
  7  8  1  0  0  0
  8  9  2  0  0  0
  8 11  1  0  0  0
 10 11  1  0  0  0
 11 12  1  0  0  0
 12 13  2  0  0  0
 12 16  1  0  0  0
 13 14  1  0  0  0
 14 15  2  0  0  0
 15 17  1  0  0  0
 16 17  2  0  0  0
 17 18  1  0  0  0
 18 19  1  0  0  0
 18 20  1  0  0  0
 18 21  1  0  0  0
 23 24  1  0  0  0
  2  5  1  0  0  0
M  END
> <minimizedAffinity>
-9.31247

$$$$
3GI4_K60_A_200


 49 53  0  0  0  0  0  0  0  0999 V2000
   19.4186   25.4315    9.6620 C   0  0  0  0  0  0  0  0  0  0  0  0
   19.2170   25.4337    8.2099 N   0  0  0  0  0  0  0  0  0  0  0  0
   19.2197   26.5469    7.4637 C   0  0  0  0  0  0  0  0  0  0  0  0
   19.4692   27.6789    7.8721 O   0  0  0  0  0  0  0  0  0  0  0  0
   19.0719   24.5708    7.7586 H   0  0  0  0  0  0  0  0  0  0  0  0
   18.8438   26.3972    6.0169 C   0  0  0  0  0  0  0  0  0  0  0  0
   17.7057   25.5597    5.7642 O   0  0  0  0  0  0  0  0  0  0  0  0
   16.8198   26.3001    4.8914 C   0  0  0  0  0  0  0  0  0  0  0  0
   15.8847   25.7285    4.3658 O   0  0  0  0  0  0  0  0  0  0  0  0
   18.4355   27.8073    5.5514 C   0  0  0  0  0  0  0  0  0  0  0  0
   17.2316   27.5628    4.7749 N   0  0  0  0  0  0  0  0  0  0  0  0
   16.6524   28.5845    3.9865 C   0  0  0  0  0  0  0  0  0  0  0  0
   16.5775   28.4739    2.5951 C   0  0  0  0  0  0  0  0  0  0  0  0
   16.0109   29.4893    1.8287 C   0  0  0  0  0  0  0  0  0  0  0  0
   15.5338   30.6466    2.4323 C   0  0  0  0  0  0  0  0  0  0  0  0
   16.1690   29.7605    4.5835 C   0  0  0  0  0  0  0  0  0  0  0  0
   15.6002   30.7835    3.8195 C   0  0  0  0  0  0  0  0  0  0  0  0
   15.0776   32.0331    4.4888 C   0  0  0  0  0  0  0  0  0  0  0  0
   14.0425   32.5361    3.8473 F   0  0  0  0  0  0  0  0  0  0  0  0
   15.9867   32.9688    4.4932 F   0  0  0  0  0  0  0  0  0  0  0  0
   14.7455   31.7704    5.7396 F   0  0  0  0  0  0  0  0  0  0  0  0
   20.2844   24.2883   10.1982 C   0  0  0  0  0  0  0  0  0  0  0  0
   19.5767   23.3670   11.0513 O   0  0  0  0  0  0  0  0  0  0  0  0
   19.2663   23.8330   11.8434 H   0  0  0  0  0  0  0  0  0  0  0  0
   21.4660   24.8659   10.9896 C   0  0  0  0  0  0  0  0  0  0  0  0
   22.4101   25.5365   10.0803 N   0  0  0  0  0  0  0  0  0  0  0  0
   24.2641   27.1542    9.7941 O   0  0  0  0  0  0  0  0  0  0  0  0
   23.3885   26.6185   10.7946 S   0  0  0  0  0  0  0  0  0  0  0  0
   24.0985   25.8890   11.8182 O   0  0  0  0  0  0  0  0  0  0  0  0
   22.5259   27.8251   11.4580 C   0  0  0  0  0  0  0  0  0  0  0  0
   22.7899   28.2700   12.7651 C   0  0  0  0  0  0  0  0  0  0  0  0
   22.0017   29.2940   13.3064 C   0  0  0  0  0  0  0  0  0  0  0  0
   20.9722   29.8617   12.5932 C   0  0  0  0  0  0  0  0  0  0  0  0
   20.3525   30.8207   13.3422 O   0  0  0  0  0  0  0  0  0  0  0  0
   21.0054   30.8458   14.6331 C   0  0  0  0  0  0  0  0  0  0  0  0
   22.0723   29.8836   14.5339 O   0  0  0  0  0  0  0  0  0  0  0  0
   20.6850   29.4429   11.3099 C   0  0  0  0  0  0  0  0  0  0  0  0
   21.4693   28.4145   10.7456 C   0  0  0  0  0  0  0  0  0  0  0  0
   23.1394   24.5911    9.1937 C   0  0  0  0  0  0  0  0  0  0  0  0
   22.8048   24.8625    7.7189 C   0  0  0  0  0  0  0  0  0  0  0  0
   24.0156   25.2800    6.8745 C   0  0  0  0  0  0  0  0  0  0  0  0
   22.1310   23.6284    7.1268 C   0  0  0  0  0  0  0  0  0  0  0  0
   17.9804   25.4266   10.1947 C   0  0  0  0  0  0  0  0  0  0  0  0
   17.6994   26.7283   10.9289 C   0  0  0  0  0  0  0  0  0  0  0  0
   17.2018   27.8310   10.2326 C   0  0  0  0  0  0  0  0  0  0  0  0
   16.9603   29.0291   10.8859 C   0  0  0  0  0  0  0  0  0  0  0  0
   17.2052   29.1535   12.2463 C   0  0  0  0  0  0  0  0  0  0  0  0
   17.7047   28.0662   12.9481 C   0  0  0  0  0  0  0  0  0  0  0  0
   17.9549   26.8544   12.2941 C   0  0  0  0  0  0  0  0  0  0  0  0
 27 28  2  0  0  0
 28 29  2  0  0  0
 28 30  1  0  0  0
 28 26  1  0  0  0
 30 31  2  0  0  0
 30 38  1  0  0  0
 31 32  1  0  0  0
 32 33  2  0  0  0
 32 36  1  0  0  0
 33 34  1  0  0  0
 33 37  1  0  0  0
 34 35  1  0  0  0
 35 36  1  0  0  0
 37 38  2  0  0  0
 26 39  1  0  0  0
 26 25  1  0  0  0
 39 40  1  0  0  0
 40 41  1  0  0  0
 40 42  1  0  0  0
 25 22  1  0  0  0
 22 23  1  0  0  0
 22  1  1  0  0  0
  1 43  1  0  0  0
  1  2  1  0  0  0
 43 44  1  0  0  0
 44 45  2  0  0  0
 44 49  1  0  0  0
 45 46  1  0  0  0
 46 47  2  0  0  0
 47 48  1  0  0  0
 48 49  2  0  0  0
  2  3  1  0  0  0
  3  4  2  0  0  0
  3  6  1  0  0  0
  6  7  1  0  0  0
  6 10  1  0  0  0
  7  8  1  0  0  0
  8  9  2  0  0  0
  8 11  1  0  0  0
 10 11  1  0  0  0
 11 12  1  0  0  0
 12 13  2  0  0  0
 12 16  1  0  0  0
 13 14  1  0  0  0
 14 15  2  0  0  0
 15 17  1  0  0  0
 16 17  2  0  0  0
 17 18  1  0  0  0
 18 19  1  0  0  0
 18 20  1  0  0  0
 18 21  1  0  0  0
 23 24  1  0  0  0
  2  5  1  0  0  0
M  END
> <minimizedAffinity>
-9.27042

$$$$
