3GI4_K60_A_200
  RCSB PDB12061708453D
Coordinates from PDB:3GI4:A:200 Model:1 without hydrogens
 47 51  0  0  0  0            999 V2000
   17.2130   31.4030   14.1340   O 0  0  0  0  0  0  0  0  0  0  0  0
   17.9960   32.4630   14.6980   S 0  0  0  0  0  0  0  0  0  0  0  0
   18.5220   33.3570   13.6940   O 0  0  0  0  0  0  0  0  0  0  0  0
   17.0950   33.2870   15.7700   C 0  0  0  0  0  0  0  0  0  0  0  0
   17.3270   34.6520   16.0130   C 0  0  0  0  0  0  0  0  0  0  0  0
   16.5440   35.3150   16.9670   C 0  0  0  0  0  0  0  0  0  0  0  0
   15.5660   34.6580   17.6760   C 0  0  0  0  0  0  0  0  0  0  0  0
   14.9590   35.5160   18.5480   O 0  0  0  0  0  0  0  0  0  0  0  0
   15.6140   36.7990   18.4140   C 0  0  0  0  0  0  0  0  0  0  0  0
   16.5830   36.6190   17.3640   O 0  0  0  0  0  0  0  0  0  0  0  0
   15.3180   33.3170   17.4640   C 0  0  0  0  0  0  0  0  0  0  0  0
   16.0940   32.6320   16.5050   C 0  0  0  0  0  0  0  0  0  0  0  0
   19.2910   31.8020   15.4220   N 0  0  0  0  0  0  0  0  0  0  0  0
   20.0680   32.7810   16.2280   C 0  0  0  0  0  0  0  0  0  0  0  0
   21.5540   32.3930   16.2680   C 0  0  0  0  0  0  0  0  0  0  0  0
   22.2050   32.2860   14.8830   C 0  0  0  0  0  0  0  0  0  0  0  0
   22.3050   33.3910   17.1440   C 0  0  0  0  0  0  0  0  0  0  0  0
   19.0200   30.5460   16.1410   C 0  0  0  0  0  0  0  0  0  0  0  0
   19.8930   29.4140   15.5820   C 0  0  0  0  0  0  0  0  0  0  0  0
   19.8200   28.2970   16.4900   O 0  0  0  0  0  0  0  0  0  0  0  0
   19.4530   29.0850   14.1530   C 0  0  0  0  0  0  0  0  0  0  0  0
   18.1380   28.3000   14.0710   C 0  0  0  0  0  0  0  0  0  0  0  0
   17.8060   28.0030   12.6170   C 0  0  0  0  0  0  0  0  0  0  0  0
   17.9460   26.7070   12.1180   C 0  0  0  0  0  0  0  0  0  0  0  0
   17.6660   26.4270   10.7900   C 0  0  0  0  0  0  0  0  0  0  0  0
   17.2370   27.4300    9.9320   C 0  0  0  0  0  0  0  0  0  0  0  0
   17.0990   28.7230   10.4150   C 0  0  0  0  0  0  0  0  0  0  0  0
   17.3840   29.0140   11.7540   C 0  0  0  0  0  0  0  0  0  0  0  0
   20.3760   28.2340   13.3960   N 0  0  0  0  0  0  0  0  0  0  0  0
   21.1240   28.6770   12.3760   C 0  0  0  0  0  0  0  0  0  0  0  0
   21.1990   29.8450   12.0010   O 0  0  0  0  0  0  0  0  0  0  0  0
   21.9000   27.6480   11.6040   C 0  0  0  0  0  0  0  0  0  0  0  0
   21.8600   26.3190   12.1450   O 0  0  0  0  0  0  0  0  0  0  0  0
   21.5120   25.4290   11.0580   C 0  0  0  0  0  0  0  0  0  0  0  0
   21.6170   24.2280   11.2130   O 0  0  0  0  0  0  0  0  0  0  0  0
   21.2100   27.5600   10.2300   C 0  0  0  0  0  0  0  0  0  0  0  0
   21.1460   26.1290    9.9840   N 0  0  0  0  0  0  0  0  0  0  0  0
   20.7690   25.6230    8.7180   C 0  0  0  0  0  0  0  0  0  0  0  0
   21.2460   24.3930    8.2560   C 0  0  0  0  0  0  0  0  0  0  0  0
   20.8730   23.9080    7.0050   C 0  0  0  0  0  0  0  0  0  0  0  0
   20.0400   24.6530    6.1790   C 0  0  0  0  0  0  0  0  0  0  0  0
   19.9300   26.3670    7.8720   C 0  0  0  0  0  0  0  0  0  0  0  0
   19.5530   25.8860    6.6150   C 0  0  0  0  0  0  0  0  0  0  0  0
   18.6400   26.7020    5.7300   C 0  0  0  0  0  0  0  0  0  0  0  0
   17.3890   26.6550    6.1410   F 0  0  0  0  0  0  0  0  0  0  0  0
   18.6360   26.2320    4.5130   F 0  0  0  0  0  0  0  0  0  0  0  0
   19.0520   27.9560    5.6900   F 0  0  0  0  0  0  0  0  0  0  0  0
  1  2  2  0  0  0  0
  2  3  2  0  0  0  0
  2  4  1  0  0  0  0
  2 13  1  0  0  0  0
  4  5  2  0  0  0  0
  4 12  1  0  0  0  0
  5  6  1  0  0  0  0
  6  7  2  0  0  0  0
  6 10  1  0  0  0  0
  7  8  1  0  0  0  0
  7 11  1  0  0  0  0
  8  9  1  0  0  0  0
  9 10  1  0  0  0  0
 11 12  2  0  0  0  0
 13 14  1  0  0  0  0
 13 18  1  0  0  0  0
 14 15  1  0  0  0  0
 15 16  1  0  0  0  0
 15 17  1  0  0  0  0
 18 19  1  0  0  0  0
 19 20  1  0  0  0  0
 19 21  1  0  0  0  0
 21 22  1  0  0  0  0
 21 29  1  0  0  0  0
 22 23  1  0  0  0  0
 23 24  2  0  0  0  0
 23 28  1  0  0  0  0
 24 25  1  0  0  0  0
 25 26  2  0  0  0  0
 26 27  1  0  0  0  0
 27 28  2  0  0  0  0
 29 30  1  0  0  0  0
 30 31  2  0  0  0  0
 30 32  1  0  0  0  0
 32 33  1  0  0  0  0
 32 36  1  0  0  0  0
 33 34  1  0  0  0  0
 34 35  2  0  0  0  0
 34 37  1  0  0  0  0
 36 37  1  0  0  0  0
 37 38  1  0  0  0  0
 38 39  2  0  0  0  0
 38 42  1  0  0  0  0
 39 40  1  0  0  0  0
 40 41  2  0  0  0  0
 41 43  1  0  0  0  0
 42 43  2  0  0  0  0
 43 44  1  0  0  0  0
 44 45  1  0  0  0  0
 44 46  1  0  0  0  0
 44 47  1  0  0  0  0
A    1
O10
A    2
S8
A    3
O9
A    4
C5
A    5
C4
A    6
C3
A    7
C2
A    8
O19
A    9
C18
A   10
O29
A   11
C7
A   12
C6
A   13
N11
A   14
C12
A   15
C13
A   16
C14
A   17
C15
A   18
C16
A   19
C17
A   20
O18
A   21
C19
A   22
C32
A   23
C38
A   24
C33
A   25
C34
A   26
C35
A   27
C36
A   28
C37
A   29
N20
A   30
C21
A   31
O22
A   32
C29
A   33
O28
A   34
C26
A   35
O27
A   36
C25
A   37
N24
A   38
C43
A   39
C44
A   40
C45
A   41
C40
A   42
C42
A   43
C41
A   44
C46
A   45
F1
A   46
F2
A   47
F3
M  END
>  <InstanceId>
3GI4_K60_A_200

>  <ChemCompId>
K60

>  <PdbId>
3GI4

>  <ChainId>
A

>  <ResidueNumber>
200

>  <InsertionCode>


>  <Model>
1

>  <AltIds>


>  <MissingHeavyAtoms>
0

>  <ObservedFormula>
C32 N3 O8 S F3

>  <Name>
5S)-N-[(1S,2R)-3-[(1,3-Benzodioxol-5-ylsulfonyl)(2-methylpropyl)amino]-2-hydroxy-1-(phenylmethyl)propyl]-2-oxo-3-[3-(trifluoromethyl)phenyl]-5-oxazolidinecarboxamide

>  <SystematicName>
(5S)-N-[(2S,3R)-4-(1,3-benzodioxol-5-ylsulfonyl-(2-methylpropyl)amino)-3-hydroxy-1-phenyl-butan-2-yl]-2-oxo-3-[3-(trifluoromethyl)phenyl]-1,3-oxazolidine-5-carboxamide

>  <Synonyms>
(5S)-N-{(1S,2R)-3-[(1,3-benzodioxol-5-ylsulfonyl)(2-methylpropyl)amino]-1-benzyl-2-hydroxypropyl}-2-oxo-3-[3-(trifluoromethyl)phenyl]-1,3-oxazolidine-5-carboxamide

>  <Type>
NON-POLYMER

>  <Formula>
C32 H34 F3 N3 O8 S

>  <MolecularWeight>
677.688

>  <ModifiedDate>
2011-06-04

>  <Parent>


>  <OneLetterCode>


>  <SubcomponentList>


>  <AmbiguousFlag>
N

>  <InChI>
InChI=1S/C32H34F3N3O8S/c1-20(2)16-37(47(42,43)24-11-12-27-28(15-24)45-19-44-27)17-26(39)25(13-21-7-4-3-5-8-21)36-30(40)29-18-38(31(41)46-29)23-10-6-9-22(14-23)32(33,34)35/h3-12,14-15,20,25-26,29,39H,13,16-19H2,1-2H3,(H,36,40)/t25-,26+,29-/m0/s1

>  <InChIKey>
IAINWMUGEQGIGE-HFASVGIHSA-N

>  <SMILES>
CC(C)C[N@@](C[C@H]([C@H](Cc1ccccc1)NC(=O)[C@@H]2CN(C(=O)O2)c3cccc(c3)C(F)(F)F)O)S(=O)(=O)c4ccc5c(c4)OCO5

$$$$
