4UOH_ADP_B_1152


 34 36  0  0  0  0  0  0  0  0999 V2000
    9.9908  -15.5517    5.6134 C   0  0  0  0  0  0  0  0  0  0  0  0
    9.7491  -14.2306    5.2532 O   0  0  0  0  0  0  0  0  0  0  0  0
    8.6627  -16.1772    5.9582 C   0  0  0  0  0  0  0  0  0  0  0  0
    8.7157  -17.2610    6.8138 O   0  0  0  0  0  0  0  0  0  0  0  0
    7.9559  -15.0217    6.5451 C   0  0  0  0  0  0  0  0  0  0  0  0
    8.2056  -14.9360    7.8984 O   0  0  0  0  0  0  0  0  0  0  0  0
    8.5879  -13.8238    5.8919 C   0  0  0  0  0  0  0  0  0  0  0  0
    9.1341  -16.9946    7.6474 H   0  0  0  0  0  0  0  0  0  0  0  0
    9.1617  -14.8680    8.0471 H   0  0  0  0  0  0  0  0  0  0  0  0
    7.6450  -13.3811    4.8982 N   0  0  0  0  0  0  0  0  0  0  0  0
    7.4737  -13.9420    3.7184 C   0  0  0  0  0  0  0  0  0  0  0  0
    6.5335  -13.3367    3.0315 N   0  0  0  0  0  0  0  0  0  0  0  0
    6.0972  -12.3719    3.7903 C   0  0  0  0  0  0  0  0  0  0  0  0
    5.0711  -11.3644    3.6506 C   0  0  0  0  0  0  0  0  0  0  0  0
    4.3600  -11.2798    2.5347 N   0  0  0  0  0  0  0  0  0  0  0  0
    4.9085  -10.5623    4.6513 N   0  0  0  0  0  0  0  0  0  0  0  0
    5.6285  -10.6936    5.7470 C   0  0  0  0  0  0  0  0  0  0  0  0
    6.5738  -11.5708    5.9627 N   0  0  0  0  0  0  0  0  0  0  0  0
    6.8261  -12.4228    5.0307 C   0  0  0  0  0  0  0  0  0  0  0  0
    4.5207  -11.9143    1.7993 H   0  0  0  0  0  0  0  0  0  0  0  0
    3.6714  -10.5824    2.4415 H   0  0  0  0  0  0  0  0  0  0  0  0
   10.7615  -16.2590    4.5208 C   0  0  0  0  0  0  0  0  0  0  0  0
   10.3070  -17.5347    4.3072 O   0  0  0  0  0  0  0  0  0  0  0  0
   11.1461  -18.7333    3.9511 P   0  0  0  0  0  0  0  0  0  0  0  0
   10.2031  -19.7508    3.6328 O   0  0  0  0  0  0  0  0  0  0  0  0
   12.0631  -18.2856    2.9346 O   0  0  0  0  0  0  0  0  0  0  0  0
   12.6328  -19.0232    2.6656 H   0  0  0  0  0  0  0  0  0  0  0  0
   11.8661  -19.1954    5.2346 O   0  0  0  0  0  0  0  0  0  0  0  0
   11.3163  -19.4854    6.6198 P   0  0  0  0  0  0  0  0  0  0  0  0
   11.4368  -18.2860    7.2970 O   0  0  0  0  0  0  0  0  0  0  0  0
    9.9780  -19.9217    6.4833 O   0  0  0  0  0  0  0  0  0  0  0  0
   12.1722  -20.4932    7.1556 O   0  0  0  0  0  0  0  0  0  0  0  0
    9.6090  -20.1122    7.3599 H   0  0  0  0  0  0  0  0  0  0  0  0
   11.8752  -20.7283    8.0486 H   0  0  0  0  0  0  0  0  0  0  0  0
 29 30  2  0  0  0
 29 31  1  0  0  0
 29 32  1  0  0  0
 29 28  1  0  0  0
 24 25  2  0  0  0
 24 26  1  0  0  0
 24 28  1  0  0  0
 24 23  1  0  0  0
 23 22  1  0  0  0
 22  1  1  0  0  0
  1  2  1  0  0  0
  1  3  1  0  0  0
  2  7  1  0  0  0
  3  4  1  0  0  0
  3  5  1  0  0  0
  5  6  1  0  0  0
  5  7  1  0  0  0
  7 10  1  0  0  0
 10 11  1  0  0  0
 10 19  1  0  0  0
 11 12  2  0  0  0
 12 13  1  0  0  0
 13 14  1  0  0  0
 13 19  2  0  0  0
 14 15  1  0  0  0
 14 16  2  0  0  0
 16 17  1  0  0  0
 17 18  2  0  0  0
 18 19  1  0  0  0
 31 33  1  0  0  0
 32 34  1  0  0  0
 26 27  1  0  0  0
  4  8  1  0  0  0
  6  9  1  0  0  0
 15 20  1  0  0  0
 15 21  1  0  0  0
M  END
> <minimizedAffinity>
-8.83436

$$$$
4UOH_ADP_B_1152


 34 36  0  0  0  0  0  0  0  0999 V2000
    9.8385  -14.5965    6.2408 C   0  0  0  0  0  0  0  0  0  0  0  0
    9.5167  -13.3575    5.6978 O   0  0  0  0  0  0  0  0  0  0  0  0
    8.5449  -15.2820    6.6024 C   0  0  0  0  0  0  0  0  0  0  0  0
    8.6318  -16.2388    7.5955 O   0  0  0  0  0  0  0  0  0  0  0  0
    7.7182  -14.1242    6.9970 C   0  0  0  0  0  0  0  0  0  0  0  0
    7.8819  -13.8451    8.3372 O   0  0  0  0  0  0  0  0  0  0  0  0
    8.2926  -12.9712    6.2214 C   0  0  0  0  0  0  0  0  0  0  0  0
    8.9795  -15.8335    8.4053 H   0  0  0  0  0  0  0  0  0  0  0  0
    8.8197  -13.6784    8.5206 H   0  0  0  0  0  0  0  0  0  0  0  0
    7.3774  -12.7404    5.1344 N   0  0  0  0  0  0  0  0  0  0  0  0
    7.3240  -13.4552    4.0289 C   0  0  0  0  0  0  0  0  0  0  0  0
    6.3796  -13.0258    3.2252 N   0  0  0  0  0  0  0  0  0  0  0  0
    5.8203  -12.0180    3.8324 C   0  0  0  0  0  0  0  0  0  0  0  0
    4.7245  -11.1315    3.5151 C   0  0  0  0  0  0  0  0  0  0  0  0
    4.0768  -11.2488    2.3641 N   0  0  0  0  0  0  0  0  0  0  0  0
    4.4365  -10.2302    4.3961 N   0  0  0  0  0  0  0  0  0  0  0  0
    5.0981  -10.1607    5.5334 C   0  0  0  0  0  0  0  0  0  0  0  0
    6.0982  -10.9164    5.9054 N   0  0  0  0  0  0  0  0  0  0  0  0
    6.4754  -11.8504    5.1032 C   0  0  0  0  0  0  0  0  0  0  0  0
    4.3331  -11.9520    1.7245 H   0  0  0  0  0  0  0  0  0  0  0  0
    3.3396  -10.6328    2.1491 H   0  0  0  0  0  0  0  0  0  0  0  0
   10.7233  -15.3707    5.2892 C   0  0  0  0  0  0  0  0  0  0  0  0
   10.6785  -16.7212    5.5211 O   0  0  0  0  0  0  0  0  0  0  0  0
   11.6546  -17.5181    6.3456 P   0  0  0  0  0  0  0  0  0  0  0  0
   12.9134  -17.3081    5.7153 O   0  0  0  0  0  0  0  0  0  0  0  0
   11.4713  -17.0816    7.7060 O   0  0  0  0  0  0  0  0  0  0  0  0
   12.0797  -17.5660    8.2857 H   0  0  0  0  0  0  0  0  0  0  0  0
   11.3168  -19.0108    6.1531 O   0  0  0  0  0  0  0  0  0  0  0  0
    9.9878  -19.6896    5.8739 P   0  0  0  0  0  0  0  0  0  0  0  0
   10.1433  -20.9705    6.3708 O   0  0  0  0  0  0  0  0  0  0  0  0
    8.9692  -18.9546    6.5239 O   0  0  0  0  0  0  0  0  0  0  0  0
    9.8553  -19.6767    4.4535 O   0  0  0  0  0  0  0  0  0  0  0  0
    8.1108  -19.3741    6.3566 H   0  0  0  0  0  0  0  0  0  0  0  0
    9.0190  -20.0995    4.2029 H   0  0  0  0  0  0  0  0  0  0  0  0
 29 30  2  0  0  0
 29 31  1  0  0  0
 29 32  1  0  0  0
 29 28  1  0  0  0
 24 25  2  0  0  0
 24 26  1  0  0  0
 24 28  1  0  0  0
 24 23  1  0  0  0
 23 22  1  0  0  0
 22  1  1  0  0  0
  1  2  1  0  0  0
  1  3  1  0  0  0
  2  7  1  0  0  0
  3  4  1  0  0  0
  3  5  1  0  0  0
  5  6  1  0  0  0
  5  7  1  0  0  0
  7 10  1  0  0  0
 10 11  1  0  0  0
 10 19  1  0  0  0
 11 12  2  0  0  0
 12 13  1  0  0  0
 13 14  1  0  0  0
 13 19  2  0  0  0
 14 15  1  0  0  0
 14 16  2  0  0  0
 16 17  1  0  0  0
 17 18  2  0  0  0
 18 19  1  0  0  0
 31 33  1  0  0  0
 32 34  1  0  0  0
 26 27  1  0  0  0
  4  8  1  0  0  0
  6  9  1  0  0  0
 15 20  1  0  0  0
 15 21  1  0  0  0
M  END
> <minimizedAffinity>
-8.70486

$$$$
4UOH_ADP_B_1152


 34 36  0  0  0  0  0  0  0  0999 V2000
    9.7299  -14.6073    6.6581 C   0  0  0  0  0  0  0  0  0  0  0  0
    9.8413  -14.0474    5.3902 O   0  0  0  0  0  0  0  0  0  0  0  0
    8.2614  -14.8053    6.9380 C   0  0  0  0  0  0  0  0  0  0  0  0
    7.9062  -14.8421    8.2728 O   0  0  0  0  0  0  0  0  0  0  0  0
    7.6847  -13.6474    6.2265 C   0  0  0  0  0  0  0  0  0  0  0  0
    7.6379  -12.5443    7.0522 O   0  0  0  0  0  0  0  0  0  0  0  0
    8.6711  -13.3509    5.1310 C   0  0  0  0  0  0  0  0  0  0  0  0
    8.1722  -14.0135    8.7012 H   0  0  0  0  0  0  0  0  0  0  0  0
    8.5308  -12.3427    7.3733 H   0  0  0  0  0  0  0  0  0  0  0  0
    8.0807  -13.8718    3.9258 N   0  0  0  0  0  0  0  0  0  0  0  0
    8.5519  -14.8892    3.2339 C   0  0  0  0  0  0  0  0  0  0  0  0
    7.7973  -15.1521    2.1930 N   0  0  0  0  0  0  0  0  0  0  0  0
    6.8256  -14.2849    2.2241 C   0  0  0  0  0  0  0  0  0  0  0  0
    5.6631  -14.0430    1.4010 C   0  0  0  0  0  0  0  0  0  0  0  0
    5.4345  -14.7852    0.3263 N   0  0  0  0  0  0  0  0  0  0  0  0
    4.8912  -13.0710    1.7623 N   0  0  0  0  0  0  0  0  0  0  0  0
    5.1500  -12.3694    2.8472 C   0  0  0  0  0  0  0  0  0  0  0  0
    6.1722  -12.5157    3.6493 N   0  0  0  0  0  0  0  0  0  0  0  0
    7.0124  -13.4552    3.3856 C   0  0  0  0  0  0  0  0  0  0  0  0
    6.0520  -15.5153    0.0918 H   0  0  0  0  0  0  0  0  0  0  0  0
    4.6473  -14.6062   -0.2372 H   0  0  0  0  0  0  0  0  0  0  0  0
   10.5691  -15.8622    6.7512 C   0  0  0  0  0  0  0  0  0  0  0  0
    9.8436  -16.9409    7.1867 O   0  0  0  0  0  0  0  0  0  0  0  0
   10.0878  -18.3835    6.8304 P   0  0  0  0  0  0  0  0  0  0  0  0
   10.8789  -18.8892    7.9002 O   0  0  0  0  0  0  0  0  0  0  0  0
    8.7884  -18.9562    6.5889 O   0  0  0  0  0  0  0  0  0  0  0  0
    8.8862  -19.8921    6.3534 H   0  0  0  0  0  0  0  0  0  0  0  0
   10.9866  -18.4078    5.5771 O   0  0  0  0  0  0  0  0  0  0  0  0
   10.7921  -19.1030    4.2415 P   0  0  0  0  0  0  0  0  0  0  0  0
   10.1024  -20.2604    4.5520 O   0  0  0  0  0  0  0  0  0  0  0  0
   10.0740  -18.2325    3.3889 O   0  0  0  0  0  0  0  0  0  0  0  0
   12.1104  -19.3738    3.7682 O   0  0  0  0  0  0  0  0  0  0  0  0
    9.9398  -18.6604    2.5288 H   0  0  0  0  0  0  0  0  0  0  0  0
   12.0600  -19.8220    2.9094 H   0  0  0  0  0  0  0  0  0  0  0  0
 29 30  2  0  0  0
 29 31  1  0  0  0
 29 32  1  0  0  0
 29 28  1  0  0  0
 24 25  2  0  0  0
 24 26  1  0  0  0
 24 28  1  0  0  0
 24 23  1  0  0  0
 23 22  1  0  0  0
 22  1  1  0  0  0
  1  2  1  0  0  0
  1  3  1  0  0  0
  2  7  1  0  0  0
  3  4  1  0  0  0
  3  5  1  0  0  0
  5  6  1  0  0  0
  5  7  1  0  0  0
  7 10  1  0  0  0
 10 11  1  0  0  0
 10 19  1  0  0  0
 11 12  2  0  0  0
 12 13  1  0  0  0
 13 14  1  0  0  0
 13 19  2  0  0  0
 14 15  1  0  0  0
 14 16  2  0  0  0
 16 17  1  0  0  0
 17 18  2  0  0  0
 18 19  1  0  0  0
 31 33  1  0  0  0
 32 34  1  0  0  0
 26 27  1  0  0  0
  4  8  1  0  0  0
  6  9  1  0  0  0
 15 20  1  0  0  0
 15 21  1  0  0  0
M  END
> <minimizedAffinity>
-8.33294

$$$$
4UOH_ADP_B_1152


 34 36  0  0  0  0  0  0  0  0999 V2000
    9.4112  -16.4895    6.2884 C   0  0  0  0  0  0  0  0  0  0  0  0
    8.2170  -15.9137    6.7078 O   0  0  0  0  0  0  0  0  0  0  0  0
   10.4078  -15.3745    6.0942 C   0  0  0  0  0  0  0  0  0  0  0  0
   11.4380  -15.6394    5.2123 O   0  0  0  0  0  0  0  0  0  0  0  0
    9.5224  -14.2894    5.6272 C   0  0  0  0  0  0  0  0  0  0  0  0
    9.3844  -14.3317    4.2560 O   0  0  0  0  0  0  0  0  0  0  0  0
    8.1823  -14.6140    6.2269 C   0  0  0  0  0  0  0  0  0  0  0  0
   11.0704  -15.8526    4.3404 H   0  0  0  0  0  0  0  0  0  0  0  0
    9.0371  -15.1983    3.9926 H   0  0  0  0  0  0  0  0  0  0  0  0
    8.0268  -13.7138    7.3395 N   0  0  0  0  0  0  0  0  0  0  0  0
    8.1895  -14.0434    8.6047 C   0  0  0  0  0  0  0  0  0  0  0  0
    8.0008  -13.0142    9.3967 N   0  0  0  0  0  0  0  0  0  0  0  0
    7.7134  -12.0092    8.6193 C   0  0  0  0  0  0  0  0  0  0  0  0
    7.4259  -10.6111    8.8431 C   0  0  0  0  0  0  0  0  0  0  0  0
    7.3897  -10.1214   10.0748 N   0  0  0  0  0  0  0  0  0  0  0  0
    7.1959   -9.8929    7.7931 N   0  0  0  0  0  0  0  0  0  0  0  0
    7.2577  -10.4196    6.5869 C   0  0  0  0  0  0  0  0  0  0  0  0
    7.5098  -11.6675    6.2890 N   0  0  0  0  0  0  0  0  0  0  0  0
    7.7526  -12.4789    7.2591 C   0  0  0  0  0  0  0  0  0  0  0  0
    7.5722  -10.7086   10.8436 H   0  0  0  0  0  0  0  0  0  0  0  0
    7.1803   -9.1705   10.2205 H   0  0  0  0  0  0  0  0  0  0  0  0
    9.8428  -17.5651    7.2602 C   0  0  0  0  0  0  0  0  0  0  0  0
    9.8322  -18.8128    6.6921 O   0  0  0  0  0  0  0  0  0  0  0  0
   11.0159  -19.5380    6.1085 P   0  0  0  0  0  0  0  0  0  0  0  0
   12.0362  -18.5494    6.0213 O   0  0  0  0  0  0  0  0  0  0  0  0
   11.2267  -20.6896    6.9476 O   0  0  0  0  0  0  0  0  0  0  0  0
   11.9833  -21.1976    6.6155 H   0  0  0  0  0  0  0  0  0  0  0  0
   10.6581  -19.9212    4.6578 O   0  0  0  0  0  0  0  0  0  0  0  0
   11.0874  -19.2971    3.3421 P   0  0  0  0  0  0  0  0  0  0  0  0
   10.2713  -19.8900    2.3964 O   0  0  0  0  0  0  0  0  0  0  0  0
   10.9118  -17.8970    3.4372 O   0  0  0  0  0  0  0  0  0  0  0  0
   12.4548  -19.6711    3.1821 O   0  0  0  0  0  0  0  0  0  0  0  0
   11.1815  -17.4800    2.6040 H   0  0  0  0  0  0  0  0  0  0  0  0
   12.7961  -19.3019    2.3526 H   0  0  0  0  0  0  0  0  0  0  0  0
 29 30  2  0  0  0
 29 31  1  0  0  0
 29 32  1  0  0  0
 29 28  1  0  0  0
 24 25  2  0  0  0
 24 26  1  0  0  0
 24 28  1  0  0  0
 24 23  1  0  0  0
 23 22  1  0  0  0
 22  1  1  0  0  0
  1  2  1  0  0  0
  1  3  1  0  0  0
  2  7  1  0  0  0
  3  4  1  0  0  0
  3  5  1  0  0  0
  5  6  1  0  0  0
  5  7  1  0  0  0
  7 10  1  0  0  0
 10 11  1  0  0  0
 10 19  1  0  0  0
 11 12  2  0  0  0
 12 13  1  0  0  0
 13 14  1  0  0  0
 13 19  2  0  0  0
 14 15  1  0  0  0
 14 16  2  0  0  0
 16 17  1  0  0  0
 17 18  2  0  0  0
 18 19  1  0  0  0
 31 33  1  0  0  0
 32 34  1  0  0  0
 26 27  1  0  0  0
  4  8  1  0  0  0
  6  9  1  0  0  0
 15 20  1  0  0  0
 15 21  1  0  0  0
M  END
> <minimizedAffinity>
-8.29724

$$$$
4UOH_ADP_B_1152


 34 36  0  0  0  0  0  0  0  0999 V2000
   10.2042  -15.2384    6.2706 C   0  0  0  0  0  0  0  0  0  0  0  0
    9.8875  -13.9822    5.7655 O   0  0  0  0  0  0  0  0  0  0  0  0
    8.9083  -15.9771    6.4920 C   0  0  0  0  0  0  0  0  0  0  0  0
    8.9465  -16.9815    7.4402 O   0  0  0  0  0  0  0  0  0  0  0  0
    8.0169  -14.8647    6.8756 C   0  0  0  0  0  0  0  0  0  0  0  0
    8.0650  -14.6512    8.2369 O   0  0  0  0  0  0  0  0  0  0  0  0
    8.6142  -13.6575    6.2071 C   0  0  0  0  0  0  0  0  0  0  0  0
    9.2160  -16.6095    8.2946 H   0  0  0  0  0  0  0  0  0  0  0  0
    8.9796  -14.4686    8.5034 H   0  0  0  0  0  0  0  0  0  0  0  0
    7.7811  -13.3957    5.0627 N   0  0  0  0  0  0  0  0  0  0  0  0
    7.7996  -14.0886    3.9421 C   0  0  0  0  0  0  0  0  0  0  0  0
    6.9192  -13.6333    3.0820 N   0  0  0  0  0  0  0  0  0  0  0  0
    6.3279  -12.6312    3.6678 C   0  0  0  0  0  0  0  0  0  0  0  0
    5.2663  -11.7265    3.2912 C   0  0  0  0  0  0  0  0  0  0  0  0
    4.7012  -11.8146    2.0949 N   0  0  0  0  0  0  0  0  0  0  0  0
    4.9250  -10.8391    4.1671 N   0  0  0  0  0  0  0  0  0  0  0  0
    5.5046  -10.7987    5.3498 C   0  0  0  0  0  0  0  0  0  0  0  0
    6.4681  -11.5725    5.7768 N   0  0  0  0  0  0  0  0  0  0  0  0
    6.8924  -12.4952    4.9851 C   0  0  0  0  0  0  0  0  0  0  0  0
    4.9956  -12.5082    1.4613 H   0  0  0  0  0  0  0  0  0  0  0  0
    3.9873  -11.1863    1.8403 H   0  0  0  0  0  0  0  0  0  0  0  0
   11.1856  -15.9374    5.3562 C   0  0  0  0  0  0  0  0  0  0  0  0
   11.5122  -17.1907    5.8059 O   0  0  0  0  0  0  0  0  0  0  0  0
   11.3181  -18.4850    5.0612 P   0  0  0  0  0  0  0  0  0  0  0  0
   12.3816  -19.3195    5.5070 O   0  0  0  0  0  0  0  0  0  0  0  0
    9.9586  -18.8872    5.3157 O   0  0  0  0  0  0  0  0  0  0  0  0
    9.7770  -19.7221    4.8564 H   0  0  0  0  0  0  0  0  0  0  0  0
   11.5823  -18.2066    3.5672 O   0  0  0  0  0  0  0  0  0  0  0  0
   11.6458  -19.1587    2.3863 P   0  0  0  0  0  0  0  0  0  0  0  0
   11.7329  -18.3323    1.2811 O   0  0  0  0  0  0  0  0  0  0  0  0
   12.7734  -19.9961    2.5519 O   0  0  0  0  0  0  0  0  0  0  0  0
   10.4148  -19.8788    2.4230 O   0  0  0  0  0  0  0  0  0  0  0  0
   12.8307  -20.6127    1.8053 H   0  0  0  0  0  0  0  0  0  0  0  0
   10.3883  -20.5115    1.6882 H   0  0  0  0  0  0  0  0  0  0  0  0
 29 30  2  0  0  0
 29 31  1  0  0  0
 29 32  1  0  0  0
 29 28  1  0  0  0
 24 25  2  0  0  0
 24 26  1  0  0  0
 24 28  1  0  0  0
 24 23  1  0  0  0
 23 22  1  0  0  0
 22  1  1  0  0  0
  1  2  1  0  0  0
  1  3  1  0  0  0
  2  7  1  0  0  0
  3  4  1  0  0  0
  3  5  1  0  0  0
  5  6  1  0  0  0
  5  7  1  0  0  0
  7 10  1  0  0  0
 10 11  1  0  0  0
 10 19  1  0  0  0
 11 12  2  0  0  0
 12 13  1  0  0  0
 13 14  1  0  0  0
 13 19  2  0  0  0
 14 15  1  0  0  0
 14 16  2  0  0  0
 16 17  1  0  0  0
 17 18  2  0  0  0
 18 19  1  0  0  0
 31 33  1  0  0  0
 32 34  1  0  0  0
 26 27  1  0  0  0
  4  8  1  0  0  0
  6  9  1  0  0  0
 15 20  1  0  0  0
 15 21  1  0  0  0
M  END
> <minimizedAffinity>
-8.15713

$$$$
4UOH_ADP_B_1152


 34 36  0  0  0  0  0  0  0  0999 V2000
    9.4478  -15.6688    5.5601 C   0  0  0  0  0  0  0  0  0  0  0  0
    8.3080  -15.2998    6.2657 O   0  0  0  0  0  0  0  0  0  0  0  0
    9.7322  -14.5790    4.5573 C   0  0  0  0  0  0  0  0  0  0  0  0
   10.4571  -14.9630    3.4455 O   0  0  0  0  0  0  0  0  0  0  0  0
    8.3612  -14.1458    4.2222 C   0  0  0  0  0  0  0  0  0  0  0  0
    7.8556  -14.8963    3.1820 O   0  0  0  0  0  0  0  0  0  0  0  0
    7.5544  -14.4713    5.4487 C   0  0  0  0  0  0  0  0  0  0  0  0
    9.9828  -15.6683    2.9780 H   0  0  0  0  0  0  0  0  0  0  0  0
    7.8717  -15.8356    3.4233 H   0  0  0  0  0  0  0  0  0  0  0  0
    7.3520  -13.2163    6.1242 N   0  0  0  0  0  0  0  0  0  0  0  0
    7.9334  -12.8651    7.2532 C   0  0  0  0  0  0  0  0  0  0  0  0
    7.5737  -11.6585    7.6230 N   0  0  0  0  0  0  0  0  0  0  0  0
    6.7475  -11.2330    6.7101 C   0  0  0  0  0  0  0  0  0  0  0  0
    6.0207  -10.0017    6.5026 C   0  0  0  0  0  0  0  0  0  0  0  0
    6.1084   -9.0134    7.3822 N   0  0  0  0  0  0  0  0  0  0  0  0
    5.2863   -9.9359    5.4408 N   0  0  0  0  0  0  0  0  0  0  0  0
    5.2416  -10.9379    4.5864 C   0  0  0  0  0  0  0  0  0  0  0  0
    5.8621  -12.0841    4.6902 N   0  0  0  0  0  0  0  0  0  0  0  0
    6.6232  -12.2641    5.7132 C   0  0  0  0  0  0  0  0  0  0  0  0
    6.6818   -9.1107    8.1765 H   0  0  0  0  0  0  0  0  0  0  0  0
    5.6001   -8.1822    7.2409 H   0  0  0  0  0  0  0  0  0  0  0  0
   10.5821  -15.9639    6.5162 C   0  0  0  0  0  0  0  0  0  0  0  0
   10.3356  -17.0694    7.2888 O   0  0  0  0  0  0  0  0  0  0  0  0
   10.2979  -18.4986    6.8158 P   0  0  0  0  0  0  0  0  0  0  0  0
   11.0065  -19.2262    7.8131 O   0  0  0  0  0  0  0  0  0  0  0  0
    8.9091  -18.8010    6.5826 O   0  0  0  0  0  0  0  0  0  0  0  0
    8.8250  -19.7166    6.2738 H   0  0  0  0  0  0  0  0  0  0  0  0
   11.1459  -18.5861    5.5303 O   0  0  0  0  0  0  0  0  0  0  0  0
   10.8235  -19.2012    4.1803 P   0  0  0  0  0  0  0  0  0  0  0  0
   10.1224  -18.2154    3.5105 O   0  0  0  0  0  0  0  0  0  0  0  0
   12.0404  -19.5516    3.5506 O   0  0  0  0  0  0  0  0  0  0  0  0
   10.0087  -20.3349    4.4736 O   0  0  0  0  0  0  0  0  0  0  0  0
   11.8543  -19.9470    2.6846 H   0  0  0  0  0  0  0  0  0  0  0  0
    9.7638  -20.7796    3.6470 H   0  0  0  0  0  0  0  0  0  0  0  0
 29 30  2  0  0  0
 29 31  1  0  0  0
 29 32  1  0  0  0
 29 28  1  0  0  0
 24 25  2  0  0  0
 24 26  1  0  0  0
 24 28  1  0  0  0
 24 23  1  0  0  0
 23 22  1  0  0  0
 22  1  1  0  0  0
  1  2  1  0  0  0
  1  3  1  0  0  0
  2  7  1  0  0  0
  3  4  1  0  0  0
  3  5  1  0  0  0
  5  6  1  0  0  0
  5  7  1  0  0  0
  7 10  1  0  0  0
 10 11  1  0  0  0
 10 19  1  0  0  0
 11 12  2  0  0  0
 12 13  1  0  0  0
 13 14  1  0  0  0
 13 19  2  0  0  0
 14 15  1  0  0  0
 14 16  2  0  0  0
 16 17  1  0  0  0
 17 18  2  0  0  0
 18 19  1  0  0  0
 31 33  1  0  0  0
 32 34  1  0  0  0
 26 27  1  0  0  0
  4  8  1  0  0  0
  6  9  1  0  0  0
 15 20  1  0  0  0
 15 21  1  0  0  0
M  END
> <minimizedAffinity>
-7.98394

$$$$
4UOH_ADP_B_1152


 34 36  0  0  0  0  0  0  0  0999 V2000
   10.1521  -15.2403    5.8683 C   0  0  0  0  0  0  0  0  0  0  0  0
    9.8340  -14.0335    5.2552 O   0  0  0  0  0  0  0  0  0  0  0  0
    8.8575  -15.8896    6.2884 C   0  0  0  0  0  0  0  0  0  0  0  0
    8.9497  -16.7850    7.3368 O   0  0  0  0  0  0  0  0  0  0  0  0
    8.0471  -14.7018    6.6229 C   0  0  0  0  0  0  0  0  0  0  0  0
    8.2323  -14.3433    7.9413 O   0  0  0  0  0  0  0  0  0  0  0  0
    8.6210  -13.6039    5.7707 C   0  0  0  0  0  0  0  0  0  0  0  0
    9.3125  -16.3347    8.1156 H   0  0  0  0  0  0  0  0  0  0  0  0
    9.1741  -14.1751    8.1014 H   0  0  0  0  0  0  0  0  0  0  0  0
    7.6926  -13.4305    4.6842 N   0  0  0  0  0  0  0  0  0  0  0  0
    6.6718  -12.5976    4.6902 C   0  0  0  0  0  0  0  0  0  0  0  0
    6.0111  -12.6404    3.5572 N   0  0  0  0  0  0  0  0  0  0  0  0
    6.6249  -13.5177    2.8150 C   0  0  0  0  0  0  0  0  0  0  0  0
    6.4323  -14.0135    1.4717 C   0  0  0  0  0  0  0  0  0  0  0  0
    5.4223  -13.5762    0.7324 N   0  0  0  0  0  0  0  0  0  0  0  0
    7.2767  -14.8999    1.0561 N   0  0  0  0  0  0  0  0  0  0  0  0
    8.2746  -15.2939    1.8209 C   0  0  0  0  0  0  0  0  0  0  0  0
    8.5272  -14.9025    3.0426 N   0  0  0  0  0  0  0  0  0  0  0  0
    7.7474  -14.0199    3.5634 C   0  0  0  0  0  0  0  0  0  0  0  0
    4.8050  -12.8995    1.0932 H   0  0  0  0  0  0  0  0  0  0  0  0
    5.2896  -13.9282   -0.1774 H   0  0  0  0  0  0  0  0  0  0  0  0
   11.0162  -16.0797    4.9537 C   0  0  0  0  0  0  0  0  0  0  0  0
   10.4040  -17.2520    4.5925 O   0  0  0  0  0  0  0  0  0  0  0  0
   11.0899  -18.5205    4.1587 P   0  0  0  0  0  0  0  0  0  0  0  0
   10.0277  -19.4188    3.8573 O   0  0  0  0  0  0  0  0  0  0  0  0
   12.0019  -18.1381    3.1114 O   0  0  0  0  0  0  0  0  0  0  0  0
   12.4747  -18.9225    2.7920 H   0  0  0  0  0  0  0  0  0  0  0  0
   11.8142  -19.1026    5.3898 O   0  0  0  0  0  0  0  0  0  0  0  0
   11.2566  -19.7802    6.6288 P   0  0  0  0  0  0  0  0  0  0  0  0
   10.8166  -18.7380    7.4237 O   0  0  0  0  0  0  0  0  0  0  0  0
   10.2215  -20.6564    6.2273 O   0  0  0  0  0  0  0  0  0  0  0  0
   12.3654  -20.4665    7.2077 O   0  0  0  0  0  0  0  0  0  0  0  0
    9.8523  -21.0994    7.0071 H   0  0  0  0  0  0  0  0  0  0  0  0
   12.0771  -20.9261    8.0117 H   0  0  0  0  0  0  0  0  0  0  0  0
 29 30  2  0  0  0
 29 31  1  0  0  0
 29 32  1  0  0  0
 29 28  1  0  0  0
 24 25  2  0  0  0
 24 26  1  0  0  0
 24 28  1  0  0  0
 24 23  1  0  0  0
 23 22  1  0  0  0
 22  1  1  0  0  0
  1  2  1  0  0  0
  1  3  1  0  0  0
  2  7  1  0  0  0
  3  4  1  0  0  0
  3  5  1  0  0  0
  5  6  1  0  0  0
  5  7  1  0  0  0
  7 10  1  0  0  0
 10 11  1  0  0  0
 10 19  1  0  0  0
 11 12  2  0  0  0
 12 13  1  0  0  0
 13 14  1  0  0  0
 13 19  2  0  0  0
 14 15  1  0  0  0
 14 16  2  0  0  0
 16 17  1  0  0  0
 17 18  2  0  0  0
 18 19  1  0  0  0
 31 33  1  0  0  0
 32 34  1  0  0  0
 26 27  1  0  0  0
  4  8  1  0  0  0
  6  9  1  0  0  0
 15 20  1  0  0  0
 15 21  1  0  0  0
M  END
> <minimizedAffinity>
-7.92837

$$$$
4UOH_ADP_B_1152


 34 36  0  0  0  0  0  0  0  0999 V2000
    9.6296  -14.4923    6.6813 C   0  0  0  0  0  0  0  0  0  0  0  0
    9.7029  -13.9236    5.4146 O   0  0  0  0  0  0  0  0  0  0  0  0
    8.1831  -14.8286    6.9435 C   0  0  0  0  0  0  0  0  0  0  0  0
    7.8169  -14.8996    8.2740 O   0  0  0  0  0  0  0  0  0  0  0  0
    7.5081  -13.7301    6.2244 C   0  0  0  0  0  0  0  0  0  0  0  0
    7.3471  -12.6368    7.0490 O   0  0  0  0  0  0  0  0  0  0  0  0
    8.4752  -13.3408    5.1408 C   0  0  0  0  0  0  0  0  0  0  0  0
    7.9980  -14.0498    8.7051 H   0  0  0  0  0  0  0  0  0  0  0  0
    8.2129  -12.3518    7.3808 H   0  0  0  0  0  0  0  0  0  0  0  0
    7.9514  -13.9145    3.9289 N   0  0  0  0  0  0  0  0  0  0  0  0
    6.7766  -13.6285    3.4054 C   0  0  0  0  0  0  0  0  0  0  0  0
    6.5749  -14.2891    2.2896 N   0  0  0  0  0  0  0  0  0  0  0  0
    7.6437  -15.0092    2.0989 C   0  0  0  0  0  0  0  0  0  0  0  0
    8.0715  -15.9253    1.0668 C   0  0  0  0  0  0  0  0  0  0  0  0
    7.2770  -16.2012    0.0418 N   0  0  0  0  0  0  0  0  0  0  0  0
    9.2409  -16.4564    1.2138 N   0  0  0  0  0  0  0  0  0  0  0  0
   10.0025  -16.1407    2.2416 C   0  0  0  0  0  0  0  0  0  0  0  0
    9.7012  -15.3260    3.2189 N   0  0  0  0  0  0  0  0  0  0  0  0
    8.5559  -14.7387    3.1792 C   0  0  0  0  0  0  0  0  0  0  0  0
    6.3942  -15.7709   -0.0265 H   0  0  0  0  0  0  0  0  0  0  0  0
    7.5700  -16.8364   -0.6510 H   0  0  0  0  0  0  0  0  0  0  0  0
   10.5826  -15.6622    6.7854 C   0  0  0  0  0  0  0  0  0  0  0  0
   10.0188  -16.8319    6.3454 O   0  0  0  0  0  0  0  0  0  0  0  0
   10.0942  -18.1716    7.0290 P   0  0  0  0  0  0  0  0  0  0  0  0
   11.4712  -18.5276    6.9718 O   0  0  0  0  0  0  0  0  0  0  0  0
    9.4696  -17.9947    8.3147 O   0  0  0  0  0  0  0  0  0  0  0  0
    9.4901  -18.8330    8.8023 H   0  0  0  0  0  0  0  0  0  0  0  0
    9.3460  -19.1889    6.1433 O   0  0  0  0  0  0  0  0  0  0  0  0
    9.8102  -20.5104    5.5574 P   0  0  0  0  0  0  0  0  0  0  0  0
   10.4363  -20.1626    4.3747 O   0  0  0  0  0  0  0  0  0  0  0  0
   10.6747  -21.1296    6.4898 O   0  0  0  0  0  0  0  0  0  0  0  0
    8.6156  -21.2575    5.3335 O   0  0  0  0  0  0  0  0  0  0  0  0
   10.9822  -21.9772    6.1322 H   0  0  0  0  0  0  0  0  0  0  0  0
    8.8410  -22.1221    4.9559 H   0  0  0  0  0  0  0  0  0  0  0  0
 29 30  2  0  0  0
 29 31  1  0  0  0
 29 32  1  0  0  0
 29 28  1  0  0  0
 24 25  2  0  0  0
 24 26  1  0  0  0
 24 28  1  0  0  0
 24 23  1  0  0  0
 23 22  1  0  0  0
 22  1  1  0  0  0
  1  2  1  0  0  0
  1  3  1  0  0  0
  2  7  1  0  0  0
  3  4  1  0  0  0
  3  5  1  0  0  0
  5  6  1  0  0  0
  5  7  1  0  0  0
  7 10  1  0  0  0
 10 11  1  0  0  0
 10 19  1  0  0  0
 11 12  2  0  0  0
 12 13  1  0  0  0
 13 14  1  0  0  0
 13 19  2  0  0  0
 14 15  1  0  0  0
 14 16  2  0  0  0
 16 17  1  0  0  0
 17 18  2  0  0  0
 18 19  1  0  0  0
 31 33  1  0  0  0
 32 34  1  0  0  0
 26 27  1  0  0  0
  4  8  1  0  0  0
  6  9  1  0  0  0
 15 20  1  0  0  0
 15 21  1  0  0  0
M  END
> <minimizedAffinity>
-7.80786

$$$$
4UOH_ADP_B_1152


 34 36  0  0  0  0  0  0  0  0999 V2000
    8.7164  -13.8475    7.0008 C   0  0  0  0  0  0  0  0  0  0  0  0
    8.6562  -12.8206    6.0652 O   0  0  0  0  0  0  0  0  0  0  0  0
    7.5278  -13.6961    7.9163 C   0  0  0  0  0  0  0  0  0  0  0  0
    7.6682  -14.2474    9.1756 O   0  0  0  0  0  0  0  0  0  0  0  0
    7.3887  -12.2267    7.9496 C   0  0  0  0  0  0  0  0  0  0  0  0
    8.1633  -11.6884    8.9552 O   0  0  0  0  0  0  0  0  0  0  0  0
    7.9641  -11.7654    6.6393 C   0  0  0  0  0  0  0  0  0  0  0  0
    8.4292  -13.8443    9.6220 H   0  0  0  0  0  0  0  0  0  0  0  0
    9.0894  -11.9448    8.8224 H   0  0  0  0  0  0  0  0  0  0  0  0
    6.8320  -11.4489    5.8083 N   0  0  0  0  0  0  0  0  0  0  0  0
    5.9726  -10.4781    6.0425 C   0  0  0  0  0  0  0  0  0  0  0  0
    5.0551  -10.4135    5.1065 N   0  0  0  0  0  0  0  0  0  0  0  0
    5.3373  -11.3618    4.2591 C   0  0  0  0  0  0  0  0  0  0  0  0
    4.7530  -11.8104    3.0162 C   0  0  0  0  0  0  0  0  0  0  0  0
    3.6651  -11.2246    2.5352 N   0  0  0  0  0  0  0  0  0  0  0  0
    5.3352  -12.8043    2.4293 N   0  0  0  0  0  0  0  0  0  0  0  0
    6.4239  -13.3458    2.9370 C   0  0  0  0  0  0  0  0  0  0  0  0
    7.0211  -13.0078    4.0499 N   0  0  0  0  0  0  0  0  0  0  0  0
    6.5261  -12.0280    4.7231 C   0  0  0  0  0  0  0  0  0  0  0  0
    3.2575  -10.4702    3.0188 H   0  0  0  0  0  0  0  0  0  0  0  0
    3.2649  -11.5442    1.6944 H   0  0  0  0  0  0  0  0  0  0  0  0
    8.8140  -15.1858    6.3027 C   0  0  0  0  0  0  0  0  0  0  0  0
    8.9227  -16.2267    7.1884 O   0  0  0  0  0  0  0  0  0  0  0  0
   10.0445  -17.2291    7.2545 P   0  0  0  0  0  0  0  0  0  0  0  0
   11.2232  -16.4418    7.3846 O   0  0  0  0  0  0  0  0  0  0  0  0
    9.6942  -18.1450    8.3095 O   0  0  0  0  0  0  0  0  0  0  0  0
   10.3874  -18.8178    8.3971 H   0  0  0  0  0  0  0  0  0  0  0  0
   10.1338  -17.9194    5.8779 O   0  0  0  0  0  0  0  0  0  0  0  0
   10.1882  -19.3936    5.5194 P   0  0  0  0  0  0  0  0  0  0  0  0
    9.0170  -19.9176    6.0349 O   0  0  0  0  0  0  0  0  0  0  0  0
   10.2822  -19.5048    4.1127 O   0  0  0  0  0  0  0  0  0  0  0  0
   11.3426  -19.8966    6.1900 O   0  0  0  0  0  0  0  0  0  0  0  0
   10.3181  -20.4417    3.8640 H   0  0  0  0  0  0  0  0  0  0  0  0
   11.4386  -20.8435    6.0023 H   0  0  0  0  0  0  0  0  0  0  0  0
 29 30  2  0  0  0
 29 31  1  0  0  0
 29 32  1  0  0  0
 29 28  1  0  0  0
 24 25  2  0  0  0
 24 26  1  0  0  0
 24 28  1  0  0  0
 24 23  1  0  0  0
 23 22  1  0  0  0
 22  1  1  0  0  0
  1  2  1  0  0  0
  1  3  1  0  0  0
  2  7  1  0  0  0
  3  4  1  0  0  0
  3  5  1  0  0  0
  5  6  1  0  0  0
  5  7  1  0  0  0
  7 10  1  0  0  0
 10 11  1  0  0  0
 10 19  1  0  0  0
 11 12  2  0  0  0
 12 13  1  0  0  0
 13 14  1  0  0  0
 13 19  2  0  0  0
 14 15  1  0  0  0
 14 16  2  0  0  0
 16 17  1  0  0  0
 17 18  2  0  0  0
 18 19  1  0  0  0
 31 33  1  0  0  0
 32 34  1  0  0  0
 26 27  1  0  0  0
  4  8  1  0  0  0
  6  9  1  0  0  0
 15 20  1  0  0  0
 15 21  1  0  0  0
M  END
> <minimizedAffinity>
-7.71825

$$$$
4UOH_ADP_B_1152


 34 36  0  0  0  0  0  0  0  0999 V2000
    9.0700  -15.2986    6.2890 C   0  0  0  0  0  0  0  0  0  0  0  0
    8.0180  -14.9194    7.1153 O   0  0  0  0  0  0  0  0  0  0  0  0
    9.6309  -14.0451    5.6660 C   0  0  0  0  0  0  0  0  0  0  0  0
   10.2908  -14.2176    4.4643 O   0  0  0  0  0  0  0  0  0  0  0  0
    8.4071  -13.2302    5.5325 C   0  0  0  0  0  0  0  0  0  0  0  0
    7.7836  -13.4842    4.3293 O   0  0  0  0  0  0  0  0  0  0  0  0
    7.5026  -13.7295    6.6249 C   0  0  0  0  0  0  0  0  0  0  0  0
    9.6867  -14.6154    3.8179 H   0  0  0  0  0  0  0  0  0  0  0  0
    7.5775  -14.4299    4.2652 H   0  0  0  0  0  0  0  0  0  0  0  0
    7.5648  -12.7358    7.6647 N   0  0  0  0  0  0  0  0  0  0  0  0
    8.0320  -12.9432    8.8790 C   0  0  0  0  0  0  0  0  0  0  0  0
    7.9814  -11.8514    9.6054 N   0  0  0  0  0  0  0  0  0  0  0  0
    7.4727  -10.9306    8.8370 C   0  0  0  0  0  0  0  0  0  0  0  0
    7.1763   -9.5267    9.0059 C   0  0  0  0  0  0  0  0  0  0  0  0
    7.4022   -8.9272   10.1669 N   0  0  0  0  0  0  0  0  0  0  0  0
    6.6744   -8.9148    7.9838 N   0  0  0  0  0  0  0  0  0  0  0  0
    6.4811   -9.5480    6.8445 C   0  0  0  0  0  0  0  0  0  0  0  0
    6.7185  -10.8103    6.5999 N   0  0  0  0  0  0  0  0  0  0  0  0
    7.2189  -11.5219    7.5493 C   0  0  0  0  0  0  0  0  0  0  0  0
    7.7864   -9.4360   10.9170 H   0  0  0  0  0  0  0  0  0  0  0  0
    7.1856   -7.9733   10.2786 H   0  0  0  0  0  0  0  0  0  0  0  0
   10.0716  -16.1258    7.0638 C   0  0  0  0  0  0  0  0  0  0  0  0
   11.2293  -16.3333    6.3593 O   0  0  0  0  0  0  0  0  0  0  0  0
   11.5183  -17.4883    5.4372 P   0  0  0  0  0  0  0  0  0  0  0  0
   11.7650  -16.8853    4.1718 O   0  0  0  0  0  0  0  0  0  0  0  0
   12.5686  -18.2449    6.0690 O   0  0  0  0  0  0  0  0  0  0  0  0
   12.7967  -19.0072    5.5142 H   0  0  0  0  0  0  0  0  0  0  0  0
   10.2152  -18.2994    5.2846 O   0  0  0  0  0  0  0  0  0  0  0  0
    9.8365  -19.6634    5.8334 P   0  0  0  0  0  0  0  0  0  0  0  0
    8.5820  -19.4776    6.3842 O   0  0  0  0  0  0  0  0  0  0  0  0
    9.8495  -20.5904    4.7653 O   0  0  0  0  0  0  0  0  0  0  0  0
   10.8213  -19.9515    6.8246 O   0  0  0  0  0  0  0  0  0  0  0  0
    9.6095  -21.4696    5.0973 H   0  0  0  0  0  0  0  0  0  0  0  0
   10.6380  -20.8179    7.2203 H   0  0  0  0  0  0  0  0  0  0  0  0
 29 30  2  0  0  0
 29 31  1  0  0  0
 29 32  1  0  0  0
 29 28  1  0  0  0
 24 25  2  0  0  0
 24 26  1  0  0  0
 24 28  1  0  0  0
 24 23  1  0  0  0
 23 22  1  0  0  0
 22  1  1  0  0  0
  1  2  1  0  0  0
  1  3  1  0  0  0
  2  7  1  0  0  0
  3  4  1  0  0  0
  3  5  1  0  0  0
  5  6  1  0  0  0
  5  7  1  0  0  0
  7 10  1  0  0  0
 10 11  1  0  0  0
 10 19  1  0  0  0
 11 12  2  0  0  0
 12 13  1  0  0  0
 13 14  1  0  0  0
 13 19  2  0  0  0
 14 15  1  0  0  0
 14 16  2  0  0  0
 16 17  1  0  0  0
 17 18  2  0  0  0
 18 19  1  0  0  0
 31 33  1  0  0  0
 32 34  1  0  0  0
 26 27  1  0  0  0
  4  8  1  0  0  0
  6  9  1  0  0  0
 15 20  1  0  0  0
 15 21  1  0  0  0
M  END
> <minimizedAffinity>
-7.58124

$$$$
