4UOH_ADP_B_1152
  RCSB PDB12061715173D
Coordinates from PDB:4UOH:B:1152 Model:1 without hydrogens
 27 29  0  0  0  0            999 V2000
   10.6210  -19.1180    4.7320   P 0  0  0  0  0  0  0  0  0  0  0  0
   10.6230  -18.5270    5.9820   O 0  0  0  0  0  0  0  0  0  0  0  0
    9.6610  -20.1480    4.5990   O 0  0  0  0  0  0  0  0  0  0  0  0
   11.9270  -19.5270    4.3290   O 0  0  0  0  0  0  0  0  0  0  0  0
   11.1080  -16.8560    3.1950   P 0  0  0  0  0  0  0  0  0  0  0  0
   10.5880  -16.5900    1.8970   O 0  0  0  0  0  0  0  0  0  0  0  0
   12.5200  -17.0960    3.3480   O 0  0  0  0  0  0  0  0  0  0  0  0
   10.2480  -17.9940    3.7820   O 0  0  0  0  0  0  0  0  0  0  0  0
   10.8130  -15.6090    3.9860   O 0  0  0  0  0  0  0  0  0  0  0  0
   11.2870  -15.3090    5.2370   C 0  0  0  0  0  0  0  0  0  0  0  0
   10.1990  -14.7960    6.1540   C 0  0  0  0  0  0  0  0  0  0  0  0
    9.7200  -13.5740    5.6950   O 0  0  0  0  0  0  0  0  0  0  0  0
    9.0150  -15.7170    6.3090   C 0  0  0  0  0  0  0  0  0  0  0  0
    9.1740  -16.7490    7.2140   O 0  0  0  0  0  0  0  0  0  0  0  0
    7.9690  -14.7580    6.7160   C 0  0  0  0  0  0  0  0  0  0  0  0
    7.9590  -14.6030    8.0860   O 0  0  0  0  0  0  0  0  0  0  0  0
    8.4050  -13.4500    6.1160   C 0  0  0  0  0  0  0  0  0  0  0  0
    7.5670  -13.2540    4.9620   N 0  0  0  0  0  0  0  0  0  0  0  0
    7.5550  -14.0310    3.8980   C 0  0  0  0  0  0  0  0  0  0  0  0
    6.6780  -13.6190    3.0130   N 0  0  0  0  0  0  0  0  0  0  0  0
    6.1200  -12.5590    3.5250   C 0  0  0  0  0  0  0  0  0  0  0  0
    5.0790  -11.6570    3.0890   C 0  0  0  0  0  0  0  0  0  0  0  0
    4.4990  -11.8210    1.9080   N 0  0  0  0  0  0  0  0  0  0  0  0
    4.7710  -10.6960    3.8970   N 0  0  0  0  0  0  0  0  0  0  0  0
    5.3640  -10.5810    5.0680   C 0  0  0  0  0  0  0  0  0  0  0  0
    6.3110  -11.3460    5.5450   N 0  0  0  0  0  0  0  0  0  0  0  0
    6.7020  -12.3380    4.8230   C 0  0  0  0  0  0  0  0  0  0  0  0
  1  2  2  0  0  0  0
  1  3  1  0  0  0  0
  1  4  1  0  0  0  0
  1  8  1  0  0  0  0
  5  6  2  0  0  0  0
  5  7  1  0  0  0  0
  5  8  1  0  0  0  0
  5  9  1  0  0  0  0
  9 10  1  0  0  0  0
 10 11  1  0  0  0  0
 11 12  1  0  0  0  0
 11 13  1  0  0  0  0
 12 17  1  0  0  0  0
 13 14  1  0  0  0  0
 13 15  1  0  0  0  0
 15 16  1  0  0  0  0
 15 17  1  0  0  0  0
 17 18  1  0  0  0  0
 18 19  1  0  0  0  0
 18 27  1  0  0  0  0
 19 20  2  0  0  0  0
 20 21  1  0  0  0  0
 21 22  1  0  0  0  0
 21 27  2  0  0  0  0
 22 23  1  0  0  0  0
 22 24  2  0  0  0  0
 24 25  1  0  0  0  0
 25 26  2  0  0  0  0
 26 27  1  0  0  0  0
A    1
PB
A    2
O1B
A    3
O2B
A    4
O3B
A    5
PA
A    6
O1A
A    7
O2A
A    8
O3A
A    9
O5'
A   10
C5'
A   11
C4'
A   12
O4'
A   13
C3'
A   14
O3'
A   15
C2'
A   16
O2'
A   17
C1'
A   18
N9
A   19
C8
A   20
N7
A   21
C5
A   22
C6
A   23
N6
A   24
N1
A   25
C2
A   26
N3
A   27
C4
M  END
>  <InstanceId>
4UOH_ADP_B_1152

>  <ChemCompId>
ADP

>  <PdbId>
4UOH

>  <ChainId>
B

>  <ResidueNumber>
1152

>  <InsertionCode>


>  <Model>
1

>  <AltIds>


>  <MissingHeavyAtoms>
0

>  <ObservedFormula>
C10 N5 O10 P2

>  <Name>
ADENOSINE-5'-DIPHOSPHATE

>  <SystematicName>
[(2R,3S,4R,5R)-5-(6-aminopurin-9-yl)-3,4-dihydroxy-oxolan-2-yl]methyl phosphono hydrogen phosphate

>  <Synonyms>


>  <Type>
NON-POLYMER

>  <Formula>
C10 H15 N5 O10 P2

>  <MolecularWeight>
427.201

>  <ModifiedDate>
2011-06-04

>  <Parent>
A

>  <OneLetterCode>


>  <SubcomponentList>


>  <AmbiguousFlag>
N

>  <InChI>
InChI=1S/C10H15N5O10P2/c11-8-5-9(13-2-12-8)15(3-14-5)10-7(17)6(16)4(24-10)1-23-27(21,22)25-26(18,19)20/h2-4,6-7,10,16-17H,1H2,(H,21,22)(H2,11,12,13)(H2,18,19,20)/t4-,6-,7-,10-/m1/s1

>  <InChIKey>
XTWYTFMLZFPYCI-KQYNXXCUSA-N

>  <SMILES>
c1nc(c2c(n1)n(cn2)[C@H]3[C@@H]([C@@H]([C@H](O3)CO[P@](=O)(O)OP(=O)(O)O)O)O)N

$$$$
