4MO4_ACP_A_500


 33 35  0  0  0  0  0  0  0  0999 V2000
   -4.9944  -42.8001   31.5152 C   0  0  0  0  0  0  0  0  0  0  0  0
   -5.6922  -42.7920   32.7765 O   0  0  0  0  0  0  0  0  0  0  0  0
   -5.9269  -43.5617   30.5837 C   0  0  0  0  0  0  0  0  0  0  0  0
   -5.2315  -44.0956   29.4593 O   0  0  0  0  0  0  0  0  0  0  0  0
   -6.4735  -44.6505   31.5135 C   0  0  0  0  0  0  0  0  0  0  0  0
   -5.5970  -45.7674   31.5934 O   0  0  0  0  0  0  0  0  0  0  0  0
   -6.5410  -43.9228   32.8626 C   0  0  0  0  0  0  0  0  0  0  0  0
   -4.5077  -44.6636   29.7666 H   0  0  0  0  0  0  0  0  0  0  0  0
   -4.7224  -45.4714   31.8907 H   0  0  0  0  0  0  0  0  0  0  0  0
   -7.8823  -43.4924   33.2271 N   0  0  0  0  0  0  0  0  0  0  0  0
   -8.9853  -43.3648   32.4064 C   0  0  0  0  0  0  0  0  0  0  0  0
  -10.0736  -43.0050   33.0311 N   0  0  0  0  0  0  0  0  0  0  0  0
   -9.6761  -42.8776   34.3650 C   0  0  0  0  0  0  0  0  0  0  0  0
  -10.3682  -42.5252   35.5313 C   0  0  0  0  0  0  0  0  0  0  0  0
  -11.6653  -42.2072   35.5652 N   0  0  0  0  0  0  0  0  0  0  0  0
   -9.6653  -42.4931   36.6892 N   0  0  0  0  0  0  0  0  0  0  0  0
   -8.3621  -42.7879   36.6598 C   0  0  0  0  0  0  0  0  0  0  0  0
   -7.6037  -43.1390   35.6169 N   0  0  0  0  0  0  0  0  0  0  0  0
   -8.3293  -43.1696   34.4777 C   0  0  0  0  0  0  0  0  0  0  0  0
  -12.1978  -42.2230   34.7373 H   0  0  0  0  0  0  0  0  0  0  0  0
  -12.0887  -41.9571   36.4181 H   0  0  0  0  0  0  0  0  0  0  0  0
   -4.6921  -41.3786   31.1214 C   0  0  0  0  0  0  0  0  0  0  0  0
   -3.6968  -41.4537   30.0817 O   0  0  0  0  0  0  0  0  0  0  0  0
   -3.9110  -40.6809   28.6868 P   0  0  0  0  0  0  0  0  0  0  0  0
   -4.3615  -39.2802   28.8845 O   0  0  0  0  0  0  0  0  0  0  0  0
   -2.5777  -40.6467   27.9257 O   0  0  0  0  0  0  0  0  0  0  0  0
   -2.6984  -40.1821   27.0828 H   0  0  0  0  0  0  0  0  0  0  0  0
   -4.8897  -41.6360   27.8875 O   0  0  0  0  0  0  0  0  0  0  0  0
   -6.2679  -41.4204   27.1181 P   0  0  0  0  0  0  0  0  0  0  0  0
   -7.3108  -42.2073   27.8636 O   0  0  0  0  0  0  0  0  0  0  0  0
   -6.5373  -39.8814   27.0931 O   0  0  0  0  0  0  0  0  0  0  0  0
   -6.0104  -41.9817   25.4202 C   0  0  0  0  0  0  0  0  0  0  0  0
   -7.3720  -39.7067   26.6308 H   0  0  0  0  0  0  0  0  0  0  0  0
 29 30  2  0  0  0
 29 31  1  0  0  0
 29 32  1  0  0  0
 29 28  1  0  0  0
 24 25  2  0  0  0
 24 26  1  0  0  0
 24 28  1  0  0  0
 24 23  1  0  0  0
 23 22  1  0  0  0
 22  1  1  0  0  0
  1  2  1  0  0  0
  1  3  1  0  0  0
  2  7  1  0  0  0
  3  4  1  0  0  0
  3  5  1  0  0  0
  5  6  1  0  0  0
  5  7  1  0  0  0
  7 10  1  0  0  0
 10 11  1  0  0  0
 10 19  1  0  0  0
 11 12  2  0  0  0
 12 13  1  0  0  0
 13 14  1  0  0  0
 13 19  2  0  0  0
 14 15  1  0  0  0
 14 16  2  0  0  0
 16 17  1  0  0  0
 17 18  2  0  0  0
 18 19  1  0  0  0
 31 33  1  0  0  0
 26 27  1  0  0  0
  4  8  1  0  0  0
  6  9  1  0  0  0
 15 20  1  0  0  0
 15 21  1  0  0  0
M  END
> <minimizedAffinity>
-7.31610

$$$$
4MO4_ACP_A_500


 33 35  0  0  0  0  0  0  0  0999 V2000
   -4.8397  -42.7654   31.5077 C   0  0  0  0  0  0  0  0  0  0  0  0
   -5.5453  -42.5102   32.7384 O   0  0  0  0  0  0  0  0  0  0  0  0
   -5.6702  -43.8424   30.8238 C   0  0  0  0  0  0  0  0  0  0  0  0
   -4.9078  -44.5668   29.8610 O   0  0  0  0  0  0  0  0  0  0  0  0
   -6.0970  -44.7081   32.0142 C   0  0  0  0  0  0  0  0  0  0  0  0
   -5.0991  -45.6598   32.3614 O   0  0  0  0  0  0  0  0  0  0  0  0
   -6.2598  -43.6687   33.1310 C   0  0  0  0  0  0  0  0  0  0  0  0
   -4.1266  -44.9504   30.2893 H   0  0  0  0  0  0  0  0  0  0  0  0
   -4.2669  -45.2001   32.5539 H   0  0  0  0  0  0  0  0  0  0  0  0
   -7.6449  -43.3130   33.3999 N   0  0  0  0  0  0  0  0  0  0  0  0
   -8.6793  -43.1837   32.4945 C   0  0  0  0  0  0  0  0  0  0  0  0
   -9.8313  -42.9031   33.0406 N   0  0  0  0  0  0  0  0  0  0  0  0
   -9.5539  -42.8348   34.4087 C   0  0  0  0  0  0  0  0  0  0  0  0
  -10.3569  -42.5761   35.5275 C   0  0  0  0  0  0  0  0  0  0  0  0
  -11.6651  -42.3124   35.4654 N   0  0  0  0  0  0  0  0  0  0  0  0
   -9.7563  -42.5808   36.7420 N   0  0  0  0  0  0  0  0  0  0  0  0
   -8.4434  -42.8214   36.8102 C   0  0  0  0  0  0  0  0  0  0  0  0
   -7.5849  -43.0832   35.8201 N   0  0  0  0  0  0  0  0  0  0  0  0
   -8.2097  -43.0788   34.6222 C   0  0  0  0  0  0  0  0  0  0  0  0
  -12.1246  -42.3031   34.5948 H   0  0  0  0  0  0  0  0  0  0  0  0
  -12.1697  -42.1274   36.2903 H   0  0  0  0  0  0  0  0  0  0  0  0
   -4.6985  -41.4694   30.7542 C   0  0  0  0  0  0  0  0  0  0  0  0
   -3.8540  -41.7541   29.6215 O   0  0  0  0  0  0  0  0  0  0  0  0
   -4.3430  -41.4066   28.1286 P   0  0  0  0  0  0  0  0  0  0  0  0
   -4.4857  -42.6216   27.2875 O   0  0  0  0  0  0  0  0  0  0  0  0
   -5.7130  -40.7167   28.2004 O   0  0  0  0  0  0  0  0  0  0  0  0
   -6.0152  -40.5036   27.3037 H   0  0  0  0  0  0  0  0  0  0  0  0
   -3.2919  -40.3256   27.6431 O   0  0  0  0  0  0  0  0  0  0  0  0
   -3.4100  -38.8623   27.0247 P   0  0  0  0  0  0  0  0  0  0  0  0
   -4.7718  -38.7647   26.3933 O   0  0  0  0  0  0  0  0  0  0  0  0
   -3.1848  -37.8548   28.1976 O   0  0  0  0  0  0  0  0  0  0  0  0
   -2.0499  -38.6819   25.8492 C   0  0  0  0  0  0  0  0  0  0  0  0
   -3.2491  -36.9473   27.8611 H   0  0  0  0  0  0  0  0  0  0  0  0
 29 30  2  0  0  0
 29 31  1  0  0  0
 29 32  1  0  0  0
 29 28  1  0  0  0
 24 25  2  0  0  0
 24 26  1  0  0  0
 24 28  1  0  0  0
 24 23  1  0  0  0
 23 22  1  0  0  0
 22  1  1  0  0  0
  1  2  1  0  0  0
  1  3  1  0  0  0
  2  7  1  0  0  0
  3  4  1  0  0  0
  3  5  1  0  0  0
  5  6  1  0  0  0
  5  7  1  0  0  0
  7 10  1  0  0  0
 10 11  1  0  0  0
 10 19  1  0  0  0
 11 12  2  0  0  0
 12 13  1  0  0  0
 13 14  1  0  0  0
 13 19  2  0  0  0
 14 15  1  0  0  0
 14 16  2  0  0  0
 16 17  1  0  0  0
 17 18  2  0  0  0
 18 19  1  0  0  0
 31 33  1  0  0  0
 26 27  1  0  0  0
  4  8  1  0  0  0
  6  9  1  0  0  0
 15 20  1  0  0  0
 15 21  1  0  0  0
M  END
> <minimizedAffinity>
-7.28079

$$$$
4MO4_ACP_A_500


 33 35  0  0  0  0  0  0  0  0999 V2000
   -6.2821  -43.6166   31.1391 C   0  0  0  0  0  0  0  0  0  0  0  0
   -7.3810  -42.6960   31.2898 O   0  0  0  0  0  0  0  0  0  0  0  0
   -6.5902  -44.7239   32.1373 C   0  0  0  0  0  0  0  0  0  0  0  0
   -5.4201  -45.4575   32.4917 O   0  0  0  0  0  0  0  0  0  0  0  0
   -7.1700  -43.9298   33.3129 C   0  0  0  0  0  0  0  0  0  0  0  0
   -6.1493  -43.4145   34.1583 O   0  0  0  0  0  0  0  0  0  0  0  0
   -7.9068  -42.7869   32.6020 C   0  0  0  0  0  0  0  0  0  0  0  0
   -4.7513  -44.8492   32.8433 H   0  0  0  0  0  0  0  0  0  0  0  0
   -5.5460  -42.8621   33.6370 H   0  0  0  0  0  0  0  0  0  0  0  0
   -9.3478  -42.9758   32.5322 N   0  0  0  0  0  0  0  0  0  0  0  0
  -10.0946  -43.4219   31.4599 C   0  0  0  0  0  0  0  0  0  0  0  0
  -11.3698  -43.5397   31.7128 N   0  0  0  0  0  0  0  0  0  0  0  0
  -11.4921  -43.1419   33.0471 C   0  0  0  0  0  0  0  0  0  0  0  0
  -12.5910  -43.0456   33.9111 C   0  0  0  0  0  0  0  0  0  0  0  0
  -13.8462  -43.3411   33.5620 N   0  0  0  0  0  0  0  0  0  0  0  0
  -12.3575  -42.6098   35.1726 N   0  0  0  0  0  0  0  0  0  0  0  0
  -11.1078  -42.2905   35.5226 C   0  0  0  0  0  0  0  0  0  0  0  0
   -9.9905  -42.3462   34.7914 N   0  0  0  0  0  0  0  0  0  0  0  0
  -10.2500  -42.7893   33.5418 C   0  0  0  0  0  0  0  0  0  0  0  0
  -14.0418  -43.6598   32.6512 H   0  0  0  0  0  0  0  0  0  0  0  0
  -14.5756  -43.2403   34.2155 H   0  0  0  0  0  0  0  0  0  0  0  0
   -6.2004  -44.0391   29.6962 C   0  0  0  0  0  0  0  0  0  0  0  0
   -6.1975  -42.8234   28.9221 O   0  0  0  0  0  0  0  0  0  0  0  0
   -7.3001  -42.5811   27.7756 P   0  0  0  0  0  0  0  0  0  0  0  0
   -7.3284  -43.6838   26.7820 O   0  0  0  0  0  0  0  0  0  0  0  0
   -8.6875  -42.4956   28.4280 O   0  0  0  0  0  0  0  0  0  0  0  0
   -9.3585  -42.3494   27.7429 H   0  0  0  0  0  0  0  0  0  0  0  0
   -6.9439  -41.1387   27.2263 O   0  0  0  0  0  0  0  0  0  0  0  0
   -5.5808  -40.3647   26.9424 P   0  0  0  0  0  0  0  0  0  0  0  0
   -5.9467  -39.0713   26.2671 O   0  0  0  0  0  0  0  0  0  0  0  0
   -4.8700  -40.1773   28.3213 O   0  0  0  0  0  0  0  0  0  0  0  0
   -4.5651  -41.4553   25.9211 C   0  0  0  0  0  0  0  0  0  0  0  0
   -4.0314  -39.7075   28.1916 H   0  0  0  0  0  0  0  0  0  0  0  0
 29 30  2  0  0  0
 29 31  1  0  0  0
 29 32  1  0  0  0
 29 28  1  0  0  0
 24 25  2  0  0  0
 24 26  1  0  0  0
 24 28  1  0  0  0
 24 23  1  0  0  0
 23 22  1  0  0  0
 22  1  1  0  0  0
  1  2  1  0  0  0
  1  3  1  0  0  0
  2  7  1  0  0  0
  3  4  1  0  0  0
  3  5  1  0  0  0
  5  6  1  0  0  0
  5  7  1  0  0  0
  7 10  1  0  0  0
 10 11  1  0  0  0
 10 19  1  0  0  0
 11 12  2  0  0  0
 12 13  1  0  0  0
 13 14  1  0  0  0
 13 19  2  0  0  0
 14 15  1  0  0  0
 14 16  2  0  0  0
 16 17  1  0  0  0
 17 18  2  0  0  0
 18 19  1  0  0  0
 31 33  1  0  0  0
 26 27  1  0  0  0
  4  8  1  0  0  0
  6  9  1  0  0  0
 15 20  1  0  0  0
 15 21  1  0  0  0
M  END
> <minimizedAffinity>
-7.04826

$$$$
4MO4_ACP_A_500


 33 35  0  0  0  0  0  0  0  0999 V2000
   -1.1158  -42.6779   25.1046 C   0  0  0  0  0  0  0  0  0  0  0  0
   -2.3956  -43.2203   25.4863 O   0  0  0  0  0  0  0  0  0  0  0  0
   -0.7858  -43.3947   23.8029 C   0  0  0  0  0  0  0  0  0  0  0  0
    0.6127  -43.3720   23.5261 O   0  0  0  0  0  0  0  0  0  0  0  0
   -1.3109  -44.8067   24.0841 C   0  0  0  0  0  0  0  0  0  0  0  0
   -0.3604  -45.5941   24.7903 O   0  0  0  0  0  0  0  0  0  0  0  0
   -2.5376  -44.5290   24.9630 C   0  0  0  0  0  0  0  0  0  0  0  0
    1.0960  -43.7636   24.2704 H   0  0  0  0  0  0  0  0  0  0  0  0
   -0.1211  -45.1473   25.6174 H   0  0  0  0  0  0  0  0  0  0  0  0
   -3.8016  -44.6284   24.2490 N   0  0  0  0  0  0  0  0  0  0  0  0
   -4.4939  -43.6226   23.6045 C   0  0  0  0  0  0  0  0  0  0  0  0
   -5.5805  -44.0260   23.0040 N   0  0  0  0  0  0  0  0  0  0  0  0
   -5.6261  -45.3984   23.2648 C   0  0  0  0  0  0  0  0  0  0  0  0
   -6.5321  -46.4034   22.9007 C   0  0  0  0  0  0  0  0  0  0  0  0
   -7.6310  -46.1923   22.1708 N   0  0  0  0  0  0  0  0  0  0  0  0
   -6.2767  -47.6615   23.3339 N   0  0  0  0  0  0  0  0  0  0  0  0
   -5.1914  -47.8766   24.0835 C   0  0  0  0  0  0  0  0  0  0  0  0
   -4.2623  -47.0043   24.4860 N   0  0  0  0  0  0  0  0  0  0  0  0
   -4.5369  -45.7605   24.0358 C   0  0  0  0  0  0  0  0  0  0  0  0
   -7.8387  -45.2871   21.8442 H   0  0  0  0  0  0  0  0  0  0  0  0
   -8.2331  -46.9420   21.9596 H   0  0  0  0  0  0  0  0  0  0  0  0
   -1.2333  -41.1793   25.0160 C   0  0  0  0  0  0  0  0  0  0  0  0
   -2.6420  -40.8828   25.0871 O   0  0  0  0  0  0  0  0  0  0  0  0
   -3.3662  -40.0644   23.9063 P   0  0  0  0  0  0  0  0  0  0  0  0
   -2.9871  -40.5658   22.5614 O   0  0  0  0  0  0  0  0  0  0  0  0
   -4.8872  -40.2137   24.0561 O   0  0  0  0  0  0  0  0  0  0  0  0
   -5.3316  -39.7227   23.3473 H   0  0  0  0  0  0  0  0  0  0  0  0
   -3.0027  -38.5573   24.2312 O   0  0  0  0  0  0  0  0  0  0  0  0
   -3.8590  -37.2334   24.4588 P   0  0  0  0  0  0  0  0  0  0  0  0
   -5.0438  -37.3167   23.5357 O   0  0  0  0  0  0  0  0  0  0  0  0
   -4.2410  -37.1953   25.9735 O   0  0  0  0  0  0  0  0  0  0  0  0
   -2.7645  -35.8385   24.1117 C   0  0  0  0  0  0  0  0  0  0  0  0
   -4.7660  -36.4000   26.1546 H   0  0  0  0  0  0  0  0  0  0  0  0
 29 30  2  0  0  0
 29 31  1  0  0  0
 29 32  1  0  0  0
 29 28  1  0  0  0
 24 25  2  0  0  0
 24 26  1  0  0  0
 24 28  1  0  0  0
 24 23  1  0  0  0
 23 22  1  0  0  0
 22  1  1  0  0  0
  1  2  1  0  0  0
  1  3  1  0  0  0
  2  7  1  0  0  0
  3  4  1  0  0  0
  3  5  1  0  0  0
  5  6  1  0  0  0
  5  7  1  0  0  0
  7 10  1  0  0  0
 10 11  1  0  0  0
 10 19  1  0  0  0
 11 12  2  0  0  0
 12 13  1  0  0  0
 13 14  1  0  0  0
 13 19  2  0  0  0
 14 15  1  0  0  0
 14 16  2  0  0  0
 16 17  1  0  0  0
 17 18  2  0  0  0
 18 19  1  0  0  0
 31 33  1  0  0  0
 26 27  1  0  0  0
  4  8  1  0  0  0
  6  9  1  0  0  0
 15 20  1  0  0  0
 15 21  1  0  0  0
M  END
> <minimizedAffinity>
-6.75652

$$$$
4MO4_ACP_A_500


 33 35  0  0  0  0  0  0  0  0999 V2000
   -4.1769  -39.9463   24.1878 C   0  0  0  0  0  0  0  0  0  0  0  0
   -3.6051  -39.3502   25.3691 O   0  0  0  0  0  0  0  0  0  0  0  0
   -4.0608  -38.8557   23.1322 C   0  0  0  0  0  0  0  0  0  0  0  0
   -4.9840  -39.0530   22.0636 O   0  0  0  0  0  0  0  0  0  0  0  0
   -4.3640  -37.5967   23.9518 C   0  0  0  0  0  0  0  0  0  0  0  0
   -5.7622  -37.3680   24.0732 O   0  0  0  0  0  0  0  0  0  0  0  0
   -3.7555  -37.9426   25.3172 C   0  0  0  0  0  0  0  0  0  0  0  0
   -5.8853  -39.0975   22.4192 H   0  0  0  0  0  0  0  0  0  0  0  0
   -6.1835  -38.1453   24.4722 H   0  0  0  0  0  0  0  0  0  0  0  0
   -2.4674  -37.3107   25.5591 N   0  0  0  0  0  0  0  0  0  0  0  0
   -1.8462  -36.3339   24.8065 C   0  0  0  0  0  0  0  0  0  0  0  0
   -0.7117  -35.9216   25.3034 N   0  0  0  0  0  0  0  0  0  0  0  0
   -0.5550  -36.6753   26.4699 C   0  0  0  0  0  0  0  0  0  0  0  0
    0.4450  -36.7076   27.4509 C   0  0  0  0  0  0  0  0  0  0  0  0
    1.5424  -35.9460   27.4271 N   0  0  0  0  0  0  0  0  0  0  0  0
    0.2871  -37.5803   28.4753 N   0  0  0  0  0  0  0  0  0  0  0  0
   -0.7969  -38.3617   28.4943 C   0  0  0  0  0  0  0  0  0  0  0  0
   -1.8095  -38.4146   27.6237 N   0  0  0  0  0  0  0  0  0  0  0  0
   -1.6307  -37.5314   26.6171 C   0  0  0  0  0  0  0  0  0  0  0  0
    1.6803  -35.3042   26.6934 H   0  0  0  0  0  0  0  0  0  0  0  0
    2.2131  -36.0266   28.1432 H   0  0  0  0  0  0  0  0  0  0  0  0
   -3.4438  -41.2274   23.8899 C   0  0  0  0  0  0  0  0  0  0  0  0
   -2.0893  -40.8499   23.5737 O   0  0  0  0  0  0  0  0  0  0  0  0
   -0.8672  -41.3345   24.5012 P   0  0  0  0  0  0  0  0  0  0  0  0
    0.4365  -40.7953   24.0390 O   0  0  0  0  0  0  0  0  0  0  0  0
   -1.1029  -40.8396   25.9356 O   0  0  0  0  0  0  0  0  0  0  0  0
   -0.3698  -41.1279   26.5016 H   0  0  0  0  0  0  0  0  0  0  0  0
   -1.0206  -42.9111   24.5117 O   0  0  0  0  0  0  0  0  0  0  0  0
   -0.5398  -44.0794   23.5413 P   0  0  0  0  0  0  0  0  0  0  0  0
    0.8997  -43.8015   23.2046 O   0  0  0  0  0  0  0  0  0  0  0  0
   -0.7604  -45.4239   24.3063 O   0  0  0  0  0  0  0  0  0  0  0  0
   -1.6393  -44.0519   22.1079 C   0  0  0  0  0  0  0  0  0  0  0  0
   -0.4785  -46.1643   23.7466 H   0  0  0  0  0  0  0  0  0  0  0  0
 29 30  2  0  0  0
 29 31  1  0  0  0
 29 32  1  0  0  0
 29 28  1  0  0  0
 24 25  2  0  0  0
 24 26  1  0  0  0
 24 28  1  0  0  0
 24 23  1  0  0  0
 23 22  1  0  0  0
 22  1  1  0  0  0
  1  2  1  0  0  0
  1  3  1  0  0  0
  2  7  1  0  0  0
  3  4  1  0  0  0
  3  5  1  0  0  0
  5  6  1  0  0  0
  5  7  1  0  0  0
  7 10  1  0  0  0
 10 11  1  0  0  0
 10 19  1  0  0  0
 11 12  2  0  0  0
 12 13  1  0  0  0
 13 14  1  0  0  0
 13 19  2  0  0  0
 14 15  1  0  0  0
 14 16  2  0  0  0
 16 17  1  0  0  0
 17 18  2  0  0  0
 18 19  1  0  0  0
 31 33  1  0  0  0
 26 27  1  0  0  0
  4  8  1  0  0  0
  6  9  1  0  0  0
 15 20  1  0  0  0
 15 21  1  0  0  0
M  END
> <minimizedAffinity>
-6.75580

$$$$
4MO4_ACP_A_500


 33 35  0  0  0  0  0  0  0  0999 V2000
   -6.4828  -42.9741   25.3200 C   0  0  0  0  0  0  0  0  0  0  0  0
   -5.4191  -42.6787   24.3932 O   0  0  0  0  0  0  0  0  0  0  0  0
   -6.7439  -44.4602   25.1189 C   0  0  0  0  0  0  0  0  0  0  0  0
   -8.0461  -44.8336   25.5637 O   0  0  0  0  0  0  0  0  0  0  0  0
   -6.5726  -44.6033   23.6027 C   0  0  0  0  0  0  0  0  0  0  0  0
   -7.7643  -44.2712   22.9015 O   0  0  0  0  0  0  0  0  0  0  0  0
   -5.4694  -43.5802   23.3017 C   0  0  0  0  0  0  0  0  0  0  0  0
   -8.7110  -44.2987   25.1027 H   0  0  0  0  0  0  0  0  0  0  0  0
   -8.0337  -43.3682   23.1314 H   0  0  0  0  0  0  0  0  0  0  0  0
   -4.1566  -44.1773   23.1085 N   0  0  0  0  0  0  0  0  0  0  0  0
   -3.8400  -45.5175   23.0076 C   0  0  0  0  0  0  0  0  0  0  0  0
   -2.5751  -45.7492   22.7835 N   0  0  0  0  0  0  0  0  0  0  0  0
   -1.9979  -44.4773   22.7334 C   0  0  0  0  0  0  0  0  0  0  0  0
   -0.6835  -44.0399   22.5224 C   0  0  0  0  0  0  0  0  0  0  0  0
    0.3544  -44.8567   22.3215 N   0  0  0  0  0  0  0  0  0  0  0  0
   -0.4593  -42.7038   22.5404 N   0  0  0  0  0  0  0  0  0  0  0  0
   -1.4887  -41.8810   22.7633 C   0  0  0  0  0  0  0  0  0  0  0  0
   -2.7743  -42.1814   22.9710 N   0  0  0  0  0  0  0  0  0  0  0  0
   -2.9713  -43.5176   22.9417 C   0  0  0  0  0  0  0  0  0  0  0  0
    0.2174  -45.8315   22.3040 H   0  0  0  0  0  0  0  0  0  0  0  0
    1.2561  -44.4839   22.1910 H   0  0  0  0  0  0  0  0  0  0  0  0
   -6.0461  -42.5666   26.7022 C   0  0  0  0  0  0  0  0  0  0  0  0
   -5.0264  -41.5643   26.5213 O   0  0  0  0  0  0  0  0  0  0  0  0
   -5.2459  -40.0663   27.0658 P   0  0  0  0  0  0  0  0  0  0  0  0
   -6.6662  -39.6420   26.9843 O   0  0  0  0  0  0  0  0  0  0  0  0
   -4.8164  -40.0031   28.5388 O   0  0  0  0  0  0  0  0  0  0  0  0
   -4.9458  -39.1025   28.8749 H   0  0  0  0  0  0  0  0  0  0  0  0
   -4.2017  -39.2178   26.2299 O   0  0  0  0  0  0  0  0  0  0  0  0
   -3.9862  -38.9424   24.6758 P   0  0  0  0  0  0  0  0  0  0  0  0
   -2.5013  -38.8590   24.4498 O   0  0  0  0  0  0  0  0  0  0  0  0
   -4.6762  -40.1151   23.9074 O   0  0  0  0  0  0  0  0  0  0  0  0
   -4.8665  -37.4124   24.2905 C   0  0  0  0  0  0  0  0  0  0  0  0
   -4.5673  -39.9844   22.9525 H   0  0  0  0  0  0  0  0  0  0  0  0
 29 30  2  0  0  0
 29 31  1  0  0  0
 29 32  1  0  0  0
 29 28  1  0  0  0
 24 25  2  0  0  0
 24 26  1  0  0  0
 24 28  1  0  0  0
 24 23  1  0  0  0
 23 22  1  0  0  0
 22  1  1  0  0  0
  1  2  1  0  0  0
  1  3  1  0  0  0
  2  7  1  0  0  0
  3  4  1  0  0  0
  3  5  1  0  0  0
  5  6  1  0  0  0
  5  7  1  0  0  0
  7 10  1  0  0  0
 10 11  1  0  0  0
 10 19  1  0  0  0
 11 12  2  0  0  0
 12 13  1  0  0  0
 13 14  1  0  0  0
 13 19  2  0  0  0
 14 15  1  0  0  0
 14 16  2  0  0  0
 16 17  1  0  0  0
 17 18  2  0  0  0
 18 19  1  0  0  0
 31 33  1  0  0  0
 26 27  1  0  0  0
  4  8  1  0  0  0
  6  9  1  0  0  0
 15 20  1  0  0  0
 15 21  1  0  0  0
M  END
> <minimizedAffinity>
-6.65533

$$$$
4MO4_ACP_A_500


 33 35  0  0  0  0  0  0  0  0999 V2000
   -7.5967  -44.0406   29.0030 C   0  0  0  0  0  0  0  0  0  0  0  0
   -7.6695  -44.6616   30.3018 O   0  0  0  0  0  0  0  0  0  0  0  0
   -8.4086  -42.7626   29.1601 C   0  0  0  0  0  0  0  0  0  0  0  0
   -8.8630  -42.2664   27.9030 O   0  0  0  0  0  0  0  0  0  0  0  0
   -9.5560  -43.2323   30.0611 C   0  0  0  0  0  0  0  0  0  0  0  0
  -10.6028  -43.8376   29.3129 O   0  0  0  0  0  0  0  0  0  0  0  0
   -8.8644  -44.2705   30.9545 C   0  0  0  0  0  0  0  0  0  0  0  0
   -9.3794  -42.9526   27.4521 H   0  0  0  0  0  0  0  0  0  0  0  0
  -10.2461  -44.5790   28.7991 H   0  0  0  0  0  0  0  0  0  0  0  0
   -8.5472  -43.7761   32.2857 N   0  0  0  0  0  0  0  0  0  0  0  0
   -7.3096  -43.7100   32.8942 C   0  0  0  0  0  0  0  0  0  0  0  0
   -7.3295  -43.1671   34.0812 N   0  0  0  0  0  0  0  0  0  0  0  0
   -8.6744  -42.8485   34.2892 C   0  0  0  0  0  0  0  0  0  0  0  0
   -9.3520  -42.2458   35.3574 C   0  0  0  0  0  0  0  0  0  0  0  0
   -8.7617  -41.8392   36.4848 N   0  0  0  0  0  0  0  0  0  0  0  0
  -10.6917  -42.0841   35.2356 N   0  0  0  0  0  0  0  0  0  0  0  0
  -11.2929  -42.5089   34.1202 C   0  0  0  0  0  0  0  0  0  0  0  0
  -10.7532  -43.0884   33.0437 N   0  0  0  0  0  0  0  0  0  0  0  0
   -9.4176  -43.2319   33.1881 C   0  0  0  0  0  0  0  0  0  0  0  0
   -7.7895  -41.9458   36.5974 H   0  0  0  0  0  0  0  0  0  0  0  0
   -9.2989  -41.4330   37.2029 H   0  0  0  0  0  0  0  0  0  0  0  0
   -6.1480  -43.8559   28.6365 C   0  0  0  0  0  0  0  0  0  0  0  0
   -5.6624  -42.7733   29.4547 O   0  0  0  0  0  0  0  0  0  0  0  0
   -4.5859  -41.7281   28.8738 P   0  0  0  0  0  0  0  0  0  0  0  0
   -4.6706  -40.4053   29.5424 O   0  0  0  0  0  0  0  0  0  0  0  0
   -3.1741  -42.2861   29.1047 O   0  0  0  0  0  0  0  0  0  0  0  0
   -2.5186  -41.6613   28.7570 H   0  0  0  0  0  0  0  0  0  0  0  0
   -4.8576  -41.7543   27.3135 O   0  0  0  0  0  0  0  0  0  0  0  0
   -5.8148  -40.9338   26.3397 P   0  0  0  0  0  0  0  0  0  0  0  0
   -6.4755  -41.9352   25.4324 O   0  0  0  0  0  0  0  0  0  0  0  0
   -6.8157  -40.1463   27.2452 O   0  0  0  0  0  0  0  0  0  0  0  0
   -4.7739  -39.7408   25.4691 C   0  0  0  0  0  0  0  0  0  0  0  0
   -7.4193  -39.6309   26.6877 H   0  0  0  0  0  0  0  0  0  0  0  0
 29 30  2  0  0  0
 29 31  1  0  0  0
 29 32  1  0  0  0
 29 28  1  0  0  0
 24 25  2  0  0  0
 24 26  1  0  0  0
 24 28  1  0  0  0
 24 23  1  0  0  0
 23 22  1  0  0  0
 22  1  1  0  0  0
  1  2  1  0  0  0
  1  3  1  0  0  0
  2  7  1  0  0  0
  3  4  1  0  0  0
  3  5  1  0  0  0
  5  6  1  0  0  0
  5  7  1  0  0  0
  7 10  1  0  0  0
 10 11  1  0  0  0
 10 19  1  0  0  0
 11 12  2  0  0  0
 12 13  1  0  0  0
 13 14  1  0  0  0
 13 19  2  0  0  0
 14 15  1  0  0  0
 14 16  2  0  0  0
 16 17  1  0  0  0
 17 18  2  0  0  0
 18 19  1  0  0  0
 31 33  1  0  0  0
 26 27  1  0  0  0
  4  8  1  0  0  0
  6  9  1  0  0  0
 15 20  1  0  0  0
 15 21  1  0  0  0
M  END
> <minimizedAffinity>
-6.62010

$$$$
4MO4_ACP_A_500


 33 35  0  0  0  0  0  0  0  0999 V2000
   -5.3064  -39.8839   26.4855 C   0  0  0  0  0  0  0  0  0  0  0  0
   -5.2074  -40.8522   25.4223 O   0  0  0  0  0  0  0  0  0  0  0  0
   -3.9370  -39.9250   27.1492 C   0  0  0  0  0  0  0  0  0  0  0  0
   -3.9805  -39.4243   28.4836 O   0  0  0  0  0  0  0  0  0  0  0  0
   -3.6071  -41.4204   27.0883 C   0  0  0  0  0  0  0  0  0  0  0  0
   -4.1847  -42.1346   28.1738 O   0  0  0  0  0  0  0  0  0  0  0  0
   -4.2536  -41.8428   25.7625 C   0  0  0  0  0  0  0  0  0  0  0  0
   -4.6306  -39.9288   28.9972 H   0  0  0  0  0  0  0  0  0  0  0  0
   -5.1447  -41.9962   28.1775 H   0  0  0  0  0  0  0  0  0  0  0  0
   -3.3030  -41.9920   24.6710 N   0  0  0  0  0  0  0  0  0  0  0  0
   -3.1163  -41.1566   23.5877 C   0  0  0  0  0  0  0  0  0  0  0  0
   -2.1472  -41.5243   22.7941 N   0  0  0  0  0  0  0  0  0  0  0  0
   -1.6483  -42.6906   23.3809 C   0  0  0  0  0  0  0  0  0  0  0  0
   -0.6106  -43.5623   23.0250 C   0  0  0  0  0  0  0  0  0  0  0  0
    0.1535  -43.4131   21.9392 N   0  0  0  0  0  0  0  0  0  0  0  0
   -0.3864  -44.6284   23.8305 N   0  0  0  0  0  0  0  0  0  0  0  0
   -1.1613  -44.7970   24.9062 C   0  0  0  0  0  0  0  0  0  0  0  0
   -2.1684  -44.0350   25.3436 N   0  0  0  0  0  0  0  0  0  0  0  0
   -2.3665  -42.9770   24.5272 C   0  0  0  0  0  0  0  0  0  0  0  0
    0.0103  -42.6467   21.3381 H   0  0  0  0  0  0  0  0  0  0  0  0
    0.8597  -44.0696   21.7403 H   0  0  0  0  0  0  0  0  0  0  0  0
   -5.7093  -38.5584   25.8958 C   0  0  0  0  0  0  0  0  0  0  0  0
   -4.5371  -37.7218   25.9517 O   0  0  0  0  0  0  0  0  0  0  0  0
   -3.8490  -37.1863   24.5995 P   0  0  0  0  0  0  0  0  0  0  0  0
   -4.6517  -37.5125   23.3940 O   0  0  0  0  0  0  0  0  0  0  0  0
   -3.7140  -35.6588   24.6796 O   0  0  0  0  0  0  0  0  0  0  0  0
   -3.2997  -35.3277   23.8674 H   0  0  0  0  0  0  0  0  0  0  0  0
   -2.3887  -37.7963   24.6673 O   0  0  0  0  0  0  0  0  0  0  0  0
   -1.1949  -37.7035   25.7180 P   0  0  0  0  0  0  0  0  0  0  0  0
   -0.2458  -36.6540   25.2077 O   0  0  0  0  0  0  0  0  0  0  0  0
   -1.8341  -37.3570   27.1011 O   0  0  0  0  0  0  0  0  0  0  0  0
   -0.4650  -39.3528   25.8245 C   0  0  0  0  0  0  0  0  0  0  0  0
   -1.1368  -37.2912   27.7722 H   0  0  0  0  0  0  0  0  0  0  0  0
 29 30  2  0  0  0
 29 31  1  0  0  0
 29 32  1  0  0  0
 29 28  1  0  0  0
 24 25  2  0  0  0
 24 26  1  0  0  0
 24 28  1  0  0  0
 24 23  1  0  0  0
 23 22  1  0  0  0
 22  1  1  0  0  0
  1  2  1  0  0  0
  1  3  1  0  0  0
  2  7  1  0  0  0
  3  4  1  0  0  0
  3  5  1  0  0  0
  5  6  1  0  0  0
  5  7  1  0  0  0
  7 10  1  0  0  0
 10 11  1  0  0  0
 10 19  1  0  0  0
 11 12  2  0  0  0
 12 13  1  0  0  0
 13 14  1  0  0  0
 13 19  2  0  0  0
 14 15  1  0  0  0
 14 16  2  0  0  0
 16 17  1  0  0  0
 17 18  2  0  0  0
 18 19  1  0  0  0
 31 33  1  0  0  0
 26 27  1  0  0  0
  4  8  1  0  0  0
  6  9  1  0  0  0
 15 20  1  0  0  0
 15 21  1  0  0  0
M  END
> <minimizedAffinity>
-6.59053

$$$$
4MO4_ACP_A_500


 33 35  0  0  0  0  0  0  0  0999 V2000
   -2.9397  -37.6010   25.2627 C   0  0  0  0  0  0  0  0  0  0  0  0
   -2.4534  -38.7169   24.4907 O   0  0  0  0  0  0  0  0  0  0  0  0
   -4.4008  -37.9413   25.5212 C   0  0  0  0  0  0  0  0  0  0  0  0
   -5.1679  -36.7799   25.8303 O   0  0  0  0  0  0  0  0  0  0  0  0
   -4.8097  -38.5845   24.1916 C   0  0  0  0  0  0  0  0  0  0  0  0
   -5.1796  -37.6105   23.2239 O   0  0  0  0  0  0  0  0  0  0  0  0
   -3.5215  -39.3017   23.7669 C   0  0  0  0  0  0  0  0  0  0  0  0
   -5.0836  -36.1356   25.1101 H   0  0  0  0  0  0  0  0  0  0  0  0
   -4.4453  -36.9905   23.0922 H   0  0  0  0  0  0  0  0  0  0  0  0
   -3.5433  -40.7355   24.0136 N   0  0  0  0  0  0  0  0  0  0  0  0
   -4.3777  -41.4389   24.8593 C   0  0  0  0  0  0  0  0  0  0  0  0
   -4.1949  -42.7311   24.8323 N   0  0  0  0  0  0  0  0  0  0  0  0
   -3.1632  -42.9115   23.9069 C   0  0  0  0  0  0  0  0  0  0  0  0
   -2.5089  -44.0537   23.4265 C   0  0  0  0  0  0  0  0  0  0  0  0
   -2.7859  -45.2985   23.8247 N   0  0  0  0  0  0  0  0  0  0  0  0
   -1.5248  -43.8721   22.5131 N   0  0  0  0  0  0  0  0  0  0  0  0
   -1.2264  -42.6280   22.1267 C   0  0  0  0  0  0  0  0  0  0  0  0
   -1.7808  -41.4739   22.5094 N   0  0  0  0  0  0  0  0  0  0  0  0
   -2.7619  -41.6834   23.4143 C   0  0  0  0  0  0  0  0  0  0  0  0
   -3.4965  -45.4566   24.4875 H   0  0  0  0  0  0  0  0  0  0  0  0
   -2.2796  -46.0576   23.4552 H   0  0  0  0  0  0  0  0  0  0  0  0
   -2.0761  -37.4475   26.4866 C   0  0  0  0  0  0  0  0  0  0  0  0
   -0.7268  -37.7240   26.0624 O   0  0  0  0  0  0  0  0  0  0  0  0
    0.4300  -38.0039   27.1451 P   0  0  0  0  0  0  0  0  0  0  0  0
    1.6532  -37.2060   26.8786 O   0  0  0  0  0  0  0  0  0  0  0  0
   -0.0892  -37.6238   28.5393 O   0  0  0  0  0  0  0  0  0  0  0  0
    0.6029  -37.7897   29.1984 H   0  0  0  0  0  0  0  0  0  0  0  0
    0.5880  -39.5797   27.1106 O   0  0  0  0  0  0  0  0  0  0  0  0
    0.0736  -40.7254   26.1306 P   0  0  0  0  0  0  0  0  0  0  0  0
   -1.2861  -41.1409   26.6216 O   0  0  0  0  0  0  0  0  0  0  0  0
    0.0662  -40.1203   24.6899 O   0  0  0  0  0  0  0  0  0  0  0  0
    1.3018  -42.0493   26.1864 C   0  0  0  0  0  0  0  0  0  0  0  0
   -0.2425  -40.7898   24.0596 H   0  0  0  0  0  0  0  0  0  0  0  0
 29 30  2  0  0  0
 29 31  1  0  0  0
 29 32  1  0  0  0
 29 28  1  0  0  0
 24 25  2  0  0  0
 24 26  1  0  0  0
 24 28  1  0  0  0
 24 23  1  0  0  0
 23 22  1  0  0  0
 22  1  1  0  0  0
  1  2  1  0  0  0
  1  3  1  0  0  0
  2  7  1  0  0  0
  3  4  1  0  0  0
  3  5  1  0  0  0
  5  6  1  0  0  0
  5  7  1  0  0  0
  7 10  1  0  0  0
 10 11  1  0  0  0
 10 19  1  0  0  0
 11 12  2  0  0  0
 12 13  1  0  0  0
 13 14  1  0  0  0
 13 19  2  0  0  0
 14 15  1  0  0  0
 14 16  2  0  0  0
 16 17  1  0  0  0
 17 18  2  0  0  0
 18 19  1  0  0  0
 31 33  1  0  0  0
 26 27  1  0  0  0
  4  8  1  0  0  0
  6  9  1  0  0  0
 15 20  1  0  0  0
 15 21  1  0  0  0
M  END
> <minimizedAffinity>
-6.57735

$$$$
4MO4_ACP_A_500


 33 35  0  0  0  0  0  0  0  0999 V2000
   -2.8871  -37.5761   24.8932 C   0  0  0  0  0  0  0  0  0  0  0  0
   -2.5292  -38.7457   24.1305 O   0  0  0  0  0  0  0  0  0  0  0  0
   -4.3032  -37.8669   25.3702 C   0  0  0  0  0  0  0  0  0  0  0  0
   -5.0026  -36.6721   25.7111 O   0  0  0  0  0  0  0  0  0  0  0  0
   -4.9021  -38.5762   24.1508 C   0  0  0  0  0  0  0  0  0  0  0  0
   -5.3878  -37.6514   23.1860 O   0  0  0  0  0  0  0  0  0  0  0  0
   -3.6960  -39.3464   23.5971 C   0  0  0  0  0  0  0  0  0  0  0  0
   -5.0092  -36.0726   24.9485 H   0  0  0  0  0  0  0  0  0  0  0  0
   -4.6697  -37.0573   22.9174 H   0  0  0  0  0  0  0  0  0  0  0  0
   -3.7048  -40.7627   23.9305 N   0  0  0  0  0  0  0  0  0  0  0  0
   -4.5545  -41.4265   24.7930 C   0  0  0  0  0  0  0  0  0  0  0  0
   -4.3526  -42.7149   24.8507 N   0  0  0  0  0  0  0  0  0  0  0  0
   -3.2908  -42.9347   23.9689 C   0  0  0  0  0  0  0  0  0  0  0  0
   -2.6060  -44.0934   23.5790 C   0  0  0  0  0  0  0  0  0  0  0  0
   -2.8773  -45.3159   24.0445 N   0  0  0  0  0  0  0  0  0  0  0  0
   -1.5974  -43.9521   22.6854 N   0  0  0  0  0  0  0  0  0  0  0  0
   -1.3051  -42.7292   22.2323 C   0  0  0  0  0  0  0  0  0  0  0  0
   -1.8873  -41.5629   22.5270 N   0  0  0  0  0  0  0  0  0  0  0  0
   -2.8923  -41.7326   23.4138 C   0  0  0  0  0  0  0  0  0  0  0  0
   -3.6053  -45.4447   24.6946 H   0  0  0  0  0  0  0  0  0  0  0  0
   -2.3492  -46.0879   23.7374 H   0  0  0  0  0  0  0  0  0  0  0  0
   -1.8600  -37.3721   25.9753 C   0  0  0  0  0  0  0  0  0  0  0  0
   -1.7194  -38.6436   26.6393 O   0  0  0  0  0  0  0  0  0  0  0  0
   -1.8710  -38.7530   28.2373 P   0  0  0  0  0  0  0  0  0  0  0  0
   -0.6833  -38.2210   28.9516 O   0  0  0  0  0  0  0  0  0  0  0  0
   -3.0945  -37.9370   28.6793 O   0  0  0  0  0  0  0  0  0  0  0  0
   -3.1929  -37.9979   29.6424 H   0  0  0  0  0  0  0  0  0  0  0  0
   -2.2123  -40.2827   28.4672 O   0  0  0  0  0  0  0  0  0  0  0  0
   -3.5535  -41.0873   28.7695 P   0  0  0  0  0  0  0  0  0  0  0  0
   -4.6942  -40.1328   28.5448 O   0  0  0  0  0  0  0  0  0  0  0  0
   -3.5667  -42.3225   27.8126 O   0  0  0  0  0  0  0  0  0  0  0  0
   -3.4308  -41.6849   30.4701 C   0  0  0  0  0  0  0  0  0  0  0  0
   -4.3718  -42.8416   27.9658 H   0  0  0  0  0  0  0  0  0  0  0  0
 29 30  2  0  0  0
 29 31  1  0  0  0
 29 32  1  0  0  0
 29 28  1  0  0  0
 24 25  2  0  0  0
 24 26  1  0  0  0
 24 28  1  0  0  0
 24 23  1  0  0  0
 23 22  1  0  0  0
 22  1  1  0  0  0
  1  2  1  0  0  0
  1  3  1  0  0  0
  2  7  1  0  0  0
  3  4  1  0  0  0
  3  5  1  0  0  0
  5  6  1  0  0  0
  5  7  1  0  0  0
  7 10  1  0  0  0
 10 11  1  0  0  0
 10 19  1  0  0  0
 11 12  2  0  0  0
 12 13  1  0  0  0
 13 14  1  0  0  0
 13 19  2  0  0  0
 14 15  1  0  0  0
 14 16  2  0  0  0
 16 17  1  0  0  0
 17 18  2  0  0  0
 18 19  1  0  0  0
 31 33  1  0  0  0
 26 27  1  0  0  0
  4  8  1  0  0  0
  6  9  1  0  0  0
 15 20  1  0  0  0
 15 21  1  0  0  0
M  END
> <minimizedAffinity>
-6.56380

$$$$
