3UOD_0C3_A_1


 30 32  0  0  0  0  0  0  0  0999 V2000
    3.8098   31.8669    9.3295 N   0  0  0  0  0  0  0  0  0  0  0  0
    4.5960   30.8681    7.3613 N   0  0  0  0  0  0  0  0  0  0  0  0
    4.3730   30.9092   10.1021 C   0  0  0  0  0  0  0  0  0  0  0  0
    3.9168   31.8401    7.9881 C   0  0  0  0  0  0  0  0  0  0  0  0
    5.1676   29.8872    8.0906 C   0  0  0  0  0  0  0  0  0  0  0  0
    5.0730   29.8741    9.4795 C   0  0  0  0  0  0  0  0  0  0  0  0
    5.8852   28.8447    7.4430 N   0  0  0  0  0  0  0  0  0  0  0  0
    5.4538   27.9715    7.2990 H   0  0  0  0  0  0  0  0  0  0  0  0
    7.2230   29.0529    7.0007 C   0  0  0  0  0  0  0  0  0  0  0  0
    7.4315   29.8998    5.9108 C   0  0  0  0  0  0  0  0  0  0  0  0
    8.7166   30.1211    5.4359 C   0  0  0  0  0  0  0  0  0  0  0  0
    9.7846   29.4922    6.0622 C   0  0  0  0  0  0  0  0  0  0  0  0
    9.5789   28.6429    7.1518 C   0  0  0  0  0  0  0  0  0  0  0  0
    8.2946   28.4094    7.6354 C   0  0  0  0  0  0  0  0  0  0  0  0
    8.1187   27.4779    8.8142 C   0  0  0  0  0  0  0  0  0  0  0  0
    7.2699   26.4739    8.5529 F   0  0  0  0  0  0  0  0  0  0  0  0
    7.6507   28.1699    9.8530 F   0  0  0  0  0  0  0  0  0  0  0  0
    9.3064   26.9433    9.1372 F   0  0  0  0  0  0  0  0  0  0  0  0
    3.2895   32.9014    7.2520 N   0  0  0  0  0  0  0  0  0  0  0  0
    3.0266   33.6995    7.7650 H   0  0  0  0  0  0  0  0  0  0  0  0
    3.0056   32.9181    5.8411 C   0  0  0  0  0  0  0  0  0  0  0  0
    3.8481   32.3219    4.9132 C   0  0  0  0  0  0  0  0  0  0  0  0
    3.5627   32.3623    3.5500 C   0  0  0  0  0  0  0  0  0  0  0  0
    2.4279   33.0367    3.1296 C   0  0  0  0  0  0  0  0  0  0  0  0
    1.5811   33.6521    4.0507 C   0  0  0  0  0  0  0  0  0  0  0  0
    1.8751   33.5938    5.4039 C   0  0  0  0  0  0  0  0  0  0  0  0
    2.0932   33.0766    1.6791 C   0  0  0  0  0  0  0  0  0  0  0  0
    1.2094   32.2836    1.2265 O   0  0  0  0  0  0  0  0  0  0  0  0
    2.7052   33.8697    0.9211 O   0  0  0  0  0  0  0  0  0  0  0  0
    0.7631   31.6989    1.8069 H   0  0  0  0  0  0  0  0  0  0  0  0
 29 27  2  0  0  0
 28 27  1  0  0  0
 27 24  1  0  0  0
 12 11  2  0  0  0
 12 13  1  0  0  0
 24 23  2  0  0  0
 24 25  1  0  0  0
 11 10  1  0  0  0
 23 22  1  0  0  0
 13 14  2  0  0  0
 25 26  2  0  0  0
 10  9  2  0  0  0
 22 21  2  0  0  0
 14  9  1  0  0  0
 14 15  1  0  0  0
  9  7  1  0  0  0
 26 21  1  0  0  0
 21 19  1  0  0  0
 18 15  1  0  0  0
 17 15  1  0  0  0
 15 16  1  0  0  0
  7  5  1  0  0  0
  2  5  2  0  0  0
  2  4  1  0  0  0
 19  4  1  0  0  0
  5  6  1  0  0  0
  4  1  2  0  0  0
  6  3  2  0  0  0
  1  3  1  0  0  0
  7  8  1  0  0  0
 19 20  1  0  0  0
 28 30  1  0  0  0
M  END
> <minimizedAffinity>
-10.14391

$$$$
3UOD_0C3_A_1


 30 32  0  0  0  0  0  0  0  0999 V2000
    3.9722   31.5822    9.2276 N   0  0  0  0  0  0  0  0  0  0  0  0
    4.7934   30.8684    7.1526 N   0  0  0  0  0  0  0  0  0  0  0  0
    4.5469   30.5403    9.8720 C   0  0  0  0  0  0  0  0  0  0  0  0
    4.0908   31.7362    7.8957 C   0  0  0  0  0  0  0  0  0  0  0  0
    5.3775   29.8095    7.7511 C   0  0  0  0  0  0  0  0  0  0  0  0
    5.2716   29.6098    9.1249 C   0  0  0  0  0  0  0  0  0  0  0  0
    6.1201   28.8753    6.9783 N   0  0  0  0  0  0  0  0  0  0  0  0
    6.4459   28.0456    7.3963 H   0  0  0  0  0  0  0  0  0  0  0  0
    6.3966   29.1296    5.6045 C   0  0  0  0  0  0  0  0  0  0  0  0
    5.3491   29.0110    4.6894 C   0  0  0  0  0  0  0  0  0  0  0  0
    5.5749   29.2353    3.3386 C   0  0  0  0  0  0  0  0  0  0  0  0
    6.8518   29.5809    2.9166 C   0  0  0  0  0  0  0  0  0  0  0  0
    7.9023   29.6987    3.8296 C   0  0  0  0  0  0  0  0  0  0  0  0
    7.6901   29.4726    5.1867 C   0  0  0  0  0  0  0  0  0  0  0  0
    8.8582   29.6062    6.1384 C   0  0  0  0  0  0  0  0  0  0  0  0
    8.6057   29.0679    7.3398 F   0  0  0  0  0  0  0  0  0  0  0  0
    9.1429   30.8980    6.3034 F   0  0  0  0  0  0  0  0  0  0  0  0
    9.9257   28.9801    5.6198 F   0  0  0  0  0  0  0  0  0  0  0  0
    3.4496   32.8748    7.3006 N   0  0  0  0  0  0  0  0  0  0  0  0
    3.2837   33.6462    7.8894 H   0  0  0  0  0  0  0  0  0  0  0  0
    3.0246   33.0040    5.9316 C   0  0  0  0  0  0  0  0  0  0  0  0
    1.8683   33.6869    5.5808 C   0  0  0  0  0  0  0  0  0  0  0  0
    1.4664   33.7876    4.2504 C   0  0  0  0  0  0  0  0  0  0  0  0
    2.2322   33.1666    3.2772 C   0  0  0  0  0  0  0  0  0  0  0  0
    3.3883   32.4655    3.6184 C   0  0  0  0  0  0  0  0  0  0  0  0
    3.7787   32.3834    4.9457 C   0  0  0  0  0  0  0  0  0  0  0  0
    1.8319   33.2772    1.8472 C   0  0  0  0  0  0  0  0  0  0  0  0
    2.3537   32.4904    0.9965 O   0  0  0  0  0  0  0  0  0  0  0  0
    1.0092   34.1600    1.4980 O   0  0  0  0  0  0  0  0  0  0  0  0
    2.9656   31.8379    1.2753 H   0  0  0  0  0  0  0  0  0  0  0  0
 29 27  2  0  0  0
 28 27  1  0  0  0
 27 24  1  0  0  0
 12 11  2  0  0  0
 12 13  1  0  0  0
 24 23  2  0  0  0
 24 25  1  0  0  0
 11 10  1  0  0  0
 23 22  1  0  0  0
 13 14  2  0  0  0
 25 26  2  0  0  0
 10  9  2  0  0  0
 22 21  2  0  0  0
 14  9  1  0  0  0
 14 15  1  0  0  0
  9  7  1  0  0  0
 26 21  1  0  0  0
 21 19  1  0  0  0
 18 15  1  0  0  0
 17 15  1  0  0  0
 15 16  1  0  0  0
  7  5  1  0  0  0
  2  5  2  0  0  0
  2  4  1  0  0  0
 19  4  1  0  0  0
  5  6  1  0  0  0
  4  1  2  0  0  0
  6  3  2  0  0  0
  1  3  1  0  0  0
  7  8  1  0  0  0
 19 20  1  0  0  0
 28 30  1  0  0  0
M  END
> <minimizedAffinity>
-9.53842

$$$$
3UOD_0C3_A_1


 30 32  0  0  0  0  0  0  0  0999 V2000
    3.6122   31.9597    8.9678 N   0  0  0  0  0  0  0  0  0  0  0  0
    4.4126   31.0625    6.9569 N   0  0  0  0  0  0  0  0  0  0  0  0
    4.1985   30.9826    9.6976 C   0  0  0  0  0  0  0  0  0  0  0  0
    3.7150   31.9922    7.6261 C   0  0  0  0  0  0  0  0  0  0  0  0
    5.0078   30.0642    7.6423 C   0  0  0  0  0  0  0  0  0  0  0  0
    4.9184   29.9901    9.0297 C   0  0  0  0  0  0  0  0  0  0  0  0
    5.7453   29.0657    6.9491 N   0  0  0  0  0  0  0  0  0  0  0  0
    5.4172   28.7288    6.0842 H   0  0  0  0  0  0  0  0  0  0  0  0
    6.9548   28.5489    7.4955 C   0  0  0  0  0  0  0  0  0  0  0  0
    6.8666   27.6807    8.5851 C   0  0  0  0  0  0  0  0  0  0  0  0
    8.0194   27.1638    9.1594 C   0  0  0  0  0  0  0  0  0  0  0  0
    9.2536   27.5202    8.6324 C   0  0  0  0  0  0  0  0  0  0  0  0
    9.3452   28.3899    7.5434 C   0  0  0  0  0  0  0  0  0  0  0  0
    8.1968   28.9186    6.9606 C   0  0  0  0  0  0  0  0  0  0  0  0
    8.3439   29.8609    5.7865 C   0  0  0  0  0  0  0  0  0  0  0  0
    8.3862   29.2155    4.6124 F   0  0  0  0  0  0  0  0  0  0  0  0
    9.4692   30.5620    5.9262 F   0  0  0  0  0  0  0  0  0  0  0  0
    7.2987   30.7019    5.7600 F   0  0  0  0  0  0  0  0  0  0  0  0
    3.0624   33.0699    6.9374 N   0  0  0  0  0  0  0  0  0  0  0  0
    2.7886   33.8418    7.4838 H   0  0  0  0  0  0  0  0  0  0  0  0
    2.7675   33.1375    5.5303 C   0  0  0  0  0  0  0  0  0  0  0  0
    1.6765   33.8411    5.0395 C   0  0  0  0  0  0  0  0  0  0  0  0
    1.3998   33.8816    3.6745 C   0  0  0  0  0  0  0  0  0  0  0  0
    2.2235   33.1796    2.8096 C   0  0  0  0  0  0  0  0  0  0  0  0
    3.3144   32.4571    3.2918 C   0  0  0  0  0  0  0  0  0  0  0  0
    3.5805   32.4355    4.6517 C   0  0  0  0  0  0  0  0  0  0  0  0
    1.9578   33.2242    1.3451 C   0  0  0  0  0  0  0  0  0  0  0  0
    2.7266   32.5887    0.5576 O   0  0  0  0  0  0  0  0  0  0  0  0
    0.9993   33.9081    0.9073 O   0  0  0  0  0  0  0  0  0  0  0  0
    3.4366   32.0836    0.9022 H   0  0  0  0  0  0  0  0  0  0  0  0
 29 27  2  0  0  0
 28 27  1  0  0  0
 27 24  1  0  0  0
 12 11  2  0  0  0
 12 13  1  0  0  0
 24 23  2  0  0  0
 24 25  1  0  0  0
 11 10  1  0  0  0
 23 22  1  0  0  0
 13 14  2  0  0  0
 25 26  2  0  0  0
 10  9  2  0  0  0
 22 21  2  0  0  0
 14  9  1  0  0  0
 14 15  1  0  0  0
  9  7  1  0  0  0
 26 21  1  0  0  0
 21 19  1  0  0  0
 18 15  1  0  0  0
 17 15  1  0  0  0
 15 16  1  0  0  0
  7  5  1  0  0  0
  2  5  2  0  0  0
  2  4  1  0  0  0
 19  4  1  0  0  0
  5  6  1  0  0  0
  4  1  2  0  0  0
  6  3  2  0  0  0
  1  3  1  0  0  0
  7  8  1  0  0  0
 19 20  1  0  0  0
 28 30  1  0  0  0
M  END
> <minimizedAffinity>
-9.41556

$$$$
3UOD_0C3_A_1


 30 32  0  0  0  0  0  0  0  0999 V2000
    9.2965   29.4487    4.7359 N   0  0  0  0  0  0  0  0  0  0  0  0
    7.0287   28.8663    4.6506 N   0  0  0  0  0  0  0  0  0  0  0  0
    9.2423   29.6729    6.0694 C   0  0  0  0  0  0  0  0  0  0  0  0
    8.2094   29.0592    4.0444 C   0  0  0  0  0  0  0  0  0  0  0  0
    6.9252   29.0854    5.9780 C   0  0  0  0  0  0  0  0  0  0  0  0
    8.0238   29.4970    6.7278 C   0  0  0  0  0  0  0  0  0  0  0  0
    5.6798   28.8932    6.6364 N   0  0  0  0  0  0  0  0  0  0  0  0
    5.3120   27.9847    6.7294 H   0  0  0  0  0  0  0  0  0  0  0  0
    4.9599   30.0038    7.1624 C   0  0  0  0  0  0  0  0  0  0  0  0
    4.4361   30.9342    6.2630 C   0  0  0  0  0  0  0  0  0  0  0  0
    3.7398   32.0399    6.7305 C   0  0  0  0  0  0  0  0  0  0  0  0
    3.5714   32.2015    8.0993 C   0  0  0  0  0  0  0  0  0  0  0  0
    4.0958   31.2733    9.0017 C   0  0  0  0  0  0  0  0  0  0  0  0
    4.7996   30.1620    8.5460 C   0  0  0  0  0  0  0  0  0  0  0  0
    5.3544   29.1858    9.5596 C   0  0  0  0  0  0  0  0  0  0  0  0
    5.0077   27.9183    9.2947 F   0  0  0  0  0  0  0  0  0  0  0  0
    4.8989   29.5061   10.7708 F   0  0  0  0  0  0  0  0  0  0  0  0
    6.6943   29.2583    9.5569 F   0  0  0  0  0  0  0  0  0  0  0  0
    8.3643   28.8417    2.6336 N   0  0  0  0  0  0  0  0  0  0  0  0
    8.7304   27.9702    2.3585 H   0  0  0  0  0  0  0  0  0  0  0  0
    8.0393   29.7672    1.5803 C   0  0  0  0  0  0  0  0  0  0  0  0
    6.7271   30.0575    1.2339 C   0  0  0  0  0  0  0  0  0  0  0  0
    6.4339   30.9453    0.2008 C   0  0  0  0  0  0  0  0  0  0  0  0
    7.4832   31.5182   -0.4992 C   0  0  0  0  0  0  0  0  0  0  0  0
    8.8058   31.2236   -0.1703 C   0  0  0  0  0  0  0  0  0  0  0  0
    9.0795   30.3457    0.8666 C   0  0  0  0  0  0  0  0  0  0  0  0
    7.1935   32.4843   -1.5947 C   0  0  0  0  0  0  0  0  0  0  0  0
    6.9692   33.7008   -1.3032 O   0  0  0  0  0  0  0  0  0  0  0  0
    7.1474   32.0812   -2.7837 O   0  0  0  0  0  0  0  0  0  0  0  0
    7.0080   33.9835   -0.4107 H   0  0  0  0  0  0  0  0  0  0  0  0
 29 27  2  0  0  0
 28 27  1  0  0  0
 27 24  1  0  0  0
 12 11  2  0  0  0
 12 13  1  0  0  0
 24 23  2  0  0  0
 24 25  1  0  0  0
 11 10  1  0  0  0
 23 22  1  0  0  0
 13 14  2  0  0  0
 25 26  2  0  0  0
 10  9  2  0  0  0
 22 21  2  0  0  0
 14  9  1  0  0  0
 14 15  1  0  0  0
  9  7  1  0  0  0
 26 21  1  0  0  0
 21 19  1  0  0  0
 18 15  1  0  0  0
 17 15  1  0  0  0
 15 16  1  0  0  0
  7  5  1  0  0  0
  2  5  2  0  0  0
  2  4  1  0  0  0
 19  4  1  0  0  0
  5  6  1  0  0  0
  4  1  2  0  0  0
  6  3  2  0  0  0
  1  3  1  0  0  0
  7  8  1  0  0  0
 19 20  1  0  0  0
 28 30  1  0  0  0
M  END
> <minimizedAffinity>
-9.21389

$$$$
3UOD_0C3_A_1


 30 32  0  0  0  0  0  0  0  0999 V2000
    6.5046   30.6502    0.8621 N   0  0  0  0  0  0  0  0  0  0  0  0
    7.2404   29.5648    2.8038 N   0  0  0  0  0  0  0  0  0  0  0  0
    7.6724   30.4093    0.2224 C   0  0  0  0  0  0  0  0  0  0  0  0
    6.2991   30.2398    2.1274 C   0  0  0  0  0  0  0  0  0  0  0  0
    8.4241   29.3087    2.2088 C   0  0  0  0  0  0  0  0  0  0  0  0
    8.6791   29.7233    0.9044 C   0  0  0  0  0  0  0  0  0  0  0  0
    9.4363   28.6009    2.9129 N   0  0  0  0  0  0  0  0  0  0  0  0
   10.3654   28.9256    2.8894 H   0  0  0  0  0  0  0  0  0  0  0  0
    9.1174   27.4259    3.6520 C   0  0  0  0  0  0  0  0  0  0  0  0
    8.7819   26.2722    2.9414 C   0  0  0  0  0  0  0  0  0  0  0  0
    8.4500   25.1077    3.6194 C   0  0  0  0  0  0  0  0  0  0  0  0
    8.4609   25.1094    5.0080 C   0  0  0  0  0  0  0  0  0  0  0  0
    8.7945   26.2627    5.7218 C   0  0  0  0  0  0  0  0  0  0  0  0
    9.1255   27.4383    5.0538 C   0  0  0  0  0  0  0  0  0  0  0  0
    9.4748   28.6645    5.8678 C   0  0  0  0  0  0  0  0  0  0  0  0
   10.7099   29.1171    5.6100 F   0  0  0  0  0  0  0  0  0  0  0  0
    9.3940   28.3667    7.1647 F   0  0  0  0  0  0  0  0  0  0  0  0
    8.6057   29.6467    5.5840 F   0  0  0  0  0  0  0  0  0  0  0  0
    5.0268   30.5377    2.7223 N   0  0  0  0  0  0  0  0  0  0  0  0
    4.2571   30.5994    2.1115 H   0  0  0  0  0  0  0  0  0  0  0  0
    4.7611   30.7554    4.1201 C   0  0  0  0  0  0  0  0  0  0  0  0
    5.0516   29.7987    5.0826 C   0  0  0  0  0  0  0  0  0  0  0  0
    4.7726   30.0233    6.4292 C   0  0  0  0  0  0  0  0  0  0  0  0
    4.1705   31.2171    6.7917 C   0  0  0  0  0  0  0  0  0  0  0  0
    3.8606   32.1804    5.8323 C   0  0  0  0  0  0  0  0  0  0  0  0
    4.1538   31.9445    4.4984 C   0  0  0  0  0  0  0  0  0  0  0  0
    3.8806   31.4864    8.2273 C   0  0  0  0  0  0  0  0  0  0  0  0
    3.4049   32.6167    8.5606 O   0  0  0  0  0  0  0  0  0  0  0  0
    4.1345   30.6079    9.0887 O   0  0  0  0  0  0  0  0  0  0  0  0
    3.2216   33.2599    7.9043 H   0  0  0  0  0  0  0  0  0  0  0  0
 29 27  2  0  0  0
 28 27  1  0  0  0
 27 24  1  0  0  0
 12 11  2  0  0  0
 12 13  1  0  0  0
 24 23  2  0  0  0
 24 25  1  0  0  0
 11 10  1  0  0  0
 23 22  1  0  0  0
 13 14  2  0  0  0
 25 26  2  0  0  0
 10  9  2  0  0  0
 22 21  2  0  0  0
 14  9  1  0  0  0
 14 15  1  0  0  0
  9  7  1  0  0  0
 26 21  1  0  0  0
 21 19  1  0  0  0
 18 15  1  0  0  0
 17 15  1  0  0  0
 15 16  1  0  0  0
  7  5  1  0  0  0
  2  5  2  0  0  0
  2  4  1  0  0  0
 19  4  1  0  0  0
  5  6  1  0  0  0
  4  1  2  0  0  0
  6  3  2  0  0  0
  1  3  1  0  0  0
  7  8  1  0  0  0
 19 20  1  0  0  0
 28 30  1  0  0  0
M  END
> <minimizedAffinity>
-9.06338

$$$$
3UOD_0C3_A_1


 30 32  0  0  0  0  0  0  0  0999 V2000
    6.6743   30.3620    1.0493 N   0  0  0  0  0  0  0  0  0  0  0  0
    7.3121   29.3541    3.0659 N   0  0  0  0  0  0  0  0  0  0  0  0
    7.8471   30.0387    0.4566 C   0  0  0  0  0  0  0  0  0  0  0  0
    6.4186   30.0297    2.3283 C   0  0  0  0  0  0  0  0  0  0  0  0
    8.4989   29.0174    2.5192 C   0  0  0  0  0  0  0  0  0  0  0  0
    8.8054   29.3497    1.2024 C   0  0  0  0  0  0  0  0  0  0  0  0
    9.4612   28.3075    3.2883 N   0  0  0  0  0  0  0  0  0  0  0  0
   10.2917   27.9944    2.8624 H   0  0  0  0  0  0  0  0  0  0  0  0
    9.2336   28.0456    4.6696 C   0  0  0  0  0  0  0  0  0  0  0  0
    9.5585   29.0430    5.5908 C   0  0  0  0  0  0  0  0  0  0  0  0
    9.3674   28.8270    6.9483 C   0  0  0  0  0  0  0  0  0  0  0  0
    8.8476   27.6107    7.3710 C   0  0  0  0  0  0  0  0  0  0  0  0
    8.5232   26.6103    6.4519 C   0  0  0  0  0  0  0  0  0  0  0  0
    8.7137   26.8128    5.0879 C   0  0  0  0  0  0  0  0  0  0  0  0
    8.3534   25.6994    4.1293 C   0  0  0  0  0  0  0  0  0  0  0  0
    8.0280   24.5630    4.7615 F   0  0  0  0  0  0  0  0  0  0  0  0
    9.3918   25.4575    3.3291 F   0  0  0  0  0  0  0  0  0  0  0  0
    7.3011   26.0770    3.3874 F   0  0  0  0  0  0  0  0  0  0  0  0
    5.1451   30.4118    2.8702 N   0  0  0  0  0  0  0  0  0  0  0  0
    4.4028   30.5057    2.2303 H   0  0  0  0  0  0  0  0  0  0  0  0
    4.8422   30.6716    4.2531 C   0  0  0  0  0  0  0  0  0  0  0  0
    5.1569   29.7677    5.2583 C   0  0  0  0  0  0  0  0  0  0  0  0
    4.8415   30.0318    6.5896 C   0  0  0  0  0  0  0  0  0  0  0  0
    4.1786   31.2098    6.8932 C   0  0  0  0  0  0  0  0  0  0  0  0
    3.8442   32.1193    5.8905 C   0  0  0  0  0  0  0  0  0  0  0  0
    4.1740   31.8451    4.5727 C   0  0  0  0  0  0  0  0  0  0  0  0
    3.8484   31.5213    8.3114 C   0  0  0  0  0  0  0  0  0  0  0  0
    3.3038   32.6355    8.5891 O   0  0  0  0  0  0  0  0  0  0  0  0
    4.1362   30.6953    9.2131 O   0  0  0  0  0  0  0  0  0  0  0  0
    3.0962   33.2393    7.9033 H   0  0  0  0  0  0  0  0  0  0  0  0
 29 27  2  0  0  0
 28 27  1  0  0  0
 27 24  1  0  0  0
 12 11  2  0  0  0
 12 13  1  0  0  0
 24 23  2  0  0  0
 24 25  1  0  0  0
 11 10  1  0  0  0
 23 22  1  0  0  0
 13 14  2  0  0  0
 25 26  2  0  0  0
 10  9  2  0  0  0
 22 21  2  0  0  0
 14  9  1  0  0  0
 14 15  1  0  0  0
  9  7  1  0  0  0
 26 21  1  0  0  0
 21 19  1  0  0  0
 18 15  1  0  0  0
 17 15  1  0  0  0
 15 16  1  0  0  0
  7  5  1  0  0  0
  2  5  2  0  0  0
  2  4  1  0  0  0
 19  4  1  0  0  0
  5  6  1  0  0  0
  4  1  2  0  0  0
  6  3  2  0  0  0
  1  3  1  0  0  0
  7  8  1  0  0  0
 19 20  1  0  0  0
 28 30  1  0  0  0
M  END
> <minimizedAffinity>
-8.96202

$$$$
3UOD_0C3_A_1


 30 32  0  0  0  0  0  0  0  0999 V2000
    7.4374   28.2297    9.7934 N   0  0  0  0  0  0  0  0  0  0  0  0
    7.3595   28.7368    7.5073 N   0  0  0  0  0  0  0  0  0  0  0  0
    8.6668   27.6753    9.6816 C   0  0  0  0  0  0  0  0  0  0  0  0
    6.7987   28.7433    8.7257 C   0  0  0  0  0  0  0  0  0  0  0  0
    8.5812   28.1871    7.3465 C   0  0  0  0  0  0  0  0  0  0  0  0
    9.2713   27.6379    8.4237 C   0  0  0  0  0  0  0  0  0  0  0  0
    9.1880   28.1646    6.0609 N   0  0  0  0  0  0  0  0  0  0  0  0
   10.1640   28.0615    5.9836 H   0  0  0  0  0  0  0  0  0  0  0  0
    8.3958   28.2901    4.8840 C   0  0  0  0  0  0  0  0  0  0  0  0
    7.9907   29.5686    4.4966 C   0  0  0  0  0  0  0  0  0  0  0  0
    7.2056   29.7379    3.3648 C   0  0  0  0  0  0  0  0  0  0  0  0
    6.8356   28.6209    2.6275 C   0  0  0  0  0  0  0  0  0  0  0  0
    7.2379   27.3403    3.0135 C   0  0  0  0  0  0  0  0  0  0  0  0
    8.0222   27.1564    4.1489 C   0  0  0  0  0  0  0  0  0  0  0  0
    8.4299   25.7510    4.5323 C   0  0  0  0  0  0  0  0  0  0  0  0
    8.1170   25.4540    5.8014 F   0  0  0  0  0  0  0  0  0  0  0  0
    9.7475   25.6200    4.3781 F   0  0  0  0  0  0  0  0  0  0  0  0
    7.8013   24.8744    3.7342 F   0  0  0  0  0  0  0  0  0  0  0  0
    5.4992   29.3141    8.9424 N   0  0  0  0  0  0  0  0  0  0  0  0
    5.0281   29.0415    9.7627 H   0  0  0  0  0  0  0  0  0  0  0  0
    4.8146   30.2440    8.0832 C   0  0  0  0  0  0  0  0  0  0  0  0
    4.8835   30.1564    6.6998 C   0  0  0  0  0  0  0  0  0  0  0  0
    4.2253   31.0759    5.8857 C   0  0  0  0  0  0  0  0  0  0  0  0
    3.5165   32.1043    6.4851 C   0  0  0  0  0  0  0  0  0  0  0  0
    3.4514   32.2115    7.8738 C   0  0  0  0  0  0  0  0  0  0  0  0
    4.1043   31.2826    8.6686 C   0  0  0  0  0  0  0  0  0  0  0  0
    2.7897   33.0874    5.6348 C   0  0  0  0  0  0  0  0  0  0  0  0
    2.1989   34.0665    6.1890 O   0  0  0  0  0  0  0  0  0  0  0  0
    2.7469   32.9216    4.3903 O   0  0  0  0  0  0  0  0  0  0  0  0
    2.2418   34.1742    7.1188 H   0  0  0  0  0  0  0  0  0  0  0  0
 29 27  2  0  0  0
 28 27  1  0  0  0
 27 24  1  0  0  0
 12 11  2  0  0  0
 12 13  1  0  0  0
 24 23  2  0  0  0
 24 25  1  0  0  0
 11 10  1  0  0  0
 23 22  1  0  0  0
 13 14  2  0  0  0
 25 26  2  0  0  0
 10  9  2  0  0  0
 22 21  2  0  0  0
 14  9  1  0  0  0
 14 15  1  0  0  0
  9  7  1  0  0  0
 26 21  1  0  0  0
 21 19  1  0  0  0
 18 15  1  0  0  0
 17 15  1  0  0  0
 15 16  1  0  0  0
  7  5  1  0  0  0
  2  5  2  0  0  0
  2  4  1  0  0  0
 19  4  1  0  0  0
  5  6  1  0  0  0
  4  1  2  0  0  0
  6  3  2  0  0  0
  1  3  1  0  0  0
  7  8  1  0  0  0
 19 20  1  0  0  0
 28 30  1  0  0  0
M  END
> <minimizedAffinity>
-8.95328

$$$$
3UOD_0C3_A_1


 30 32  0  0  0  0  0  0  0  0999 V2000
    6.2341   28.9807    2.3274 N   0  0  0  0  0  0  0  0  0  0  0  0
    6.3847   30.1387    4.3586 N   0  0  0  0  0  0  0  0  0  0  0  0
    6.9188   27.9225    2.8201 C   0  0  0  0  0  0  0  0  0  0  0  0
    5.9794   30.0657    3.0822 C   0  0  0  0  0  0  0  0  0  0  0  0
    7.0780   29.1104    4.8904 C   0  0  0  0  0  0  0  0  0  0  0  0
    7.3691   27.9740    4.1406 C   0  0  0  0  0  0  0  0  0  0  0  0
    7.5220   29.1733    6.2395 N   0  0  0  0  0  0  0  0  0  0  0  0
    8.4830   29.1013    6.4410 H   0  0  0  0  0  0  0  0  0  0  0  0
    6.5883   29.3395    7.3020 C   0  0  0  0  0  0  0  0  0  0  0  0
    5.4413   30.0968    7.0577 C   0  0  0  0  0  0  0  0  0  0  0  0
    4.5106   30.2976    8.0674 C   0  0  0  0  0  0  0  0  0  0  0  0
    4.7371   29.7329    9.3155 C   0  0  0  0  0  0  0  0  0  0  0  0
    5.8846   28.9762    9.5635 C   0  0  0  0  0  0  0  0  0  0  0  0
    6.8279   28.7704    8.5606 C   0  0  0  0  0  0  0  0  0  0  0  0
    8.0582   27.9488    8.8758 C   0  0  0  0  0  0  0  0  0  0  0  0
    9.1922   28.5587    8.5030 F   0  0  0  0  0  0  0  0  0  0  0  0
    7.9774   26.7787    8.2421 F   0  0  0  0  0  0  0  0  0  0  0  0
    8.1193   27.7326   10.1987 F   0  0  0  0  0  0  0  0  0  0  0  0
    5.2425   31.1376    2.4743 N   0  0  0  0  0  0  0  0  0  0  0  0
    5.4159   31.3075    1.5202 H   0  0  0  0  0  0  0  0  0  0  0  0
    4.2762   31.9892    3.1168 C   0  0  0  0  0  0  0  0  0  0  0  0
    4.0455   31.9401    4.4845 C   0  0  0  0  0  0  0  0  0  0  0  0
    3.0946   32.7629    5.0849 C   0  0  0  0  0  0  0  0  0  0  0  0
    2.3575   33.6193    4.2833 C   0  0  0  0  0  0  0  0  0  0  0  0
    2.5699   33.6676    2.9060 C   0  0  0  0  0  0  0  0  0  0  0  0
    3.5266   32.8491    2.3267 C   0  0  0  0  0  0  0  0  0  0  0  0
    1.3492   34.5211    4.9059 C   0  0  0  0  0  0  0  0  0  0  0  0
    1.3634   35.7583    4.6159 O   0  0  0  0  0  0  0  0  0  0  0  0
    0.5201   34.0548    5.7264 O   0  0  0  0  0  0  0  0  0  0  0  0
    1.9892   36.0883    4.0015 H   0  0  0  0  0  0  0  0  0  0  0  0
 29 27  2  0  0  0
 28 27  1  0  0  0
 27 24  1  0  0  0
 12 11  2  0  0  0
 12 13  1  0  0  0
 24 23  2  0  0  0
 24 25  1  0  0  0
 11 10  1  0  0  0
 23 22  1  0  0  0
 13 14  2  0  0  0
 25 26  2  0  0  0
 10  9  2  0  0  0
 22 21  2  0  0  0
 14  9  1  0  0  0
 14 15  1  0  0  0
  9  7  1  0  0  0
 26 21  1  0  0  0
 21 19  1  0  0  0
 18 15  1  0  0  0
 17 15  1  0  0  0
 15 16  1  0  0  0
  7  5  1  0  0  0
  2  5  2  0  0  0
  2  4  1  0  0  0
 19  4  1  0  0  0
  5  6  1  0  0  0
  4  1  2  0  0  0
  6  3  2  0  0  0
  1  3  1  0  0  0
  7  8  1  0  0  0
 19 20  1  0  0  0
 28 30  1  0  0  0
M  END
> <minimizedAffinity>
-8.77224

$$$$
3UOD_0C3_A_1


 30 32  0  0  0  0  0  0  0  0999 V2000
    6.2143   29.2923    2.2886 N   0  0  0  0  0  0  0  0  0  0  0  0
    6.3025   30.6943    4.1637 N   0  0  0  0  0  0  0  0  0  0  0  0
    7.1476   28.4585    2.8033 C   0  0  0  0  0  0  0  0  0  0  0  0
    5.8073   30.3884    2.9554 C   0  0  0  0  0  0  0  0  0  0  0  0
    7.2415   29.8960    4.7131 C   0  0  0  0  0  0  0  0  0  0  0  0
    7.6952   28.7576    4.0523 C   0  0  0  0  0  0  0  0  0  0  0  0
    7.7831   30.2084    5.9899 N   0  0  0  0  0  0  0  0  0  0  0  0
    8.1782   31.0961    6.1486 H   0  0  0  0  0  0  0  0  0  0  0  0
    7.7589   29.2480    7.0414 C   0  0  0  0  0  0  0  0  0  0  0  0
    8.9428   28.5728    7.3434 C   0  0  0  0  0  0  0  0  0  0  0  0
    8.9632   27.6181    8.3504 C   0  0  0  0  0  0  0  0  0  0  0  0
    7.7940   27.3506    9.0499 C   0  0  0  0  0  0  0  0  0  0  0  0
    6.6075   28.0233    8.7489 C   0  0  0  0  0  0  0  0  0  0  0  0
    6.5725   28.9803    7.7386 C   0  0  0  0  0  0  0  0  0  0  0  0
    5.2642   29.6799    7.4435 C   0  0  0  0  0  0  0  0  0  0  0  0
    4.6722   29.2148    6.3344 F   0  0  0  0  0  0  0  0  0  0  0  0
    5.4905   30.9845    7.2886 F   0  0  0  0  0  0  0  0  0  0  0  0
    4.4217   29.4955    8.4715 F   0  0  0  0  0  0  0  0  0  0  0  0
    4.8098   31.2114    2.3314 N   0  0  0  0  0  0  0  0  0  0  0  0
    4.7367   31.1505    1.3515 H   0  0  0  0  0  0  0  0  0  0  0  0
    3.9059   32.1162    2.9915 C   0  0  0  0  0  0  0  0  0  0  0  0
    3.7089   32.0887    4.3650 C   0  0  0  0  0  0  0  0  0  0  0  0
    2.8176   32.9636    4.9830 C   0  0  0  0  0  0  0  0  0  0  0  0
    2.1048   33.8514    4.1936 C   0  0  0  0  0  0  0  0  0  0  0  0
    2.2832   33.8790    2.8109 C   0  0  0  0  0  0  0  0  0  0  0  0
    3.1810   33.0081    2.2139 C   0  0  0  0  0  0  0  0  0  0  0  0
    1.1610   34.8083    4.8345 C   0  0  0  0  0  0  0  0  0  0  0  0
    1.2350   36.0419    4.5382 O   0  0  0  0  0  0  0  0  0  0  0  0
    0.3270   34.3903    5.6759 O   0  0  0  0  0  0  0  0  0  0  0  0
    1.8633   36.3356    3.9082 H   0  0  0  0  0  0  0  0  0  0  0  0
 29 27  2  0  0  0
 28 27  1  0  0  0
 27 24  1  0  0  0
 12 11  2  0  0  0
 12 13  1  0  0  0
 24 23  2  0  0  0
 24 25  1  0  0  0
 11 10  1  0  0  0
 23 22  1  0  0  0
 13 14  2  0  0  0
 25 26  2  0  0  0
 10  9  2  0  0  0
 22 21  2  0  0  0
 14  9  1  0  0  0
 14 15  1  0  0  0
  9  7  1  0  0  0
 26 21  1  0  0  0
 21 19  1  0  0  0
 18 15  1  0  0  0
 17 15  1  0  0  0
 15 16  1  0  0  0
  7  5  1  0  0  0
  2  5  2  0  0  0
  2  4  1  0  0  0
 19  4  1  0  0  0
  5  6  1  0  0  0
  4  1  2  0  0  0
  6  3  2  0  0  0
  1  3  1  0  0  0
  7  8  1  0  0  0
 19 20  1  0  0  0
 28 30  1  0  0  0
M  END
> <minimizedAffinity>
-8.70854

$$$$
3UOD_0C3_A_1


 30 32  0  0  0  0  0  0  0  0999 V2000
    3.1958   32.8144    6.4142 N   0  0  0  0  0  0  0  0  0  0  0  0
    4.2470   31.0140    5.3449 N   0  0  0  0  0  0  0  0  0  0  0  0
    3.5688   32.3728    7.6378 C   0  0  0  0  0  0  0  0  0  0  0  0
    3.5254   32.1435    5.2948 C   0  0  0  0  0  0  0  0  0  0  0  0
    4.6343   30.5315    6.5440 C   0  0  0  0  0  0  0  0  0  0  0  0
    4.3069   31.1910    7.7256 C   0  0  0  0  0  0  0  0  0  0  0  0
    5.3936   29.3317    6.6170 N   0  0  0  0  0  0  0  0  0  0  0  0
    4.9324   28.4673    6.7140 H   0  0  0  0  0  0  0  0  0  0  0  0
    6.8158   29.3697    6.5509 C   0  0  0  0  0  0  0  0  0  0  0  0
    7.4074   29.8981    5.4022 C   0  0  0  0  0  0  0  0  0  0  0  0
    8.7897   29.9423    5.2873 C   0  0  0  0  0  0  0  0  0  0  0  0
    9.5688   29.4581    6.3298 C   0  0  0  0  0  0  0  0  0  0  0  0
    8.9799   28.9273    7.4796 C   0  0  0  0  0  0  0  0  0  0  0  0
    7.5946   28.8736    7.6057 C   0  0  0  0  0  0  0  0  0  0  0  0
    7.0005   28.2853    8.8664 C   0  0  0  0  0  0  0  0  0  0  0  0
    6.2703   27.1872    8.6259 F   0  0  0  0  0  0  0  0  0  0  0  0
    6.2195   29.1954    9.4484 F   0  0  0  0  0  0  0  0  0  0  0  0
    7.9906   27.9487    9.7072 F   0  0  0  0  0  0  0  0  0  0  0  0
    3.0887   32.6910    4.0414 N   0  0  0  0  0  0  0  0  0  0  0  0
    2.1741   33.0543    4.0126 H   0  0  0  0  0  0  0  0  0  0  0  0
    3.8509   32.7632    2.8226 C   0  0  0  0  0  0  0  0  0  0  0  0
    4.6464   31.7121    2.3881 C   0  0  0  0  0  0  0  0  0  0  0  0
    5.3884   31.8079    1.2126 C   0  0  0  0  0  0  0  0  0  0  0  0
    5.3399   32.9901    0.4921 C   0  0  0  0  0  0  0  0  0  0  0  0
    4.5557   34.0585    0.9256 C   0  0  0  0  0  0  0  0  0  0  0  0
    3.8164   33.9426    2.0922 C   0  0  0  0  0  0  0  0  0  0  0  0
    6.1099   33.1080   -0.7770 C   0  0  0  0  0  0  0  0  0  0  0  0
    5.4810   33.2747   -1.8687 O   0  0  0  0  0  0  0  0  0  0  0  0
    7.3625   33.0138   -0.7557 O   0  0  0  0  0  0  0  0  0  0  0  0
    4.5465   33.3428   -1.8653 H   0  0  0  0  0  0  0  0  0  0  0  0
 29 27  2  0  0  0
 28 27  1  0  0  0
 27 24  1  0  0  0
 12 11  2  0  0  0
 12 13  1  0  0  0
 24 23  2  0  0  0
 24 25  1  0  0  0
 11 10  1  0  0  0
 23 22  1  0  0  0
 13 14  2  0  0  0
 25 26  2  0  0  0
 10  9  2  0  0  0
 22 21  2  0  0  0
 14  9  1  0  0  0
 14 15  1  0  0  0
  9  7  1  0  0  0
 26 21  1  0  0  0
 21 19  1  0  0  0
 18 15  1  0  0  0
 17 15  1  0  0  0
 15 16  1  0  0  0
  7  5  1  0  0  0
  2  5  2  0  0  0
  2  4  1  0  0  0
 19  4  1  0  0  0
  5  6  1  0  0  0
  4  1  2  0  0  0
  6  3  2  0  0  0
  1  3  1  0  0  0
  7  8  1  0  0  0
 19 20  1  0  0  0
 28 30  1  0  0  0
M  END
> <minimizedAffinity>
-8.68787

$$$$
