3IP9_ABU_A_357


 10  9  0  0  0  0  0  0  0  0999 V2000
   23.8814   20.0368   18.5658 C   0  0  0  0  0  0  0  0  0  0  0  0
   22.8980   20.4104   16.2809 N   0  0  0  0  0  0  0  0  0  0  0  0
   23.2017   20.9748   17.5794 C   0  0  0  0  0  0  0  0  0  0  0  0
   22.4470   21.1171   15.7000 H   0  0  0  0  0  0  0  0  0  0  0  0
   22.2716   19.6135   16.3947 H   0  0  0  0  0  0  0  0  0  0  0  0
   22.9475   19.0171   19.1913 C   0  0  0  0  0  0  0  0  0  0  0  0
   22.8426   17.6511   18.5312 C   0  0  0  0  0  0  0  0  0  0  0  0
   23.1226   16.5828   19.3693 O   0  0  0  0  0  0  0  0  0  0  0  0
   22.9317   17.5130   17.3426 O   0  0  0  0  0  0  0  0  0  0  0  0
   22.7435   18.2320   16.7720 H   0  0  0  0  0  0  0  0  0  0  0  0
  2  3  1  0  0  0
  3  1  1  0  0  0
  1  6  1  0  0  0
  6  7  1  0  0  0
  7  8  2  0  0  0
  7  9  1  0  0  0
  2  4  1  0  0  0
  2  5  1  0  0  0
  9 10  1  0  0  0
M  END
> <minimizedAffinity>
-5.59374

$$$$
3IP9_ABU_A_357


 10  9  0  0  0  0  0  0  0  0999 V2000
   22.9569   19.1166   19.6145 C   0  0  0  0  0  0  0  0  0  0  0  0
   22.5146   16.9162   18.4786 N   0  0  0  0  0  0  0  0  0  0  0  0
   23.2436   17.6261   19.5089 C   0  0  0  0  0  0  0  0  0  0  0  0
   22.7784   15.9310   18.4928 H   0  0  0  0  0  0  0  0  0  0  0  0
   22.7391   17.3152   17.5671 H   0  0  0  0  0  0  0  0  0  0  0  0
   23.8834   19.9835   18.7819 C   0  0  0  0  0  0  0  0  0  0  0  0
   23.4877   20.2660   17.3409 C   0  0  0  0  0  0  0  0  0  0  0  0
   23.7102   19.2145   16.4653 O   0  0  0  0  0  0  0  0  0  0  0  0
   23.3986   21.3845   16.9158 O   0  0  0  0  0  0  0  0  0  0  0  0
   23.2482   22.0985   17.5036 H   0  0  0  0  0  0  0  0  0  0  0  0
  2  3  1  0  0  0
  3  1  1  0  0  0
  1  6  1  0  0  0
  6  7  1  0  0  0
  7  8  2  0  0  0
  7  9  1  0  0  0
  2  4  1  0  0  0
  2  5  1  0  0  0
  9 10  1  0  0  0
M  END
> <minimizedAffinity>
-5.55926

$$$$
3IP9_ABU_A_357


 10  9  0  0  0  0  0  0  0  0999 V2000
   22.9891   19.0618   19.6323 C   0  0  0  0  0  0  0  0  0  0  0  0
   22.5038   16.8798   18.4786 N   0  0  0  0  0  0  0  0  0  0  0  0
   23.2198   17.5609   19.5371 C   0  0  0  0  0  0  0  0  0  0  0  0
   22.7272   15.8848   18.5026 H   0  0  0  0  0  0  0  0  0  0  0  0
   22.7796   17.2685   17.5768 H   0  0  0  0  0  0  0  0  0  0  0  0
   23.9409   19.8871   18.7862 C   0  0  0  0  0  0  0  0  0  0  0  0
   23.5503   20.1640   17.3427 C   0  0  0  0  0  0  0  0  0  0  0  0
   22.8313   21.3342   17.1544 O   0  0  0  0  0  0  0  0  0  0  0  0
   23.4855   19.2886   16.5247 O   0  0  0  0  0  0  0  0  0  0  0  0
   23.9695   18.4958   16.6475 H   0  0  0  0  0  0  0  0  0  0  0  0
  2  3  1  0  0  0
  3  1  1  0  0  0
  1  6  1  0  0  0
  6  7  1  0  0  0
  7  8  2  0  0  0
  7  9  1  0  0  0
  2  4  1  0  0  0
  2  5  1  0  0  0
  9 10  1  0  0  0
M  END
> <minimizedAffinity>
-5.49779

$$$$
3IP9_ABU_A_357


 10  9  0  0  0  0  0  0  0  0999 V2000
   23.8143   20.0785   18.6909 C   0  0  0  0  0  0  0  0  0  0  0  0
   23.0284   20.2039   16.3046 N   0  0  0  0  0  0  0  0  0  0  0  0
   23.1820   20.8906   17.5703 C   0  0  0  0  0  0  0  0  0  0  0  0
   22.5978   20.8327   15.6267 H   0  0  0  0  0  0  0  0  0  0  0  0
   22.4353   19.3840   16.4324 H   0  0  0  0  0  0  0  0  0  0  0  0
   22.9101   18.9988   19.2563 C   0  0  0  0  0  0  0  0  0  0  0  0
   23.1411   17.5671   18.7985 C   0  0  0  0  0  0  0  0  0  0  0  0
   22.9377   17.3552   17.4436 O   0  0  0  0  0  0  0  0  0  0  0  0
   23.0845   16.6413   19.5597 O   0  0  0  0  0  0  0  0  0  0  0  0
   23.2213   16.7795   20.4763 H   0  0  0  0  0  0  0  0  0  0  0  0
  2  3  1  0  0  0
  3  1  1  0  0  0
  1  6  1  0  0  0
  6  7  1  0  0  0
  7  8  2  0  0  0
  7  9  1  0  0  0
  2  4  1  0  0  0
  2  5  1  0  0  0
  9 10  1  0  0  0
M  END
> <minimizedAffinity>
-5.38021

$$$$
3IP9_ABU_A_357


 10  9  0  0  0  0  0  0  0  0999 V2000
   23.1365   18.6186   20.6423 C   0  0  0  0  0  0  0  0  0  0  0  0
   23.8155   16.2925   21.3173 N   0  0  0  0  0  0  0  0  0  0  0  0
   24.0021   17.7157   21.5085 C   0  0  0  0  0  0  0  0  0  0  0  0
   24.4390   15.7808   21.9416 H   0  0  0  0  0  0  0  0  0  0  0  0
   24.0280   16.0487   20.3499 H   0  0  0  0  0  0  0  0  0  0  0  0
   23.6243   18.7529   19.2114 C   0  0  0  0  0  0  0  0  0  0  0  0
   22.9199   17.9338   18.1410 C   0  0  0  0  0  0  0  0  0  0  0  0
   22.5990   16.6404   18.5230 O   0  0  0  0  0  0  0  0  0  0  0  0
   23.0081   18.2046   16.9754 O   0  0  0  0  0  0  0  0  0  0  0  0
   23.2247   19.0774   16.7123 H   0  0  0  0  0  0  0  0  0  0  0  0
  2  3  1  0  0  0
  3  1  1  0  0  0
  1  6  1  0  0  0
  6  7  1  0  0  0
  7  8  2  0  0  0
  7  9  1  0  0  0
  2  4  1  0  0  0
  2  5  1  0  0  0
  9 10  1  0  0  0
M  END
> <minimizedAffinity>
-4.96101

$$$$
3IP9_ABU_A_357


 10  9  0  0  0  0  0  0  0  0999 V2000
   23.2990   17.3156   19.7118 C   0  0  0  0  0  0  0  0  0  0  0  0
   22.9075   17.9998   17.3230 N   0  0  0  0  0  0  0  0  0  0  0  0
   23.1714   18.4275   18.6811 C   0  0  0  0  0  0  0  0  0  0  0  0
   22.8406   18.8169   16.7162 H   0  0  0  0  0  0  0  0  0  0  0  0
   22.0291   17.4821   17.2942 H   0  0  0  0  0  0  0  0  0  0  0  0
   23.7660   17.7894   21.0758 C   0  0  0  0  0  0  0  0  0  0  0  0
   24.3376   16.7528   22.0305 C   0  0  0  0  0  0  0  0  0  0  0  0
   23.7498   15.5004   21.9409 O   0  0  0  0  0  0  0  0  0  0  0  0
   24.9184   17.0662   23.0326 O   0  0  0  0  0  0  0  0  0  0  0  0
   25.3173   17.9115   23.0980 H   0  0  0  0  0  0  0  0  0  0  0  0
  2  3  1  0  0  0
  3  1  1  0  0  0
  1  6  1  0  0  0
  6  7  1  0  0  0
  7  8  2  0  0  0
  7  9  1  0  0  0
  2  4  1  0  0  0
  2  5  1  0  0  0
  9 10  1  0  0  0
M  END
> <minimizedAffinity>
-4.47571

$$$$
3IP9_ABU_A_357


 10  9  0  0  0  0  0  0  0  0999 V2000
   24.2608   14.5188   24.0497 C   0  0  0  0  0  0  0  0  0  0  0  0
   25.1194   12.6856   22.5565 N   0  0  0  0  0  0  0  0  0  0  0  0
   25.0588   13.2324   23.8960 C   0  0  0  0  0  0  0  0  0  0  0  0
   25.6743   11.8297   22.5635 H   0  0  0  0  0  0  0  0  0  0  0  0
   25.5513   13.3656   21.9308 H   0  0  0  0  0  0  0  0  0  0  0  0
   25.1116   15.7416   24.3396 C   0  0  0  0  0  0  0  0  0  0  0  0
   25.5397   16.6043   23.1627 C   0  0  0  0  0  0  0  0  0  0  0  0
   26.8523   17.0467   23.2195 O   0  0  0  0  0  0  0  0  0  0  0  0
   24.7431   17.1931   22.4856 O   0  0  0  0  0  0  0  0  0  0  0  0
   23.8548   16.8980   22.4439 H   0  0  0  0  0  0  0  0  0  0  0  0
  2  3  1  0  0  0
  3  1  1  0  0  0
  1  6  1  0  0  0
  6  7  1  0  0  0
  7  8  2  0  0  0
  7  9  1  0  0  0
  2  4  1  0  0  0
  2  5  1  0  0  0
  9 10  1  0  0  0
M  END
> <minimizedAffinity>
-3.59979

$$$$
3IP9_ABU_A_357


 10  9  0  0  0  0  0  0  0  0999 V2000
   24.3619   16.0089   23.6665 C   0  0  0  0  0  0  0  0  0  0  0  0
   24.7595   13.7296   22.6795 N   0  0  0  0  0  0  0  0  0  0  0  0
   24.9831   14.6259   23.7947 C   0  0  0  0  0  0  0  0  0  0  0  0
   25.2146   12.8358   22.8651 H   0  0  0  0  0  0  0  0  0  0  0  0
   25.1487   14.1396   21.8305 H   0  0  0  0  0  0  0  0  0  0  0  0
   24.9864   16.8676   22.5822 C   0  0  0  0  0  0  0  0  0  0  0  0
   24.1290   17.2268   21.3786 C   0  0  0  0  0  0  0  0  0  0  0  0
   23.5959   18.5061   21.4117 O   0  0  0  0  0  0  0  0  0  0  0  0
   23.6153   16.3867   20.6931 O   0  0  0  0  0  0  0  0  0  0  0  0
   23.9718   15.5205   20.6673 H   0  0  0  0  0  0  0  0  0  0  0  0
  2  3  1  0  0  0
  3  1  1  0  0  0
  1  6  1  0  0  0
  6  7  1  0  0  0
  7  8  2  0  0  0
  7  9  1  0  0  0
  2  4  1  0  0  0
  2  5  1  0  0  0
  9 10  1  0  0  0
M  END
> <minimizedAffinity>
-2.67441

$$$$
