3NHT_U46_A_1
  RCSB PDB12061709553D
Coordinates from PDB:3NHT:A:1 Model:1 without hydrogens
 25 26  0  0  0  0            999 V2000
    0.0280   -6.6550   23.0350   O 0  0  0  0  0  0  0  0  0  0  0  0
   -0.6280   -5.5810   23.6480   C 0  0  0  0  0  0  0  0  0  0  0  0
   -0.3200   -5.1720   24.9380   O 0  0  0  0  0  0  0  0  0  0  0  0
   -1.7270   -4.7840   22.9180   C 0  0  0  0  0  0  0  0  0  0  0  0
   -2.3030   -5.6130   21.7680   C 0  0  0  0  0  0  0  0  0  0  0  0
   -3.3340   -4.7500   21.0330   C 0  0  0  0  0  0  0  0  0  0  0  0
   -4.5490   -4.5940   21.9570   C 0  0  0  0  0  0  0  0  0  0  0  0
   -5.3940   -3.4540   21.7040   C 0  0  0  0  0  0  0  0  0  0  0  0
   -5.1770   -2.3960   20.6070   C 0  0  0  0  0  0  0  0  0  0  0  0
   -5.4630   -1.0280   21.2470   C 0  0  0  0  0  0  0  0  0  0  0  0
   -4.5160   -0.7030   22.4090   C 0  0  0  0  0  0  0  0  0  0  0  0
   -4.0880    0.7330   22.3090   C 0  0  0  0  0  0  0  0  0  0  0  0
   -3.0730   -0.6040   21.9390   C 0  0  0  0  0  0  0  0  0  0  0  0
   -2.7900    0.4320   20.8820   O 0  0  0  0  0  0  0  0  0  0  0  0
   -4.1430    1.1440   20.8310   C 0  0  0  0  0  0  0  0  0  0  0  0
   -5.1770    0.1540   20.2990   C 0  0  0  0  0  0  0  0  0  0  0  0
   -6.4650    0.8390   19.8410   C 0  0  0  0  0  0  0  0  0  0  0  0
   -7.0360    0.4700   18.5840   C 0  0  0  0  0  0  0  0  0  0  0  0
   -8.3400    1.1430   18.1840   C 0  0  0  0  0  0  0  0  0  0  0  0
   -8.6200    2.5210   18.7590   O 0  0  0  0  0  0  0  0  0  0  0  0
   -8.6850    1.0450   16.7120   C 0  0  0  0  0  0  0  0  0  0  0  0
  -10.0980    1.4970   16.3430   C 0  0  0  0  0  0  0  0  0  0  0  0
  -10.4960    1.4760   14.8690   C 0  0  0  0  0  0  0  0  0  0  0  0
   -9.8180    2.4580   13.9190   C 0  0  0  0  0  0  0  0  0  0  0  0
  -10.2130    2.3520   12.4380   C 0  0  0  0  0  0  0  0  0  0  0  0
  1  2  1  0  0  0  0
  2  3  2  0  0  0  0
  2  4  1  0  0  0  0
  4  5  1  0  0  0  0
  5  6  1  0  0  0  0
  6  7  1  0  0  0  0
  7  8  2  0  0  0  0
  8  9  1  0  0  0  0
  9 10  1  0  0  0  0
 10 11  1  0  0  0  0
 10 16  1  0  0  0  0
 11 12  1  0  0  0  0
 11 13  1  0  0  0  0
 12 15  1  0  0  0  0
 13 14  1  0  0  0  0
 14 15  1  0  0  0  0
 15 16  1  0  0  0  0
 16 17  1  0  0  0  0
 17 18  2  0  0  0  0
 18 19  1  0  0  0  0
 19 20  1  0  0  0  0
 19 21  1  0  0  0  0
 21 22  1  0  0  0  0
 22 23  1  0  0  0  0
 23 24  1  0  0  0  0
 24 25  1  0  0  0  0
A    1
OAX
A    2
CAW
A    3
OAY
A    4
CAR
A    5
CAQ
A    6
CAP
A    7
CAO
A    8
CAN
A    9
CAF
A   10
CAD
A   11
CAC
A   12
CAB
A   13
CAT
A   14
OAS
A   15
CAA
A   16
CAE
A   17
CAG
A   18
CAH
A   19
CAI
A   20
OAU
A   21
CAJ
A   22
CAK
A   23
CAL
A   24
CAM
A   25
CAV
M  END
>  <InstanceId>
3NHT_U46_A_1

>  <ChemCompId>
U46

>  <PdbId>
3NHT

>  <ChainId>
A

>  <ResidueNumber>
1

>  <InsertionCode>


>  <Model>
1

>  <AltIds>


>  <MissingHeavyAtoms>
0

>  <ObservedFormula>
C21 O4

>  <Name>
(5E)-7-{6-[(1E)-3-HYDROXYOCT-1-ENYL]-2-OXABICYCLO[2.2.1]HEPT-5-YL}HEPT-5-ENOIC ACID

>  <SystematicName>
(Z)-7-[(1S,4R,5R,6S)-5-[(E,3R)-3-hydroxyoct-1-enyl]-3-oxabicyclo[2.2.1]heptan-6-yl]hept-5-enoic acid

>  <Synonyms>
9,11-DIDEOXY-9,11-METHANOEPOXY PROSTAGLANDIN F2

>  <Type>
NON-POLYMER

>  <Formula>
C21 H34 O4

>  <MolecularWeight>
350.492

>  <ModifiedDate>
2011-06-04

>  <Parent>


>  <OneLetterCode>


>  <SubcomponentList>


>  <AmbiguousFlag>
N

>  <InChI>
InChI=1S/C21H34O4/c1-2-3-6-9-17(22)12-13-19-18(16-14-20(19)25-15-16)10-7-4-5-8-11-21(23)24/h4,7,12-13,16-20,22H,2-3,5-6,8-11,14-15H2,1H3,(H,23,24)/b7-4-,13-12+/t16-,17-,18+,19-,20-/m1/s1

>  <InChIKey>
LQANGKSBLPMBTJ-ZESXDWFFSA-N

>  <SMILES>
CCCCC[C@H](\C=C\[C@H]1[C@H]2C[C@@H]([C@@H]1C\C=C/CCCC(=O)O)CO2)O

$$$$
