3NHT_U46_A_1


 27 28  0  0  0  0  0  0  0  0999 V2000
   -5.2801   -0.8593   21.3481 C   0  0  0  0  0  0  0  0  0  0  0  0
   -4.4679   -0.4446   22.5815 C   0  0  0  0  0  0  0  0  0  0  0  0
   -4.0554    0.9923   22.4395 C   0  0  0  0  0  0  0  0  0  0  0  0
   -2.9849   -0.3406   22.2612 C   0  0  0  0  0  0  0  0  0  0  0  0
   -2.6078    0.6373   21.1785 O   0  0  0  0  0  0  0  0  0  0  0  0
   -3.9592    1.3139   20.9416 C   0  0  0  0  0  0  0  0  0  0  0  0
   -4.9141    0.2708   20.3651 C   0  0  0  0  0  0  0  0  0  0  0  0
   -6.1570    0.8979   19.7327 C   0  0  0  0  0  0  0  0  0  0  0  0
   -6.6450    0.3721   18.4967 C   0  0  0  0  0  0  0  0  0  0  0  0
   -7.9080    0.9949   17.9221 C   0  0  0  0  0  0  0  0  0  0  0  0
   -8.4563    2.2298   18.6166 O   0  0  0  0  0  0  0  0  0  0  0  0
   -7.8712    2.9841   18.4445 H   0  0  0  0  0  0  0  0  0  0  0  0
   -7.9309    1.1175   16.4122 C   0  0  0  0  0  0  0  0  0  0  0  0
   -9.1720    1.7963   15.8328 C   0  0  0  0  0  0  0  0  0  0  0  0
  -10.0299    1.0040   14.8491 C   0  0  0  0  0  0  0  0  0  0  0  0
  -10.9020    1.7730   13.8619 C   0  0  0  0  0  0  0  0  0  0  0  0
  -10.1762    2.7807   12.9573 C   0  0  0  0  0  0  0  0  0  0  0  0
   -4.9050   -2.2559   20.8268 C   0  0  0  0  0  0  0  0  0  0  0  0
   -4.5224   -4.1848   22.6104 C   0  0  0  0  0  0  0  0  0  0  0  0
   -5.3694   -3.2670   21.8907 C   0  0  0  0  0  0  0  0  0  0  0  0
   -3.0286   -4.1362   22.2632 C   0  0  0  0  0  0  0  0  0  0  0  0
   -2.7663   -5.2098   21.2018 C   0  0  0  0  0  0  0  0  0  0  0  0
   -1.3868   -5.8143   21.4724 C   0  0  0  0  0  0  0  0  0  0  0  0
   -1.1389   -5.5449   18.9307 O   0  0  0  0  0  0  0  0  0  0  0  0
   -0.5740   -5.8877   20.1648 C   0  0  0  0  0  0  0  0  0  0  0  0
    0.7455   -6.3027   20.2786 O   0  0  0  0  0  0  0  0  0  0  0  0
   -2.0329   -5.2681   18.8854 H   0  0  0  0  0  0  0  0  0  0  0  0
 24 25  1  0  0  0
 25 26  2  0  0  0
 25 23  1  0  0  0
 23 22  1  0  0  0
 22 21  1  0  0  0
 21 19  1  0  0  0
 19 20  2  0  0  0
 20 18  1  0  0  0
 18  1  1  0  0  0
  1  2  1  0  0  0
  1  7  1  0  0  0
  2  3  1  0  0  0
  2  4  1  0  0  0
  3  6  1  0  0  0
  4  5  1  0  0  0
  5  6  1  0  0  0
  6  7  1  0  0  0
  7  8  1  0  0  0
  8  9  2  0  0  0
  9 10  1  0  0  0
 10 11  1  0  0  0
 10 13  1  0  0  0
 13 14  1  0  0  0
 14 15  1  0  0  0
 15 16  1  0  0  0
 16 17  1  0  0  0
 24 27  1  0  0  0
 11 12  1  0  0  0
M  END
> <minimizedAffinity>
-8.47988

$$$$
3NHT_U46_A_1


 27 28  0  0  0  0  0  0  0  0999 V2000
   -3.6096   -0.4427   20.8676 C   0  0  0  0  0  0  0  0  0  0  0  0
   -3.2621   -1.9343   20.7847 C   0  0  0  0  0  0  0  0  0  0  0  0
   -4.4799   -2.7438   21.1267 C   0  0  0  0  0  0  0  0  0  0  0  0
   -3.1260   -2.5511   22.1682 C   0  0  0  0  0  0  0  0  0  0  0  0
   -4.3419   -2.4657   23.0542 O   0  0  0  0  0  0  0  0  0  0  0  0
   -5.3618   -1.9045   22.0617 C   0  0  0  0  0  0  0  0  0  0  0  0
   -4.9200   -0.4937   21.6787 C   0  0  0  0  0  0  0  0  0  0  0  0
   -6.0348    0.3091   21.0074 C   0  0  0  0  0  0  0  0  0  0  0  0
   -6.2133    0.1978   19.5939 C   0  0  0  0  0  0  0  0  0  0  0  0
   -7.3599    0.9787   18.9704 C   0  0  0  0  0  0  0  0  0  0  0  0
   -7.5490    2.4183   19.4172 O   0  0  0  0  0  0  0  0  0  0  0  0
   -6.8328    2.9651   19.0581 H   0  0  0  0  0  0  0  0  0  0  0  0
   -7.5087    0.8096   17.4721 C   0  0  0  0  0  0  0  0  0  0  0  0
   -8.8140    1.3444   16.8830 C   0  0  0  0  0  0  0  0  0  0  0  0
   -9.0092    1.2537   15.3714 C   0  0  0  0  0  0  0  0  0  0  0  0
   -9.6257    2.4450   14.6453 C   0  0  0  0  0  0  0  0  0  0  0  0
  -10.0820    2.1964   13.1994 C   0  0  0  0  0  0  0  0  0  0  0  0
   -2.5119    0.3902   21.5489 C   0  0  0  0  0  0  0  0  0  0  0  0
   -2.9579    1.8780   23.7020 C   0  0  0  0  0  0  0  0  0  0  0  0
   -3.2240    1.5059   22.3350 C   0  0  0  0  0  0  0  0  0  0  0  0
   -1.8678    1.0711   24.4196 C   0  0  0  0  0  0  0  0  0  0  0  0
   -1.6015    1.7513   25.7666 C   0  0  0  0  0  0  0  0  0  0  0  0
   -2.7592    2.7116   26.0478 C   0  0  0  0  0  0  0  0  0  0  0  0
   -3.7807    3.5665   28.2432 O   0  0  0  0  0  0  0  0  0  0  0  0
   -2.6454    3.2754   27.4778 C   0  0  0  0  0  0  0  0  0  0  0  0
   -1.3609    3.4702   27.9661 O   0  0  0  0  0  0  0  0  0  0  0  0
   -4.6354    3.4245   27.8863 H   0  0  0  0  0  0  0  0  0  0  0  0
 24 25  1  0  0  0
 25 26  2  0  0  0
 25 23  1  0  0  0
 23 22  1  0  0  0
 22 21  1  0  0  0
 21 19  1  0  0  0
 19 20  2  0  0  0
 20 18  1  0  0  0
 18  1  1  0  0  0
  1  2  1  0  0  0
  1  7  1  0  0  0
  2  3  1  0  0  0
  2  4  1  0  0  0
  3  6  1  0  0  0
  4  5  1  0  0  0
  5  6  1  0  0  0
  6  7  1  0  0  0
  7  8  1  0  0  0
  8  9  2  0  0  0
  9 10  1  0  0  0
 10 11  1  0  0  0
 10 13  1  0  0  0
 13 14  1  0  0  0
 14 15  1  0  0  0
 15 16  1  0  0  0
 16 17  1  0  0  0
 24 27  1  0  0  0
 11 12  1  0  0  0
M  END
> <minimizedAffinity>
-7.99130

$$$$
3NHT_U46_A_1


 27 28  0  0  0  0  0  0  0  0999 V2000
   -5.2155   -0.8736   21.3001 C   0  0  0  0  0  0  0  0  0  0  0  0
   -4.4019   -0.4652   22.5346 C   0  0  0  0  0  0  0  0  0  0  0  0
   -4.0561    0.9929   22.4366 C   0  0  0  0  0  0  0  0  0  0  0  0
   -2.9306   -0.2838   22.1955 C   0  0  0  0  0  0  0  0  0  0  0  0
   -2.6156    0.7466   21.1420 O   0  0  0  0  0  0  0  0  0  0  0  0
   -3.9994    1.3695   20.9496 C   0  0  0  0  0  0  0  0  0  0  0  0
   -4.9167    0.3049   20.3516 C   0  0  0  0  0  0  0  0  0  0  0  0
   -6.1966    0.8968   19.7606 C   0  0  0  0  0  0  0  0  0  0  0  0
   -6.6746    0.4010   18.5084 C   0  0  0  0  0  0  0  0  0  0  0  0
   -7.9737    0.9851   17.9752 C   0  0  0  0  0  0  0  0  0  0  0  0
   -8.4825    2.2624   18.6213 O   0  0  0  0  0  0  0  0  0  0  0  0
   -7.9125    3.0040   18.3643 H   0  0  0  0  0  0  0  0  0  0  0  0
   -8.0916    1.0095   16.4649 C   0  0  0  0  0  0  0  0  0  0  0  0
   -9.1096    2.0043   15.9073 C   0  0  0  0  0  0  0  0  0  0  0  0
   -9.6639    1.7545   14.5066 C   0  0  0  0  0  0  0  0  0  0  0  0
   -9.8623    2.9495   13.5797 C   0  0  0  0  0  0  0  0  0  0  0  0
  -10.6857    2.6926   12.3082 C   0  0  0  0  0  0  0  0  0  0  0  0
   -4.7876   -2.2332   20.7246 C   0  0  0  0  0  0  0  0  0  0  0  0
   -4.4226   -4.1602   22.5138 C   0  0  0  0  0  0  0  0  0  0  0  0
   -5.2684   -3.3071   21.7172 C   0  0  0  0  0  0  0  0  0  0  0  0
   -2.9110   -3.9671   22.3344 C   0  0  0  0  0  0  0  0  0  0  0  0
   -2.3131   -3.6940   23.7185 C   0  0  0  0  0  0  0  0  0  0  0  0
   -0.9073   -4.2973   23.7531 C   0  0  0  0  0  0  0  0  0  0  0  0
    0.4721   -3.7297   25.8434 O   0  0  0  0  0  0  0  0  0  0  0  0
    0.0414   -3.3861   24.5565 C   0  0  0  0  0  0  0  0  0  0  0  0
    0.4501   -2.2151   23.9336 O   0  0  0  0  0  0  0  0  0  0  0  0
    0.1790   -4.5273   26.2382 H   0  0  0  0  0  0  0  0  0  0  0  0
 24 25  1  0  0  0
 25 26  2  0  0  0
 25 23  1  0  0  0
 23 22  1  0  0  0
 22 21  1  0  0  0
 21 19  1  0  0  0
 19 20  2  0  0  0
 20 18  1  0  0  0
 18  1  1  0  0  0
  1  2  1  0  0  0
  1  7  1  0  0  0
  2  3  1  0  0  0
  2  4  1  0  0  0
  3  6  1  0  0  0
  4  5  1  0  0  0
  5  6  1  0  0  0
  6  7  1  0  0  0
  7  8  1  0  0  0
  8  9  2  0  0  0
  9 10  1  0  0  0
 10 11  1  0  0  0
 10 13  1  0  0  0
 13 14  1  0  0  0
 14 15  1  0  0  0
 15 16  1  0  0  0
 16 17  1  0  0  0
 24 27  1  0  0  0
 11 12  1  0  0  0
M  END
> <minimizedAffinity>
-7.96912

$$$$
3NHT_U46_A_1


 27 28  0  0  0  0  0  0  0  0999 V2000
   -4.4153   -0.8223   20.6668 C   0  0  0  0  0  0  0  0  0  0  0  0
   -4.9510   -1.8016   21.7188 C   0  0  0  0  0  0  0  0  0  0  0  0
   -6.3689   -1.4376   22.0541 C   0  0  0  0  0  0  0  0  0  0  0  0
   -5.0289   -1.1537   23.0926 C   0  0  0  0  0  0  0  0  0  0  0  0
   -5.8983    0.0725   23.1986 O   0  0  0  0  0  0  0  0  0  0  0  0
   -6.5436    0.0681   21.8116 C   0  0  0  0  0  0  0  0  0  0  0  0
   -5.4458    0.3191   20.7800 C   0  0  0  0  0  0  0  0  0  0  0  0
   -6.0038    0.7179   19.4135 C   0  0  0  0  0  0  0  0  0  0  0  0
   -7.4130    0.9070   19.2696 C   0  0  0  0  0  0  0  0  0  0  0  0
   -7.9239    1.3450   17.9056 C   0  0  0  0  0  0  0  0  0  0  0  0
   -7.5859    0.4621   16.7164 O   0  0  0  0  0  0  0  0  0  0  0  0
   -8.0974   -0.3604   16.7687 H   0  0  0  0  0  0  0  0  0  0  0  0
   -9.3607    1.8251   17.8848 C   0  0  0  0  0  0  0  0  0  0  0  0
  -10.0978    1.6163   16.5618 C   0  0  0  0  0  0  0  0  0  0  0  0
   -9.6383    2.4229   15.3495 C   0  0  0  0  0  0  0  0  0  0  0  0
   -9.8079    1.8110   13.9626 C   0  0  0  0  0  0  0  0  0  0  0  0
  -10.6106    2.6403   12.9485 C   0  0  0  0  0  0  0  0  0  0  0  0
   -2.9761   -0.3648   20.9534 C   0  0  0  0  0  0  0  0  0  0  0  0
   -2.7777    1.7744   22.5131 C   0  0  0  0  0  0  0  0  0  0  0  0
   -3.0392    1.1459   21.2426 C   0  0  0  0  0  0  0  0  0  0  0  0
   -2.4121    0.8324   23.6678 C   0  0  0  0  0  0  0  0  0  0  0  0
   -0.9550    1.1139   24.0494 C   0  0  0  0  0  0  0  0  0  0  0  0
   -0.1966   -0.2150   24.0306 C   0  0  0  0  0  0  0  0  0  0  0  0
    2.2703   -0.6877   23.4965 O   0  0  0  0  0  0  0  0  0  0  0  0
    1.0523   -0.1004   23.1344 C   0  0  0  0  0  0  0  0  0  0  0  0
    0.9015    0.6070   21.9499 O   0  0  0  0  0  0  0  0  0  0  0  0
    2.3416   -1.1594   24.3030 H   0  0  0  0  0  0  0  0  0  0  0  0
 24 25  1  0  0  0
 25 26  2  0  0  0
 25 23  1  0  0  0
 23 22  1  0  0  0
 22 21  1  0  0  0
 21 19  1  0  0  0
 19 20  2  0  0  0
 20 18  1  0  0  0
 18  1  1  0  0  0
  1  2  1  0  0  0
  1  7  1  0  0  0
  2  3  1  0  0  0
  2  4  1  0  0  0
  3  6  1  0  0  0
  4  5  1  0  0  0
  5  6  1  0  0  0
  6  7  1  0  0  0
  7  8  1  0  0  0
  8  9  2  0  0  0
  9 10  1  0  0  0
 10 11  1  0  0  0
 10 13  1  0  0  0
 13 14  1  0  0  0
 14 15  1  0  0  0
 15 16  1  0  0  0
 16 17  1  0  0  0
 24 27  1  0  0  0
 11 12  1  0  0  0
M  END
> <minimizedAffinity>
-7.75266

$$$$
3NHT_U46_A_1


 27 28  0  0  0  0  0  0  0  0999 V2000
   -0.5853   -1.2122   23.4955 C   0  0  0  0  0  0  0  0  0  0  0  0
    0.6810   -1.8357   24.0957 C   0  0  0  0  0  0  0  0  0  0  0  0
    0.2874   -2.8660   25.1150 C   0  0  0  0  0  0  0  0  0  0  0  0
    0.9386   -1.3236   25.5044 C   0  0  0  0  0  0  0  0  0  0  0  0
   -0.1544   -1.5745   26.5109 O   0  0  0  0  0  0  0  0  0  0  0  0
   -1.0811   -2.4706   25.6872 C   0  0  0  0  0  0  0  0  0  0  0  0
   -1.6408   -1.6382   24.5357 C   0  0  0  0  0  0  0  0  0  0  0  0
   -2.8569   -2.2898   23.8765 C   0  0  0  0  0  0  0  0  0  0  0  0
   -2.8618   -2.4710   22.4590 C   0  0  0  0  0  0  0  0  0  0  0  0
   -4.0707   -3.1616   21.8467 C   0  0  0  0  0  0  0  0  0  0  0  0
   -4.5196   -2.6956   20.4722 O   0  0  0  0  0  0  0  0  0  0  0  0
   -3.8762   -2.9852   19.8065 H   0  0  0  0  0  0  0  0  0  0  0  0
   -4.0822   -4.6705   21.9826 C   0  0  0  0  0  0  0  0  0  0  0  0
   -2.8064   -5.3754   21.5218 C   0  0  0  0  0  0  0  0  0  0  0  0
   -1.9130   -6.0097   22.5853 C   0  0  0  0  0  0  0  0  0  0  0  0
   -0.4572   -5.5630   22.6724 C   0  0  0  0  0  0  0  0  0  0  0  0
    0.5251   -6.2617   21.7197 C   0  0  0  0  0  0  0  0  0  0  0  0
   -0.4817    0.3128   23.3325 C   0  0  0  0  0  0  0  0  0  0  0  0
   -1.6133    1.3223   21.1534 C   0  0  0  0  0  0  0  0  0  0  0  0
   -0.5576    0.6047   21.8229 C   0  0  0  0  0  0  0  0  0  0  0  0
   -2.7566    1.8248   22.0448 C   0  0  0  0  0  0  0  0  0  0  0  0
   -3.9275    0.8489   21.8878 C   0  0  0  0  0  0  0  0  0  0  0  0
   -4.4965    1.0171   20.4773 C   0  0  0  0  0  0  0  0  0  0  0  0
   -6.9246    1.6549   19.9370 O   0  0  0  0  0  0  0  0  0  0  0  0
   -6.0132    0.7421   20.4808 C   0  0  0  0  0  0  0  0  0  0  0  0
   -6.4233   -0.4587   21.0430 O   0  0  0  0  0  0  0  0  0  0  0  0
   -6.6176    2.4578   19.5642 H   0  0  0  0  0  0  0  0  0  0  0  0
 24 25  1  0  0  0
 25 26  2  0  0  0
 25 23  1  0  0  0
 23 22  1  0  0  0
 22 21  1  0  0  0
 21 19  1  0  0  0
 19 20  2  0  0  0
 20 18  1  0  0  0
 18  1  1  0  0  0
  1  2  1  0  0  0
  1  7  1  0  0  0
  2  3  1  0  0  0
  2  4  1  0  0  0
  3  6  1  0  0  0
  4  5  1  0  0  0
  5  6  1  0  0  0
  6  7  1  0  0  0
  7  8  1  0  0  0
  8  9  2  0  0  0
  9 10  1  0  0  0
 10 11  1  0  0  0
 10 13  1  0  0  0
 13 14  1  0  0  0
 14 15  1  0  0  0
 15 16  1  0  0  0
 16 17  1  0  0  0
 24 27  1  0  0  0
 11 12  1  0  0  0
M  END
> <minimizedAffinity>
-7.74326

$$$$
3NHT_U46_A_1


 27 28  0  0  0  0  0  0  0  0999 V2000
   -4.0731   -1.3959   21.3470 C   0  0  0  0  0  0  0  0  0  0  0  0
   -4.3086   -0.1156   20.5360 C   0  0  0  0  0  0  0  0  0  0  0  0
   -4.3416    1.0602   21.4697 C   0  0  0  0  0  0  0  0  0  0  0  0
   -5.7307    0.3961   20.7056 C   0  0  0  0  0  0  0  0  0  0  0  0
   -6.1535    0.7237   22.1144 O   0  0  0  0  0  0  0  0  0  0  0  0
   -4.8175    0.5644   22.8424 C   0  0  0  0  0  0  0  0  0  0  0  0
   -4.4132   -0.9065   22.7692 C   0  0  0  0  0  0  0  0  0  0  0  0
   -3.3146   -1.2644   23.7707 C   0  0  0  0  0  0  0  0  0  0  0  0
   -2.0239   -1.6325   23.2801 C   0  0  0  0  0  0  0  0  0  0  0  0
   -0.9465   -1.9396   24.3088 C   0  0  0  0  0  0  0  0  0  0  0  0
   -0.0413   -3.1294   24.0385 O   0  0  0  0  0  0  0  0  0  0  0  0
    0.5595   -2.9189   23.3067 H   0  0  0  0  0  0  0  0  0  0  0  0
   -0.1854   -0.7325   24.8177 C   0  0  0  0  0  0  0  0  0  0  0  0
   -0.0221    0.4061   23.8107 C   0  0  0  0  0  0  0  0  0  0  0  0
    1.1030    0.2999   22.7838 C   0  0  0  0  0  0  0  0  0  0  0  0
    0.7942    0.6409   21.3296 C   0  0  0  0  0  0  0  0  0  0  0  0
   -0.6860    0.8663   20.9849 C   0  0  0  0  0  0  0  0  0  0  0  0
   -4.9558   -2.5669   20.8861 C   0  0  0  0  0  0  0  0  0  0  0  0
   -3.3501   -4.6810   20.8680 C   0  0  0  0  0  0  0  0  0  0  0  0
   -4.0225   -3.5883   20.2112 C   0  0  0  0  0  0  0  0  0  0  0  0
   -3.5965   -4.8141   22.3766 C   0  0  0  0  0  0  0  0  0  0  0  0
   -2.3417   -5.4385   22.9959 C   0  0  0  0  0  0  0  0  0  0  0  0
   -1.3025   -5.6100   21.8859 C   0  0  0  0  0  0  0  0  0  0  0  0
   -0.1565   -7.1242   23.6146 O   0  0  0  0  0  0  0  0  0  0  0  0
   -0.0980   -6.4184   22.4071 C   0  0  0  0  0  0  0  0  0  0  0  0
    1.0401   -6.4150   21.6129 O   0  0  0  0  0  0  0  0  0  0  0  0
   -0.9392   -7.1076   24.1295 H   0  0  0  0  0  0  0  0  0  0  0  0
 24 25  1  0  0  0
 25 26  2  0  0  0
 25 23  1  0  0  0
 23 22  1  0  0  0
 22 21  1  0  0  0
 21 19  1  0  0  0
 19 20  2  0  0  0
 20 18  1  0  0  0
 18  1  1  0  0  0
  1  2  1  0  0  0
  1  7  1  0  0  0
  2  3  1  0  0  0
  2  4  1  0  0  0
  3  6  1  0  0  0
  4  5  1  0  0  0
  5  6  1  0  0  0
  6  7  1  0  0  0
  7  8  1  0  0  0
  8  9  2  0  0  0
  9 10  1  0  0  0
 10 11  1  0  0  0
 10 13  1  0  0  0
 13 14  1  0  0  0
 14 15  1  0  0  0
 15 16  1  0  0  0
 16 17  1  0  0  0
 24 27  1  0  0  0
 11 12  1  0  0  0
M  END
> <minimizedAffinity>
-7.49399

$$$$
3NHT_U46_A_1


 27 28  0  0  0  0  0  0  0  0999 V2000
   -8.6979    1.6836   15.8622 C   0  0  0  0  0  0  0  0  0  0  0  0
   -9.6787    2.8429   16.0787 C   0  0  0  0  0  0  0  0  0  0  0  0
   -9.8903    3.0406   17.5522 C   0  0  0  0  0  0  0  0  0  0  0  0
  -11.0514    2.3390   16.4966 C   0  0  0  0  0  0  0  0  0  0  0  0
  -11.1006    1.5231   17.7625 O   0  0  0  0  0  0  0  0  0  0  0  0
   -9.6609    1.6931   18.2508 C   0  0  0  0  0  0  0  0  0  0  0  0
   -8.7381    1.0058   17.2466 C   0  0  0  0  0  0  0  0  0  0  0  0
   -7.3341    0.7702   17.8044 C   0  0  0  0  0  0  0  0  0  0  0  0
   -7.1281    0.8487   19.2164 C   0  0  0  0  0  0  0  0  0  0  0  0
   -5.7266    0.5659   19.7352 C   0  0  0  0  0  0  0  0  0  0  0  0
   -5.3171    1.2296   21.0389 O   0  0  0  0  0  0  0  0  0  0  0  0
   -5.7945    0.8170   21.7756 H   0  0  0  0  0  0  0  0  0  0  0  0
   -5.2977   -0.8853   19.6605 C   0  0  0  0  0  0  0  0  0  0  0  0
   -4.9725   -1.5380   21.0041 C   0  0  0  0  0  0  0  0  0  0  0  0
   -4.9450   -3.0631   21.0729 C   0  0  0  0  0  0  0  0  0  0  0  0
   -3.7117   -3.7921   20.5492 C   0  0  0  0  0  0  0  0  0  0  0  0
   -3.2688   -5.0318   21.3416 C   0  0  0  0  0  0  0  0  0  0  0  0
   -9.1226    0.7462   14.7203 C   0  0  0  0  0  0  0  0  0  0  0  0
  -10.6416    1.6274   12.7293 C   0  0  0  0  0  0  0  0  0  0  0  0
  -10.4143    1.3318   14.1216 C   0  0  0  0  0  0  0  0  0  0  0  0
   -9.4747    1.3298   11.7784 C   0  0  0  0  0  0  0  0  0  0  0  0
   -9.7913    0.0157   11.0565 C   0  0  0  0  0  0  0  0  0  0  0  0
   -9.0626   -1.1130   11.7890 C   0  0  0  0  0  0  0  0  0  0  0  0
  -11.2129   -1.9490   12.9167 O   0  0  0  0  0  0  0  0  0  0  0  0
  -10.0582   -2.2246   12.1748 C   0  0  0  0  0  0  0  0  0  0  0  0
   -9.7527   -3.5071   11.7411 O   0  0  0  0  0  0  0  0  0  0  0  0
  -11.3925   -1.0727   13.1956 H   0  0  0  0  0  0  0  0  0  0  0  0
 24 25  1  0  0  0
 25 26  2  0  0  0
 25 23  1  0  0  0
 23 22  1  0  0  0
 22 21  1  0  0  0
 21 19  1  0  0  0
 19 20  2  0  0  0
 20 18  1  0  0  0
 18  1  1  0  0  0
  1  2  1  0  0  0
  1  7  1  0  0  0
  2  3  1  0  0  0
  2  4  1  0  0  0
  3  6  1  0  0  0
  4  5  1  0  0  0
  5  6  1  0  0  0
  6  7  1  0  0  0
  7  8  1  0  0  0
  8  9  2  0  0  0
  9 10  1  0  0  0
 10 11  1  0  0  0
 10 13  1  0  0  0
 13 14  1  0  0  0
 14 15  1  0  0  0
 15 16  1  0  0  0
 16 17  1  0  0  0
 24 27  1  0  0  0
 11 12  1  0  0  0
M  END
> <minimizedAffinity>
-7.17889

$$$$
3NHT_U46_A_1


 27 28  0  0  0  0  0  0  0  0999 V2000
   -5.1574    0.4737   22.6946 C   0  0  0  0  0  0  0  0  0  0  0  0
   -3.7922    1.1628   22.8138 C   0  0  0  0  0  0  0  0  0  0  0  0
   -3.3144    1.5500   21.4437 C   0  0  0  0  0  0  0  0  0  0  0  0
   -2.6660    0.2476   22.3591 C   0  0  0  0  0  0  0  0  0  0  0  0
   -2.7481   -0.2489   20.9388 O   0  0  0  0  0  0  0  0  0  0  0  0
   -3.9325    0.5756   20.4313 C   0  0  0  0  0  0  0  0  0  0  0  0
   -5.1789    0.1281   21.1920 C   0  0  0  0  0  0  0  0  0  0  0  0
   -6.4735    0.5894   20.5218 C   0  0  0  0  0  0  0  0  0  0  0  0
   -6.5256    0.6656   19.0957 C   0  0  0  0  0  0  0  0  0  0  0  0
   -7.8442    1.0874   18.4659 C   0  0  0  0  0  0  0  0  0  0  0  0
   -8.4276    2.4229   18.8948 O   0  0  0  0  0  0  0  0  0  0  0  0
   -7.8922    3.1429   18.5263 H   0  0  0  0  0  0  0  0  0  0  0  0
   -7.9392    0.8636   16.9705 C   0  0  0  0  0  0  0  0  0  0  0  0
   -9.0955    1.5837   16.2766 C   0  0  0  0  0  0  0  0  0  0  0  0
   -9.3172    1.3178   14.7894 C   0  0  0  0  0  0  0  0  0  0  0  0
   -9.7727    2.4736   13.9044 C   0  0  0  0  0  0  0  0  0  0  0  0
  -10.8316    2.1387   12.8427 C   0  0  0  0  0  0  0  0  0  0  0  0
   -5.2841   -0.7629   23.5988 C   0  0  0  0  0  0  0  0  0  0  0  0
   -5.9450   -0.5725   26.1629 C   0  0  0  0  0  0  0  0  0  0  0  0
   -5.0830   -0.2780   25.0459 C   0  0  0  0  0  0  0  0  0  0  0  0
   -7.1704   -1.4437   25.8566 C   0  0  0  0  0  0  0  0  0  0  0  0
   -8.1558   -1.2790   27.0184 C   0  0  0  0  0  0  0  0  0  0  0  0
   -8.8084   -2.6381   27.2804 C   0  0  0  0  0  0  0  0  0  0  0  0
  -10.3682   -2.5803   25.2413 O   0  0  0  0  0  0  0  0  0  0  0  0
   -9.3584   -3.2248   25.9654 C   0  0  0  0  0  0  0  0  0  0  0  0
   -8.7942   -4.4180   25.5362 O   0  0  0  0  0  0  0  0  0  0  0  0
  -10.7299   -1.7754   25.5564 H   0  0  0  0  0  0  0  0  0  0  0  0
 24 25  1  0  0  0
 25 26  2  0  0  0
 25 23  1  0  0  0
 23 22  1  0  0  0
 22 21  1  0  0  0
 21 19  1  0  0  0
 19 20  2  0  0  0
 20 18  1  0  0  0
 18  1  1  0  0  0
  1  2  1  0  0  0
  1  7  1  0  0  0
  2  3  1  0  0  0
  2  4  1  0  0  0
  3  6  1  0  0  0
  4  5  1  0  0  0
  5  6  1  0  0  0
  6  7  1  0  0  0
  7  8  1  0  0  0
  8  9  2  0  0  0
  9 10  1  0  0  0
 10 11  1  0  0  0
 10 13  1  0  0  0
 13 14  1  0  0  0
 14 15  1  0  0  0
 15 16  1  0  0  0
 16 17  1  0  0  0
 24 27  1  0  0  0
 11 12  1  0  0  0
M  END
> <minimizedAffinity>
-7.14301

$$$$
3NHT_U46_A_1


 27 28  0  0  0  0  0  0  0  0999 V2000
   -2.3564   -0.4223   23.7383 C   0  0  0  0  0  0  0  0  0  0  0  0
   -2.5132   -0.1083   25.2315 C   0  0  0  0  0  0  0  0  0  0  0  0
   -3.2611    1.1846   25.3872 C   0  0  0  0  0  0  0  0  0  0  0  0
   -1.5745    1.0063   25.6666 C   0  0  0  0  0  0  0  0  0  0  0  0
   -1.7362    2.3246   24.9548 O   0  0  0  0  0  0  0  0  0  0  0  0
   -2.9987    2.0393   24.1394 C   0  0  0  0  0  0  0  0  0  0  0  0
   -2.6648    0.9549   23.1172 C   0  0  0  0  0  0  0  0  0  0  0  0
   -3.7086    0.8550   22.0044 C   0  0  0  0  0  0  0  0  0  0  0  0
   -4.0950   -0.4371   21.5318 C   0  0  0  0  0  0  0  0  0  0  0  0
   -5.1670   -0.4956   20.4544 C   0  0  0  0  0  0  0  0  0  0  0  0
   -5.5917   -1.8699   19.9654 O   0  0  0  0  0  0  0  0  0  0  0  0
   -6.1046   -2.3152   20.6579 H   0  0  0  0  0  0  0  0  0  0  0  0
   -6.3431    0.4346   20.6712 C   0  0  0  0  0  0  0  0  0  0  0  0
   -6.6902    1.3328   19.4839 C   0  0  0  0  0  0  0  0  0  0  0  0
   -7.1896    0.6679   18.2032 C   0  0  0  0  0  0  0  0  0  0  0  0
   -8.4760    1.1868   17.5688 C   0  0  0  0  0  0  0  0  0  0  0  0
   -8.4890    1.2740   16.0349 C   0  0  0  0  0  0  0  0  0  0  0  0
   -0.9554   -0.9440   23.3807 C   0  0  0  0  0  0  0  0  0  0  0  0
   -1.2208   -3.4517   24.2108 C   0  0  0  0  0  0  0  0  0  0  0  0
   -0.6670   -2.1258   24.3242 C   0  0  0  0  0  0  0  0  0  0  0  0
   -2.1871   -3.6802   23.0411 C   0  0  0  0  0  0  0  0  0  0  0  0
   -3.6102   -3.6686   23.6090 C   0  0  0  0  0  0  0  0  0  0  0  0
   -4.5692   -4.0773   22.4888 C   0  0  0  0  0  0  0  0  0  0  0  0
   -6.5607   -4.8490   23.9146 O   0  0  0  0  0  0  0  0  0  0  0  0
   -6.0286   -3.9620   22.9714 C   0  0  0  0  0  0  0  0  0  0  0  0
   -6.7806   -2.9299   22.4278 O   0  0  0  0  0  0  0  0  0  0  0  0
   -6.0283   -5.5364   24.2638 H   0  0  0  0  0  0  0  0  0  0  0  0
 24 25  1  0  0  0
 25 26  2  0  0  0
 25 23  1  0  0  0
 23 22  1  0  0  0
 22 21  1  0  0  0
 21 19  1  0  0  0
 19 20  2  0  0  0
 20 18  1  0  0  0
 18  1  1  0  0  0
  1  2  1  0  0  0
  1  7  1  0  0  0
  2  3  1  0  0  0
  2  4  1  0  0  0
  3  6  1  0  0  0
  4  5  1  0  0  0
  5  6  1  0  0  0
  6  7  1  0  0  0
  7  8  1  0  0  0
  8  9  2  0  0  0
  9 10  1  0  0  0
 10 11  1  0  0  0
 10 13  1  0  0  0
 13 14  1  0  0  0
 14 15  1  0  0  0
 15 16  1  0  0  0
 16 17  1  0  0  0
 24 27  1  0  0  0
 11 12  1  0  0  0
M  END
> <minimizedAffinity>
-7.02314

$$$$
3NHT_U46_A_1


 27 28  0  0  0  0  0  0  0  0999 V2000
   -2.6307   -0.5683   25.0659 C   0  0  0  0  0  0  0  0  0  0  0  0
   -2.3614   -0.5880   26.5758 C   0  0  0  0  0  0  0  0  0  0  0  0
   -3.6704   -0.5420   27.3105 C   0  0  0  0  0  0  0  0  0  0  0  0
   -2.5807    0.7826   27.1975 C   0  0  0  0  0  0  0  0  0  0  0  0
   -3.9593    1.3696   27.0381 O   0  0  0  0  0  0  0  0  0  0  0  0
   -4.6915    0.1779   26.4185 C   0  0  0  0  0  0  0  0  0  0  0  0
   -4.0922   -0.0775   25.0373 C   0  0  0  0  0  0  0  0  0  0  0  0
   -4.9757   -0.9751   24.1703 C   0  0  0  0  0  0  0  0  0  0  0  0
   -4.4913   -2.2651   23.7915 C   0  0  0  0  0  0  0  0  0  0  0  0
   -5.4171   -3.1445   22.9651 C   0  0  0  0  0  0  0  0  0  0  0  0
   -6.9125   -2.9664   23.1651 O   0  0  0  0  0  0  0  0  0  0  0  0
   -7.1913   -2.1198   22.7825 H   0  0  0  0  0  0  0  0  0  0  0  0
   -5.0367   -3.2787   21.5047 C   0  0  0  0  0  0  0  0  0  0  0  0
   -3.5807   -3.6653   21.2441 C   0  0  0  0  0  0  0  0  0  0  0  0
   -3.2043   -5.1426   21.3298 C   0  0  0  0  0  0  0  0  0  0  0  0
   -2.3061   -5.5986   22.4751 C   0  0  0  0  0  0  0  0  0  0  0  0
   -1.6279   -4.4863   23.2897 C   0  0  0  0  0  0  0  0  0  0  0  0
   -1.6703    0.3549   24.2991 C   0  0  0  0  0  0  0  0  0  0  0  0
   -2.9256    1.6879   22.3767 C   0  0  0  0  0  0  0  0  0  0  0  0
   -2.5162    1.5172   23.7481 C   0  0  0  0  0  0  0  0  0  0  0  0
   -2.4590    0.6051   21.3948 C   0  0  0  0  0  0  0  0  0  0  0  0
   -3.7100   -0.0219   20.7705 C   0  0  0  0  0  0  0  0  0  0  0  0
   -4.8942    0.9051   21.0532 C   0  0  0  0  0  0  0  0  0  0  0  0
   -6.9599    1.6886   19.7444 O   0  0  0  0  0  0  0  0  0  0  0  0
   -5.9871    0.7109   19.9838 C   0  0  0  0  0  0  0  0  0  0  0  0
   -5.9492   -0.4780   19.2687 O   0  0  0  0  0  0  0  0  0  0  0  0
   -6.9600    2.4816   20.2435 H   0  0  0  0  0  0  0  0  0  0  0  0
 24 25  1  0  0  0
 25 26  2  0  0  0
 25 23  1  0  0  0
 23 22  1  0  0  0
 22 21  1  0  0  0
 21 19  1  0  0  0
 19 20  2  0  0  0
 20 18  1  0  0  0
 18  1  1  0  0  0
  1  2  1  0  0  0
  1  7  1  0  0  0
  2  3  1  0  0  0
  2  4  1  0  0  0
  3  6  1  0  0  0
  4  5  1  0  0  0
  5  6  1  0  0  0
  6  7  1  0  0  0
  7  8  1  0  0  0
  8  9  2  0  0  0
  9 10  1  0  0  0
 10 11  1  0  0  0
 10 13  1  0  0  0
 13 14  1  0  0  0
 14 15  1  0  0  0
 15 16  1  0  0  0
 16 17  1  0  0  0
 24 27  1  0  0  0
 11 12  1  0  0  0
M  END
> <minimizedAffinity>
-6.95939

$$$$
