4W9J_3JH_C_301


 45 47  0  0  0  0  0  0  0  0999 V2000
   11.6548   54.0798   91.4203 C   0  0  0  0  0  0  0  0  0  0  0  0
   10.4654   53.9210   91.2188 O   0  0  0  0  0  0  0  0  0  0  0  0
   12.5437   54.3021   90.4264 N   0  0  0  0  0  0  0  0  0  0  0  0
   13.9918   54.6017   90.5154 C   0  0  0  0  0  0  0  0  0  0  0  0
   14.3063   55.3844   89.2427 C   0  0  0  0  0  0  0  0  0  0  0  0
   14.0427   56.8078   89.4232 O   0  0  0  0  0  0  0  0  0  0  0  0
   13.3956   54.8763   88.2026 C   0  0  0  0  0  0  0  0  0  0  0  0
   12.1464   54.3767   88.9740 C   0  0  0  0  0  0  0  0  0  0  0  0
   13.1103   56.9368   89.6576 H   0  0  0  0  0  0  0  0  0  0  0  0
   11.6958   53.1374   88.4556 C   0  0  0  0  0  0  0  0  0  0  0  0
   12.0626   52.0927   88.9708 O   0  0  0  0  0  0  0  0  0  0  0  0
   10.8287   53.1633   87.3991 N   0  0  0  0  0  0  0  0  0  0  0  0
   10.5308   54.0293   87.0376 H   0  0  0  0  0  0  0  0  0  0  0  0
   10.3366   51.9236   86.7975 C   0  0  0  0  0  0  0  0  0  0  0  0
   11.0138   51.6895   85.5571 C   0  0  0  0  0  0  0  0  0  0  0  0
   11.3865   50.4081   85.0822 C   0  0  0  0  0  0  0  0  0  0  0  0
   12.0316   50.2443   83.8362 C   0  0  0  0  0  0  0  0  0  0  0  0
   11.3162   52.7862   84.7499 C   0  0  0  0  0  0  0  0  0  0  0  0
   11.9678   52.6220   83.5078 C   0  0  0  0  0  0  0  0  0  0  0  0
   12.3380   51.3471   83.0333 C   0  0  0  0  0  0  0  0  0  0  0  0
   12.9810   51.1607   81.8633 C   0  0  0  0  0  0  0  0  0  0  0  0
   12.4717   50.1336   80.5579 S   0  0  0  0  0  0  0  0  0  0  0  0
   13.7896   50.4599   79.6124 C   0  0  0  0  0  0  0  0  0  0  0  0
   14.5970   51.2977   80.2539 N   0  0  0  0  0  0  0  0  0  0  0  0
   14.1694   51.6828   81.4806 C   0  0  0  0  0  0  0  0  0  0  0  0
   15.0357   52.6583   82.2992 C   0  0  0  0  0  0  0  0  0  0  0  0
   12.1731   54.0142   92.8622 C   0  0  0  0  0  0  0  0  0  0  0  0
   11.2176   55.7414   94.3082 C   0  0  0  0  0  0  0  0  0  0  0  0
   12.1148   56.5476   94.0805 O   0  0  0  0  0  0  0  0  0  0  0  0
   11.1507   54.5337   93.7586 N   0  0  0  0  0  0  0  0  0  0  0  0
   10.3748   53.9647   93.9669 H   0  0  0  0  0  0  0  0  0  0  0  0
   10.0880   56.0487   95.3192 C   0  0  0  0  0  0  0  0  0  0  0  0
   10.6706   56.1173   96.6704 N   0  0  0  0  0  0  0  0  0  0  0  0
   10.6688   55.1036   97.5700 C   0  0  0  0  0  0  0  0  0  0  0  0
   11.1794   55.2139   98.6899 O   0  0  0  0  0  0  0  0  0  0  0  0
    9.9755   53.7975   97.1747 C   0  0  0  0  0  0  0  0  0  0  0  0
   11.0937   56.9641   96.9407 H   0  0  0  0  0  0  0  0  0  0  0  0
    9.4045   57.3800   94.9857 C   0  0  0  0  0  0  0  0  0  0  0  0
    7.2588   56.0825   95.4741 C   0  0  0  0  0  0  0  0  0  0  0  0
    8.0447   57.3918   95.6854 C   0  0  0  0  0  0  0  0  0  0  0  0
    7.2172   58.5424   95.1156 C   0  0  0  0  0  0  0  0  0  0  0  0
   12.5172   52.5742   93.3387 C   0  0  0  0  0  0  0  0  0  0  0  0
   13.3646   52.6826   94.6190 C   0  0  0  0  0  0  0  0  0  0  0  0
   13.3271   51.8011   92.2728 C   0  0  0  0  0  0  0  0  0  0  0  0
   11.2466   51.7429   93.6865 C   0  0  0  0  0  0  0  0  0  0  0  0
 24 23  2  0  0  0
 24 25  1  0  0  0
 23 22  1  0  0  0
 26 25  1  0  0  0
 25 21  2  0  0  0
 22 21  1  0  0  0
 21 20  1  0  0  0
 20 19  2  0  0  0
 20 17  1  0  0  0
 19 18  1  0  0  0
 17 16  2  0  0  0
 18 15  2  0  0  0
 16 15  1  0  0  0
 15 14  1  0  0  0
 14 12  1  0  0  0
 12 10  1  0  0  0
 10 11  2  0  0  0
 10  8  1  0  0  0
  7  8  1  0  0  0
  7  5  1  0  0  0
  8  3  1  0  0  0
  5  6  1  0  0  0
  5  4  1  0  0  0
  3  4  1  0  0  0
  3  1  1  0  0  0
  2  1  2  0  0  0
  1 27  1  0  0  0
 44 42  1  0  0  0
 27 42  1  0  0  0
 27 30  1  0  0  0
 42 45  1  0  0  0
 42 43  1  0  0  0
 30 28  1  0  0  0
 29 28  2  0  0  0
 28 32  1  0  0  0
 38 32  1  0  0  0
 38 40  1  0  0  0
 32 33  1  0  0  0
 41 40  1  0  0  0
 40 39  1  0  0  0
 33 34  1  0  0  0
 36 34  1  0  0  0
 34 35  2  0  0  0
 33 37  1  0  0  0
 30 31  1  0  0  0
  6  9  1  0  0  0
 12 13  1  0  0  0
M  END
> <minimizedAffinity>
-8.78480

$$$$
4W9J_3JH_C_301


 45 47  0  0  0  0  0  0  0  0999 V2000
   11.6799   53.9906   91.3740 C   0  0  0  0  0  0  0  0  0  0  0  0
   10.4930   53.8233   91.1647 O   0  0  0  0  0  0  0  0  0  0  0  0
   12.5709   54.2369   90.3876 N   0  0  0  0  0  0  0  0  0  0  0  0
   14.0156   54.5492   90.4877 C   0  0  0  0  0  0  0  0  0  0  0  0
   14.3279   55.3545   89.2287 C   0  0  0  0  0  0  0  0  0  0  0  0
   14.0495   56.7724   89.4298 O   0  0  0  0  0  0  0  0  0  0  0  0
   13.4268   54.8537   88.1768 C   0  0  0  0  0  0  0  0  0  0  0  0
   12.1793   54.3301   88.9347 C   0  0  0  0  0  0  0  0  0  0  0  0
   13.1149   56.8886   89.6621 H   0  0  0  0  0  0  0  0  0  0  0  0
   11.7431   53.0945   88.3952 C   0  0  0  0  0  0  0  0  0  0  0  0
   12.1155   52.0457   88.8979 O   0  0  0  0  0  0  0  0  0  0  0  0
   10.8832   53.1284   87.3332 N   0  0  0  0  0  0  0  0  0  0  0  0
   10.5803   53.9968   86.9821 H   0  0  0  0  0  0  0  0  0  0  0  0
   10.4062   51.8933   86.7102 C   0  0  0  0  0  0  0  0  0  0  0  0
   11.1018   51.6774   85.4767 C   0  0  0  0  0  0  0  0  0  0  0  0
   11.4248   50.3998   84.9571 C   0  0  0  0  0  0  0  0  0  0  0  0
   12.0918   50.2559   83.7203 C   0  0  0  0  0  0  0  0  0  0  0  0
   11.4758   52.7901   84.7233 C   0  0  0  0  0  0  0  0  0  0  0  0
   12.1492   52.6452   83.4904 C   0  0  0  0  0  0  0  0  0  0  0  0
   12.4701   51.3743   82.9715 C   0  0  0  0  0  0  0  0  0  0  0  0
   13.1321   51.2048   81.8095 C   0  0  0  0  0  0  0  0  0  0  0  0
   12.6426   50.1995   80.4798 S   0  0  0  0  0  0  0  0  0  0  0  0
   13.9767   50.5375   79.5617 C   0  0  0  0  0  0  0  0  0  0  0  0
   14.7750   51.3633   80.2296 N   0  0  0  0  0  0  0  0  0  0  0  0
   14.3277   51.7302   81.4549 C   0  0  0  0  0  0  0  0  0  0  0  0
   15.1821   52.6908   82.3030 C   0  0  0  0  0  0  0  0  0  0  0  0
   12.1926   53.9078   92.8169 C   0  0  0  0  0  0  0  0  0  0  0  0
   11.2198   55.6144   94.2757 C   0  0  0  0  0  0  0  0  0  0  0  0
   12.1102   56.4304   94.0563 O   0  0  0  0  0  0  0  0  0  0  0  0
   11.1643   54.4109   93.7160 N   0  0  0  0  0  0  0  0  0  0  0  0
   10.3931   53.8333   93.9182 H   0  0  0  0  0  0  0  0  0  0  0  0
   10.0859   55.9034   95.2875 C   0  0  0  0  0  0  0  0  0  0  0  0
    8.8111   55.9903   94.5545 N   0  0  0  0  0  0  0  0  0  0  0  0
    7.8007   56.8434   94.8510 C   0  0  0  0  0  0  0  0  0  0  0  0
    6.7530   56.8788   94.1966 O   0  0  0  0  0  0  0  0  0  0  0  0
    7.9727   57.7627   96.0627 C   0  0  0  0  0  0  0  0  0  0  0  0
    8.6834   55.3822   93.7908 H   0  0  0  0  0  0  0  0  0  0  0  0
    9.9987   54.7929   96.3411 C   0  0  0  0  0  0  0  0  0  0  0  0
   11.9082   53.5747   97.5224 C   0  0  0  0  0  0  0  0  0  0  0  0
   11.2154   54.9263   97.2579 C   0  0  0  0  0  0  0  0  0  0  0  0
   10.7520   55.4953   98.5975 C   0  0  0  0  0  0  0  0  0  0  0  0
   12.5409   52.4630   93.2755 C   0  0  0  0  0  0  0  0  0  0  0  0
   11.2457   51.7895   93.7632 C   0  0  0  0  0  0  0  0  0  0  0  0
   13.5643   52.4656   94.4342 C   0  0  0  0  0  0  0  0  0  0  0  0
   13.1144   51.5930   92.1176 C   0  0  0  0  0  0  0  0  0  0  0  0
 24 23  2  0  0  0
 24 25  1  0  0  0
 23 22  1  0  0  0
 26 25  1  0  0  0
 25 21  2  0  0  0
 22 21  1  0  0  0
 21 20  1  0  0  0
 20 19  2  0  0  0
 20 17  1  0  0  0
 19 18  1  0  0  0
 17 16  2  0  0  0
 18 15  2  0  0  0
 16 15  1  0  0  0
 15 14  1  0  0  0
 14 12  1  0  0  0
 12 10  1  0  0  0
 10 11  2  0  0  0
 10  8  1  0  0  0
  7  8  1  0  0  0
  7  5  1  0  0  0
  8  3  1  0  0  0
  5  6  1  0  0  0
  5  4  1  0  0  0
  3  4  1  0  0  0
  3  1  1  0  0  0
  2  1  2  0  0  0
  1 27  1  0  0  0
 44 42  1  0  0  0
 27 42  1  0  0  0
 27 30  1  0  0  0
 42 45  1  0  0  0
 42 43  1  0  0  0
 30 28  1  0  0  0
 29 28  2  0  0  0
 28 32  1  0  0  0
 38 32  1  0  0  0
 38 40  1  0  0  0
 32 33  1  0  0  0
 41 40  1  0  0  0
 40 39  1  0  0  0
 33 34  1  0  0  0
 36 34  1  0  0  0
 34 35  2  0  0  0
 33 37  1  0  0  0
 30 31  1  0  0  0
  6  9  1  0  0  0
 12 13  1  0  0  0
M  END
> <minimizedAffinity>
-8.77045

$$$$
4W9J_3JH_C_301


 45 47  0  0  0  0  0  0  0  0999 V2000
   10.8248   51.2609   85.2600 C   0  0  0  0  0  0  0  0  0  0  0  0
   11.7915   51.9203   84.9264 O   0  0  0  0  0  0  0  0  0  0  0  0
    9.9596   51.6610   86.2186 N   0  0  0  0  0  0  0  0  0  0  0  0
    8.7008   51.0228   86.6689 C   0  0  0  0  0  0  0  0  0  0  0  0
    7.8596   52.1699   87.2237 C   0  0  0  0  0  0  0  0  0  0  0  0
    7.1003   52.8244   86.1638 O   0  0  0  0  0  0  0  0  0  0  0  0
    8.8053   53.1500   87.7843 C   0  0  0  0  0  0  0  0  0  0  0  0
   10.1083   52.9628   86.9643 C   0  0  0  0  0  0  0  0  0  0  0  0
    7.7113   53.1687   85.4937 H   0  0  0  0  0  0  0  0  0  0  0  0
   11.2450   52.9937   87.8096 C   0  0  0  0  0  0  0  0  0  0  0  0
   11.7462   51.9484   88.1940 O   0  0  0  0  0  0  0  0  0  0  0  0
   11.7620   54.2147   88.1419 N   0  0  0  0  0  0  0  0  0  0  0  0
   11.3476   55.0313   87.7804 H   0  0  0  0  0  0  0  0  0  0  0  0
   12.9219   54.3264   89.0269 C   0  0  0  0  0  0  0  0  0  0  0  0
   12.4819   54.4090   90.3877 C   0  0  0  0  0  0  0  0  0  0  0  0
   11.1372   54.2450   90.8017 C   0  0  0  0  0  0  0  0  0  0  0  0
   10.7736   54.3143   92.1649 C   0  0  0  0  0  0  0  0  0  0  0  0
   13.4337   54.6505   91.3784 C   0  0  0  0  0  0  0  0  0  0  0  0
   13.0679   54.7270   92.7403 C   0  0  0  0  0  0  0  0  0  0  0  0
   11.7302   54.5625   93.1538 C   0  0  0  0  0  0  0  0  0  0  0  0
   11.3472   54.6528   94.4431 C   0  0  0  0  0  0  0  0  0  0  0  0
   11.0615   53.3280   95.5301 S   0  0  0  0  0  0  0  0  0  0  0  0
   10.6167   54.2926   96.7985 C   0  0  0  0  0  0  0  0  0  0  0  0
   10.6628   55.5660   96.4225 N   0  0  0  0  0  0  0  0  0  0  0  0
   11.0552   55.7740   95.1424 C   0  0  0  0  0  0  0  0  0  0  0  0
   11.1453   57.2187   94.6161 C   0  0  0  0  0  0  0  0  0  0  0  0
   10.5806   49.9116   84.5732 C   0  0  0  0  0  0  0  0  0  0  0  0
   10.3888   50.3398   82.1718 C   0  0  0  0  0  0  0  0  0  0  0  0
    9.2241   50.7200   82.2468 O   0  0  0  0  0  0  0  0  0  0  0  0
   11.1137   49.9642   83.2198 N   0  0  0  0  0  0  0  0  0  0  0  0
   12.0537   49.7099   83.0746 H   0  0  0  0  0  0  0  0  0  0  0  0
   11.1145   50.2120   80.8117 C   0  0  0  0  0  0  0  0  0  0  0  0
   10.9033   51.4527   80.0463 N   0  0  0  0  0  0  0  0  0  0  0  0
   10.3071   51.5245   78.8314 C   0  0  0  0  0  0  0  0  0  0  0  0
   10.1492   52.5957   78.2357 O   0  0  0  0  0  0  0  0  0  0  0  0
    9.8511   50.2167   78.1798 C   0  0  0  0  0  0  0  0  0  0  0  0
   11.2193   52.2941   80.4481 H   0  0  0  0  0  0  0  0  0  0  0  0
   12.6168   49.9821   81.0144 C   0  0  0  0  0  0  0  0  0  0  0  0
   14.4073   51.1165   79.5886 C   0  0  0  0  0  0  0  0  0  0  0  0
   13.3355   51.2907   80.6829 C   0  0  0  0  0  0  0  0  0  0  0  0
   14.0236   51.7990   81.9484 C   0  0  0  0  0  0  0  0  0  0  0  0
   11.2607   48.7115   85.2916 C   0  0  0  0  0  0  0  0  0  0  0  0
   12.5654   48.3823   84.5443 C   0  0  0  0  0  0  0  0  0  0  0  0
   10.3561   47.4579   85.2844 C   0  0  0  0  0  0  0  0  0  0  0  0
   11.6355   49.0365   86.7682 C   0  0  0  0  0  0  0  0  0  0  0  0
 24 23  2  0  0  0
 24 25  1  0  0  0
 23 22  1  0  0  0
 26 25  1  0  0  0
 25 21  2  0  0  0
 22 21  1  0  0  0
 21 20  1  0  0  0
 20 19  2  0  0  0
 20 17  1  0  0  0
 19 18  1  0  0  0
 17 16  2  0  0  0
 18 15  2  0  0  0
 16 15  1  0  0  0
 15 14  1  0  0  0
 14 12  1  0  0  0
 12 10  1  0  0  0
 10 11  2  0  0  0
 10  8  1  0  0  0
  7  8  1  0  0  0
  7  5  1  0  0  0
  8  3  1  0  0  0
  5  6  1  0  0  0
  5  4  1  0  0  0
  3  4  1  0  0  0
  3  1  1  0  0  0
  2  1  2  0  0  0
  1 27  1  0  0  0
 44 42  1  0  0  0
 27 42  1  0  0  0
 27 30  1  0  0  0
 42 45  1  0  0  0
 42 43  1  0  0  0
 30 28  1  0  0  0
 29 28  2  0  0  0
 28 32  1  0  0  0
 38 32  1  0  0  0
 38 40  1  0  0  0
 32 33  1  0  0  0
 41 40  1  0  0  0
 40 39  1  0  0  0
 33 34  1  0  0  0
 36 34  1  0  0  0
 34 35  2  0  0  0
 33 37  1  0  0  0
 30 31  1  0  0  0
  6  9  1  0  0  0
 12 13  1  0  0  0
M  END
> <minimizedAffinity>
-6.81667

$$$$
4W9J_3JH_C_301


 45 47  0  0  0  0  0  0  0  0999 V2000
   11.7562   52.7355   88.6185 C   0  0  0  0  0  0  0  0  0  0  0  0
   12.0947   51.6018   88.9025 O   0  0  0  0  0  0  0  0  0  0  0  0
   12.1985   53.8227   89.2893 N   0  0  0  0  0  0  0  0  0  0  0  0
   11.9541   55.2572   89.0118 C   0  0  0  0  0  0  0  0  0  0  0  0
   13.1600   55.9799   89.6074 C   0  0  0  0  0  0  0  0  0  0  0  0
   14.2659   56.0269   88.6571 O   0  0  0  0  0  0  0  0  0  0  0  0
   13.5890   55.1884   90.7732 C   0  0  0  0  0  0  0  0  0  0  0  0
   13.1548   53.7348   90.4515 C   0  0  0  0  0  0  0  0  0  0  0  0
   14.5209   55.1234   88.4128 H   0  0  0  0  0  0  0  0  0  0  0  0
   12.5892   53.1132   91.5922 C   0  0  0  0  0  0  0  0  0  0  0  0
   11.7047   53.6776   92.2172 O   0  0  0  0  0  0  0  0  0  0  0  0
   13.0442   51.8706   91.9351 N   0  0  0  0  0  0  0  0  0  0  0  0
   13.7336   51.4370   91.3819 H   0  0  0  0  0  0  0  0  0  0  0  0
   12.5222   51.1752   93.1120 C   0  0  0  0  0  0  0  0  0  0  0  0
   13.6106   50.7456   93.9384 C   0  0  0  0  0  0  0  0  0  0  0  0
   14.3402   49.5483   93.7363 C   0  0  0  0  0  0  0  0  0  0  0  0
   15.4205   49.1948   94.5749 C   0  0  0  0  0  0  0  0  0  0  0  0
   13.9949   51.5594   95.0040 C   0  0  0  0  0  0  0  0  0  0  0  0
   15.0705   51.2014   95.8463 C   0  0  0  0  0  0  0  0  0  0  0  0
   15.7983   50.0107   95.6455 C   0  0  0  0  0  0  0  0  0  0  0  0
   16.8142   49.6311   96.4460 C   0  0  0  0  0  0  0  0  0  0  0  0
   17.3990   48.0110   96.6734 S   0  0  0  0  0  0  0  0  0  0  0  0
   18.5506   48.4414   97.7806 C   0  0  0  0  0  0  0  0  0  0  0  0
   18.4940   49.7522   97.9900 N   0  0  0  0  0  0  0  0  0  0  0  0
   17.5510   50.4093   97.2724 C   0  0  0  0  0  0  0  0  0  0  0  0
   17.4129   51.9337   97.4428 C   0  0  0  0  0  0  0  0  0  0  0  0
   10.7765   52.9430   87.4570 C   0  0  0  0  0  0  0  0  0  0  0  0
   11.6926   52.5447   85.2234 C   0  0  0  0  0  0  0  0  0  0  0  0
   11.9488   53.7286   85.0250 O   0  0  0  0  0  0  0  0  0  0  0  0
   11.1629   52.0806   86.3499 N   0  0  0  0  0  0  0  0  0  0  0  0
   11.0256   51.1099   86.4399 H   0  0  0  0  0  0  0  0  0  0  0  0
   11.9211   51.4714   84.1330 C   0  0  0  0  0  0  0  0  0  0  0  0
   10.6957   50.6644   84.0021 N   0  0  0  0  0  0  0  0  0  0  0  0
   10.6192   49.3278   84.2127 C   0  0  0  0  0  0  0  0  0  0  0  0
    9.5610   48.7004   84.0951 O   0  0  0  0  0  0  0  0  0  0  0  0
   11.9077   48.5858   84.5758 C   0  0  0  0  0  0  0  0  0  0  0  0
    9.8693   51.1317   83.7417 H   0  0  0  0  0  0  0  0  0  0  0  0
   12.2534   52.1242   82.7861 C   0  0  0  0  0  0  0  0  0  0  0  0
   14.6981   52.6243   82.2389 C   0  0  0  0  0  0  0  0  0  0  0  0
   13.5908   51.5541   82.3115 C   0  0  0  0  0  0  0  0  0  0  0  0
   13.3990   50.9703   80.9130 C   0  0  0  0  0  0  0  0  0  0  0  0
    9.3013   52.6034   87.8143 C   0  0  0  0  0  0  0  0  0  0  0  0
    9.0829   51.0995   87.5698 C   0  0  0  0  0  0  0  0  0  0  0  0
    8.3068   53.3974   86.9366 C   0  0  0  0  0  0  0  0  0  0  0  0
    8.9704   52.8882   89.3095 C   0  0  0  0  0  0  0  0  0  0  0  0
 24 23  2  0  0  0
 24 25  1  0  0  0
 23 22  1  0  0  0
 26 25  1  0  0  0
 25 21  2  0  0  0
 22 21  1  0  0  0
 21 20  1  0  0  0
 20 19  2  0  0  0
 20 17  1  0  0  0
 19 18  1  0  0  0
 17 16  2  0  0  0
 18 15  2  0  0  0
 16 15  1  0  0  0
 15 14  1  0  0  0
 14 12  1  0  0  0
 12 10  1  0  0  0
 10 11  2  0  0  0
 10  8  1  0  0  0
  7  8  1  0  0  0
  7  5  1  0  0  0
  8  3  1  0  0  0
  5  6  1  0  0  0
  5  4  1  0  0  0
  3  4  1  0  0  0
  3  1  1  0  0  0
  2  1  2  0  0  0
  1 27  1  0  0  0
 44 42  1  0  0  0
 27 42  1  0  0  0
 27 30  1  0  0  0
 42 45  1  0  0  0
 42 43  1  0  0  0
 30 28  1  0  0  0
 29 28  2  0  0  0
 28 32  1  0  0  0
 38 32  1  0  0  0
 38 40  1  0  0  0
 32 33  1  0  0  0
 41 40  1  0  0  0
 40 39  1  0  0  0
 33 34  1  0  0  0
 36 34  1  0  0  0
 34 35  2  0  0  0
 33 37  1  0  0  0
 30 31  1  0  0  0
  6  9  1  0  0  0
 12 13  1  0  0  0
M  END
> <minimizedAffinity>
-6.80957

$$$$
4W9J_3JH_C_301


 45 47  0  0  0  0  0  0  0  0999 V2000
   10.3409   51.7316   84.7518 C   0  0  0  0  0  0  0  0  0  0  0  0
   10.9924   52.7344   84.5273 O   0  0  0  0  0  0  0  0  0  0  0  0
    9.6630   51.5405   85.9058 N   0  0  0  0  0  0  0  0  0  0  0  0
    8.7615   50.4292   86.2887 C   0  0  0  0  0  0  0  0  0  0  0  0
    7.8143   51.0347   87.3219 C   0  0  0  0  0  0  0  0  0  0  0  0
    6.6766   51.6804   86.6762 O   0  0  0  0  0  0  0  0  0  0  0  0
    8.5818   52.0664   88.0400 C   0  0  0  0  0  0  0  0  0  0  0  0
    9.6477   52.5521   87.0235 C   0  0  0  0  0  0  0  0  0  0  0  0
    6.9949   52.3791   86.0835 H   0  0  0  0  0  0  0  0  0  0  0  0
   10.9086   52.7081   87.6507 C   0  0  0  0  0  0  0  0  0  0  0  0
   11.6784   51.7621   87.7133 O   0  0  0  0  0  0  0  0  0  0  0  0
   11.2300   53.9424   88.1425 N   0  0  0  0  0  0  0  0  0  0  0  0
   10.5937   54.6864   88.0385 H   0  0  0  0  0  0  0  0  0  0  0  0
   12.5054   54.1745   88.8211 C   0  0  0  0  0  0  0  0  0  0  0  0
   12.2873   54.2729   90.2335 C   0  0  0  0  0  0  0  0  0  0  0  0
   11.0371   54.0576   90.8636 C   0  0  0  0  0  0  0  0  0  0  0  0
   10.8953   54.1464   92.2662 C   0  0  0  0  0  0  0  0  0  0  0  0
   13.3732   54.5848   91.0515 C   0  0  0  0  0  0  0  0  0  0  0  0
   13.2287   54.6806   92.4531 C   0  0  0  0  0  0  0  0  0  0  0  0
   11.9853   54.4652   93.0816 C   0  0  0  0  0  0  0  0  0  0  0  0
   11.8114   54.5720   94.4141 C   0  0  0  0  0  0  0  0  0  0  0  0
   11.9064   53.2820   95.5740 S   0  0  0  0  0  0  0  0  0  0  0  0
   11.5407   54.2436   96.8697 C   0  0  0  0  0  0  0  0  0  0  0  0
   11.3370   55.4884   96.4526 N   0  0  0  0  0  0  0  0  0  0  0  0
   11.4779   55.6783   95.1184 C   0  0  0  0  0  0  0  0  0  0  0  0
   11.2673   57.0904   94.5405 C   0  0  0  0  0  0  0  0  0  0  0  0
   10.2936   50.6296   83.6863 C   0  0  0  0  0  0  0  0  0  0  0  0
    8.7023   51.2143   81.9220 C   0  0  0  0  0  0  0  0  0  0  0  0
    7.7368   50.7520   82.5227 O   0  0  0  0  0  0  0  0  0  0  0  0
    9.9399   51.2226   82.4050 N   0  0  0  0  0  0  0  0  0  0  0  0
   10.6496   51.6491   81.8724 H   0  0  0  0  0  0  0  0  0  0  0  0
    8.5678   51.7940   80.4941 C   0  0  0  0  0  0  0  0  0  0  0  0
    7.8114   53.0559   80.5671 N   0  0  0  0  0  0  0  0  0  0  0  0
    6.5810   53.2563   80.0355 C   0  0  0  0  0  0  0  0  0  0  0  0
    5.9877   54.3361   80.1326 O   0  0  0  0  0  0  0  0  0  0  0  0
    5.9378   52.1011   79.2646 C   0  0  0  0  0  0  0  0  0  0  0  0
    8.2318   53.8114   81.0380 H   0  0  0  0  0  0  0  0  0  0  0  0
    9.9478   52.0563   79.8796 C   0  0  0  0  0  0  0  0  0  0  0  0
    9.4031   52.4287   77.4117 C   0  0  0  0  0  0  0  0  0  0  0  0
    9.9517   51.4549   78.4735 C   0  0  0  0  0  0  0  0  0  0  0  0
    9.0700   50.2076   78.4781 C   0  0  0  0  0  0  0  0  0  0  0  0
   11.6463   49.8865   83.4940 C   0  0  0  0  0  0  0  0  0  0  0  0
   11.4204   48.7272   82.5070 C   0  0  0  0  0  0  0  0  0  0  0  0
   12.1707   49.3063   84.8276 C   0  0  0  0  0  0  0  0  0  0  0  0
   12.7502   50.8061   82.8923 C   0  0  0  0  0  0  0  0  0  0  0  0
 24 23  2  0  0  0
 24 25  1  0  0  0
 23 22  1  0  0  0
 26 25  1  0  0  0
 25 21  2  0  0  0
 22 21  1  0  0  0
 21 20  1  0  0  0
 20 19  2  0  0  0
 20 17  1  0  0  0
 19 18  1  0  0  0
 17 16  2  0  0  0
 18 15  2  0  0  0
 16 15  1  0  0  0
 15 14  1  0  0  0
 14 12  1  0  0  0
 12 10  1  0  0  0
 10 11  2  0  0  0
 10  8  1  0  0  0
  7  8  1  0  0  0
  7  5  1  0  0  0
  8  3  1  0  0  0
  5  6  1  0  0  0
  5  4  1  0  0  0
  3  4  1  0  0  0
  3  1  1  0  0  0
  2  1  2  0  0  0
  1 27  1  0  0  0
 44 42  1  0  0  0
 27 42  1  0  0  0
 27 30  1  0  0  0
 42 45  1  0  0  0
 42 43  1  0  0  0
 30 28  1  0  0  0
 29 28  2  0  0  0
 28 32  1  0  0  0
 38 32  1  0  0  0
 38 40  1  0  0  0
 32 33  1  0  0  0
 41 40  1  0  0  0
 40 39  1  0  0  0
 33 34  1  0  0  0
 36 34  1  0  0  0
 34 35  2  0  0  0
 33 37  1  0  0  0
 30 31  1  0  0  0
  6  9  1  0  0  0
 12 13  1  0  0  0
M  END
> <minimizedAffinity>
-6.64636

$$$$
4W9J_3JH_C_301


 45 47  0  0  0  0  0  0  0  0999 V2000
   11.6750   53.7972   91.5206 C   0  0  0  0  0  0  0  0  0  0  0  0
   10.4990   53.5383   91.3458 O   0  0  0  0  0  0  0  0  0  0  0  0
   12.5208   54.0869   90.5065 N   0  0  0  0  0  0  0  0  0  0  0  0
   13.9402   54.5071   90.5627 C   0  0  0  0  0  0  0  0  0  0  0  0
   14.1609   55.3054   89.2799 C   0  0  0  0  0  0  0  0  0  0  0  0
   13.7828   56.7029   89.4597 O   0  0  0  0  0  0  0  0  0  0  0  0
   13.2739   54.7164   88.2622 C   0  0  0  0  0  0  0  0  0  0  0  0
   12.0877   54.1189   89.0628 C   0  0  0  0  0  0  0  0  0  0  0  0
   12.8482   56.7549   89.7139 H   0  0  0  0  0  0  0  0  0  0  0  0
   11.7315   52.8430   88.5599 C   0  0  0  0  0  0  0  0  0  0  0  0
   12.0937   51.8349   89.1463 O   0  0  0  0  0  0  0  0  0  0  0  0
   10.9570   52.7925   87.4346 N   0  0  0  0  0  0  0  0  0  0  0  0
   10.6573   53.6309   87.0143 H   0  0  0  0  0  0  0  0  0  0  0  0
   10.5666   51.5114   86.8454 C   0  0  0  0  0  0  0  0  0  0  0  0
    9.4242   51.6987   86.0016 C   0  0  0  0  0  0  0  0  0  0  0  0
    8.9661   50.7469   85.0578 C   0  0  0  0  0  0  0  0  0  0  0  0
    7.8160   50.9842   84.2727 C   0  0  0  0  0  0  0  0  0  0  0  0
    8.7000   52.8848   86.1203 C   0  0  0  0  0  0  0  0  0  0  0  0
    7.5546   53.1242   85.3296 C   0  0  0  0  0  0  0  0  0  0  0  0
    7.0968   52.1772   84.3909 C   0  0  0  0  0  0  0  0  0  0  0  0
    6.0209   52.3867   83.6062 C   0  0  0  0  0  0  0  0  0  0  0  0
    4.3655   52.0522   84.0136 S   0  0  0  0  0  0  0  0  0  0  0  0
    3.7689   52.5404   82.5497 C   0  0  0  0  0  0  0  0  0  0  0  0
    4.7729   52.9275   81.7704 N   0  0  0  0  0  0  0  0  0  0  0  0
    6.0028   52.8448   82.3330 C   0  0  0  0  0  0  0  0  0  0  0  0
    7.2298   53.2773   81.5086 C   0  0  0  0  0  0  0  0  0  0  0  0
   12.2277   53.7843   92.9511 C   0  0  0  0  0  0  0  0  0  0  0  0
   11.1656   55.5161   94.3149 C   0  0  0  0  0  0  0  0  0  0  0  0
   11.9610   56.3882   93.9781 O   0  0  0  0  0  0  0  0  0  0  0  0
   11.2001   54.2677   93.8617 N   0  0  0  0  0  0  0  0  0  0  0  0
   10.4993   53.6415   94.1548 H   0  0  0  0  0  0  0  0  0  0  0  0
   10.0593   55.7874   95.3615 C   0  0  0  0  0  0  0  0  0  0  0  0
    8.7870   56.0135   94.6545 N   0  0  0  0  0  0  0  0  0  0  0  0
    7.8997   56.9956   94.9460 C   0  0  0  0  0  0  0  0  0  0  0  0
    6.8481   57.1442   94.3142 O   0  0  0  0  0  0  0  0  0  0  0  0
    8.2172   57.9201   96.1238 C   0  0  0  0  0  0  0  0  0  0  0  0
    8.5641   55.4048   93.9136 H   0  0  0  0  0  0  0  0  0  0  0  0
    9.9114   54.5994   96.3194 C   0  0  0  0  0  0  0  0  0  0  0  0
   11.4275   53.3539   97.9553 C   0  0  0  0  0  0  0  0  0  0  0  0
   11.0044   54.7211   97.3822 C   0  0  0  0  0  0  0  0  0  0  0  0
   10.4701   55.5752   98.5303 C   0  0  0  0  0  0  0  0  0  0  0  0
   12.6551   52.3725   93.4442 C   0  0  0  0  0  0  0  0  0  0  0  0
   13.4923   52.5449   94.7242 C   0  0  0  0  0  0  0  0  0  0  0  0
   13.5111   51.6367   92.3879 C   0  0  0  0  0  0  0  0  0  0  0  0
   11.4351   51.4716   93.7998 C   0  0  0  0  0  0  0  0  0  0  0  0
 24 23  2  0  0  0
 24 25  1  0  0  0
 23 22  1  0  0  0
 26 25  1  0  0  0
 25 21  2  0  0  0
 22 21  1  0  0  0
 21 20  1  0  0  0
 20 19  2  0  0  0
 20 17  1  0  0  0
 19 18  1  0  0  0
 17 16  2  0  0  0
 18 15  2  0  0  0
 16 15  1  0  0  0
 15 14  1  0  0  0
 14 12  1  0  0  0
 12 10  1  0  0  0
 10 11  2  0  0  0
 10  8  1  0  0  0
  7  8  1  0  0  0
  7  5  1  0  0  0
  8  3  1  0  0  0
  5  6  1  0  0  0
  5  4  1  0  0  0
  3  4  1  0  0  0
  3  1  1  0  0  0
  2  1  2  0  0  0
  1 27  1  0  0  0
 44 42  1  0  0  0
 27 42  1  0  0  0
 27 30  1  0  0  0
 42 45  1  0  0  0
 42 43  1  0  0  0
 30 28  1  0  0  0
 29 28  2  0  0  0
 28 32  1  0  0  0
 38 32  1  0  0  0
 38 40  1  0  0  0
 32 33  1  0  0  0
 41 40  1  0  0  0
 40 39  1  0  0  0
 33 34  1  0  0  0
 36 34  1  0  0  0
 34 35  2  0  0  0
 33 37  1  0  0  0
 30 31  1  0  0  0
  6  9  1  0  0  0
 12 13  1  0  0  0
M  END
> <minimizedAffinity>
-6.57643

$$$$
4W9J_3JH_C_301


 45 47  0  0  0  0  0  0  0  0999 V2000
    8.8418   51.4287   88.3653 C   0  0  0  0  0  0  0  0  0  0  0  0
    9.7653   51.5227   87.5787 O   0  0  0  0  0  0  0  0  0  0  0  0
    7.9556   50.4081   88.3374 N   0  0  0  0  0  0  0  0  0  0  0  0
    6.8453   50.1067   89.2707 C   0  0  0  0  0  0  0  0  0  0  0  0
    6.6489   48.5961   89.1672 C   0  0  0  0  0  0  0  0  0  0  0  0
    7.5471   47.8868   90.0718 O   0  0  0  0  0  0  0  0  0  0  0  0
    6.9978   48.2220   87.7860 C   0  0  0  0  0  0  0  0  0  0  0  0
    8.0280   49.2881   87.3308 C   0  0  0  0  0  0  0  0  0  0  0  0
    8.4662   48.1071   89.8535 H   0  0  0  0  0  0  0  0  0  0  0  0
    7.7623   49.7126   86.0053 C   0  0  0  0  0  0  0  0  0  0  0  0
    6.6106   49.9034   85.6467 O   0  0  0  0  0  0  0  0  0  0  0  0
    8.8280   49.9243   85.1759 N   0  0  0  0  0  0  0  0  0  0  0  0
    9.7419   49.7928   85.5175 H   0  0  0  0  0  0  0  0  0  0  0  0
    8.6310   50.3436   83.7879 C   0  0  0  0  0  0  0  0  0  0  0  0
    9.9006   50.6188   83.1842 C   0  0  0  0  0  0  0  0  0  0  0  0
   11.1398   50.1508   83.6861 C   0  0  0  0  0  0  0  0  0  0  0  0
   12.3559   50.4383   83.0276 C   0  0  0  0  0  0  0  0  0  0  0  0
    9.9279   51.3828   82.0175 C   0  0  0  0  0  0  0  0  0  0  0  0
   11.1451   51.6758   81.3640 C   0  0  0  0  0  0  0  0  0  0  0  0
   12.3789   51.2096   81.8618 C   0  0  0  0  0  0  0  0  0  0  0  0
   13.5584   51.4919   81.2733 C   0  0  0  0  0  0  0  0  0  0  0  0
   14.1714   50.7962   79.8040 S   0  0  0  0  0  0  0  0  0  0  0  0
   15.6001   51.6293   79.8506 C   0  0  0  0  0  0  0  0  0  0  0  0
   15.6307   52.3935   80.9370 N   0  0  0  0  0  0  0  0  0  0  0  0
   14.5273   52.3242   81.7203 C   0  0  0  0  0  0  0  0  0  0  0  0
   14.4671   53.1793   82.9999 C   0  0  0  0  0  0  0  0  0  0  0  0
    8.6657   52.5194   89.4289 C   0  0  0  0  0  0  0  0  0  0  0  0
   10.4753   52.6705   91.0688 C   0  0  0  0  0  0  0  0  0  0  0  0
    9.9035   51.9606   91.8909 O   0  0  0  0  0  0  0  0  0  0  0  0
    9.9779   52.9661   89.8729 N   0  0  0  0  0  0  0  0  0  0  0  0
   10.5213   53.5118   89.2595 H   0  0  0  0  0  0  0  0  0  0  0  0
   11.8334   53.3416   91.3816 C   0  0  0  0  0  0  0  0  0  0  0  0
   12.9092   52.3664   91.1335 N   0  0  0  0  0  0  0  0  0  0  0  0
   13.5407   51.6452   92.0915 C   0  0  0  0  0  0  0  0  0  0  0  0
   14.4340   50.8338   91.8257 O   0  0  0  0  0  0  0  0  0  0  0  0
   13.1392   51.8851   93.5489 C   0  0  0  0  0  0  0  0  0  0  0  0
   13.1910   52.2280   90.2004 H   0  0  0  0  0  0  0  0  0  0  0  0
   12.0468   54.5781   90.5006 C   0  0  0  0  0  0  0  0  0  0  0  0
   14.3559   55.3616   89.7388 C   0  0  0  0  0  0  0  0  0  0  0  0
   13.2467   54.3007   89.5940 C   0  0  0  0  0  0  0  0  0  0  0  0
   12.7685   54.3053   88.1433 C   0  0  0  0  0  0  0  0  0  0  0  0
    7.8990   53.7729   88.9188 C   0  0  0  0  0  0  0  0  0  0  0  0
    8.9194   54.9053   88.7060 C   0  0  0  0  0  0  0  0  0  0  0  0
    6.8399   54.2462   89.9408 C   0  0  0  0  0  0  0  0  0  0  0  0
    7.1868   53.5215   87.5565 C   0  0  0  0  0  0  0  0  0  0  0  0
 24 23  2  0  0  0
 24 25  1  0  0  0
 23 22  1  0  0  0
 26 25  1  0  0  0
 25 21  2  0  0  0
 22 21  1  0  0  0
 21 20  1  0  0  0
 20 19  2  0  0  0
 20 17  1  0  0  0
 19 18  1  0  0  0
 17 16  2  0  0  0
 18 15  2  0  0  0
 16 15  1  0  0  0
 15 14  1  0  0  0
 14 12  1  0  0  0
 12 10  1  0  0  0
 10 11  2  0  0  0
 10  8  1  0  0  0
  7  8  1  0  0  0
  7  5  1  0  0  0
  8  3  1  0  0  0
  5  6  1  0  0  0
  5  4  1  0  0  0
  3  4  1  0  0  0
  3  1  1  0  0  0
  2  1  2  0  0  0
  1 27  1  0  0  0
 44 42  1  0  0  0
 27 42  1  0  0  0
 27 30  1  0  0  0
 42 45  1  0  0  0
 42 43  1  0  0  0
 30 28  1  0  0  0
 29 28  2  0  0  0
 28 32  1  0  0  0
 38 32  1  0  0  0
 38 40  1  0  0  0
 32 33  1  0  0  0
 41 40  1  0  0  0
 40 39  1  0  0  0
 33 34  1  0  0  0
 36 34  1  0  0  0
 34 35  2  0  0  0
 33 37  1  0  0  0
 30 31  1  0  0  0
  6  9  1  0  0  0
 12 13  1  0  0  0
M  END
> <minimizedAffinity>
-6.47616

$$$$
4W9J_3JH_C_301


 45 47  0  0  0  0  0  0  0  0999 V2000
    9.8684   52.7916   89.9222 C   0  0  0  0  0  0  0  0  0  0  0  0
    9.9837   51.8300   90.6587 O   0  0  0  0  0  0  0  0  0  0  0  0
    9.0548   52.7950   88.8426 N   0  0  0  0  0  0  0  0  0  0  0  0
    8.7391   53.9036   87.9119 C   0  0  0  0  0  0  0  0  0  0  0  0
    7.3546   53.5683   87.3624 C   0  0  0  0  0  0  0  0  0  0  0  0
    6.3049   54.0654   88.2452 O   0  0  0  0  0  0  0  0  0  0  0  0
    7.2643   52.0987   87.3227 C   0  0  0  0  0  0  0  0  0  0  0  0
    8.2110   51.6091   88.4492 C   0  0  0  0  0  0  0  0  0  0  0  0
    6.4067   53.6681   89.1242 H   0  0  0  0  0  0  0  0  0  0  0  0
    8.9780   50.4991   88.0166 C   0  0  0  0  0  0  0  0  0  0  0  0
    9.0810   49.5146   88.7319 O   0  0  0  0  0  0  0  0  0  0  0  0
    9.5572   50.5648   86.7801 N   0  0  0  0  0  0  0  0  0  0  0  0
    9.4184   51.3635   86.2216 H   0  0  0  0  0  0  0  0  0  0  0  0
   10.3803   49.4659   86.2742 C   0  0  0  0  0  0  0  0  0  0  0  0
   11.1400   49.9146   85.1456 C   0  0  0  0  0  0  0  0  0  0  0  0
   11.8731   49.0587   84.2874 C   0  0  0  0  0  0  0  0  0  0  0  0
   12.5825   49.5640   83.1753 C   0  0  0  0  0  0  0  0  0  0  0  0
   11.1524   51.2788   84.8551 C   0  0  0  0  0  0  0  0  0  0  0  0
   11.8680   51.7838   83.7473 C   0  0  0  0  0  0  0  0  0  0  0  0
   12.5969   50.9329   82.8916 C   0  0  0  0  0  0  0  0  0  0  0  0
   13.3079   51.3877   81.8405 C   0  0  0  0  0  0  0  0  0  0  0  0
   13.2073   50.8180   80.2023 S   0  0  0  0  0  0  0  0  0  0  0  0
   14.3818   51.8368   79.6368 C   0  0  0  0  0  0  0  0  0  0  0  0
   14.8499   52.5714   80.6400 N   0  0  0  0  0  0  0  0  0  0  0  0
   14.2759   52.3333   81.8441 C   0  0  0  0  0  0  0  0  0  0  0  0
   14.7484   53.1409   83.0674 C   0  0  0  0  0  0  0  0  0  0  0  0
   10.6888   54.0521   90.2221 C   0  0  0  0  0  0  0  0  0  0  0  0
    9.8427   54.4421   92.4846 C   0  0  0  0  0  0  0  0  0  0  0  0
    8.6760   54.5545   92.1201 O   0  0  0  0  0  0  0  0  0  0  0  0
   10.8531   54.1803   91.6626 N   0  0  0  0  0  0  0  0  0  0  0  0
   11.7533   54.0680   92.0450 H   0  0  0  0  0  0  0  0  0  0  0  0
   10.2554   54.6524   93.9605 C   0  0  0  0  0  0  0  0  0  0  0  0
    9.4168   55.7173   94.5372 N   0  0  0  0  0  0  0  0  0  0  0  0
    9.8467   56.9658   94.8422 C   0  0  0  0  0  0  0  0  0  0  0  0
    9.0964   57.8243   95.3189 O   0  0  0  0  0  0  0  0  0  0  0  0
   11.3243   57.2904   94.6099 C   0  0  0  0  0  0  0  0  0  0  0  0
    8.4718   55.5058   94.7147 H   0  0  0  0  0  0  0  0  0  0  0  0
   10.0740   53.3612   94.7671 C   0  0  0  0  0  0  0  0  0  0  0  0
   11.3829   53.9290   96.8862 C   0  0  0  0  0  0  0  0  0  0  0  0
   11.3562   53.1300   95.5680 C   0  0  0  0  0  0  0  0  0  0  0  0
   12.5448   53.5732   94.7171 C   0  0  0  0  0  0  0  0  0  0  0  0
   12.1116   54.0369   89.5941 C   0  0  0  0  0  0  0  0  0  0  0  0
   12.5132   55.4895   89.2816 C   0  0  0  0  0  0  0  0  0  0  0  0
   12.1450   53.2206   88.2817 C   0  0  0  0  0  0  0  0  0  0  0  0
   13.1831   53.4522   90.5619 C   0  0  0  0  0  0  0  0  0  0  0  0
 24 23  2  0  0  0
 24 25  1  0  0  0
 23 22  1  0  0  0
 26 25  1  0  0  0
 25 21  2  0  0  0
 22 21  1  0  0  0
 21 20  1  0  0  0
 20 19  2  0  0  0
 20 17  1  0  0  0
 19 18  1  0  0  0
 17 16  2  0  0  0
 18 15  2  0  0  0
 16 15  1  0  0  0
 15 14  1  0  0  0
 14 12  1  0  0  0
 12 10  1  0  0  0
 10 11  2  0  0  0
 10  8  1  0  0  0
  7  8  1  0  0  0
  7  5  1  0  0  0
  8  3  1  0  0  0
  5  6  1  0  0  0
  5  4  1  0  0  0
  3  4  1  0  0  0
  3  1  1  0  0  0
  2  1  2  0  0  0
  1 27  1  0  0  0
 44 42  1  0  0  0
 27 42  1  0  0  0
 27 30  1  0  0  0
 42 45  1  0  0  0
 42 43  1  0  0  0
 30 28  1  0  0  0
 29 28  2  0  0  0
 28 32  1  0  0  0
 38 32  1  0  0  0
 38 40  1  0  0  0
 32 33  1  0  0  0
 41 40  1  0  0  0
 40 39  1  0  0  0
 33 34  1  0  0  0
 36 34  1  0  0  0
 34 35  2  0  0  0
 33 37  1  0  0  0
 30 31  1  0  0  0
  6  9  1  0  0  0
 12 13  1  0  0  0
M  END
> <minimizedAffinity>
-6.46359

$$$$
4W9J_3JH_C_301


 45 47  0  0  0  0  0  0  0  0999 V2000
   11.4912   52.6491   89.4464 C   0  0  0  0  0  0  0  0  0  0  0  0
   11.9305   51.6172   89.9183 O   0  0  0  0  0  0  0  0  0  0  0  0
   12.0751   53.8524   89.6431 N   0  0  0  0  0  0  0  0  0  0  0  0
   11.7189   55.1707   89.0689 C   0  0  0  0  0  0  0  0  0  0  0  0
   13.0232   55.9646   89.0781 C   0  0  0  0  0  0  0  0  0  0  0  0
   13.8075   55.6995   87.8770 O   0  0  0  0  0  0  0  0  0  0  0  0
   13.7921   55.4935   90.2427 C   0  0  0  0  0  0  0  0  0  0  0  0
   13.3271   54.0306   90.4639 C   0  0  0  0  0  0  0  0  0  0  0  0
   14.0084   54.7519   87.8246 H   0  0  0  0  0  0  0  0  0  0  0  0
   13.1316   53.7665   91.8422 C   0  0  0  0  0  0  0  0  0  0  0  0
   13.4646   52.6879   92.3084 O   0  0  0  0  0  0  0  0  0  0  0  0
   12.5961   54.7595   92.6141 N   0  0  0  0  0  0  0  0  0  0  0  0
   12.3753   55.6267   92.2037 H   0  0  0  0  0  0  0  0  0  0  0  0
   12.3462   54.5530   94.0409 C   0  0  0  0  0  0  0  0  0  0  0  0
   11.1259   55.2040   94.4142 C   0  0  0  0  0  0  0  0  0  0  0  0
   11.0607   56.4317   95.1177 C   0  0  0  0  0  0  0  0  0  0  0  0
    9.8224   57.0334   95.4339 C   0  0  0  0  0  0  0  0  0  0  0  0
    9.9185   54.6065   94.0525 C   0  0  0  0  0  0  0  0  0  0  0  0
    8.6810   55.2052   94.3756 C   0  0  0  0  0  0  0  0  0  0  0  0
    8.6147   56.4278   95.0746 C   0  0  0  0  0  0  0  0  0  0  0  0
    7.4491   57.0118   95.4171 C   0  0  0  0  0  0  0  0  0  0  0  0
    6.9425   58.6227   95.0084 S   0  0  0  0  0  0  0  0  0  0  0  0
    5.5050   58.5181   95.8208 C   0  0  0  0  0  0  0  0  0  0  0  0
    5.4080   57.3241   96.3953 N   0  0  0  0  0  0  0  0  0  0  0  0
    6.4611   56.4976   96.1858 C   0  0  0  0  0  0  0  0  0  0  0  0
    6.4375   55.0886   96.8072 C   0  0  0  0  0  0  0  0  0  0  0  0
   10.2135   52.5873   88.6005 C   0  0  0  0  0  0  0  0  0  0  0  0
   10.3753   52.1025   86.2076 C   0  0  0  0  0  0  0  0  0  0  0  0
   10.1771   53.2665   85.8722 O   0  0  0  0  0  0  0  0  0  0  0  0
   10.4343   51.6960   87.4710 N   0  0  0  0  0  0  0  0  0  0  0  0
   10.6363   50.7495   87.6515 H   0  0  0  0  0  0  0  0  0  0  0  0
   10.5252   50.9715   85.1630 C   0  0  0  0  0  0  0  0  0  0  0  0
   11.8141   51.1382   84.4696 N   0  0  0  0  0  0  0  0  0  0  0  0
   11.9687   51.6750   83.2348 C   0  0  0  0  0  0  0  0  0  0  0  0
   13.0771   51.7975   82.7022 O   0  0  0  0  0  0  0  0  0  0  0  0
   10.7094   52.1072   82.4797 C   0  0  0  0  0  0  0  0  0  0  0  0
   12.6252   50.8366   84.9390 H   0  0  0  0  0  0  0  0  0  0  0  0
   10.4784   49.5957   85.8380 C   0  0  0  0  0  0  0  0  0  0  0  0
   11.8260   47.7091   84.7653 C   0  0  0  0  0  0  0  0  0  0  0  0
   11.8563   48.9522   85.6765 C   0  0  0  0  0  0  0  0  0  0  0  0
   12.3539   48.5216   87.0550 C   0  0  0  0  0  0  0  0  0  0  0  0
    8.9751   52.0534   89.3753 C   0  0  0  0  0  0  0  0  0  0  0  0
    7.7134   52.6717   88.7471 C   0  0  0  0  0  0  0  0  0  0  0  0
    9.0273   52.4456   90.8698 C   0  0  0  0  0  0  0  0  0  0  0  0
    8.8356   50.5049   89.2800 C   0  0  0  0  0  0  0  0  0  0  0  0
 24 23  2  0  0  0
 24 25  1  0  0  0
 23 22  1  0  0  0
 26 25  1  0  0  0
 25 21  2  0  0  0
 22 21  1  0  0  0
 21 20  1  0  0  0
 20 19  2  0  0  0
 20 17  1  0  0  0
 19 18  1  0  0  0
 17 16  2  0  0  0
 18 15  2  0  0  0
 16 15  1  0  0  0
 15 14  1  0  0  0
 14 12  1  0  0  0
 12 10  1  0  0  0
 10 11  2  0  0  0
 10  8  1  0  0  0
  7  8  1  0  0  0
  7  5  1  0  0  0
  8  3  1  0  0  0
  5  6  1  0  0  0
  5  4  1  0  0  0
  3  4  1  0  0  0
  3  1  1  0  0  0
  2  1  2  0  0  0
  1 27  1  0  0  0
 44 42  1  0  0  0
 27 42  1  0  0  0
 27 30  1  0  0  0
 42 45  1  0  0  0
 42 43  1  0  0  0
 30 28  1  0  0  0
 29 28  2  0  0  0
 28 32  1  0  0  0
 38 32  1  0  0  0
 38 40  1  0  0  0
 32 33  1  0  0  0
 41 40  1  0  0  0
 40 39  1  0  0  0
 33 34  1  0  0  0
 36 34  1  0  0  0
 34 35  2  0  0  0
 33 37  1  0  0  0
 30 31  1  0  0  0
  6  9  1  0  0  0
 12 13  1  0  0  0
M  END
> <minimizedAffinity>
-6.39027

$$$$
4W9J_3JH_C_301


 45 47  0  0  0  0  0  0  0  0999 V2000
   11.1783   52.1091   91.6536 C   0  0  0  0  0  0  0  0  0  0  0  0
   11.1336   51.4584   92.6808 O   0  0  0  0  0  0  0  0  0  0  0  0
   11.1906   51.5424   90.4264 N   0  0  0  0  0  0  0  0  0  0  0  0
   11.1516   52.1913   89.0952 C   0  0  0  0  0  0  0  0  0  0  0  0
   10.5301   51.1469   88.1710 C   0  0  0  0  0  0  0  0  0  0  0  0
    9.0734   51.2182   88.2027 O   0  0  0  0  0  0  0  0  0  0  0  0
   10.9374   49.8309   88.6922 C   0  0  0  0  0  0  0  0  0  0  0  0
   11.1479   50.0505   90.2128 C   0  0  0  0  0  0  0  0  0  0  0  0
    8.7621   51.0709   89.1095 H   0  0  0  0  0  0  0  0  0  0  0  0
   12.3190   49.3903   90.6605 C   0  0  0  0  0  0  0  0  0  0  0  0
   13.3210   49.3881   89.9625 O   0  0  0  0  0  0  0  0  0  0  0  0
   12.2878   48.7975   91.8919 N   0  0  0  0  0  0  0  0  0  0  0  0
   11.4698   48.8544   92.4368 H   0  0  0  0  0  0  0  0  0  0  0  0
   13.4519   48.0798   92.4123 C   0  0  0  0  0  0  0  0  0  0  0  0
   13.9793   48.7779   93.5466 C   0  0  0  0  0  0  0  0  0  0  0  0
   14.3729   50.1385   93.5325 C   0  0  0  0  0  0  0  0  0  0  0  0
   14.8631   50.7746   94.6945 C   0  0  0  0  0  0  0  0  0  0  0  0
   14.1024   48.0866   94.7518 C   0  0  0  0  0  0  0  0  0  0  0  0
   14.5996   48.7214   95.9112 C   0  0  0  0  0  0  0  0  0  0  0  0
   14.9904   50.0759   95.8988 C   0  0  0  0  0  0  0  0  0  0  0  0
   15.4898   50.7027   96.9827 C   0  0  0  0  0  0  0  0  0  0  0  0
   17.1631   50.7974   97.4406 S   0  0  0  0  0  0  0  0  0  0  0  0
   16.8718   51.6551   98.8251 C   0  0  0  0  0  0  0  0  0  0  0  0
   15.5646   51.8539   98.9549 N   0  0  0  0  0  0  0  0  0  0  0  0
   14.8026   51.3371   97.9608 C   0  0  0  0  0  0  0  0  0  0  0  0
   13.2748   51.5219   98.0203 C   0  0  0  0  0  0  0  0  0  0  0  0
   11.2346   53.6385   91.7520 C   0  0  0  0  0  0  0  0  0  0  0  0
    9.3300   54.4312   93.0678 C   0  0  0  0  0  0  0  0  0  0  0  0
    8.5565   54.4147   92.1147 O   0  0  0  0  0  0  0  0  0  0  0  0
   10.6030   54.0582   92.9944 N   0  0  0  0  0  0  0  0  0  0  0  0
   11.1433   54.0659   93.8174 H   0  0  0  0  0  0  0  0  0  0  0  0
    8.8933   54.9497   94.4582 C   0  0  0  0  0  0  0  0  0  0  0  0
    8.4798   53.8002   95.2813 N   0  0  0  0  0  0  0  0  0  0  0  0
    7.3575   53.7506   96.0393 C   0  0  0  0  0  0  0  0  0  0  0  0
    7.0548   52.7555   96.7066 O   0  0  0  0  0  0  0  0  0  0  0  0
    6.4663   54.9944   96.0802 C   0  0  0  0  0  0  0  0  0  0  0  0
    9.0634   53.0073   95.2808 H   0  0  0  0  0  0  0  0  0  0  0  0
   10.0435   55.6906   95.1501 C   0  0  0  0  0  0  0  0  0  0  0  0
   11.2748   57.8781   94.6760 C   0  0  0  0  0  0  0  0  0  0  0  0
    9.9091   57.1759   94.8119 C   0  0  0  0  0  0  0  0  0  0  0  0
    9.1307   57.8594   95.9345 C   0  0  0  0  0  0  0  0  0  0  0  0
   12.6800   54.2129   91.7514 C   0  0  0  0  0  0  0  0  0  0  0  0
   12.9365   54.8670   93.1209 C   0  0  0  0  0  0  0  0  0  0  0  0
   12.8666   55.2812   90.6497 C   0  0  0  0  0  0  0  0  0  0  0  0
   13.7594   53.1081   91.5500 C   0  0  0  0  0  0  0  0  0  0  0  0
 24 23  2  0  0  0
 24 25  1  0  0  0
 23 22  1  0  0  0
 26 25  1  0  0  0
 25 21  2  0  0  0
 22 21  1  0  0  0
 21 20  1  0  0  0
 20 19  2  0  0  0
 20 17  1  0  0  0
 19 18  1  0  0  0
 17 16  2  0  0  0
 18 15  2  0  0  0
 16 15  1  0  0  0
 15 14  1  0  0  0
 14 12  1  0  0  0
 12 10  1  0  0  0
 10 11  2  0  0  0
 10  8  1  0  0  0
  7  8  1  0  0  0
  7  5  1  0  0  0
  8  3  1  0  0  0
  5  6  1  0  0  0
  5  4  1  0  0  0
  3  4  1  0  0  0
  3  1  1  0  0  0
  2  1  2  0  0  0
  1 27  1  0  0  0
 44 42  1  0  0  0
 27 42  1  0  0  0
 27 30  1  0  0  0
 42 45  1  0  0  0
 42 43  1  0  0  0
 30 28  1  0  0  0
 29 28  2  0  0  0
 28 32  1  0  0  0
 38 32  1  0  0  0
 38 40  1  0  0  0
 32 33  1  0  0  0
 41 40  1  0  0  0
 40 39  1  0  0  0
 33 34  1  0  0  0
 36 34  1  0  0  0
 34 35  2  0  0  0
 33 37  1  0  0  0
 30 31  1  0  0  0
  6  9  1  0  0  0
 12 13  1  0  0  0
M  END
> <minimizedAffinity>
-6.31452

$$$$
