4KWO_1UD_A_401


 35 38  0  0  0  0  0  0  0  0999 V2000
  102.1473   16.4213   22.0982 C   0  0  0  0  0  0  0  0  0  0  0  0
  103.1469   16.7872   21.1924 C   0  0  0  0  0  0  0  0  0  0  0  0
  102.7849   16.7557   19.8500 C   0  0  0  0  0  0  0  0  0  0  0  0
  101.5282   16.3863   19.3995 C   0  0  0  0  0  0  0  0  0  0  0  0
  100.5238   15.9966   20.3143 C   0  0  0  0  0  0  0  0  0  0  0  0
  100.8581   16.0292   21.6920 C   0  0  0  0  0  0  0  0  0  0  0  0
   99.8887   15.6578   22.6448 N   0  0  0  0  0  0  0  0  0  0  0  0
  100.1835   15.7240   23.9092 C   0  0  0  0  0  0  0  0  0  0  0  0
   99.2846   15.3875   24.8579 N   0  0  0  0  0  0  0  0  0  0  0  0
  101.4108   16.1209   24.3590 N   0  0  0  0  0  0  0  0  0  0  0  0
  102.4470   16.4751   23.5395 C   0  0  0  0  0  0  0  0  0  0  0  0
  103.5452   16.8255   23.9787 O   0  0  0  0  0  0  0  0  0  0  0  0
  103.4851   17.0498   18.7101 N   0  0  0  0  0  0  0  0  0  0  0  0
  101.4660   16.4713   18.0291 N   0  0  0  0  0  0  0  0  0  0  0  0
  102.6544   16.8653   17.6353 C   0  0  0  0  0  0  0  0  0  0  0  0
   98.3818   15.0929   24.5982 H   0  0  0  0  0  0  0  0  0  0  0  0
   99.5317   15.4365   25.8096 H   0  0  0  0  0  0  0  0  0  0  0  0
  101.5584   16.1540   25.3318 H   0  0  0  0  0  0  0  0  0  0  0  0
  104.4239   17.3433   18.6695 H   0  0  0  0  0  0  0  0  0  0  0  0
  103.0788   17.0890   16.3787 N   0  0  0  0  0  0  0  0  0  0  0  0
  102.1148   17.4622   15.3637 C   0  0  0  0  0  0  0  0  0  0  0  0
  104.0327   17.0003   16.1516 H   0  0  0  0  0  0  0  0  0  0  0  0
   99.1427   15.6356   19.8229 C   0  0  0  0  0  0  0  0  0  0  0  0
   98.8852   14.1589   19.5651 C   0  0  0  0  0  0  0  0  0  0  0  0
   95.5236   14.1117   18.2343 C   0  0  0  0  0  0  0  0  0  0  0  0
   96.5398   13.8592   19.2061 O   0  0  0  0  0  0  0  0  0  0  0  0
   97.7798   14.0350   18.5191 C   0  0  0  0  0  0  0  0  0  0  0  0
   97.5819   15.2358   17.6067 C   0  0  0  0  0  0  0  0  0  0  0  0
   96.0795   15.1976   17.3180 C   0  0  0  0  0  0  0  0  0  0  0  0
   95.8584   14.8104   15.9621 O   0  0  0  0  0  0  0  0  0  0  0  0
   96.2700   13.9470   15.8012 H   0  0  0  0  0  0  0  0  0  0  0  0
   94.3680   14.5763   18.9239 O   0  0  0  0  0  0  0  0  0  0  0  0
   93.3627   13.5738   19.0168 C   0  0  0  0  0  0  0  0  0  0  0  0
   98.3628   14.9958   16.4379 O   0  0  0  0  0  0  0  0  0  0  0  0
   98.8068   16.1638   15.7553 C   0  0  0  0  0  0  0  0  0  0  0  0
 21 20  1  0  0  0
 33 32  1  0  0  0
 32 25  1  0  0  0
 20 15  1  0  0  0
 25 29  1  0  0  0
 25 26  1  0  0  0
 29 30  1  0  0  0
 29 28  1  0  0  0
 15 14  2  0  0  0
 15 13  1  0  0  0
 26 27  1  0  0  0
 14  4  1  0  0  0
 28 27  1  0  0  0
 28 34  1  0  0  0
 13  3  1  0  0  0
 27 24  1  0  0  0
 24 23  1  0  0  0
  4  3  2  0  0  0
  4  5  1  0  0  0
 34 35  1  0  0  0
 23  5  1  0  0  0
  3  2  1  0  0  0
  5  6  2  0  0  0
  2  1  2  0  0  0
  6  1  1  0  0  0
  6  7  1  0  0  0
  1 11  1  0  0  0
  7  8  2  0  0  0
 11 12  2  0  0  0
 11 10  1  0  0  0
  8 10  1  0  0  0
  8  9  1  0  0  0
  9 16  1  0  0  0
  9 17  1  0  0  0
 10 18  1  0  0  0
 13 19  1  0  0  0
 20 22  1  0  0  0
 30 31  1  0  0  0
M  END
> <minimizedAffinity>
-10.22847

$$$$
4KWO_1UD_A_401


 35 38  0  0  0  0  0  0  0  0999 V2000
  102.1380   16.3931   22.0566 C   0  0  0  0  0  0  0  0  0  0  0  0
  103.1353   16.7418   21.1414 C   0  0  0  0  0  0  0  0  0  0  0  0
  102.7556   16.7329   19.8036 C   0  0  0  0  0  0  0  0  0  0  0  0
  101.4840   16.4008   19.3659 C   0  0  0  0  0  0  0  0  0  0  0  0
  100.4815   16.0284   20.2899 C   0  0  0  0  0  0  0  0  0  0  0  0
  100.8339   16.0387   21.6634 C   0  0  0  0  0  0  0  0  0  0  0  0
   99.8673   15.6833   22.6251 N   0  0  0  0  0  0  0  0  0  0  0  0
  100.1799   15.7293   23.8861 C   0  0  0  0  0  0  0  0  0  0  0  0
   99.2846   15.4069   24.8431 N   0  0  0  0  0  0  0  0  0  0  0  0
  101.4227   16.0897   24.3238 N   0  0  0  0  0  0  0  0  0  0  0  0
  102.4573   16.4249   23.4943 C   0  0  0  0  0  0  0  0  0  0  0  0
  103.5698   16.7423   23.9226 O   0  0  0  0  0  0  0  0  0  0  0  0
  103.4487   17.0200   18.6575 N   0  0  0  0  0  0  0  0  0  0  0  0
  101.4066   16.5010   17.9973 N   0  0  0  0  0  0  0  0  0  0  0  0
  102.5998   16.8678   17.5919 C   0  0  0  0  0  0  0  0  0  0  0  0
   98.3712   15.1385   24.5924 H   0  0  0  0  0  0  0  0  0  0  0  0
   99.5449   15.4402   25.7920 H   0  0  0  0  0  0  0  0  0  0  0  0
  101.5834   16.1093   25.2949 H   0  0  0  0  0  0  0  0  0  0  0  0
  104.3943   17.2893   18.6076 H   0  0  0  0  0  0  0  0  0  0  0  0
  103.0140   17.0927   16.3321 N   0  0  0  0  0  0  0  0  0  0  0  0
  102.0442   17.4829   15.3291 C   0  0  0  0  0  0  0  0  0  0  0  0
  103.9643   16.9935   16.0947 H   0  0  0  0  0  0  0  0  0  0  0  0
   99.0853   15.7082   19.8129 C   0  0  0  0  0  0  0  0  0  0  0  0
   98.8695   14.3103   19.2538 C   0  0  0  0  0  0  0  0  0  0  0  0
   96.4385   14.6010   16.5931 C   0  0  0  0  0  0  0  0  0  0  0  0
   97.5980   14.9735   17.3399 O   0  0  0  0  0  0  0  0  0  0  0  0
   97.5019   14.2649   18.5765 C   0  0  0  0  0  0  0  0  0  0  0  0
   96.9738   12.8830   18.2227 C   0  0  0  0  0  0  0  0  0  0  0  0
   96.1524   13.1477   16.9590 C   0  0  0  0  0  0  0  0  0  0  0  0
   94.7617   13.0140   17.2506 O   0  0  0  0  0  0  0  0  0  0  0  0
   94.5202   13.6270   17.9626 H   0  0  0  0  0  0  0  0  0  0  0  0
   96.7550   14.7203   15.2102 O   0  0  0  0  0  0  0  0  0  0  0  0
   96.6634   13.4728   14.5321 C   0  0  0  0  0  0  0  0  0  0  0  0
   96.1616   12.4620   19.3167 O   0  0  0  0  0  0  0  0  0  0  0  0
   96.3783   11.1240   19.7525 C   0  0  0  0  0  0  0  0  0  0  0  0
 21 20  1  0  0  0
 33 32  1  0  0  0
 32 25  1  0  0  0
 20 15  1  0  0  0
 25 29  1  0  0  0
 25 26  1  0  0  0
 29 30  1  0  0  0
 29 28  1  0  0  0
 15 14  2  0  0  0
 15 13  1  0  0  0
 26 27  1  0  0  0
 14  4  1  0  0  0
 28 27  1  0  0  0
 28 34  1  0  0  0
 13  3  1  0  0  0
 27 24  1  0  0  0
 24 23  1  0  0  0
  4  3  2  0  0  0
  4  5  1  0  0  0
 34 35  1  0  0  0
 23  5  1  0  0  0
  3  2  1  0  0  0
  5  6  2  0  0  0
  2  1  2  0  0  0
  6  1  1  0  0  0
  6  7  1  0  0  0
  1 11  1  0  0  0
  7  8  2  0  0  0
 11 12  2  0  0  0
 11 10  1  0  0  0
  8 10  1  0  0  0
  8  9  1  0  0  0
  9 16  1  0  0  0
  9 17  1  0  0  0
 10 18  1  0  0  0
 13 19  1  0  0  0
 20 22  1  0  0  0
 30 31  1  0  0  0
M  END
> <minimizedAffinity>
-10.13439

$$$$
4KWO_1UD_A_401


 35 38  0  0  0  0  0  0  0  0999 V2000
  102.1310   16.5270   19.8587 C   0  0  0  0  0  0  0  0  0  0  0  0
  102.9123   16.8789   18.7544 C   0  0  0  0  0  0  0  0  0  0  0  0
  102.2447   16.9310   17.5356 C   0  0  0  0  0  0  0  0  0  0  0  0
  100.8960   16.6539   17.3835 C   0  0  0  0  0  0  0  0  0  0  0  0
  100.1106   16.2782   18.4968 C   0  0  0  0  0  0  0  0  0  0  0  0
  100.7597   16.2271   19.7566 C   0  0  0  0  0  0  0  0  0  0  0  0
  100.0183   15.8658   20.8991 N   0  0  0  0  0  0  0  0  0  0  0  0
  100.6048   15.8557   22.0593 C   0  0  0  0  0  0  0  0  0  0  0  0
   99.9332   15.5255   23.1822 N   0  0  0  0  0  0  0  0  0  0  0  0
  101.9265   16.1619   22.2185 N   0  0  0  0  0  0  0  0  0  0  0  0
  102.7628   16.4960   21.1890 C   0  0  0  0  0  0  0  0  0  0  0  0
  103.9538   16.7636   21.3670 O   0  0  0  0  0  0  0  0  0  0  0  0
  102.6760   17.2390   16.2725 N   0  0  0  0  0  0  0  0  0  0  0  0
  100.5202   16.8068   16.0703 N   0  0  0  0  0  0  0  0  0  0  0  0
  101.6064   17.1520   15.4195 C   0  0  0  0  0  0  0  0  0  0  0  0
   98.9774   15.2944   23.1341 H   0  0  0  0  0  0  0  0  0  0  0  0
  100.3989   15.5158   24.0495 H   0  0  0  0  0  0  0  0  0  0  0  0
  102.2997   16.1408   23.1293 H   0  0  0  0  0  0  0  0  0  0  0  0
  103.5964   17.4813   16.0205 H   0  0  0  0  0  0  0  0  0  0  0  0
  101.7384   17.4107   14.1062 N   0  0  0  0  0  0  0  0  0  0  0  0
  100.6975   18.1528   13.4246 C   0  0  0  0  0  0  0  0  0  0  0  0
  102.5325   17.0996   13.6143 H   0  0  0  0  0  0  0  0  0  0  0  0
   98.6323   16.0183   18.3347 C   0  0  0  0  0  0  0  0  0  0  0  0
   98.2297   14.5799   18.0478 C   0  0  0  0  0  0  0  0  0  0  0  0
   94.6275   14.6966   17.7575 C   0  0  0  0  0  0  0  0  0  0  0  0
   95.8715   14.3261   18.3543 O   0  0  0  0  0  0  0  0  0  0  0  0
   96.8656   14.5860   17.3620 C   0  0  0  0  0  0  0  0  0  0  0  0
   96.4554   15.8904   16.6956 C   0  0  0  0  0  0  0  0  0  0  0  0
   94.9333   15.8877   16.8544 C   0  0  0  0  0  0  0  0  0  0  0  0
   94.3162   15.6711   15.5858 O   0  0  0  0  0  0  0  0  0  0  0  0
   94.6328   14.8344   15.2109 H   0  0  0  0  0  0  0  0  0  0  0  0
   93.7378   15.0719   18.8037 O   0  0  0  0  0  0  0  0  0  0  0  0
   93.3091   13.9508   19.5677 C   0  0  0  0  0  0  0  0  0  0  0  0
   96.8563   15.7971   15.3303 O   0  0  0  0  0  0  0  0  0  0  0  0
   97.2790   17.0209   14.7379 C   0  0  0  0  0  0  0  0  0  0  0  0
 21 20  1  0  0  0
 33 32  1  0  0  0
 32 25  1  0  0  0
 20 15  1  0  0  0
 25 29  1  0  0  0
 25 26  1  0  0  0
 29 30  1  0  0  0
 29 28  1  0  0  0
 15 14  2  0  0  0
 15 13  1  0  0  0
 26 27  1  0  0  0
 14  4  1  0  0  0
 28 27  1  0  0  0
 28 34  1  0  0  0
 13  3  1  0  0  0
 27 24  1  0  0  0
 24 23  1  0  0  0
  4  3  2  0  0  0
  4  5  1  0  0  0
 34 35  1  0  0  0
 23  5  1  0  0  0
  3  2  1  0  0  0
  5  6  2  0  0  0
  2  1  2  0  0  0
  6  1  1  0  0  0
  6  7  1  0  0  0
  1 11  1  0  0  0
  7  8  2  0  0  0
 11 12  2  0  0  0
 11 10  1  0  0  0
  8 10  1  0  0  0
  8  9  1  0  0  0
  9 16  1  0  0  0
  9 17  1  0  0  0
 10 18  1  0  0  0
 13 19  1  0  0  0
 20 22  1  0  0  0
 30 31  1  0  0  0
M  END
> <minimizedAffinity>
-9.25365

$$$$
4KWO_1UD_A_401


 35 38  0  0  0  0  0  0  0  0999 V2000
  102.1950   16.5625   19.8678 C   0  0  0  0  0  0  0  0  0  0  0  0
  102.9406   16.9082   18.7372 C   0  0  0  0  0  0  0  0  0  0  0  0
  102.2407   16.9260   17.5358 C   0  0  0  0  0  0  0  0  0  0  0  0
  100.8939   16.6218   17.4242 C   0  0  0  0  0  0  0  0  0  0  0  0
  100.1448   16.2523   18.5644 C   0  0  0  0  0  0  0  0  0  0  0  0
  100.8274   16.2360   19.8073 C   0  0  0  0  0  0  0  0  0  0  0  0
  100.1228   15.8823   20.9752 N   0  0  0  0  0  0  0  0  0  0  0  0
  100.7394   15.9040   22.1195 C   0  0  0  0  0  0  0  0  0  0  0  0
  100.1035   15.5822   23.2655 N   0  0  0  0  0  0  0  0  0  0  0  0
  102.0590   16.2369   22.2383 N   0  0  0  0  0  0  0  0  0  0  0  0
  102.8617   16.5672   21.1813 C   0  0  0  0  0  0  0  0  0  0  0  0
  104.0518   16.8594   21.3231 O   0  0  0  0  0  0  0  0  0  0  0  0
  102.6331   17.2186   16.2564 N   0  0  0  0  0  0  0  0  0  0  0  0
  100.4812   16.7439   16.1189 N   0  0  0  0  0  0  0  0  0  0  0  0
  101.5435   17.0968   15.4336 C   0  0  0  0  0  0  0  0  0  0  0  0
   99.1513   15.3330   23.2467 H   0  0  0  0  0  0  0  0  0  0  0  0
  100.5918   15.5968   24.1202 H   0  0  0  0  0  0  0  0  0  0  0  0
  102.4561   16.2392   23.1392 H   0  0  0  0  0  0  0  0  0  0  0  0
  103.5419   17.4729   15.9760 H   0  0  0  0  0  0  0  0  0  0  0  0
  101.6364   17.3338   14.1129 N   0  0  0  0  0  0  0  0  0  0  0  0
  101.1044   16.3599   13.1816 C   0  0  0  0  0  0  0  0  0  0  0  0
  102.0606   18.1588   13.7832 H   0  0  0  0  0  0  0  0  0  0  0  0
   98.6678   15.9628   18.4460 C   0  0  0  0  0  0  0  0  0  0  0  0
   98.2672   14.4956   18.4546 C   0  0  0  0  0  0  0  0  0  0  0  0
   95.8479   14.4537   15.7678 C   0  0  0  0  0  0  0  0  0  0  0  0
   97.0014   14.9193   16.4702 O   0  0  0  0  0  0  0  0  0  0  0  0
   96.9032   14.3616   17.7816 C   0  0  0  0  0  0  0  0  0  0  0  0
   96.3850   12.9441   17.5917 C   0  0  0  0  0  0  0  0  0  0  0  0
   95.5684   13.0522   16.3020 C   0  0  0  0  0  0  0  0  0  0  0  0
   94.1770   12.9451   16.6015 O   0  0  0  0  0  0  0  0  0  0  0  0
   93.9284   13.6365   17.2348 H   0  0  0  0  0  0  0  0  0  0  0  0
   96.1705   14.4104   14.3819 O   0  0  0  0  0  0  0  0  0  0  0  0
   96.5657   13.1083   13.9662 C   0  0  0  0  0  0  0  0  0  0  0  0
   95.5698   12.6505   18.7243 O   0  0  0  0  0  0  0  0  0  0  0  0
   95.8234   11.3940   19.3440 C   0  0  0  0  0  0  0  0  0  0  0  0
 21 20  1  0  0  0
 33 32  1  0  0  0
 32 25  1  0  0  0
 20 15  1  0  0  0
 25 29  1  0  0  0
 25 26  1  0  0  0
 29 30  1  0  0  0
 29 28  1  0  0  0
 15 14  2  0  0  0
 15 13  1  0  0  0
 26 27  1  0  0  0
 14  4  1  0  0  0
 28 27  1  0  0  0
 28 34  1  0  0  0
 13  3  1  0  0  0
 27 24  1  0  0  0
 24 23  1  0  0  0
  4  3  2  0  0  0
  4  5  1  0  0  0
 34 35  1  0  0  0
 23  5  1  0  0  0
  3  2  1  0  0  0
  5  6  2  0  0  0
  2  1  2  0  0  0
  6  1  1  0  0  0
  6  7  1  0  0  0
  1 11  1  0  0  0
  7  8  2  0  0  0
 11 12  2  0  0  0
 11 10  1  0  0  0
  8 10  1  0  0  0
  8  9  1  0  0  0
  9 16  1  0  0  0
  9 17  1  0  0  0
 10 18  1  0  0  0
 13 19  1  0  0  0
 20 22  1  0  0  0
 30 31  1  0  0  0
M  END
> <minimizedAffinity>
-9.19730

$$$$
4KWO_1UD_A_401


 35 38  0  0  0  0  0  0  0  0999 V2000
   94.9126   12.0760   18.1315 C   0  0  0  0  0  0  0  0  0  0  0  0
   93.6581   11.9351   17.5314 C   0  0  0  0  0  0  0  0  0  0  0  0
   93.4329   12.7285   16.4117 C   0  0  0  0  0  0  0  0  0  0  0  0
   94.3631   13.6165   15.8971 C   0  0  0  0  0  0  0  0  0  0  0  0
   95.6239   13.7739   16.5160 C   0  0  0  0  0  0  0  0  0  0  0  0
   95.8889   12.9700   17.6538 C   0  0  0  0  0  0  0  0  0  0  0  0
   97.1349   13.0836   18.3021 N   0  0  0  0  0  0  0  0  0  0  0  0
   97.3915   12.3196   19.3222 C   0  0  0  0  0  0  0  0  0  0  0  0
   98.5742   12.3862   19.9687 N   0  0  0  0  0  0  0  0  0  0  0  0
   96.4897   11.4178   19.8117 N   0  0  0  0  0  0  0  0  0  0  0  0
   95.2366   11.2334   19.2954 C   0  0  0  0  0  0  0  0  0  0  0  0
   94.4444   10.4122   19.7644 O   0  0  0  0  0  0  0  0  0  0  0  0
   92.3491   12.8486   15.5827 N   0  0  0  0  0  0  0  0  0  0  0  0
   93.8624   14.2418   14.7802 N   0  0  0  0  0  0  0  0  0  0  0  0
   92.6489   13.7704   14.6134 C   0  0  0  0  0  0  0  0  0  0  0  0
   99.2667   13.0164   19.6646 H   0  0  0  0  0  0  0  0  0  0  0  0
   98.7445   11.8045   20.7445 H   0  0  0  0  0  0  0  0  0  0  0  0
   96.7579   10.8675   20.5827 H   0  0  0  0  0  0  0  0  0  0  0  0
   91.5004   12.3571   15.6683 H   0  0  0  0  0  0  0  0  0  0  0  0
   91.7626   14.0853   13.6519 N   0  0  0  0  0  0  0  0  0  0  0  0
   92.2346   14.7145   12.4352 C   0  0  0  0  0  0  0  0  0  0  0  0
   90.8052   13.8907   13.7733 H   0  0  0  0  0  0  0  0  0  0  0  0
   96.6510   14.7111   15.9278 C   0  0  0  0  0  0  0  0  0  0  0  0
   96.5672   16.1640   16.3701 C   0  0  0  0  0  0  0  0  0  0  0  0
   99.2936   16.1565   18.7449 C   0  0  0  0  0  0  0  0  0  0  0  0
   97.9261   16.0923   18.3367 O   0  0  0  0  0  0  0  0  0  0  0  0
   97.9061   16.5607   16.9874 C   0  0  0  0  0  0  0  0  0  0  0  0
   99.1475   15.9793   16.3281 C   0  0  0  0  0  0  0  0  0  0  0  0
  100.1183   15.8349   17.5022 C   0  0  0  0  0  0  0  0  0  0  0  0
  101.1645   16.7986   17.3847 O   0  0  0  0  0  0  0  0  0  0  0  0
  100.7815   17.6892   17.3517 H   0  0  0  0  0  0  0  0  0  0  0  0
   99.4936   15.1705   19.7523 O   0  0  0  0  0  0  0  0  0  0  0  0
  100.2395   15.6760   20.8534 C   0  0  0  0  0  0  0  0  0  0  0  0
   99.5932   16.9406   15.3737 O   0  0  0  0  0  0  0  0  0  0  0  0
   99.6881   16.4660   14.0347 C   0  0  0  0  0  0  0  0  0  0  0  0
 21 20  1  0  0  0
 33 32  1  0  0  0
 32 25  1  0  0  0
 20 15  1  0  0  0
 25 29  1  0  0  0
 25 26  1  0  0  0
 29 30  1  0  0  0
 29 28  1  0  0  0
 15 14  2  0  0  0
 15 13  1  0  0  0
 26 27  1  0  0  0
 14  4  1  0  0  0
 28 27  1  0  0  0
 28 34  1  0  0  0
 13  3  1  0  0  0
 27 24  1  0  0  0
 24 23  1  0  0  0
  4  3  2  0  0  0
  4  5  1  0  0  0
 34 35  1  0  0  0
 23  5  1  0  0  0
  3  2  1  0  0  0
  5  6  2  0  0  0
  2  1  2  0  0  0
  6  1  1  0  0  0
  6  7  1  0  0  0
  1 11  1  0  0  0
  7  8  2  0  0  0
 11 12  2  0  0  0
 11 10  1  0  0  0
  8 10  1  0  0  0
  8  9  1  0  0  0
  9 16  1  0  0  0
  9 17  1  0  0  0
 10 18  1  0  0  0
 13 19  1  0  0  0
 20 22  1  0  0  0
 30 31  1  0  0  0
M  END
> <minimizedAffinity>
-8.77589

$$$$
4KWO_1UD_A_401


 35 38  0  0  0  0  0  0  0  0999 V2000
  102.1698   16.5599   19.7156 C   0  0  0  0  0  0  0  0  0  0  0  0
  102.9534   16.9203   18.6156 C   0  0  0  0  0  0  0  0  0  0  0  0
  102.2855   16.9947   17.3982 C   0  0  0  0  0  0  0  0  0  0  0  0
  100.9344   16.7313   17.2433 C   0  0  0  0  0  0  0  0  0  0  0  0
  100.1465   16.3471   18.3519 C   0  0  0  0  0  0  0  0  0  0  0  0
  100.7959   16.2731   19.6104 C   0  0  0  0  0  0  0  0  0  0  0  0
  100.0522   15.9025   20.7484 N   0  0  0  0  0  0  0  0  0  0  0  0
  100.6393   15.8715   21.9079 C   0  0  0  0  0  0  0  0  0  0  0  0
   99.9656   15.5317   23.0267 N   0  0  0  0  0  0  0  0  0  0  0  0
  101.9637   16.1642   22.0703 N   0  0  0  0  0  0  0  0  0  0  0  0
  102.8021   16.5053   21.0449 C   0  0  0  0  0  0  0  0  0  0  0  0
  103.9955   16.7601   21.2256 O   0  0  0  0  0  0  0  0  0  0  0  0
  102.7186   17.3164   16.1391 N   0  0  0  0  0  0  0  0  0  0  0  0
  100.5591   16.9054   15.9326 N   0  0  0  0  0  0  0  0  0  0  0  0
  101.6478   17.2503   15.2858 C   0  0  0  0  0  0  0  0  0  0  0  0
   99.0078   15.3094   22.9762 H   0  0  0  0  0  0  0  0  0  0  0  0
  100.4318   15.5061   23.8934 H   0  0  0  0  0  0  0  0  0  0  0  0
  102.3373   16.1274   22.9804 H   0  0  0  0  0  0  0  0  0  0  0  0
  103.6409   17.5542   15.8898 H   0  0  0  0  0  0  0  0  0  0  0  0
  101.7812   17.5258   13.9760 N   0  0  0  0  0  0  0  0  0  0  0  0
  100.5926   17.6765   13.1616 C   0  0  0  0  0  0  0  0  0  0  0  0
  102.6753   17.6239   13.5759 H   0  0  0  0  0  0  0  0  0  0  0  0
   98.6659   16.1020   18.1874 C   0  0  0  0  0  0  0  0  0  0  0  0
   98.2625   14.7154   17.7100 C   0  0  0  0  0  0  0  0  0  0  0  0
   95.0413   16.1635   16.9355 C   0  0  0  0  0  0  0  0  0  0  0  0
   96.2579   16.0189   17.6702 O   0  0  0  0  0  0  0  0  0  0  0  0
   96.8018   14.7608   17.2680 C   0  0  0  0  0  0  0  0  0  0  0  0
   96.5502   14.6597   15.7712 C   0  0  0  0  0  0  0  0  0  0  0  0
   95.2867   15.5022   15.5827 C   0  0  0  0  0  0  0  0  0  0  0  0
   94.1805   14.6522   15.2809 O   0  0  0  0  0  0  0  0  0  0  0  0
   94.0680   14.0030   15.9927 H   0  0  0  0  0  0  0  0  0  0  0  0
   94.7909   17.5562   16.7784 O   0  0  0  0  0  0  0  0  0  0  0  0
   95.2206   18.0360   15.5097 C   0  0  0  0  0  0  0  0  0  0  0  0
   96.3275   13.2805   15.4852 O   0  0  0  0  0  0  0  0  0  0  0  0
   96.7150   12.8620   14.1806 C   0  0  0  0  0  0  0  0  0  0  0  0
 21 20  1  0  0  0
 33 32  1  0  0  0
 32 25  1  0  0  0
 20 15  1  0  0  0
 25 29  1  0  0  0
 25 26  1  0  0  0
 29 30  1  0  0  0
 29 28  1  0  0  0
 15 14  2  0  0  0
 15 13  1  0  0  0
 26 27  1  0  0  0
 14  4  1  0  0  0
 28 27  1  0  0  0
 28 34  1  0  0  0
 13  3  1  0  0  0
 27 24  1  0  0  0
 24 23  1  0  0  0
  4  3  2  0  0  0
  4  5  1  0  0  0
 34 35  1  0  0  0
 23  5  1  0  0  0
  3  2  1  0  0  0
  5  6  2  0  0  0
  2  1  2  0  0  0
  6  1  1  0  0  0
  6  7  1  0  0  0
  1 11  1  0  0  0
  7  8  2  0  0  0
 11 12  2  0  0  0
 11 10  1  0  0  0
  8 10  1  0  0  0
  8  9  1  0  0  0
  9 16  1  0  0  0
  9 17  1  0  0  0
 10 18  1  0  0  0
 13 19  1  0  0  0
 20 22  1  0  0  0
 30 31  1  0  0  0
M  END
> <minimizedAffinity>
-8.71590

$$$$
4KWO_1UD_A_401


 35 38  0  0  0  0  0  0  0  0999 V2000
   95.8751   12.3334   18.7558 C   0  0  0  0  0  0  0  0  0  0  0  0
   96.9852   12.3503   19.6051 C   0  0  0  0  0  0  0  0  0  0  0  0
   97.9500   13.3095   19.3172 C   0  0  0  0  0  0  0  0  0  0  0  0
   97.8566   14.2041   18.2637 C   0  0  0  0  0  0  0  0  0  0  0  0
   96.7439   14.1735   17.3927 C   0  0  0  0  0  0  0  0  0  0  0  0
   95.7364   13.2138   17.6666 C   0  0  0  0  0  0  0  0  0  0  0  0
   94.6027   13.1484   16.8323 N   0  0  0  0  0  0  0  0  0  0  0  0
   93.6618   12.2940   17.1060 C   0  0  0  0  0  0  0  0  0  0  0  0
   92.5537   12.2017   16.3412 N   0  0  0  0  0  0  0  0  0  0  0  0
   93.7341   11.4334   18.1644 N   0  0  0  0  0  0  0  0  0  0  0  0
   94.7923   11.3728   19.0289 C   0  0  0  0  0  0  0  0  0  0  0  0
   94.8277   10.5802   19.9735 O   0  0  0  0  0  0  0  0  0  0  0  0
   99.1389   13.6172   19.9238 N   0  0  0  0  0  0  0  0  0  0  0  0
   98.9485   15.0386   18.2450 N   0  0  0  0  0  0  0  0  0  0  0  0
   99.7091   14.6640   19.2469 C   0  0  0  0  0  0  0  0  0  0  0  0
   92.4418   12.7945   15.5632 H   0  0  0  0  0  0  0  0  0  0  0  0
   91.8573   11.5415   16.5614 H   0  0  0  0  0  0  0  0  0  0  0  0
   92.9789   10.8198   18.3140 H   0  0  0  0  0  0  0  0  0  0  0  0
   99.5188   13.1642   20.7110 H   0  0  0  0  0  0  0  0  0  0  0  0
  100.8893   15.1830   19.6303 N   0  0  0  0  0  0  0  0  0  0  0  0
  101.4299   16.3168   18.9086 C   0  0  0  0  0  0  0  0  0  0  0  0
  101.3795   14.7972   20.3920 H   0  0  0  0  0  0  0  0  0  0  0  0
   96.6248   15.1774   16.2714 C   0  0  0  0  0  0  0  0  0  0  0  0
   97.3333   14.8227   14.9731 C   0  0  0  0  0  0  0  0  0  0  0  0
  100.5421   15.8824   13.6871 C   0  0  0  0  0  0  0  0  0  0  0  0
   99.5184   14.9392   14.0082 O   0  0  0  0  0  0  0  0  0  0  0  0
   98.6315   15.6226   14.8952 C   0  0  0  0  0  0  0  0  0  0  0  0
   98.5151   17.0397   14.3548 C   0  0  0  0  0  0  0  0  0  0  0  0
   99.8607   17.2472   13.6562 C   0  0  0  0  0  0  0  0  0  0  0  0
  100.6533   18.1719   14.4004 O   0  0  0  0  0  0  0  0  0  0  0  0
  100.7730   17.8409   15.3043 H   0  0  0  0  0  0  0  0  0  0  0  0
  101.0563   15.5460   12.4028 O   0  0  0  0  0  0  0  0  0  0  0  0
  102.2086   16.3121   12.0717 C   0  0  0  0  0  0  0  0  0  0  0  0
   98.3544   17.8969   15.4831 O   0  0  0  0  0  0  0  0  0  0  0  0
   97.2615   18.8059   15.4026 C   0  0  0  0  0  0  0  0  0  0  0  0
 21 20  1  0  0  0
 33 32  1  0  0  0
 32 25  1  0  0  0
 20 15  1  0  0  0
 25 29  1  0  0  0
 25 26  1  0  0  0
 29 30  1  0  0  0
 29 28  1  0  0  0
 15 14  2  0  0  0
 15 13  1  0  0  0
 26 27  1  0  0  0
 14  4  1  0  0  0
 28 27  1  0  0  0
 28 34  1  0  0  0
 13  3  1  0  0  0
 27 24  1  0  0  0
 24 23  1  0  0  0
  4  3  2  0  0  0
  4  5  1  0  0  0
 34 35  1  0  0  0
 23  5  1  0  0  0
  3  2  1  0  0  0
  5  6  2  0  0  0
  2  1  2  0  0  0
  6  1  1  0  0  0
  6  7  1  0  0  0
  1 11  1  0  0  0
  7  8  2  0  0  0
 11 12  2  0  0  0
 11 10  1  0  0  0
  8 10  1  0  0  0
  8  9  1  0  0  0
  9 16  1  0  0  0
  9 17  1  0  0  0
 10 18  1  0  0  0
 13 19  1  0  0  0
 20 22  1  0  0  0
 30 31  1  0  0  0
M  END
> <minimizedAffinity>
-8.57864

$$$$
4KWO_1UD_A_401


 35 38  0  0  0  0  0  0  0  0999 V2000
  100.1929   15.6612   18.6657 C   0  0  0  0  0  0  0  0  0  0  0  0
  101.2932   16.4880   18.4220 C   0  0  0  0  0  0  0  0  0  0  0  0
  101.4262   16.9450   17.1154 C   0  0  0  0  0  0  0  0  0  0  0  0
  100.5500   16.6204   16.0928 C   0  0  0  0  0  0  0  0  0  0  0  0
   99.4490   15.7679   16.3347 C   0  0  0  0  0  0  0  0  0  0  0  0
   99.2789   15.2940   17.6604 C   0  0  0  0  0  0  0  0  0  0  0  0
   98.1916   14.4476   17.9550 N   0  0  0  0  0  0  0  0  0  0  0  0
   98.0147   14.0440   19.1780 C   0  0  0  0  0  0  0  0  0  0  0  0
   96.9824   13.2404   19.5093 N   0  0  0  0  0  0  0  0  0  0  0  0
   98.8569   14.3899   20.1964 N   0  0  0  0  0  0  0  0  0  0  0  0
   99.9645   15.1766   20.0379 C   0  0  0  0  0  0  0  0  0  0  0  0
  100.7071   15.4673   20.9791 O   0  0  0  0  0  0  0  0  0  0  0  0
  102.3557   17.7596   16.5248 N   0  0  0  0  0  0  0  0  0  0  0  0
  100.9293   17.2346   14.9232 N   0  0  0  0  0  0  0  0  0  0  0  0
  102.0201   17.9084   15.2041 C   0  0  0  0  0  0  0  0  0  0  0  0
   96.3397   12.9552   18.8202 H   0  0  0  0  0  0  0  0  0  0  0  0
   96.8720   12.9393   20.4401 H   0  0  0  0  0  0  0  0  0  0  0  0
   98.6544   14.0526   21.0989 H   0  0  0  0  0  0  0  0  0  0  0  0
  103.1317   18.1682   16.9722 H   0  0  0  0  0  0  0  0  0  0  0  0
  102.7603   18.6685   14.3774 N   0  0  0  0  0  0  0  0  0  0  0  0
  103.4728   18.0367   13.2855 C   0  0  0  0  0  0  0  0  0  0  0  0
  102.8173   19.6421   14.5125 H   0  0  0  0  0  0  0  0  0  0  0  0
   98.4723   15.4503   15.2281 C   0  0  0  0  0  0  0  0  0  0  0  0
   97.4821   16.5478   14.8694 C   0  0  0  0  0  0  0  0  0  0  0  0
   94.9317   14.3986   16.2658 C   0  0  0  0  0  0  0  0  0  0  0  0
   96.0875   14.7048   15.4839 O   0  0  0  0  0  0  0  0  0  0  0  0
   96.0963   16.1271   15.3529 C   0  0  0  0  0  0  0  0  0  0  0  0
   95.6641   16.6709   16.7062 C   0  0  0  0  0  0  0  0  0  0  0  0
   94.7748   15.5517   17.2524 C   0  0  0  0  0  0  0  0  0  0  0  0
   93.4115   15.9742   17.2503 O   0  0  0  0  0  0  0  0  0  0  0  0
   93.1515   16.2228   16.3494 H   0  0  0  0  0  0  0  0  0  0  0  0
   95.1825   13.1772   16.9530 O   0  0  0  0  0  0  0  0  0  0  0  0
   93.9848   12.4534   17.2096 C   0  0  0  0  0  0  0  0  0  0  0  0
   94.9315   17.8678   16.4522 O   0  0  0  0  0  0  0  0  0  0  0  0
   95.6093   19.0751   16.7840 C   0  0  0  0  0  0  0  0  0  0  0  0
 21 20  1  0  0  0
 33 32  1  0  0  0
 32 25  1  0  0  0
 20 15  1  0  0  0
 25 29  1  0  0  0
 25 26  1  0  0  0
 29 30  1  0  0  0
 29 28  1  0  0  0
 15 14  2  0  0  0
 15 13  1  0  0  0
 26 27  1  0  0  0
 14  4  1  0  0  0
 28 27  1  0  0  0
 28 34  1  0  0  0
 13  3  1  0  0  0
 27 24  1  0  0  0
 24 23  1  0  0  0
  4  3  2  0  0  0
  4  5  1  0  0  0
 34 35  1  0  0  0
 23  5  1  0  0  0
  3  2  1  0  0  0
  5  6  2  0  0  0
  2  1  2  0  0  0
  6  1  1  0  0  0
  6  7  1  0  0  0
  1 11  1  0  0  0
  7  8  2  0  0  0
 11 12  2  0  0  0
 11 10  1  0  0  0
  8 10  1  0  0  0
  8  9  1  0  0  0
  9 16  1  0  0  0
  9 17  1  0  0  0
 10 18  1  0  0  0
 13 19  1  0  0  0
 20 22  1  0  0  0
 30 31  1  0  0  0
M  END
> <minimizedAffinity>
-8.49519

$$$$
4KWO_1UD_A_401


 35 38  0  0  0  0  0  0  0  0999 V2000
  100.8455   16.0863   18.3050 C   0  0  0  0  0  0  0  0  0  0  0  0
  100.3496   15.2931   19.3436 C   0  0  0  0  0  0  0  0  0  0  0  0
   99.1501   14.6395   19.0831 C   0  0  0  0  0  0  0  0  0  0  0  0
   98.4585   14.7461   17.8877 C   0  0  0  0  0  0  0  0  0  0  0  0
   98.9495   15.5643   16.8451 C   0  0  0  0  0  0  0  0  0  0  0  0
  100.1773   16.2355   17.0753 C   0  0  0  0  0  0  0  0  0  0  0  0
  100.7133   17.0568   16.0636 N   0  0  0  0  0  0  0  0  0  0  0  0
  101.8574   17.6419   16.2609 C   0  0  0  0  0  0  0  0  0  0  0  0
  102.4143   18.4300   15.3176 N   0  0  0  0  0  0  0  0  0  0  0  0
  102.5596   17.5117   17.4254 N   0  0  0  0  0  0  0  0  0  0  0  0
  102.1352   16.7722   18.4948 C   0  0  0  0  0  0  0  0  0  0  0  0
  102.7925   16.6786   19.5345 O   0  0  0  0  0  0  0  0  0  0  0  0
   98.3891   13.7931   19.8452 N   0  0  0  0  0  0  0  0  0  0  0  0
   97.3223   13.9734   17.9205 N   0  0  0  0  0  0  0  0  0  0  0  0
   97.2970   13.4150   19.1080 C   0  0  0  0  0  0  0  0  0  0  0  0
  101.9575   18.5644   14.4559 H   0  0  0  0  0  0  0  0  0  0  0  0
  103.2775   18.8706   15.4911 H   0  0  0  0  0  0  0  0  0  0  0  0
  103.4233   17.9783   17.4993 H   0  0  0  0  0  0  0  0  0  0  0  0
   98.5918   13.5056   20.7647 H   0  0  0  0  0  0  0  0  0  0  0  0
   96.3745   12.5738   19.6085 N   0  0  0  0  0  0  0  0  0  0  0  0
   96.4316   11.1705   19.2527 C   0  0  0  0  0  0  0  0  0  0  0  0
   95.6693   12.9074   20.2090 H   0  0  0  0  0  0  0  0  0  0  0  0
   98.2154   15.6448   15.5283 C   0  0  0  0  0  0  0  0  0  0  0  0
   97.4687   16.9409   15.2526 C   0  0  0  0  0  0  0  0  0  0  0  0
   94.4461   15.0748   15.9272 C   0  0  0  0  0  0  0  0  0  0  0  0
   95.7593   15.2751   15.4015 O   0  0  0  0  0  0  0  0  0  0  0  0
   95.9740   16.6869   15.4329 C   0  0  0  0  0  0  0  0  0  0  0  0
   95.3642   17.1702   16.7400 C   0  0  0  0  0  0  0  0  0  0  0  0
   94.2518   16.1499   16.9922 C   0  0  0  0  0  0  0  0  0  0  0  0
   92.9790   16.7652   16.7952 O   0  0  0  0  0  0  0  0  0  0  0  0
   92.9296   17.1251   15.8958 H   0  0  0  0  0  0  0  0  0  0  0  0
   94.4034   13.7757   16.5081 O   0  0  0  0  0  0  0  0  0  0  0  0
   93.4811   13.7043   17.5891 C   0  0  0  0  0  0  0  0  0  0  0  0
   94.8520   18.4782   16.4946 O   0  0  0  0  0  0  0  0  0  0  0  0
   95.6532   19.5456   16.9906 C   0  0  0  0  0  0  0  0  0  0  0  0
 21 20  1  0  0  0
 33 32  1  0  0  0
 32 25  1  0  0  0
 20 15  1  0  0  0
 25 29  1  0  0  0
 25 26  1  0  0  0
 29 30  1  0  0  0
 29 28  1  0  0  0
 15 14  2  0  0  0
 15 13  1  0  0  0
 26 27  1  0  0  0
 14  4  1  0  0  0
 28 27  1  0  0  0
 28 34  1  0  0  0
 13  3  1  0  0  0
 27 24  1  0  0  0
 24 23  1  0  0  0
  4  3  2  0  0  0
  4  5  1  0  0  0
 34 35  1  0  0  0
 23  5  1  0  0  0
  3  2  1  0  0  0
  5  6  2  0  0  0
  2  1  2  0  0  0
  6  1  1  0  0  0
  6  7  1  0  0  0
  1 11  1  0  0  0
  7  8  2  0  0  0
 11 12  2  0  0  0
 11 10  1  0  0  0
  8 10  1  0  0  0
  8  9  1  0  0  0
  9 16  1  0  0  0
  9 17  1  0  0  0
 10 18  1  0  0  0
 13 19  1  0  0  0
 20 22  1  0  0  0
 30 31  1  0  0  0
M  END
> <minimizedAffinity>
-8.38057

$$$$
4KWO_1UD_A_401


 35 38  0  0  0  0  0  0  0  0999 V2000
   99.8780   15.3516   18.2499 C   0  0  0  0  0  0  0  0  0  0  0  0
   99.7816   14.3478   19.2178 C   0  0  0  0  0  0  0  0  0  0  0  0
   98.6265   13.5749   19.1717 C   0  0  0  0  0  0  0  0  0  0  0  0
   97.6123   13.7596   18.2464 C   0  0  0  0  0  0  0  0  0  0  0  0
   97.7006   14.7877   17.2807 C   0  0  0  0  0  0  0  0  0  0  0  0
   98.8722   15.5865   17.2939 C   0  0  0  0  0  0  0  0  0  0  0  0
   99.0120   16.6197   16.3460 N   0  0  0  0  0  0  0  0  0  0  0  0
  100.1026   17.3271   16.3344 C   0  0  0  0  0  0  0  0  0  0  0  0
  100.2852   18.3205   15.4394 N   0  0  0  0  0  0  0  0  0  0  0  0
  101.1202   17.1255   17.2233 N   0  0  0  0  0  0  0  0  0  0  0  0
  101.0955   16.1798   18.2111 C   0  0  0  0  0  0  0  0  0  0  0  0
  102.0308   16.0264   19.0007 O   0  0  0  0  0  0  0  0  0  0  0  0
   98.2028   12.5224   19.9392 N   0  0  0  0  0  0  0  0  0  0  0  0
   96.6137   12.8350   18.4385 N   0  0  0  0  0  0  0  0  0  0  0  0
   96.9859   12.1063   19.4647 C   0  0  0  0  0  0  0  0  0  0  0  0
   99.5884   18.5159   14.7719 H   0  0  0  0  0  0  0  0  0  0  0  0
  101.1152   18.8497   15.4539 H   0  0  0  0  0  0  0  0  0  0  0  0
  101.9195   17.6953   17.1483 H   0  0  0  0  0  0  0  0  0  0  0  0
   98.6889   12.1318   20.7011 H   0  0  0  0  0  0  0  0  0  0  0  0
   96.3323   11.0750   20.0291 N   0  0  0  0  0  0  0  0  0  0  0  0
   95.0069   10.7340   19.5540 C   0  0  0  0  0  0  0  0  0  0  0  0
   96.7495   10.5583   20.7559 H   0  0  0  0  0  0  0  0  0  0  0  0
   96.6134   14.9591   16.2472 C   0  0  0  0  0  0  0  0  0  0  0  0
   96.6453   13.9951   15.0712 C   0  0  0  0  0  0  0  0  0  0  0  0
   93.3223   12.6357   15.4988 C   0  0  0  0  0  0  0  0  0  0  0  0
   94.7421   12.6692   15.6535 O   0  0  0  0  0  0  0  0  0  0  0  0
   95.2088   13.6297   14.7049 C   0  0  0  0  0  0  0  0  0  0  0  0
   94.1989   14.7668   14.7348 C   0  0  0  0  0  0  0  0  0  0  0  0
   92.9049   14.0596   15.1438 C   0  0  0  0  0  0  0  0  0  0  0  0
   92.0096   14.0112   14.0333 O   0  0  0  0  0  0  0  0  0  0  0  0
   92.4393   13.5580   13.2911 H   0  0  0  0  0  0  0  0  0  0  0  0
   92.7581   12.2403   16.7447 O   0  0  0  0  0  0  0  0  0  0  0  0
   93.0838   13.1485   17.7904 C   0  0  0  0  0  0  0  0  0  0  0  0
   94.1325   15.2911   13.4102 O   0  0  0  0  0  0  0  0  0  0  0  0
   94.1266   16.7121   13.3207 C   0  0  0  0  0  0  0  0  0  0  0  0
 21 20  1  0  0  0
 33 32  1  0  0  0
 32 25  1  0  0  0
 20 15  1  0  0  0
 25 29  1  0  0  0
 25 26  1  0  0  0
 29 30  1  0  0  0
 29 28  1  0  0  0
 15 14  2  0  0  0
 15 13  1  0  0  0
 26 27  1  0  0  0
 14  4  1  0  0  0
 28 27  1  0  0  0
 28 34  1  0  0  0
 13  3  1  0  0  0
 27 24  1  0  0  0
 24 23  1  0  0  0
  4  3  2  0  0  0
  4  5  1  0  0  0
 34 35  1  0  0  0
 23  5  1  0  0  0
  3  2  1  0  0  0
  5  6  2  0  0  0
  2  1  2  0  0  0
  6  1  1  0  0  0
  6  7  1  0  0  0
  1 11  1  0  0  0
  7  8  2  0  0  0
 11 12  2  0  0  0
 11 10  1  0  0  0
  8 10  1  0  0  0
  8  9  1  0  0  0
  9 16  1  0  0  0
  9 17  1  0  0  0
 10 18  1  0  0  0
 13 19  1  0  0  0
 20 22  1  0  0  0
 30 31  1  0  0  0
M  END
> <minimizedAffinity>
-8.23840

$$$$
