1AAQ_PSI_B_100


 48 48  0  0  0  0  0  0  0  0999 V2000
   -9.4899   18.0701    0.5763 C   0  0  0  0  0  0  0  0  0  0  0  0
  -10.3854   19.2427    0.4454 O   0  0  0  0  0  0  0  0  0  0  0  0
  -10.8610   19.1937   -0.3985 H   0  0  0  0  0  0  0  0  0  0  0  0
   -8.2492   17.9116   -0.3900 C   0  0  0  0  0  0  0  0  0  0  0  0
   -8.5438   16.9927   -2.6897 C   0  0  0  0  0  0  0  0  0  0  0  0
   -8.2838   15.8477   -2.3470 O   0  0  0  0  0  0  0  0  0  0  0  0
   -8.5777   18.0344   -1.8399 N   0  0  0  0  0  0  0  0  0  0  0  0
   -8.8308   18.9187   -2.1908 H   0  0  0  0  0  0  0  0  0  0  0  0
   -8.7854   17.2739   -4.1770 C   0  0  0  0  0  0  0  0  0  0  0  0
   -9.7418   16.2397   -4.7923 C   0  0  0  0  0  0  0  0  0  0  0  0
   -7.1790   17.7745   -5.9910 C   0  0  0  0  0  0  0  0  0  0  0  0
   -7.9840   18.4563   -6.6107 O   0  0  0  0  0  0  0  0  0  0  0  0
   -7.4641   17.1821   -4.8204 N   0  0  0  0  0  0  0  0  0  0  0  0
   -6.7580   16.6628   -4.3721 H   0  0  0  0  0  0  0  0  0  0  0  0
   -5.5198   18.4188   -7.6646 N   0  0  0  0  0  0  0  0  0  0  0  0
   -5.7359   17.6289   -6.4764 C   0  0  0  0  0  0  0  0  0  0  0  0
   -4.7691   18.1175   -5.4021 C   0  0  0  0  0  0  0  0  0  0  0  0
   -6.1567   18.1097   -8.3989 H   0  0  0  0  0  0  0  0  0  0  0  0
   -4.5565   18.3032   -7.9791 H   0  0  0  0  0  0  0  0  0  0  0  0
   -7.1665   18.9283    0.0106 C   0  0  0  0  0  0  0  0  0  0  0  0
   -5.8335   18.7204   -0.6899 C   0  0  0  0  0  0  0  0  0  0  0  0
   -5.2567   17.4457   -0.8151 C   0  0  0  0  0  0  0  0  0  0  0  0
   -5.1935   19.8329   -1.2700 C   0  0  0  0  0  0  0  0  0  0  0  0
   -4.0408   17.2941   -1.5003 C   0  0  0  0  0  0  0  0  0  0  0  0
   -3.9767   19.6814   -1.9452 C   0  0  0  0  0  0  0  0  0  0  0  0
   -3.4066   18.4073   -2.0760 C   0  0  0  0  0  0  0  0  0  0  0  0
  -10.3897   16.8316    0.4213 C   0  0  0  0  0  0  0  0  0  0  0  0
  -11.4743   16.7361    1.5181 C   0  0  0  0  0  0  0  0  0  0  0  0
  -11.0003   15.9827    2.7671 C   0  0  0  0  0  0  0  0  0  0  0  0
  -10.7068   14.7992    2.6494 O   0  0  0  0  0  0  0  0  0  0  0  0
  -10.9788   16.6036    3.9644 N   0  0  0  0  0  0  0  0  0  0  0  0
  -11.1537   17.5704    4.0269 H   0  0  0  0  0  0  0  0  0  0  0  0
  -10.6887   15.8134    5.1863 C   0  0  0  0  0  0  0  0  0  0  0  0
  -12.0266   15.5993    5.9274 C   0  0  0  0  0  0  0  0  0  0  0  0
  -12.2741   16.1186    7.0077 O   0  0  0  0  0  0  0  0  0  0  0  0
  -12.8611   14.7968    5.2697 N   0  0  0  0  0  0  0  0  0  0  0  0
  -12.4971   14.4614    4.4187 H   0  0  0  0  0  0  0  0  0  0  0  0
  -14.2222   14.3104    5.5626 C   0  0  0  0  0  0  0  0  0  0  0  0
  -14.9961   14.1092    4.2142 C   0  0  0  0  0  0  0  0  0  0  0  0
  -14.1008   14.3055    2.9544 C   0  0  0  0  0  0  0  0  0  0  0  0
  -15.5758   12.6814    4.0863 C   0  0  0  0  0  0  0  0  0  0  0  0
  -14.1467   13.0150    6.4847 C   0  0  0  0  0  0  0  0  0  0  0  0
  -13.1972   11.9142    6.2491 O   0  0  0  0  0  0  0  0  0  0  0  0
  -13.1278   12.9711    8.6531 C   0  0  0  0  0  0  0  0  0  0  0  0
  -14.2901   13.3091    7.8752 O   0  0  0  0  0  0  0  0  0  0  0  0
   -9.5800   16.4502    6.0535 C   0  0  0  0  0  0  0  0  0  0  0  0
   -8.5224   15.4163    6.4912 C   0  0  0  0  0  0  0  0  0  0  0  0
   -8.8452   17.5553    5.2669 C   0  0  0  0  0  0  0  0  0  0  0  0
 15 16  1  0  0  0
 16 11  1  0  0  0
 16 17  1  0  0  0
 11 12  2  0  0  0
 13  9  1  0  0  0
  9  5  1  0  0  0
  9 10  1  0  0  0
  5  6  2  0  0  0
  7  4  1  0  0  0
  4  1  1  0  0  0
  4 20  1  0  0  0
  1  2  1  0  0  0
  1 27  1  0  0  0
 20 21  1  0  0  0
 21 22  2  0  0  0
 21 23  1  0  0  0
 22 24  1  0  0  0
 23 25  2  0  0  0
 24 26  2  0  0  0
 25 26  1  0  0  0
 28 29  1  0  0  0
 29 30  2  0  0  0
 31 33  1  0  0  0
 33 34  1  0  0  0
 33 46  1  0  0  0
 34 35  2  0  0  0
 46 47  1  0  0  0
 46 48  1  0  0  0
 36 38  1  0  0  0
 38 42  1  0  0  0
 38 39  1  0  0  0
 42 43  2  0  0  0
 39 40  1  0  0  0
 39 41  1  0  0  0
 44 45  1  0  0  0
 11 13  1  0  0  0
  5  7  1  0  0  0
 27 28  1  0  0  0
 29 31  1  0  0  0
 34 36  1  0  0  0
 42 45  1  0  0  0
 15 18  1  0  0  0
 15 19  1  0  0  0
 13 14  1  0  0  0
  2  3  1  0  0  0
  7  8  1  0  0  0
 31 32  1  0  0  0
 36 37  1  0  0  0
M  END
> <minimizedAffinity>
-9.46177

$$$$
1AAQ_PSI_B_100


 48 48  0  0  0  0  0  0  0  0999 V2000
  -10.9932   17.2126    1.0575 C   0  0  0  0  0  0  0  0  0  0  0  0
  -11.4067   18.4571    1.7461 O   0  0  0  0  0  0  0  0  0  0  0  0
  -10.6196   18.9713    1.9850 H   0  0  0  0  0  0  0  0  0  0  0  0
  -10.2071   16.0942    1.8509 C   0  0  0  0  0  0  0  0  0  0  0  0
   -9.3748   17.2165    3.9166 C   0  0  0  0  0  0  0  0  0  0  0  0
   -8.6551   17.9883    3.2981 O   0  0  0  0  0  0  0  0  0  0  0  0
  -10.1643   16.3010    3.3276 N   0  0  0  0  0  0  0  0  0  0  0  0
  -10.7404   15.7416    3.8971 H   0  0  0  0  0  0  0  0  0  0  0  0
   -9.3340   17.2474    5.4486 C   0  0  0  0  0  0  0  0  0  0  0  0
   -7.9541   16.8255    5.9787 C   0  0  0  0  0  0  0  0  0  0  0  0
  -10.9239   16.3373    7.1115 C   0  0  0  0  0  0  0  0  0  0  0  0
  -10.6518   17.1923    7.9433 O   0  0  0  0  0  0  0  0  0  0  0  0
  -10.3586   16.2887    5.8947 N   0  0  0  0  0  0  0  0  0  0  0  0
  -10.6419   15.5801    5.2727 H   0  0  0  0  0  0  0  0  0  0  0  0
  -12.5189   15.4324    8.7258 N   0  0  0  0  0  0  0  0  0  0  0  0
  -12.0185   15.3030    7.3785 C   0  0  0  0  0  0  0  0  0  0  0  0
  -13.1856   15.5145    6.4190 C   0  0  0  0  0  0  0  0  0  0  0  0
  -11.7545   15.2946    9.3871 H   0  0  0  0  0  0  0  0  0  0  0  0
  -13.2406   14.7305    8.8894 H   0  0  0  0  0  0  0  0  0  0  0  0
  -10.8087   14.7198    1.5113 C   0  0  0  0  0  0  0  0  0  0  0  0
  -12.1330   14.4366    2.2020 C   0  0  0  0  0  0  0  0  0  0  0  0
  -13.2818   15.2000    1.9361 C   0  0  0  0  0  0  0  0  0  0  0  0
  -12.2130   13.3466    3.0904 C   0  0  0  0  0  0  0  0  0  0  0  0
  -14.4932   14.8822    2.5704 C   0  0  0  0  0  0  0  0  0  0  0  0
  -13.4196   13.0365    3.7288 C   0  0  0  0  0  0  0  0  0  0  0  0
  -14.5668   13.7946    3.4562 C   0  0  0  0  0  0  0  0  0  0  0  0
  -10.1333   17.6570   -0.1387 C   0  0  0  0  0  0  0  0  0  0  0  0
  -10.3866   16.8116   -1.4074 C   0  0  0  0  0  0  0  0  0  0  0  0
   -9.1626   16.7287   -2.3278 C   0  0  0  0  0  0  0  0  0  0  0  0
   -8.4356   15.7472   -2.2329 O   0  0  0  0  0  0  0  0  0  0  0  0
   -8.8734   17.7479   -3.1627 N   0  0  0  0  0  0  0  0  0  0  0  0
   -9.5044   18.4956   -3.2725 H   0  0  0  0  0  0  0  0  0  0  0  0
   -7.5940   17.7297   -3.9139 C   0  0  0  0  0  0  0  0  0  0  0  0
   -6.6148   18.6740   -3.1828 C   0  0  0  0  0  0  0  0  0  0  0  0
   -6.3393   19.7915   -3.5992 O   0  0  0  0  0  0  0  0  0  0  0  0
   -6.1118   18.1402   -2.0715 N   0  0  0  0  0  0  0  0  0  0  0  0
   -6.4363   17.2286   -1.8900 H   0  0  0  0  0  0  0  0  0  0  0  0
   -5.1653   18.6429   -1.0585 C   0  0  0  0  0  0  0  0  0  0  0  0
   -5.7771   18.4241    0.3682 C   0  0  0  0  0  0  0  0  0  0  0  0
   -6.8108   19.5182    0.7701 C   0  0  0  0  0  0  0  0  0  0  0  0
   -6.5391   17.0826    0.4724 C   0  0  0  0  0  0  0  0  0  0  0  0
   -3.7355   17.9779   -1.2771 C   0  0  0  0  0  0  0  0  0  0  0  0
   -3.5539   16.6239   -1.8270 O   0  0  0  0  0  0  0  0  0  0  0  0
   -3.2192   20.2596   -1.7960 C   0  0  0  0  0  0  0  0  0  0  0  0
   -2.7635   18.8949   -1.7818 O   0  0  0  0  0  0  0  0  0  0  0  0
   -7.7832   18.0519   -5.4130 C   0  0  0  0  0  0  0  0  0  0  0  0
   -6.5569   17.6391   -6.2527 C   0  0  0  0  0  0  0  0  0  0  0  0
   -9.0037   17.2970   -5.9790 C   0  0  0  0  0  0  0  0  0  0  0  0
 15 16  1  0  0  0
 16 11  1  0  0  0
 16 17  1  0  0  0
 11 12  2  0  0  0
 13  9  1  0  0  0
  9  5  1  0  0  0
  9 10  1  0  0  0
  5  6  2  0  0  0
  7  4  1  0  0  0
  4  1  1  0  0  0
  4 20  1  0  0  0
  1  2  1  0  0  0
  1 27  1  0  0  0
 20 21  1  0  0  0
 21 22  2  0  0  0
 21 23  1  0  0  0
 22 24  1  0  0  0
 23 25  2  0  0  0
 24 26  2  0  0  0
 25 26  1  0  0  0
 28 29  1  0  0  0
 29 30  2  0  0  0
 31 33  1  0  0  0
 33 34  1  0  0  0
 33 46  1  0  0  0
 34 35  2  0  0  0
 46 47  1  0  0  0
 46 48  1  0  0  0
 36 38  1  0  0  0
 38 42  1  0  0  0
 38 39  1  0  0  0
 42 43  2  0  0  0
 39 40  1  0  0  0
 39 41  1  0  0  0
 44 45  1  0  0  0
 11 13  1  0  0  0
  5  7  1  0  0  0
 27 28  1  0  0  0
 29 31  1  0  0  0
 34 36  1  0  0  0
 42 45  1  0  0  0
 15 18  1  0  0  0
 15 19  1  0  0  0
 13 14  1  0  0  0
  2  3  1  0  0  0
  7  8  1  0  0  0
 31 32  1  0  0  0
 36 37  1  0  0  0
M  END
> <minimizedAffinity>
-9.37792

$$$$
1AAQ_PSI_B_100


 48 48  0  0  0  0  0  0  0  0999 V2000
  -10.6014   17.8191    0.7401 C   0  0  0  0  0  0  0  0  0  0  0  0
  -10.4104   19.2602    0.4559 O   0  0  0  0  0  0  0  0  0  0  0  0
   -9.5078   19.5206    0.6977 H   0  0  0  0  0  0  0  0  0  0  0  0
  -10.5934   17.3003    2.2331 C   0  0  0  0  0  0  0  0  0  0  0  0
  -11.5559   14.9997    2.2278 C   0  0  0  0  0  0  0  0  0  0  0  0
  -10.5703   14.5070    1.6968 O   0  0  0  0  0  0  0  0  0  0  0  0
  -11.6577   16.3026    2.5445 N   0  0  0  0  0  0  0  0  0  0  0  0
  -12.4720   16.6123    3.0030 H   0  0  0  0  0  0  0  0  0  0  0  0
  -12.7690   14.1012    2.4939 C   0  0  0  0  0  0  0  0  0  0  0  0
  -13.9895   14.5549    1.6769 C   0  0  0  0  0  0  0  0  0  0  0  0
  -13.1783   13.1700    4.7493 C   0  0  0  0  0  0  0  0  0  0  0  0
  -13.0489   12.0135    4.3718 O   0  0  0  0  0  0  0  0  0  0  0  0
  -13.0521   14.2286    3.9333 N   0  0  0  0  0  0  0  0  0  0  0  0
  -13.1533   15.1307    4.3145 H   0  0  0  0  0  0  0  0  0  0  0  0
  -14.6505   14.1984    6.4058 N   0  0  0  0  0  0  0  0  0  0  0  0
  -13.4047   13.4923    6.2272 C   0  0  0  0  0  0  0  0  0  0  0  0
  -13.4715   12.2036    7.0411 C   0  0  0  0  0  0  0  0  0  0  0  0
  -14.6295   15.0659    5.8696 H   0  0  0  0  0  0  0  0  0  0  0  0
  -14.7811   14.4128    7.3944 H   0  0  0  0  0  0  0  0  0  0  0  0
   -9.2021   16.7317    2.5604 C   0  0  0  0  0  0  0  0  0  0  0  0
   -8.9342   16.5707    4.0482 C   0  0  0  0  0  0  0  0  0  0  0  0
   -8.7194   15.3089    4.6268 C   0  0  0  0  0  0  0  0  0  0  0  0
   -8.8498   17.7262    4.8491 C   0  0  0  0  0  0  0  0  0  0  0  0
   -8.4409   15.2087    5.9991 C   0  0  0  0  0  0  0  0  0  0  0  0
   -8.5807   17.6239    6.2190 C   0  0  0  0  0  0  0  0  0  0  0  0
   -8.3589   16.3644    6.7932 C   0  0  0  0  0  0  0  0  0  0  0  0
   -9.4949   17.0846   -0.0369 C   0  0  0  0  0  0  0  0  0  0  0  0
   -9.9526   16.6188   -1.4377 C   0  0  0  0  0  0  0  0  0  0  0  0
   -8.8386   16.6944   -2.4892 C   0  0  0  0  0  0  0  0  0  0  0  0
   -8.2712   15.6551   -2.8034 O   0  0  0  0  0  0  0  0  0  0  0  0
   -8.4624   17.8883   -2.9918 N   0  0  0  0  0  0  0  0  0  0  0  0
   -8.9737   18.7019   -2.7776 H   0  0  0  0  0  0  0  0  0  0  0  0
   -7.2694   17.9618   -3.8710 C   0  0  0  0  0  0  0  0  0  0  0  0
   -6.2865   18.9684   -3.2341 C   0  0  0  0  0  0  0  0  0  0  0  0
   -5.8259   19.9214   -3.8486 O   0  0  0  0  0  0  0  0  0  0  0  0
   -6.0009   18.6823   -1.9654 N   0  0  0  0  0  0  0  0  0  0  0  0
   -6.4543   17.8747   -1.6316 H   0  0  0  0  0  0  0  0  0  0  0  0
   -5.1403   19.3345   -0.9610 C   0  0  0  0  0  0  0  0  0  0  0  0
   -5.5817   18.8720    0.4704 C   0  0  0  0  0  0  0  0  0  0  0  0
   -6.9094   19.5315    0.9493 C   0  0  0  0  0  0  0  0  0  0  0  0
   -5.8351   17.3478    0.5343 C   0  0  0  0  0  0  0  0  0  0  0  0
   -3.6093   19.0646   -1.3035 C   0  0  0  0  0  0  0  0  0  0  0  0
   -3.1444   17.8633   -2.0172 O   0  0  0  0  0  0  0  0  0  0  0  0
   -1.5071   20.0274   -1.9327 C   0  0  0  0  0  0  0  0  0  0  0  0
   -2.9151   20.2395   -1.7256 O   0  0  0  0  0  0  0  0  0  0  0  0
   -7.6347   18.2767   -5.3388 C   0  0  0  0  0  0  0  0  0  0  0  0
   -6.5743   17.7461   -6.3254 C   0  0  0  0  0  0  0  0  0  0  0  0
   -8.9804   17.6225   -5.7141 C   0  0  0  0  0  0  0  0  0  0  0  0
 15 16  1  0  0  0
 16 11  1  0  0  0
 16 17  1  0  0  0
 11 12  2  0  0  0
 13  9  1  0  0  0
  9  5  1  0  0  0
  9 10  1  0  0  0
  5  6  2  0  0  0
  7  4  1  0  0  0
  4  1  1  0  0  0
  4 20  1  0  0  0
  1  2  1  0  0  0
  1 27  1  0  0  0
 20 21  1  0  0  0
 21 22  2  0  0  0
 21 23  1  0  0  0
 22 24  1  0  0  0
 23 25  2  0  0  0
 24 26  2  0  0  0
 25 26  1  0  0  0
 28 29  1  0  0  0
 29 30  2  0  0  0
 31 33  1  0  0  0
 33 34  1  0  0  0
 33 46  1  0  0  0
 34 35  2  0  0  0
 46 47  1  0  0  0
 46 48  1  0  0  0
 36 38  1  0  0  0
 38 42  1  0  0  0
 38 39  1  0  0  0
 42 43  2  0  0  0
 39 40  1  0  0  0
 39 41  1  0  0  0
 44 45  1  0  0  0
 11 13  1  0  0  0
  5  7  1  0  0  0
 27 28  1  0  0  0
 29 31  1  0  0  0
 34 36  1  0  0  0
 42 45  1  0  0  0
 15 18  1  0  0  0
 15 19  1  0  0  0
 13 14  1  0  0  0
  2  3  1  0  0  0
  7  8  1  0  0  0
 31 32  1  0  0  0
 36 37  1  0  0  0
M  END
> <minimizedAffinity>
-9.14117

$$$$
1AAQ_PSI_B_100


 48 48  0  0  0  0  0  0  0  0999 V2000
   -9.2908   18.0479    0.8340 C   0  0  0  0  0  0  0  0  0  0  0  0
  -10.2557   18.8661    0.0636 O   0  0  0  0  0  0  0  0  0  0  0  0
  -11.0006   18.3108   -0.2150 H   0  0  0  0  0  0  0  0  0  0  0  0
   -8.4781   16.8987    0.1149 C   0  0  0  0  0  0  0  0  0  0  0  0
   -9.3792   16.2269   -2.1114 C   0  0  0  0  0  0  0  0  0  0  0  0
  -10.2284   15.4903   -1.6296 O   0  0  0  0  0  0  0  0  0  0  0  0
   -8.5201   16.9538   -1.3752 N   0  0  0  0  0  0  0  0  0  0  0  0
   -7.8900   17.5498   -1.8411 H   0  0  0  0  0  0  0  0  0  0  0  0
   -9.2402   16.2830   -3.6369 C   0  0  0  0  0  0  0  0  0  0  0  0
   -8.9721   14.8881   -4.2245 C   0  0  0  0  0  0  0  0  0  0  0  0
   -8.0375   17.9946   -4.9580 C   0  0  0  0  0  0  0  0  0  0  0  0
   -8.9399   18.0968   -5.7778 O   0  0  0  0  0  0  0  0  0  0  0  0
   -8.0939   17.1686   -3.9011 N   0  0  0  0  0  0  0  0  0  0  0  0
   -7.3346   17.1544   -3.2745 H   0  0  0  0  0  0  0  0  0  0  0  0
   -6.9165   19.9951   -4.1151 N   0  0  0  0  0  0  0  0  0  0  0  0
   -6.8005   18.8908   -5.0368 C   0  0  0  0  0  0  0  0  0  0  0  0
   -5.5521   18.0958   -4.6667 C   0  0  0  0  0  0  0  0  0  0  0  0
   -7.7462   20.5427   -4.3432 H   0  0  0  0  0  0  0  0  0  0  0  0
   -6.0885   20.5863   -4.1870 H   0  0  0  0  0  0  0  0  0  0  0  0
   -7.0250   16.9190    0.6193 C   0  0  0  0  0  0  0  0  0  0  0  0
   -6.1291   17.9033   -0.1153 C   0  0  0  0  0  0  0  0  0  0  0  0
   -6.3909   19.2833   -0.1121 C   0  0  0  0  0  0  0  0  0  0  0  0
   -4.9812   17.4151   -0.7693 C   0  0  0  0  0  0  0  0  0  0  0  0
   -5.5180   20.1608   -0.7746 C   0  0  0  0  0  0  0  0  0  0  0  0
   -4.1166   18.2903   -1.4369 C   0  0  0  0  0  0  0  0  0  0  0  0
   -4.3752   19.6681   -1.4260 C   0  0  0  0  0  0  0  0  0  0  0  0
  -10.0924   17.4269    1.9914 C   0  0  0  0  0  0  0  0  0  0  0  0
   -9.2997   17.3870    3.3175 C   0  0  0  0  0  0  0  0  0  0  0  0
   -9.8455   16.3552    4.3123 C   0  0  0  0  0  0  0  0  0  0  0  0
   -9.5537   15.1779    4.1398 O   0  0  0  0  0  0  0  0  0  0  0  0
  -10.6761   16.7428    5.3019 N   0  0  0  0  0  0  0  0  0  0  0  0
  -10.8448   17.6991    5.4641 H   0  0  0  0  0  0  0  0  0  0  0  0
  -11.3329   15.7121    6.1431 C   0  0  0  0  0  0  0  0  0  0  0  0
  -12.7844   15.5590    5.6384 C   0  0  0  0  0  0  0  0  0  0  0  0
  -13.7469   16.0049    6.2490 O   0  0  0  0  0  0  0  0  0  0  0  0
  -12.8658   14.8950    4.4871 N   0  0  0  0  0  0  0  0  0  0  0  0
  -11.9931   14.6014    4.1387 H   0  0  0  0  0  0  0  0  0  0  0  0
  -14.0032   14.5120    3.6301 C   0  0  0  0  0  0  0  0  0  0  0  0
  -13.5067   14.3762    2.1494 C   0  0  0  0  0  0  0  0  0  0  0  0
  -13.6490   15.6925    1.3283 C   0  0  0  0  0  0  0  0  0  0  0  0
  -12.0073   14.0057    2.0727 C   0  0  0  0  0  0  0  0  0  0  0  0
  -14.7077   13.2103    4.2164 C   0  0  0  0  0  0  0  0  0  0  0  0
  -16.1136   12.8656    3.9456 O   0  0  0  0  0  0  0  0  0  0  0  0
  -13.6263   11.5018    5.5022 C   0  0  0  0  0  0  0  0  0  0  0  0
  -13.8616   12.0596    4.1969 O   0  0  0  0  0  0  0  0  0  0  0  0
  -11.2172   16.0188    7.6529 C   0  0  0  0  0  0  0  0  0  0  0  0
  -11.5921   14.8002    8.5211 C   0  0  0  0  0  0  0  0  0  0  0  0
   -9.7710   16.4146    8.0156 C   0  0  0  0  0  0  0  0  0  0  0  0
 15 16  1  0  0  0
 16 11  1  0  0  0
 16 17  1  0  0  0
 11 12  2  0  0  0
 13  9  1  0  0  0
  9  5  1  0  0  0
  9 10  1  0  0  0
  5  6  2  0  0  0
  7  4  1  0  0  0
  4  1  1  0  0  0
  4 20  1  0  0  0
  1  2  1  0  0  0
  1 27  1  0  0  0
 20 21  1  0  0  0
 21 22  2  0  0  0
 21 23  1  0  0  0
 22 24  1  0  0  0
 23 25  2  0  0  0
 24 26  2  0  0  0
 25 26  1  0  0  0
 28 29  1  0  0  0
 29 30  2  0  0  0
 31 33  1  0  0  0
 33 34  1  0  0  0
 33 46  1  0  0  0
 34 35  2  0  0  0
 46 47  1  0  0  0
 46 48  1  0  0  0
 36 38  1  0  0  0
 38 42  1  0  0  0
 38 39  1  0  0  0
 42 43  2  0  0  0
 39 40  1  0  0  0
 39 41  1  0  0  0
 44 45  1  0  0  0
 11 13  1  0  0  0
  5  7  1  0  0  0
 27 28  1  0  0  0
 29 31  1  0  0  0
 34 36  1  0  0  0
 42 45  1  0  0  0
 15 18  1  0  0  0
 15 19  1  0  0  0
 13 14  1  0  0  0
  2  3  1  0  0  0
  7  8  1  0  0  0
 31 32  1  0  0  0
 36 37  1  0  0  0
M  END
> <minimizedAffinity>
-9.05766

$$$$
1AAQ_PSI_B_100


 48 48  0  0  0  0  0  0  0  0999 V2000
   -9.6376   17.5365    1.7024 C   0  0  0  0  0  0  0  0  0  0  0  0
  -10.2358   18.6198    0.8883 O   0  0  0  0  0  0  0  0  0  0  0  0
  -10.0994   19.4711    1.3326 H   0  0  0  0  0  0  0  0  0  0  0  0
  -10.2550   17.1739    3.1114 C   0  0  0  0  0  0  0  0  0  0  0  0
  -11.3905   15.0215    2.5663 C   0  0  0  0  0  0  0  0  0  0  0  0
  -10.3610   14.4908    2.1732 O   0  0  0  0  0  0  0  0  0  0  0  0
  -11.4439   16.2749    3.0504 N   0  0  0  0  0  0  0  0  0  0  0  0
  -12.3072   16.6149    3.3796 H   0  0  0  0  0  0  0  0  0  0  0  0
  -12.7058   14.2434    2.4470 C   0  0  0  0  0  0  0  0  0  0  0  0
  -13.2801   14.3331    1.0239 C   0  0  0  0  0  0  0  0  0  0  0  0
  -13.9203   14.3398    4.6004 C   0  0  0  0  0  0  0  0  0  0  0  0
  -13.4256   13.2971    5.0062 O   0  0  0  0  0  0  0  0  0  0  0  0
  -13.6310   14.8742    3.4032 N   0  0  0  0  0  0  0  0  0  0  0  0
  -14.0565   15.7261    3.1534 H   0  0  0  0  0  0  0  0  0  0  0  0
  -14.0989   16.1624    6.2176 N   0  0  0  0  0  0  0  0  0  0  0  0
  -14.8491   15.1665    5.4911 C   0  0  0  0  0  0  0  0  0  0  0  0
  -15.8890   15.8874    4.6387 C   0  0  0  0  0  0  0  0  0  0  0  0
  -13.3955   15.7031    6.7962 H   0  0  0  0  0  0  0  0  0  0  0  0
  -14.7314   16.6979    6.8122 H   0  0  0  0  0  0  0  0  0  0  0  0
   -9.1571   16.5644    3.9998 C   0  0  0  0  0  0  0  0  0  0  0  0
   -9.4578   16.6319    5.4885 C   0  0  0  0  0  0  0  0  0  0  0  0
  -10.4274   15.8079    6.0834 C   0  0  0  0  0  0  0  0  0  0  0  0
   -8.7036   17.5093    6.2917 C   0  0  0  0  0  0  0  0  0  0  0  0
  -10.6488   15.8784    7.4679 C   0  0  0  0  0  0  0  0  0  0  0  0
   -8.9317   17.5847    7.6708 C   0  0  0  0  0  0  0  0  0  0  0  0
   -9.8944   16.7559    8.2639 C   0  0  0  0  0  0  0  0  0  0  0  0
   -8.1617   17.9235    1.9021 C   0  0  0  0  0  0  0  0  0  0  0  0
   -7.5736   18.6909    0.6964 C   0  0  0  0  0  0  0  0  0  0  0  0
   -7.4384   17.8220   -0.5602 C   0  0  0  0  0  0  0  0  0  0  0  0
   -6.5153   17.0180   -0.6083 O   0  0  0  0  0  0  0  0  0  0  0  0
   -8.2795   17.9998   -1.5996 N   0  0  0  0  0  0  0  0  0  0  0  0
   -9.0537   18.6021   -1.5159 H   0  0  0  0  0  0  0  0  0  0  0  0
   -8.0251   17.2775   -2.8705 C   0  0  0  0  0  0  0  0  0  0  0  0
   -7.2298   18.2282   -3.7918 C   0  0  0  0  0  0  0  0  0  0  0  0
   -7.6790   18.6545   -4.8474 O   0  0  0  0  0  0  0  0  0  0  0  0
   -6.0212   18.5208   -3.3158 N   0  0  0  0  0  0  0  0  0  0  0  0
   -5.8197   18.0848   -2.4564 H   0  0  0  0  0  0  0  0  0  0  0  0
   -4.9244   19.3680   -3.8199 C   0  0  0  0  0  0  0  0  0  0  0  0
   -4.1790   20.0191   -2.6041 C   0  0  0  0  0  0  0  0  0  0  0  0
   -5.0410   21.0708   -1.8439 C   0  0  0  0  0  0  0  0  0  0  0  0
   -3.7799   18.9703   -1.5401 C   0  0  0  0  0  0  0  0  0  0  0  0
   -3.9924   18.5226   -4.7950 C   0  0  0  0  0  0  0  0  0  0  0  0
   -3.3336   17.2689   -4.3913 O   0  0  0  0  0  0  0  0  0  0  0  0
   -4.6465   17.1117   -6.6181 C   0  0  0  0  0  0  0  0  0  0  0  0
   -4.4942   18.4569   -6.1308 O   0  0  0  0  0  0  0  0  0  0  0  0
   -9.3193   16.7194   -3.5032 C   0  0  0  0  0  0  0  0  0  0  0  0
   -9.0739   15.3889   -4.2441 C   0  0  0  0  0  0  0  0  0  0  0  0
  -10.3813   16.4519   -2.4168 C   0  0  0  0  0  0  0  0  0  0  0  0
 15 16  1  0  0  0
 16 11  1  0  0  0
 16 17  1  0  0  0
 11 12  2  0  0  0
 13  9  1  0  0  0
  9  5  1  0  0  0
  9 10  1  0  0  0
  5  6  2  0  0  0
  7  4  1  0  0  0
  4  1  1  0  0  0
  4 20  1  0  0  0
  1  2  1  0  0  0
  1 27  1  0  0  0
 20 21  1  0  0  0
 21 22  2  0  0  0
 21 23  1  0  0  0
 22 24  1  0  0  0
 23 25  2  0  0  0
 24 26  2  0  0  0
 25 26  1  0  0  0
 28 29  1  0  0  0
 29 30  2  0  0  0
 31 33  1  0  0  0
 33 34  1  0  0  0
 33 46  1  0  0  0
 34 35  2  0  0  0
 46 47  1  0  0  0
 46 48  1  0  0  0
 36 38  1  0  0  0
 38 42  1  0  0  0
 38 39  1  0  0  0
 42 43  2  0  0  0
 39 40  1  0  0  0
 39 41  1  0  0  0
 44 45  1  0  0  0
 11 13  1  0  0  0
  5  7  1  0  0  0
 27 28  1  0  0  0
 29 31  1  0  0  0
 34 36  1  0  0  0
 42 45  1  0  0  0
 15 18  1  0  0  0
 15 19  1  0  0  0
 13 14  1  0  0  0
  2  3  1  0  0  0
  7  8  1  0  0  0
 31 32  1  0  0  0
 36 37  1  0  0  0
M  END
> <minimizedAffinity>
-8.86518

$$$$
1AAQ_PSI_B_100


 48 48  0  0  0  0  0  0  0  0999 V2000
  -10.3765   17.3689    0.6697 C   0  0  0  0  0  0  0  0  0  0  0  0
  -11.1261   18.4945    1.2740 O   0  0  0  0  0  0  0  0  0  0  0  0
  -11.8010   18.8053    0.6504 H   0  0  0  0  0  0  0  0  0  0  0  0
   -9.4476   17.6206   -0.5841 C   0  0  0  0  0  0  0  0  0  0  0  0
   -7.1557   17.4745    0.3884 C   0  0  0  0  0  0  0  0  0  0  0  0
   -7.2896   16.3052    0.7211 O   0  0  0  0  0  0  0  0  0  0  0  0
   -8.1044   18.1790   -0.2536 N   0  0  0  0  0  0  0  0  0  0  0  0
   -7.9032   19.1059   -0.5177 H   0  0  0  0  0  0  0  0  0  0  0  0
   -5.8627   18.2013    0.7750 C   0  0  0  0  0  0  0  0  0  0  0  0
   -6.0203   19.7253    0.6500 C   0  0  0  0  0  0  0  0  0  0  0  0
   -4.8502   18.0276   -1.4759 C   0  0  0  0  0  0  0  0  0  0  0  0
   -5.6989   18.7437   -1.9895 O   0  0  0  0  0  0  0  0  0  0  0  0
   -4.8384   17.7228   -0.1684 N   0  0  0  0  0  0  0  0  0  0  0  0
   -4.1121   17.1537    0.1751 H   0  0  0  0  0  0  0  0  0  0  0  0
   -3.9870   17.5046   -3.7007 N   0  0  0  0  0  0  0  0  0  0  0  0
   -3.6700   17.4995   -2.2929 C   0  0  0  0  0  0  0  0  0  0  0  0
   -2.4466   18.3860   -2.0811 C   0  0  0  0  0  0  0  0  0  0  0  0
   -4.8039   16.9170   -3.8675 H   0  0  0  0  0  0  0  0  0  0  0  0
   -3.1936   17.1417   -4.2292 H   0  0  0  0  0  0  0  0  0  0  0  0
   -9.3117   16.3114   -1.3802 C   0  0  0  0  0  0  0  0  0  0  0  0
   -9.4422   16.4862   -2.8847 C   0  0  0  0  0  0  0  0  0  0  0  0
  -10.5737   16.0356   -3.5844 C   0  0  0  0  0  0  0  0  0  0  0  0
   -8.4209   17.1646   -3.5779 C   0  0  0  0  0  0  0  0  0  0  0  0
  -10.6689   16.2485   -4.9687 C   0  0  0  0  0  0  0  0  0  0  0  0
   -8.5132   17.3684   -4.9597 C   0  0  0  0  0  0  0  0  0  0  0  0
   -9.6468   16.9248   -5.6550 C   0  0  0  0  0  0  0  0  0  0  0  0
  -11.4306   16.3138    0.2912 C   0  0  0  0  0  0  0  0  0  0  0  0
  -12.3885   15.9768    1.4563 C   0  0  0  0  0  0  0  0  0  0  0  0
  -11.6596   15.4569    2.7016 C   0  0  0  0  0  0  0  0  0  0  0  0
  -11.4046   14.2602    2.7624 O   0  0  0  0  0  0  0  0  0  0  0  0
  -11.3765   16.2955    3.7194 N   0  0  0  0  0  0  0  0  0  0  0  0
  -11.5287   17.2634    3.6238 H   0  0  0  0  0  0  0  0  0  0  0  0
  -10.8331   15.7430    4.9848 C   0  0  0  0  0  0  0  0  0  0  0  0
  -12.0273   15.4966    5.9325 C   0  0  0  0  0  0  0  0  0  0  0  0
  -12.1493   16.0726    7.0055 O   0  0  0  0  0  0  0  0  0  0  0  0
  -12.8893   14.5993    5.4581 N   0  0  0  0  0  0  0  0  0  0  0  0
  -12.6318   14.2296    4.5828 H   0  0  0  0  0  0  0  0  0  0  0  0
  -14.1528   14.0493    5.9832 C   0  0  0  0  0  0  0  0  0  0  0  0
  -15.0969   13.6968    4.7823 C   0  0  0  0  0  0  0  0  0  0  0  0
  -15.4597   14.9292    3.9010 C   0  0  0  0  0  0  0  0  0  0  0  0
  -14.4491   12.6784    3.8156 C   0  0  0  0  0  0  0  0  0  0  0  0
  -13.8469   12.8351    6.9662 C   0  0  0  0  0  0  0  0  0  0  0  0
  -12.9783   12.9571    8.1491 O   0  0  0  0  0  0  0  0  0  0  0  0
  -14.9268   11.3271    8.4834 C   0  0  0  0  0  0  0  0  0  0  0  0
  -14.9932   12.0232    7.2258 O   0  0  0  0  0  0  0  0  0  0  0  0
   -9.7197   16.6286    5.5872 C   0  0  0  0  0  0  0  0  0  0  0  0
   -8.5886   15.7886    6.2151 C   0  0  0  0  0  0  0  0  0  0  0  0
   -9.0835   17.5150    4.4967 C   0  0  0  0  0  0  0  0  0  0  0  0
 15 16  1  0  0  0
 16 11  1  0  0  0
 16 17  1  0  0  0
 11 12  2  0  0  0
 13  9  1  0  0  0
  9  5  1  0  0  0
  9 10  1  0  0  0
  5  6  2  0  0  0
  7  4  1  0  0  0
  4  1  1  0  0  0
  4 20  1  0  0  0
  1  2  1  0  0  0
  1 27  1  0  0  0
 20 21  1  0  0  0
 21 22  2  0  0  0
 21 23  1  0  0  0
 22 24  1  0  0  0
 23 25  2  0  0  0
 24 26  2  0  0  0
 25 26  1  0  0  0
 28 29  1  0  0  0
 29 30  2  0  0  0
 31 33  1  0  0  0
 33 34  1  0  0  0
 33 46  1  0  0  0
 34 35  2  0  0  0
 46 47  1  0  0  0
 46 48  1  0  0  0
 36 38  1  0  0  0
 38 42  1  0  0  0
 38 39  1  0  0  0
 42 43  2  0  0  0
 39 40  1  0  0  0
 39 41  1  0  0  0
 44 45  1  0  0  0
 11 13  1  0  0  0
  5  7  1  0  0  0
 27 28  1  0  0  0
 29 31  1  0  0  0
 34 36  1  0  0  0
 42 45  1  0  0  0
 15 18  1  0  0  0
 15 19  1  0  0  0
 13 14  1  0  0  0
  2  3  1  0  0  0
  7  8  1  0  0  0
 31 32  1  0  0  0
 36 37  1  0  0  0
M  END
> <minimizedAffinity>
-8.83487

$$$$
1AAQ_PSI_B_100


 48 48  0  0  0  0  0  0  0  0999 V2000
   -9.4139   17.4484    1.5619 C   0  0  0  0  0  0  0  0  0  0  0  0
  -10.5062   18.4296    1.7575 O   0  0  0  0  0  0  0  0  0  0  0  0
  -10.4647   18.7840    2.6595 H   0  0  0  0  0  0  0  0  0  0  0  0
   -9.4265   16.0827    2.3576 C   0  0  0  0  0  0  0  0  0  0  0  0
   -9.5010   16.2407    4.8454 C   0  0  0  0  0  0  0  0  0  0  0  0
   -8.2864   16.3390    4.9508 O   0  0  0  0  0  0  0  0  0  0  0  0
  -10.1399   16.1387    3.6664 N   0  0  0  0  0  0  0  0  0  0  0  0
  -11.1236   16.0992    3.6672 H   0  0  0  0  0  0  0  0  0  0  0  0
  -10.3425   16.1673    6.1244 C   0  0  0  0  0  0  0  0  0  0  0  0
   -9.5306   15.5881    7.2942 C   0  0  0  0  0  0  0  0  0  0  0  0
  -12.6166   15.2726    6.5116 C   0  0  0  0  0  0  0  0  0  0  0  0
  -12.8242   16.0178    7.4595 O   0  0  0  0  0  0  0  0  0  0  0  0
  -11.4730   15.2783    5.8083 N   0  0  0  0  0  0  0  0  0  0  0  0
  -11.3863   14.6603    5.0468 H   0  0  0  0  0  0  0  0  0  0  0  0
  -14.2349   13.5325    7.0791 N   0  0  0  0  0  0  0  0  0  0  0  0
  -13.7082   14.3318    5.9992 C   0  0  0  0  0  0  0  0  0  0  0  0
  -14.8585   15.1379    5.4038 C   0  0  0  0  0  0  0  0  0  0  0  0
  -13.4821   12.9833    7.4940 H   0  0  0  0  0  0  0  0  0  0  0  0
  -14.9543   12.9057    6.7187 H   0  0  0  0  0  0  0  0  0  0  0  0
  -10.0209   14.9835    1.4606 C   0  0  0  0  0  0  0  0  0  0  0  0
  -11.5267   14.8230    1.5946 C   0  0  0  0  0  0  0  0  0  0  0  0
  -12.0964   13.6997    2.2163 C   0  0  0  0  0  0  0  0  0  0  0  0
  -12.3613   15.8566    1.1266 C   0  0  0  0  0  0  0  0  0  0  0  0
  -13.4909   13.6082    2.3498 C   0  0  0  0  0  0  0  0  0  0  0  0
  -13.7521   15.7597    1.2525 C   0  0  0  0  0  0  0  0  0  0  0  0
  -14.3185   14.6415    1.8803 C   0  0  0  0  0  0  0  0  0  0  0  0
   -8.1103   18.1947    1.8955 C   0  0  0  0  0  0  0  0  0  0  0  0
   -7.4710   18.8685    0.6603 C   0  0  0  0  0  0  0  0  0  0  0  0
   -7.3683   17.9309   -0.5491 C   0  0  0  0  0  0  0  0  0  0  0  0
   -6.4852   17.0818   -0.5466 O   0  0  0  0  0  0  0  0  0  0  0  0
   -8.1913   18.0958   -1.6050 N   0  0  0  0  0  0  0  0  0  0  0  0
   -8.9358   18.7384   -1.5601 H   0  0  0  0  0  0  0  0  0  0  0  0
   -7.9622   17.2979   -2.8349 C   0  0  0  0  0  0  0  0  0  0  0  0
   -7.1066   18.1572   -3.7912 C   0  0  0  0  0  0  0  0  0  0  0  0
   -7.5965   18.9518   -4.5828 O   0  0  0  0  0  0  0  0  0  0  0  0
   -5.8004   17.9345   -3.6600 N   0  0  0  0  0  0  0  0  0  0  0  0
   -5.5822   17.2565   -2.9803 H   0  0  0  0  0  0  0  0  0  0  0  0
   -4.6155   18.5014   -4.3305 C   0  0  0  0  0  0  0  0  0  0  0  0
   -3.4133   18.5125   -3.3245 C   0  0  0  0  0  0  0  0  0  0  0  0
   -3.4007   19.7611   -2.3929 C   0  0  0  0  0  0  0  0  0  0  0  0
   -3.4415   17.2928   -2.3743 C   0  0  0  0  0  0  0  0  0  0  0  0
   -4.3373   17.7197   -5.6892 C   0  0  0  0  0  0  0  0  0  0  0  0
   -5.2957   17.6830   -6.8067 O   0  0  0  0  0  0  0  0  0  0  0  0
   -2.3336   16.5890   -6.3588 C   0  0  0  0  0  0  0  0  0  0  0  0
   -2.9898   17.8514   -6.1444 O   0  0  0  0  0  0  0  0  0  0  0  0
   -9.2776   16.7785   -3.4568 C   0  0  0  0  0  0  0  0  0  0  0  0
   -9.0300   15.6364   -4.4636 C   0  0  0  0  0  0  0  0  0  0  0  0
  -10.2153   16.2308   -2.3611 C   0  0  0  0  0  0  0  0  0  0  0  0
 15 16  1  0  0  0
 16 11  1  0  0  0
 16 17  1  0  0  0
 11 12  2  0  0  0
 13  9  1  0  0  0
  9  5  1  0  0  0
  9 10  1  0  0  0
  5  6  2  0  0  0
  7  4  1  0  0  0
  4  1  1  0  0  0
  4 20  1  0  0  0
  1  2  1  0  0  0
  1 27  1  0  0  0
 20 21  1  0  0  0
 21 22  2  0  0  0
 21 23  1  0  0  0
 22 24  1  0  0  0
 23 25  2  0  0  0
 24 26  2  0  0  0
 25 26  1  0  0  0
 28 29  1  0  0  0
 29 30  2  0  0  0
 31 33  1  0  0  0
 33 34  1  0  0  0
 33 46  1  0  0  0
 34 35  2  0  0  0
 46 47  1  0  0  0
 46 48  1  0  0  0
 36 38  1  0  0  0
 38 42  1  0  0  0
 38 39  1  0  0  0
 42 43  2  0  0  0
 39 40  1  0  0  0
 39 41  1  0  0  0
 44 45  1  0  0  0
 11 13  1  0  0  0
  5  7  1  0  0  0
 27 28  1  0  0  0
 29 31  1  0  0  0
 34 36  1  0  0  0
 42 45  1  0  0  0
 15 18  1  0  0  0
 15 19  1  0  0  0
 13 14  1  0  0  0
  2  3  1  0  0  0
  7  8  1  0  0  0
 31 32  1  0  0  0
 36 37  1  0  0  0
M  END
> <minimizedAffinity>
-8.79816

$$$$
1AAQ_PSI_B_100


 48 48  0  0  0  0  0  0  0  0999 V2000
  -12.3140   15.0743    2.2445 C   0  0  0  0  0  0  0  0  0  0  0  0
  -13.0435   16.2600    1.7386 O   0  0  0  0  0  0  0  0  0  0  0  0
  -12.4553   17.0312    1.7512 H   0  0  0  0  0  0  0  0  0  0  0  0
  -11.8650   15.0094    3.7586 C   0  0  0  0  0  0  0  0  0  0  0  0
  -13.4258   13.7056    5.2020 C   0  0  0  0  0  0  0  0  0  0  0  0
  -14.2217   14.6286    5.3049 O   0  0  0  0  0  0  0  0  0  0  0  0
  -12.2955   13.7748    4.4766 N   0  0  0  0  0  0  0  0  0  0  0  0
  -11.7260   12.9740    4.4168 H   0  0  0  0  0  0  0  0  0  0  0  0
  -13.6937   12.4177    5.9889 C   0  0  0  0  0  0  0  0  0  0  0  0
  -15.0288   11.7782    5.5748 C   0  0  0  0  0  0  0  0  0  0  0  0
  -13.2526   12.0609    8.3972 C   0  0  0  0  0  0  0  0  0  0  0  0
  -12.7005   10.9856    8.2083 O   0  0  0  0  0  0  0  0  0  0  0  0
  -13.7461   12.8186    7.4048 N   0  0  0  0  0  0  0  0  0  0  0  0
  -14.1617   13.6811    7.6341 H   0  0  0  0  0  0  0  0  0  0  0  0
  -12.9948   14.0684    9.7655 N   0  0  0  0  0  0  0  0  0  0  0  0
  -13.3332   12.6660    9.7996 C   0  0  0  0  0  0  0  0  0  0  0  0
  -14.7515   12.5356   10.3465 C   0  0  0  0  0  0  0  0  0  0  0  0
  -12.0484   14.1810    9.4023 H   0  0  0  0  0  0  0  0  0  0  0  0
  -13.0450   14.4533   10.7087 H   0  0  0  0  0  0  0  0  0  0  0  0
  -10.3383   15.1806    3.8381 C   0  0  0  0  0  0  0  0  0  0  0  0
   -9.8641   15.9359    5.0692 C   0  0  0  0  0  0  0  0  0  0  0  0
   -8.6665   16.6699    5.0686 C   0  0  0  0  0  0  0  0  0  0  0  0
  -10.6790   15.9362    6.2181 C   0  0  0  0  0  0  0  0  0  0  0  0
   -8.2834   17.3814    6.2166 C   0  0  0  0  0  0  0  0  0  0  0  0
  -10.2912   16.6390    7.3649 C   0  0  0  0  0  0  0  0  0  0  0  0
   -9.0995   17.3772    7.3598 C   0  0  0  0  0  0  0  0  0  0  0  0
  -11.0630   14.9379    1.3590 C   0  0  0  0  0  0  0  0  0  0  0  0
  -10.9615   16.0475    0.2879 C   0  0  0  0  0  0  0  0  0  0  0  0
   -9.8888   15.7635   -0.7708 C   0  0  0  0  0  0  0  0  0  0  0  0
   -8.9867   14.9861   -0.4831 O   0  0  0  0  0  0  0  0  0  0  0  0
   -9.9166   16.4120   -1.9532 N   0  0  0  0  0  0  0  0  0  0  0  0
  -10.6842   16.9809   -2.1909 H   0  0  0  0  0  0  0  0  0  0  0  0
   -8.7776   16.2587   -2.8917 C   0  0  0  0  0  0  0  0  0  0  0  0
   -7.9119   17.5328   -2.7808 C   0  0  0  0  0  0  0  0  0  0  0  0
   -7.8865   18.3924   -3.6516 O   0  0  0  0  0  0  0  0  0  0  0  0
   -7.2072   17.5842   -1.6522 N   0  0  0  0  0  0  0  0  0  0  0  0
   -7.3422   16.8041   -1.0670 H   0  0  0  0  0  0  0  0  0  0  0  0
   -6.2647   18.5774   -1.1044 C   0  0  0  0  0  0  0  0  0  0  0  0
   -6.3025   18.5112    0.4615 C   0  0  0  0  0  0  0  0  0  0  0  0
   -7.2111   19.6021    1.1028 C   0  0  0  0  0  0  0  0  0  0  0  0
   -6.8604   17.1620    0.9710 C   0  0  0  0  0  0  0  0  0  0  0  0
   -4.8224   18.3641   -1.7435 C   0  0  0  0  0  0  0  0  0  0  0  0
   -4.1542   17.0530   -1.8015 O   0  0  0  0  0  0  0  0  0  0  0  0
   -5.2177   20.4286   -2.8939 C   0  0  0  0  0  0  0  0  0  0  0  0
   -4.6235   19.1190   -2.9398 O   0  0  0  0  0  0  0  0  0  0  0  0
   -9.2360   15.9286   -4.3297 C   0  0  0  0  0  0  0  0  0  0  0  0
   -9.2232   14.4113   -4.6070 C   0  0  0  0  0  0  0  0  0  0  0  0
  -10.6764   16.4275   -4.5666 C   0  0  0  0  0  0  0  0  0  0  0  0
 15 16  1  0  0  0
 16 11  1  0  0  0
 16 17  1  0  0  0
 11 12  2  0  0  0
 13  9  1  0  0  0
  9  5  1  0  0  0
  9 10  1  0  0  0
  5  6  2  0  0  0
  7  4  1  0  0  0
  4  1  1  0  0  0
  4 20  1  0  0  0
  1  2  1  0  0  0
  1 27  1  0  0  0
 20 21  1  0  0  0
 21 22  2  0  0  0
 21 23  1  0  0  0
 22 24  1  0  0  0
 23 25  2  0  0  0
 24 26  2  0  0  0
 25 26  1  0  0  0
 28 29  1  0  0  0
 29 30  2  0  0  0
 31 33  1  0  0  0
 33 34  1  0  0  0
 33 46  1  0  0  0
 34 35  2  0  0  0
 46 47  1  0  0  0
 46 48  1  0  0  0
 36 38  1  0  0  0
 38 42  1  0  0  0
 38 39  1  0  0  0
 42 43  2  0  0  0
 39 40  1  0  0  0
 39 41  1  0  0  0
 44 45  1  0  0  0
 11 13  1  0  0  0
  5  7  1  0  0  0
 27 28  1  0  0  0
 29 31  1  0  0  0
 34 36  1  0  0  0
 42 45  1  0  0  0
 15 18  1  0  0  0
 15 19  1  0  0  0
 13 14  1  0  0  0
  2  3  1  0  0  0
  7  8  1  0  0  0
 31 32  1  0  0  0
 36 37  1  0  0  0
M  END
> <minimizedAffinity>
-8.75898

$$$$
1AAQ_PSI_B_100


 48 48  0  0  0  0  0  0  0  0999 V2000
  -11.0449   17.1782    1.8035 C   0  0  0  0  0  0  0  0  0  0  0  0
  -11.6738   18.5154    1.7019 O   0  0  0  0  0  0  0  0  0  0  0  0
  -11.7735   18.7557    0.7675 H   0  0  0  0  0  0  0  0  0  0  0  0
   -9.5477   16.9718    1.3411 C   0  0  0  0  0  0  0  0  0  0  0  0
   -8.8413   16.5981   -1.0213 C   0  0  0  0  0  0  0  0  0  0  0  0
   -8.6914   15.3942   -0.8654 O   0  0  0  0  0  0  0  0  0  0  0  0
   -9.2643   17.4273   -0.0508 N   0  0  0  0  0  0  0  0  0  0  0  0
   -9.3928   18.3787   -0.2690 H   0  0  0  0  0  0  0  0  0  0  0  0
   -8.4705   17.2117   -2.3761 C   0  0  0  0  0  0  0  0  0  0  0  0
   -9.1106   16.4318   -3.5360 C   0  0  0  0  0  0  0  0  0  0  0  0
   -6.1827   17.8851   -1.7172 C   0  0  0  0  0  0  0  0  0  0  0  0
   -6.5833   18.6906   -0.8881 O   0  0  0  0  0  0  0  0  0  0  0  0
   -7.0030   17.1286   -2.4639 N   0  0  0  0  0  0  0  0  0  0  0  0
   -6.6054   16.4896   -3.0986 H   0  0  0  0  0  0  0  0  0  0  0  0
   -4.3355   17.6050   -3.2914 N   0  0  0  0  0  0  0  0  0  0  0  0
   -4.6871   17.6167   -1.8920 C   0  0  0  0  0  0  0  0  0  0  0  0
   -3.8742   18.7128   -1.2099 C   0  0  0  0  0  0  0  0  0  0  0  0
   -4.8679   16.8782   -3.7697 H   0  0  0  0  0  0  0  0  0  0  0  0
   -3.3380   17.4163   -3.3898 H   0  0  0  0  0  0  0  0  0  0  0  0
   -8.6113   17.6688    2.3429 C   0  0  0  0  0  0  0  0  0  0  0  0
   -8.5817   17.0190    3.7169 C   0  0  0  0  0  0  0  0  0  0  0  0
   -8.4888   17.7825    4.8922 C   0  0  0  0  0  0  0  0  0  0  0  0
   -8.7033   15.6185    3.8055 C   0  0  0  0  0  0  0  0  0  0  0  0
   -8.4997   17.1435    6.1422 C   0  0  0  0  0  0  0  0  0  0  0  0
   -8.7051   14.9822    5.0523 C   0  0  0  0  0  0  0  0  0  0  0  0
   -8.6201   15.7465    6.2245 C   0  0  0  0  0  0  0  0  0  0  0  0
  -11.9412   16.2267    0.9917 C   0  0  0  0  0  0  0  0  0  0  0  0
  -11.9736   14.7934    1.5688 C   0  0  0  0  0  0  0  0  0  0  0  0
  -13.3422   14.4089    2.1446 C   0  0  0  0  0  0  0  0  0  0  0  0
  -14.2895   15.1540    1.9253 O   0  0  0  0  0  0  0  0  0  0  0  0
  -13.4653   13.3148    2.9238 N   0  0  0  0  0  0  0  0  0  0  0  0
  -12.7091   12.6939    3.0331 H   0  0  0  0  0  0  0  0  0  0  0  0
  -14.7530   13.0573    3.6146 C   0  0  0  0  0  0  0  0  0  0  0  0
  -14.7364   13.8552    4.9368 C   0  0  0  0  0  0  0  0  0  0  0  0
  -15.5806   14.6980    5.2107 O   0  0  0  0  0  0  0  0  0  0  0  0
  -13.7150   13.5292    5.7263 N   0  0  0  0  0  0  0  0  0  0  0  0
  -13.1279   12.8365    5.3459 H   0  0  0  0  0  0  0  0  0  0  0  0
  -13.2883   13.9995    7.0574 C   0  0  0  0  0  0  0  0  0  0  0  0
  -12.7375   12.7831    7.8787 C   0  0  0  0  0  0  0  0  0  0  0  0
  -12.5809   13.0861    9.3989 C   0  0  0  0  0  0  0  0  0  0  0  0
  -13.6773   11.5577    7.8000 C   0  0  0  0  0  0  0  0  0  0  0  0
  -12.2684   15.2118    6.9012 C   0  0  0  0  0  0  0  0  0  0  0  0
  -12.0499   15.9202    5.6287 O   0  0  0  0  0  0  0  0  0  0  0  0
  -10.9809   16.3828    8.5483 C   0  0  0  0  0  0  0  0  0  0  0  0
  -12.2882   16.1064    8.0147 O   0  0  0  0  0  0  0  0  0  0  0  0
  -15.0396   11.5493    3.7893 C   0  0  0  0  0  0  0  0  0  0  0  0
  -13.7996   10.7787    4.2874 C   0  0  0  0  0  0  0  0  0  0  0  0
  -16.1642   11.3280    4.8218 C   0  0  0  0  0  0  0  0  0  0  0  0
 15 16  1  0  0  0
 16 11  1  0  0  0
 16 17  1  0  0  0
 11 12  2  0  0  0
 13  9  1  0  0  0
  9  5  1  0  0  0
  9 10  1  0  0  0
  5  6  2  0  0  0
  7  4  1  0  0  0
  4  1  1  0  0  0
  4 20  1  0  0  0
  1  2  1  0  0  0
  1 27  1  0  0  0
 20 21  1  0  0  0
 21 22  2  0  0  0
 21 23  1  0  0  0
 22 24  1  0  0  0
 23 25  2  0  0  0
 24 26  2  0  0  0
 25 26  1  0  0  0
 28 29  1  0  0  0
 29 30  2  0  0  0
 31 33  1  0  0  0
 33 34  1  0  0  0
 33 46  1  0  0  0
 34 35  2  0  0  0
 46 47  1  0  0  0
 46 48  1  0  0  0
 36 38  1  0  0  0
 38 42  1  0  0  0
 38 39  1  0  0  0
 42 43  2  0  0  0
 39 40  1  0  0  0
 39 41  1  0  0  0
 44 45  1  0  0  0
 11 13  1  0  0  0
  5  7  1  0  0  0
 27 28  1  0  0  0
 29 31  1  0  0  0
 34 36  1  0  0  0
 42 45  1  0  0  0
 15 18  1  0  0  0
 15 19  1  0  0  0
 13 14  1  0  0  0
  2  3  1  0  0  0
  7  8  1  0  0  0
 31 32  1  0  0  0
 36 37  1  0  0  0
M  END
> <minimizedAffinity>
-8.66635

$$$$
1AAQ_PSI_B_100


 48 48  0  0  0  0  0  0  0  0999 V2000
   -9.4052   18.2024    0.3921 C   0  0  0  0  0  0  0  0  0  0  0  0
  -10.3536   19.3289    0.5513 O   0  0  0  0  0  0  0  0  0  0  0  0
  -10.3672   19.6115    1.4792 H   0  0  0  0  0  0  0  0  0  0  0  0
   -9.7166   16.8061    1.0640 C   0  0  0  0  0  0  0  0  0  0  0  0
   -9.5316   16.4506    3.5255 C   0  0  0  0  0  0  0  0  0  0  0  0
   -8.4080   15.9734    3.4483 O   0  0  0  0  0  0  0  0  0  0  0  0
  -10.2259   16.8955    2.4632 N   0  0  0  0  0  0  0  0  0  0  0  0
  -11.1109   17.2987    2.6160 H   0  0  0  0  0  0  0  0  0  0  0  0
  -10.2163   16.4908    4.8963 C   0  0  0  0  0  0  0  0  0  0  0  0
   -9.1938   16.3486    6.0353 C   0  0  0  0  0  0  0  0  0  0  0  0
  -12.2501   15.3174    5.6763 C   0  0  0  0  0  0  0  0  0  0  0  0
  -12.5853   16.2383    6.4087 O   0  0  0  0  0  0  0  0  0  0  0  0
  -11.1473   15.3502    4.9112 N   0  0  0  0  0  0  0  0  0  0  0  0
  -10.9524   14.5767    4.3341 H   0  0  0  0  0  0  0  0  0  0  0  0
  -12.9090   13.1499    6.5910 N   0  0  0  0  0  0  0  0  0  0  0  0
  -13.1367   14.0819    5.5131 C   0  0  0  0  0  0  0  0  0  0  0  0
  -14.6080   14.4847    5.5400 C   0  0  0  0  0  0  0  0  0  0  0  0
  -11.9294   12.8655    6.5933 H   0  0  0  0  0  0  0  0  0  0  0  0
  -13.5010   12.3294    6.4618 H   0  0  0  0  0  0  0  0  0  0  0  0
  -10.7024   16.0288    0.1749 C   0  0  0  0  0  0  0  0  0  0  0  0
  -10.2380   15.8607   -1.2628 C   0  0  0  0  0  0  0  0  0  0  0  0
   -8.9949   15.2855   -1.5741 C   0  0  0  0  0  0  0  0  0  0  0  0
  -11.1052   16.2470   -2.3033 C   0  0  0  0  0  0  0  0  0  0  0  0
   -8.6202   15.1173   -2.9166 C   0  0  0  0  0  0  0  0  0  0  0  0
  -10.7264   16.0868   -3.6413 C   0  0  0  0  0  0  0  0  0  0  0  0
   -9.4887   15.5053   -3.9500 C   0  0  0  0  0  0  0  0  0  0  0  0
   -8.0536   18.7090    0.9252 C   0  0  0  0  0  0  0  0  0  0  0  0
   -6.8490   17.9434    0.3325 C   0  0  0  0  0  0  0  0  0  0  0  0
   -5.8440   18.8606   -0.3753 C   0  0  0  0  0  0  0  0  0  0  0  0
   -5.8882   20.0604   -0.1318 O   0  0  0  0  0  0  0  0  0  0  0  0
   -4.9896   18.3524   -1.2870 N   0  0  0  0  0  0  0  0  0  0  0  0
   -4.9241   17.3791   -1.4194 H   0  0  0  0  0  0  0  0  0  0  0  0
   -4.1494   19.2766   -2.0881 C   0  0  0  0  0  0  0  0  0  0  0  0
   -4.9560   19.6606   -3.3478 C   0  0  0  0  0  0  0  0  0  0  0  0
   -5.4076   20.7841   -3.5263 O   0  0  0  0  0  0  0  0  0  0  0  0
   -5.1036   18.6466   -4.1981 N   0  0  0  0  0  0  0  0  0  0  0  0
   -4.6820   17.8111   -3.8925 H   0  0  0  0  0  0  0  0  0  0  0  0
   -5.7732   18.5262   -5.5066 C   0  0  0  0  0  0  0  0  0  0  0  0
   -5.0112   17.4683   -6.3771 C   0  0  0  0  0  0  0  0  0  0  0  0
   -4.7485   17.9451   -7.8368 C   0  0  0  0  0  0  0  0  0  0  0  0
   -3.6165   17.1370   -5.7972 C   0  0  0  0  0  0  0  0  0  0  0  0
   -7.3215   18.2219   -5.2958 C   0  0  0  0  0  0  0  0  0  0  0  0
   -8.0913   18.7274   -4.1467 O   0  0  0  0  0  0  0  0  0  0  0  0
   -9.1646   17.3419   -6.5489 C   0  0  0  0  0  0  0  0  0  0  0  0
   -8.0728   18.2782   -6.5093 O   0  0  0  0  0  0  0  0  0  0  0  0
   -2.7493   18.6954   -2.3861 C   0  0  0  0  0  0  0  0  0  0  0  0
   -1.6484   19.3822   -1.5521 C   0  0  0  0  0  0  0  0  0  0  0  0
   -2.7063   17.1896   -2.0538 C   0  0  0  0  0  0  0  0  0  0  0  0
 15 16  1  0  0  0
 16 11  1  0  0  0
 16 17  1  0  0  0
 11 12  2  0  0  0
 13  9  1  0  0  0
  9  5  1  0  0  0
  9 10  1  0  0  0
  5  6  2  0  0  0
  7  4  1  0  0  0
  4  1  1  0  0  0
  4 20  1  0  0  0
  1  2  1  0  0  0
  1 27  1  0  0  0
 20 21  1  0  0  0
 21 22  2  0  0  0
 21 23  1  0  0  0
 22 24  1  0  0  0
 23 25  2  0  0  0
 24 26  2  0  0  0
 25 26  1  0  0  0
 28 29  1  0  0  0
 29 30  2  0  0  0
 31 33  1  0  0  0
 33 34  1  0  0  0
 33 46  1  0  0  0
 34 35  2  0  0  0
 46 47  1  0  0  0
 46 48  1  0  0  0
 36 38  1  0  0  0
 38 42  1  0  0  0
 38 39  1  0  0  0
 42 43  2  0  0  0
 39 40  1  0  0  0
 39 41  1  0  0  0
 44 45  1  0  0  0
 11 13  1  0  0  0
  5  7  1  0  0  0
 27 28  1  0  0  0
 29 31  1  0  0  0
 34 36  1  0  0  0
 42 45  1  0  0  0
 15 18  1  0  0  0
 15 19  1  0  0  0
 13 14  1  0  0  0
  2  3  1  0  0  0
  7  8  1  0  0  0
 31 32  1  0  0  0
 36 37  1  0  0  0
M  END
> <minimizedAffinity>
-8.58037

$$$$
