5OHA_9UW_A_202


  8  8  0  0  0  0  0  0  0  0999 V2000
   21.5703   16.0810   -7.7632 O   0  0  0  0  0  0  0  0  0  0  0  0
   22.5289   16.9435   -7.7280 C   0  0  0  0  0  0  0  0  0  0  0  0
   22.6333   18.0343   -6.7015 C   0  0  0  0  0  0  0  0  0  0  0  0
   23.9101   18.6543   -7.1261 N   0  0  0  0  0  0  0  0  0  0  0  0
   24.3284   17.8732   -8.1447 C   0  0  0  0  0  0  0  0  0  0  0  0
   23.5587   16.8220   -8.5983 N   0  0  0  0  0  0  0  0  0  0  0  0
   25.8587   18.2518   -8.9850 S   0  0  0  0  0  0  0  0  0  0  0  0
   23.7113   16.1809   -9.3297 H   0  0  0  0  0  0  0  0  0  0  0  0
  7  5  2  0  0  0
  6  5  1  0  0  0
  6  2  1  0  0  0
  5  4  1  0  0  0
  2  1  2  0  0  0
  2  3  1  0  0  0
  4  3  2  0  0  0
  6  8  1  0  0  0
M  END
> <minimizedAffinity>
-4.70115

$$$$
5OHA_9UW_A_202


  8  8  0  0  0  0  0  0  0  0999 V2000
   22.1705   18.0059   -6.4030 O   0  0  0  0  0  0  0  0  0  0  0  0
   23.1893   17.9704   -7.1936 C   0  0  0  0  0  0  0  0  0  0  0  0
   23.3937   16.9185   -8.2453 C   0  0  0  0  0  0  0  0  0  0  0  0
   24.6610   17.4040   -8.8397 N   0  0  0  0  0  0  0  0  0  0  0  0
   24.9103   18.5550   -8.1797 C   0  0  0  0  0  0  0  0  0  0  0  0
   24.0911   18.9793   -7.1541 N   0  0  0  0  0  0  0  0  0  0  0  0
   26.3710   19.5060   -8.5713 S   0  0  0  0  0  0  0  0  0  0  0  0
   24.1455   19.7718   -6.5726 H   0  0  0  0  0  0  0  0  0  0  0  0
  7  5  2  0  0  0
  6  5  1  0  0  0
  6  2  1  0  0  0
  5  4  1  0  0  0
  2  1  2  0  0  0
  2  3  1  0  0  0
  4  3  2  0  0  0
  6  8  1  0  0  0
M  END
> <minimizedAffinity>
-4.23899

$$$$
5OHA_9UW_A_202


  8  8  0  0  0  0  0  0  0  0999 V2000
   22.7000   16.8901   -7.9987 O   0  0  0  0  0  0  0  0  0  0  0  0
   23.8062   17.5538   -7.9950 C   0  0  0  0  0  0  0  0  0  0  0  0
   25.0245   17.1503   -8.7744 C   0  0  0  0  0  0  0  0  0  0  0  0
   25.9266   18.2722   -8.4244 N   0  0  0  0  0  0  0  0  0  0  0  0
   25.1586   19.0830   -7.6659 C   0  0  0  0  0  0  0  0  0  0  0  0
   23.8665   18.7330   -7.3328 N   0  0  0  0  0  0  0  0  0  0  0  0
   25.8451   20.5930   -7.0026 S   0  0  0  0  0  0  0  0  0  0  0  0
   23.1950   19.1977   -6.7829 H   0  0  0  0  0  0  0  0  0  0  0  0
  7  5  2  0  0  0
  6  5  1  0  0  0
  6  2  1  0  0  0
  5  4  1  0  0  0
  2  1  2  0  0  0
  2  3  1  0  0  0
  4  3  2  0  0  0
  6  8  1  0  0  0
M  END
> <minimizedAffinity>
-3.90158

$$$$
5OHA_9UW_A_202


  8  8  0  0  0  0  0  0  0  0999 V2000
   25.6487   16.7132   -9.0020 O   0  0  0  0  0  0  0  0  0  0  0  0
   25.2495   17.7604   -8.3631 C   0  0  0  0  0  0  0  0  0  0  0  0
   23.9052   17.8744   -7.7041 C   0  0  0  0  0  0  0  0  0  0  0  0
   24.0295   19.2294   -7.1179 N   0  0  0  0  0  0  0  0  0  0  0  0
   25.2919   19.6002   -7.4199 C   0  0  0  0  0  0  0  0  0  0  0  0
   26.1081   18.7916   -8.1836 N   0  0  0  0  0  0  0  0  0  0  0  0
   25.8961   21.2002   -6.9040 S   0  0  0  0  0  0  0  0  0  0  0  0
   27.0307   18.9238   -8.5006 H   0  0  0  0  0  0  0  0  0  0  0  0
  7  5  2  0  0  0
  6  5  1  0  0  0
  6  2  1  0  0  0
  5  4  1  0  0  0
  2  1  2  0  0  0
  2  3  1  0  0  0
  4  3  2  0  0  0
  6  8  1  0  0  0
M  END
> <minimizedAffinity>
-3.79191

$$$$
5OHA_9UW_A_202


  8  8  0  0  0  0  0  0  0  0999 V2000
   27.7499   19.9178   -8.4973 O   0  0  0  0  0  0  0  0  0  0  0  0
   26.5698   19.6096   -8.0771 C   0  0  0  0  0  0  0  0  0  0  0  0
   25.7379   20.4984   -7.1983 C   0  0  0  0  0  0  0  0  0  0  0  0
   24.5175   19.6659   -7.0863 N   0  0  0  0  0  0  0  0  0  0  0  0
   24.7722   18.6060   -7.8828 C   0  0  0  0  0  0  0  0  0  0  0  0
   25.9904   18.4672   -8.5152 N   0  0  0  0  0  0  0  0  0  0  0  0
   23.5536   17.3114   -8.0567 S   0  0  0  0  0  0  0  0  0  0  0  0
   26.3329   17.7563   -9.1039 H   0  0  0  0  0  0  0  0  0  0  0  0
  7  5  2  0  0  0
  6  5  1  0  0  0
  6  2  1  0  0  0
  5  4  1  0  0  0
  2  1  2  0  0  0
  2  3  1  0  0  0
  4  3  2  0  0  0
  6  8  1  0  0  0
M  END
> <minimizedAffinity>
-3.56680

$$$$
5OHA_9UW_A_202


  8  8  0  0  0  0  0  0  0  0999 V2000
   28.2634   20.4351   -5.0012 O   0  0  0  0  0  0  0  0  0  0  0  0
   27.1503   20.3890   -5.6516 C   0  0  0  0  0  0  0  0  0  0  0  0
   26.3183   21.5978   -5.9692 C   0  0  0  0  0  0  0  0  0  0  0  0
   25.2271   20.9541   -6.7372 N   0  0  0  0  0  0  0  0  0  0  0  0
   25.5975   19.6576   -6.8048 C   0  0  0  0  0  0  0  0  0  0  0  0
   26.7354   19.2081   -6.1675 N   0  0  0  0  0  0  0  0  0  0  0  0
   24.5580   18.4791   -7.6545 S   0  0  0  0  0  0  0  0  0  0  0  0
   27.1256   18.3063   -6.1066 H   0  0  0  0  0  0  0  0  0  0  0  0
  7  5  2  0  0  0
  6  5  1  0  0  0
  6  2  1  0  0  0
  5  4  1  0  0  0
  2  1  2  0  0  0
  2  3  1  0  0  0
  4  3  2  0  0  0
  6  8  1  0  0  0
M  END
> <minimizedAffinity>
-3.41066

$$$$
5OHA_9UW_A_202


  8  8  0  0  0  0  0  0  0  0999 V2000
   28.0260   20.2894   -6.4682 O   0  0  0  0  0  0  0  0  0  0  0  0
   27.0365   19.8317   -7.1579 C   0  0  0  0  0  0  0  0  0  0  0  0
   27.0248   19.7639   -8.6578 C   0  0  0  0  0  0  0  0  0  0  0  0
   25.7000   19.1349   -8.8681 N   0  0  0  0  0  0  0  0  0  0  0  0
   25.2520   18.8935   -7.6177 C   0  0  0  0  0  0  0  0  0  0  0  0
   25.9763   19.2908   -6.5128 N   0  0  0  0  0  0  0  0  0  0  0  0
   23.6555   18.1288   -7.3774 S   0  0  0  0  0  0  0  0  0  0  0  0
   25.7820   19.2069   -5.5514 H   0  0  0  0  0  0  0  0  0  0  0  0
  7  5  2  0  0  0
  6  5  1  0  0  0
  6  2  1  0  0  0
  5  4  1  0  0  0
  2  1  2  0  0  0
  2  3  1  0  0  0
  4  3  2  0  0  0
  6  8  1  0  0  0
M  END
> <minimizedAffinity>
-3.36284

$$$$
5OHA_9UW_A_202


  8  8  0  0  0  0  0  0  0  0999 V2000
   24.4327   19.7130   -7.1052 O   0  0  0  0  0  0  0  0  0  0  0  0
   25.6903   19.9525   -7.2634 C   0  0  0  0  0  0  0  0  0  0  0  0
   26.7013   19.8722   -6.1563 C   0  0  0  0  0  0  0  0  0  0  0  0
   27.9303   20.1967   -6.9175 N   0  0  0  0  0  0  0  0  0  0  0  0
   27.5021   20.3142   -8.1924 C   0  0  0  0  0  0  0  0  0  0  0  0
   26.1636   20.2015   -8.5071 N   0  0  0  0  0  0  0  0  0  0  0  0
   28.6659   20.7113   -9.4882 S   0  0  0  0  0  0  0  0  0  0  0  0
   25.6965   20.2783   -9.3703 H   0  0  0  0  0  0  0  0  0  0  0  0
  7  5  2  0  0  0
  6  5  1  0  0  0
  6  2  1  0  0  0
  5  4  1  0  0  0
  2  1  2  0  0  0
  2  3  1  0  0  0
  4  3  2  0  0  0
  6  8  1  0  0  0
M  END
> <minimizedAffinity>
-3.25901

$$$$
5OHA_9UW_A_202


  8  8  0  0  0  0  0  0  0  0999 V2000
   26.0750   18.8289  -10.0738 O   0  0  0  0  0  0  0  0  0  0  0  0
   25.9343   19.0721   -8.8147 C   0  0  0  0  0  0  0  0  0  0  0  0
   24.8172   18.5196   -7.9774 C   0  0  0  0  0  0  0  0  0  0  0  0
   25.1908   19.0847   -6.6598 N   0  0  0  0  0  0  0  0  0  0  0  0
   26.3577   19.7206   -6.8974 C   0  0  0  0  0  0  0  0  0  0  0  0
   26.8862   19.7869   -8.1700 N   0  0  0  0  0  0  0  0  0  0  0  0
   27.1942   20.5701   -5.5670 S   0  0  0  0  0  0  0  0  0  0  0  0
   27.7037   20.2206   -8.5058 H   0  0  0  0  0  0  0  0  0  0  0  0
  7  5  2  0  0  0
  6  5  1  0  0  0
  6  2  1  0  0  0
  5  4  1  0  0  0
  2  1  2  0  0  0
  2  3  1  0  0  0
  4  3  2  0  0  0
  6  8  1  0  0  0
M  END
> <minimizedAffinity>
-3.12871

$$$$
5OHA_9UW_A_202


  8  8  0  0  0  0  0  0  0  0999 V2000
   27.4565   19.6680   -5.4377 O   0  0  0  0  0  0  0  0  0  0  0  0
   26.9035   19.5656   -6.5988 C   0  0  0  0  0  0  0  0  0  0  0  0
   25.5619   18.9330   -6.8317 C   0  0  0  0  0  0  0  0  0  0  0  0
   25.4408   19.1376   -8.2940 N   0  0  0  0  0  0  0  0  0  0  0  0
   26.5480   19.8392   -8.6174 C   0  0  0  0  0  0  0  0  0  0  0  0
   27.5051   20.1358   -7.6692 N   0  0  0  0  0  0  0  0  0  0  0  0
   26.8327   20.3185  -10.3146 S   0  0  0  0  0  0  0  0  0  0  0  0
   28.3617   20.6147   -7.7469 H   0  0  0  0  0  0  0  0  0  0  0  0
  7  5  2  0  0  0
  6  5  1  0  0  0
  6  2  1  0  0  0
  5  4  1  0  0  0
  2  1  2  0  0  0
  2  3  1  0  0  0
  4  3  2  0  0  0
  6  8  1  0  0  0
M  END
> <minimizedAffinity>
-3.07187

$$$$
