1AMK_PGA_A_600
  RCSB PDB12061702003D
Coordinates from PDB:1AMK:A:600 Model:1 without hydrogens
  9  8  0  0  0  0            999 V2000
    8.0940   -1.7350   18.4460   P 0  0  0  0  0  0  0  0  0  0  0  0
    7.9310   -2.0970   16.8860   O 0  0  0  0  0  0  0  0  0  0  0  0
    8.9420   -0.5090   18.7230   O 0  0  0  0  0  0  0  0  0  0  0  0
    8.4690   -3.1080   18.9080   O 0  0  0  0  0  0  0  0  0  0  0  0
    6.5410   -1.3810   18.5750   O 0  0  0  0  0  0  0  0  0  0  0  0
    9.1670   -2.4150   16.2890   C 0  0  0  0  0  0  0  0  0  0  0  0
    8.9070   -2.4510   14.7910   C 0  0  0  0  0  0  0  0  0  0  0  0
    9.8920   -2.1350   13.9990   O 0  0  0  0  0  0  0  0  0  0  0  0
    7.8380   -2.8150   14.3180   O 0  0  0  0  0  0  0  0  0  0  0  0
  1  2  1  0  0  0  0
  1  3  2  0  0  0  0
  1  4  1  0  0  0  0
  1  5  1  0  0  0  0
  2  6  1  0  0  0  0
  6  7  1  0  0  0  0
  7  8  2  0  0  0  0
  7  9  1  0  0  0  0
A    1
P
A    2
O1P
A    3
O2P
A    4
O3P
A    5
O4P
A    6
C2
A    7
C1
A    8
O1
A    9
O2
M  END
>  <InstanceId>
1AMK_PGA_A_600

>  <ChemCompId>
PGA

>  <PdbId>
1AMK

>  <ChainId>
A

>  <ResidueNumber>
600

>  <InsertionCode>


>  <Model>
1

>  <AltIds>


>  <MissingHeavyAtoms>
0

>  <ObservedFormula>
C2 O6 P

>  <Name>
2-PHOSPHOGLYCOLIC ACID

>  <SystematicName>
2-phosphonooxyethanoic acid

>  <Synonyms>


>  <Type>
NON-POLYMER

>  <Formula>
C2 H5 O6 P

>  <MolecularWeight>
156.031

>  <ModifiedDate>
2011-06-04

>  <Parent>


>  <OneLetterCode>


>  <SubcomponentList>


>  <AmbiguousFlag>
N

>  <InChI>
InChI=1S/C2H5O6P/c3-2(4)1-8-9(5,6)7/h1H2,(H,3,4)(H2,5,6,7)

>  <InChIKey>
ASCFNMCAHFUBCO-UHFFFAOYSA-N

>  <SMILES>
C(C(=O)O)OP(=O)(O)O

$$$$
