1AMK_PGA_A_600


 12 11  0  0  0  0  0  0  0  0999 V2000
    9.0768   -2.3282   16.5965 P   0  0  0  0  0  0  0  0  0  0  0  0
    7.6137   -2.0558   16.3065 O   0  0  0  0  0  0  0  0  0  0  0  0
    9.6770   -3.6981   16.5484 O   0  0  0  0  0  0  0  0  0  0  0  0
    9.9925   -1.1692   15.9867 O   0  0  0  0  0  0  0  0  0  0  0  0
    9.0580   -4.3362   16.9365 H   0  0  0  0  0  0  0  0  0  0  0  0
    9.5294   -0.3199   16.0582 H   0  0  0  0  0  0  0  0  0  0  0  0
    9.5393   -1.9704   18.0963 O   0  0  0  0  0  0  0  0  0  0  0  0
    8.5278   -1.2990   18.8114 C   0  0  0  0  0  0  0  0  0  0  0  0
    9.2061   -0.1071   19.4689 C   0  0  0  0  0  0  0  0  0  0  0  0
    8.4426    0.8114   19.9892 O   0  0  0  0  0  0  0  0  0  0  0  0
   10.4229   -0.0167   19.5701 O   0  0  0  0  0  0  0  0  0  0  0  0
   10.9743   -0.6760   19.1968 H   0  0  0  0  0  0  0  0  0  0  0  0
  1  7  1  0  0  0
  1  2  2  0  0  0
  1  3  1  0  0  0
  1  4  1  0  0  0
  7  8  1  0  0  0
  8  9  1  0  0  0
  9 10  2  0  0  0
  9 11  1  0  0  0
  3  5  1  0  0  0
  4  6  1  0  0  0
 11 12  1  0  0  0
M  END
> <minimizedAffinity>
-6.00513

$$$$
1AMK_PGA_A_600


 12 11  0  0  0  0  0  0  0  0999 V2000
    8.8183   -1.9885   14.7817 P   0  0  0  0  0  0  0  0  0  0  0  0
    8.1980   -1.1833   13.6567 O   0  0  0  0  0  0  0  0  0  0  0  0
    9.0635   -3.4620   14.6918 O   0  0  0  0  0  0  0  0  0  0  0  0
    9.9819   -1.1535   15.4907 O   0  0  0  0  0  0  0  0  0  0  0  0
    8.3123   -3.8884   14.2504 H   0  0  0  0  0  0  0  0  0  0  0  0
    9.7423   -0.2137   15.5060 H   0  0  0  0  0  0  0  0  0  0  0  0
    7.9509   -2.0222   16.1373 O   0  0  0  0  0  0  0  0  0  0  0  0
    8.5618   -2.8115   17.1319 C   0  0  0  0  0  0  0  0  0  0  0  0
    8.5009   -1.9890   18.4096 C   0  0  0  0  0  0  0  0  0  0  0  0
    9.4005   -1.0612   18.5744 O   0  0  0  0  0  0  0  0  0  0  0  0
    7.6158   -2.1338   19.2430 O   0  0  0  0  0  0  0  0  0  0  0  0
    6.9675   -2.8004   19.1269 H   0  0  0  0  0  0  0  0  0  0  0  0
  1  7  1  0  0  0
  1  2  2  0  0  0
  1  3  1  0  0  0
  1  4  1  0  0  0
  7  8  1  0  0  0
  8  9  1  0  0  0
  9 10  2  0  0  0
  9 11  1  0  0  0
  3  5  1  0  0  0
  4  6  1  0  0  0
 11 12  1  0  0  0
M  END
> <minimizedAffinity>
-5.89471

$$$$
1AMK_PGA_A_600


 12 11  0  0  0  0  0  0  0  0999 V2000
    8.7949   -2.3663   16.8753 P   0  0  0  0  0  0  0  0  0  0  0  0
    8.2939   -2.6247   15.4677 O   0  0  0  0  0  0  0  0  0  0  0  0
    8.6446   -3.3542   17.9892 O   0  0  0  0  0  0  0  0  0  0  0  0
   10.1972   -1.6010   16.8376 O   0  0  0  0  0  0  0  0  0  0  0  0
    7.7697   -3.7698   17.9369 H   0  0  0  0  0  0  0  0  0  0  0  0
   10.2089   -0.9840   16.0892 H   0  0  0  0  0  0  0  0  0  0  0  0
    8.0852   -1.1289   17.6212 O   0  0  0  0  0  0  0  0  0  0  0  0
    8.0546   -1.3061   19.0187 C   0  0  0  0  0  0  0  0  0  0  0  0
    8.9531   -0.2223   19.5940 C   0  0  0  0  0  0  0  0  0  0  0  0
   10.2366   -0.4455   19.6071 O   0  0  0  0  0  0  0  0  0  0  0  0
    8.5180    0.8533   19.9847 O   0  0  0  0  0  0  0  0  0  0  0  0
    7.5954    1.0164   19.9764 H   0  0  0  0  0  0  0  0  0  0  0  0
  1  7  1  0  0  0
  1  2  2  0  0  0
  1  3  1  0  0  0
  1  4  1  0  0  0
  7  8  1  0  0  0
  8  9  1  0  0  0
  9 10  2  0  0  0
  9 11  1  0  0  0
  3  5  1  0  0  0
  4  6  1  0  0  0
 11 12  1  0  0  0
M  END
> <minimizedAffinity>
-5.75247

$$$$
1AMK_PGA_A_600


 12 11  0  0  0  0  0  0  0  0999 V2000
    8.9147   -1.9880   15.0160 P   0  0  0  0  0  0  0  0  0  0  0  0
    8.9788   -3.4680   14.6929 O   0  0  0  0  0  0  0  0  0  0  0  0
   10.0782   -1.2204   15.5603 O   0  0  0  0  0  0  0  0  0  0  0  0
    8.0505   -1.2132   13.9175 O   0  0  0  0  0  0  0  0  0  0  0  0
   10.5443   -1.7619   16.2165 H   0  0  0  0  0  0  0  0  0  0  0  0
    7.3215   -1.7801   13.6208 H   0  0  0  0  0  0  0  0  0  0  0  0
    7.8710   -1.6018   16.1790 O   0  0  0  0  0  0  0  0  0  0  0  0
    7.8616   -2.5574   17.2144 C   0  0  0  0  0  0  0  0  0  0  0  0
    8.2345   -1.8012   18.4801 C   0  0  0  0  0  0  0  0  0  0  0  0
    7.4805   -1.9701   19.5291 O   0  0  0  0  0  0  0  0  0  0  0  0
    9.2337   -1.0978   18.5552 O   0  0  0  0  0  0  0  0  0  0  0  0
    9.7777   -0.9747   17.8023 H   0  0  0  0  0  0  0  0  0  0  0  0
  1  7  1  0  0  0
  1  2  2  0  0  0
  1  3  1  0  0  0
  1  4  1  0  0  0
  7  8  1  0  0  0
  8  9  1  0  0  0
  9 10  2  0  0  0
  9 11  1  0  0  0
  3  5  1  0  0  0
  4  6  1  0  0  0
 11 12  1  0  0  0
M  END
> <minimizedAffinity>
-5.59626

$$$$
1AMK_PGA_A_600


 12 11  0  0  0  0  0  0  0  0999 V2000
    9.1298   -1.3575   14.3340 P   0  0  0  0  0  0  0  0  0  0  0  0
    9.5563   -1.6600   12.9108 O   0  0  0  0  0  0  0  0  0  0  0  0
   10.0947   -0.9703   15.4102 O   0  0  0  0  0  0  0  0  0  0  0  0
    7.7494   -0.5524   14.3446 O   0  0  0  0  0  0  0  0  0  0  0  0
   10.9001   -1.5049   15.3301 H   0  0  0  0  0  0  0  0  0  0  0  0
    7.1873   -0.8649   13.6185 H   0  0  0  0  0  0  0  0  0  0  0  0
    8.4659   -2.6007   15.1119 O   0  0  0  0  0  0  0  0  0  0  0  0
    9.0310   -2.7825   16.3898 C   0  0  0  0  0  0  0  0  0  0  0  0
    7.9122   -2.5036   17.3814 C   0  0  0  0  0  0  0  0  0  0  0  0
    8.1092   -2.8392   18.6248 O   0  0  0  0  0  0  0  0  0  0  0  0
    6.8769   -1.9337   17.0612 O   0  0  0  0  0  0  0  0  0  0  0  0
    6.7327   -1.6912   16.1677 H   0  0  0  0  0  0  0  0  0  0  0  0
  1  7  1  0  0  0
  1  2  2  0  0  0
  1  3  1  0  0  0
  1  4  1  0  0  0
  7  8  1  0  0  0
  8  9  1  0  0  0
  9 10  2  0  0  0
  9 11  1  0  0  0
  3  5  1  0  0  0
  4  6  1  0  0  0
 11 12  1  0  0  0
M  END
> <minimizedAffinity>
-5.58584

$$$$
1AMK_PGA_A_600


 12 11  0  0  0  0  0  0  0  0999 V2000
    8.0553   -1.9100   18.2154 P   0  0  0  0  0  0  0  0  0  0  0  0
    8.8997   -0.8272   18.8584 O   0  0  0  0  0  0  0  0  0  0  0  0
    8.4844   -3.3415   18.1381 O   0  0  0  0  0  0  0  0  0  0  0  0
    6.5092   -1.6869   18.5525 O   0  0  0  0  0  0  0  0  0  0  0  0
    9.4310   -3.3845   17.9306 H   0  0  0  0  0  0  0  0  0  0  0  0
    6.3189   -0.7363   18.5830 H   0  0  0  0  0  0  0  0  0  0  0  0
    7.7909   -1.7053   16.6408 O   0  0  0  0  0  0  0  0  0  0  0  0
    8.7210   -2.4150   15.8557 C   0  0  0  0  0  0  0  0  0  0  0  0
    9.0590   -1.5025   14.6869 C   0  0  0  0  0  0  0  0  0  0  0  0
    8.2284   -1.4727   13.6837 O   0  0  0  0  0  0  0  0  0  0  0  0
   10.0395   -0.7693   14.6876 O   0  0  0  0  0  0  0  0  0  0  0  0
   10.6385   -0.7887   15.4079 H   0  0  0  0  0  0  0  0  0  0  0  0
  1  7  1  0  0  0
  1  2  2  0  0  0
  1  3  1  0  0  0
  1  4  1  0  0  0
  7  8  1  0  0  0
  8  9  1  0  0  0
  9 10  2  0  0  0
  9 11  1  0  0  0
  3  5  1  0  0  0
  4  6  1  0  0  0
 11 12  1  0  0  0
M  END
> <minimizedAffinity>
-5.48850

$$$$
1AMK_PGA_A_600


 12 11  0  0  0  0  0  0  0  0999 V2000
    9.1589   -2.4189   16.7618 P   0  0  0  0  0  0  0  0  0  0  0  0
    9.5608   -3.6405   15.9586 O   0  0  0  0  0  0  0  0  0  0  0  0
   10.1508   -1.4526   17.3289 O   0  0  0  0  0  0  0  0  0  0  0  0
    7.8449   -1.7515   16.1439 O   0  0  0  0  0  0  0  0  0  0  0  0
   10.9124   -1.9398   17.6802 H   0  0  0  0  0  0  0  0  0  0  0  0
    7.2604   -2.4456   15.8011 H   0  0  0  0  0  0  0  0  0  0  0  0
    8.4008   -2.7465   18.1435 O   0  0  0  0  0  0  0  0  0  0  0  0
    7.3193   -1.8721   18.3690 C   0  0  0  0  0  0  0  0  0  0  0  0
    7.6581   -1.1131   19.6425 C   0  0  0  0  0  0  0  0  0  0  0  0
    8.4214   -0.0628   19.5351 O   0  0  0  0  0  0  0  0  0  0  0  0
    7.1977   -1.4222   20.7341 O   0  0  0  0  0  0  0  0  0  0  0  0
    6.6485   -2.1771   20.8142 H   0  0  0  0  0  0  0  0  0  0  0  0
  1  7  1  0  0  0
  1  2  2  0  0  0
  1  3  1  0  0  0
  1  4  1  0  0  0
  7  8  1  0  0  0
  8  9  1  0  0  0
  9 10  2  0  0  0
  9 11  1  0  0  0
  3  5  1  0  0  0
  4  6  1  0  0  0
 11 12  1  0  0  0
M  END
> <minimizedAffinity>
-5.33441

$$$$
1AMK_PGA_A_600


 12 11  0  0  0  0  0  0  0  0999 V2000
    9.1478   -2.4819   16.5459 P   0  0  0  0  0  0  0  0  0  0  0  0
    8.2487   -1.8255   15.5165 O   0  0  0  0  0  0  0  0  0  0  0  0
    9.7837   -3.8205   16.3388 O   0  0  0  0  0  0  0  0  0  0  0  0
   10.0835   -1.3922   17.2464 O   0  0  0  0  0  0  0  0  0  0  0  0
    9.1497   -4.4169   15.9108 H   0  0  0  0  0  0  0  0  0  0  0  0
    9.5951   -0.5595   17.3412 H   0  0  0  0  0  0  0  0  0  0  0  0
    8.4248   -2.8284   17.9417 O   0  0  0  0  0  0  0  0  0  0  0  0
    8.0895   -1.6649   18.6622 C   0  0  0  0  0  0  0  0  0  0  0  0
    6.5726   -1.5686   18.6118 C   0  0  0  0  0  0  0  0  0  0  0  0
    5.9492   -1.2670   19.7153 O   0  0  0  0  0  0  0  0  0  0  0  0
    5.9393   -1.7081   17.5733 O   0  0  0  0  0  0  0  0  0  0  0  0
    6.3852   -1.9250   16.7782 H   0  0  0  0  0  0  0  0  0  0  0  0
  1  7  1  0  0  0
  1  2  2  0  0  0
  1  3  1  0  0  0
  1  4  1  0  0  0
  7  8  1  0  0  0
  8  9  1  0  0  0
  9 10  2  0  0  0
  9 11  1  0  0  0
  3  5  1  0  0  0
  4  6  1  0  0  0
 11 12  1  0  0  0
M  END
> <minimizedAffinity>
-5.21897

$$$$
1AMK_PGA_A_600


 12 11  0  0  0  0  0  0  0  0999 V2000
    8.6977   -2.2208   17.3703 P   0  0  0  0  0  0  0  0  0  0  0  0
    8.4409   -3.2085   18.4916 O   0  0  0  0  0  0  0  0  0  0  0  0
    7.6028   -1.4841   16.6649 O   0  0  0  0  0  0  0  0  0  0  0  0
   10.0043   -1.3537   17.6779 O   0  0  0  0  0  0  0  0  0  0  0  0
    6.8528   -2.0817   16.5189 H   0  0  0  0  0  0  0  0  0  0  0  0
   10.6589   -1.9057   18.1336 H   0  0  0  0  0  0  0  0  0  0  0  0
    9.3733   -2.8608   16.0568 O   0  0  0  0  0  0  0  0  0  0  0  0
    8.6534   -2.5427   14.8882 C   0  0  0  0  0  0  0  0  0  0  0  0
    9.4415   -1.4366   14.2037 C   0  0  0  0  0  0  0  0  0  0  0  0
    9.2439   -1.2539   12.9290 O   0  0  0  0  0  0  0  0  0  0  0  0
   10.1977   -0.6931   14.8156 O   0  0  0  0  0  0  0  0  0  0  0  0
   10.3415   -0.8223   15.7324 H   0  0  0  0  0  0  0  0  0  0  0  0
  1  7  1  0  0  0
  1  2  2  0  0  0
  1  3  1  0  0  0
  1  4  1  0  0  0
  7  8  1  0  0  0
  8  9  1  0  0  0
  9 10  2  0  0  0
  9 11  1  0  0  0
  3  5  1  0  0  0
  4  6  1  0  0  0
 11 12  1  0  0  0
M  END
> <minimizedAffinity>
-5.19293

$$$$
1AMK_PGA_A_600


 12 11  0  0  0  0  0  0  0  0999 V2000
    8.7943   -1.5302   18.3435 P   0  0  0  0  0  0  0  0  0  0  0  0
    8.0234   -0.5788   19.2378 O   0  0  0  0  0  0  0  0  0  0  0  0
   10.2521   -1.3700   18.0462 O   0  0  0  0  0  0  0  0  0  0  0  0
    8.3174   -3.0358   18.5868 O   0  0  0  0  0  0  0  0  0  0  0  0
   10.4536   -0.4305   17.9129 H   0  0  0  0  0  0  0  0  0  0  0  0
    7.3652   -3.0475   18.7717 H   0  0  0  0  0  0  0  0  0  0  0  0
    8.2912   -1.5671   16.8149 O   0  0  0  0  0  0  0  0  0  0  0  0
    9.3652   -1.6928   15.9117 C   0  0  0  0  0  0  0  0  0  0  0  0
    8.7758   -2.3009   14.6485 C   0  0  0  0  0  0  0  0  0  0  0  0
    8.2649   -1.4879   13.7680 O   0  0  0  0  0  0  0  0  0  0  0  0
    8.8179   -3.5022   14.4158 O   0  0  0  0  0  0  0  0  0  0  0  0
    9.1849   -4.0891   15.0474 H   0  0  0  0  0  0  0  0  0  0  0  0
  1  7  1  0  0  0
  1  2  2  0  0  0
  1  3  1  0  0  0
  1  4  1  0  0  0
  7  8  1  0  0  0
  8  9  1  0  0  0
  9 10  2  0  0  0
  9 11  1  0  0  0
  3  5  1  0  0  0
  4  6  1  0  0  0
 11 12  1  0  0  0
M  END
> <minimizedAffinity>
-5.13152

$$$$
