3FZY_IHP_A_8000


 48 48  0  0  0  0  0  0  0  0999 V2000
    6.3254   20.1779   38.9362 C   0  0  0  0  0  0  0  0  0  0  0  0
    7.4742   19.6334   39.7907 C   0  0  0  0  0  0  0  0  0  0  0  0
    7.4352   18.0887   39.8164 C   0  0  0  0  0  0  0  0  0  0  0  0
    7.4906   17.4815   38.4161 C   0  0  0  0  0  0  0  0  0  0  0  0
    6.2736   18.0066   37.6489 C   0  0  0  0  0  0  0  0  0  0  0  0
    6.3831   19.5439   37.5447 C   0  0  0  0  0  0  0  0  0  0  0  0
    6.3826   21.5952   38.8273 O   0  0  0  0  0  0  0  0  0  0  0  0
    5.6678   22.6563   39.7949 P   0  0  0  0  0  0  0  0  0  0  0  0
    6.0516   23.9042   39.0820 O   0  0  0  0  0  0  0  0  0  0  0  0
    6.3356   22.4987   41.1447 O   0  0  0  0  0  0  0  0  0  0  0  0
    4.1804   22.2829   39.6925 O   0  0  0  0  0  0  0  0  0  0  0  0
    7.2660   22.7649   41.0782 H   0  0  0  0  0  0  0  0  0  0  0  0
    3.8727   22.4270   38.7839 H   0  0  0  0  0  0  0  0  0  0  0  0
    8.7122   20.0471   39.2196 O   0  0  0  0  0  0  0  0  0  0  0  0
    9.8299   20.9454   39.9122 P   0  0  0  0  0  0  0  0  0  0  0  0
   10.7777   21.2069   38.7609 O   0  0  0  0  0  0  0  0  0  0  0  0
    9.1489   22.1838   40.4515 O   0  0  0  0  0  0  0  0  0  0  0  0
   10.3602   20.0549   40.9986 O   0  0  0  0  0  0  0  0  0  0  0  0
    8.8257   22.7228   39.7126 H   0  0  0  0  0  0  0  0  0  0  0  0
   10.7853   19.2787   40.6017 H   0  0  0  0  0  0  0  0  0  0  0  0
    8.4893   17.5502   40.6173 O   0  0  0  0  0  0  0  0  0  0  0  0
    8.3294   17.1952   42.1858 P   0  0  0  0  0  0  0  0  0  0  0  0
    8.8649   15.7844   42.1513 O   0  0  0  0  0  0  0  0  0  0  0  0
    6.8886   17.2495   42.4938 O   0  0  0  0  0  0  0  0  0  0  0  0
    9.1398   18.1684   42.9727 O   0  0  0  0  0  0  0  0  0  0  0  0
    6.4175   16.5965   41.9529 H   0  0  0  0  0  0  0  0  0  0  0  0
   10.0743   18.0846   42.7265 H   0  0  0  0  0  0  0  0  0  0  0  0
    7.4600   16.0411   38.4778 O   0  0  0  0  0  0  0  0  0  0  0  0
    8.7363   15.1031   38.2128 P   0  0  0  0  0  0  0  0  0  0  0  0
    8.2589   13.8594   37.4934 O   0  0  0  0  0  0  0  0  0  0  0  0
    9.5830   16.0405   37.3565 O   0  0  0  0  0  0  0  0  0  0  0  0
    9.4670   14.8162   39.4826 O   0  0  0  0  0  0  0  0  0  0  0  0
    9.1157   16.2327   36.5285 H   0  0  0  0  0  0  0  0  0  0  0  0
    8.9358   14.2205   40.0338 H   0  0  0  0  0  0  0  0  0  0  0  0
    6.1470   17.3470   36.3912 O   0  0  0  0  0  0  0  0  0  0  0  0
    4.7298   16.7926   35.8008 P   0  0  0  0  0  0  0  0  0  0  0  0
    3.9361   16.6207   37.0566 O   0  0  0  0  0  0  0  0  0  0  0  0
    4.1781   17.8196   34.8392 O   0  0  0  0  0  0  0  0  0  0  0  0
    5.0887   15.4944   35.1256 O   0  0  0  0  0  0  0  0  0  0  0  0
    3.9641   18.6329   35.3226 H   0  0  0  0  0  0  0  0  0  0  0  0
    5.4363   14.8728   35.7841 H   0  0  0  0  0  0  0  0  0  0  0  0
    5.3141   20.0764   36.7519 O   0  0  0  0  0  0  0  0  0  0  0  0
    5.5607   20.7356   35.3345 P   0  0  0  0  0  0  0  0  0  0  0  0
    4.1945   21.0281   34.7894 O   0  0  0  0  0  0  0  0  0  0  0  0
    6.3054   21.9686   35.7590 O   0  0  0  0  0  0  0  0  0  0  0  0
    6.3267   19.7629   34.4278 O   0  0  0  0  0  0  0  0  0  0  0  0
    5.7353   22.5118   36.3255 H   0  0  0  0  0  0  0  0  0  0  0  0
    5.7594   19.0058   34.2136 H   0  0  0  0  0  0  0  0  0  0  0  0
  1  2  1  0  0  0
  1  6  1  0  0  0
  1  7  1  0  0  0
  2  3  1  0  0  0
  2 14  1  0  0  0
  3  4  1  0  0  0
  3 21  1  0  0  0
  4  5  1  0  0  0
  4 28  1  0  0  0
  5  6  1  0  0  0
  5 35  1  0  0  0
  6 42  1  0  0  0
  7  8  1  0  0  0
  8  9  2  0  0  0
  8 10  1  0  0  0
  8 11  1  0  0  0
 14 15  1  0  0  0
 15 16  2  0  0  0
 15 17  1  0  0  0
 15 18  1  0  0  0
 21 22  1  0  0  0
 22 23  2  0  0  0
 22 24  1  0  0  0
 22 25  1  0  0  0
 28 29  1  0  0  0
 29 30  2  0  0  0
 29 31  1  0  0  0
 29 32  1  0  0  0
 35 36  1  0  0  0
 36 37  2  0  0  0
 36 38  1  0  0  0
 36 39  1  0  0  0
 42 43  1  0  0  0
 43 44  2  0  0  0
 43 45  1  0  0  0
 43 46  1  0  0  0
 10 12  1  0  0  0
 11 13  1  0  0  0
 17 19  1  0  0  0
 18 20  1  0  0  0
 24 26  1  0  0  0
 25 27  1  0  0  0
 31 33  1  0  0  0
 32 34  1  0  0  0
 38 40  1  0  0  0
 39 41  1  0  0  0
 45 47  1  0  0  0
 46 48  1  0  0  0
M  END
> <minimizedAffinity>
-10.17154

$$$$
3FZY_IHP_A_8000


 48 48  0  0  0  0  0  0  0  0999 V2000
    7.5697   18.5882   39.5741 C   0  0  0  0  0  0  0  0  0  0  0  0
    6.7536   17.3080   39.7778 C   0  0  0  0  0  0  0  0  0  0  0  0
    5.4351   17.3816   38.9753 C   0  0  0  0  0  0  0  0  0  0  0  0
    5.6727   17.6197   37.4855 C   0  0  0  0  0  0  0  0  0  0  0  0
    6.4203   18.9500   37.3555 C   0  0  0  0  0  0  0  0  0  0  0  0
    7.7804   18.8230   38.0767 C   0  0  0  0  0  0  0  0  0  0  0  0
    8.8268   18.5165   40.2364 O   0  0  0  0  0  0  0  0  0  0  0  0
    9.3697   19.5196   41.3643 P   0  0  0  0  0  0  0  0  0  0  0  0
    9.9301   18.5148   42.3072 O   0  0  0  0  0  0  0  0  0  0  0  0
    8.1491   20.2389   41.8987 O   0  0  0  0  0  0  0  0  0  0  0  0
   10.4164   20.3604   40.6161 O   0  0  0  0  0  0  0  0  0  0  0  0
    7.5696   19.6031   42.3469 H   0  0  0  0  0  0  0  0  0  0  0  0
   11.1438   19.7879   40.3262 H   0  0  0  0  0  0  0  0  0  0  0  0
    7.5107   16.1967   39.3068 O   0  0  0  0  0  0  0  0  0  0  0  0
    8.1308   15.0229   40.1863 P   0  0  0  0  0  0  0  0  0  0  0  0
    6.8964   14.4340   40.8356 O   0  0  0  0  0  0  0  0  0  0  0  0
    8.8493   14.0805   39.2461 O   0  0  0  0  0  0  0  0  0  0  0  0
    9.0671   15.7458   41.1110 O   0  0  0  0  0  0  0  0  0  0  0  0
    8.2024   13.6405   38.6726 H   0  0  0  0  0  0  0  0  0  0  0  0
    8.5587   16.3346   41.6904 H   0  0  0  0  0  0  0  0  0  0  0  0
    4.6446   16.2047   39.1551 O   0  0  0  0  0  0  0  0  0  0  0  0
    3.1600   16.2128   39.7937 P   0  0  0  0  0  0  0  0  0  0  0  0
    3.1558   14.8165   40.3671 O   0  0  0  0  0  0  0  0  0  0  0  0
    2.2123   16.3715   38.6755 O   0  0  0  0  0  0  0  0  0  0  0  0
    3.0849   17.3157   40.7941 O   0  0  0  0  0  0  0  0  0  0  0  0
    2.3089   15.6266   38.0617 H   0  0  0  0  0  0  0  0  0  0  0  0
    3.7290   17.1552   41.5014 H   0  0  0  0  0  0  0  0  0  0  0  0
    4.4236   17.6753   36.7671 O   0  0  0  0  0  0  0  0  0  0  0  0
    4.0552   16.7194   35.5304 P   0  0  0  0  0  0  0  0  0  0  0  0
    2.6550   16.1885   35.7532 O   0  0  0  0  0  0  0  0  0  0  0  0
    4.1763   17.7139   34.3792 O   0  0  0  0  0  0  0  0  0  0  0  0
    5.0799   15.6482   35.3534 O   0  0  0  0  0  0  0  0  0  0  0  0
    3.5137   18.4142   34.4859 H   0  0  0  0  0  0  0  0  0  0  0  0
    5.0103   15.0108   36.0813 H   0  0  0  0  0  0  0  0  0  0  0  0
    6.5226   19.3396   35.9878 O   0  0  0  0  0  0  0  0  0  0  0  0
    6.0254   20.7877   35.4216 P   0  0  0  0  0  0  0  0  0  0  0  0
    5.0147   20.3722   34.4008 O   0  0  0  0  0  0  0  0  0  0  0  0
    5.4667   21.5862   36.5766 O   0  0  0  0  0  0  0  0  0  0  0  0
    7.2671   21.4046   34.8321 O   0  0  0  0  0  0  0  0  0  0  0  0
    4.6717   21.1478   36.9182 H   0  0  0  0  0  0  0  0  0  0  0  0
    7.5836   20.8555   34.0978 H   0  0  0  0  0  0  0  0  0  0  0  0
    8.5602   20.0131   37.9030 O   0  0  0  0  0  0  0  0  0  0  0  0
    9.9177   20.0225   37.0896 P   0  0  0  0  0  0  0  0  0  0  0  0
   10.7981   21.0089   37.7975 O   0  0  0  0  0  0  0  0  0  0  0  0
   10.3414   18.5965   37.2949 O   0  0  0  0  0  0  0  0  0  0  0  0
    9.6584   20.4474   35.6380 O   0  0  0  0  0  0  0  0  0  0  0  0
   10.4783   18.4329   38.2411 H   0  0  0  0  0  0  0  0  0  0  0  0
    9.3921   21.3799   35.6166 H   0  0  0  0  0  0  0  0  0  0  0  0
  1  2  1  0  0  0
  1  6  1  0  0  0
  1  7  1  0  0  0
  2  3  1  0  0  0
  2 14  1  0  0  0
  3  4  1  0  0  0
  3 21  1  0  0  0
  4  5  1  0  0  0
  4 28  1  0  0  0
  5  6  1  0  0  0
  5 35  1  0  0  0
  6 42  1  0  0  0
  7  8  1  0  0  0
  8  9  2  0  0  0
  8 10  1  0  0  0
  8 11  1  0  0  0
 14 15  1  0  0  0
 15 16  2  0  0  0
 15 17  1  0  0  0
 15 18  1  0  0  0
 21 22  1  0  0  0
 22 23  2  0  0  0
 22 24  1  0  0  0
 22 25  1  0  0  0
 28 29  1  0  0  0
 29 30  2  0  0  0
 29 31  1  0  0  0
 29 32  1  0  0  0
 35 36  1  0  0  0
 36 37  2  0  0  0
 36 38  1  0  0  0
 36 39  1  0  0  0
 42 43  1  0  0  0
 43 44  2  0  0  0
 43 45  1  0  0  0
 43 46  1  0  0  0
 10 12  1  0  0  0
 11 13  1  0  0  0
 17 19  1  0  0  0
 18 20  1  0  0  0
 24 26  1  0  0  0
 25 27  1  0  0  0
 31 33  1  0  0  0
 32 34  1  0  0  0
 38 40  1  0  0  0
 39 41  1  0  0  0
 45 47  1  0  0  0
 46 48  1  0  0  0
M  END
> <minimizedAffinity>
-9.07061

$$$$
3FZY_IHP_A_8000


 48 48  0  0  0  0  0  0  0  0999 V2000
    5.9954   17.5866   37.6620 C   0  0  0  0  0  0  0  0  0  0  0  0
    5.9343   19.1039   37.4608 C   0  0  0  0  0  0  0  0  0  0  0  0
    6.1743   19.8309   38.8032 C   0  0  0  0  0  0  0  0  0  0  0  0
    7.5033   19.4410   39.4470 C   0  0  0  0  0  0  0  0  0  0  0  0
    7.4601   17.9295   39.6897 C   0  0  0  0  0  0  0  0  0  0  0  0
    7.3229   17.2157   38.3266 C   0  0  0  0  0  0  0  0  0  0  0  0
    5.8583   16.8909   36.4287 O   0  0  0  0  0  0  0  0  0  0  0  0
    4.4830   16.5001   35.7012 P   0  0  0  0  0  0  0  0  0  0  0  0
    3.6301   16.3334   36.9085 O   0  0  0  0  0  0  0  0  0  0  0  0
    4.7578   15.2037   34.9687 O   0  0  0  0  0  0  0  0  0  0  0  0
    4.1672   17.7410   34.8511 O   0  0  0  0  0  0  0  0  0  0  0  0
    4.9421   14.5015   35.6121 H   0  0  0  0  0  0  0  0  0  0  0  0
    4.0113   18.5008   35.4336 H   0  0  0  0  0  0  0  0  0  0  0  0
    6.9554   19.4909   36.5457 O   0  0  0  0  0  0  0  0  0  0  0  0
    6.8156   20.5214   35.3397 P   0  0  0  0  0  0  0  0  0  0  0  0
    5.8815   19.7826   34.4048 O   0  0  0  0  0  0  0  0  0  0  0  0
    6.2466   21.8053   35.9016 O   0  0  0  0  0  0  0  0  0  0  0  0
    8.2285   20.6755   34.8555 O   0  0  0  0  0  0  0  0  0  0  0  0
    5.3361   21.6526   36.1991 H   0  0  0  0  0  0  0  0  0  0  0  0
    8.5450   19.8276   34.5065 H   0  0  0  0  0  0  0  0  0  0  0  0
    6.1110   21.2503   38.6502 O   0  0  0  0  0  0  0  0  0  0  0  0
    5.4693   22.2416   39.7536 P   0  0  0  0  0  0  0  0  0  0  0  0
    4.4014   22.8722   38.8933 O   0  0  0  0  0  0  0  0  0  0  0  0
    6.5252   23.1952   40.1401 O   0  0  0  0  0  0  0  0  0  0  0  0
    4.9706   21.4178   40.8918 O   0  0  0  0  0  0  0  0  0  0  0  0
    6.8069   23.6991   39.3606 H   0  0  0  0  0  0  0  0  0  0  0  0
    4.2811   20.8131   40.5756 H   0  0  0  0  0  0  0  0  0  0  0  0
    7.6979   20.1424   40.6919 O   0  0  0  0  0  0  0  0  0  0  0  0
    9.0764   20.8458   41.1208 P   0  0  0  0  0  0  0  0  0  0  0  0
    9.1657   22.1738   40.3994 O   0  0  0  0  0  0  0  0  0  0  0  0
    8.8601   20.9601   42.6272 O   0  0  0  0  0  0  0  0  0  0  0  0
   10.2415   19.9475   40.8667 O   0  0  0  0  0  0  0  0  0  0  0  0
    8.1043   21.5425   42.8020 H   0  0  0  0  0  0  0  0  0  0  0  0
   10.3866   19.8688   39.9108 H   0  0  0  0  0  0  0  0  0  0  0  0
    8.5875   17.5089   40.4544 O   0  0  0  0  0  0  0  0  0  0  0  0
    8.4763   16.8828   41.9578 P   0  0  0  0  0  0  0  0  0  0  0  0
    7.0003   16.6764   42.0811 O   0  0  0  0  0  0  0  0  0  0  0  0
    9.2989   15.6162   42.0101 O   0  0  0  0  0  0  0  0  0  0  0  0
    9.0158   17.9666   42.8546 O   0  0  0  0  0  0  0  0  0  0  0  0
    8.9105   14.9537   41.4175 H   0  0  0  0  0  0  0  0  0  0  0  0
    8.4541   18.7542   42.7840 H   0  0  0  0  0  0  0  0  0  0  0  0
    7.3731   15.7927   38.4914 O   0  0  0  0  0  0  0  0  0  0  0  0
    8.6846   14.9547   38.2050 P   0  0  0  0  0  0  0  0  0  0  0  0
    8.2363   13.7846   37.3809 O   0  0  0  0  0  0  0  0  0  0  0  0
    9.4625   15.9700   37.4181 O   0  0  0  0  0  0  0  0  0  0  0  0
    9.3158   14.4970   39.5268 O   0  0  0  0  0  0  0  0  0  0  0  0
    8.9791   16.1894   36.6063 H   0  0  0  0  0  0  0  0  0  0  0  0
    8.7370   13.8456   39.9531 H   0  0  0  0  0  0  0  0  0  0  0  0
  1  2  1  0  0  0
  1  6  1  0  0  0
  1  7  1  0  0  0
  2  3  1  0  0  0
  2 14  1  0  0  0
  3  4  1  0  0  0
  3 21  1  0  0  0
  4  5  1  0  0  0
  4 28  1  0  0  0
  5  6  1  0  0  0
  5 35  1  0  0  0
  6 42  1  0  0  0
  7  8  1  0  0  0
  8  9  2  0  0  0
  8 10  1  0  0  0
  8 11  1  0  0  0
 14 15  1  0  0  0
 15 16  2  0  0  0
 15 17  1  0  0  0
 15 18  1  0  0  0
 21 22  1  0  0  0
 22 23  2  0  0  0
 22 24  1  0  0  0
 22 25  1  0  0  0
 28 29  1  0  0  0
 29 30  2  0  0  0
 29 31  1  0  0  0
 29 32  1  0  0  0
 35 36  1  0  0  0
 36 37  2  0  0  0
 36 38  1  0  0  0
 36 39  1  0  0  0
 42 43  1  0  0  0
 43 44  2  0  0  0
 43 45  1  0  0  0
 43 46  1  0  0  0
 10 12  1  0  0  0
 11 13  1  0  0  0
 17 19  1  0  0  0
 18 20  1  0  0  0
 24 26  1  0  0  0
 25 27  1  0  0  0
 31 33  1  0  0  0
 32 34  1  0  0  0
 38 40  1  0  0  0
 39 41  1  0  0  0
 45 47  1  0  0  0
 46 48  1  0  0  0
M  END
> <minimizedAffinity>
-9.02820

$$$$
3FZY_IHP_A_8000


 48 48  0  0  0  0  0  0  0  0999 V2000
    7.3028   17.2954   39.7708 C   0  0  0  0  0  0  0  0  0  0  0  0
    8.0512   18.5832   39.4128 C   0  0  0  0  0  0  0  0  0  0  0  0
    7.9062   18.8834   37.9038 C   0  0  0  0  0  0  0  0  0  0  0  0
    6.4459   18.9880   37.4686 C   0  0  0  0  0  0  0  0  0  0  0  0
    5.7844   17.6432   37.7839 C   0  0  0  0  0  0  0  0  0  0  0  0
    5.8482   17.4087   39.3093 C   0  0  0  0  0  0  0  0  0  0  0  0
    7.3504   17.0358   41.1687 O   0  0  0  0  0  0  0  0  0  0  0  0
    8.5606   16.3557   41.9724 P   0  0  0  0  0  0  0  0  0  0  0  0
    7.7714   15.4173   42.8145 O   0  0  0  0  0  0  0  0  0  0  0  0
    9.2137   17.4734   42.7580 O   0  0  0  0  0  0  0  0  0  0  0  0
    9.3914   15.6895   40.8641 O   0  0  0  0  0  0  0  0  0  0  0  0
    8.5912   17.8081   43.4224 H   0  0  0  0  0  0  0  0  0  0  0  0
    8.8650   14.9946   40.4388 H   0  0  0  0  0  0  0  0  0  0  0  0
    7.4872   19.6657   40.1476 O   0  0  0  0  0  0  0  0  0  0  0  0
    8.2800   20.7982   40.9380 P   0  0  0  0  0  0  0  0  0  0  0  0
    9.5528   20.0755   41.3254 O   0  0  0  0  0  0  0  0  0  0  0  0
    8.4867   21.9568   39.9877 O   0  0  0  0  0  0  0  0  0  0  0  0
    7.3555   21.1354   42.0720 O   0  0  0  0  0  0  0  0  0  0  0  0
    9.0890   21.6881   39.2764 H   0  0  0  0  0  0  0  0  0  0  0  0
    7.2570   20.3624   42.6496 H   0  0  0  0  0  0  0  0  0  0  0  0
    8.6052   20.0743   37.5360 O   0  0  0  0  0  0  0  0  0  0  0  0
   10.1367   20.0898   37.0202 P   0  0  0  0  0  0  0  0  0  0  0  0
   10.6953   21.0845   38.0086 O   0  0  0  0  0  0  0  0  0  0  0  0
   10.1199   20.6076   35.6399 O   0  0  0  0  0  0  0  0  0  0  0  0
   10.6824   18.7064   37.1266 O   0  0  0  0  0  0  0  0  0  0  0  0
    9.7561   21.5068   35.6363 H   0  0  0  0  0  0  0  0  0  0  0  0
   10.6674   18.4234   38.0543 H   0  0  0  0  0  0  0  0  0  0  0  0
    6.3480   19.2757   36.0590 O   0  0  0  0  0  0  0  0  0  0  0  0
    6.0950   20.7429   35.4570 P   0  0  0  0  0  0  0  0  0  0  0  0
    4.9638   20.6466   34.4554 O   0  0  0  0  0  0  0  0  0  0  0  0
    5.7424   21.4986   36.7351 O   0  0  0  0  0  0  0  0  0  0  0  0
    7.3507   21.3156   34.8877 O   0  0  0  0  0  0  0  0  0  0  0  0
    4.9270   21.1330   37.1124 H   0  0  0  0  0  0  0  0  0  0  0  0
    7.5828   20.8409   34.0742 H   0  0  0  0  0  0  0  0  0  0  0  0
    4.4663   17.5903   37.2429 O   0  0  0  0  0  0  0  0  0  0  0  0
    4.0841   16.7911   35.8719 P   0  0  0  0  0  0  0  0  0  0  0  0
    2.8225   16.0983   36.2783 O   0  0  0  0  0  0  0  0  0  0  0  0
    3.9213   17.8009   34.7595 O   0  0  0  0  0  0  0  0  0  0  0  0
    5.2453   15.8577   35.6476 O   0  0  0  0  0  0  0  0  0  0  0  0
    3.1633   18.3747   34.9521 H   0  0  0  0  0  0  0  0  0  0  0  0
    5.3052   15.2326   36.3869 H   0  0  0  0  0  0  0  0  0  0  0  0
    5.1571   16.2050   39.6672 O   0  0  0  0  0  0  0  0  0  0  0  0
    3.7960   16.2203   40.4745 P   0  0  0  0  0  0  0  0  0  0  0  0
    3.2552   14.8256   40.3679 O   0  0  0  0  0  0  0  0  0  0  0  0
    4.3210   16.5490   41.8425 O   0  0  0  0  0  0  0  0  0  0  0  0
    2.8303   17.2418   39.8586 O   0  0  0  0  0  0  0  0  0  0  0  0
    4.9182   15.8439   42.1376 H   0  0  0  0  0  0  0  0  0  0  0  0
    2.5527   16.9359   38.9810 H   0  0  0  0  0  0  0  0  0  0  0  0
  1  2  1  0  0  0
  1  6  1  0  0  0
  1  7  1  0  0  0
  2  3  1  0  0  0
  2 14  1  0  0  0
  3  4  1  0  0  0
  3 21  1  0  0  0
  4  5  1  0  0  0
  4 28  1  0  0  0
  5  6  1  0  0  0
  5 35  1  0  0  0
  6 42  1  0  0  0
  7  8  1  0  0  0
  8  9  2  0  0  0
  8 10  1  0  0  0
  8 11  1  0  0  0
 14 15  1  0  0  0
 15 16  2  0  0  0
 15 17  1  0  0  0
 15 18  1  0  0  0
 21 22  1  0  0  0
 22 23  2  0  0  0
 22 24  1  0  0  0
 22 25  1  0  0  0
 28 29  1  0  0  0
 29 30  2  0  0  0
 29 31  1  0  0  0
 29 32  1  0  0  0
 35 36  1  0  0  0
 36 37  2  0  0  0
 36 38  1  0  0  0
 36 39  1  0  0  0
 42 43  1  0  0  0
 43 44  2  0  0  0
 43 45  1  0  0  0
 43 46  1  0  0  0
 10 12  1  0  0  0
 11 13  1  0  0  0
 17 19  1  0  0  0
 18 20  1  0  0  0
 24 26  1  0  0  0
 25 27  1  0  0  0
 31 33  1  0  0  0
 32 34  1  0  0  0
 38 40  1  0  0  0
 39 41  1  0  0  0
 45 47  1  0  0  0
 46 48  1  0  0  0
M  END
> <minimizedAffinity>
-8.65962

$$$$
3FZY_IHP_A_8000


 48 48  0  0  0  0  0  0  0  0999 V2000
    6.9031   17.4718   40.0468 C   0  0  0  0  0  0  0  0  0  0  0  0
    6.8486   16.7784   38.6820 C   0  0  0  0  0  0  0  0  0  0  0  0
    5.9192   17.5570   37.7239 C   0  0  0  0  0  0  0  0  0  0  0  0
    6.3460   19.0137   37.5546 C   0  0  0  0  0  0  0  0  0  0  0  0
    6.3007   19.6606   38.9420 C   0  0  0  0  0  0  0  0  0  0  0  0
    7.3112   18.9343   39.8571 C   0  0  0  0  0  0  0  0  0  0  0  0
    7.8144   16.8229   40.9256 O   0  0  0  0  0  0  0  0  0  0  0  0
    7.4510   16.0865   42.3036 P   0  0  0  0  0  0  0  0  0  0  0  0
    8.4000   14.9453   42.2052 O   0  0  0  0  0  0  0  0  0  0  0  0
    5.9976   15.6792   42.1827 O   0  0  0  0  0  0  0  0  0  0  0  0
    7.8066   17.1348   43.3698 O   0  0  0  0  0  0  0  0  0  0  0  0
    5.9047   15.0171   41.4799 H   0  0  0  0  0  0  0  0  0  0  0  0
    8.7607   17.3085   43.3468 H   0  0  0  0  0  0  0  0  0  0  0  0
    8.1589   16.7531   38.1232 O   0  0  0  0  0  0  0  0  0  0  0  0
    9.1294   15.4945   38.0224 P   0  0  0  0  0  0  0  0  0  0  0  0
    8.2102   14.4371   37.4486 O   0  0  0  0  0  0  0  0  0  0  0  0
   10.2791   15.8776   37.1171 O   0  0  0  0  0  0  0  0  0  0  0  0
    9.5580   15.2778   39.4449 O   0  0  0  0  0  0  0  0  0  0  0  0
    9.9504   16.0055   36.2135 H   0  0  0  0  0  0  0  0  0  0  0  0
    8.7871   15.0354   39.9815 H   0  0  0  0  0  0  0  0  0  0  0  0
    5.8378   16.9268   36.4439 O   0  0  0  0  0  0  0  0  0  0  0  0
    4.4439   16.5315   35.7280 P   0  0  0  0  0  0  0  0  0  0  0  0
    3.5969   16.3630   36.9659 O   0  0  0  0  0  0  0  0  0  0  0  0
    4.6715   15.2601   35.0171 O   0  0  0  0  0  0  0  0  0  0  0  0
    4.0448   17.6502   34.8268 O   0  0  0  0  0  0  0  0  0  0  0  0
    4.9271   14.5747   35.6541 H   0  0  0  0  0  0  0  0  0  0  0  0
    3.9103   18.4553   35.3508 H   0  0  0  0  0  0  0  0  0  0  0  0
    5.4628   19.7073   36.6499 O   0  0  0  0  0  0  0  0  0  0  0  0
    5.9619   20.5536   35.3796 P   0  0  0  0  0  0  0  0  0  0  0  0
    4.9240   20.4091   34.2869 O   0  0  0  0  0  0  0  0  0  0  0  0
    6.0350   21.9464   35.9990 O   0  0  0  0  0  0  0  0  0  0  0  0
    7.3333   20.1384   34.9606 O   0  0  0  0  0  0  0  0  0  0  0  0
    5.1476   22.2248   36.2745 H   0  0  0  0  0  0  0  0  0  0  0  0
    7.2966   19.2533   34.5654 H   0  0  0  0  0  0  0  0  0  0  0  0
    6.5086   21.0681   38.8494 O   0  0  0  0  0  0  0  0  0  0  0  0
    5.7416   22.1582   39.7917 P   0  0  0  0  0  0  0  0  0  0  0  0
    4.8128   22.7947   38.8075 O   0  0  0  0  0  0  0  0  0  0  0  0
    5.0590   21.4191   40.9192 O   0  0  0  0  0  0  0  0  0  0  0  0
    6.8378   23.0730   40.2728 O   0  0  0  0  0  0  0  0  0  0  0  0
    4.3647   20.8466   40.5570 H   0  0  0  0  0  0  0  0  0  0  0  0
    7.2416   23.5212   39.5132 H   0  0  0  0  0  0  0  0  0  0  0  0
    7.3755   19.5644   41.1431 O   0  0  0  0  0  0  0  0  0  0  0  0
    8.7271   20.1322   41.7391 P   0  0  0  0  0  0  0  0  0  0  0  0
    9.1768   21.1853   40.7707 O   0  0  0  0  0  0  0  0  0  0  0  0
    8.2119   20.6973   43.0315 O   0  0  0  0  0  0  0  0  0  0  0  0
    9.7630   19.0064   41.8600 O   0  0  0  0  0  0  0  0  0  0  0  0
    7.5672   21.3975   42.8440 H   0  0  0  0  0  0  0  0  0  0  0  0
   10.0283   18.7146   40.9737 H   0  0  0  0  0  0  0  0  0  0  0  0
  1  2  1  0  0  0
  1  6  1  0  0  0
  1  7  1  0  0  0
  2  3  1  0  0  0
  2 14  1  0  0  0
  3  4  1  0  0  0
  3 21  1  0  0  0
  4  5  1  0  0  0
  4 28  1  0  0  0
  5  6  1  0  0  0
  5 35  1  0  0  0
  6 42  1  0  0  0
  7  8  1  0  0  0
  8  9  2  0  0  0
  8 10  1  0  0  0
  8 11  1  0  0  0
 14 15  1  0  0  0
 15 16  2  0  0  0
 15 17  1  0  0  0
 15 18  1  0  0  0
 21 22  1  0  0  0
 22 23  2  0  0  0
 22 24  1  0  0  0
 22 25  1  0  0  0
 28 29  1  0  0  0
 29 30  2  0  0  0
 29 31  1  0  0  0
 29 32  1  0  0  0
 35 36  1  0  0  0
 36 37  2  0  0  0
 36 38  1  0  0  0
 36 39  1  0  0  0
 42 43  1  0  0  0
 43 44  2  0  0  0
 43 45  1  0  0  0
 43 46  1  0  0  0
 10 12  1  0  0  0
 11 13  1  0  0  0
 17 19  1  0  0  0
 18 20  1  0  0  0
 24 26  1  0  0  0
 25 27  1  0  0  0
 31 33  1  0  0  0
 32 34  1  0  0  0
 38 40  1  0  0  0
 39 41  1  0  0  0
 45 47  1  0  0  0
 46 48  1  0  0  0
M  END
> <minimizedAffinity>
-8.58208

$$$$
3FZY_IHP_A_8000


 48 48  0  0  0  0  0  0  0  0999 V2000
    7.6209   17.8193   38.8533 C   0  0  0  0  0  0  0  0  0  0  0  0
    7.6185   18.9287   37.7970 C   0  0  0  0  0  0  0  0  0  0  0  0
    6.3290   19.7725   37.9115 C   0  0  0  0  0  0  0  0  0  0  0  0
    6.1487   20.3744   39.3035 C   0  0  0  0  0  0  0  0  0  0  0  0
    6.0807   19.2078   40.2935 C   0  0  0  0  0  0  0  0  0  0  0  0
    7.4182   18.4370   40.2386 C   0  0  0  0  0  0  0  0  0  0  0  0
    8.8331   17.0752   38.8256 O   0  0  0  0  0  0  0  0  0  0  0  0
    9.0323   15.5971   38.2351 P   0  0  0  0  0  0  0  0  0  0  0  0
   10.1247   15.8871   37.2680 O   0  0  0  0  0  0  0  0  0  0  0  0
    7.7179   15.2360   37.5755 O   0  0  0  0  0  0  0  0  0  0  0  0
    9.4561   14.7786   39.4650 O   0  0  0  0  0  0  0  0  0  0  0  0
    7.5655   15.8210   36.8169 H   0  0  0  0  0  0  0  0  0  0  0  0
   10.3087   15.1051   39.7925 H   0  0  0  0  0  0  0  0  0  0  0  0
    8.7395   19.7799   38.0174 O   0  0  0  0  0  0  0  0  0  0  0  0
    9.9735   20.0062   37.0365 P   0  0  0  0  0  0  0  0  0  0  0  0
   10.7354   21.1076   37.7426 O   0  0  0  0  0  0  0  0  0  0  0  0
   10.7226   18.6958   36.9375 O   0  0  0  0  0  0  0  0  0  0  0  0
    9.3165   20.3983   35.7446 O   0  0  0  0  0  0  0  0  0  0  0  0
   11.1268   18.4889   37.7947 H   0  0  0  0  0  0  0  0  0  0  0  0
    8.8517   21.2416   35.8611 H   0  0  0  0  0  0  0  0  0  0  0  0
    6.2915   20.8099   36.9293 O   0  0  0  0  0  0  0  0  0  0  0  0
    5.6212   20.6360   35.4691 P   0  0  0  0  0  0  0  0  0  0  0  0
    4.8454   19.3676   35.7290 O   0  0  0  0  0  0  0  0  0  0  0  0
    6.7243   20.4418   34.5104 O   0  0  0  0  0  0  0  0  0  0  0  0
    4.7955   21.8443   35.1842 O   0  0  0  0  0  0  0  0  0  0  0  0
    7.2222   19.6438   34.7477 H   0  0  0  0  0  0  0  0  0  0  0  0
    4.0900   21.9171   35.8459 H   0  0  0  0  0  0  0  0  0  0  0  0
    4.9415   21.1602   39.3725 O   0  0  0  0  0  0  0  0  0  0  0  0
    4.9007   22.7091   39.7948 P   0  0  0  0  0  0  0  0  0  0  0  0
    3.6726   23.3313   39.1649 O   0  0  0  0  0  0  0  0  0  0  0  0
    4.8285   22.5700   41.3128 O   0  0  0  0  0  0  0  0  0  0  0  0
    6.1737   23.4000   39.4328 O   0  0  0  0  0  0  0  0  0  0  0  0
    4.0038   22.1217   41.5575 H   0  0  0  0  0  0  0  0  0  0  0  0
    6.2283   23.4930   38.4688 H   0  0  0  0  0  0  0  0  0  0  0  0
    5.7305   19.6709   41.5956 O   0  0  0  0  0  0  0  0  0  0  0  0
    4.5273   19.0257   42.4904 P   0  0  0  0  0  0  0  0  0  0  0  0
    5.1442   19.0226   43.8527 O   0  0  0  0  0  0  0  0  0  0  0  0
    3.3049   19.9034   42.3514 O   0  0  0  0  0  0  0  0  0  0  0  0
    4.3270   17.6498   41.9103 O   0  0  0  0  0  0  0  0  0  0  0  0
    3.4862   20.7739   42.7390 H   0  0  0  0  0  0  0  0  0  0  0  0
    5.1375   17.1294   42.0250 H   0  0  0  0  0  0  0  0  0  0  0  0
    7.4411   17.3896   41.2170 O   0  0  0  0  0  0  0  0  0  0  0  0
    8.5493   17.3102   42.3439 P   0  0  0  0  0  0  0  0  0  0  0  0
    9.0166   15.8852   42.3417 O   0  0  0  0  0  0  0  0  0  0  0  0
    9.5569   18.2648   41.7706 O   0  0  0  0  0  0  0  0  0  0  0  0
    7.9481   17.6981   43.7015 O   0  0  0  0  0  0  0  0  0  0  0  0
    9.8722   17.9282   40.9173 H   0  0  0  0  0  0  0  0  0  0  0  0
    7.3136   17.0192   43.9800 H   0  0  0  0  0  0  0  0  0  0  0  0
  1  2  1  0  0  0
  1  6  1  0  0  0
  1  7  1  0  0  0
  2  3  1  0  0  0
  2 14  1  0  0  0
  3  4  1  0  0  0
  3 21  1  0  0  0
  4  5  1  0  0  0
  4 28  1  0  0  0
  5  6  1  0  0  0
  5 35  1  0  0  0
  6 42  1  0  0  0
  7  8  1  0  0  0
  8  9  2  0  0  0
  8 10  1  0  0  0
  8 11  1  0  0  0
 14 15  1  0  0  0
 15 16  2  0  0  0
 15 17  1  0  0  0
 15 18  1  0  0  0
 21 22  1  0  0  0
 22 23  2  0  0  0
 22 24  1  0  0  0
 22 25  1  0  0  0
 28 29  1  0  0  0
 29 30  2  0  0  0
 29 31  1  0  0  0
 29 32  1  0  0  0
 35 36  1  0  0  0
 36 37  2  0  0  0
 36 38  1  0  0  0
 36 39  1  0  0  0
 42 43  1  0  0  0
 43 44  2  0  0  0
 43 45  1  0  0  0
 43 46  1  0  0  0
 10 12  1  0  0  0
 11 13  1  0  0  0
 17 19  1  0  0  0
 18 20  1  0  0  0
 24 26  1  0  0  0
 25 27  1  0  0  0
 31 33  1  0  0  0
 32 34  1  0  0  0
 38 40  1  0  0  0
 39 41  1  0  0  0
 45 47  1  0  0  0
 46 48  1  0  0  0
M  END
> <minimizedAffinity>
-8.42445

$$$$
3FZY_IHP_A_8000


 48 48  0  0  0  0  0  0  0  0999 V2000
    7.0312   19.5024   37.8299 C   0  0  0  0  0  0  0  0  0  0  0  0
    6.8998   17.9943   37.5951 C   0  0  0  0  0  0  0  0  0  0  0  0
    7.6531   17.2146   38.6963 C   0  0  0  0  0  0  0  0  0  0  0  0
    7.1653   17.5706   40.0991 C   0  0  0  0  0  0  0  0  0  0  0  0
    7.4000   19.0719   40.2902 C   0  0  0  0  0  0  0  0  0  0  0  0
    6.5586   19.8386   39.2460 C   0  0  0  0  0  0  0  0  0  0  0  0
    6.2803   20.2460   36.8775 O   0  0  0  0  0  0  0  0  0  0  0  0
    6.7584   20.6703   35.4063 P   0  0  0  0  0  0  0  0  0  0  0  0
    6.4690   22.1271   35.4877 O   0  0  0  0  0  0  0  0  0  0  0  0
    5.8541   19.9245   34.4477 O   0  0  0  0  0  0  0  0  0  0  0  0
    8.2515   20.3056   35.4005 O   0  0  0  0  0  0  0  0  0  0  0  0
    4.9436   20.2437   34.5476 H   0  0  0  0  0  0  0  0  0  0  0  0
    8.7196   20.8491   36.0534 H   0  0  0  0  0  0  0  0  0  0  0  0
    5.5218   17.6363   37.6466 O   0  0  0  0  0  0  0  0  0  0  0  0
    4.6517   17.0174   36.4652 P   0  0  0  0  0  0  0  0  0  0  0  0
    5.6698   16.1594   35.7444 O   0  0  0  0  0  0  0  0  0  0  0  0
    3.5167   16.2402   37.0945 O   0  0  0  0  0  0  0  0  0  0  0  0
    4.1796   18.2299   35.7160 O   0  0  0  0  0  0  0  0  0  0  0  0
    3.8735   15.4702   37.5643 H   0  0  0  0  0  0  0  0  0  0  0  0
    4.9425   18.6909   35.3334 H   0  0  0  0  0  0  0  0  0  0  0  0
    7.5592   15.8025   38.4973 O   0  0  0  0  0  0  0  0  0  0  0  0
    8.8412   14.8416   38.2850 P   0  0  0  0  0  0  0  0  0  0  0  0
    9.7348   15.8182   37.5599 O   0  0  0  0  0  0  0  0  0  0  0  0
    8.4038   13.7254   37.4268 O   0  0  0  0  0  0  0  0  0  0  0  0
    9.3265   14.4029   39.6247 O   0  0  0  0  0  0  0  0  0  0  0  0
    8.1008   14.0731   36.5734 H   0  0  0  0  0  0  0  0  0  0  0  0
    9.5986   15.1784   40.1399 H   0  0  0  0  0  0  0  0  0  0  0  0
    7.8832   16.8205   41.0998 O   0  0  0  0  0  0  0  0  0  0  0  0
    7.1760   15.9553   42.2532 P   0  0  0  0  0  0  0  0  0  0  0  0
    7.8306   14.5904   42.2791 O   0  0  0  0  0  0  0  0  0  0  0  0
    7.4859   16.8259   43.4677 O   0  0  0  0  0  0  0  0  0  0  0  0
    5.6966   15.9055   42.0590 O   0  0  0  0  0  0  0  0  0  0  0  0
    8.4458   16.8641   43.6018 H   0  0  0  0  0  0  0  0  0  0  0  0
    5.4901   15.3537   41.2884 H   0  0  0  0  0  0  0  0  0  0  0  0
    7.1414   19.4553   41.6389 O   0  0  0  0  0  0  0  0  0  0  0  0
    8.1496   20.3868   42.5222 P   0  0  0  0  0  0  0  0  0  0  0  0
    8.9573   19.3499   43.2357 O   0  0  0  0  0  0  0  0  0  0  0  0
    8.9388   21.2648   41.5787 O   0  0  0  0  0  0  0  0  0  0  0  0
    7.2360   21.1739   43.4254 O   0  0  0  0  0  0  0  0  0  0  0  0
    9.5085   20.7111   41.0221 H   0  0  0  0  0  0  0  0  0  0  0  0
    6.7550   20.5657   44.0081 H   0  0  0  0  0  0  0  0  0  0  0  0
    6.6702   21.2538   39.4442 O   0  0  0  0  0  0  0  0  0  0  0  0
    5.4966   22.1152   40.0648 P   0  0  0  0  0  0  0  0  0  0  0  0
    4.8882   22.8498   38.9075 O   0  0  0  0  0  0  0  0  0  0  0  0
    4.6255   21.0096   40.5883 O   0  0  0  0  0  0  0  0  0  0  0  0
    6.0548   23.0882   41.1120 O   0  0  0  0  0  0  0  0  0  0  0  0
    4.3274   20.4557   39.8499 H   0  0  0  0  0  0  0  0  0  0  0  0
    6.6001   23.7590   40.6719 H   0  0  0  0  0  0  0  0  0  0  0  0
  1  2  1  0  0  0
  1  6  1  0  0  0
  1  7  1  0  0  0
  2  3  1  0  0  0
  2 14  1  0  0  0
  3  4  1  0  0  0
  3 21  1  0  0  0
  4  5  1  0  0  0
  4 28  1  0  0  0
  5  6  1  0  0  0
  5 35  1  0  0  0
  6 42  1  0  0  0
  7  8  1  0  0  0
  8  9  2  0  0  0
  8 10  1  0  0  0
  8 11  1  0  0  0
 14 15  1  0  0  0
 15 16  2  0  0  0
 15 17  1  0  0  0
 15 18  1  0  0  0
 21 22  1  0  0  0
 22 23  2  0  0  0
 22 24  1  0  0  0
 22 25  1  0  0  0
 28 29  1  0  0  0
 29 30  2  0  0  0
 29 31  1  0  0  0
 29 32  1  0  0  0
 35 36  1  0  0  0
 36 37  2  0  0  0
 36 38  1  0  0  0
 36 39  1  0  0  0
 42 43  1  0  0  0
 43 44  2  0  0  0
 43 45  1  0  0  0
 43 46  1  0  0  0
 10 12  1  0  0  0
 11 13  1  0  0  0
 17 19  1  0  0  0
 18 20  1  0  0  0
 24 26  1  0  0  0
 25 27  1  0  0  0
 31 33  1  0  0  0
 32 34  1  0  0  0
 38 40  1  0  0  0
 39 41  1  0  0  0
 45 47  1  0  0  0
 46 48  1  0  0  0
M  END
> <minimizedAffinity>
-8.21034

$$$$
3FZY_IHP_A_8000


 48 48  0  0  0  0  0  0  0  0999 V2000
    4.9637   17.3956   40.1891 C   0  0  0  0  0  0  0  0  0  0  0  0
    6.3067   16.6882   39.9830 C   0  0  0  0  0  0  0  0  0  0  0  0
    7.2785   17.6033   39.2044 C   0  0  0  0  0  0  0  0  0  0  0  0
    7.4952   18.9467   39.8979 C   0  0  0  0  0  0  0  0  0  0  0  0
    6.1272   19.6281   39.9976 C   0  0  0  0  0  0  0  0  0  0  0  0
    5.2007   18.7477   40.8652 C   0  0  0  0  0  0  0  0  0  0  0  0
    4.0748   16.6091   40.9735 O   0  0  0  0  0  0  0  0  0  0  0  0
    3.0284   15.5223   40.4287 P   0  0  0  0  0  0  0  0  0  0  0  0
    3.7892   14.2894   40.7665 O   0  0  0  0  0  0  0  0  0  0  0  0
    2.9101   15.7737   38.9402 O   0  0  0  0  0  0  0  0  0  0  0  0
    1.7800   15.7698   41.2904 O   0  0  0  0  0  0  0  0  0  0  0  0
    3.7590   15.5825   38.5115 H   0  0  0  0  0  0  0  0  0  0  0  0
    1.9837   15.5742   42.2184 H   0  0  0  0  0  0  0  0  0  0  0  0
    6.8772   16.3983   41.2560 O   0  0  0  0  0  0  0  0  0  0  0  0
    7.4240   14.9895   41.7582 P   0  0  0  0  0  0  0  0  0  0  0  0
    7.0787   15.0283   43.2319 O   0  0  0  0  0  0  0  0  0  0  0  0
    6.6998   13.9154   40.9773 O   0  0  0  0  0  0  0  0  0  0  0  0
    8.8886   15.0553   41.4340 O   0  0  0  0  0  0  0  0  0  0  0  0
    5.7613   13.9146   41.2225 H   0  0  0  0  0  0  0  0  0  0  0  0
    9.3047   15.7568   41.9589 H   0  0  0  0  0  0  0  0  0  0  0  0
    8.5384   16.9653   38.9852 O   0  0  0  0  0  0  0  0  0  0  0  0
    8.7892   15.8478   37.8450 P   0  0  0  0  0  0  0  0  0  0  0  0
    7.7651   16.3188   36.8413 O   0  0  0  0  0  0  0  0  0  0  0  0
    8.4452   14.5431   38.4393 O   0  0  0  0  0  0  0  0  0  0  0  0
   10.2096   15.9398   37.4014 O   0  0  0  0  0  0  0  0  0  0  0  0
    7.5128   14.5454   38.7067 H   0  0  0  0  0  0  0  0  0  0  0  0
   10.3735   16.8170   37.0212 H   0  0  0  0  0  0  0  0  0  0  0  0
    8.4115   19.7709   39.1494 O   0  0  0  0  0  0  0  0  0  0  0  0
    9.5691   20.6619   39.8166 P   0  0  0  0  0  0  0  0  0  0  0  0
   10.2498   19.8227   40.8771 O   0  0  0  0  0  0  0  0  0  0  0  0
   10.4295   20.9447   38.5884 O   0  0  0  0  0  0  0  0  0  0  0  0
    9.0252   21.9526   40.3333 O   0  0  0  0  0  0  0  0  0  0  0  0
   10.7876   20.1110   38.2455 H   0  0  0  0  0  0  0  0  0  0  0  0
    8.4764   21.7825   41.1149 H   0  0  0  0  0  0  0  0  0  0  0  0
    6.2637   20.9670   40.4681 O   0  0  0  0  0  0  0  0  0  0  0  0
    5.5951   22.2578   39.7255 P   0  0  0  0  0  0  0  0  0  0  0  0
    6.5766   23.3333   40.0666 O   0  0  0  0  0  0  0  0  0  0  0  0
    5.4781   21.9527   38.2501 O   0  0  0  0  0  0  0  0  0  0  0  0
    4.2557   22.4219   40.3956 O   0  0  0  0  0  0  0  0  0  0  0  0
    6.3646   21.8570   37.8684 H   0  0  0  0  0  0  0  0  0  0  0  0
    4.3867   22.6155   41.3370 H   0  0  0  0  0  0  0  0  0  0  0  0
    3.9348   19.3889   41.0677 O   0  0  0  0  0  0  0  0  0  0  0  0
    3.3043   19.5785   42.5068 P   0  0  0  0  0  0  0  0  0  0  0  0
    4.4659   19.8437   43.4176 O   0  0  0  0  0  0  0  0  0  0  0  0
    2.4619   20.7952   42.2517 O   0  0  0  0  0  0  0  0  0  0  0  0
    2.5485   18.3090   42.9217 O   0  0  0  0  0  0  0  0  0  0  0  0
    3.0334   21.5367   41.9976 H   0  0  0  0  0  0  0  0  0  0  0  0
    3.1811   17.5870   43.0609 H   0  0  0  0  0  0  0  0  0  0  0  0
  1  2  1  0  0  0
  1  6  1  0  0  0
  1  7  1  0  0  0
  2  3  1  0  0  0
  2 14  1  0  0  0
  3  4  1  0  0  0
  3 21  1  0  0  0
  4  5  1  0  0  0
  4 28  1  0  0  0
  5  6  1  0  0  0
  5 35  1  0  0  0
  6 42  1  0  0  0
  7  8  1  0  0  0
  8  9  2  0  0  0
  8 10  1  0  0  0
  8 11  1  0  0  0
 14 15  1  0  0  0
 15 16  2  0  0  0
 15 17  1  0  0  0
 15 18  1  0  0  0
 21 22  1  0  0  0
 22 23  2  0  0  0
 22 24  1  0  0  0
 22 25  1  0  0  0
 28 29  1  0  0  0
 29 30  2  0  0  0
 29 31  1  0  0  0
 29 32  1  0  0  0
 35 36  1  0  0  0
 36 37  2  0  0  0
 36 38  1  0  0  0
 36 39  1  0  0  0
 42 43  1  0  0  0
 43 44  2  0  0  0
 43 45  1  0  0  0
 43 46  1  0  0  0
 10 12  1  0  0  0
 11 13  1  0  0  0
 17 19  1  0  0  0
 18 20  1  0  0  0
 24 26  1  0  0  0
 25 27  1  0  0  0
 31 33  1  0  0  0
 32 34  1  0  0  0
 38 40  1  0  0  0
 39 41  1  0  0  0
 45 47  1  0  0  0
 46 48  1  0  0  0
M  END
> <minimizedAffinity>
-7.67878

$$$$
3FZY_IHP_A_8000


 48 48  0  0  0  0  0  0  0  0999 V2000
    7.1941   16.9496   39.4798 C   0  0  0  0  0  0  0  0  0  0  0  0
    7.2888   18.4472   39.7878 C   0  0  0  0  0  0  0  0  0  0  0  0
    5.9298   18.9740   40.3012 C   0  0  0  0  0  0  0  0  0  0  0  0
    5.4392   18.2159   41.5330 C   0  0  0  0  0  0  0  0  0  0  0  0
    5.2932   16.7459   41.1289 C   0  0  0  0  0  0  0  0  0  0  0  0
    6.6814   16.2085   40.7165 C   0  0  0  0  0  0  0  0  0  0  0  0
    8.4523   16.4183   39.0815 O   0  0  0  0  0  0  0  0  0  0  0  0
    8.7767   15.6644   37.7033 P   0  0  0  0  0  0  0  0  0  0  0  0
    7.7912   16.3576   36.8310 O   0  0  0  0  0  0  0  0  0  0  0  0
    8.4521   14.2052   37.9452 O   0  0  0  0  0  0  0  0  0  0  0  0
   10.2460   16.0287   37.4379 O   0  0  0  0  0  0  0  0  0  0  0  0
    7.4994   14.1071   38.0989 H   0  0  0  0  0  0  0  0  0  0  0  0
   10.3219   16.9858   37.2995 H   0  0  0  0  0  0  0  0  0  0  0  0
    8.2675   18.6498   40.8032 O   0  0  0  0  0  0  0  0  0  0  0  0
    9.3110   19.8490   40.8972 P   0  0  0  0  0  0  0  0  0  0  0  0
    9.7253   20.0162   39.4506 O   0  0  0  0  0  0  0  0  0  0  0  0
    8.5832   21.0412   41.4780 O   0  0  0  0  0  0  0  0  0  0  0  0
   10.3693   19.3109   41.8163 O   0  0  0  0  0  0  0  0  0  0  0  0
    7.9131   21.3493   40.8479 H   0  0  0  0  0  0  0  0  0  0  0  0
   10.8041   18.5509   41.3988 H   0  0  0  0  0  0  0  0  0  0  0  0
    5.9829   20.3734   40.5860 O   0  0  0  0  0  0  0  0  0  0  0  0
    5.6233   21.5207   39.5061 P   0  0  0  0  0  0  0  0  0  0  0  0
    4.2611   21.9032   40.0315 O   0  0  0  0  0  0  0  0  0  0  0  0
    5.5607   20.8646   38.1872 O   0  0  0  0  0  0  0  0  0  0  0  0
    6.6633   22.5858   39.5883 O   0  0  0  0  0  0  0  0  0  0  0  0
    4.8688   20.1849   38.1967 H   0  0  0  0  0  0  0  0  0  0  0  0
    6.6554   22.9776   40.4756 H   0  0  0  0  0  0  0  0  0  0  0  0
    4.1745   18.7376   41.9890 O   0  0  0  0  0  0  0  0  0  0  0  0
    3.9989   19.6514   43.2978 P   0  0  0  0  0  0  0  0  0  0  0  0
    2.5828   19.4740   43.8031 O   0  0  0  0  0  0  0  0  0  0  0  0
    5.0699   19.0393   44.1962 O   0  0  0  0  0  0  0  0  0  0  0  0
    4.3594   21.0723   43.0152 O   0  0  0  0  0  0  0  0  0  0  0  0
    4.8438   18.1152   44.3854 H   0  0  0  0  0  0  0  0  0  0  0  0
    3.6836   21.4699   42.4442 H   0  0  0  0  0  0  0  0  0  0  0  0
    4.6657   15.9972   42.1673 O   0  0  0  0  0  0  0  0  0  0  0  0
    3.4126   14.9813   41.9177 P   0  0  0  0  0  0  0  0  0  0  0  0
    3.8128   13.8101   42.7570 O   0  0  0  0  0  0  0  0  0  0  0  0
    2.1427   15.6715   42.3589 O   0  0  0  0  0  0  0  0  0  0  0  0
    3.4434   14.7070   40.4366 O   0  0  0  0  0  0  0  0  0  0  0  0
    2.1736   15.8243   43.3163 H   0  0  0  0  0  0  0  0  0  0  0  0
    4.2758   14.2651   40.2069 H   0  0  0  0  0  0  0  0  0  0  0  0
    6.6156   14.8078   40.4189 O   0  0  0  0  0  0  0  0  0  0  0  0
    7.3157   13.7173   41.3273 P   0  0  0  0  0  0  0  0  0  0  0  0
    6.8677   12.3957   40.7779 O   0  0  0  0  0  0  0  0  0  0  0  0
    8.7538   14.0272   41.0258 O   0  0  0  0  0  0  0  0  0  0  0  0
    6.8797   13.8908   42.7885 O   0  0  0  0  0  0  0  0  0  0  0  0
    8.9237   13.8863   40.0812 H   0  0  0  0  0  0  0  0  0  0  0  0
    5.9399   13.6665   42.8743 H   0  0  0  0  0  0  0  0  0  0  0  0
  1  2  1  0  0  0
  1  6  1  0  0  0
  1  7  1  0  0  0
  2  3  1  0  0  0
  2 14  1  0  0  0
  3  4  1  0  0  0
  3 21  1  0  0  0
  4  5  1  0  0  0
  4 28  1  0  0  0
  5  6  1  0  0  0
  5 35  1  0  0  0
  6 42  1  0  0  0
  7  8  1  0  0  0
  8  9  2  0  0  0
  8 10  1  0  0  0
  8 11  1  0  0  0
 14 15  1  0  0  0
 15 16  2  0  0  0
 15 17  1  0  0  0
 15 18  1  0  0  0
 21 22  1  0  0  0
 22 23  2  0  0  0
 22 24  1  0  0  0
 22 25  1  0  0  0
 28 29  1  0  0  0
 29 30  2  0  0  0
 29 31  1  0  0  0
 29 32  1  0  0  0
 35 36  1  0  0  0
 36 37  2  0  0  0
 36 38  1  0  0  0
 36 39  1  0  0  0
 42 43  1  0  0  0
 43 44  2  0  0  0
 43 45  1  0  0  0
 43 46  1  0  0  0
 10 12  1  0  0  0
 11 13  1  0  0  0
 17 19  1  0  0  0
 18 20  1  0  0  0
 24 26  1  0  0  0
 25 27  1  0  0  0
 31 33  1  0  0  0
 32 34  1  0  0  0
 38 40  1  0  0  0
 39 41  1  0  0  0
 45 47  1  0  0  0
 46 48  1  0  0  0
M  END
> <minimizedAffinity>
-7.43311

$$$$
3FZY_IHP_A_8000


 48 48  0  0  0  0  0  0  0  0999 V2000
    7.0310   17.7662   39.7049 C   0  0  0  0  0  0  0  0  0  0  0  0
    7.1638   18.8352   40.7940 C   0  0  0  0  0  0  0  0  0  0  0  0
    6.7070   18.2685   42.1572 C   0  0  0  0  0  0  0  0  0  0  0  0
    7.4830   17.0150   42.5563 C   0  0  0  0  0  0  0  0  0  0  0  0
    7.2401   15.9683   41.4650 C   0  0  0  0  0  0  0  0  0  0  0  0
    7.7959   16.5109   40.1298 C   0  0  0  0  0  0  0  0  0  0  0  0
    7.5203   18.2331   38.4533 O   0  0  0  0  0  0  0  0  0  0  0  0
    6.6915   18.3387   37.0839 P   0  0  0  0  0  0  0  0  0  0  0  0
    5.4691   19.0016   37.6122 O   0  0  0  0  0  0  0  0  0  0  0  0
    6.4607   16.9125   36.6306 O   0  0  0  0  0  0  0  0  0  0  0  0
    7.5802   19.2281   36.1999 O   0  0  0  0  0  0  0  0  0  0  0  0
    5.8879   16.4591   37.2687 H   0  0  0  0  0  0  0  0  0  0  0  0
    7.6495   20.1110   36.5957 H   0  0  0  0  0  0  0  0  0  0  0  0
    8.5310   19.2224   40.8981 O   0  0  0  0  0  0  0  0  0  0  0  0
    9.1917   20.5543   40.3277 P   0  0  0  0  0  0  0  0  0  0  0  0
   10.6569   20.3337   40.6388 O   0  0  0  0  0  0  0  0  0  0  0  0
    8.8727   20.6242   38.8507 O   0  0  0  0  0  0  0  0  0  0  0  0
    8.5172   21.6374   41.1191 O   0  0  0  0  0  0  0  0  0  0  0  0
    9.3309   19.9062   38.3866 H   0  0  0  0  0  0  0  0  0  0  0  0
    8.7533   21.5482   42.0557 H   0  0  0  0  0  0  0  0  0  0  0  0
    6.8077   19.2478   43.1932 O   0  0  0  0  0  0  0  0  0  0  0  0
    5.6972   20.3929   43.4531 P   0  0  0  0  0  0  0  0  0  0  0  0
    5.7701   20.4368   44.9600 O   0  0  0  0  0  0  0  0  0  0  0  0
    4.4119   19.8644   42.9608 O   0  0  0  0  0  0  0  0  0  0  0  0
    6.1321   21.6362   42.7547 O   0  0  0  0  0  0  0  0  0  0  0  0
    4.1841   19.0593   43.4516 H   0  0  0  0  0  0  0  0  0  0  0  0
    6.9797   21.9333   43.1211 H   0  0  0  0  0  0  0  0  0  0  0  0
    7.0370   16.5182   43.8344 O   0  0  0  0  0  0  0  0  0  0  0  0
    5.4946   16.2999   44.2249 P   0  0  0  0  0  0  0  0  0  0  0  0
    4.7282   16.0114   42.9515 O   0  0  0  0  0  0  0  0  0  0  0  0
    5.6243   15.1060   45.1665 O   0  0  0  0  0  0  0  0  0  0  0  0
    4.9629   17.4650   44.9921 O   0  0  0  0  0  0  0  0  0  0  0  0
    5.9694   14.3435   44.6763 H   0  0  0  0  0  0  0  0  0  0  0  0
    4.8771   18.2293   44.4010 H   0  0  0  0  0  0  0  0  0  0  0  0
    7.7797   14.7055   41.8482 O   0  0  0  0  0  0  0  0  0  0  0  0
    7.0070   13.2860   41.6188 P   0  0  0  0  0  0  0  0  0  0  0  0
    7.5250   12.4810   42.7678 O   0  0  0  0  0  0  0  0  0  0  0  0
    5.5180   13.5425   41.6464 O   0  0  0  0  0  0  0  0  0  0  0  0
    7.4924   12.8094   40.2745 O   0  0  0  0  0  0  0  0  0  0  0  0
    5.2585   13.8459   42.5304 H   0  0  0  0  0  0  0  0  0  0  0  0
    8.4501   12.6604   40.3108 H   0  0  0  0  0  0  0  0  0  0  0  0
    7.6778   15.5275   39.0936 O   0  0  0  0  0  0  0  0  0  0  0  0
    8.9251   15.0251   38.2593 P   0  0  0  0  0  0  0  0  0  0  0  0
    9.9251   14.5650   39.2779 O   0  0  0  0  0  0  0  0  0  0  0  0
    8.2832   13.8950   37.5070 O   0  0  0  0  0  0  0  0  0  0  0  0
    9.4845   16.1720   37.4068 O   0  0  0  0  0  0  0  0  0  0  0  0
    7.9653   13.2277   38.1352 H   0  0  0  0  0  0  0  0  0  0  0  0
    9.8744   16.8452   37.9862 H   0  0  0  0  0  0  0  0  0  0  0  0
  1  2  1  0  0  0
  1  6  1  0  0  0
  1  7  1  0  0  0
  2  3  1  0  0  0
  2 14  1  0  0  0
  3  4  1  0  0  0
  3 21  1  0  0  0
  4  5  1  0  0  0
  4 28  1  0  0  0
  5  6  1  0  0  0
  5 35  1  0  0  0
  6 42  1  0  0  0
  7  8  1  0  0  0
  8  9  2  0  0  0
  8 10  1  0  0  0
  8 11  1  0  0  0
 14 15  1  0  0  0
 15 16  2  0  0  0
 15 17  1  0  0  0
 15 18  1  0  0  0
 21 22  1  0  0  0
 22 23  2  0  0  0
 22 24  1  0  0  0
 22 25  1  0  0  0
 28 29  1  0  0  0
 29 30  2  0  0  0
 29 31  1  0  0  0
 29 32  1  0  0  0
 35 36  1  0  0  0
 36 37  2  0  0  0
 36 38  1  0  0  0
 36 39  1  0  0  0
 42 43  1  0  0  0
 43 44  2  0  0  0
 43 45  1  0  0  0
 43 46  1  0  0  0
 10 12  1  0  0  0
 11 13  1  0  0  0
 17 19  1  0  0  0
 18 20  1  0  0  0
 24 26  1  0  0  0
 25 27  1  0  0  0
 31 33  1  0  0  0
 32 34  1  0  0  0
 38 40  1  0  0  0
 39 41  1  0  0  0
 45 47  1  0  0  0
 46 48  1  0  0  0
M  END
> <minimizedAffinity>
-7.42367

$$$$
