3FZY_IHP_A_8000
  RCSB PDB12061708403D
Coordinates from PDB:3FZY:A:8000 Model:1 without hydrogens
 36 36  0  0  0  0            999 V2000
    6.4020   20.0970   39.0610   C 0  0  0  0  0  0  0  0  0  0  0  0
    7.5470   19.5110   39.8930   C 0  0  0  0  0  0  0  0  0  0  0  0
    7.4860   17.9670   39.8730   C 0  0  0  0  0  0  0  0  0  0  0  0
    7.5260   17.4010   38.4550   C 0  0  0  0  0  0  0  0  0  0  0  0
    6.3130   17.9660   37.7100   C 0  0  0  0  0  0  0  0  0  0  0  0
    6.4440   19.5040   37.6510   C 0  0  0  0  0  0  0  0  0  0  0  0
    6.4790   21.5160   38.9940   O 0  0  0  0  0  0  0  0  0  0  0  0
    5.6350   22.5600   39.8720   P 0  0  0  0  0  0  0  0  0  0  0  0
    6.0950   23.8190   39.2270   O 0  0  0  0  0  0  0  0  0  0  0  0
    6.1250   22.3930   41.2950   O 0  0  0  0  0  0  0  0  0  0  0  0
    4.1770   22.1750   39.5750   O 0  0  0  0  0  0  0  0  0  0  0  0
    8.7880   19.9240   39.3280   O 0  0  0  0  0  0  0  0  0  0  0  0
    9.7740   21.0360   39.9000   P 0  0  0  0  0  0  0  0  0  0  0  0
   10.2510   21.7120   38.6320   O 0  0  0  0  0  0  0  0  0  0  0  0
    8.9690   21.9300   40.8170   O 0  0  0  0  0  0  0  0  0  0  0  0
   10.8080   20.2320   40.6340   O 0  0  0  0  0  0  0  0  0  0  0  0
    8.5360   17.3900   40.6520   O 0  0  0  0  0  0  0  0  0  0  0  0
    8.2850   16.3370   41.8520   P 0  0  0  0  0  0  0  0  0  0  0  0
    9.1040   15.1880   41.3160   O 0  0  0  0  0  0  0  0  0  0  0  0
    6.8400   16.0450   41.8720   O 0  0  0  0  0  0  0  0  0  0  0  0
    8.7840   16.9420   43.1200   O 0  0  0  0  0  0  0  0  0  0  0  0
    7.4750   15.9600   38.4740   O 0  0  0  0  0  0  0  0  0  0  0  0
    8.6910   15.0120   38.0250   P 0  0  0  0  0  0  0  0  0  0  0  0
    9.7960   15.1550   39.0500   O 0  0  0  0  0  0  0  0  0  0  0  0
    7.9910   13.6560   38.0380   O 0  0  0  0  0  0  0  0  0  0  0  0
    9.1260   15.3180   36.6300   O 0  0  0  0  0  0  0  0  0  0  0  0
    6.1710   17.3460   36.4340   O 0  0  0  0  0  0  0  0  0  0  0  0
    4.7540   16.7730   35.8610   P 0  0  0  0  0  0  0  0  0  0  0  0
    4.0000   16.5330   37.1300   O 0  0  0  0  0  0  0  0  0  0  0  0
    4.1480   17.8180   34.9530   O 0  0  0  0  0  0  0  0  0  0  0  0
    5.1300   15.5110   35.1290   O 0  0  0  0  0  0  0  0  0  0  0  0
    5.3790   20.0750   36.8800   O 0  0  0  0  0  0  0  0  0  0  0  0
    5.6350   20.8210   35.5080   P 0  0  0  0  0  0  0  0  0  0  0  0
    5.5140   19.7630   34.4520   O 0  0  0  0  0  0  0  0  0  0  0  0
    4.4770   21.7770   35.5240   O 0  0  0  0  0  0  0  0  0  0  0  0
    7.0330   21.4540   35.5060   O 0  0  0  0  0  0  0  0  0  0  0  0
  1  2  1  0  0  0  0
  1  6  1  0  0  0  0
  1  7  1  0  0  0  0
  2  3  1  0  0  0  0
  2 12  1  0  0  0  0
  3  4  1  0  0  0  0
  3 17  1  0  0  0  0
  4  5  1  0  0  0  0
  4 22  1  0  0  0  0
  5  6  1  0  0  0  0
  5 27  1  0  0  0  0
  6 32  1  0  0  0  0
  7  8  1  0  0  0  0
  8  9  2  0  0  0  0
  8 10  1  0  0  0  0
  8 11  1  0  0  0  0
 12 13  1  0  0  0  0
 13 14  2  0  0  0  0
 13 15  1  0  0  0  0
 13 16  1  0  0  0  0
 17 18  1  0  0  0  0
 18 19  2  0  0  0  0
 18 20  1  0  0  0  0
 18 21  1  0  0  0  0
 22 23  1  0  0  0  0
 23 24  2  0  0  0  0
 23 25  1  0  0  0  0
 23 26  1  0  0  0  0
 27 28  1  0  0  0  0
 28 29  2  0  0  0  0
 28 30  1  0  0  0  0
 28 31  1  0  0  0  0
 32 33  1  0  0  0  0
 33 34  2  0  0  0  0
 33 35  1  0  0  0  0
 33 36  1  0  0  0  0
A    1
C1
A    2
C2
A    3
C3
A    4
C4
A    5
C5
A    6
C6
A    7
O11
A    8
P1
A    9
O21
A   10
O31
A   11
O41
A   12
O12
A   13
P2
A   14
O22
A   15
O32
A   16
O42
A   17
O13
A   18
P3
A   19
O23
A   20
O33
A   21
O43
A   22
O14
A   23
P4
A   24
O24
A   25
O34
A   26
O44
A   27
O15
A   28
P5
A   29
O25
A   30
O35
A   31
O45
A   32
O16
A   33
P6
A   34
O26
A   35
O36
A   36
O46
M  END
>  <InstanceId>
3FZY_IHP_A_8000

>  <ChemCompId>
IHP

>  <PdbId>
3FZY

>  <ChainId>
A

>  <ResidueNumber>
8000

>  <InsertionCode>


>  <Model>
1

>  <AltIds>


>  <MissingHeavyAtoms>
0

>  <ObservedFormula>
C6 O24 P6

>  <Name>
INOSITOL HEXAKISPHOSPHATE

>  <SystematicName>
(2,3,4,5,6-pentaphosphonooxycyclohexyl) dihydrogen phosphate

>  <Synonyms>


>  <Type>
NON-POLYMER

>  <Formula>
C6 H18 O24 P6

>  <MolecularWeight>
660.035

>  <ModifiedDate>
2015-07-27

>  <Parent>


>  <OneLetterCode>


>  <SubcomponentList>


>  <AmbiguousFlag>
N

>  <InChI>
InChI=1S/C6H18O24P6/c7-31(8,9)25-1-2(26-32(10,11)12)4(28-34(16,17)18)6(30-36(22,23)24)5(29-35(19,20)21)3(1)27-33(13,14)15/h1-6H,(H2,7,8,9)(H2,10,11,12)(H2,13,14,15)(H2,16,17,18)(H2,19,20,21)(H2,22,23,24)/t1-,2-,3-,4+,5-,6-

>  <InChIKey>
IMQLKJBTEOYOSI-GPIVLXJGSA-N

>  <SMILES>
C1(C(C(C(C(C1OP(=O)(O)O)OP(=O)(O)O)OP(=O)(O)O)OP(=O)(O)O)OP(=O)(O)O)OP(=O)(O)O

$$$$
