1CTT_DHZ_A_295


 20 21  0  0  0  0  0  0  0  0999 V2000
   35.8828   50.1732    9.6975 C   0  0  0  0  0  0  0  0  0  0  0  0
   35.9970   51.4906    9.0398 C   0  0  0  0  0  0  0  0  0  0  0  0
   37.0310   51.4448    8.0211 O   0  0  0  0  0  0  0  0  0  0  0  0
   36.1051   52.5047   10.1301 C   0  0  0  0  0  0  0  0  0  0  0  0
   37.4830   52.5675   10.4070 O   0  0  0  0  0  0  0  0  0  0  0  0
   35.2975   51.7617   11.3296 C   0  0  0  0  0  0  0  0  0  0  0  0
   35.4062   50.3174   11.0338 O   0  0  0  0  0  0  0  0  0  0  0  0
   37.8726   51.1830    8.4262 H   0  0  0  0  0  0  0  0  0  0  0  0
   37.8201   51.6735   10.5745 H   0  0  0  0  0  0  0  0  0  0  0  0
   35.2860   48.7302    9.2538 N   0  0  0  0  0  0  0  0  0  0  0  0
   36.1409   47.8581    8.5850 C   0  0  0  0  0  0  0  0  0  0  0  0
   37.2240   48.2166    8.1222 O   0  0  0  0  0  0  0  0  0  0  0  0
   35.6777   46.5579    8.4046 N   0  0  0  0  0  0  0  0  0  0  0  0
   34.4357   45.9842    9.1340 C   0  0  0  0  0  0  0  0  0  0  0  0
   33.5766   47.1348    9.6635 C   0  0  0  0  0  0  0  0  0  0  0  0
   34.0550   48.3980    9.7328 C   0  0  0  0  0  0  0  0  0  0  0  0
   36.1644   45.9718    7.7811 H   0  0  0  0  0  0  0  0  0  0  0  0
   33.8575   51.9766   11.4708 C   0  0  0  0  0  0  0  0  0  0  0  0
   33.3855   50.8745   12.2988 O   0  0  0  0  0  0  0  0  0  0  0  0
   33.6038   50.0319   11.8708 H   0  0  0  0  0  0  0  0  0  0  0  0
 10 11  1  0  0  0
 10 16  1  0  0  0
 10  1  1  0  0  0
 11 12  2  0  0  0
 11 13  1  0  0  0
 13 14  1  0  0  0
 14 15  1  0  0  0
 15 16  2  0  0  0
  1  2  1  0  0  0
  1  7  1  0  0  0
  2  3  1  0  0  0
  2  4  1  0  0  0
  4  5  1  0  0  0
  4  6  1  0  0  0
  6  7  1  0  0  0
  6 18  1  0  0  0
 18 19  1  0  0  0
 13 17  1  0  0  0
  3  8  1  0  0  0
  5  9  1  0  0  0
 19 20  1  0  0  0
M  END
> <minimizedAffinity>
-9.19354

$$$$
1CTT_DHZ_A_295


 20 21  0  0  0  0  0  0  0  0999 V2000
   35.7763   50.4096    9.7086 C   0  0  0  0  0  0  0  0  0  0  0  0
   35.9296   51.7540    9.1167 C   0  0  0  0  0  0  0  0  0  0  0  0
   36.8463   51.6956    7.9920 O   0  0  0  0  0  0  0  0  0  0  0  0
   36.2315   52.6854   10.2438 C   0  0  0  0  0  0  0  0  0  0  0  0
   37.6310   52.6263   10.3742 O   0  0  0  0  0  0  0  0  0  0  0  0
   35.4933   51.9303   11.4799 C   0  0  0  0  0  0  0  0  0  0  0  0
   35.4527   50.5037   11.0943 O   0  0  0  0  0  0  0  0  0  0  0  0
   37.7008   51.3457    8.2892 H   0  0  0  0  0  0  0  0  0  0  0  0
   37.9094   51.7006   10.4546 H   0  0  0  0  0  0  0  0  0  0  0  0
   35.0212   49.0471    9.2521 N   0  0  0  0  0  0  0  0  0  0  0  0
   33.6678   49.1356    8.9375 C   0  0  0  0  0  0  0  0  0  0  0  0
   32.9871   50.1246    9.2105 O   0  0  0  0  0  0  0  0  0  0  0  0
   33.0965   48.0107    8.3493 N   0  0  0  0  0  0  0  0  0  0  0  0
   33.9245   46.8255    7.7891 C   0  0  0  0  0  0  0  0  0  0  0  0
   35.3340   46.8596    8.3845 C   0  0  0  0  0  0  0  0  0  0  0  0
   35.8030   47.9553    9.0240 C   0  0  0  0  0  0  0  0  0  0  0  0
   32.1151   47.9652    8.2857 H   0  0  0  0  0  0  0  0  0  0  0  0
   34.0978   52.2436   11.7865 C   0  0  0  0  0  0  0  0  0  0  0  0
   33.4632   50.9565   12.0392 O   0  0  0  0  0  0  0  0  0  0  0  0
   33.5626   50.3884   11.2593 H   0  0  0  0  0  0  0  0  0  0  0  0
 10 11  1  0  0  0
 10 16  1  0  0  0
 10  1  1  0  0  0
 11 12  2  0  0  0
 11 13  1  0  0  0
 13 14  1  0  0  0
 14 15  1  0  0  0
 15 16  2  0  0  0
  1  2  1  0  0  0
  1  7  1  0  0  0
  2  3  1  0  0  0
  2  4  1  0  0  0
  4  5  1  0  0  0
  4  6  1  0  0  0
  6  7  1  0  0  0
  6 18  1  0  0  0
 18 19  1  0  0  0
 13 17  1  0  0  0
  3  8  1  0  0  0
  5  9  1  0  0  0
 19 20  1  0  0  0
M  END
> <minimizedAffinity>
-8.09426

$$$$
1CTT_DHZ_A_295


 20 21  0  0  0  0  0  0  0  0999 V2000
   34.9758   49.0642    9.2632 C   0  0  0  0  0  0  0  0  0  0  0  0
   35.9550   48.0131    8.9203 C   0  0  0  0  0  0  0  0  0  0  0  0
   37.1284   48.6130    8.3101 O   0  0  0  0  0  0  0  0  0  0  0  0
   35.2085   46.9632    8.1658 C   0  0  0  0  0  0  0  0  0  0  0  0
   35.2633   47.3955    6.8282 O   0  0  0  0  0  0  0  0  0  0  0  0
   33.7137   47.1398    8.7802 C   0  0  0  0  0  0  0  0  0  0  0  0
   33.6494   48.5409    9.2474 O   0  0  0  0  0  0  0  0  0  0  0  0
   36.8632   49.1132    7.5224 H   0  0  0  0  0  0  0  0  0  0  0  0
   34.9517   48.3124    6.7717 H   0  0  0  0  0  0  0  0  0  0  0  0
   34.8977   50.2145   10.4060 N   0  0  0  0  0  0  0  0  0  0  0  0
   35.7582   51.3023   10.2843 C   0  0  0  0  0  0  0  0  0  0  0  0
   36.7085   51.3113    9.5015 O   0  0  0  0  0  0  0  0  0  0  0  0
   35.5290   52.3696   11.1481 N   0  0  0  0  0  0  0  0  0  0  0  0
   34.2426   52.5180   12.0006 C   0  0  0  0  0  0  0  0  0  0  0  0
   33.5404   51.1624   12.1074 C   0  0  0  0  0  0  0  0  0  0  0  0
   33.8692   50.1320   11.2951 C   0  0  0  0  0  0  0  0  0  0  0  0
   36.2202   53.0668   11.2215 H   0  0  0  0  0  0  0  0  0  0  0  0
   33.3220   46.3660    9.9582 C   0  0  0  0  0  0  0  0  0  0  0  0
   33.7025   44.9920    9.6574 O   0  0  0  0  0  0  0  0  0  0  0  0
   33.2551   44.7027    8.8467 H   0  0  0  0  0  0  0  0  0  0  0  0
 10 11  1  0  0  0
 10 16  1  0  0  0
 10  1  1  0  0  0
 11 12  2  0  0  0
 11 13  1  0  0  0
 13 14  1  0  0  0
 14 15  1  0  0  0
 15 16  2  0  0  0
  1  2  1  0  0  0
  1  7  1  0  0  0
  2  3  1  0  0  0
  2  4  1  0  0  0
  4  5  1  0  0  0
  4  6  1  0  0  0
  6  7  1  0  0  0
  6 18  1  0  0  0
 18 19  1  0  0  0
 13 17  1  0  0  0
  3  8  1  0  0  0
  5  9  1  0  0  0
 19 20  1  0  0  0
M  END
> <minimizedAffinity>
-7.66601

$$$$
1CTT_DHZ_A_295


 20 21  0  0  0  0  0  0  0  0999 V2000
   34.2359   50.1239    9.7385 C   0  0  0  0  0  0  0  0  0  0  0  0
   34.5926   50.6300   11.0793 C   0  0  0  0  0  0  0  0  0  0  0  0
   33.6223   50.1662   12.0552 O   0  0  0  0  0  0  0  0  0  0  0  0
   34.8230   52.0979   10.9348 C   0  0  0  0  0  0  0  0  0  0  0  0
   33.5468   52.6653   11.1034 O   0  0  0  0  0  0  0  0  0  0  0  0
   35.3065   52.1876    9.3852 C   0  0  0  0  0  0  0  0  0  0  0  0
   34.7119   51.0064    8.7244 O   0  0  0  0  0  0  0  0  0  0  0  0
   32.7357   50.4618   11.7952 H   0  0  0  0  0  0  0  0  0  0  0  0
   32.9199   52.2360   10.5004 H   0  0  0  0  0  0  0  0  0  0  0  0
   34.3065   48.6715    9.0170 N   0  0  0  0  0  0  0  0  0  0  0  0
   35.5558   48.0664    8.9088 C   0  0  0  0  0  0  0  0  0  0  0  0
   36.6065   48.6732    9.1182 O   0  0  0  0  0  0  0  0  0  0  0  0
   35.5644   46.7411    8.4832 N   0  0  0  0  0  0  0  0  0  0  0  0
   34.2911   45.8598    8.4067 C   0  0  0  0  0  0  0  0  0  0  0  0
   33.0494   46.7544    8.4005 C   0  0  0  0  0  0  0  0  0  0  0  0
   33.1203   48.0616    8.7408 C   0  0  0  0  0  0  0  0  0  0  0  0
   36.4242   46.3424    8.2167 H   0  0  0  0  0  0  0  0  0  0  0  0
   36.7300   52.0800    9.0664 C   0  0  0  0  0  0  0  0  0  0  0  0
   37.4233   52.6522   10.2131 O   0  0  0  0  0  0  0  0  0  0  0  0
   37.1313   53.5679   10.3436 H   0  0  0  0  0  0  0  0  0  0  0  0
 10 11  1  0  0  0
 10 16  1  0  0  0
 10  1  1  0  0  0
 11 12  2  0  0  0
 11 13  1  0  0  0
 13 14  1  0  0  0
 14 15  1  0  0  0
 15 16  2  0  0  0
  1  2  1  0  0  0
  1  7  1  0  0  0
  2  3  1  0  0  0
  2  4  1  0  0  0
  4  5  1  0  0  0
  4  6  1  0  0  0
  6  7  1  0  0  0
  6 18  1  0  0  0
 18 19  1  0  0  0
 13 17  1  0  0  0
  3  8  1  0  0  0
  5  9  1  0  0  0
 19 20  1  0  0  0
M  END
> <minimizedAffinity>
-7.14962

$$$$
1CTT_DHZ_A_295


 20 21  0  0  0  0  0  0  0  0999 V2000
   34.1115   48.8117    9.5257 C   0  0  0  0  0  0  0  0  0  0  0  0
   33.5170   48.6435    8.1843 C   0  0  0  0  0  0  0  0  0  0  0  0
   32.1261   49.0604    8.2060 O   0  0  0  0  0  0  0  0  0  0  0  0
   33.8457   47.2560    7.7420 C   0  0  0  0  0  0  0  0  0  0  0  0
   32.7993   46.4719    8.2609 O   0  0  0  0  0  0  0  0  0  0  0  0
   35.2335   46.9917    8.5466 C   0  0  0  0  0  0  0  0  0  0  0  0
   35.1734   47.8813    9.7259 O   0  0  0  0  0  0  0  0  0  0  0  0
   31.6435   48.5422    8.8690 H   0  0  0  0  0  0  0  0  0  0  0  0
   32.7080   46.6427    9.2114 H   0  0  0  0  0  0  0  0  0  0  0  0
   34.5800   50.0913   10.4080 N   0  0  0  0  0  0  0  0  0  0  0  0
   35.5559   50.9239    9.8667 C   0  0  0  0  0  0  0  0  0  0  0  0
   36.2259   50.6077    8.8834 O   0  0  0  0  0  0  0  0  0  0  0  0
   35.7868   52.1211   10.5383 N   0  0  0  0  0  0  0  0  0  0  0  0
   34.8502   52.6763   11.6421 C   0  0  0  0  0  0  0  0  0  0  0  0
   33.9690   51.5470   12.1809 C   0  0  0  0  0  0  0  0  0  0  0  0
   33.8532   50.3692   11.5259 C   0  0  0  0  0  0  0  0  0  0  0  0
   36.5870   52.6427   10.2999 H   0  0  0  0  0  0  0  0  0  0  0  0
   36.5084   47.3382    7.9189 C   0  0  0  0  0  0  0  0  0  0  0  0
   37.2378   48.0963    8.9270 O   0  0  0  0  0  0  0  0  0  0  0  0
   36.7182   48.8734    9.1859 H   0  0  0  0  0  0  0  0  0  0  0  0
 10 11  1  0  0  0
 10 16  1  0  0  0
 10  1  1  0  0  0
 11 12  2  0  0  0
 11 13  1  0  0  0
 13 14  1  0  0  0
 14 15  1  0  0  0
 15 16  2  0  0  0
  1  2  1  0  0  0
  1  7  1  0  0  0
  2  3  1  0  0  0
  2  4  1  0  0  0
  4  5  1  0  0  0
  4  6  1  0  0  0
  6  7  1  0  0  0
  6 18  1  0  0  0
 18 19  1  0  0  0
 13 17  1  0  0  0
  3  8  1  0  0  0
  5  9  1  0  0  0
 19 20  1  0  0  0
M  END
> <minimizedAffinity>
-6.58272

$$$$
