4YBK_4B7_A_601


 41 45  0  0  0  0  0  0  0  0999 V2000
   64.3510   61.0020  109.3284 C   0  0  0  0  0  0  0  0  0  0  0  0
   65.2683   62.0004  109.1491 C   0  0  0  0  0  0  0  0  0  0  0  0
   66.5392   61.6816  109.5913 N   0  0  0  0  0  0  0  0  0  0  0  0
   66.5059   60.4253  110.0933 C   0  0  0  0  0  0  0  0  0  0  0  0
   65.0005   59.6563  110.0186 S   0  0  0  0  0  0  0  0  0  0  0  0
   62.2465   60.2384  109.7102 O   0  0  0  0  0  0  0  0  0  0  0  0
   62.9270   61.0504  109.1133 C   0  0  0  0  0  0  0  0  0  0  0  0
   62.4576   61.9399  108.1614 N   0  0  0  0  0  0  0  0  0  0  0  0
   63.1404   62.4380  107.6566 H   0  0  0  0  0  0  0  0  0  0  0  0
   61.1095   62.2154  107.8307 C   0  0  0  0  0  0  0  0  0  0  0  0
   60.7239   61.9332  106.4973 C   0  0  0  0  0  0  0  0  0  0  0  0
   59.4540   62.2351  106.0560 C   0  0  0  0  0  0  0  0  0  0  0  0
   58.5397   62.7974  106.9688 C   0  0  0  0  0  0  0  0  0  0  0  0
   58.8775   63.0066  108.2727 C   0  0  0  0  0  0  0  0  0  0  0  0
   60.1466   62.7274  108.7250 C   0  0  0  0  0  0  0  0  0  0  0  0
   57.3346   63.1894  106.4949 O   0  0  0  0  0  0  0  0  0  0  0  0
   56.9150   64.5158  106.5981 C   0  0  0  0  0  0  0  0  0  0  0  0
   55.5739   64.8576  106.9909 C   0  0  0  0  0  0  0  0  0  0  0  0
   55.2398   66.2108  107.0956 C   0  0  0  0  0  0  0  0  0  0  0  0
   56.1906   67.2056  106.8386 C   0  0  0  0  0  0  0  0  0  0  0  0
   57.4972   66.8514  106.4705 C   0  0  0  0  0  0  0  0  0  0  0  0
   57.8607   65.5095  106.3464 C   0  0  0  0  0  0  0  0  0  0  0  0
   67.6819   59.8393  110.5877 N   0  0  0  0  0  0  0  0  0  0  0  0
   68.5252   60.3129  110.4038 H   0  0  0  0  0  0  0  0  0  0  0  0
   67.7734   58.6425  111.3197 C   0  0  0  0  0  0  0  0  0  0  0  0
   69.0726   58.1890  111.7200 C   0  0  0  0  0  0  0  0  0  0  0  0
   69.1240   57.0461  112.5777 C   0  0  0  0  0  0  0  0  0  0  0  0
   67.9590   56.4035  113.0272 N   0  0  0  0  0  0  0  0  0  0  0  0
   66.7565   56.9317  112.5746 C   0  0  0  0  0  0  0  0  0  0  0  0
   65.4837   56.3332  113.1062 C   0  0  0  0  0  0  0  0  0  0  0  0
   66.6101   57.9955  111.7383 N   0  0  0  0  0  0  0  0  0  0  0  0
   70.3669   56.4551  113.0197 N   0  0  0  0  0  0  0  0  0  0  0  0
   70.8158   56.3734  114.4330 C   0  0  0  0  0  0  0  0  0  0  0  0
   72.0599   57.2448  114.5423 C   0  0  0  0  0  0  0  0  0  0  0  0
   73.1256   56.6873  113.6501 N   0  0  0  0  0  0  0  0  0  0  0  0
   72.6540   56.6797  112.2311 C   0  0  0  0  0  0  0  0  0  0  0  0
   71.3831   55.8423  112.1377 C   0  0  0  0  0  0  0  0  0  0  0  0
   74.4842   57.3153  113.8431 C   0  0  0  0  0  0  0  0  0  0  0  0
   74.5270   58.3833  114.9185 C   0  0  0  0  0  0  0  0  0  0  0  0
   74.9070   59.6325  114.3661 O   0  0  0  0  0  0  0  0  0  0  0  0
   75.7904   59.5568  113.9727 H   0  0  0  0  0  0  0  0  0  0  0  0
 12 11  2  0  0  0
 12 13  1  0  0  0
 11 10  1  0  0  0
 16 17  1  0  0  0
 16 13  1  0  0  0
 22 17  2  0  0  0
 22 21  1  0  0  0
 17 18  1  0  0  0
 13 14  2  0  0  0
 21 20  2  0  0  0
 18 19  2  0  0  0
 20 19  1  0  0  0
 10  8  1  0  0  0
 10 15  2  0  0  0
  8  7  1  0  0  0
 14 15  1  0  0  0
  2  1  2  0  0  0
  2  3  1  0  0  0
  7  1  1  0  0  0
  7  6  2  0  0  0
  1  5  1  0  0  0
  3  4  2  0  0  0
  4  5  1  0  0  0
  4 23  1  0  0  0
 23 25  1  0  0  0
 25 26  2  0  0  0
 25 31  1  0  0  0
 26 27  1  0  0  0
 31 29  2  0  0  0
 29 28  1  0  0  0
 29 30  1  0  0  0
 27 28  2  0  0  0
 27 32  1  0  0  0
 37 32  1  0  0  0
 37 36  1  0  0  0
 32 33  1  0  0  0
 33 34  1  0  0  0
 36 35  1  0  0  0
 34 35  1  0  0  0
 35 38  1  0  0  0
 38 39  1  0  0  0
 40 39  1  0  0  0
  8  9  1  0  0  0
 23 24  1  0  0  0
 40 41  1  0  0  0
M  END
> <minimizedAffinity>
-10.89370

$$$$
4YBK_4B7_A_601


 41 45  0  0  0  0  0  0  0  0999 V2000
   63.3150   58.9950  111.6988 C   0  0  0  0  0  0  0  0  0  0  0  0
   64.4490   58.9655  112.4628 C   0  0  0  0  0  0  0  0  0  0  0  0
   64.3548   58.1516  113.5767 N   0  0  0  0  0  0  0  0  0  0  0  0
   63.1197   57.5987  113.5892 C   0  0  0  0  0  0  0  0  0  0  0  0
   62.1190   58.0349  112.2962 S   0  0  0  0  0  0  0  0  0  0  0  0
   63.9726   60.3263  109.9803 O   0  0  0  0  0  0  0  0  0  0  0  0
   63.0258   59.8353  110.5645 C   0  0  0  0  0  0  0  0  0  0  0  0
   61.6945   60.1081  110.2983 N   0  0  0  0  0  0  0  0  0  0  0  0
   61.0399   59.7518  110.9416 H   0  0  0  0  0  0  0  0  0  0  0  0
   61.1665   60.8398  109.2081 C   0  0  0  0  0  0  0  0  0  0  0  0
   60.2326   61.8544  109.5315 C   0  0  0  0  0  0  0  0  0  0  0  0
   59.6059   62.5732  108.5369 C   0  0  0  0  0  0  0  0  0  0  0  0
   59.9404   62.3000  107.1957 C   0  0  0  0  0  0  0  0  0  0  0  0
   60.8901   61.3760  106.8759 C   0  0  0  0  0  0  0  0  0  0  0  0
   61.5122   60.6372  107.8558 C   0  0  0  0  0  0  0  0  0  0  0  0
   59.2392   62.9346  106.2281 O   0  0  0  0  0  0  0  0  0  0  0  0
   58.0842   63.6566  106.5293 C   0  0  0  0  0  0  0  0  0  0  0  0
   58.0926   65.0917  106.6295 C   0  0  0  0  0  0  0  0  0  0  0  0
   56.8877   65.7425  106.9095 C   0  0  0  0  0  0  0  0  0  0  0  0
   55.7023   65.0161  107.0736 C   0  0  0  0  0  0  0  0  0  0  0  0
   55.7125   63.6180  106.9580 C   0  0  0  0  0  0  0  0  0  0  0  0
   56.9006   62.9365  106.6897 C   0  0  0  0  0  0  0  0  0  0  0  0
   62.7674   56.6988  114.6074 N   0  0  0  0  0  0  0  0  0  0  0  0
   63.4067   55.9758  114.8017 H   0  0  0  0  0  0  0  0  0  0  0  0
   61.5912   56.7289  115.3770 C   0  0  0  0  0  0  0  0  0  0  0  0
   60.3582   57.0492  114.7205 C   0  0  0  0  0  0  0  0  0  0  0  0
   59.1629   56.9381  115.4972 C   0  0  0  0  0  0  0  0  0  0  0  0
   59.1855   56.5168  116.8367 N   0  0  0  0  0  0  0  0  0  0  0  0
   60.4378   56.2331  117.3668 C   0  0  0  0  0  0  0  0  0  0  0  0
   60.4994   55.6888  118.7672 C   0  0  0  0  0  0  0  0  0  0  0  0
   61.6284   56.3353  116.7152 N   0  0  0  0  0  0  0  0  0  0  0  0
   57.8572   57.2745  114.9759 N   0  0  0  0  0  0  0  0  0  0  0  0
   56.5734   57.0583  115.6905 C   0  0  0  0  0  0  0  0  0  0  0  0
   55.8005   56.0215  114.8863 C   0  0  0  0  0  0  0  0  0  0  0  0
   55.5222   56.5716  113.5215 N   0  0  0  0  0  0  0  0  0  0  0  0
   56.8071   56.8790  112.8210 C   0  0  0  0  0  0  0  0  0  0  0  0
   57.5956   57.8835  113.6543 C   0  0  0  0  0  0  0  0  0  0  0  0
   54.5602   55.7432  112.7056 C   0  0  0  0  0  0  0  0  0  0  0  0
   54.9277   55.6304  111.2389 C   0  0  0  0  0  0  0  0  0  0  0  0
   54.9754   54.2709  110.8398 O   0  0  0  0  0  0  0  0  0  0  0  0
   55.6467   53.8040  111.3616 H   0  0  0  0  0  0  0  0  0  0  0  0
 12 11  2  0  0  0
 12 13  1  0  0  0
 11 10  1  0  0  0
 16 17  1  0  0  0
 16 13  1  0  0  0
 22 17  2  0  0  0
 22 21  1  0  0  0
 17 18  1  0  0  0
 13 14  2  0  0  0
 21 20  2  0  0  0
 18 19  2  0  0  0
 20 19  1  0  0  0
 10  8  1  0  0  0
 10 15  2  0  0  0
  8  7  1  0  0  0
 14 15  1  0  0  0
  2  1  2  0  0  0
  2  3  1  0  0  0
  7  1  1  0  0  0
  7  6  2  0  0  0
  1  5  1  0  0  0
  3  4  2  0  0  0
  4  5  1  0  0  0
  4 23  1  0  0  0
 23 25  1  0  0  0
 25 26  2  0  0  0
 25 31  1  0  0  0
 26 27  1  0  0  0
 31 29  2  0  0  0
 29 28  1  0  0  0
 29 30  1  0  0  0
 27 28  2  0  0  0
 27 32  1  0  0  0
 37 32  1  0  0  0
 37 36  1  0  0  0
 32 33  1  0  0  0
 33 34  1  0  0  0
 36 35  1  0  0  0
 34 35  1  0  0  0
 35 38  1  0  0  0
 38 39  1  0  0  0
 40 39  1  0  0  0
  8  9  1  0  0  0
 23 24  1  0  0  0
 40 41  1  0  0  0
M  END
> <minimizedAffinity>
-10.52404

$$$$
4YBK_4B7_A_601


 41 45  0  0  0  0  0  0  0  0999 V2000
   62.9158   59.5688  110.8747 C   0  0  0  0  0  0  0  0  0  0  0  0
   64.1841   59.2641  111.2860 C   0  0  0  0  0  0  0  0  0  0  0  0
   64.2321   58.4307  112.3884 N   0  0  0  0  0  0  0  0  0  0  0  0
   62.9609   58.1472  112.7558 C   0  0  0  0  0  0  0  0  0  0  0  0
   61.7571   58.8490  111.7958 S   0  0  0  0  0  0  0  0  0  0  0  0
   63.3797   61.1841  109.3471 O   0  0  0  0  0  0  0  0  0  0  0  0
   62.5088   60.5088  109.8612 C   0  0  0  0  0  0  0  0  0  0  0  0
   61.1502   60.6494  109.6332 N   0  0  0  0  0  0  0  0  0  0  0  0
   60.5539   60.1346  110.2237 H   0  0  0  0  0  0  0  0  0  0  0  0
   60.5202   61.4476  108.6491 C   0  0  0  0  0  0  0  0  0  0  0  0
   59.5421   62.3589  109.1173 C   0  0  0  0  0  0  0  0  0  0  0  0
   58.8195   63.1281  108.2313 C   0  0  0  0  0  0  0  0  0  0  0  0
   59.0995   63.0126  106.8552 C   0  0  0  0  0  0  0  0  0  0  0  0
   60.0877   62.1920  106.3992 C   0  0  0  0  0  0  0  0  0  0  0  0
   60.8062   61.4041  107.2687 C   0  0  0  0  0  0  0  0  0  0  0  0
   58.3093   63.6904  105.9910 O   0  0  0  0  0  0  0  0  0  0  0  0
   57.4877   64.7300  106.4274 C   0  0  0  0  0  0  0  0  0  0  0  0
   58.0180   66.0240  106.7644 C   0  0  0  0  0  0  0  0  0  0  0  0
   57.1248   67.0202  107.1689 C   0  0  0  0  0  0  0  0  0  0  0  0
   55.7493   66.7675  107.2298 C   0  0  0  0  0  0  0  0  0  0  0  0
   55.2505   65.5028  106.8833 C   0  0  0  0  0  0  0  0  0  0  0  0
   56.1163   64.4828  106.4856 C   0  0  0  0  0  0  0  0  0  0  0  0
   62.7222   57.2887  113.8405 N   0  0  0  0  0  0  0  0  0  0  0  0
   63.4648   56.7037  114.1154 H   0  0  0  0  0  0  0  0  0  0  0  0
   61.5268   57.1824  114.5728 C   0  0  0  0  0  0  0  0  0  0  0  0
   60.3245   56.8526  113.8660 C   0  0  0  0  0  0  0  0  0  0  0  0
   59.1543   56.6170  114.6531 C   0  0  0  0  0  0  0  0  0  0  0  0
   59.1780   56.6850  116.0556 N   0  0  0  0  0  0  0  0  0  0  0  0
   60.3993   57.0126  116.6309 C   0  0  0  0  0  0  0  0  0  0  0  0
   60.4922   57.0038  118.1316 C   0  0  0  0  0  0  0  0  0  0  0  0
   61.5558   57.2793  115.9646 N   0  0  0  0  0  0  0  0  0  0  0  0
   57.8653   56.3217  114.0692 N   0  0  0  0  0  0  0  0  0  0  0  0
   57.3972   56.8104  112.7472 C   0  0  0  0  0  0  0  0  0  0  0  0
   56.2225   57.7398  113.0214 C   0  0  0  0  0  0  0  0  0  0  0  0
   55.1263   56.9593  113.6784 N   0  0  0  0  0  0  0  0  0  0  0  0
   55.6103   56.3845  114.9713 C   0  0  0  0  0  0  0  0  0  0  0  0
   56.8142   55.4907  114.6942 C   0  0  0  0  0  0  0  0  0  0  0  0
   53.8179   57.7034  113.7880 C   0  0  0  0  0  0  0  0  0  0  0  0
   53.8897   59.1529  113.3490 C   0  0  0  0  0  0  0  0  0  0  0  0
   53.7009   60.0191  114.4553 O   0  0  0  0  0  0  0  0  0  0  0  0
   52.8276   59.8591  114.8460 H   0  0  0  0  0  0  0  0  0  0  0  0
 12 11  2  0  0  0
 12 13  1  0  0  0
 11 10  1  0  0  0
 16 17  1  0  0  0
 16 13  1  0  0  0
 22 17  2  0  0  0
 22 21  1  0  0  0
 17 18  1  0  0  0
 13 14  2  0  0  0
 21 20  2  0  0  0
 18 19  2  0  0  0
 20 19  1  0  0  0
 10  8  1  0  0  0
 10 15  2  0  0  0
  8  7  1  0  0  0
 14 15  1  0  0  0
  2  1  2  0  0  0
  2  3  1  0  0  0
  7  1  1  0  0  0
  7  6  2  0  0  0
  1  5  1  0  0  0
  3  4  2  0  0  0
  4  5  1  0  0  0
  4 23  1  0  0  0
 23 25  1  0  0  0
 25 26  2  0  0  0
 25 31  1  0  0  0
 26 27  1  0  0  0
 31 29  2  0  0  0
 29 28  1  0  0  0
 29 30  1  0  0  0
 27 28  2  0  0  0
 27 32  1  0  0  0
 37 32  1  0  0  0
 37 36  1  0  0  0
 32 33  1  0  0  0
 33 34  1  0  0  0
 36 35  1  0  0  0
 34 35  1  0  0  0
 35 38  1  0  0  0
 38 39  1  0  0  0
 40 39  1  0  0  0
  8  9  1  0  0  0
 23 24  1  0  0  0
 40 41  1  0  0  0
M  END
> <minimizedAffinity>
-10.51889

$$$$
4YBK_4B7_A_601


 41 45  0  0  0  0  0  0  0  0999 V2000
   62.4850   58.0685  112.6398 C   0  0  0  0  0  0  0  0  0  0  0  0
   62.1948   57.3070  113.7381 C   0  0  0  0  0  0  0  0  0  0  0  0
   63.2192   56.4613  114.1219 N   0  0  0  0  0  0  0  0  0  0  0  0
   64.2525   56.6385  113.2662 C   0  0  0  0  0  0  0  0  0  0  0  0
   63.9990   57.7933  112.0556 S   0  0  0  0  0  0  0  0  0  0  0  0
   60.4324   58.9450  112.2194 O   0  0  0  0  0  0  0  0  0  0  0  0
   61.6059   58.9385  111.9004 C   0  0  0  0  0  0  0  0  0  0  0  0
   62.1422   59.6116  110.8155 N   0  0  0  0  0  0  0  0  0  0  0  0
   63.0778   59.4019  110.5920 H   0  0  0  0  0  0  0  0  0  0  0  0
   61.5004   60.5662  109.9911 C   0  0  0  0  0  0  0  0  0  0  0  0
   61.6482   60.3841  108.5943 C   0  0  0  0  0  0  0  0  0  0  0  0
   61.1241   61.3004  107.7086 C   0  0  0  0  0  0  0  0  0  0  0  0
   60.4098   62.4010  108.2222 C   0  0  0  0  0  0  0  0  0  0  0  0
   60.1999   62.5478  109.5610 C   0  0  0  0  0  0  0  0  0  0  0  0
   60.7317   61.6518  110.4597 C   0  0  0  0  0  0  0  0  0  0  0  0
   59.9963   63.3484  107.3492 O   0  0  0  0  0  0  0  0  0  0  0  0
   58.6408   63.6304  107.1784 C   0  0  0  0  0  0  0  0  0  0  0  0
   58.1518   64.9813  107.1039 C   0  0  0  0  0  0  0  0  0  0  0  0
   56.7824   65.1792  106.9059 C   0  0  0  0  0  0  0  0  0  0  0  0
   55.9134   64.0902  106.7694 C   0  0  0  0  0  0  0  0  0  0  0  0
   56.4122   62.7804  106.8310 C   0  0  0  0  0  0  0  0  0  0  0  0
   57.7727   62.5479  107.0383 C   0  0  0  0  0  0  0  0  0  0  0  0
   65.4423   55.9161  113.4485 N   0  0  0  0  0  0  0  0  0  0  0  0
   65.3658   54.9351  113.4793 H   0  0  0  0  0  0  0  0  0  0  0  0
   66.7324   56.4563  113.5915 C   0  0  0  0  0  0  0  0  0  0  0  0
   67.4824   56.1215  114.7659 C   0  0  0  0  0  0  0  0  0  0  0  0
   68.8382   56.5725  114.8191 C   0  0  0  0  0  0  0  0  0  0  0  0
   69.4214   57.2943  113.7649 N   0  0  0  0  0  0  0  0  0  0  0  0
   68.5985   57.5599  112.6776 C   0  0  0  0  0  0  0  0  0  0  0  0
   69.2091   58.2473  111.4878 C   0  0  0  0  0  0  0  0  0  0  0  0
   67.2932   57.1962  112.5498 N   0  0  0  0  0  0  0  0  0  0  0  0
   69.6936   56.3460  115.9621 N   0  0  0  0  0  0  0  0  0  0  0  0
   69.2305   55.8755  117.2924 C   0  0  0  0  0  0  0  0  0  0  0  0
   69.4903   57.0152  118.2684 C   0  0  0  0  0  0  0  0  0  0  0  0
   70.9624   57.2849  118.3223 N   0  0  0  0  0  0  0  0  0  0  0  0
   71.4622   57.6742  116.9677 C   0  0  0  0  0  0  0  0  0  0  0  0
   71.1583   56.5471  115.9866 C   0  0  0  0  0  0  0  0  0  0  0  0
   71.3781   58.2273  119.4252 C   0  0  0  0  0  0  0  0  0  0  0  0
   71.1587   57.6821  120.8229 C   0  0  0  0  0  0  0  0  0  0  0  0
   72.3995   57.4163  121.4551 O   0  0  0  0  0  0  0  0  0  0  0  0
   72.8894   56.7557  120.9408 H   0  0  0  0  0  0  0  0  0  0  0  0
 12 11  2  0  0  0
 12 13  1  0  0  0
 11 10  1  0  0  0
 16 17  1  0  0  0
 16 13  1  0  0  0
 22 17  2  0  0  0
 22 21  1  0  0  0
 17 18  1  0  0  0
 13 14  2  0  0  0
 21 20  2  0  0  0
 18 19  2  0  0  0
 20 19  1  0  0  0
 10  8  1  0  0  0
 10 15  2  0  0  0
  8  7  1  0  0  0
 14 15  1  0  0  0
  2  1  2  0  0  0
  2  3  1  0  0  0
  7  1  1  0  0  0
  7  6  2  0  0  0
  1  5  1  0  0  0
  3  4  2  0  0  0
  4  5  1  0  0  0
  4 23  1  0  0  0
 23 25  1  0  0  0
 25 26  2  0  0  0
 25 31  1  0  0  0
 26 27  1  0  0  0
 31 29  2  0  0  0
 29 28  1  0  0  0
 29 30  1  0  0  0
 27 28  2  0  0  0
 27 32  1  0  0  0
 37 32  1  0  0  0
 37 36  1  0  0  0
 32 33  1  0  0  0
 33 34  1  0  0  0
 36 35  1  0  0  0
 34 35  1  0  0  0
 35 38  1  0  0  0
 38 39  1  0  0  0
 40 39  1  0  0  0
  8  9  1  0  0  0
 23 24  1  0  0  0
 40 41  1  0  0  0
M  END
> <minimizedAffinity>
-10.28469

$$$$
4YBK_4B7_A_601


 41 45  0  0  0  0  0  0  0  0999 V2000
   63.4916   59.9201  110.4446 C   0  0  0  0  0  0  0  0  0  0  0  0
   64.8215   59.6798  110.6542 C   0  0  0  0  0  0  0  0  0  0  0  0
   65.0831   58.8997  111.7655 N   0  0  0  0  0  0  0  0  0  0  0  0
   63.9015   58.5881  112.3470 C   0  0  0  0  0  0  0  0  0  0  0  0
   62.5292   59.2021  111.5704 S   0  0  0  0  0  0  0  0  0  0  0  0
   63.6259   61.5394  108.8578 O   0  0  0  0  0  0  0  0  0  0  0  0
   62.8860   60.7979  109.4755 C   0  0  0  0  0  0  0  0  0  0  0  0
   61.5031   60.8088  109.4041 N   0  0  0  0  0  0  0  0  0  0  0  0
   61.0285   60.2538  110.0645 H   0  0  0  0  0  0  0  0  0  0  0  0
   60.6934   61.5257  108.4913 C   0  0  0  0  0  0  0  0  0  0  0  0
   59.6415   62.2880  109.0558 C   0  0  0  0  0  0  0  0  0  0  0  0
   58.7523   62.9620  108.2473 C   0  0  0  0  0  0  0  0  0  0  0  0
   58.9339   62.9039  106.8513 C   0  0  0  0  0  0  0  0  0  0  0  0
   59.9845   62.2327  106.3003 C   0  0  0  0  0  0  0  0  0  0  0  0
   60.8709   61.5396  107.0922 C   0  0  0  0  0  0  0  0  0  0  0  0
   57.9921   63.4779  106.0676 O   0  0  0  0  0  0  0  0  0  0  0  0
   57.3266   64.6363  106.4695 C   0  0  0  0  0  0  0  0  0  0  0  0
   58.0303   65.8655  106.7210 C   0  0  0  0  0  0  0  0  0  0  0  0
   57.2872   66.9886  107.0955 C   0  0  0  0  0  0  0  0  0  0  0  0
   55.8935   66.9206  107.2080 C   0  0  0  0  0  0  0  0  0  0  0  0
   55.2245   65.7159  106.9446 C   0  0  0  0  0  0  0  0  0  0  0  0
   55.9377   64.5732  106.5789 C   0  0  0  0  0  0  0  0  0  0  0  0
   63.8787   57.7718  113.4888 N   0  0  0  0  0  0  0  0  0  0  0  0
   64.7197   57.6918  113.9943 H   0  0  0  0  0  0  0  0  0  0  0  0
   62.7726   57.0573  113.9814 C   0  0  0  0  0  0  0  0  0  0  0  0
   61.5332   57.7566  114.1508 C   0  0  0  0  0  0  0  0  0  0  0  0
   60.3942   56.9758  114.5216 C   0  0  0  0  0  0  0  0  0  0  0  0
   60.4738   55.5844  114.6950 N   0  0  0  0  0  0  0  0  0  0  0  0
   61.7266   55.0156  114.5037 C   0  0  0  0  0  0  0  0  0  0  0  0
   61.8367   53.5182  114.5867 C   0  0  0  0  0  0  0  0  0  0  0  0
   62.8693   55.6792  114.1775 N   0  0  0  0  0  0  0  0  0  0  0  0
   59.0945   57.5575  114.7706 N   0  0  0  0  0  0  0  0  0  0  0  0
   58.2202   57.2261  115.9244 C   0  0  0  0  0  0  0  0  0  0  0  0
   56.9796   56.5569  115.3482 C   0  0  0  0  0  0  0  0  0  0  0  0
   56.2732   57.5276  114.4530 N   0  0  0  0  0  0  0  0  0  0  0  0
   57.1738   57.9407  113.3330 C   0  0  0  0  0  0  0  0  0  0  0  0
   58.4336   58.5691  113.9186 C   0  0  0  0  0  0  0  0  0  0  0  0
   54.9051   57.0735  114.0063 C   0  0  0  0  0  0  0  0  0  0  0  0
   53.9781   58.2028  113.6009 C   0  0  0  0  0  0  0  0  0  0  0  0
   54.2829   59.3828  114.3253 O   0  0  0  0  0  0  0  0  0  0  0  0
   54.1696   59.2178  115.2745 H   0  0  0  0  0  0  0  0  0  0  0  0
 12 11  2  0  0  0
 12 13  1  0  0  0
 11 10  1  0  0  0
 16 17  1  0  0  0
 16 13  1  0  0  0
 22 17  2  0  0  0
 22 21  1  0  0  0
 17 18  1  0  0  0
 13 14  2  0  0  0
 21 20  2  0  0  0
 18 19  2  0  0  0
 20 19  1  0  0  0
 10  8  1  0  0  0
 10 15  2  0  0  0
  8  7  1  0  0  0
 14 15  1  0  0  0
  2  1  2  0  0  0
  2  3  1  0  0  0
  7  1  1  0  0  0
  7  6  2  0  0  0
  1  5  1  0  0  0
  3  4  2  0  0  0
  4  5  1  0  0  0
  4 23  1  0  0  0
 23 25  1  0  0  0
 25 26  2  0  0  0
 25 31  1  0  0  0
 26 27  1  0  0  0
 31 29  2  0  0  0
 29 28  1  0  0  0
 29 30  1  0  0  0
 27 28  2  0  0  0
 27 32  1  0  0  0
 37 32  1  0  0  0
 37 36  1  0  0  0
 32 33  1  0  0  0
 33 34  1  0  0  0
 36 35  1  0  0  0
 34 35  1  0  0  0
 35 38  1  0  0  0
 38 39  1  0  0  0
 40 39  1  0  0  0
  8  9  1  0  0  0
 23 24  1  0  0  0
 40 41  1  0  0  0
M  END
> <minimizedAffinity>
-10.17795

$$$$
4YBK_4B7_A_601


 41 45  0  0  0  0  0  0  0  0999 V2000
   62.4776   57.6848  112.5805 C   0  0  0  0  0  0  0  0  0  0  0  0
   63.4533   57.2009  113.4077 C   0  0  0  0  0  0  0  0  0  0  0  0
   63.0220   56.2015  114.2605 N   0  0  0  0  0  0  0  0  0  0  0  0
   61.7082   55.9832  114.0206 C   0  0  0  0  0  0  0  0  0  0  0  0
   61.0272   56.9388  112.8014 S   0  0  0  0  0  0  0  0  0  0  0  0
   63.6376   59.3217  111.5160 O   0  0  0  0  0  0  0  0  0  0  0  0
   62.5476   58.8085  111.6811 C   0  0  0  0  0  0  0  0  0  0  0  0
   61.3542   59.2850  111.1649 N   0  0  0  0  0  0  0  0  0  0  0  0
   60.5334   58.8542  111.4965 H   0  0  0  0  0  0  0  0  0  0  0  0
   61.1786   60.3197  110.2156 C   0  0  0  0  0  0  0  0  0  0  0  0
   60.6075   61.5215  110.7011 C   0  0  0  0  0  0  0  0  0  0  0  0
   60.3274   62.5617  109.8418 C   0  0  0  0  0  0  0  0  0  0  0  0
   60.6535   62.4158  108.4788 C   0  0  0  0  0  0  0  0  0  0  0  0
   61.2689   61.2921  108.0134 C   0  0  0  0  0  0  0  0  0  0  0  0
   61.5391   60.2373  108.8545 C   0  0  0  0  0  0  0  0  0  0  0  0
   60.2736   63.3985  107.6300 O   0  0  0  0  0  0  0  0  0  0  0  0
   58.9296   63.6022  107.3167 C   0  0  0  0  0  0  0  0  0  0  0  0
   58.0476   62.5064  107.0152 C   0  0  0  0  0  0  0  0  0  0  0  0
   56.7081   62.7926  106.7365 C   0  0  0  0  0  0  0  0  0  0  0  0
   56.2361   64.1102  106.7649 C   0  0  0  0  0  0  0  0  0  0  0  0
   57.1092   65.1636  107.0750 C   0  0  0  0  0  0  0  0  0  0  0  0
   58.4550   64.9133  107.3477 C   0  0  0  0  0  0  0  0  0  0  0  0
   61.0233   54.9886  114.7364 N   0  0  0  0  0  0  0  0  0  0  0  0
   61.4866   54.1280  114.8546 H   0  0  0  0  0  0  0  0  0  0  0  0
   59.7406   55.1010  115.3009 C   0  0  0  0  0  0  0  0  0  0  0  0
   58.6156   55.1927  114.4178 C   0  0  0  0  0  0  0  0  0  0  0  0
   57.3178   55.1677  115.0173 C   0  0  0  0  0  0  0  0  0  0  0  0
   57.1444   55.0400  116.4051 N   0  0  0  0  0  0  0  0  0  0  0  0
   58.3070   54.9586  117.1611 C   0  0  0  0  0  0  0  0  0  0  0  0
   58.1667   54.7264  118.6401 C   0  0  0  0  0  0  0  0  0  0  0  0
   59.5809   55.0010  116.6836 N   0  0  0  0  0  0  0  0  0  0  0  0
   56.0994   55.2986  114.2506 N   0  0  0  0  0  0  0  0  0  0  0  0
   56.0299   55.7142  112.8264 C   0  0  0  0  0  0  0  0  0  0  0  0
   55.3032   57.0522  112.8017 C   0  0  0  0  0  0  0  0  0  0  0  0
   53.9154   56.8632  113.3317 N   0  0  0  0  0  0  0  0  0  0  0  0
   53.9683   56.3585  114.7383 C   0  0  0  0  0  0  0  0  0  0  0  0
   54.7361   55.0413  114.7618 C   0  0  0  0  0  0  0  0  0  0  0  0
   53.0129   58.0574  113.1405 C   0  0  0  0  0  0  0  0  0  0  0  0
   53.7426   59.3856  113.0940 C   0  0  0  0  0  0  0  0  0  0  0  0
   53.7007   60.0224  114.3600 O   0  0  0  0  0  0  0  0  0  0  0  0
   52.7777   60.1873  114.6085 H   0  0  0  0  0  0  0  0  0  0  0  0
 12 11  2  0  0  0
 12 13  1  0  0  0
 11 10  1  0  0  0
 16 17  1  0  0  0
 16 13  1  0  0  0
 22 17  2  0  0  0
 22 21  1  0  0  0
 17 18  1  0  0  0
 13 14  2  0  0  0
 21 20  2  0  0  0
 18 19  2  0  0  0
 20 19  1  0  0  0
 10  8  1  0  0  0
 10 15  2  0  0  0
  8  7  1  0  0  0
 14 15  1  0  0  0
  2  1  2  0  0  0
  2  3  1  0  0  0
  7  1  1  0  0  0
  7  6  2  0  0  0
  1  5  1  0  0  0
  3  4  2  0  0  0
  4  5  1  0  0  0
  4 23  1  0  0  0
 23 25  1  0  0  0
 25 26  2  0  0  0
 25 31  1  0  0  0
 26 27  1  0  0  0
 31 29  2  0  0  0
 29 28  1  0  0  0
 29 30  1  0  0  0
 27 28  2  0  0  0
 27 32  1  0  0  0
 37 32  1  0  0  0
 37 36  1  0  0  0
 32 33  1  0  0  0
 33 34  1  0  0  0
 36 35  1  0  0  0
 34 35  1  0  0  0
 35 38  1  0  0  0
 38 39  1  0  0  0
 40 39  1  0  0  0
  8  9  1  0  0  0
 23 24  1  0  0  0
 40 41  1  0  0  0
M  END
> <minimizedAffinity>
-9.86382

$$$$
4YBK_4B7_A_601


 41 45  0  0  0  0  0  0  0  0999 V2000
   61.3021   57.9589  112.9622 C   0  0  0  0  0  0  0  0  0  0  0  0
   62.2715   57.0185  112.7468 C   0  0  0  0  0  0  0  0  0  0  0  0
   62.6483   56.3293  113.8848 N   0  0  0  0  0  0  0  0  0  0  0  0
   61.9208   56.8035  114.9227 C   0  0  0  0  0  0  0  0  0  0  0  0
   60.8149   58.0235  114.5330 S   0  0  0  0  0  0  0  0  0  0  0  0
   59.6046   59.2070  112.1145 O   0  0  0  0  0  0  0  0  0  0  0  0
   60.7879   58.9373  112.0377 C   0  0  0  0  0  0  0  0  0  0  0  0
   61.6528   59.4086  111.0643 N   0  0  0  0  0  0  0  0  0  0  0  0
   62.5463   58.9960  111.0389 H   0  0  0  0  0  0  0  0  0  0  0  0
   61.4003   60.4149  110.1019 C   0  0  0  0  0  0  0  0  0  0  0  0
   60.7119   61.5628  110.5653 C   0  0  0  0  0  0  0  0  0  0  0  0
   60.3533   62.5656  109.6910 C   0  0  0  0  0  0  0  0  0  0  0  0
   60.7167   62.4393  108.3355 C   0  0  0  0  0  0  0  0  0  0  0  0
   61.4416   61.3734  107.8922 C   0  0  0  0  0  0  0  0  0  0  0  0
   61.7921   60.3549  108.7484 C   0  0  0  0  0  0  0  0  0  0  0  0
   60.2638   63.3757  107.4704 O   0  0  0  0  0  0  0  0  0  0  0  0
   58.8974   63.5675  107.2644 C   0  0  0  0  0  0  0  0  0  0  0  0
   58.3007   64.8757  107.3110 C   0  0  0  0  0  0  0  0  0  0  0  0
   56.9286   64.9861  107.0681 C   0  0  0  0  0  0  0  0  0  0  0  0
   56.1599   63.8539  106.7732 C   0  0  0  0  0  0  0  0  0  0  0  0
   56.7635   62.5886  106.7186 C   0  0  0  0  0  0  0  0  0  0  0  0
   58.1292   62.4423  106.9665 C   0  0  0  0  0  0  0  0  0  0  0  0
   62.0867   56.2506  116.2023 N   0  0  0  0  0  0  0  0  0  0  0  0
   63.0097   56.1709  116.5353 H   0  0  0  0  0  0  0  0  0  0  0  0
   61.0639   55.7994  117.0550 C   0  0  0  0  0  0  0  0  0  0  0  0
   59.7275   55.7407  116.5406 C   0  0  0  0  0  0  0  0  0  0  0  0
   58.7345   55.1504  117.3832 C   0  0  0  0  0  0  0  0  0  0  0  0
   59.0496   54.6325  118.6500 N   0  0  0  0  0  0  0  0  0  0  0  0
   60.3774   54.7446  119.0428 C   0  0  0  0  0  0  0  0  0  0  0  0
   60.7767   54.1191  120.3506 C   0  0  0  0  0  0  0  0  0  0  0  0
   61.3833   55.3125  118.3231 N   0  0  0  0  0  0  0  0  0  0  0  0
   57.3404   55.0684  117.0100 N   0  0  0  0  0  0  0  0  0  0  0  0
   56.7159   53.9259  116.2957 C   0  0  0  0  0  0  0  0  0  0  0  0
   56.2738   54.4550  114.9378 C   0  0  0  0  0  0  0  0  0  0  0  0
   55.2521   55.5304  115.1427 N   0  0  0  0  0  0  0  0  0  0  0  0
   55.8401   56.6512  115.9391 C   0  0  0  0  0  0  0  0  0  0  0  0
   56.3213   56.1053  117.2791 C   0  0  0  0  0  0  0  0  0  0  0  0
   54.5585   55.9731  113.8776 C   0  0  0  0  0  0  0  0  0  0  0  0
   55.1936   55.4472  112.6052 C   0  0  0  0  0  0  0  0  0  0  0  0
   54.3266   54.5325  111.9560 O   0  0  0  0  0  0  0  0  0  0  0  0
   54.1496   53.7817  112.5442 H   0  0  0  0  0  0  0  0  0  0  0  0
 12 11  2  0  0  0
 12 13  1  0  0  0
 11 10  1  0  0  0
 16 17  1  0  0  0
 16 13  1  0  0  0
 22 17  2  0  0  0
 22 21  1  0  0  0
 17 18  1  0  0  0
 13 14  2  0  0  0
 21 20  2  0  0  0
 18 19  2  0  0  0
 20 19  1  0  0  0
 10  8  1  0  0  0
 10 15  2  0  0  0
  8  7  1  0  0  0
 14 15  1  0  0  0
  2  1  2  0  0  0
  2  3  1  0  0  0
  7  1  1  0  0  0
  7  6  2  0  0  0
  1  5  1  0  0  0
  3  4  2  0  0  0
  4  5  1  0  0  0
  4 23  1  0  0  0
 23 25  1  0  0  0
 25 26  2  0  0  0
 25 31  1  0  0  0
 26 27  1  0  0  0
 31 29  2  0  0  0
 29 28  1  0  0  0
 29 30  1  0  0  0
 27 28  2  0  0  0
 27 32  1  0  0  0
 37 32  1  0  0  0
 37 36  1  0  0  0
 32 33  1  0  0  0
 33 34  1  0  0  0
 36 35  1  0  0  0
 34 35  1  0  0  0
 35 38  1  0  0  0
 38 39  1  0  0  0
 40 39  1  0  0  0
  8  9  1  0  0  0
 23 24  1  0  0  0
 40 41  1  0  0  0
M  END
> <minimizedAffinity>
-9.75038

$$$$
4YBK_4B7_A_601


 41 45  0  0  0  0  0  0  0  0999 V2000
   62.0578   58.5014  112.4748 C   0  0  0  0  0  0  0  0  0  0  0  0
   63.2246   58.8481  113.0983 C   0  0  0  0  0  0  0  0  0  0  0  0
   63.7432   57.8569  113.9112 N   0  0  0  0  0  0  0  0  0  0  0  0
   62.9136   56.7893  113.8524 C   0  0  0  0  0  0  0  0  0  0  0  0
   61.5688   56.9733  112.8419 S   0  0  0  0  0  0  0  0  0  0  0  0
   60.0152   59.3712  111.9963 O   0  0  0  0  0  0  0  0  0  0  0  0
   61.1892   59.3339  111.6817 C   0  0  0  0  0  0  0  0  0  0  0  0
   61.7348   59.9349  110.5597 N   0  0  0  0  0  0  0  0  0  0  0  0
   62.6687   59.7028  110.3520 H   0  0  0  0  0  0  0  0  0  0  0  0
   61.1046   60.8442  109.6774 C   0  0  0  0  0  0  0  0  0  0  0  0
   61.1950   60.5387  108.2972 C   0  0  0  0  0  0  0  0  0  0  0  0
   60.6785   61.3995  107.3534 C   0  0  0  0  0  0  0  0  0  0  0  0
   60.0294   62.5703  107.7932 C   0  0  0  0  0  0  0  0  0  0  0  0
   59.8734   62.8385  109.1205 C   0  0  0  0  0  0  0  0  0  0  0  0
   60.3989   61.9987  110.0753 C   0  0  0  0  0  0  0  0  0  0  0  0
   59.6251   63.4582  106.8558 O   0  0  0  0  0  0  0  0  0  0  0  0
   58.3060   63.9099  106.8106 C   0  0  0  0  0  0  0  0  0  0  0  0
   57.1933   62.9982  106.7937 C   0  0  0  0  0  0  0  0  0  0  0  0
   55.9013   63.5313  106.7742 C   0  0  0  0  0  0  0  0  0  0  0  0
   55.6975   64.9162  106.7856 C   0  0  0  0  0  0  0  0  0  0  0  0
   56.7958   65.7886  106.8164 C   0  0  0  0  0  0  0  0  0  0  0  0
   58.0991   65.2891  106.8256 C   0  0  0  0  0  0  0  0  0  0  0  0
   63.2244   55.6229  114.5689 N   0  0  0  0  0  0  0  0  0  0  0  0
   64.0993   55.2099  114.3869 H   0  0  0  0  0  0  0  0  0  0  0  0
   62.4087   54.9866  115.5210 C   0  0  0  0  0  0  0  0  0  0  0  0
   61.0157   55.3217  115.5544 C   0  0  0  0  0  0  0  0  0  0  0  0
   60.1875   54.5611  116.4376 C   0  0  0  0  0  0  0  0  0  0  0  0
   60.7040   53.5195  117.2253 N   0  0  0  0  0  0  0  0  0  0  0  0
   62.0683   53.2848  117.1096 C   0  0  0  0  0  0  0  0  0  0  0  0
   62.6454   52.1186  117.8632 C   0  0  0  0  0  0  0  0  0  0  0  0
   62.9378   53.9716  116.3192 N   0  0  0  0  0  0  0  0  0  0  0  0
   58.7758   54.8229  116.6054 N   0  0  0  0  0  0  0  0  0  0  0  0
   57.6828   53.9439  116.1170 C   0  0  0  0  0  0  0  0  0  0  0  0
   56.9376   54.7337  115.0494 C   0  0  0  0  0  0  0  0  0  0  0  0
   56.3468   55.9600  115.6736 N   0  0  0  0  0  0  0  0  0  0  0  0
   57.4301   56.8143  116.2504 C   0  0  0  0  0  0  0  0  0  0  0  0
   58.2003   56.0025  117.2861 C   0  0  0  0  0  0  0  0  0  0  0  0
   55.3853   56.7059  114.7811 C   0  0  0  0  0  0  0  0  0  0  0  0
   55.8778   58.0710  114.3421 C   0  0  0  0  0  0  0  0  0  0  0  0
   54.8973   59.0619  114.6004 O   0  0  0  0  0  0  0  0  0  0  0  0
   54.0889   58.8533  114.1065 H   0  0  0  0  0  0  0  0  0  0  0  0
 12 11  2  0  0  0
 12 13  1  0  0  0
 11 10  1  0  0  0
 16 17  1  0  0  0
 16 13  1  0  0  0
 22 17  2  0  0  0
 22 21  1  0  0  0
 17 18  1  0  0  0
 13 14  2  0  0  0
 21 20  2  0  0  0
 18 19  2  0  0  0
 20 19  1  0  0  0
 10  8  1  0  0  0
 10 15  2  0  0  0
  8  7  1  0  0  0
 14 15  1  0  0  0
  2  1  2  0  0  0
  2  3  1  0  0  0
  7  1  1  0  0  0
  7  6  2  0  0  0
  1  5  1  0  0  0
  3  4  2  0  0  0
  4  5  1  0  0  0
  4 23  1  0  0  0
 23 25  1  0  0  0
 25 26  2  0  0  0
 25 31  1  0  0  0
 26 27  1  0  0  0
 31 29  2  0  0  0
 29 28  1  0  0  0
 29 30  1  0  0  0
 27 28  2  0  0  0
 27 32  1  0  0  0
 37 32  1  0  0  0
 37 36  1  0  0  0
 32 33  1  0  0  0
 33 34  1  0  0  0
 36 35  1  0  0  0
 34 35  1  0  0  0
 35 38  1  0  0  0
 38 39  1  0  0  0
 40 39  1  0  0  0
  8  9  1  0  0  0
 23 24  1  0  0  0
 40 41  1  0  0  0
M  END
> <minimizedAffinity>
-9.52444

$$$$
4YBK_4B7_A_601


 41 45  0  0  0  0  0  0  0  0999 V2000
   65.5030   59.6222  110.4681 C   0  0  0  0  0  0  0  0  0  0  0  0
   66.8664   59.5250  110.5146 C   0  0  0  0  0  0  0  0  0  0  0  0
   67.3340   58.6338  111.4628 N   0  0  0  0  0  0  0  0  0  0  0  0
   66.2658   58.0950  112.0952 C   0  0  0  0  0  0  0  0  0  0  0  0
   64.7565   58.6346  111.5527 S   0  0  0  0  0  0  0  0  0  0  0  0
   65.2268   61.5855  109.3603 O   0  0  0  0  0  0  0  0  0  0  0  0
   64.7004   60.5454  109.7066 C   0  0  0  0  0  0  0  0  0  0  0  0
   63.3646   60.2278  109.5263 N   0  0  0  0  0  0  0  0  0  0  0  0
   63.0444   59.4165  109.9829 H   0  0  0  0  0  0  0  0  0  0  0  0
   62.4068   60.9351  108.7614 C   0  0  0  0  0  0  0  0  0  0  0  0
   62.2160   60.4867  107.4314 C   0  0  0  0  0  0  0  0  0  0  0  0
   61.3603   61.1544  106.5826 C   0  0  0  0  0  0  0  0  0  0  0  0
   60.6553   62.2696  107.0772 C   0  0  0  0  0  0  0  0  0  0  0  0
   60.7768   62.6663  108.3756 C   0  0  0  0  0  0  0  0  0  0  0  0
   61.6403   62.0217  109.2312 C   0  0  0  0  0  0  0  0  0  0  0  0
   59.9044   62.9800  106.2042 O   0  0  0  0  0  0  0  0  0  0  0  0
   58.5890   63.3339  106.5048 C   0  0  0  0  0  0  0  0  0  0  0  0
   58.1899   64.7078  106.6555 C   0  0  0  0  0  0  0  0  0  0  0  0
   56.8470   64.9802  106.9314 C   0  0  0  0  0  0  0  0  0  0  0  0
   55.9138   63.9428  107.0432 C   0  0  0  0  0  0  0  0  0  0  0  0
   56.3204   62.6102  106.8788 C   0  0  0  0  0  0  0  0  0  0  0  0
   57.6558   62.3031  106.6132 C   0  0  0  0  0  0  0  0  0  0  0  0
   66.4599   57.1279  113.0940 N   0  0  0  0  0  0  0  0  0  0  0  0
   65.6524   56.7733  113.5315 H   0  0  0  0  0  0  0  0  0  0  0  0
   67.6943   56.6160  113.5308 C   0  0  0  0  0  0  0  0  0  0  0  0
   68.2056   57.0612  114.7934 C   0  0  0  0  0  0  0  0  0  0  0  0
   69.3913   56.4226  115.2737 C   0  0  0  0  0  0  0  0  0  0  0  0
   70.0212   55.3926  114.5563 N   0  0  0  0  0  0  0  0  0  0  0  0
   69.4356   55.0446  113.3457 C   0  0  0  0  0  0  0  0  0  0  0  0
   70.0224   53.8839  112.5910 C   0  0  0  0  0  0  0  0  0  0  0  0
   68.3271   55.6122  112.7965 N   0  0  0  0  0  0  0  0  0  0  0  0
   70.0402   56.8042  116.5077 N   0  0  0  0  0  0  0  0  0  0  0  0
   71.5067   56.9549  116.6875 C   0  0  0  0  0  0  0  0  0  0  0  0
   71.9347   55.8744  117.6715 C   0  0  0  0  0  0  0  0  0  0  0  0
   71.2476   56.1080  118.9814 N   0  0  0  0  0  0  0  0  0  0  0  0
   69.7644   56.0482  118.8001 C   0  0  0  0  0  0  0  0  0  0  0  0
   69.3487   57.1026  117.7801 C   0  0  0  0  0  0  0  0  0  0  0  0
   71.7638   55.2515  120.1115 C   0  0  0  0  0  0  0  0  0  0  0  0
   72.6725   54.1215  119.6686 C   0  0  0  0  0  0  0  0  0  0  0  0
   72.1420   52.8689  120.0681 O   0  0  0  0  0  0  0  0  0  0  0  0
   72.0678   52.8428  121.0349 H   0  0  0  0  0  0  0  0  0  0  0  0
 12 11  2  0  0  0
 12 13  1  0  0  0
 11 10  1  0  0  0
 16 17  1  0  0  0
 16 13  1  0  0  0
 22 17  2  0  0  0
 22 21  1  0  0  0
 17 18  1  0  0  0
 13 14  2  0  0  0
 21 20  2  0  0  0
 18 19  2  0  0  0
 20 19  1  0  0  0
 10  8  1  0  0  0
 10 15  2  0  0  0
  8  7  1  0  0  0
 14 15  1  0  0  0
  2  1  2  0  0  0
  2  3  1  0  0  0
  7  1  1  0  0  0
  7  6  2  0  0  0
  1  5  1  0  0  0
  3  4  2  0  0  0
  4  5  1  0  0  0
  4 23  1  0  0  0
 23 25  1  0  0  0
 25 26  2  0  0  0
 25 31  1  0  0  0
 26 27  1  0  0  0
 31 29  2  0  0  0
 29 28  1  0  0  0
 29 30  1  0  0  0
 27 28  2  0  0  0
 27 32  1  0  0  0
 37 32  1  0  0  0
 37 36  1  0  0  0
 32 33  1  0  0  0
 33 34  1  0  0  0
 36 35  1  0  0  0
 34 35  1  0  0  0
 35 38  1  0  0  0
 38 39  1  0  0  0
 40 39  1  0  0  0
  8  9  1  0  0  0
 23 24  1  0  0  0
 40 41  1  0  0  0
M  END
> <minimizedAffinity>
-9.50598

$$$$
4YBK_4B7_A_601


 41 45  0  0  0  0  0  0  0  0999 V2000
   61.9398   57.2457  113.6227 C   0  0  0  0  0  0  0  0  0  0  0  0
   62.5709   56.0700  113.9222 C   0  0  0  0  0  0  0  0  0  0  0  0
   62.1045   55.4592  115.0718 N   0  0  0  0  0  0  0  0  0  0  0  0
   61.1207   56.2319  115.5880 C   0  0  0  0  0  0  0  0  0  0  0  0
   60.7649   57.6329  114.7083 S   0  0  0  0  0  0  0  0  0  0  0  0
   63.4176   58.2113  112.1937 O   0  0  0  0  0  0  0  0  0  0  0  0
   62.2682   58.1961  112.5905 C   0  0  0  0  0  0  0  0  0  0  0  0
   61.2811   59.0907  112.2126 N   0  0  0  0  0  0  0  0  0  0  0  0
   60.4384   59.0494  112.7200 H   0  0  0  0  0  0  0  0  0  0  0  0
   61.3440   60.0576  111.1811 C   0  0  0  0  0  0  0  0  0  0  0  0
   60.4704   61.1650  111.3098 C   0  0  0  0  0  0  0  0  0  0  0  0
   60.4026   62.1229  110.3216 C   0  0  0  0  0  0  0  0  0  0  0  0
   61.2452   61.9940  109.1996 C   0  0  0  0  0  0  0  0  0  0  0  0
   62.1407   60.9713  109.0994 C   0  0  0  0  0  0  0  0  0  0  0  0
   62.2085   59.9968  110.0683 C   0  0  0  0  0  0  0  0  0  0  0  0
   61.0902   62.8795  108.1885 O   0  0  0  0  0  0  0  0  0  0  0  0
   59.8275   63.1732  107.6733 C   0  0  0  0  0  0  0  0  0  0  0  0
   59.0302   62.1772  107.0085 C   0  0  0  0  0  0  0  0  0  0  0  0
   57.7646   62.5452  106.5433 C   0  0  0  0  0  0  0  0  0  0  0  0
   57.2815   63.8453  106.7332 C   0  0  0  0  0  0  0  0  0  0  0  0
   58.0689   64.7983  107.3965 C   0  0  0  0  0  0  0  0  0  0  0  0
   59.3415   64.4665  107.8640 C   0  0  0  0  0  0  0  0  0  0  0  0
   60.4496   55.8236  116.7514 N   0  0  0  0  0  0  0  0  0  0  0  0
   60.9719   55.3077  117.4074 H   0  0  0  0  0  0  0  0  0  0  0  0
   59.1047   56.0791  117.0717 C   0  0  0  0  0  0  0  0  0  0  0  0
   58.1898   56.3430  116.0006 C   0  0  0  0  0  0  0  0  0  0  0  0
   56.8072   56.4631  116.3444 C   0  0  0  0  0  0  0  0  0  0  0  0
   56.3558   56.3118  117.6656 N   0  0  0  0  0  0  0  0  0  0  0  0
   57.3330   56.0577  118.6197 C   0  0  0  0  0  0  0  0  0  0  0  0
   56.8839   55.7955  120.0306 C   0  0  0  0  0  0  0  0  0  0  0  0
   58.6709   55.9537  118.3920 N   0  0  0  0  0  0  0  0  0  0  0  0
   55.7836   56.7738  115.3721 N   0  0  0  0  0  0  0  0  0  0  0  0
   54.5715   55.9535  115.1200 C   0  0  0  0  0  0  0  0  0  0  0  0
   54.7012   55.4158  113.7011 C   0  0  0  0  0  0  0  0  0  0  0  0
   54.7290   56.5672  112.7440 N   0  0  0  0  0  0  0  0  0  0  0  0
   55.8959   57.4535  113.0423 C   0  0  0  0  0  0  0  0  0  0  0  0
   55.7828   57.9520  114.4789 C   0  0  0  0  0  0  0  0  0  0  0  0
   54.6154   56.1678  111.2932 C   0  0  0  0  0  0  0  0  0  0  0  0
   55.2900   54.8521  110.9571 C   0  0  0  0  0  0  0  0  0  0  0  0
   55.9851   54.9482  109.7253 O   0  0  0  0  0  0  0  0  0  0  0  0
   55.3586   55.1624  109.0163 H   0  0  0  0  0  0  0  0  0  0  0  0
 12 11  2  0  0  0
 12 13  1  0  0  0
 11 10  1  0  0  0
 16 17  1  0  0  0
 16 13  1  0  0  0
 22 17  2  0  0  0
 22 21  1  0  0  0
 17 18  1  0  0  0
 13 14  2  0  0  0
 21 20  2  0  0  0
 18 19  2  0  0  0
 20 19  1  0  0  0
 10  8  1  0  0  0
 10 15  2  0  0  0
  8  7  1  0  0  0
 14 15  1  0  0  0
  2  1  2  0  0  0
  2  3  1  0  0  0
  7  1  1  0  0  0
  7  6  2  0  0  0
  1  5  1  0  0  0
  3  4  2  0  0  0
  4  5  1  0  0  0
  4 23  1  0  0  0
 23 25  1  0  0  0
 25 26  2  0  0  0
 25 31  1  0  0  0
 26 27  1  0  0  0
 31 29  2  0  0  0
 29 28  1  0  0  0
 29 30  1  0  0  0
 27 28  2  0  0  0
 27 32  1  0  0  0
 37 32  1  0  0  0
 37 36  1  0  0  0
 32 33  1  0  0  0
 33 34  1  0  0  0
 36 35  1  0  0  0
 34 35  1  0  0  0
 35 38  1  0  0  0
 38 39  1  0  0  0
 40 39  1  0  0  0
  8  9  1  0  0  0
 23 24  1  0  0  0
 40 41  1  0  0  0
M  END
> <minimizedAffinity>
-9.45483

$$$$
