2XEG_CI9_A_1768


 62 63  0  0  0  0  0  0  0  0999 V2000
   23.9901   49.1201   43.8892 N   0  0  0  0  0  0  0  0  0  0  0  0
   24.3552   50.1854   43.1790 C   0  0  0  0  0  0  0  0  0  0  0  0
   24.9827   48.5481   44.3854 N   0  0  0  0  0  0  0  0  0  0  0  0
   26.0323   49.1350   44.0852 N   0  0  0  0  0  0  0  0  0  0  0  0
   25.6806   50.1723   43.3288 C   0  0  0  0  0  0  0  0  0  0  0  0
   26.5666   51.0820   42.7747 C   0  0  0  0  0  0  0  0  0  0  0  0
   26.0393   52.1198   41.9329 O   0  0  0  0  0  0  0  0  0  0  0  0
   27.0841   52.6715   41.1466 C   0  0  0  0  0  0  0  0  0  0  0  0
   28.3874   52.4577   41.8810 C   0  0  0  0  0  0  0  0  0  0  0  0
   29.3586   51.9846   40.9306 O   0  0  0  0  0  0  0  0  0  0  0  0
   30.6618   52.1610   41.4774 C   0  0  0  0  0  0  0  0  0  0  0  0
   31.4374   50.9302   41.1183 C   0  0  0  0  0  0  0  0  0  0  0  0
   31.4055   49.9849   42.2174 O   0  0  0  0  0  0  0  0  0  0  0  0
   30.7269   48.7711   41.7884 C   0  0  0  0  0  0  0  0  0  0  0  0
   29.3049   48.6535   42.3972 C   0  0  0  0  0  0  0  0  0  0  0  0
   28.3424   48.1873   41.4346 O   0  0  0  0  0  0  0  0  0  0  0  0
   28.6555   48.6408   40.1133 C   0  0  0  0  0  0  0  0  0  0  0  0
   27.3446   49.2916   39.6685 C   0  0  0  0  0  0  0  0  0  0  0  0
   26.1885   48.4973   40.1239 N   0  0  0  0  0  0  0  0  0  0  0  0
   25.9018   48.6448   41.0541 H   0  0  0  0  0  0  0  0  0  0  0  0
   25.4773   47.5946   39.4218 C   0  0  0  0  0  0  0  0  0  0  0  0
   25.2685   47.8383   38.0563 C   0  0  0  0  0  0  0  0  0  0  0  0
   24.5775   46.9141   37.2707 C   0  0  0  0  0  0  0  0  0  0  0  0
   24.0978   45.7323   37.8441 C   0  0  0  0  0  0  0  0  0  0  0  0
   24.3239   45.4862   39.1995 C   0  0  0  0  0  0  0  0  0  0  0  0
   25.0100   46.3950   40.0066 C   0  0  0  0  0  0  0  0  0  0  0  0
   25.1682   46.0781   41.3116 N   0  0  0  0  0  0  0  0  0  0  0  0
   25.9127   46.8669   42.1943 O   0  0  0  0  0  0  0  0  0  0  0  0
   24.5296   44.9447   41.8612 O   0  0  0  0  0  0  0  0  0  0  0  0
   26.3035   47.6118   41.7113 H   0  0  0  0  0  0  0  0  0  0  0  0
   24.0460   44.4759   41.1632 H   0  0  0  0  0  0  0  0  0  0  0  0
   23.4174   44.8218   37.1195 N   0  0  0  0  0  0  0  0  0  0  0  0
   21.9942   44.6326   37.2860 O   0  0  0  0  0  0  0  0  0  0  0  0
   24.1111   43.9714   36.1906 O   0  0  0  0  0  0  0  0  0  0  0  0
   21.6576   45.2681   37.9371 H   0  0  0  0  0  0  0  0  0  0  0  0
   25.0523   44.2057   36.1786 H   0  0  0  0  0  0  0  0  0  0  0  0
   22.6009   48.6339   44.0832 C   0  0  0  0  0  0  0  0  0  0  0  0
   22.3949   47.4245   43.2112 C   0  0  0  0  0  0  0  0  0  0  0  0
   22.1774   46.1381   44.0568 C   0  0  0  0  0  0  0  0  0  0  0  0
   21.0261   45.4294   43.3424 C   0  0  0  0  0  0  0  0  0  0  0  0
   19.8184   45.1071   44.1964 C   0  0  0  0  0  0  0  0  0  0  0  0
   16.8486   45.1516   42.0479 N   0  0  0  0  0  0  0  0  0  0  0  0
   17.8160   44.6709   42.8667 C   0  0  0  0  0  0  0  0  0  0  0  0
   17.7387   43.4839   43.2043 O   0  0  0  0  0  0  0  0  0  0  0  0
   18.7788   45.5228   43.2618 N   0  0  0  0  0  0  0  0  0  0  0  0
   16.7264   46.1219   41.9349 H   0  0  0  0  0  0  0  0  0  0  0  0
   18.7819   46.4437   42.9137 H   0  0  0  0  0  0  0  0  0  0  0  0
   15.9777   44.1950   41.3254 C   0  0  0  0  0  0  0  0  0  0  0  0
   16.4774   44.1587   39.8542 C   0  0  0  0  0  0  0  0  0  0  0  0
   17.6783   44.4949   39.6310 O   0  0  0  0  0  0  0  0  0  0  0  0
   15.7017   43.8012   38.9206 O   0  0  0  0  0  0  0  0  0  0  0  0
   18.2315   44.7556   40.3410 H   0  0  0  0  0  0  0  0  0  0  0  0
   14.5055   44.6734   41.2518 C   0  0  0  0  0  0  0  0  0  0  0  0
   14.4131   46.1719   41.6052 C   0  0  0  0  0  0  0  0  0  0  0  0
   14.0776   46.5038   39.2594 O   0  0  0  0  0  0  0  0  0  0  0  0
   13.9776   47.0508   40.3892 C   0  0  0  0  0  0  0  0  0  0  0  0
   13.4282   48.1643   40.5654 O   0  0  0  0  0  0  0  0  0  0  0  0
   14.4972   45.6699   39.1781 H   0  0  0  0  0  0  0  0  0  0  0  0
   19.8082   46.0619   45.3818 C   0  0  0  0  0  0  0  0  0  0  0  0
   19.3049   47.1968   45.1905 O   0  0  0  0  0  0  0  0  0  0  0  0
   20.1567   45.5584   46.4793 O   0  0  0  0  0  0  0  0  0  0  0  0
   19.0820   47.4702   44.3224 H   0  0  0  0  0  0  0  0  0  0  0  0
 55 56  1  0  0  0
 56 57  2  0  0  0
 56 54  1  0  0  0
 54 53  1  0  0  0
 53 48  1  0  0  0
 48 49  1  0  0  0
 48 42  1  0  0  0
 49 50  1  0  0  0
 49 51  2  0  0  0
 42 43  1  0  0  0
 43 44  2  0  0  0
 43 45  1  0  0  0
 45 41  1  0  0  0
 41 59  1  0  0  0
 41 40  1  0  0  0
 59 61  2  0  0  0
 59 60  1  0  0  0
 40 39  1  0  0  0
 39 38  1  0  0  0
 38 37  1  0  0  0
 37  1  1  0  0  0
  1  2  1  0  0  0
  1  3  1  0  0  0
  2  5  2  0  0  0
  3  4  2  0  0  0
  4  5  1  0  0  0
  5  6  1  0  0  0
  6  7  1  0  0  0
  7  8  1  0  0  0
  8  9  1  0  0  0
  9 10  1  0  0  0
 10 11  1  0  0  0
 11 12  1  0  0  0
 12 13  1  0  0  0
 13 14  1  0  0  0
 14 15  1  0  0  0
 15 16  1  0  0  0
 16 17  1  0  0  0
 17 18  1  0  0  0
 18 19  1  0  0  0
 19 21  1  0  0  0
 21 22  1  0  0  0
 21 26  2  0  0  0
 22 23  2  0  0  0
 23 24  1  0  0  0
 24 32  1  0  0  0
 24 25  2  0  0  0
 32 33  1  0  0  0
 32 34  1  0  0  0
 25 26  1  0  0  0
 26 27  1  0  0  0
 27 28  1  0  0  0
 27 29  1  0  0  0
 55 58  1  0  0  0
 50 52  1  0  0  0
 42 46  1  0  0  0
 45 47  1  0  0  0
 60 62  1  0  0  0
 19 20  1  0  0  0
 33 35  1  0  0  0
 34 36  1  0  0  0
 28 30  1  0  0  0
 29 31  1  0  0  0
M  END
> <minimizedAffinity>
-9.75184

$$$$
2XEG_CI9_A_1768


 62 63  0  0  0  0  0  0  0  0999 V2000
   24.0296   44.3742   42.2368 N   0  0  0  0  0  0  0  0  0  0  0  0
   24.0739   44.9912   41.0578 C   0  0  0  0  0  0  0  0  0  0  0  0
   24.8540   43.4380   42.2862 N   0  0  0  0  0  0  0  0  0  0  0  0
   25.4902   43.3472   41.2264 N   0  0  0  0  0  0  0  0  0  0  0  0
   25.0312   44.3083   40.4281 C   0  0  0  0  0  0  0  0  0  0  0  0
   25.4766   44.5425   39.1372 C   0  0  0  0  0  0  0  0  0  0  0  0
   24.5545   44.3476   38.0529 O   0  0  0  0  0  0  0  0  0  0  0  0
   24.3350   45.5818   37.3875 C   0  0  0  0  0  0  0  0  0  0  0  0
   25.4718   46.5134   37.7389 C   0  0  0  0  0  0  0  0  0  0  0  0
   25.0932   47.8435   37.3415 O   0  0  0  0  0  0  0  0  0  0  0  0
   25.1746   48.7032   38.4741 C   0  0  0  0  0  0  0  0  0  0  0  0
   26.4239   48.3163   39.2054 C   0  0  0  0  0  0  0  0  0  0  0  0
   27.2017   49.4990   39.5199 O   0  0  0  0  0  0  0  0  0  0  0  0
   28.6128   49.1470   39.5719 C   0  0  0  0  0  0  0  0  0  0  0  0
   29.0662   48.7717   41.0072 C   0  0  0  0  0  0  0  0  0  0  0  0
   29.0896   49.9139   41.8820 O   0  0  0  0  0  0  0  0  0  0  0  0
   27.9121   49.9811   42.6935 C   0  0  0  0  0  0  0  0  0  0  0  0
   27.3474   51.3585   42.3420 C   0  0  0  0  0  0  0  0  0  0  0  0
   25.9429   51.2493   41.9057 N   0  0  0  0  0  0  0  0  0  0  0  0
   25.7530   51.5367   40.9834 H   0  0  0  0  0  0  0  0  0  0  0  0
   24.8887   50.8042   42.6156 C   0  0  0  0  0  0  0  0  0  0  0  0
   24.4824   49.4747   42.4284 C   0  0  0  0  0  0  0  0  0  0  0  0
   23.4245   48.9474   43.1711 C   0  0  0  0  0  0  0  0  0  0  0  0
   22.7702   49.7446   44.1155 C   0  0  0  0  0  0  0  0  0  0  0  0
   23.1902   51.0616   44.3108 C   0  0  0  0  0  0  0  0  0  0  0  0
   24.2436   51.6127   43.5797 C   0  0  0  0  0  0  0  0  0  0  0  0
   24.5703   52.9014   43.8268 N   0  0  0  0  0  0  0  0  0  0  0  0
   24.8721   53.3702   45.1092 O   0  0  0  0  0  0  0  0  0  0  0  0
   24.6769   53.8336   42.7714 O   0  0  0  0  0  0  0  0  0  0  0  0
   24.7659   52.6499   45.7501 H   0  0  0  0  0  0  0  0  0  0  0  0
   24.4460   53.4018   41.9340 H   0  0  0  0  0  0  0  0  0  0  0  0
   21.7383   49.2732   44.8436 N   0  0  0  0  0  0  0  0  0  0  0  0
   21.9515   48.5206   46.0590 O   0  0  0  0  0  0  0  0  0  0  0  0
   20.3868   49.4661   44.3928 O   0  0  0  0  0  0  0  0  0  0  0  0
   22.9022   48.4681   46.2443 H   0  0  0  0  0  0  0  0  0  0  0  0
   20.3903   49.9840   43.5726 H   0  0  0  0  0  0  0  0  0  0  0  0
   23.1286   44.7134   43.3668 C   0  0  0  0  0  0  0  0  0  0  0  0
   22.3728   45.9659   43.0122 C   0  0  0  0  0  0  0  0  0  0  0  0
   20.8658   45.6756   42.7639 C   0  0  0  0  0  0  0  0  0  0  0  0
   20.5438   44.5673   43.7669 C   0  0  0  0  0  0  0  0  0  0  0  0
   19.3338   44.8038   44.6455 C   0  0  0  0  0  0  0  0  0  0  0  0
   16.6383   45.1891   42.1912 N   0  0  0  0  0  0  0  0  0  0  0  0
   17.4725   44.5924   43.0775 C   0  0  0  0  0  0  0  0  0  0  0  0
   17.2802   43.3962   43.3243 O   0  0  0  0  0  0  0  0  0  0  0  0
   18.4371   45.3479   43.6321 N   0  0  0  0  0  0  0  0  0  0  0  0
   16.5931   46.1707   42.1307 H   0  0  0  0  0  0  0  0  0  0  0  0
   18.5398   46.2852   43.3489 H   0  0  0  0  0  0  0  0  0  0  0  0
   15.7954   44.3423   41.3150 C   0  0  0  0  0  0  0  0  0  0  0  0
   16.4100   44.4229   39.8898 C   0  0  0  0  0  0  0  0  0  0  0  0
   17.6721   44.4800   39.7944 O   0  0  0  0  0  0  0  0  0  0  0  0
   15.6642   44.4281   38.8675 O   0  0  0  0  0  0  0  0  0  0  0  0
   18.2011   44.4745   40.5678 H   0  0  0  0  0  0  0  0  0  0  0  0
   14.3514   44.8873   41.1755 C   0  0  0  0  0  0  0  0  0  0  0  0
   14.3245   46.4042   41.4535 C   0  0  0  0  0  0  0  0  0  0  0  0
   14.8582   48.0757   39.8268 O   0  0  0  0  0  0  0  0  0  0  0  0
   13.9826   47.2429   40.1806 C   0  0  0  0  0  0  0  0  0  0  0  0
   12.9687   46.9795   39.4910 O   0  0  0  0  0  0  0  0  0  0  0  0
   15.5991   48.2388   40.3768 H   0  0  0  0  0  0  0  0  0  0  0  0
   19.6737   45.9126   45.6313 C   0  0  0  0  0  0  0  0  0  0  0  0
   19.1755   47.0435   45.4054 O   0  0  0  0  0  0  0  0  0  0  0  0
   20.2871   45.5430   46.6641 O   0  0  0  0  0  0  0  0  0  0  0  0
   18.7370   47.2086   44.5940 H   0  0  0  0  0  0  0  0  0  0  0  0
 55 56  1  0  0  0
 56 57  2  0  0  0
 56 54  1  0  0  0
 54 53  1  0  0  0
 53 48  1  0  0  0
 48 49  1  0  0  0
 48 42  1  0  0  0
 49 50  1  0  0  0
 49 51  2  0  0  0
 42 43  1  0  0  0
 43 44  2  0  0  0
 43 45  1  0  0  0
 45 41  1  0  0  0
 41 59  1  0  0  0
 41 40  1  0  0  0
 59 61  2  0  0  0
 59 60  1  0  0  0
 40 39  1  0  0  0
 39 38  1  0  0  0
 38 37  1  0  0  0
 37  1  1  0  0  0
  1  2  1  0  0  0
  1  3  1  0  0  0
  2  5  2  0  0  0
  3  4  2  0  0  0
  4  5  1  0  0  0
  5  6  1  0  0  0
  6  7  1  0  0  0
  7  8  1  0  0  0
  8  9  1  0  0  0
  9 10  1  0  0  0
 10 11  1  0  0  0
 11 12  1  0  0  0
 12 13  1  0  0  0
 13 14  1  0  0  0
 14 15  1  0  0  0
 15 16  1  0  0  0
 16 17  1  0  0  0
 17 18  1  0  0  0
 18 19  1  0  0  0
 19 21  1  0  0  0
 21 22  1  0  0  0
 21 26  2  0  0  0
 22 23  2  0  0  0
 23 24  1  0  0  0
 24 32  1  0  0  0
 24 25  2  0  0  0
 32 33  1  0  0  0
 32 34  1  0  0  0
 25 26  1  0  0  0
 26 27  1  0  0  0
 27 28  1  0  0  0
 27 29  1  0  0  0
 55 58  1  0  0  0
 50 52  1  0  0  0
 42 46  1  0  0  0
 45 47  1  0  0  0
 60 62  1  0  0  0
 19 20  1  0  0  0
 33 35  1  0  0  0
 34 36  1  0  0  0
 28 30  1  0  0  0
 29 31  1  0  0  0
M  END
> <minimizedAffinity>
-9.55311

$$$$
2XEG_CI9_A_1768


 62 63  0  0  0  0  0  0  0  0999 V2000
   24.3782   44.6366   40.7720 N   0  0  0  0  0  0  0  0  0  0  0  0
   23.9546   45.4911   39.8431 C   0  0  0  0  0  0  0  0  0  0  0  0
   25.3186   43.9360   40.3439 N   0  0  0  0  0  0  0  0  0  0  0  0
   25.6019   44.2353   39.1750 N   0  0  0  0  0  0  0  0  0  0  0  0
   24.7683   45.2117   38.8238 C   0  0  0  0  0  0  0  0  0  0  0  0
   24.7484   45.8242   37.5811 C   0  0  0  0  0  0  0  0  0  0  0  0
   24.9159   47.2498   37.5219 O   0  0  0  0  0  0  0  0  0  0  0  0
   26.0012   47.6360   38.3509 C   0  0  0  0  0  0  0  0  0  0  0  0
   25.6152   48.9100   39.0663 C   0  0  0  0  0  0  0  0  0  0  0  0
   26.8047   49.7026   39.2317 O   0  0  0  0  0  0  0  0  0  0  0  0
   27.9407   48.8454   39.1745 C   0  0  0  0  0  0  0  0  0  0  0  0
   29.1132   49.7235   38.8588 C   0  0  0  0  0  0  0  0  0  0  0  0
   30.3482   48.9827   39.0280 O   0  0  0  0  0  0  0  0  0  0  0  0
   30.5130   48.6363   40.4318 C   0  0  0  0  0  0  0  0  0  0  0  0
   31.0081   49.8413   41.2741 C   0  0  0  0  0  0  0  0  0  0  0  0
   30.3243   49.9349   42.5366 O   0  0  0  0  0  0  0  0  0  0  0  0
   29.0684   49.2483   42.5085 C   0  0  0  0  0  0  0  0  0  0  0  0
   28.0682   50.3800   42.7510 C   0  0  0  0  0  0  0  0  0  0  0  0
   26.7296   50.0059   42.2580 N   0  0  0  0  0  0  0  0  0  0  0  0
   26.6741   49.7510   41.3087 H   0  0  0  0  0  0  0  0  0  0  0  0
   25.5740   49.9707   42.9486 C   0  0  0  0  0  0  0  0  0  0  0  0
   24.7837   51.1294   42.9700 C   0  0  0  0  0  0  0  0  0  0  0  0
   23.5548   51.1349   43.6323 C   0  0  0  0  0  0  0  0  0  0  0  0
   23.1019   49.9762   44.2709 C   0  0  0  0  0  0  0  0  0  0  0  0
   23.8839   48.8205   44.2312 C   0  0  0  0  0  0  0  0  0  0  0  0
   25.1167   48.7898   43.5777 C   0  0  0  0  0  0  0  0  0  0  0  0
   25.8110   47.6297   43.6048 N   0  0  0  0  0  0  0  0  0  0  0  0
   26.3606   47.0528   42.4557 O   0  0  0  0  0  0  0  0  0  0  0  0
   26.0626   46.9681   44.8268 O   0  0  0  0  0  0  0  0  0  0  0  0
   26.1254   47.5875   41.6813 H   0  0  0  0  0  0  0  0  0  0  0  0
   25.6366   47.4532   45.5508 H   0  0  0  0  0  0  0  0  0  0  0  0
   21.9257   49.9470   44.9289 N   0  0  0  0  0  0  0  0  0  0  0  0
   21.5644   48.8388   45.7836 O   0  0  0  0  0  0  0  0  0  0  0  0
   20.9705   51.0066   44.7510 O   0  0  0  0  0  0  0  0  0  0  0  0
   22.2953   48.2018   45.8135 H   0  0  0  0  0  0  0  0  0  0  0  0
   21.3405   51.6793   44.1582 H   0  0  0  0  0  0  0  0  0  0  0  0
   23.8279   44.4937   42.1434 C   0  0  0  0  0  0  0  0  0  0  0  0
   23.0833   45.7550   42.4902 C   0  0  0  0  0  0  0  0  0  0  0  0
   21.5633   45.4898   42.6809 C   0  0  0  0  0  0  0  0  0  0  0  0
   21.4918   44.7619   44.0237 C   0  0  0  0  0  0  0  0  0  0  0  0
   20.1055   44.3687   44.4880 C   0  0  0  0  0  0  0  0  0  0  0  0
   17.4375   45.1082   42.0853 N   0  0  0  0  0  0  0  0  0  0  0  0
   18.1090   44.4862   43.0852 C   0  0  0  0  0  0  0  0  0  0  0  0
   17.5356   43.5560   43.6638 O   0  0  0  0  0  0  0  0  0  0  0  0
   19.3414   44.9352   43.3824 N   0  0  0  0  0  0  0  0  0  0  0  0
   17.7381   45.9841   41.7511 H   0  0  0  0  0  0  0  0  0  0  0  0
   19.7348   45.6595   42.8439 H   0  0  0  0  0  0  0  0  0  0  0  0
   16.2445   44.4503   41.5027 C   0  0  0  0  0  0  0  0  0  0  0  0
   16.5876   44.1340   40.0201 C   0  0  0  0  0  0  0  0  0  0  0  0
   17.7609   44.3931   39.6184 O   0  0  0  0  0  0  0  0  0  0  0  0
   15.7163   43.6327   39.2516 O   0  0  0  0  0  0  0  0  0  0  0  0
   18.3869   44.7643   40.2086 H   0  0  0  0  0  0  0  0  0  0  0  0
   15.0144   45.3915   41.4521 C   0  0  0  0  0  0  0  0  0  0  0  0
   15.3556   46.6736   40.6656 C   0  0  0  0  0  0  0  0  0  0  0  0
   13.6015   46.8794   39.0513 O   0  0  0  0  0  0  0  0  0  0  0  0
   14.0867   47.3859   40.0971 C   0  0  0  0  0  0  0  0  0  0  0  0
   13.5224   48.3030   40.7400 O   0  0  0  0  0  0  0  0  0  0  0  0
   14.0610   46.1954   38.6053 H   0  0  0  0  0  0  0  0  0  0  0  0
   19.7858   45.1603   45.7481 C   0  0  0  0  0  0  0  0  0  0  0  0
   19.7306   44.5142   46.8240 O   0  0  0  0  0  0  0  0  0  0  0  0
   19.7711   46.4092   45.6080 O   0  0  0  0  0  0  0  0  0  0  0  0
   19.7491   43.5775   46.8094 H   0  0  0  0  0  0  0  0  0  0  0  0
 55 56  1  0  0  0
 56 57  2  0  0  0
 56 54  1  0  0  0
 54 53  1  0  0  0
 53 48  1  0  0  0
 48 49  1  0  0  0
 48 42  1  0  0  0
 49 50  1  0  0  0
 49 51  2  0  0  0
 42 43  1  0  0  0
 43 44  2  0  0  0
 43 45  1  0  0  0
 45 41  1  0  0  0
 41 59  1  0  0  0
 41 40  1  0  0  0
 59 61  2  0  0  0
 59 60  1  0  0  0
 40 39  1  0  0  0
 39 38  1  0  0  0
 38 37  1  0  0  0
 37  1  1  0  0  0
  1  2  1  0  0  0
  1  3  1  0  0  0
  2  5  2  0  0  0
  3  4  2  0  0  0
  4  5  1  0  0  0
  5  6  1  0  0  0
  6  7  1  0  0  0
  7  8  1  0  0  0
  8  9  1  0  0  0
  9 10  1  0  0  0
 10 11  1  0  0  0
 11 12  1  0  0  0
 12 13  1  0  0  0
 13 14  1  0  0  0
 14 15  1  0  0  0
 15 16  1  0  0  0
 16 17  1  0  0  0
 17 18  1  0  0  0
 18 19  1  0  0  0
 19 21  1  0  0  0
 21 22  1  0  0  0
 21 26  2  0  0  0
 22 23  2  0  0  0
 23 24  1  0  0  0
 24 32  1  0  0  0
 24 25  2  0  0  0
 32 33  1  0  0  0
 32 34  1  0  0  0
 25 26  1  0  0  0
 26 27  1  0  0  0
 27 28  1  0  0  0
 27 29  1  0  0  0
 55 58  1  0  0  0
 50 52  1  0  0  0
 42 46  1  0  0  0
 45 47  1  0  0  0
 60 62  1  0  0  0
 19 20  1  0  0  0
 33 35  1  0  0  0
 34 36  1  0  0  0
 28 30  1  0  0  0
 29 31  1  0  0  0
M  END
> <minimizedAffinity>
-9.46037

$$$$
2XEG_CI9_A_1768


 62 63  0  0  0  0  0  0  0  0999 V2000
   23.3671   47.4202   45.1474 N   0  0  0  0  0  0  0  0  0  0  0  0
   22.9635   48.3795   44.3171 C   0  0  0  0  0  0  0  0  0  0  0  0
   23.2973   47.7950   46.3362 N   0  0  0  0  0  0  0  0  0  0  0  0
   22.8646   48.9538   46.4141 N   0  0  0  0  0  0  0  0  0  0  0  0
   22.6399   49.3566   45.1656 C   0  0  0  0  0  0  0  0  0  0  0  0
   22.1587   50.6074   44.8138 C   0  0  0  0  0  0  0  0  0  0  0  0
   21.7863   51.5137   45.8643 O   0  0  0  0  0  0  0  0  0  0  0  0
   22.6399   52.6473   45.8396 C   0  0  0  0  0  0  0  0  0  0  0  0
   23.8174   52.3288   44.9474 C   0  0  0  0  0  0  0  0  0  0  0  0
   24.6859   53.4760   44.9344 O   0  0  0  0  0  0  0  0  0  0  0  0
   24.3424   54.3011   43.8256 C   0  0  0  0  0  0  0  0  0  0  0  0
   25.5077   54.2464   42.8852 C   0  0  0  0  0  0  0  0  0  0  0  0
   25.3733   53.1109   41.9933 O   0  0  0  0  0  0  0  0  0  0  0  0
   26.4785   52.1908   42.2161 C   0  0  0  0  0  0  0  0  0  0  0  0
   26.0777   51.0142   43.1444 C   0  0  0  0  0  0  0  0  0  0  0  0
   26.0045   49.7658   42.4327 O   0  0  0  0  0  0  0  0  0  0  0  0
   26.5084   48.6803   43.2183 C   0  0  0  0  0  0  0  0  0  0  0  0
   26.3737   47.4922   42.2643 C   0  0  0  0  0  0  0  0  0  0  0  0
   25.2108   47.6684   41.3747 N   0  0  0  0  0  0  0  0  0  0  0  0
   24.4930   48.2519   41.7116 H   0  0  0  0  0  0  0  0  0  0  0  0
   25.0115   47.1281   40.1573 C   0  0  0  0  0  0  0  0  0  0  0  0
   24.2307   45.9658   40.0721 C   0  0  0  0  0  0  0  0  0  0  0  0
   23.9542   45.3892   38.8313 C   0  0  0  0  0  0  0  0  0  0  0  0
   24.4494   45.9774   37.6633 C   0  0  0  0  0  0  0  0  0  0  0  0
   25.2108   47.1442   37.7521 C   0  0  0  0  0  0  0  0  0  0  0  0
   25.5028   47.7389   38.9805 C   0  0  0  0  0  0  0  0  0  0  0  0
   26.2601   48.8592   38.9694 N   0  0  0  0  0  0  0  0  0  0  0  0
   25.7370   50.1257   39.2484 O   0  0  0  0  0  0  0  0  0  0  0  0
   27.6492   48.7884   38.7255 O   0  0  0  0  0  0  0  0  0  0  0  0
   24.7813   50.0550   39.3981 H   0  0  0  0  0  0  0  0  0  0  0  0
   27.8993   47.8687   38.5448 H   0  0  0  0  0  0  0  0  0  0  0  0
   24.2117   45.4434   36.4486 N   0  0  0  0  0  0  0  0  0  0  0  0
   23.9053   46.2720   35.3047 O   0  0  0  0  0  0  0  0  0  0  0  0
   24.2059   44.0163   36.2741 O   0  0  0  0  0  0  0  0  0  0  0  0
   23.9449   47.2063   35.5623 H   0  0  0  0  0  0  0  0  0  0  0  0
   24.4265   43.5868   37.1154 H   0  0  0  0  0  0  0  0  0  0  0  0
   23.8537   46.0735   44.7555 C   0  0  0  0  0  0  0  0  0  0  0  0
   23.3006   45.7462   43.3944 C   0  0  0  0  0  0  0  0  0  0  0  0
   22.1789   44.6726   43.4741 C   0  0  0  0  0  0  0  0  0  0  0  0
   20.8960   45.4780   43.2657 C   0  0  0  0  0  0  0  0  0  0  0  0
   19.7702   45.1881   44.2355 C   0  0  0  0  0  0  0  0  0  0  0  0
   16.7501   45.2465   42.1586 N   0  0  0  0  0  0  0  0  0  0  0  0
   17.7984   44.7514   42.8610 C   0  0  0  0  0  0  0  0  0  0  0  0
   17.8871   43.5222   42.9616 O   0  0  0  0  0  0  0  0  0  0  0  0
   18.6550   45.6326   43.4073 N   0  0  0  0  0  0  0  0  0  0  0  0
   16.4994   46.1952   42.2375 H   0  0  0  0  0  0  0  0  0  0  0  0
   18.5270   46.5952   43.2452 H   0  0  0  0  0  0  0  0  0  0  0  0
   15.9873   44.3387   41.2701 C   0  0  0  0  0  0  0  0  0  0  0  0
   16.5389   44.5520   39.8328 C   0  0  0  0  0  0  0  0  0  0  0  0
   15.7222   44.9181   38.9362 O   0  0  0  0  0  0  0  0  0  0  0  0
   17.7648   44.3652   39.5806 O   0  0  0  0  0  0  0  0  0  0  0  0
   14.8194   45.0492   39.1501 H   0  0  0  0  0  0  0  0  0  0  0  0
   14.4838   44.7074   41.1963 C   0  0  0  0  0  0  0  0  0  0  0  0
   14.2600   46.1414   41.7181 C   0  0  0  0  0  0  0  0  0  0  0  0
   12.7550   47.5215   40.4708 O   0  0  0  0  0  0  0  0  0  0  0  0
   13.9564   47.1581   40.5713 C   0  0  0  0  0  0  0  0  0  0  0  0
   14.8869   47.6759   39.9089 O   0  0  0  0  0  0  0  0  0  0  0  0
   12.0943   47.1037   40.9875 H   0  0  0  0  0  0  0  0  0  0  0  0
   19.9031   46.1419   45.4142 C   0  0  0  0  0  0  0  0  0  0  0  0
   20.6871   45.7995   46.3340 O   0  0  0  0  0  0  0  0  0  0  0  0
   19.3379   47.2551   45.2700 O   0  0  0  0  0  0  0  0  0  0  0  0
   21.0524   44.9367   46.3414 H   0  0  0  0  0  0  0  0  0  0  0  0
 55 56  1  0  0  0
 56 57  2  0  0  0
 56 54  1  0  0  0
 54 53  1  0  0  0
 53 48  1  0  0  0
 48 49  1  0  0  0
 48 42  1  0  0  0
 49 50  1  0  0  0
 49 51  2  0  0  0
 42 43  1  0  0  0
 43 44  2  0  0  0
 43 45  1  0  0  0
 45 41  1  0  0  0
 41 59  1  0  0  0
 41 40  1  0  0  0
 59 61  2  0  0  0
 59 60  1  0  0  0
 40 39  1  0  0  0
 39 38  1  0  0  0
 38 37  1  0  0  0
 37  1  1  0  0  0
  1  2  1  0  0  0
  1  3  1  0  0  0
  2  5  2  0  0  0
  3  4  2  0  0  0
  4  5  1  0  0  0
  5  6  1  0  0  0
  6  7  1  0  0  0
  7  8  1  0  0  0
  8  9  1  0  0  0
  9 10  1  0  0  0
 10 11  1  0  0  0
 11 12  1  0  0  0
 12 13  1  0  0  0
 13 14  1  0  0  0
 14 15  1  0  0  0
 15 16  1  0  0  0
 16 17  1  0  0  0
 17 18  1  0  0  0
 18 19  1  0  0  0
 19 21  1  0  0  0
 21 22  1  0  0  0
 21 26  2  0  0  0
 22 23  2  0  0  0
 23 24  1  0  0  0
 24 32  1  0  0  0
 24 25  2  0  0  0
 32 33  1  0  0  0
 32 34  1  0  0  0
 25 26  1  0  0  0
 26 27  1  0  0  0
 27 28  1  0  0  0
 27 29  1  0  0  0
 55 58  1  0  0  0
 50 52  1  0  0  0
 42 46  1  0  0  0
 45 47  1  0  0  0
 60 62  1  0  0  0
 19 20  1  0  0  0
 33 35  1  0  0  0
 34 36  1  0  0  0
 28 30  1  0  0  0
 29 31  1  0  0  0
M  END
> <minimizedAffinity>
-9.31327

$$$$
2XEG_CI9_A_1768


 62 63  0  0  0  0  0  0  0  0999 V2000
   22.7634   49.3779   45.0997 N   0  0  0  0  0  0  0  0  0  0  0  0
   22.7643   50.4842   44.3590 C   0  0  0  0  0  0  0  0  0  0  0  0
   22.8282   49.6507   46.3163 N   0  0  0  0  0  0  0  0  0  0  0  0
   22.8680   50.8761   46.4974 N   0  0  0  0  0  0  0  0  0  0  0  0
   22.8272   51.4366   45.2908 C   0  0  0  0  0  0  0  0  0  0  0  0
   22.8620   52.8010   45.0523 C   0  0  0  0  0  0  0  0  0  0  0  0
   22.4707   53.6878   46.1126 O   0  0  0  0  0  0  0  0  0  0  0  0
   23.2966   54.8419   46.0968 C   0  0  0  0  0  0  0  0  0  0  0  0
   24.7252   54.3940   45.8907 C   0  0  0  0  0  0  0  0  0  0  0  0
   25.5421   55.5704   45.7521 O   0  0  0  0  0  0  0  0  0  0  0  0
   26.5563   55.3153   44.7852 C   0  0  0  0  0  0  0  0  0  0  0  0
   26.5690   53.8322   44.5720 C   0  0  0  0  0  0  0  0  0  0  0  0
   26.9017   53.5316   43.1930 O   0  0  0  0  0  0  0  0  0  0  0  0
   25.7679   53.8604   42.3420 C   0  0  0  0  0  0  0  0  0  0  0  0
   24.9522   52.6011   41.9475 C   0  0  0  0  0  0  0  0  0  0  0  0
   25.6676   51.3847   42.2281 O   0  0  0  0  0  0  0  0  0  0  0  0
   26.6230   51.0864   41.2046 C   0  0  0  0  0  0  0  0  0  0  0  0
   25.7711   50.3671   40.1574 C   0  0  0  0  0  0  0  0  0  0  0  0
   26.1314   48.9389   40.0852 N   0  0  0  0  0  0  0  0  0  0  0  0
   26.9623   48.6787   40.5447 H   0  0  0  0  0  0  0  0  0  0  0  0
   25.4619   47.9474   39.4669 C   0  0  0  0  0  0  0  0  0  0  0  0
   25.1781   48.0958   38.1012 C   0  0  0  0  0  0  0  0  0  0  0  0
   24.5269   47.0795   37.3999 C   0  0  0  0  0  0  0  0  0  0  0  0
   24.1626   45.9009   38.0584 C   0  0  0  0  0  0  0  0  0  0  0  0
   24.4635   45.7508   39.4134 C   0  0  0  0  0  0  0  0  0  0  0  0
   25.1119   46.7526   40.1372 C   0  0  0  0  0  0  0  0  0  0  0  0
   25.3483   46.5241   41.4488 N   0  0  0  0  0  0  0  0  0  0  0  0
   26.3484   47.1920   42.1623 O   0  0  0  0  0  0  0  0  0  0  0  0
   24.5428   45.6243   42.1808 O   0  0  0  0  0  0  0  0  0  0  0  0
   26.8355   47.7793   41.5635 H   0  0  0  0  0  0  0  0  0  0  0  0
   23.8881   45.2216   41.5892 H   0  0  0  0  0  0  0  0  0  0  0  0
   23.5235   44.9025   37.4166 N   0  0  0  0  0  0  0  0  0  0  0  0
   22.1120   44.6598   37.6109 O   0  0  0  0  0  0  0  0  0  0  0  0
   24.2529   44.0130   36.5541 O   0  0  0  0  0  0  0  0  0  0  0  0
   21.7483   45.3296   38.2109 H   0  0  0  0  0  0  0  0  0  0  0  0
   25.1816   44.2902   36.5146 H   0  0  0  0  0  0  0  0  0  0  0  0
   22.7056   47.9851   44.5893 C   0  0  0  0  0  0  0  0  0  0  0  0
   21.3097   47.7186   44.0933 C   0  0  0  0  0  0  0  0  0  0  0  0
   21.2575   46.4677   43.1716 C   0  0  0  0  0  0  0  0  0  0  0  0
   21.4608   45.3007   44.1386 C   0  0  0  0  0  0  0  0  0  0  0  0
   20.3292   44.2975   44.2089 C   0  0  0  0  0  0  0  0  0  0  0  0
   17.4138   45.0695   42.1253 N   0  0  0  0  0  0  0  0  0  0  0  0
   18.2342   44.3799   42.9552 C   0  0  0  0  0  0  0  0  0  0  0  0
   17.8325   43.2889   43.3762 O   0  0  0  0  0  0  0  0  0  0  0  0
   19.4164   44.9389   43.2696 N   0  0  0  0  0  0  0  0  0  0  0  0
   17.5713   46.0249   41.9475 H   0  0  0  0  0  0  0  0  0  0  0  0
   19.6702   45.7966   42.8582 H   0  0  0  0  0  0  0  0  0  0  0  0
   16.2762   44.3642   41.4897 C   0  0  0  0  0  0  0  0  0  0  0  0
   16.6328   44.2056   39.9852 C   0  0  0  0  0  0  0  0  0  0  0  0
   17.8012   44.5308   39.6189 O   0  0  0  0  0  0  0  0  0  0  0  0
   15.7769   43.7632   39.1650 O   0  0  0  0  0  0  0  0  0  0  0  0
   18.4158   44.8558   40.2471 H   0  0  0  0  0  0  0  0  0  0  0  0
   14.9702   45.1978   41.5208 C   0  0  0  0  0  0  0  0  0  0  0  0
   15.2457   46.6389   41.0450 C   0  0  0  0  0  0  0  0  0  0  0  0
   13.6105   48.3483   40.6852 O   0  0  0  0  0  0  0  0  0  0  0  0
   14.0466   47.2496   40.2513 C   0  0  0  0  0  0  0  0  0  0  0  0
   13.6631   46.7379   39.1725 O   0  0  0  0  0  0  0  0  0  0  0  0
   13.9281   48.6904   41.4977 H   0  0  0  0  0  0  0  0  0  0  0  0
   19.7166   44.3713   45.6004 C   0  0  0  0  0  0  0  0  0  0  0  0
   19.2574   43.3025   46.0743 O   0  0  0  0  0  0  0  0  0  0  0  0
   19.8807   45.4627   46.2016 O   0  0  0  0  0  0  0  0  0  0  0  0
   19.1790   42.5441   45.5297 H   0  0  0  0  0  0  0  0  0  0  0  0
 55 56  1  0  0  0
 56 57  2  0  0  0
 56 54  1  0  0  0
 54 53  1  0  0  0
 53 48  1  0  0  0
 48 49  1  0  0  0
 48 42  1  0  0  0
 49 50  1  0  0  0
 49 51  2  0  0  0
 42 43  1  0  0  0
 43 44  2  0  0  0
 43 45  1  0  0  0
 45 41  1  0  0  0
 41 59  1  0  0  0
 41 40  1  0  0  0
 59 61  2  0  0  0
 59 60  1  0  0  0
 40 39  1  0  0  0
 39 38  1  0  0  0
 38 37  1  0  0  0
 37  1  1  0  0  0
  1  2  1  0  0  0
  1  3  1  0  0  0
  2  5  2  0  0  0
  3  4  2  0  0  0
  4  5  1  0  0  0
  5  6  1  0  0  0
  6  7  1  0  0  0
  7  8  1  0  0  0
  8  9  1  0  0  0
  9 10  1  0  0  0
 10 11  1  0  0  0
 11 12  1  0  0  0
 12 13  1  0  0  0
 13 14  1  0  0  0
 14 15  1  0  0  0
 15 16  1  0  0  0
 16 17  1  0  0  0
 17 18  1  0  0  0
 18 19  1  0  0  0
 19 21  1  0  0  0
 21 22  1  0  0  0
 21 26  2  0  0  0
 22 23  2  0  0  0
 23 24  1  0  0  0
 24 32  1  0  0  0
 24 25  2  0  0  0
 32 33  1  0  0  0
 32 34  1  0  0  0
 25 26  1  0  0  0
 26 27  1  0  0  0
 27 28  1  0  0  0
 27 29  1  0  0  0
 55 58  1  0  0  0
 50 52  1  0  0  0
 42 46  1  0  0  0
 45 47  1  0  0  0
 60 62  1  0  0  0
 19 20  1  0  0  0
 33 35  1  0  0  0
 34 36  1  0  0  0
 28 30  1  0  0  0
 29 31  1  0  0  0
M  END
> <minimizedAffinity>
-8.91952

$$$$
2XEG_CI9_A_1768


 62 63  0  0  0  0  0  0  0  0999 V2000
   23.4443   47.6889   45.1615 N   0  0  0  0  0  0  0  0  0  0  0  0
   23.3176   48.7673   44.3911 C   0  0  0  0  0  0  0  0  0  0  0  0
   23.1144   47.9361   46.3398 N   0  0  0  0  0  0  0  0  0  0  0  0
   22.7535   49.1153   46.4642 N   0  0  0  0  0  0  0  0  0  0  0  0
   22.8641   49.6719   45.2602 C   0  0  0  0  0  0  0  0  0  0  0  0
   22.5661   50.9937   44.9709 C   0  0  0  0  0  0  0  0  0  0  0  0
   21.9993   51.8072   46.0105 O   0  0  0  0  0  0  0  0  0  0  0  0
   22.2812   53.1740   45.7521 C   0  0  0  0  0  0  0  0  0  0  0  0
   23.7822   53.3423   45.7016 C   0  0  0  0  0  0  0  0  0  0  0  0
   24.0761   54.4242   44.7997 O   0  0  0  0  0  0  0  0  0  0  0  0
   24.5942   53.8852   43.5875 C   0  0  0  0  0  0  0  0  0  0  0  0
   26.0838   54.0267   43.6684 C   0  0  0  0  0  0  0  0  0  0  0  0
   26.6646   53.9293   42.3434 O   0  0  0  0  0  0  0  0  0  0  0  0
   28.1155   53.9630   42.4505 C   0  0  0  0  0  0  0  0  0  0  0  0
   28.7594   52.6067   42.0600 C   0  0  0  0  0  0  0  0  0  0  0  0
   28.1175   52.0135   40.9169 O   0  0  0  0  0  0  0  0  0  0  0  0
   29.0729   51.5500   39.9569 C   0  0  0  0  0  0  0  0  0  0  0  0
   28.2714   50.5131   39.1680 C   0  0  0  0  0  0  0  0  0  0  0  0
   27.1572   49.9891   39.9796 N   0  0  0  0  0  0  0  0  0  0  0  0
   26.8725   50.5502   40.7368 H   0  0  0  0  0  0  0  0  0  0  0  0
   26.4819   48.8362   39.8108 C   0  0  0  0  0  0  0  0  0  0  0  0
   25.7439   48.6719   38.6293 C   0  0  0  0  0  0  0  0  0  0  0  0
   25.0619   47.4793   38.3817 C   0  0  0  0  0  0  0  0  0  0  0  0
   25.1212   46.4364   39.3114 C   0  0  0  0  0  0  0  0  0  0  0  0
   25.8719   46.5982   40.4773 C   0  0  0  0  0  0  0  0  0  0  0  0
   26.5608   47.7812   40.7490 C   0  0  0  0  0  0  0  0  0  0  0  0
   27.2492   47.8521   41.9107 N   0  0  0  0  0  0  0  0  0  0  0  0
   26.6867   47.5045   43.1429 O   0  0  0  0  0  0  0  0  0  0  0  0
   28.6086   48.2345   41.9215 O   0  0  0  0  0  0  0  0  0  0  0  0
   25.7563   47.2611   43.0165 H   0  0  0  0  0  0  0  0  0  0  0  0
   28.8904   48.4522   41.0192 H   0  0  0  0  0  0  0  0  0  0  0  0
   24.4675   45.2746   39.1114 N   0  0  0  0  0  0  0  0  0  0  0  0
   25.1435   44.1048   38.5978 O   0  0  0  0  0  0  0  0  0  0  0  0
   23.0537   45.1880   39.3580 O   0  0  0  0  0  0  0  0  0  0  0  0
   26.0858   44.3021   38.4789 H   0  0  0  0  0  0  0  0  0  0  0  0
   22.7322   46.0377   39.6981 H   0  0  0  0  0  0  0  0  0  0  0  0
   23.9209   46.3531   44.7227 C   0  0  0  0  0  0  0  0  0  0  0  0
   23.4641   46.1276   43.3063 C   0  0  0  0  0  0  0  0  0  0  0  0
   22.4420   44.9598   43.2123 C   0  0  0  0  0  0  0  0  0  0  0  0
   21.1057   45.6695   42.9913 C   0  0  0  0  0  0  0  0  0  0  0  0
   20.0183   45.3566   43.9970 C   0  0  0  0  0  0  0  0  0  0  0  0
   16.8933   45.2605   42.0832 N   0  0  0  0  0  0  0  0  0  0  0  0
   17.9729   44.8194   42.7740 C   0  0  0  0  0  0  0  0  0  0  0  0
   18.0563   43.6040   42.9855 O   0  0  0  0  0  0  0  0  0  0  0  0
   18.8648   45.7364   43.1894 N   0  0  0  0  0  0  0  0  0  0  0  0
   16.6552   46.2157   42.0851 H   0  0  0  0  0  0  0  0  0  0  0  0
   18.7366   46.6811   42.9440 H   0  0  0  0  0  0  0  0  0  0  0  0
   16.0768   44.2836   41.3252 C   0  0  0  0  0  0  0  0  0  0  0  0
   16.5533   44.3537   39.8475 C   0  0  0  0  0  0  0  0  0  0  0  0
   15.6822   44.2061   38.9395 O   0  0  0  0  0  0  0  0  0  0  0  0
   17.7724   44.5544   39.5741 O   0  0  0  0  0  0  0  0  0  0  0  0
   14.7860   44.0587   39.1696 H   0  0  0  0  0  0  0  0  0  0  0  0
   14.5747   44.6639   41.2951 C   0  0  0  0  0  0  0  0  0  0  0  0
   14.3949   46.1556   41.6435 C   0  0  0  0  0  0  0  0  0  0  0  0
   13.4310   48.1409   40.7191 O   0  0  0  0  0  0  0  0  0  0  0  0
   13.8735   46.9968   40.4347 C   0  0  0  0  0  0  0  0  0  0  0  0
   14.0354   46.5978   39.2569 O   0  0  0  0  0  0  0  0  0  0  0  0
   13.3274   48.3937   41.6153 H   0  0  0  0  0  0  0  0  0  0  0  0
   20.1423   46.3418   45.1506 C   0  0  0  0  0  0  0  0  0  0  0  0
   20.6733   45.9144   46.2057 O   0  0  0  0  0  0  0  0  0  0  0  0
   19.8489   47.5321   44.8735 O   0  0  0  0  0  0  0  0  0  0  0  0
   20.8481   44.9992   46.3047 H   0  0  0  0  0  0  0  0  0  0  0  0
 55 56  1  0  0  0
 56 57  2  0  0  0
 56 54  1  0  0  0
 54 53  1  0  0  0
 53 48  1  0  0  0
 48 49  1  0  0  0
 48 42  1  0  0  0
 49 50  1  0  0  0
 49 51  2  0  0  0
 42 43  1  0  0  0
 43 44  2  0  0  0
 43 45  1  0  0  0
 45 41  1  0  0  0
 41 59  1  0  0  0
 41 40  1  0  0  0
 59 61  2  0  0  0
 59 60  1  0  0  0
 40 39  1  0  0  0
 39 38  1  0  0  0
 38 37  1  0  0  0
 37  1  1  0  0  0
  1  2  1  0  0  0
  1  3  1  0  0  0
  2  5  2  0  0  0
  3  4  2  0  0  0
  4  5  1  0  0  0
  5  6  1  0  0  0
  6  7  1  0  0  0
  7  8  1  0  0  0
  8  9  1  0  0  0
  9 10  1  0  0  0
 10 11  1  0  0  0
 11 12  1  0  0  0
 12 13  1  0  0  0
 13 14  1  0  0  0
 14 15  1  0  0  0
 15 16  1  0  0  0
 16 17  1  0  0  0
 17 18  1  0  0  0
 18 19  1  0  0  0
 19 21  1  0  0  0
 21 22  1  0  0  0
 21 26  2  0  0  0
 22 23  2  0  0  0
 23 24  1  0  0  0
 24 32  1  0  0  0
 24 25  2  0  0  0
 32 33  1  0  0  0
 32 34  1  0  0  0
 25 26  1  0  0  0
 26 27  1  0  0  0
 27 28  1  0  0  0
 27 29  1  0  0  0
 55 58  1  0  0  0
 50 52  1  0  0  0
 42 46  1  0  0  0
 45 47  1  0  0  0
 60 62  1  0  0  0
 19 20  1  0  0  0
 33 35  1  0  0  0
 34 36  1  0  0  0
 28 30  1  0  0  0
 29 31  1  0  0  0
M  END
> <minimizedAffinity>
-8.91570

$$$$
2XEG_CI9_A_1768


 62 63  0  0  0  0  0  0  0  0999 V2000
   24.3655   44.3106   41.4986 N   0  0  0  0  0  0  0  0  0  0  0  0
   24.0091   45.0369   40.4413 C   0  0  0  0  0  0  0  0  0  0  0  0
   25.3537   43.5931   41.2396 N   0  0  0  0  0  0  0  0  0  0  0  0
   25.7335   43.7613   40.0718 N   0  0  0  0  0  0  0  0  0  0  0  0
   24.9153   44.6642   39.5361 C   0  0  0  0  0  0  0  0  0  0  0  0
   24.9935   45.1255   38.2320 C   0  0  0  0  0  0  0  0  0  0  0  0
   24.0782   46.1520   37.8168 O   0  0  0  0  0  0  0  0  0  0  0  0
   24.8053   47.2956   37.3952 C   0  0  0  0  0  0  0  0  0  0  0  0
   25.7770   47.6648   38.4922 C   0  0  0  0  0  0  0  0  0  0  0  0
   25.1645   48.6851   39.3010 O   0  0  0  0  0  0  0  0  0  0  0  0
   26.1393   49.6774   39.6067 C   0  0  0  0  0  0  0  0  0  0  0  0
   25.4037   50.7936   40.2837 C   0  0  0  0  0  0  0  0  0  0  0  0
   24.6820   50.2865   41.4346 O   0  0  0  0  0  0  0  0  0  0  0  0
   24.8990   51.1735   42.5677 C   0  0  0  0  0  0  0  0  0  0  0  0
   24.7184   52.6652   42.1816 C   0  0  0  0  0  0  0  0  0  0  0  0
   25.8132   53.4781   42.6410 O   0  0  0  0  0  0  0  0  0  0  0  0
   26.8803   52.6795   43.1634 C   0  0  0  0  0  0  0  0  0  0  0  0
   28.0339   53.0086   42.2143 C   0  0  0  0  0  0  0  0  0  0  0  0
   28.4893   51.7964   41.5087 N   0  0  0  0  0  0  0  0  0  0  0  0
   27.8737   51.4330   40.8317 H   0  0  0  0  0  0  0  0  0  0  0  0
   29.6449   51.1260   41.6781 C   0  0  0  0  0  0  0  0  0  0  0  0
   30.8455   51.8138   41.4473 C   0  0  0  0  0  0  0  0  0  0  0  0
   32.0731   51.1813   41.6514 C   0  0  0  0  0  0  0  0  0  0  0  0
   32.1092   49.8567   42.0981 C   0  0  0  0  0  0  0  0  0  0  0  0
   30.9117   49.1825   42.3436 C   0  0  0  0  0  0  0  0  0  0  0  0
   29.6717   49.7917   42.1454 C   0  0  0  0  0  0  0  0  0  0  0  0
   28.5654   49.0555   42.3951 N   0  0  0  0  0  0  0  0  0  0  0  0
   27.6471   49.3897   43.3954 O   0  0  0  0  0  0  0  0  0  0  0  0
   28.2560   47.9273   41.6041 O   0  0  0  0  0  0  0  0  0  0  0  0
   27.9596   50.1746   43.8720 H   0  0  0  0  0  0  0  0  0  0  0  0
   28.9571   47.7903   40.9479 H   0  0  0  0  0  0  0  0  0  0  0  0
   33.2754   49.2103   42.2963 N   0  0  0  0  0  0  0  0  0  0  0  0
   34.1959   49.6121   43.3357 O   0  0  0  0  0  0  0  0  0  0  0  0
   33.6577   48.1262   41.4328 O   0  0  0  0  0  0  0  0  0  0  0  0
   33.8140   50.3481   43.8391 H   0  0  0  0  0  0  0  0  0  0  0  0
   32.9527   47.9634   40.7868 H   0  0  0  0  0  0  0  0  0  0  0  0
   23.6988   44.3135   42.8250 C   0  0  0  0  0  0  0  0  0  0  0  0
   23.0384   45.6517   43.0218 C   0  0  0  0  0  0  0  0  0  0  0  0
   21.4984   45.5655   42.8269 C   0  0  0  0  0  0  0  0  0  0  0  0
   21.0360   44.7005   44.0000 C   0  0  0  0  0  0  0  0  0  0  0  0
   19.7255   45.1046   44.6413 C   0  0  0  0  0  0  0  0  0  0  0  0
   17.1838   45.3933   42.0156 N   0  0  0  0  0  0  0  0  0  0  0  0
   17.8208   44.9353   43.1210 C   0  0  0  0  0  0  0  0  0  0  0  0
   17.2608   44.0472   43.7743 O   0  0  0  0  0  0  0  0  0  0  0  0
   19.0059   45.4895   43.4325 N   0  0  0  0  0  0  0  0  0  0  0  0
   17.4589   46.2401   41.5954 H   0  0  0  0  0  0  0  0  0  0  0  0
   19.3948   46.1674   42.8337 H   0  0  0  0  0  0  0  0  0  0  0  0
   16.0674   44.6008   41.4491 C   0  0  0  0  0  0  0  0  0  0  0  0
   16.4730   44.2334   39.9944 C   0  0  0  0  0  0  0  0  0  0  0  0
   15.6067   43.6627   39.2671 O   0  0  0  0  0  0  0  0  0  0  0  0
   17.6316   44.5027   39.5627 O   0  0  0  0  0  0  0  0  0  0  0  0
   14.7560   43.4746   39.6119 H   0  0  0  0  0  0  0  0  0  0  0  0
   14.7615   45.4251   41.3199 C   0  0  0  0  0  0  0  0  0  0  0  0
   15.0451   46.7670   40.6145 C   0  0  0  0  0  0  0  0  0  0  0  0
   13.5496   46.9293   38.7538 O   0  0  0  0  0  0  0  0  0  0  0  0
   13.7793   47.3581   39.9152 C   0  0  0  0  0  0  0  0  0  0  0  0
   12.9810   48.0919   40.5452 O   0  0  0  0  0  0  0  0  0  0  0  0
   14.1776   46.3831   38.3233 H   0  0  0  0  0  0  0  0  0  0  0  0
   19.9710   46.3555   45.4730 C   0  0  0  0  0  0  0  0  0  0  0  0
   19.1116   47.2680   45.3906 O   0  0  0  0  0  0  0  0  0  0  0  0
   20.9269   46.2805   46.2855 O   0  0  0  0  0  0  0  0  0  0  0  0
   18.4382   47.2200   44.7409 H   0  0  0  0  0  0  0  0  0  0  0  0
 55 56  1  0  0  0
 56 57  2  0  0  0
 56 54  1  0  0  0
 54 53  1  0  0  0
 53 48  1  0  0  0
 48 49  1  0  0  0
 48 42  1  0  0  0
 49 50  1  0  0  0
 49 51  2  0  0  0
 42 43  1  0  0  0
 43 44  2  0  0  0
 43 45  1  0  0  0
 45 41  1  0  0  0
 41 59  1  0  0  0
 41 40  1  0  0  0
 59 61  2  0  0  0
 59 60  1  0  0  0
 40 39  1  0  0  0
 39 38  1  0  0  0
 38 37  1  0  0  0
 37  1  1  0  0  0
  1  2  1  0  0  0
  1  3  1  0  0  0
  2  5  2  0  0  0
  3  4  2  0  0  0
  4  5  1  0  0  0
  5  6  1  0  0  0
  6  7  1  0  0  0
  7  8  1  0  0  0
  8  9  1  0  0  0
  9 10  1  0  0  0
 10 11  1  0  0  0
 11 12  1  0  0  0
 12 13  1  0  0  0
 13 14  1  0  0  0
 14 15  1  0  0  0
 15 16  1  0  0  0
 16 17  1  0  0  0
 17 18  1  0  0  0
 18 19  1  0  0  0
 19 21  1  0  0  0
 21 22  1  0  0  0
 21 26  2  0  0  0
 22 23  2  0  0  0
 23 24  1  0  0  0
 24 32  1  0  0  0
 24 25  2  0  0  0
 32 33  1  0  0  0
 32 34  1  0  0  0
 25 26  1  0  0  0
 26 27  1  0  0  0
 27 28  1  0  0  0
 27 29  1  0  0  0
 55 58  1  0  0  0
 50 52  1  0  0  0
 42 46  1  0  0  0
 45 47  1  0  0  0
 60 62  1  0  0  0
 19 20  1  0  0  0
 33 35  1  0  0  0
 34 36  1  0  0  0
 28 30  1  0  0  0
 29 31  1  0  0  0
M  END
> <minimizedAffinity>
-8.81392

$$$$
2XEG_CI9_A_1768


 62 63  0  0  0  0  0  0  0  0999 V2000
   23.8813   48.5899   43.4230 N   0  0  0  0  0  0  0  0  0  0  0  0
   24.2504   49.0828   42.2426 C   0  0  0  0  0  0  0  0  0  0  0  0
   24.0964   49.4091   44.3401 N   0  0  0  0  0  0  0  0  0  0  0  0
   24.5873   50.4571   43.8964 N   0  0  0  0  0  0  0  0  0  0  0  0
   24.6979   50.2932   42.5801 C   0  0  0  0  0  0  0  0  0  0  0  0
   25.2154   51.2370   41.7076 C   0  0  0  0  0  0  0  0  0  0  0  0
   25.5635   52.5289   42.2303 O   0  0  0  0  0  0  0  0  0  0  0  0
   26.9377   52.7865   41.9859 C   0  0  0  0  0  0  0  0  0  0  0  0
   27.2970   52.1853   40.6467 C   0  0  0  0  0  0  0  0  0  0  0  0
   28.5934   51.5732   40.7699 O   0  0  0  0  0  0  0  0  0  0  0  0
   29.4996   52.5217   41.3244 C   0  0  0  0  0  0  0  0  0  0  0  0
   30.7790   52.3774   40.5578 C   0  0  0  0  0  0  0  0  0  0  0  0
   30.6987   53.1181   39.3138 O   0  0  0  0  0  0  0  0  0  0  0  0
   31.6240   52.5413   38.3500 C   0  0  0  0  0  0  0  0  0  0  0  0
   33.1036   52.7534   38.7652 C   0  0  0  0  0  0  0  0  0  0  0  0
   33.8715   51.5406   38.6655 O   0  0  0  0  0  0  0  0  0  0  0  0
   34.8752   51.4666   39.6836 C   0  0  0  0  0  0  0  0  0  0  0  0
   34.8867   49.9762   40.0278 C   0  0  0  0  0  0  0  0  0  0  0  0
   33.6064   49.3462   39.6555 N   0  0  0  0  0  0  0  0  0  0  0  0
   33.5234   49.0561   38.7184 H   0  0  0  0  0  0  0  0  0  0  0  0
   32.5368   49.1196   40.4419 C   0  0  0  0  0  0  0  0  0  0  0  0
   32.6661   49.3653   41.8169 C   0  0  0  0  0  0  0  0  0  0  0  0
   31.5764   49.1909   42.6718 C   0  0  0  0  0  0  0  0  0  0  0  0
   30.3442   48.7780   42.1553 C   0  0  0  0  0  0  0  0  0  0  0  0
   30.2160   48.5523   40.7836 C   0  0  0  0  0  0  0  0  0  0  0  0
   31.2906   48.7175   39.9085 C   0  0  0  0  0  0  0  0  0  0  0  0
   31.0760   48.4611   38.5982 N   0  0  0  0  0  0  0  0  0  0  0  0
   29.8909   48.8139   37.9450 O   0  0  0  0  0  0  0  0  0  0  0  0
   32.0813   47.8647   37.8058 O   0  0  0  0  0  0  0  0  0  0  0  0
   29.2769   49.2119   38.5818 H   0  0  0  0  0  0  0  0  0  0  0  0
   32.8522   47.6636   38.3591 H   0  0  0  0  0  0  0  0  0  0  0  0
   29.2729   48.5891   42.9514 N   0  0  0  0  0  0  0  0  0  0  0  0
   29.1954   47.4697   43.8625 O   0  0  0  0  0  0  0  0  0  0  0  0
   28.1467   49.4793   42.8724 O   0  0  0  0  0  0  0  0  0  0  0  0
   30.0170   46.9563   43.8145 H   0  0  0  0  0  0  0  0  0  0  0  0
   28.3327   50.1797   42.2276 H   0  0  0  0  0  0  0  0  0  0  0  0
   23.2977   47.2464   43.6646 C   0  0  0  0  0  0  0  0  0  0  0  0
   23.0901   46.5726   42.3348 C   0  0  0  0  0  0  0  0  0  0  0  0
   21.8799   45.5971   42.3688 C   0  0  0  0  0  0  0  0  0  0  0  0
   20.9966   46.1598   43.4829 C   0  0  0  0  0  0  0  0  0  0  0  0
   19.9618   45.2100   44.0476 C   0  0  0  0  0  0  0  0  0  0  0  0
   16.8578   45.2436   42.0977 N   0  0  0  0  0  0  0  0  0  0  0  0
   17.9288   44.7568   42.7711 C   0  0  0  0  0  0  0  0  0  0  0  0
   18.0070   43.5302   42.9067 O   0  0  0  0  0  0  0  0  0  0  0  0
   18.8181   45.6432   43.2530 N   0  0  0  0  0  0  0  0  0  0  0  0
   16.6219   46.1975   42.1570 H   0  0  0  0  0  0  0  0  0  0  0  0
   18.6948   46.6019   43.0660 H   0  0  0  0  0  0  0  0  0  0  0  0
   16.0475   44.3187   41.2710 C   0  0  0  0  0  0  0  0  0  0  0  0
   16.5771   44.4399   39.8148 C   0  0  0  0  0  0  0  0  0  0  0  0
   15.7237   44.5235   38.8822 O   0  0  0  0  0  0  0  0  0  0  0  0
   17.8209   44.4557   39.5826 O   0  0  0  0  0  0  0  0  0  0  0  0
   14.8084   44.5094   39.0820 H   0  0  0  0  0  0  0  0  0  0  0  0
   14.5560   44.7347   41.2059 C   0  0  0  0  0  0  0  0  0  0  0  0
   14.3953   46.2112   41.6215 C   0  0  0  0  0  0  0  0  0  0  0  0
   13.5029   48.2729   40.7978 O   0  0  0  0  0  0  0  0  0  0  0  0
   13.8303   47.1022   40.4693 C   0  0  0  0  0  0  0  0  0  0  0  0
   13.8534   46.7052   39.2799 O   0  0  0  0  0  0  0  0  0  0  0  0
   13.5009   48.5228   41.7008 H   0  0  0  0  0  0  0  0  0  0  0  0
   19.7104   45.5921   45.4993 C   0  0  0  0  0  0  0  0  0  0  0  0
   19.6659   44.6530   46.3325 O   0  0  0  0  0  0  0  0  0  0  0  0
   19.7361   46.8250   45.7419 O   0  0  0  0  0  0  0  0  0  0  0  0
   19.6504   43.7642   46.0362 H   0  0  0  0  0  0  0  0  0  0  0  0
 55 56  1  0  0  0
 56 57  2  0  0  0
 56 54  1  0  0  0
 54 53  1  0  0  0
 53 48  1  0  0  0
 48 49  1  0  0  0
 48 42  1  0  0  0
 49 50  1  0  0  0
 49 51  2  0  0  0
 42 43  1  0  0  0
 43 44  2  0  0  0
 43 45  1  0  0  0
 45 41  1  0  0  0
 41 59  1  0  0  0
 41 40  1  0  0  0
 59 61  2  0  0  0
 59 60  1  0  0  0
 40 39  1  0  0  0
 39 38  1  0  0  0
 38 37  1  0  0  0
 37  1  1  0  0  0
  1  2  1  0  0  0
  1  3  1  0  0  0
  2  5  2  0  0  0
  3  4  2  0  0  0
  4  5  1  0  0  0
  5  6  1  0  0  0
  6  7  1  0  0  0
  7  8  1  0  0  0
  8  9  1  0  0  0
  9 10  1  0  0  0
 10 11  1  0  0  0
 11 12  1  0  0  0
 12 13  1  0  0  0
 13 14  1  0  0  0
 14 15  1  0  0  0
 15 16  1  0  0  0
 16 17  1  0  0  0
 17 18  1  0  0  0
 18 19  1  0  0  0
 19 21  1  0  0  0
 21 22  1  0  0  0
 21 26  2  0  0  0
 22 23  2  0  0  0
 23 24  1  0  0  0
 24 32  1  0  0  0
 24 25  2  0  0  0
 32 33  1  0  0  0
 32 34  1  0  0  0
 25 26  1  0  0  0
 26 27  1  0  0  0
 27 28  1  0  0  0
 27 29  1  0  0  0
 55 58  1  0  0  0
 50 52  1  0  0  0
 42 46  1  0  0  0
 45 47  1  0  0  0
 60 62  1  0  0  0
 19 20  1  0  0  0
 33 35  1  0  0  0
 34 36  1  0  0  0
 28 30  1  0  0  0
 29 31  1  0  0  0
M  END
> <minimizedAffinity>
-8.59014

$$$$
2XEG_CI9_A_1768


 62 63  0  0  0  0  0  0  0  0999 V2000
   23.2828   47.6904   45.2407 N   0  0  0  0  0  0  0  0  0  0  0  0
   22.9939   48.7358   44.4684 C   0  0  0  0  0  0  0  0  0  0  0  0
   23.2171   47.9925   46.4502 N   0  0  0  0  0  0  0  0  0  0  0  0
   22.8939   49.1800   46.5968 N   0  0  0  0  0  0  0  0  0  0  0  0
   22.7416   49.6825   45.3737 C   0  0  0  0  0  0  0  0  0  0  0  0
   22.3903   50.9938   45.0967 C   0  0  0  0  0  0  0  0  0  0  0  0
   22.0231   51.8464   46.1931 O   0  0  0  0  0  0  0  0  0  0  0  0
   22.1383   53.2049   45.7986 C   0  0  0  0  0  0  0  0  0  0  0  0
   23.6039   53.5117   45.5941 C   0  0  0  0  0  0  0  0  0  0  0  0
   23.7025   54.8047   44.9705 O   0  0  0  0  0  0  0  0  0  0  0  0
   24.6811   54.7442   43.9374 C   0  0  0  0  0  0  0  0  0  0  0  0
   25.9644   55.2204   44.5469 C   0  0  0  0  0  0  0  0  0  0  0  0
   26.8872   55.6288   43.5057 O   0  0  0  0  0  0  0  0  0  0  0  0
   28.1048   56.1417   44.1159 C   0  0  0  0  0  0  0  0  0  0  0  0
   29.3231   55.2197   43.8473 C   0  0  0  0  0  0  0  0  0  0  0  0
   29.0736   54.2943   42.7740 O   0  0  0  0  0  0  0  0  0  0  0  0
   30.1708   54.2431   41.8558 C   0  0  0  0  0  0  0  0  0  0  0  0
   30.0239   52.8490   41.2436 C   0  0  0  0  0  0  0  0  0  0  0  0
   28.9064   52.8181   40.2818 N   0  0  0  0  0  0  0  0  0  0  0  0
   28.7482   53.6478   39.7759 H   0  0  0  0  0  0  0  0  0  0  0  0
   28.0762   51.7929   40.0114 C   0  0  0  0  0  0  0  0  0  0  0  0
   28.6357   50.6036   39.5213 C   0  0  0  0  0  0  0  0  0  0  0  0
   27.8274   49.4942   39.2671 C   0  0  0  0  0  0  0  0  0  0  0  0
   26.4522   49.5630   39.5109 C   0  0  0  0  0  0  0  0  0  0  0  0
   25.9030   50.7430   40.0157 C   0  0  0  0  0  0  0  0  0  0  0  0
   26.6892   51.8665   40.2762 C   0  0  0  0  0  0  0  0  0  0  0  0
   26.0671   52.9697   40.7500 N   0  0  0  0  0  0  0  0  0  0  0  0
   26.7402   54.1727   40.9846 O   0  0  0  0  0  0  0  0  0  0  0  0
   24.6736   52.9695   40.9795 O   0  0  0  0  0  0  0  0  0  0  0  0
   27.6846   54.0570   40.7959 H   0  0  0  0  0  0  0  0  0  0  0  0
   24.3142   52.0896   40.7860 H   0  0  0  0  0  0  0  0  0  0  0  0
   25.6390   48.5157   39.2677 N   0  0  0  0  0  0  0  0  0  0  0  0
   24.9306   47.8445   40.3338 O   0  0  0  0  0  0  0  0  0  0  0  0
   25.4982   48.0039   37.9316 O   0  0  0  0  0  0  0  0  0  0  0  0
   25.1139   48.2911   41.1752 H   0  0  0  0  0  0  0  0  0  0  0  0
   26.0230   48.5450   37.3211 H   0  0  0  0  0  0  0  0  0  0  0  0
   23.6503   46.3315   44.7695 C   0  0  0  0  0  0  0  0  0  0  0  0
   23.4044   46.2604   43.2862 C   0  0  0  0  0  0  0  0  0  0  0  0
   22.2898   45.2339   42.9381 C   0  0  0  0  0  0  0  0  0  0  0  0
   20.9987   46.0361   43.1041 C   0  0  0  0  0  0  0  0  0  0  0  0
   19.9338   45.4000   43.9720 C   0  0  0  0  0  0  0  0  0  0  0  0
   16.8129   45.2492   42.0550 N   0  0  0  0  0  0  0  0  0  0  0  0
   17.9092   44.8266   42.7309 C   0  0  0  0  0  0  0  0  0  0  0  0
   18.0390   43.6088   42.9015 O   0  0  0  0  0  0  0  0  0  0  0  0
   18.7658   45.7624   43.1773 N   0  0  0  0  0  0  0  0  0  0  0  0
   16.5386   46.1940   42.0889 H   0  0  0  0  0  0  0  0  0  0  0  0
   18.6015   46.7093   42.9637 H   0  0  0  0  0  0  0  0  0  0  0  0
   16.0335   44.2679   41.2642 C   0  0  0  0  0  0  0  0  0  0  0  0
   16.5475   44.3640   39.8006 C   0  0  0  0  0  0  0  0  0  0  0  0
   15.6896   44.3107   38.8699 O   0  0  0  0  0  0  0  0  0  0  0  0
   17.7831   44.4933   39.5605 O   0  0  0  0  0  0  0  0  0  0  0  0
   14.7805   44.2146   39.0756 H   0  0  0  0  0  0  0  0  0  0  0  0
   14.5265   44.6231   41.1988 C   0  0  0  0  0  0  0  0  0  0  0  0
   14.3036   46.0856   41.6351 C   0  0  0  0  0  0  0  0  0  0  0  0
   13.4515   48.1517   40.7805 O   0  0  0  0  0  0  0  0  0  0  0  0
   13.8509   47.0030   40.4543 C   0  0  0  0  0  0  0  0  0  0  0  0
   14.0260   46.6507   39.2635 O   0  0  0  0  0  0  0  0  0  0  0  0
   13.3356   48.3682   41.6848 H   0  0  0  0  0  0  0  0  0  0  0  0
   19.8758   46.1641   45.2871 C   0  0  0  0  0  0  0  0  0  0  0  0
   19.3606   47.3094   45.2544 O   0  0  0  0  0  0  0  0  0  0  0  0
   20.2014   45.5042   46.3060 O   0  0  0  0  0  0  0  0  0  0  0  0
   19.1578   47.7084   44.4312 H   0  0  0  0  0  0  0  0  0  0  0  0
 55 56  1  0  0  0
 56 57  2  0  0  0
 56 54  1  0  0  0
 54 53  1  0  0  0
 53 48  1  0  0  0
 48 49  1  0  0  0
 48 42  1  0  0  0
 49 50  1  0  0  0
 49 51  2  0  0  0
 42 43  1  0  0  0
 43 44  2  0  0  0
 43 45  1  0  0  0
 45 41  1  0  0  0
 41 59  1  0  0  0
 41 40  1  0  0  0
 59 61  2  0  0  0
 59 60  1  0  0  0
 40 39  1  0  0  0
 39 38  1  0  0  0
 38 37  1  0  0  0
 37  1  1  0  0  0
  1  2  1  0  0  0
  1  3  1  0  0  0
  2  5  2  0  0  0
  3  4  2  0  0  0
  4  5  1  0  0  0
  5  6  1  0  0  0
  6  7  1  0  0  0
  7  8  1  0  0  0
  8  9  1  0  0  0
  9 10  1  0  0  0
 10 11  1  0  0  0
 11 12  1  0  0  0
 12 13  1  0  0  0
 13 14  1  0  0  0
 14 15  1  0  0  0
 15 16  1  0  0  0
 16 17  1  0  0  0
 17 18  1  0  0  0
 18 19  1  0  0  0
 19 21  1  0  0  0
 21 22  1  0  0  0
 21 26  2  0  0  0
 22 23  2  0  0  0
 23 24  1  0  0  0
 24 32  1  0  0  0
 24 25  2  0  0  0
 32 33  1  0  0  0
 32 34  1  0  0  0
 25 26  1  0  0  0
 26 27  1  0  0  0
 27 28  1  0  0  0
 27 29  1  0  0  0
 55 58  1  0  0  0
 50 52  1  0  0  0
 42 46  1  0  0  0
 45 47  1  0  0  0
 60 62  1  0  0  0
 19 20  1  0  0  0
 33 35  1  0  0  0
 34 36  1  0  0  0
 28 30  1  0  0  0
 29 31  1  0  0  0
M  END
> <minimizedAffinity>
-8.54213

$$$$
2XEG_CI9_A_1768


 62 63  0  0  0  0  0  0  0  0999 V2000
   28.1144   50.2626   39.6807 N   0  0  0  0  0  0  0  0  0  0  0  0
   27.7269   49.0541   39.2782 C   0  0  0  0  0  0  0  0  0  0  0  0
   27.1314   50.9921   39.9258 N   0  0  0  0  0  0  0  0  0  0  0  0
   26.0672   50.3865   39.7334 N   0  0  0  0  0  0  0  0  0  0  0  0
   26.3983   49.1629   39.3276 C   0  0  0  0  0  0  0  0  0  0  0  0
   25.4921   48.1689   38.9950 C   0  0  0  0  0  0  0  0  0  0  0  0
   25.0156   48.1074   37.6412 O   0  0  0  0  0  0  0  0  0  0  0  0
   25.0237   46.7602   37.1947 C   0  0  0  0  0  0  0  0  0  0  0  0
   23.6129   46.2265   37.2871 C   0  0  0  0  0  0  0  0  0  0  0  0
   23.5541   45.3220   38.4046 O   0  0  0  0  0  0  0  0  0  0  0  0
   24.2557   44.1290   38.0687 C   0  0  0  0  0  0  0  0  0  0  0  0
   25.3674   44.0016   39.0653 C   0  0  0  0  0  0  0  0  0  0  0  0
   25.0787   44.8056   40.2369 O   0  0  0  0  0  0  0  0  0  0  0  0
   24.9463   43.9362   41.3964 C   0  0  0  0  0  0  0  0  0  0  0  0
   23.8157   44.4054   42.3493 C   0  0  0  0  0  0  0  0  0  0  0  0
   23.8022   43.6593   43.5796 O   0  0  0  0  0  0  0  0  0  0  0  0
   24.2922   44.4396   44.6752 C   0  0  0  0  0  0  0  0  0  0  0  0
   23.4717   45.7252   44.5577 C   0  0  0  0  0  0  0  0  0  0  0  0
   22.1933   45.5946   45.2811 N   0  0  0  0  0  0  0  0  0  0  0  0
   22.2278   45.7530   46.2522 H   0  0  0  0  0  0  0  0  0  0  0  0
   20.9845   45.2850   44.7748 C   0  0  0  0  0  0  0  0  0  0  0  0
   20.5254   46.0178   43.6703 C   0  0  0  0  0  0  0  0  0  0  0  0
   19.3000   45.7094   43.0770 C   0  0  0  0  0  0  0  0  0  0  0  0
   18.5276   44.6573   43.5789 C   0  0  0  0  0  0  0  0  0  0  0  0
   18.9974   43.9195   44.6669 C   0  0  0  0  0  0  0  0  0  0  0  0
   20.2178   44.2091   45.2789 C   0  0  0  0  0  0  0  0  0  0  0  0
   20.5838   43.4498   46.3363 N   0  0  0  0  0  0  0  0  0  0  0  0
   19.6653   42.7083   47.0860 O   0  0  0  0  0  0  0  0  0  0  0  0
   21.9427   43.3275   46.7005 O   0  0  0  0  0  0  0  0  0  0  0  0
   18.7695   42.8683   46.7500 H   0  0  0  0  0  0  0  0  0  0  0  0
   22.4849   43.8815   46.1175 H   0  0  0  0  0  0  0  0  0  0  0  0
   17.3348   44.3372   43.0386 N   0  0  0  0  0  0  0  0  0  0  0  0
   16.7146   45.1657   42.0297 O   0  0  0  0  0  0  0  0  0  0  0  0
   16.6200   43.1776   43.4983 O   0  0  0  0  0  0  0  0  0  0  0  0
   17.3019   45.9071   41.8142 H   0  0  0  0  0  0  0  0  0  0  0  0
   17.1480   42.7172   44.1692 H   0  0  0  0  0  0  0  0  0  0  0  0
   29.5169   50.7277   39.8230 C   0  0  0  0  0  0  0  0  0  0  0  0
   30.2654   49.7292   40.6648 C   0  0  0  0  0  0  0  0  0  0  0  0
   29.8725   49.8350   42.1653 C   0  0  0  0  0  0  0  0  0  0  0  0
   29.5448   48.3926   42.5530 C   0  0  0  0  0  0  0  0  0  0  0  0
   28.1316   48.1440   43.0356 C   0  0  0  0  0  0  0  0  0  0  0  0
   26.0144   51.1360   43.0942 N   0  0  0  0  0  0  0  0  0  0  0  0
   26.3661   49.8316   42.9831 C   0  0  0  0  0  0  0  0  0  0  0  0
   25.4580   49.0090   42.8168 O   0  0  0  0  0  0  0  0  0  0  0  0
   27.6730   49.5279   43.0756 N   0  0  0  0  0  0  0  0  0  0  0  0
   26.6508   51.7961   43.4527 H   0  0  0  0  0  0  0  0  0  0  0  0
   28.3320   50.2529   43.1721 H   0  0  0  0  0  0  0  0  0  0  0  0
   24.6581   51.5536   42.6683 C   0  0  0  0  0  0  0  0  0  0  0  0
   24.8174   52.9210   41.9466 C   0  0  0  0  0  0  0  0  0  0  0  0
   24.6134   52.9551   40.6967 O   0  0  0  0  0  0  0  0  0  0  0  0
   25.1379   53.9577   42.5975 O   0  0  0  0  0  0  0  0  0  0  0  0
   24.3771   52.1724   40.2390 H   0  0  0  0  0  0  0  0  0  0  0  0
   23.7174   51.8256   43.8694 C   0  0  0  0  0  0  0  0  0  0  0  0
   22.9091   50.5574   44.2118 C   0  0  0  0  0  0  0  0  0  0  0  0
   20.6090   50.0975   44.6840 O   0  0  0  0  0  0  0  0  0  0  0  0
   21.5629   50.8797   44.9362 C   0  0  0  0  0  0  0  0  0  0  0  0
   21.5049   51.7697   45.8178 O   0  0  0  0  0  0  0  0  0  0  0  0
   20.7002   49.4478   44.0150 H   0  0  0  0  0  0  0  0  0  0  0  0
   28.2038   47.6206   44.4631 C   0  0  0  0  0  0  0  0  0  0  0  0
   27.1128   47.3425   45.0201 O   0  0  0  0  0  0  0  0  0  0  0  0
   29.3604   47.3643   44.8827 O   0  0  0  0  0  0  0  0  0  0  0  0
   26.3041   47.5837   44.6130 H   0  0  0  0  0  0  0  0  0  0  0  0
 55 56  1  0  0  0
 56 57  2  0  0  0
 56 54  1  0  0  0
 54 53  1  0  0  0
 53 48  1  0  0  0
 48 49  1  0  0  0
 48 42  1  0  0  0
 49 50  1  0  0  0
 49 51  2  0  0  0
 42 43  1  0  0  0
 43 44  2  0  0  0
 43 45  1  0  0  0
 45 41  1  0  0  0
 41 59  1  0  0  0
 41 40  1  0  0  0
 59 61  2  0  0  0
 59 60  1  0  0  0
 40 39  1  0  0  0
 39 38  1  0  0  0
 38 37  1  0  0  0
 37  1  1  0  0  0
  1  2  1  0  0  0
  1  3  1  0  0  0
  2  5  2  0  0  0
  3  4  2  0  0  0
  4  5  1  0  0  0
  5  6  1  0  0  0
  6  7  1  0  0  0
  7  8  1  0  0  0
  8  9  1  0  0  0
  9 10  1  0  0  0
 10 11  1  0  0  0
 11 12  1  0  0  0
 12 13  1  0  0  0
 13 14  1  0  0  0
 14 15  1  0  0  0
 15 16  1  0  0  0
 16 17  1  0  0  0
 17 18  1  0  0  0
 18 19  1  0  0  0
 19 21  1  0  0  0
 21 22  1  0  0  0
 21 26  2  0  0  0
 22 23  2  0  0  0
 23 24  1  0  0  0
 24 32  1  0  0  0
 24 25  2  0  0  0
 32 33  1  0  0  0
 32 34  1  0  0  0
 25 26  1  0  0  0
 26 27  1  0  0  0
 27 28  1  0  0  0
 27 29  1  0  0  0
 55 58  1  0  0  0
 50 52  1  0  0  0
 42 46  1  0  0  0
 45 47  1  0  0  0
 60 62  1  0  0  0
 19 20  1  0  0  0
 33 35  1  0  0  0
 34 36  1  0  0  0
 28 30  1  0  0  0
 29 31  1  0  0  0
M  END
> <minimizedAffinity>
-8.38610

$$$$
