4QRH_0O2_B_303


 51 53  0  0  0  0  0  0  0  0999 V2000
   96.9525  -27.1459  101.7773 C   0  0  0  0  0  0  0  0  0  0  0  0
   97.2342  -27.4473  100.3403 O   0  0  0  0  0  0  0  0  0  0  0  0
   96.5179  -25.7321  101.8594 C   0  0  0  0  0  0  0  0  0  0  0  0
   96.3639  -25.2624  100.4812 C   0  0  0  0  0  0  0  0  0  0  0  0
   96.6862  -23.8496  100.2884 O   0  0  0  0  0  0  0  0  0  0  0  0
   97.3027  -26.0980   99.7071 C   0  0  0  0  0  0  0  0  0  0  0  0
   97.6082  -23.6905  100.5442 H   0  0  0  0  0  0  0  0  0  0  0  0
   96.9888  -26.2048   98.3445 N   0  0  0  0  0  0  0  0  0  0  0  0
   95.7826  -26.3132   97.7727 C   0  0  0  0  0  0  0  0  0  0  0  0
   95.9018  -26.3985   96.4488 N   0  0  0  0  0  0  0  0  0  0  0  0
   97.1954  -26.3504   96.1218 C   0  0  0  0  0  0  0  0  0  0  0  0
   97.9378  -26.3906   94.9333 C   0  0  0  0  0  0  0  0  0  0  0  0
   97.4340  -26.4673   93.8228 O   0  0  0  0  0  0  0  0  0  0  0  0
   99.2651  -26.3296   95.0024 N   0  0  0  0  0  0  0  0  0  0  0  0
   99.9151  -26.2254   96.1629 C   0  0  0  0  0  0  0  0  0  0  0  0
  101.3149  -26.1395   96.1634 N   0  0  0  0  0  0  0  0  0  0  0  0
   99.2462  -26.1744   97.3357 N   0  0  0  0  0  0  0  0  0  0  0  0
   97.8961  -26.2419   97.3336 C   0  0  0  0  0  0  0  0  0  0  0  0
   99.7861  -26.3626   94.1677 H   0  0  0  0  0  0  0  0  0  0  0  0
  101.8030  -26.0624   97.0149 H   0  0  0  0  0  0  0  0  0  0  0  0
  101.8094  -26.1564   95.3123 H   0  0  0  0  0  0  0  0  0  0  0  0
   95.9562  -28.1240  102.2595 C   0  0  0  0  0  0  0  0  0  0  0  0
   94.7637  -27.4890  102.6682 O   0  0  0  0  0  0  0  0  0  0  0  0
   93.4213  -28.3231  102.5003 P   0  0  0  0  0  0  0  0  0  0  0  0
   93.7540  -29.5658  101.7277 O   0  0  0  0  0  0  0  0  0  0  0  0
   92.8772  -28.6320  103.8640 O   0  0  0  0  0  0  0  0  0  0  0  0
   92.9513  -30.0973  101.6089 H   0  0  0  0  0  0  0  0  0  0  0  0
   92.2019  -27.4990  101.8834 O   0  0  0  0  0  0  0  0  0  0  0  0
   92.0281  -25.9709  101.4821 P   0  0  0  0  0  0  0  0  0  0  0  0
   93.2482  -25.1742  101.8834 O   0  0  0  0  0  0  0  0  0  0  0  0
   91.7257  -25.8504  100.0065 O   0  0  0  0  0  0  0  0  0  0  0  0
   93.4048  -25.2798  102.8348 H   0  0  0  0  0  0  0  0  0  0  0  0
   90.7937  -25.4090  102.3118 O   0  0  0  0  0  0  0  0  0  0  0  0
   90.7094  -25.3763  103.9114 P   0  0  0  0  0  0  0  0  0  0  0  0
   91.9951  -24.8085  104.4583 O   0  0  0  0  0  0  0  0  0  0  0  0
   90.5548  -26.7985  104.4099 O   0  0  0  0  0  0  0  0  0  0  0  0
   89.5479  -24.5402  104.3920 O   0  0  0  0  0  0  0  0  0  0  0  0
   91.3024  -27.3330  104.0995 H   0  0  0  0  0  0  0  0  0  0  0  0
   89.6498  -23.6305  104.0713 H   0  0  0  0  0  0  0  0  0  0  0  0
   97.5875  -25.0255  102.5409 O   0  0  0  0  0  0  0  0  0  0  0  0
   97.4148  -24.7008  104.0991 P   0  0  0  0  0  0  0  0  0  0  0  0
   98.6852  -24.0725  104.5401 O   0  0  0  0  0  0  0  0  0  0  0  0
   97.0252  -25.9543  104.8382 O   0  0  0  0  0  0  0  0  0  0  0  0
   99.3865  -24.7423  104.5625 H   0  0  0  0  0  0  0  0  0  0  0  0
   96.2179  -23.6518  104.0404 O   0  0  0  0  0  0  0  0  0  0  0  0
   95.4863  -22.8860  105.2313 P   0  0  0  0  0  0  0  0  0  0  0  0
   95.5023  -23.8157  106.4079 O   0  0  0  0  0  0  0  0  0  0  0  0
   96.2592  -21.6002  105.4905 O   0  0  0  0  0  0  0  0  0  0  0  0
   94.0756  -22.5797  104.7850 O   0  0  0  0  0  0  0  0  0  0  0  0
   96.4200  -23.9915  106.6686 H   0  0  0  0  0  0  0  0  0  0  0  0
   93.6066  -22.1121  105.4937 H   0  0  0  0  0  0  0  0  0  0  0  0
 35 34  2  0  0  0
 26 24  2  0  0  0
 34 33  1  0  0  0
 34 36  1  0  0  0
 34 37  1  0  0  0
 33 29  1  0  0  0
 28 24  1  0  0  0
 28 29  1  0  0  0
 31 29  2  0  0  0
 25 24  1  0  0  0
 24 23  1  0  0  0
 29 30  1  0  0  0
 23 22  1  0  0  0
 22  1  1  0  0  0
  1  2  1  0  0  0
  1  3  1  0  0  0
  2  6  1  0  0  0
 43 41  2  0  0  0
  9 10  2  0  0  0
  9  8  1  0  0  0
  3  4  1  0  0  0
  3 40  1  0  0  0
 10 11  1  0  0  0
  6  8  1  0  0  0
  6  4  1  0  0  0
  8 18  1  0  0  0
  4  5  1  0  0  0
 48 46  2  0  0  0
 11 18  2  0  0  0
 11 12  1  0  0  0
 41 40  1  0  0  0
 41 45  1  0  0  0
 41 42  1  0  0  0
 18 17  1  0  0  0
 13 12  2  0  0  0
 12 14  1  0  0  0
 47 46  1  0  0  0
 45 46  1  0  0  0
 17 15  2  0  0  0
 46 49  1  0  0  0
 14 15  1  0  0  0
 15 16  1  0  0  0
 47 50  1  0  0  0
 49 51  1  0  0  0
 36 38  1  0  0  0
 37 39  1  0  0  0
 30 32  1  0  0  0
 25 27  1  0  0  0
  5  7  1  0  0  0
 14 19  1  0  0  0
 16 20  1  0  0  0
 16 21  1  0  0  0
 42 44  1  0  0  0
M  END
> <minimizedAffinity>
-11.81066

$$$$
4QRH_0O2_B_303


 51 53  0  0  0  0  0  0  0  0999 V2000
   97.1021  -27.1188  101.8086 C   0  0  0  0  0  0  0  0  0  0  0  0
   97.3725  -27.4024  100.3658 O   0  0  0  0  0  0  0  0  0  0  0  0
   96.6014  -25.7279  101.9033 C   0  0  0  0  0  0  0  0  0  0  0  0
   96.4006  -25.2624  100.5297 C   0  0  0  0  0  0  0  0  0  0  0  0
   96.6511  -23.8353  100.3362 O   0  0  0  0  0  0  0  0  0  0  0  0
   97.3648  -26.0497   99.7363 C   0  0  0  0  0  0  0  0  0  0  0  0
   97.5687  -23.6325  100.5765 H   0  0  0  0  0  0  0  0  0  0  0  0
   97.0324  -26.1679   98.3790 N   0  0  0  0  0  0  0  0  0  0  0  0
   95.8184  -26.2771   97.8243 C   0  0  0  0  0  0  0  0  0  0  0  0
   95.9196  -26.3750   96.4997 N   0  0  0  0  0  0  0  0  0  0  0  0
   97.2090  -26.3345   96.1552 C   0  0  0  0  0  0  0  0  0  0  0  0
   97.9353  -26.3882   94.9574 C   0  0  0  0  0  0  0  0  0  0  0  0
   97.4165  -26.4733   93.8544 O   0  0  0  0  0  0  0  0  0  0  0  0
   99.2637  -26.3314   95.0083 N   0  0  0  0  0  0  0  0  0  0  0  0
   99.9294  -26.2189   96.1590 C   0  0  0  0  0  0  0  0  0  0  0  0
  101.3293  -26.1380   96.1402 N   0  0  0  0  0  0  0  0  0  0  0  0
   99.2764  -26.1547   97.3401 N   0  0  0  0  0  0  0  0  0  0  0  0
   97.9261  -26.2174   97.3565 C   0  0  0  0  0  0  0  0  0  0  0  0
   99.7733  -26.3738   94.1671 H   0  0  0  0  0  0  0  0  0  0  0  0
  101.8290  -26.0548   96.9844 H   0  0  0  0  0  0  0  0  0  0  0  0
  101.8124  -26.1644   95.2828 H   0  0  0  0  0  0  0  0  0  0  0  0
   96.1627  -28.1452  102.3047 C   0  0  0  0  0  0  0  0  0  0  0  0
   94.8900  -27.5961  102.5707 O   0  0  0  0  0  0  0  0  0  0  0  0
   93.6721  -28.6162  102.6191 P   0  0  0  0  0  0  0  0  0  0  0  0
   92.5270  -27.9897  101.8788 O   0  0  0  0  0  0  0  0  0  0  0  0
   94.1084  -29.9105  101.9982 O   0  0  0  0  0  0  0  0  0  0  0  0
   91.7662  -28.5912  101.8912 H   0  0  0  0  0  0  0  0  0  0  0  0
   93.2840  -29.1158  104.0842 O   0  0  0  0  0  0  0  0  0  0  0  0
   93.6546  -28.5861  105.5362 P   0  0  0  0  0  0  0  0  0  0  0  0
   93.4152  -29.6613  106.5711 O   0  0  0  0  0  0  0  0  0  0  0  0
   95.0772  -28.0771  105.5582 O   0  0  0  0  0  0  0  0  0  0  0  0
   92.4929  -29.9578  106.5218 H   0  0  0  0  0  0  0  0  0  0  0  0
   92.6680  -27.3816  105.8583 O   0  0  0  0  0  0  0  0  0  0  0  0
   92.7318  -25.9397  105.1626 P   0  0  0  0  0  0  0  0  0  0  0  0
   91.7038  -25.8814  104.0607 O   0  0  0  0  0  0  0  0  0  0  0  0
   94.1080  -25.7646  104.5538 O   0  0  0  0  0  0  0  0  0  0  0  0
   92.4690  -24.8305  106.1523 O   0  0  0  0  0  0  0  0  0  0  0  0
   94.2738  -26.4786  103.9186 H   0  0  0  0  0  0  0  0  0  0  0  0
   91.5875  -24.9454  106.5402 H   0  0  0  0  0  0  0  0  0  0  0  0
   97.6475  -24.9723  102.5685 O   0  0  0  0  0  0  0  0  0  0  0  0
   97.4767  -24.6421  104.1257 P   0  0  0  0  0  0  0  0  0  0  0  0
   98.7388  -23.9910  104.5575 O   0  0  0  0  0  0  0  0  0  0  0  0
   97.1107  -25.8977  104.8733 O   0  0  0  0  0  0  0  0  0  0  0  0
   99.4508  -24.6493  104.5802 H   0  0  0  0  0  0  0  0  0  0  0  0
   96.2628  -23.6128  104.0669 O   0  0  0  0  0  0  0  0  0  0  0  0
   95.5162  -22.8619  105.2580 P   0  0  0  0  0  0  0  0  0  0  0  0
   96.3141  -21.6255  105.5473 O   0  0  0  0  0  0  0  0  0  0  0  0
   94.1027  -22.5495  104.7862 O   0  0  0  0  0  0  0  0  0  0  0  0
   95.4880  -23.7952  106.4460 O   0  0  0  0  0  0  0  0  0  0  0  0
   96.3122  -21.0494  104.7669 H   0  0  0  0  0  0  0  0  0  0  0  0
   95.0376  -23.3612  107.1874 H   0  0  0  0  0  0  0  0  0  0  0  0
 35 34  2  0  0  0
 26 24  2  0  0  0
 34 33  1  0  0  0
 34 36  1  0  0  0
 34 37  1  0  0  0
 33 29  1  0  0  0
 28 24  1  0  0  0
 28 29  1  0  0  0
 31 29  2  0  0  0
 25 24  1  0  0  0
 24 23  1  0  0  0
 29 30  1  0  0  0
 23 22  1  0  0  0
 22  1  1  0  0  0
  1  2  1  0  0  0
  1  3  1  0  0  0
  2  6  1  0  0  0
 43 41  2  0  0  0
  9 10  2  0  0  0
  9  8  1  0  0  0
  3  4  1  0  0  0
  3 40  1  0  0  0
 10 11  1  0  0  0
  6  8  1  0  0  0
  6  4  1  0  0  0
  8 18  1  0  0  0
  4  5  1  0  0  0
 48 46  2  0  0  0
 11 18  2  0  0  0
 11 12  1  0  0  0
 41 40  1  0  0  0
 41 45  1  0  0  0
 41 42  1  0  0  0
 18 17  1  0  0  0
 13 12  2  0  0  0
 12 14  1  0  0  0
 47 46  1  0  0  0
 45 46  1  0  0  0
 17 15  2  0  0  0
 46 49  1  0  0  0
 14 15  1  0  0  0
 15 16  1  0  0  0
 47 50  1  0  0  0
 49 51  1  0  0  0
 36 38  1  0  0  0
 37 39  1  0  0  0
 30 32  1  0  0  0
 25 27  1  0  0  0
  5  7  1  0  0  0
 14 19  1  0  0  0
 16 20  1  0  0  0
 16 21  1  0  0  0
 42 44  1  0  0  0
M  END
> <minimizedAffinity>
-11.47038

$$$$
4QRH_0O2_B_303


 51 53  0  0  0  0  0  0  0  0999 V2000
   93.1295  -25.8784  102.8746 C   0  0  0  0  0  0  0  0  0  0  0  0
   94.3495  -25.6384  102.0444 O   0  0  0  0  0  0  0  0  0  0  0  0
   92.8641  -27.3358  102.8662 C   0  0  0  0  0  0  0  0  0  0  0  0
   94.0083  -27.9643  102.2031 C   0  0  0  0  0  0  0  0  0  0  0  0
   93.6740  -29.1625  101.4353 O   0  0  0  0  0  0  0  0  0  0  0  0
   94.5205  -26.9181  101.2964 C   0  0  0  0  0  0  0  0  0  0  0  0
   93.0316  -28.9354  100.7449 H   0  0  0  0  0  0  0  0  0  0  0  0
   95.8678  -27.0746  100.9402 N   0  0  0  0  0  0  0  0  0  0  0  0
   96.8875  -27.4955  101.6994 C   0  0  0  0  0  0  0  0  0  0  0  0
   98.0190  -27.5012  100.9964 N   0  0  0  0  0  0  0  0  0  0  0  0
   97.7652  -27.0795   99.7553 C   0  0  0  0  0  0  0  0  0  0  0  0
   98.5125  -26.8735   98.5872 C   0  0  0  0  0  0  0  0  0  0  0  0
   99.7088  -27.1060   98.4991 O   0  0  0  0  0  0  0  0  0  0  0  0
   97.8953  -26.4118   97.5026 N   0  0  0  0  0  0  0  0  0  0  0  0
   96.5886  -26.1434   97.4852 C   0  0  0  0  0  0  0  0  0  0  0  0
   95.9953  -25.6834   96.3007 N   0  0  0  0  0  0  0  0  0  0  0  0
   95.8222  -26.3326   98.5818 N   0  0  0  0  0  0  0  0  0  0  0  0
   96.3918  -26.7905   99.7190 C   0  0  0  0  0  0  0  0  0  0  0  0
   98.4216  -26.2629   96.6840 H   0  0  0  0  0  0  0  0  0  0  0  0
   95.0317  -25.4828   96.2784 H   0  0  0  0  0  0  0  0  0  0  0  0
   96.5424  -25.5611   95.4914 H   0  0  0  0  0  0  0  0  0  0  0  0
   93.3723  -25.3058  104.2144 C   0  0  0  0  0  0  0  0  0  0  0  0
   92.7411  -24.0521  104.3632 O   0  0  0  0  0  0  0  0  0  0  0  0
   92.8539  -23.3651  105.7920 P   0  0  0  0  0  0  0  0  0  0  0  0
   91.7228  -22.3865  105.9143 O   0  0  0  0  0  0  0  0  0  0  0  0
   92.7942  -24.4349  106.8424 O   0  0  0  0  0  0  0  0  0  0  0  0
   91.7653  -21.9498  106.7794 H   0  0  0  0  0  0  0  0  0  0  0  0
   94.2821  -22.7282  106.1102 O   0  0  0  0  0  0  0  0  0  0  0  0
   95.6085  -22.5732  105.2482 P   0  0  0  0  0  0  0  0  0  0  0  0
   95.2785  -22.4917  103.7755 O   0  0  0  0  0  0  0  0  0  0  0  0
   96.4028  -21.3790  105.7237 O   0  0  0  0  0  0  0  0  0  0  0  0
   94.7701  -23.2754  103.5142 H   0  0  0  0  0  0  0  0  0  0  0  0
   96.4680  -23.8913  105.4752 O   0  0  0  0  0  0  0  0  0  0  0  0
   97.2897  -24.6526  104.3297 P   0  0  0  0  0  0  0  0  0  0  0  0
   98.7377  -24.2382  104.4075 O   0  0  0  0  0  0  0  0  0  0  0  0
   96.7347  -24.2309  102.9846 O   0  0  0  0  0  0  0  0  0  0  0  0
   97.1892  -26.1520  104.4735 O   0  0  0  0  0  0  0  0  0  0  0  0
   96.8007  -23.2673  102.8952 H   0  0  0  0  0  0  0  0  0  0  0  0
   97.5453  -26.4187  105.3354 H   0  0  0  0  0  0  0  0  0  0  0  0
   91.6456  -27.5144  102.0974 O   0  0  0  0  0  0  0  0  0  0  0  0
   90.2756  -27.7639  102.8873 P   0  0  0  0  0  0  0  0  0  0  0  0
   90.5923  -27.6251  104.3308 O   0  0  0  0  0  0  0  0  0  0  0  0
   89.6901  -29.0911  102.4807 O   0  0  0  0  0  0  0  0  0  0  0  0
   91.1197  -28.3859  104.6207 H   0  0  0  0  0  0  0  0  0  0  0  0
   89.4082  -26.5431  102.3455 O   0  0  0  0  0  0  0  0  0  0  0  0
   88.7701  -25.3225  103.1473 P   0  0  0  0  0  0  0  0  0  0  0  0
   89.9015  -24.6456  103.8621 O   0  0  0  0  0  0  0  0  0  0  0  0
   88.0919  -24.4135  102.1316 O   0  0  0  0  0  0  0  0  0  0  0  0
   87.7586  -25.8865  104.1178 O   0  0  0  0  0  0  0  0  0  0  0  0
   90.5312  -24.2958  103.2125 H   0  0  0  0  0  0  0  0  0  0  0  0
   87.3539  -25.1622  104.6203 H   0  0  0  0  0  0  0  0  0  0  0  0
 35 34  2  0  0  0
 26 24  2  0  0  0
 34 33  1  0  0  0
 34 36  1  0  0  0
 34 37  1  0  0  0
 33 29  1  0  0  0
 28 24  1  0  0  0
 28 29  1  0  0  0
 31 29  2  0  0  0
 25 24  1  0  0  0
 24 23  1  0  0  0
 29 30  1  0  0  0
 23 22  1  0  0  0
 22  1  1  0  0  0
  1  2  1  0  0  0
  1  3  1  0  0  0
  2  6  1  0  0  0
 43 41  2  0  0  0
  9 10  2  0  0  0
  9  8  1  0  0  0
  3  4  1  0  0  0
  3 40  1  0  0  0
 10 11  1  0  0  0
  6  8  1  0  0  0
  6  4  1  0  0  0
  8 18  1  0  0  0
  4  5  1  0  0  0
 48 46  2  0  0  0
 11 18  2  0  0  0
 11 12  1  0  0  0
 41 40  1  0  0  0
 41 45  1  0  0  0
 41 42  1  0  0  0
 18 17  1  0  0  0
 13 12  2  0  0  0
 12 14  1  0  0  0
 47 46  1  0  0  0
 45 46  1  0  0  0
 17 15  2  0  0  0
 46 49  1  0  0  0
 14 15  1  0  0  0
 15 16  1  0  0  0
 47 50  1  0  0  0
 49 51  1  0  0  0
 36 38  1  0  0  0
 37 39  1  0  0  0
 30 32  1  0  0  0
 25 27  1  0  0  0
  5  7  1  0  0  0
 14 19  1  0  0  0
 16 20  1  0  0  0
 16 21  1  0  0  0
 42 44  1  0  0  0
M  END
> <minimizedAffinity>
-9.39917

$$$$
4QRH_0O2_B_303


 51 53  0  0  0  0  0  0  0  0999 V2000
   92.2439  -25.6434  104.4852 C   0  0  0  0  0  0  0  0  0  0  0  0
   93.6913  -25.4944  104.1414 O   0  0  0  0  0  0  0  0  0  0  0  0
   91.6065  -26.4260  103.4010 C   0  0  0  0  0  0  0  0  0  0  0  0
   92.6883  -26.8912  102.5308 C   0  0  0  0  0  0  0  0  0  0  0  0
   92.3232  -26.9905  101.1189 O   0  0  0  0  0  0  0  0  0  0  0  0
   93.7499  -25.8799  102.7013 C   0  0  0  0  0  0  0  0  0  0  0  0
   92.0485  -26.1188  100.7939 H   0  0  0  0  0  0  0  0  0  0  0  0
   95.0382  -26.3405  102.3929 N   0  0  0  0  0  0  0  0  0  0  0  0
   95.9875  -26.7827  103.2276 C   0  0  0  0  0  0  0  0  0  0  0  0
   97.0807  -27.1260  102.5481 N   0  0  0  0  0  0  0  0  0  0  0  0
   96.8720  -26.9128  101.2467 C   0  0  0  0  0  0  0  0  0  0  0  0
   97.6119  -27.0728  100.0668 C   0  0  0  0  0  0  0  0  0  0  0  0
   98.7454  -27.5280  100.0351 O   0  0  0  0  0  0  0  0  0  0  0  0
   97.0570  -26.7259   98.9083 N   0  0  0  0  0  0  0  0  0  0  0  0
   95.8184  -26.2366   98.8287 C   0  0  0  0  0  0  0  0  0  0  0  0
   95.2840  -25.9149   97.5727 N   0  0  0  0  0  0  0  0  0  0  0  0
   95.0606  -26.0708   99.9350 N   0  0  0  0  0  0  0  0  0  0  0  0
   95.5708  -26.3954  101.1440 C   0  0  0  0  0  0  0  0  0  0  0  0
   97.5789  -26.8341   98.0806 H   0  0  0  0  0  0  0  0  0  0  0  0
   94.3709  -25.5533   97.5042 H   0  0  0  0  0  0  0  0  0  0  0  0
   95.8219  -26.0507   96.7594 H   0  0  0  0  0  0  0  0  0  0  0  0
   92.1565  -26.2629  105.8233 C   0  0  0  0  0  0  0  0  0  0  0  0
   91.1386  -25.6712  106.6017 O   0  0  0  0  0  0  0  0  0  0  0  0
   91.1957  -24.0912  106.7634 P   0  0  0  0  0  0  0  0  0  0  0  0
   90.2502  -23.4989  105.7600 O   0  0  0  0  0  0  0  0  0  0  0  0
   90.8187  -23.7414  108.1730 O   0  0  0  0  0  0  0  0  0  0  0  0
   90.2632  -22.5319  105.8349 H   0  0  0  0  0  0  0  0  0  0  0  0
   92.6644  -23.4707  106.6956 O   0  0  0  0  0  0  0  0  0  0  0  0
   93.8823  -23.4716  107.7170 P   0  0  0  0  0  0  0  0  0  0  0  0
   93.9482  -22.1605  108.4661 O   0  0  0  0  0  0  0  0  0  0  0  0
   93.7816  -24.6580  108.6473 O   0  0  0  0  0  0  0  0  0  0  0  0
   94.0118  -21.4289  107.8325 H   0  0  0  0  0  0  0  0  0  0  0  0
   95.2124  -23.5996  106.8556 O   0  0  0  0  0  0  0  0  0  0  0  0
   95.4857  -22.8256  105.4796 P   0  0  0  0  0  0  0  0  0  0  0  0
   96.3566  -23.6854  104.5983 O   0  0  0  0  0  0  0  0  0  0  0  0
   96.2277  -21.5426  105.7936 O   0  0  0  0  0  0  0  0  0  0  0  0
   94.2008  -22.5052  104.7548 O   0  0  0  0  0  0  0  0  0  0  0  0
   97.0526  -21.7518  106.2591 H   0  0  0  0  0  0  0  0  0  0  0  0
   93.7282  -23.3284  104.5553 H   0  0  0  0  0  0  0  0  0  0  0  0
   90.7302  -25.5014  102.7045 O   0  0  0  0  0  0  0  0  0  0  0  0
   89.1476  -25.6948  102.8499 P   0  0  0  0  0  0  0  0  0  0  0  0
   88.5194  -24.5219  102.1921 O   0  0  0  0  0  0  0  0  0  0  0  0
   88.7915  -25.8874  104.3010 O   0  0  0  0  0  0  0  0  0  0  0  0
   88.6644  -23.7309  102.7345 H   0  0  0  0  0  0  0  0  0  0  0  0
   88.9456  -27.0316  102.0083 O   0  0  0  0  0  0  0  0  0  0  0  0
   88.6656  -27.2117  100.4498 P   0  0  0  0  0  0  0  0  0  0  0  0
   87.7577  -26.0876  100.0483 O   0  0  0  0  0  0  0  0  0  0  0  0
   90.0093  -27.1627   99.7356 O   0  0  0  0  0  0  0  0  0  0  0  0
   88.0052  -28.5563  100.2521 O   0  0  0  0  0  0  0  0  0  0  0  0
   88.2105  -25.2410  100.1871 H   0  0  0  0  0  0  0  0  0  0  0  0
   87.8232  -28.6916   99.3089 H   0  0  0  0  0  0  0  0  0  0  0  0
 35 34  2  0  0  0
 26 24  2  0  0  0
 34 33  1  0  0  0
 34 36  1  0  0  0
 34 37  1  0  0  0
 33 29  1  0  0  0
 28 24  1  0  0  0
 28 29  1  0  0  0
 31 29  2  0  0  0
 25 24  1  0  0  0
 24 23  1  0  0  0
 29 30  1  0  0  0
 23 22  1  0  0  0
 22  1  1  0  0  0
  1  2  1  0  0  0
  1  3  1  0  0  0
  2  6  1  0  0  0
 43 41  2  0  0  0
  9 10  2  0  0  0
  9  8  1  0  0  0
  3  4  1  0  0  0
  3 40  1  0  0  0
 10 11  1  0  0  0
  6  8  1  0  0  0
  6  4  1  0  0  0
  8 18  1  0  0  0
  4  5  1  0  0  0
 48 46  2  0  0  0
 11 18  2  0  0  0
 11 12  1  0  0  0
 41 40  1  0  0  0
 41 45  1  0  0  0
 41 42  1  0  0  0
 18 17  1  0  0  0
 13 12  2  0  0  0
 12 14  1  0  0  0
 47 46  1  0  0  0
 45 46  1  0  0  0
 17 15  2  0  0  0
 46 49  1  0  0  0
 14 15  1  0  0  0
 15 16  1  0  0  0
 47 50  1  0  0  0
 49 51  1  0  0  0
 36 38  1  0  0  0
 37 39  1  0  0  0
 30 32  1  0  0  0
 25 27  1  0  0  0
  5  7  1  0  0  0
 14 19  1  0  0  0
 16 20  1  0  0  0
 16 21  1  0  0  0
 42 44  1  0  0  0
M  END
> <minimizedAffinity>
-9.38940

$$$$
4QRH_0O2_B_303


 51 53  0  0  0  0  0  0  0  0999 V2000
   94.4145  -25.4635  102.7608 C   0  0  0  0  0  0  0  0  0  0  0  0
   95.5396  -25.2296  101.8043 O   0  0  0  0  0  0  0  0  0  0  0  0
   94.0505  -26.8970  102.6790 C   0  0  0  0  0  0  0  0  0  0  0  0
   95.0608  -27.5363  101.8337 C   0  0  0  0  0  0  0  0  0  0  0  0
   94.5552  -28.6464  101.0281 O   0  0  0  0  0  0  0  0  0  0  0  0
   95.5311  -26.4522  100.9491 C   0  0  0  0  0  0  0  0  0  0  0  0
   93.8517  -28.3264  100.4420 H   0  0  0  0  0  0  0  0  0  0  0  0
   96.8119  -26.6588  100.4167 N   0  0  0  0  0  0  0  0  0  0  0  0
   97.9246  -27.0520  101.0498 C   0  0  0  0  0  0  0  0  0  0  0  0
   98.9441  -27.1256  100.1955 N   0  0  0  0  0  0  0  0  0  0  0  0
   98.5207  -26.7779   98.9779 C   0  0  0  0  0  0  0  0  0  0  0  0
   99.0960  -26.6616   97.7048 C   0  0  0  0  0  0  0  0  0  0  0  0
  100.2647  -26.9240   97.4636 O   0  0  0  0  0  0  0  0  0  0  0  0
   98.3357  -26.2566   96.6907 N   0  0  0  0  0  0  0  0  0  0  0  0
   97.0431  -25.9628   96.8410 C   0  0  0  0  0  0  0  0  0  0  0  0
   96.2922  -25.5663   95.7249 N   0  0  0  0  0  0  0  0  0  0  0  0
   96.4388  -26.0664   98.0450 N   0  0  0  0  0  0  0  0  0  0  0  0
   97.1595  -26.4634   99.1176 C   0  0  0  0  0  0  0  0  0  0  0  0
   98.7415  -26.1708   95.7978 H   0  0  0  0  0  0  0  0  0  0  0  0
   95.3377  -25.3476   95.8262 H   0  0  0  0  0  0  0  0  0  0  0  0
   96.7196  -25.5068   94.8400 H   0  0  0  0  0  0  0  0  0  0  0  0
   94.8553  -25.0168  104.0980 C   0  0  0  0  0  0  0  0  0  0  0  0
   94.7306  -23.6184  104.2433 O   0  0  0  0  0  0  0  0  0  0  0  0
   95.4943  -22.9609  105.4724 P   0  0  0  0  0  0  0  0  0  0  0  0
   96.7127  -23.7933  105.7459 O   0  0  0  0  0  0  0  0  0  0  0  0
   95.8429  -21.5456  105.1163 O   0  0  0  0  0  0  0  0  0  0  0  0
   97.2012  -23.4153  106.4939 H   0  0  0  0  0  0  0  0  0  0  0  0
   94.5878  -22.7185  106.7631 O   0  0  0  0  0  0  0  0  0  0  0  0
   93.6909  -23.6884  107.6470 P   0  0  0  0  0  0  0  0  0  0  0  0
   94.5440  -24.7493  108.3037 O   0  0  0  0  0  0  0  0  0  0  0  0
   92.8951  -22.8901  108.6532 O   0  0  0  0  0  0  0  0  0  0  0  0
   95.0356  -25.2356  107.6235 H   0  0  0  0  0  0  0  0  0  0  0  0
   92.6867  -24.4242  106.6580 O   0  0  0  0  0  0  0  0  0  0  0  0
   91.3518  -23.7698  106.0607 P   0  0  0  0  0  0  0  0  0  0  0  0
   90.9556  -24.5175  104.8124 O   0  0  0  0  0  0  0  0  0  0  0  0
   91.6500  -22.3310  105.6919 O   0  0  0  0  0  0  0  0  0  0  0  0
   90.2156  -23.8149  107.0537 O   0  0  0  0  0  0  0  0  0  0  0  0
   92.3802  -22.3054  105.0540 H   0  0  0  0  0  0  0  0  0  0  0  0
   90.0272  -24.7372  107.2878 H   0  0  0  0  0  0  0  0  0  0  0  0
   92.7391  -26.9402  102.0576 O   0  0  0  0  0  0  0  0  0  0  0  0
   91.6652  -27.9880  102.6161 P   0  0  0  0  0  0  0  0  0  0  0  0
   90.9179  -27.2898  103.6919 O   0  0  0  0  0  0  0  0  0  0  0  0
   92.3635  -29.2556  103.0346 O   0  0  0  0  0  0  0  0  0  0  0  0
   91.4932  -27.1776  104.4648 H   0  0  0  0  0  0  0  0  0  0  0  0
   90.7749  -28.2049  101.3135 O   0  0  0  0  0  0  0  0  0  0  0  0
   89.4560  -27.4384  100.8520 P   0  0  0  0  0  0  0  0  0  0  0  0
   88.3474  -28.4481  100.8754 O   0  0  0  0  0  0  0  0  0  0  0  0
   89.2267  -26.2944  101.8301 O   0  0  0  0  0  0  0  0  0  0  0  0
   89.6947  -26.9082   99.4574 O   0  0  0  0  0  0  0  0  0  0  0  0
   88.2201  -28.7676  101.7824 H   0  0  0  0  0  0  0  0  0  0  0  0
   88.9047  -26.4358   99.1515 H   0  0  0  0  0  0  0  0  0  0  0  0
 35 34  2  0  0  0
 26 24  2  0  0  0
 34 33  1  0  0  0
 34 36  1  0  0  0
 34 37  1  0  0  0
 33 29  1  0  0  0
 28 24  1  0  0  0
 28 29  1  0  0  0
 31 29  2  0  0  0
 25 24  1  0  0  0
 24 23  1  0  0  0
 29 30  1  0  0  0
 23 22  1  0  0  0
 22  1  1  0  0  0
  1  2  1  0  0  0
  1  3  1  0  0  0
  2  6  1  0  0  0
 43 41  2  0  0  0
  9 10  2  0  0  0
  9  8  1  0  0  0
  3  4  1  0  0  0
  3 40  1  0  0  0
 10 11  1  0  0  0
  6  8  1  0  0  0
  6  4  1  0  0  0
  8 18  1  0  0  0
  4  5  1  0  0  0
 48 46  2  0  0  0
 11 18  2  0  0  0
 11 12  1  0  0  0
 41 40  1  0  0  0
 41 45  1  0  0  0
 41 42  1  0  0  0
 18 17  1  0  0  0
 13 12  2  0  0  0
 12 14  1  0  0  0
 47 46  1  0  0  0
 45 46  1  0  0  0
 17 15  2  0  0  0
 46 49  1  0  0  0
 14 15  1  0  0  0
 15 16  1  0  0  0
 47 50  1  0  0  0
 49 51  1  0  0  0
 36 38  1  0  0  0
 37 39  1  0  0  0
 30 32  1  0  0  0
 25 27  1  0  0  0
  5  7  1  0  0  0
 14 19  1  0  0  0
 16 20  1  0  0  0
 16 21  1  0  0  0
 42 44  1  0  0  0
M  END
> <minimizedAffinity>
-9.36204

$$$$
4QRH_0O2_B_303


 51 53  0  0  0  0  0  0  0  0999 V2000
   96.4367  -27.2784  101.7975 C   0  0  0  0  0  0  0  0  0  0  0  0
   95.5110  -27.9281  102.7754 O   0  0  0  0  0  0  0  0  0  0  0  0
   95.6418  -26.3101  101.0068 C   0  0  0  0  0  0  0  0  0  0  0  0
   94.3178  -26.2508  101.6290 C   0  0  0  0  0  0  0  0  0  0  0  0
   93.2226  -26.0149  100.6900 O   0  0  0  0  0  0  0  0  0  0  0  0
   94.1556  -27.5747  102.2615 C   0  0  0  0  0  0  0  0  0  0  0  0
   93.1995  -26.7291  100.0341 H   0  0  0  0  0  0  0  0  0  0  0  0
   93.2343  -27.5985  103.3186 N   0  0  0  0  0  0  0  0  0  0  0  0
   93.4638  -27.4395  104.6283 C   0  0  0  0  0  0  0  0  0  0  0  0
   92.3262  -27.5357  105.3146 N   0  0  0  0  0  0  0  0  0  0  0  0
   91.3210  -27.7636  104.4658 C   0  0  0  0  0  0  0  0  0  0  0  0
   89.9356  -27.9510  104.5697 C   0  0  0  0  0  0  0  0  0  0  0  0
   89.3240  -27.9069  105.6266 O   0  0  0  0  0  0  0  0  0  0  0  0
   89.2329  -28.1774  103.4628 N   0  0  0  0  0  0  0  0  0  0  0  0
   89.7992  -28.2265  102.2558 C   0  0  0  0  0  0  0  0  0  0  0  0
   88.9967  -28.4435  101.1264 N   0  0  0  0  0  0  0  0  0  0  0  0
   91.1290  -28.0442  102.1005 N   0  0  0  0  0  0  0  0  0  0  0  0
   91.9000  -27.8199  103.1880 C   0  0  0  0  0  0  0  0  0  0  0  0
   88.2607  -28.3135  103.5370 H   0  0  0  0  0  0  0  0  0  0  0  0
   89.4059  -28.4813  100.2317 H   0  0  0  0  0  0  0  0  0  0  0  0
   88.0242  -28.5580  101.2282 H   0  0  0  0  0  0  0  0  0  0  0  0
   97.5536  -26.6810  102.5575 C   0  0  0  0  0  0  0  0  0  0  0  0
   97.1400  -26.2599  103.8396 O   0  0  0  0  0  0  0  0  0  0  0  0
   97.2255  -24.7010  104.1371 P   0  0  0  0  0  0  0  0  0  0  0  0
   98.6024  -24.4149  104.6609 O   0  0  0  0  0  0  0  0  0  0  0  0
   96.9358  -23.9558  102.8675 O   0  0  0  0  0  0  0  0  0  0  0  0
   98.6852  -23.4676  104.8524 H   0  0  0  0  0  0  0  0  0  0  0  0
   96.0608  -24.1400  105.0727 O   0  0  0  0  0  0  0  0  0  0  0  0
   95.3553  -22.7197  105.1798 P   0  0  0  0  0  0  0  0  0  0  0  0
   96.3286  -21.6799  105.6858 O   0  0  0  0  0  0  0  0  0  0  0  0
   94.7490  -22.3370  103.8497 O   0  0  0  0  0  0  0  0  0  0  0  0
   96.6923  -21.9652  106.5386 H   0  0  0  0  0  0  0  0  0  0  0  0
   94.1951  -22.8562  106.2583 O   0  0  0  0  0  0  0  0  0  0  0  0
   92.7591  -23.5079  105.9752 P   0  0  0  0  0  0  0  0  0  0  0  0
   92.4162  -24.4475  107.1039 O   0  0  0  0  0  0  0  0  0  0  0  0
   92.8418  -24.3031  104.6883 O   0  0  0  0  0  0  0  0  0  0  0  0
   91.6830  -22.4561  105.8542 O   0  0  0  0  0  0  0  0  0  0  0  0
   93.5339  -24.9779  104.7692 H   0  0  0  0  0  0  0  0  0  0  0  0
   91.6325  -21.9488  106.6795 H   0  0  0  0  0  0  0  0  0  0  0  0
   95.5693  -26.8568   99.6638 O   0  0  0  0  0  0  0  0  0  0  0  0
   95.6664  -25.8483   98.4241 P   0  0  0  0  0  0  0  0  0  0  0  0
   96.1480  -24.5555   98.9717 O   0  0  0  0  0  0  0  0  0  0  0  0
   94.3407  -25.7923   97.7109 O   0  0  0  0  0  0  0  0  0  0  0  0
   95.4435  -24.1440   99.4963 H   0  0  0  0  0  0  0  0  0  0  0  0
   96.7790  -26.5787   97.5494 O   0  0  0  0  0  0  0  0  0  0  0  0
   97.1222  -26.4066   96.0027 P   0  0  0  0  0  0  0  0  0  0  0  0
   98.5800  -26.0632   95.9264 O   0  0  0  0  0  0  0  0  0  0  0  0
   96.7940  -27.7235   95.3127 O   0  0  0  0  0  0  0  0  0  0  0  0
   96.2599  -25.2907   95.4602 O   0  0  0  0  0  0  0  0  0  0  0  0
   99.1043  -26.7981   96.2814 H   0  0  0  0  0  0  0  0  0  0  0  0
   96.4495  -25.1648   94.5173 H   0  0  0  0  0  0  0  0  0  0  0  0
 35 34  2  0  0  0
 26 24  2  0  0  0
 34 33  1  0  0  0
 34 36  1  0  0  0
 34 37  1  0  0  0
 33 29  1  0  0  0
 28 24  1  0  0  0
 28 29  1  0  0  0
 31 29  2  0  0  0
 25 24  1  0  0  0
 24 23  1  0  0  0
 29 30  1  0  0  0
 23 22  1  0  0  0
 22  1  1  0  0  0
  1  2  1  0  0  0
  1  3  1  0  0  0
  2  6  1  0  0  0
 43 41  2  0  0  0
  9 10  2  0  0  0
  9  8  1  0  0  0
  3  4  1  0  0  0
  3 40  1  0  0  0
 10 11  1  0  0  0
  6  8  1  0  0  0
  6  4  1  0  0  0
  8 18  1  0  0  0
  4  5  1  0  0  0
 48 46  2  0  0  0
 11 18  2  0  0  0
 11 12  1  0  0  0
 41 40  1  0  0  0
 41 45  1  0  0  0
 41 42  1  0  0  0
 18 17  1  0  0  0
 13 12  2  0  0  0
 12 14  1  0  0  0
 47 46  1  0  0  0
 45 46  1  0  0  0
 17 15  2  0  0  0
 46 49  1  0  0  0
 14 15  1  0  0  0
 15 16  1  0  0  0
 47 50  1  0  0  0
 49 51  1  0  0  0
 36 38  1  0  0  0
 37 39  1  0  0  0
 30 32  1  0  0  0
 25 27  1  0  0  0
  5  7  1  0  0  0
 14 19  1  0  0  0
 16 20  1  0  0  0
 16 21  1  0  0  0
 42 44  1  0  0  0
M  END
> <minimizedAffinity>
-9.26972

$$$$
4QRH_0O2_B_303


 51 53  0  0  0  0  0  0  0  0999 V2000
   92.9493  -26.4316  102.8986 C   0  0  0  0  0  0  0  0  0  0  0  0
   94.0641  -26.0937  101.9614 O   0  0  0  0  0  0  0  0  0  0  0  0
   93.0193  -27.8865  103.1685 C   0  0  0  0  0  0  0  0  0  0  0  0
   94.2599  -28.3652  102.5558 C   0  0  0  0  0  0  0  0  0  0  0  0
   94.1868  -29.7304  102.0382 O   0  0  0  0  0  0  0  0  0  0  0  0
   94.5018  -27.4234  101.4451 C   0  0  0  0  0  0  0  0  0  0  0  0
   93.4938  -29.7829  101.3615 H   0  0  0  0  0  0  0  0  0  0  0  0
   95.8411  -27.3480  101.0360 N   0  0  0  0  0  0  0  0  0  0  0  0
   96.9472  -27.5688  101.7581 C   0  0  0  0  0  0  0  0  0  0  0  0
   98.0344  -27.3895  101.0095 N   0  0  0  0  0  0  0  0  0  0  0  0
   97.6632  -27.0428   99.7747 C   0  0  0  0  0  0  0  0  0  0  0  0
   98.3175  -26.7315   98.5745 C   0  0  0  0  0  0  0  0  0  0  0  0
   99.5318  -26.7522   98.4405 O   0  0  0  0  0  0  0  0  0  0  0  0
   97.5878  -26.4062   97.5106 N   0  0  0  0  0  0  0  0  0  0  0  0
   96.2545  -26.3716   97.5433 C   0  0  0  0  0  0  0  0  0  0  0  0
   95.5448  -26.0457   96.3785 N   0  0  0  0  0  0  0  0  0  0  0  0
   95.5757  -26.6711   98.6725 N   0  0  0  0  0  0  0  0  0  0  0  0
   96.2600  -27.0000   99.7910 C   0  0  0  0  0  0  0  0  0  0  0  0
   98.0481  -26.1832   96.6693 H   0  0  0  0  0  0  0  0  0  0  0  0
   94.5608  -26.0177   96.3932 H   0  0  0  0  0  0  0  0  0  0  0  0
   96.0306  -25.8450   95.5460 H   0  0  0  0  0  0  0  0  0  0  0  0
   93.0878  -25.5773  104.0956 C   0  0  0  0  0  0  0  0  0  0  0  0
   92.1302  -24.5404  104.1046 O   0  0  0  0  0  0  0  0  0  0  0  0
   91.4448  -24.2184  105.5019 P   0  0  0  0  0  0  0  0  0  0  0  0
   90.0856  -23.6488  105.2190 O   0  0  0  0  0  0  0  0  0  0  0  0
   91.3731  -25.4858  106.3019 O   0  0  0  0  0  0  0  0  0  0  0  0
   89.6412  -23.4416  106.0559 H   0  0  0  0  0  0  0  0  0  0  0  0
   92.3232  -23.3111  106.4775 O   0  0  0  0  0  0  0  0  0  0  0  0
   93.5217  -23.6419  107.4678 P   0  0  0  0  0  0  0  0  0  0  0  0
   93.1289  -23.3418  108.8961 O   0  0  0  0  0  0  0  0  0  0  0  0
   93.9683  -25.0740  107.2859 O   0  0  0  0  0  0  0  0  0  0  0  0
   92.8501  -22.4154  108.9669 H   0  0  0  0  0  0  0  0  0  0  0  0
   94.7223  -22.6720  107.0862 O   0  0  0  0  0  0  0  0  0  0  0  0
   95.4287  -22.6172  105.6492 P   0  0  0  0  0  0  0  0  0  0  0  0
   96.2851  -23.8466  105.4770 O   0  0  0  0  0  0  0  0  0  0  0  0
   96.3200  -21.3930  105.6025 O   0  0  0  0  0  0  0  0  0  0  0  0
   94.4160  -22.5514  104.5316 O   0  0  0  0  0  0  0  0  0  0  0  0
   96.9694  -21.4383  106.3216 H   0  0  0  0  0  0  0  0  0  0  0  0
   93.8471  -23.3363  104.5642 H   0  0  0  0  0  0  0  0  0  0  0  0
   91.8549  -28.4675  102.5247 O   0  0  0  0  0  0  0  0  0  0  0  0
   90.4725  -28.4960  103.3318 P   0  0  0  0  0  0  0  0  0  0  0  0
   90.7778  -28.0192  104.7039 O   0  0  0  0  0  0  0  0  0  0  0  0
   89.8646  -29.8719  103.2481 O   0  0  0  0  0  0  0  0  0  0  0  0
   91.2870  -28.6966  105.1758 H   0  0  0  0  0  0  0  0  0  0  0  0
   89.6350  -27.4270  102.4999 O   0  0  0  0  0  0  0  0  0  0  0  0
   89.3620  -27.3564  100.9314 P   0  0  0  0  0  0  0  0  0  0  0  0
   89.0127  -28.7488  100.4975 O   0  0  0  0  0  0  0  0  0  0  0  0
   88.2226  -26.3710  100.7100 O   0  0  0  0  0  0  0  0  0  0  0  0
   90.6268  -26.8680  100.2645 O   0  0  0  0  0  0  0  0  0  0  0  0
   88.1985  -29.0315  100.9425 H   0  0  0  0  0  0  0  0  0  0  0  0
   90.4875  -26.8156   99.3060 H   0  0  0  0  0  0  0  0  0  0  0  0
 35 34  2  0  0  0
 26 24  2  0  0  0
 34 33  1  0  0  0
 34 36  1  0  0  0
 34 37  1  0  0  0
 33 29  1  0  0  0
 28 24  1  0  0  0
 28 29  1  0  0  0
 31 29  2  0  0  0
 25 24  1  0  0  0
 24 23  1  0  0  0
 29 30  1  0  0  0
 23 22  1  0  0  0
 22  1  1  0  0  0
  1  2  1  0  0  0
  1  3  1  0  0  0
  2  6  1  0  0  0
 43 41  2  0  0  0
  9 10  2  0  0  0
  9  8  1  0  0  0
  3  4  1  0  0  0
  3 40  1  0  0  0
 10 11  1  0  0  0
  6  8  1  0  0  0
  6  4  1  0  0  0
  8 18  1  0  0  0
  4  5  1  0  0  0
 48 46  2  0  0  0
 11 18  2  0  0  0
 11 12  1  0  0  0
 41 40  1  0  0  0
 41 45  1  0  0  0
 41 42  1  0  0  0
 18 17  1  0  0  0
 13 12  2  0  0  0
 12 14  1  0  0  0
 47 46  1  0  0  0
 45 46  1  0  0  0
 17 15  2  0  0  0
 46 49  1  0  0  0
 14 15  1  0  0  0
 15 16  1  0  0  0
 47 50  1  0  0  0
 49 51  1  0  0  0
 36 38  1  0  0  0
 37 39  1  0  0  0
 30 32  1  0  0  0
 25 27  1  0  0  0
  5  7  1  0  0  0
 14 19  1  0  0  0
 16 20  1  0  0  0
 16 21  1  0  0  0
 42 44  1  0  0  0
M  END
> <minimizedAffinity>
-9.20234

$$$$
4QRH_0O2_B_303


 51 53  0  0  0  0  0  0  0  0999 V2000
   92.8235  -24.4891  104.4468 C   0  0  0  0  0  0  0  0  0  0  0  0
   94.1894  -24.4103  103.8440 O   0  0  0  0  0  0  0  0  0  0  0  0
   92.1281  -25.6405  103.8263 C   0  0  0  0  0  0  0  0  0  0  0  0
   93.1245  -26.3411  103.0138 C   0  0  0  0  0  0  0  0  0  0  0  0
   92.5851  -26.9637  101.8062 O   0  0  0  0  0  0  0  0  0  0  0  0
   94.0927  -25.2903  102.6430 C   0  0  0  0  0  0  0  0  0  0  0  0
   92.1833  -26.2834  101.2436 H   0  0  0  0  0  0  0  0  0  0  0  0
   95.3675  -25.7729  102.3134 N   0  0  0  0  0  0  0  0  0  0  0  0
   96.3893  -26.0556  103.1317 C   0  0  0  0  0  0  0  0  0  0  0  0
   97.4385  -26.4868  102.4334 N   0  0  0  0  0  0  0  0  0  0  0  0
   97.1270  -26.4939  101.1350 C   0  0  0  0  0  0  0  0  0  0  0  0
   97.7814  -26.8325   99.9424 C   0  0  0  0  0  0  0  0  0  0  0  0
   98.9225  -27.2671   99.8962 O   0  0  0  0  0  0  0  0  0  0  0  0
   97.1315  -26.6902   98.7901 N   0  0  0  0  0  0  0  0  0  0  0  0
   95.8764  -26.2421   98.7295 C   0  0  0  0  0  0  0  0  0  0  0  0
   95.2404  -26.1403   97.4838 N   0  0  0  0  0  0  0  0  0  0  0  0
   95.1986  -25.9101   99.8502 N   0  0  0  0  0  0  0  0  0  0  0  0
   95.8070  -26.0229  101.0521 C   0  0  0  0  0  0  0  0  0  0  0  0
   97.5933  -26.9238   97.9526 H   0  0  0  0  0  0  0  0  0  0  0  0
   94.3143  -25.8107   97.4294 H   0  0  0  0  0  0  0  0  0  0  0  0
   95.7200  -26.3984   96.6637 H   0  0  0  0  0  0  0  0  0  0  0  0
   92.9790  -24.5826  105.9128 C   0  0  0  0  0  0  0  0  0  0  0  0
   92.4432  -25.7884  106.4139 O   0  0  0  0  0  0  0  0  0  0  0  0
   93.3168  -26.5586  107.4954 P   0  0  0  0  0  0  0  0  0  0  0  0
   94.1728  -25.5425  108.1930 O   0  0  0  0  0  0  0  0  0  0  0  0
   92.3912  -27.2655  108.4414 O   0  0  0  0  0  0  0  0  0  0  0  0
   94.7194  -25.9844  108.8615 H   0  0  0  0  0  0  0  0  0  0  0  0
   94.1422  -27.7974  106.9203 O   0  0  0  0  0  0  0  0  0  0  0  0
   93.7633  -28.9729  105.9199 P   0  0  0  0  0  0  0  0  0  0  0  0
   94.0302  -30.3181  106.5554 O   0  0  0  0  0  0  0  0  0  0  0  0
   92.3294  -28.8290  105.4655 O   0  0  0  0  0  0  0  0  0  0  0  0
   94.9589  -30.3668  106.8311 H   0  0  0  0  0  0  0  0  0  0  0  0
   94.7226  -28.8388  104.6591 O   0  0  0  0  0  0  0  0  0  0  0  0
   94.6325  -29.7493  103.3439 P   0  0  0  0  0  0  0  0  0  0  0  0
   95.0018  -31.1667  103.7028 O   0  0  0  0  0  0  0  0  0  0  0  0
   95.6328  -29.2270  102.3330 O   0  0  0  0  0  0  0  0  0  0  0  0
   93.2469  -29.7289  102.7449 O   0  0  0  0  0  0  0  0  0  0  0  0
   96.5218  -29.2414  102.7208 H   0  0  0  0  0  0  0  0  0  0  0  0
   92.6089  -30.0638  103.3943 H   0  0  0  0  0  0  0  0  0  0  0  0
   91.0781  -25.0732  102.9995 O   0  0  0  0  0  0  0  0  0  0  0  0
   89.5575  -25.2585  103.4652 P   0  0  0  0  0  0  0  0  0  0  0  0
   88.7239  -24.5329  102.4743 O   0  0  0  0  0  0  0  0  0  0  0  0
   89.4051  -24.8023  104.8928 O   0  0  0  0  0  0  0  0  0  0  0  0
   88.8427  -23.5771  102.5899 H   0  0  0  0  0  0  0  0  0  0  0  0
   89.4086  -26.8382  103.3292 O   0  0  0  0  0  0  0  0  0  0  0  0
   89.4260  -27.7457  102.0193 P   0  0  0  0  0  0  0  0  0  0  0  0
   89.7760  -26.8380  100.8779 O   0  0  0  0  0  0  0  0  0  0  0  0
   90.4620  -28.8403  102.2357 O   0  0  0  0  0  0  0  0  0  0  0  0
   88.0475  -28.3414  101.8523 O   0  0  0  0  0  0  0  0  0  0  0  0
   90.6643  -26.4733  101.0155 H   0  0  0  0  0  0  0  0  0  0  0  0
   88.0306  -28.9001  101.0596 H   0  0  0  0  0  0  0  0  0  0  0  0
 35 34  2  0  0  0
 26 24  2  0  0  0
 34 33  1  0  0  0
 34 36  1  0  0  0
 34 37  1  0  0  0
 33 29  1  0  0  0
 28 24  1  0  0  0
 28 29  1  0  0  0
 31 29  2  0  0  0
 25 24  1  0  0  0
 24 23  1  0  0  0
 29 30  1  0  0  0
 23 22  1  0  0  0
 22  1  1  0  0  0
  1  2  1  0  0  0
  1  3  1  0  0  0
  2  6  1  0  0  0
 43 41  2  0  0  0
  9 10  2  0  0  0
  9  8  1  0  0  0
  3  4  1  0  0  0
  3 40  1  0  0  0
 10 11  1  0  0  0
  6  8  1  0  0  0
  6  4  1  0  0  0
  8 18  1  0  0  0
  4  5  1  0  0  0
 48 46  2  0  0  0
 11 18  2  0  0  0
 11 12  1  0  0  0
 41 40  1  0  0  0
 41 45  1  0  0  0
 41 42  1  0  0  0
 18 17  1  0  0  0
 13 12  2  0  0  0
 12 14  1  0  0  0
 47 46  1  0  0  0
 45 46  1  0  0  0
 17 15  2  0  0  0
 46 49  1  0  0  0
 14 15  1  0  0  0
 15 16  1  0  0  0
 47 50  1  0  0  0
 49 51  1  0  0  0
 36 38  1  0  0  0
 37 39  1  0  0  0
 30 32  1  0  0  0
 25 27  1  0  0  0
  5  7  1  0  0  0
 14 19  1  0  0  0
 16 20  1  0  0  0
 16 21  1  0  0  0
 42 44  1  0  0  0
M  END
> <minimizedAffinity>
-9.14977

$$$$
4QRH_0O2_B_303


 51 53  0  0  0  0  0  0  0  0999 V2000
   91.9841  -27.5092  106.6264 C   0  0  0  0  0  0  0  0  0  0  0  0
   92.7946  -28.7506  106.4331 O   0  0  0  0  0  0  0  0  0  0  0  0
   92.5310  -26.4739  105.7190 C   0  0  0  0  0  0  0  0  0  0  0  0
   93.5205  -27.1424  104.8717 C   0  0  0  0  0  0  0  0  0  0  0  0
   94.6500  -26.2983  104.4864 O   0  0  0  0  0  0  0  0  0  0  0  0
   93.9991  -28.2702  105.6952 C   0  0  0  0  0  0  0  0  0  0  0  0
   95.1130  -25.9943  105.2827 H   0  0  0  0  0  0  0  0  0  0  0  0
   94.5482  -29.3290  104.9574 N   0  0  0  0  0  0  0  0  0  0  0  0
   94.2932  -29.6835  103.6914 C   0  0  0  0  0  0  0  0  0  0  0  0
   95.0135  -30.7520  103.3539 N   0  0  0  0  0  0  0  0  0  0  0  0
   95.7585  -31.1250  104.3973 C   0  0  0  0  0  0  0  0  0  0  0  0
   96.6913  -32.1378  104.6602 C   0  0  0  0  0  0  0  0  0  0  0  0
   97.0449  -32.9639  103.8321 O   0  0  0  0  0  0  0  0  0  0  0  0
   97.2400  -32.2078  105.8703 N   0  0  0  0  0  0  0  0  0  0  0  0
   96.9384  -31.3441  106.8414 C   0  0  0  0  0  0  0  0  0  0  0  0
   97.5728  -31.4586  108.0868 N   0  0  0  0  0  0  0  0  0  0  0  0
   96.0521  -30.3450  106.6369 N   0  0  0  0  0  0  0  0  0  0  0  0
   95.4523  -30.2259  105.4312 C   0  0  0  0  0  0  0  0  0  0  0  0
   97.8916  -32.9222  106.0556 H   0  0  0  0  0  0  0  0  0  0  0  0
   97.3565  -30.8257  108.8094 H   0  0  0  0  0  0  0  0  0  0  0  0
   98.2343  -32.1717  108.2387 H   0  0  0  0  0  0  0  0  0  0  0  0
   90.5671  -27.8503  106.3863 C   0  0  0  0  0  0  0  0  0  0  0  0
   90.4414  -28.9649  105.5295 O   0  0  0  0  0  0  0  0  0  0  0  0
   89.4987  -28.7843  104.2627 P   0  0  0  0  0  0  0  0  0  0  0  0
   89.3869  -30.1198  103.5874 O   0  0  0  0  0  0  0  0  0  0  0  0
   88.1676  -28.2708  104.7272 O   0  0  0  0  0  0  0  0  0  0  0  0
   88.8155  -30.0410  102.8076 H   0  0  0  0  0  0  0  0  0  0  0  0
   89.9329  -27.6078  103.2758 O   0  0  0  0  0  0  0  0  0  0  0  0
   90.1281  -27.5410  101.6997 P   0  0  0  0  0  0  0  0  0  0  0  0
   89.6179  -28.8053  101.0472 O   0  0  0  0  0  0  0  0  0  0  0  0
   89.4646  -26.3023  101.1442 O   0  0  0  0  0  0  0  0  0  0  0  0
   90.0689  -29.5727  101.4325 H   0  0  0  0  0  0  0  0  0  0  0  0
   91.6922  -27.4579  101.4274 O   0  0  0  0  0  0  0  0  0  0  0  0
   92.5162  -26.0949  101.2530 P   0  0  0  0  0  0  0  0  0  0  0  0
   93.9880  -26.3900  101.3978 O   0  0  0  0  0  0  0  0  0  0  0  0
   92.1004  -25.1421  102.3551 O   0  0  0  0  0  0  0  0  0  0  0  0
   92.2628  -25.4577   99.9081 O   0  0  0  0  0  0  0  0  0  0  0  0
   92.2644  -25.5543  103.2177 H   0  0  0  0  0  0  0  0  0  0  0  0
   92.5300  -26.0700   99.2048 H   0  0  0  0  0  0  0  0  0  0  0  0
   93.1550  -25.4822  106.5763 O   0  0  0  0  0  0  0  0  0  0  0  0
   93.0701  -23.9421  106.1472 P   0  0  0  0  0  0  0  0  0  0  0  0
   92.2365  -23.2662  107.1726 O   0  0  0  0  0  0  0  0  0  0  0  0
   92.5628  -23.8369  104.7326 O   0  0  0  0  0  0  0  0  0  0  0  0
   91.3122  -23.5425  107.0714 H   0  0  0  0  0  0  0  0  0  0  0  0
   94.6046  -23.5307  106.2580 O   0  0  0  0  0  0  0  0  0  0  0  0
   95.5604  -22.8880  105.1566 P   0  0  0  0  0  0  0  0  0  0  0  0
   94.6926  -22.5649  103.9769 O   0  0  0  0  0  0  0  0  0  0  0  0
   96.1976  -21.6493  105.7714 O   0  0  0  0  0  0  0  0  0  0  0  0
   96.6146  -23.9122  104.8063 O   0  0  0  0  0  0  0  0  0  0  0  0
   94.0285  -21.9065  104.2347 H   0  0  0  0  0  0  0  0  0  0  0  0
   97.2117  -23.5453  104.1356 H   0  0  0  0  0  0  0  0  0  0  0  0
 35 34  2  0  0  0
 26 24  2  0  0  0
 34 33  1  0  0  0
 34 36  1  0  0  0
 34 37  1  0  0  0
 33 29  1  0  0  0
 28 24  1  0  0  0
 28 29  1  0  0  0
 31 29  2  0  0  0
 25 24  1  0  0  0
 24 23  1  0  0  0
 29 30  1  0  0  0
 23 22  1  0  0  0
 22  1  1  0  0  0
  1  2  1  0  0  0
  1  3  1  0  0  0
  2  6  1  0  0  0
 43 41  2  0  0  0
  9 10  2  0  0  0
  9  8  1  0  0  0
  3  4  1  0  0  0
  3 40  1  0  0  0
 10 11  1  0  0  0
  6  8  1  0  0  0
  6  4  1  0  0  0
  8 18  1  0  0  0
  4  5  1  0  0  0
 48 46  2  0  0  0
 11 18  2  0  0  0
 11 12  1  0  0  0
 41 40  1  0  0  0
 41 45  1  0  0  0
 41 42  1  0  0  0
 18 17  1  0  0  0
 13 12  2  0  0  0
 12 14  1  0  0  0
 47 46  1  0  0  0
 45 46  1  0  0  0
 17 15  2  0  0  0
 46 49  1  0  0  0
 14 15  1  0  0  0
 15 16  1  0  0  0
 47 50  1  0  0  0
 49 51  1  0  0  0
 36 38  1  0  0  0
 37 39  1  0  0  0
 30 32  1  0  0  0
 25 27  1  0  0  0
  5  7  1  0  0  0
 14 19  1  0  0  0
 16 20  1  0  0  0
 16 21  1  0  0  0
 42 44  1  0  0  0
M  END
> <minimizedAffinity>
-9.06495

$$$$
4QRH_0O2_B_303


 51 53  0  0  0  0  0  0  0  0999 V2000
   94.4335  -28.4461  103.0700 C   0  0  0  0  0  0  0  0  0  0  0  0
   95.2264  -28.6286  101.8157 O   0  0  0  0  0  0  0  0  0  0  0  0
   95.1115  -27.4067  103.8788 C   0  0  0  0  0  0  0  0  0  0  0  0
   96.1745  -26.8519  103.0387 C   0  0  0  0  0  0  0  0  0  0  0  0
   97.3644  -26.4299  103.7756 O   0  0  0  0  0  0  0  0  0  0  0  0
   96.5219  -27.9539  102.1200 C   0  0  0  0  0  0  0  0  0  0  0  0
   97.7390  -27.1901  104.2474 H   0  0  0  0  0  0  0  0  0  0  0  0
   97.1242  -27.5376  100.9239 N   0  0  0  0  0  0  0  0  0  0  0  0
   98.3989  -27.6799  100.5386 C   0  0  0  0  0  0  0  0  0  0  0  0
   98.5825  -27.1445   99.3327 N   0  0  0  0  0  0  0  0  0  0  0  0
   97.4269  -26.6344   98.8998 C   0  0  0  0  0  0  0  0  0  0  0  0
   96.9877  -25.9654   97.7488 C   0  0  0  0  0  0  0  0  0  0  0  0
   97.7070  -25.7214   96.7917 O   0  0  0  0  0  0  0  0  0  0  0  0
   95.7163  -25.5803   97.6752 N   0  0  0  0  0  0  0  0  0  0  0  0
   94.8422  -25.8137   98.6558 C   0  0  0  0  0  0  0  0  0  0  0  0
   93.5098  -25.4038   98.5033 N   0  0  0  0  0  0  0  0  0  0  0  0
   95.2128  -26.4618   99.7820 N   0  0  0  0  0  0  0  0  0  0  0  0
   96.4938  -26.8703   99.9220 C   0  0  0  0  0  0  0  0  0  0  0  0
   95.4096  -25.1064   96.8686 H   0  0  0  0  0  0  0  0  0  0  0  0
   92.8578  -25.5717   99.2216 H   0  0  0  0  0  0  0  0  0  0  0  0
   93.2264  -24.9480   97.6779 H   0  0  0  0  0  0  0  0  0  0  0  0
   93.0455  -28.1177  102.6859 C   0  0  0  0  0  0  0  0  0  0  0  0
   93.0032  -27.0532  101.7601 O   0  0  0  0  0  0  0  0  0  0  0  0
   92.3622  -25.6917  102.2718 P   0  0  0  0  0  0  0  0  0  0  0  0
   91.8914  -24.9318  101.0665 O   0  0  0  0  0  0  0  0  0  0  0  0
   91.2387  -26.0165  103.2118 O   0  0  0  0  0  0  0  0  0  0  0  0
   91.4939  -24.0930  101.3480 H   0  0  0  0  0  0  0  0  0  0  0  0
   93.3048  -24.8359  103.2340 O   0  0  0  0  0  0  0  0  0  0  0  0
   93.0567  -24.1325  104.6376 P   0  0  0  0  0  0  0  0  0  0  0  0
   91.6418  -23.6085  104.7265 O   0  0  0  0  0  0  0  0  0  0  0  0
   93.3862  -25.0849  105.7635 O   0  0  0  0  0  0  0  0  0  0  0  0
   91.4741  -23.0034  103.9872 H   0  0  0  0  0  0  0  0  0  0  0  0
   94.0369  -22.8830  104.7119 O   0  0  0  0  0  0  0  0  0  0  0  0
   95.4777  -22.8947  105.4128 P   0  0  0  0  0  0  0  0  0  0  0  0
   96.4119  -23.7538  104.5981 O   0  0  0  0  0  0  0  0  0  0  0  0
   95.3323  -23.5061  106.7913 O   0  0  0  0  0  0  0  0  0  0  0  0
   96.0517  -21.5036  105.5318 O   0  0  0  0  0  0  0  0  0  0  0  0
   94.9633  -24.3996  106.7114 H   0  0  0  0  0  0  0  0  0  0  0  0
   96.1436  -21.1150  104.6478 H   0  0  0  0  0  0  0  0  0  0  0  0
   95.6578  -28.0946  105.0347 O   0  0  0  0  0  0  0  0  0  0  0  0
   94.6406  -28.6959  106.1150 P   0  0  0  0  0  0  0  0  0  0  0  0
   94.5891  -30.1596  105.8737 O   0  0  0  0  0  0  0  0  0  0  0  0
   93.3184  -27.9802  106.0200 O   0  0  0  0  0  0  0  0  0  0  0  0
   94.1130  -30.3344  105.0469 H   0  0  0  0  0  0  0  0  0  0  0  0
   95.4118  -28.3388  107.4618 O   0  0  0  0  0  0  0  0  0  0  0  0
   94.9335  -27.4490  108.6945 P   0  0  0  0  0  0  0  0  0  0  0  0
   93.7937  -28.1852  109.3333 O   0  0  0  0  0  0  0  0  0  0  0  0
   96.1237  -27.2872  109.6301 O   0  0  0  0  0  0  0  0  0  0  0  0
   94.4945  -26.1084  108.1529 O   0  0  0  0  0  0  0  0  0  0  0  0
   94.1082  -29.0389  109.6695 H   0  0  0  0  0  0  0  0  0  0  0  0
   94.1976  -25.5455  108.8849 H   0  0  0  0  0  0  0  0  0  0  0  0
 35 34  2  0  0  0
 26 24  2  0  0  0
 34 33  1  0  0  0
 34 36  1  0  0  0
 34 37  1  0  0  0
 33 29  1  0  0  0
 28 24  1  0  0  0
 28 29  1  0  0  0
 31 29  2  0  0  0
 25 24  1  0  0  0
 24 23  1  0  0  0
 29 30  1  0  0  0
 23 22  1  0  0  0
 22  1  1  0  0  0
  1  2  1  0  0  0
  1  3  1  0  0  0
  2  6  1  0  0  0
 43 41  2  0  0  0
  9 10  2  0  0  0
  9  8  1  0  0  0
  3  4  1  0  0  0
  3 40  1  0  0  0
 10 11  1  0  0  0
  6  8  1  0  0  0
  6  4  1  0  0  0
  8 18  1  0  0  0
  4  5  1  0  0  0
 48 46  2  0  0  0
 11 18  2  0  0  0
 11 12  1  0  0  0
 41 40  1  0  0  0
 41 45  1  0  0  0
 41 42  1  0  0  0
 18 17  1  0  0  0
 13 12  2  0  0  0
 12 14  1  0  0  0
 47 46  1  0  0  0
 45 46  1  0  0  0
 17 15  2  0  0  0
 46 49  1  0  0  0
 14 15  1  0  0  0
 15 16  1  0  0  0
 47 50  1  0  0  0
 49 51  1  0  0  0
 36 38  1  0  0  0
 37 39  1  0  0  0
 30 32  1  0  0  0
 25 27  1  0  0  0
  5  7  1  0  0  0
 14 19  1  0  0  0
 16 20  1  0  0  0
 16 21  1  0  0  0
 42 44  1  0  0  0
M  END
> <minimizedAffinity>
-9.06250

$$$$
