4EOH_TEP_A_402
  RCSB PDB12061712253D
Coordinates from PDB:4EOH:A:402 Model:1 without hydrogens
 13 14  0  0  0  0            999 V2000
   28.3740    3.6300   40.5770   C 0  0  0  0  0  0  0  0  0  0  0  0
   28.5450    5.0190   40.0990   N 0  0  0  0  0  0  0  0  0  0  0  0
   27.6410    6.0120   40.4990   C 0  0  0  0  0  0  0  0  0  0  0  0
   26.7350    5.7400   41.2880   O 0  0  0  0  0  0  0  0  0  0  0  0
   27.7930    7.3200   40.0270   N 0  0  0  0  0  0  0  0  0  0  0  0
   26.8320    8.3700   40.4360   C 0  0  0  0  0  0  0  0  0  0  0  0
   28.8460    7.6310   39.1570   C 0  0  0  0  0  0  0  0  0  0  0  0
   29.7440    6.6420   38.7700   C 0  0  0  0  0  0  0  0  0  0  0  0
   29.5960    5.3410   39.2320   C 0  0  0  0  0  0  0  0  0  0  0  0
   30.4000    4.4730   38.8940   O 0  0  0  0  0  0  0  0  0  0  0  0
   30.6300    7.2170   37.9610   N 0  0  0  0  0  0  0  0  0  0  0  0
   30.3150    8.5060   37.8460   C 0  0  0  0  0  0  0  0  0  0  0  0
   29.2300    8.7590   38.5740   N 0  0  0  0  0  0  0  0  0  0  0  0
  1  2  1  0  0  0  0
  2  3  1  0  0  0  0
  2  9  1  0  0  0  0
  3  4  2  0  0  0  0
  3  5  1  0  0  0  0
  5  6  1  0  0  0  0
  5  7  1  0  0  0  0
  7  8  2  0  0  0  0
  7 13  1  0  0  0  0
  8  9  1  0  0  0  0
  8 11  1  0  0  0  0
  9 10  2  0  0  0  0
 11 12  1  0  0  0  0
 12 13  2  0  0  0  0
A    1
C1
A    2
N1
A    3
C2
A    4
O2
A    5
N3
A    6
C3
A    7
C4
A    8
C5
A    9
C6
A   10
O6
A   11
N7
A   12
C8
A   13
N9
M  END
>  <InstanceId>
4EOH_TEP_A_402

>  <ChemCompId>
TEP

>  <PdbId>
4EOH

>  <ChainId>
A

>  <ResidueNumber>
402

>  <InsertionCode>


>  <Model>
1

>  <AltIds>


>  <MissingHeavyAtoms>
0

>  <ObservedFormula>
C7 N4 O2

>  <Name>
THEOPHYLLINE

>  <SystematicName>
1,3-dimethyl-7H-purine-2,6-dione

>  <Synonyms>


>  <Type>
NON-POLYMER

>  <Formula>
C7 H8 N4 O2

>  <MolecularWeight>
180.164

>  <ModifiedDate>
2011-06-04

>  <Parent>


>  <OneLetterCode>


>  <SubcomponentList>


>  <AmbiguousFlag>
N

>  <InChI>
InChI=1S/C7H8N4O2/c1-10-5-4(8-3-9-5)6(12)11(2)7(10)13/h3H,1-2H3,(H,8,9)

>  <InChIKey>
ZFXYFBGIUFBOJW-UHFFFAOYSA-N

>  <SMILES>
CN1c2c([nH]cn2)C(=O)N(C1=O)C

$$$$
