4W9K_3JO_C_301
  RCSB PDB12061715563D
Coordinates from PDB:4W9K:C:301 Model:1 without hydrogens
 44 47  0  0  0  0            999 V2000
   12.4020   50.4820   80.6110   C 0  0  0  0  0  0  0  0  0  0  0  0
   13.7790   51.0930   80.9260   C 0  0  0  0  0  0  0  0  0  0  0  0
   14.7530   51.0620   79.9900   N 0  0  0  0  0  0  0  0  0  0  0  0
   15.9000   51.6190   80.3590   C 0  0  0  0  0  0  0  0  0  0  0  0
   15.7360   52.1760   81.8590   S 0  0  0  0  0  0  0  0  0  0  0  0
   14.1390   51.6750   82.0860   C 0  0  0  0  0  0  0  0  0  0  0  0
   13.3900   51.8610   83.1890   C 0  0  0  0  0  0  0  0  0  0  0  0
   13.4810   53.0500   83.9040   C 0  0  0  0  0  0  0  0  0  0  0  0
   12.7020   53.2680   85.0520   C 0  0  0  0  0  0  0  0  0  0  0  0
   12.5000   50.8770   83.6600   C 0  0  0  0  0  0  0  0  0  0  0  0
   11.7140   51.0910   84.7950   C 0  0  0  0  0  0  0  0  0  0  0  0
   11.8070   52.2880   85.5150   C 0  0  0  0  0  0  0  0  0  0  0  0
   11.0000   52.4300   86.6430   C 0  0  0  0  0  0  0  0  0  0  0  0
   11.4640   53.5910   87.4510   N 0  0  0  0  0  0  0  0  0  0  0  0
   12.3150   53.4780   88.4770   C 0  0  0  0  0  0  0  0  0  0  0  0
   12.7830   52.4090   88.8210   O 0  0  0  0  0  0  0  0  0  0  0  0
   12.7350   54.6750   89.0760   C 0  0  0  0  0  0  0  0  0  0  0  0
   14.0480   55.1170   88.3870   C 0  0  0  0  0  0  0  0  0  0  0  0
   14.9050   55.6890   89.4830   C 0  0  0  0  0  0  0  0  0  0  0  0
   14.5370   57.0720   89.7420   O 0  0  0  0  0  0  0  0  0  0  0  0
   14.5530   54.7910   90.6810   C 0  0  0  0  0  0  0  0  0  0  0  0
   13.0720   54.5300   90.5360   N 0  0  0  0  0  0  0  0  0  0  0  0
   12.0920   54.2990   91.4430   C 0  0  0  0  0  0  0  0  0  0  0  0
   10.9170   54.1760   91.1150   O 0  0  0  0  0  0  0  0  0  0  0  0
   12.4600   54.2160   92.9440   C 0  0  0  0  0  0  0  0  0  0  0  0
   12.6750   52.7720   93.4310   C 0  0  0  0  0  0  0  0  0  0  0  0
   11.3560   51.9470   93.4330   C 0  0  0  0  0  0  0  0  0  0  0  0
   13.2170   52.8110   94.8750   C 0  0  0  0  0  0  0  0  0  0  0  0
   13.7170   52.0500   92.5710   C 0  0  0  0  0  0  0  0  0  0  0  0
   11.3320   54.7700   93.6960   N 0  0  0  0  0  0  0  0  0  0  0  0
   11.3260   55.9320   94.3580   C 0  0  0  0  0  0  0  0  0  0  0  0
   12.2950   56.6910   94.4700   O 0  0  0  0  0  0  0  0  0  0  0  0
    9.9740   56.1850   95.0840   C 0  0  0  0  0  0  0  0  0  0  0  0
    9.8240   55.1070   96.0840   N 0  0  0  0  0  0  0  0  0  0  0  0
    8.8720   54.1540   96.0220   C 0  0  0  0  0  0  0  0  0  0  0  0
    7.9790   54.0850   95.1760   O 0  0  0  0  0  0  0  0  0  0  0  0
    8.9460   53.1230   97.1460   C 0  0  0  0  0  0  0  0  0  0  0  0
    9.9390   57.5110   95.8010   C 0  0  0  0  0  0  0  0  0  0  0  0
    8.6370   57.6150   96.3520   C 0  0  0  0  0  0  0  0  0  0  0  0
    7.5280   57.8130   95.5250   C 0  0  0  0  0  0  0  0  0  0  0  0
    6.2460   57.9190   96.0520   C 0  0  0  0  0  0  0  0  0  0  0  0
    6.0510   57.8350   97.4240   C 0  0  0  0  0  0  0  0  0  0  0  0
    7.1400   57.6310   98.2630   C 0  0  0  0  0  0  0  0  0  0  0  0
    8.4260   57.5210   97.7350   C 0  0  0  0  0  0  0  0  0  0  0  0
  3  4  2  0  0  0  0
  3  2  1  0  0  0  0
  4  5  1  0  0  0  0
  1  2  1  0  0  0  0
  2  6  2  0  0  0  0
  5  6  1  0  0  0  0
  6  7  1  0  0  0  0
  7 10  2  0  0  0  0
  7  8  1  0  0  0  0
 10 11  1  0  0  0  0
  8  9  2  0  0  0  0
 11 12  2  0  0  0  0
  9 12  1  0  0  0  0
 12 13  1  0  0  0  0
 13 14  1  0  0  0  0
 14 15  1  0  0  0  0
 18 17  1  0  0  0  0
 18 19  1  0  0  0  0
 15 16  2  0  0  0  0
 15 17  1  0  0  0  0
 17 22  1  0  0  0  0
 19 20  1  0  0  0  0
 19 21  1  0  0  0  0
 22 21  1  0  0  0  0
 22 23  1  0  0  0  0
 24 23  2  0  0  0  0
 23 25  1  0  0  0  0
 29 26  1  0  0  0  0
 25 26  1  0  0  0  0
 25 30  1  0  0  0  0
 27 26  1  0  0  0  0
 26 28  1  0  0  0  0
 30 31  1  0  0  0  0
 31 32  2  0  0  0  0
 31 33  1  0  0  0  0
 33 38  1  0  0  0  0
 33 34  1  0  0  0  0
 36 35  2  0  0  0  0
 40 41  2  0  0  0  0
 40 39  1  0  0  0  0
 38 39  1  0  0  0  0
 41 42  1  0  0  0  0
 39 44  2  0  0  0  0
 35 34  1  0  0  0  0
 35 37  1  0  0  0  0
 42 43  2  0  0  0  0
 44 43  1  0  0  0  0
A    1
CAB
A    2
CBJ
A    3
NAY
A    4
CAT
A    5
SBC
A    6
CBL
A    7
CBK
A    8
CAS
A    9
CAQ
A   10
CAR
A   11
CAP
A   12
CBH
A   13
CAU
A   14
NAZ
A   15
CBE
A   16
OAG
A   17
CBO
A   18
CAW
A   19
CBM
A   20
OAJ
A   21
CAX
A   22
NBQ
A   23
CBG
A   24
OAI
A   25
CBP
A   26
CBR
A   27
CAD
A   28
CAE
A   29
CAC
A   30
NBB
A   31
C
A   32
O
A   33
CA
A   34
N
A   35
CBD
A   36
OAF
A   37
CAA
A   38
CB
A   39
CG
A   40
CD1
A   41
CE1
A   42
CZ
A   43
CE2
A   44
CD2
M  END
>  <InstanceId>
4W9K_3JO_C_301

>  <ChemCompId>
3JO

>  <PdbId>
4W9K

>  <ChainId>
C

>  <ResidueNumber>
301

>  <InsertionCode>


>  <Model>
1

>  <AltIds>


>  <MissingHeavyAtoms>
0

>  <ObservedFormula>
C33 N5 O5 S

>  <Name>
N-acetyl-L-phenylalanyl-3-methyl-L-valyl-(4R)-4-hydroxy-N-[4-(4-methyl-1,3-thiazol-5-yl)benzyl]-L-prolinamide

>  <SystematicName>
(2S,4R)-1-[(2S)-2-[[(2S)-2-acetamido-3-phenyl-propanoyl]amino]-3,3-dimethyl-butanoyl]-N-[[4-(4-methyl-1,3-thiazol-5-yl)phenyl]methyl]-4-oxidanyl-pyrrolidine-2-carboxamide

>  <Synonyms>


>  <Type>
NON-POLYMER

>  <Formula>
C33 H41 N5 O5 S

>  <MolecularWeight>
619.774

>  <ModifiedDate>
2014-09-05

>  <Parent>


>  <OneLetterCode>


>  <SubcomponentList>


>  <AmbiguousFlag>
N

>  <InChI>
InChI=1S/C33H41N5O5S/c1-20-28(44-19-35-20)24-13-11-23(12-14-24)17-34-31(42)27-16-25(40)18-38(27)32(43)29(33(3,4)5)37-30(41)26(36-21(2)39)15-22-9-7-6-8-10-22/h6-14,19,25-27,29,40H,15-18H2,1-5H3,(H,34,42)(H,36,39)(H,37,41)/t25-,26+,27+,29-/m1/s1

>  <InChIKey>
ALYDGEQICGMVIP-UYIZUTNXSA-N

>  <SMILES>
Cc1c(scn1)c2ccc(cc2)CNC(=O)[C@@H]3C[C@H](CN3C(=O)[C@H](C(C)(C)C)NC(=O)[C@H](Cc4ccccc4)NC(=O)C)O

$$$$
