4W9K_3JO_C_301


 48 51  0  0  0  0  0  0  0  0999 V2000
   12.4625   54.3787   89.4221 C   0  0  0  0  0  0  0  0  0  0  0  0
   13.6311   54.8455   88.5218 C   0  0  0  0  0  0  0  0  0  0  0  0
   14.6315   55.4728   89.4537 C   0  0  0  0  0  0  0  0  0  0  0  0
   14.2599   56.8493   89.7411 O   0  0  0  0  0  0  0  0  0  0  0  0
   14.5089   54.5947   90.7104 C   0  0  0  0  0  0  0  0  0  0  0  0
   13.0343   54.2820   90.8113 N   0  0  0  0  0  0  0  0  0  0  0  0
   12.2215   54.0424   91.8688 C   0  0  0  0  0  0  0  0  0  0  0  0
   11.0143   53.8729   91.7370 O   0  0  0  0  0  0  0  0  0  0  0  0
   13.3601   56.8725   90.1027 H   0  0  0  0  0  0  0  0  0  0  0  0
   11.1470   53.2152   87.8901 N   0  0  0  0  0  0  0  0  0  0  0  0
   11.9955   53.1538   88.9226 C   0  0  0  0  0  0  0  0  0  0  0  0
   12.4230   52.0993   89.3531 O   0  0  0  0  0  0  0  0  0  0  0  0
   10.8448   54.1012   87.5851 H   0  0  0  0  0  0  0  0  0  0  0  0
   10.6369   52.0107   87.1793 C   0  0  0  0  0  0  0  0  0  0  0  0
   12.7991   51.6016   83.5567 C   0  0  0  0  0  0  0  0  0  0  0  0
   12.4926   50.4735   84.3096 C   0  0  0  0  0  0  0  0  0  0  0  0
   11.7779   50.5771   85.5140 C   0  0  0  0  0  0  0  0  0  0  0  0
   12.3593   52.8506   84.0347 C   0  0  0  0  0  0  0  0  0  0  0  0
   11.6572   52.9625   85.2374 C   0  0  0  0  0  0  0  0  0  0  0  0
   11.3480   51.8262   85.9944 C   0  0  0  0  0  0  0  0  0  0  0  0
   15.4784   53.0171   82.9721 C   0  0  0  0  0  0  0  0  0  0  0  0
   14.6662   52.0576   82.0842 C   0  0  0  0  0  0  0  0  0  0  0  0
   15.1247   51.7370   80.8542 N   0  0  0  0  0  0  0  0  0  0  0  0
   14.3535   50.8996   80.1716 C   0  0  0  0  0  0  0  0  0  0  0  0
   13.0805   50.5244   81.0803 S   0  0  0  0  0  0  0  0  0  0  0  0
   13.4928   51.4819   82.4092 C   0  0  0  0  0  0  0  0  0  0  0  0
   12.8282   54.0097   93.2922 C   0  0  0  0  0  0  0  0  0  0  0  0
   13.1373   52.5834   93.7810 C   0  0  0  0  0  0  0  0  0  0  0  0
   13.8893   51.7422   92.7100 C   0  0  0  0  0  0  0  0  0  0  0  0
   11.8075   51.8702   94.1024 C   0  0  0  0  0  0  0  0  0  0  0  0
   13.9649   52.6101   95.0698 C   0  0  0  0  0  0  0  0  0  0  0  0
   11.8297   54.5786   94.2000 N   0  0  0  0  0  0  0  0  0  0  0  0
   11.7812   55.8488   94.6155 C   0  0  0  0  0  0  0  0  0  0  0  0
   12.6062   56.7228   94.3272 O   0  0  0  0  0  0  0  0  0  0  0  0
   11.1310   53.9710   94.5346 H   0  0  0  0  0  0  0  0  0  0  0  0
   10.6132   56.0941   95.6128 C   0  0  0  0  0  0  0  0  0  0  0  0
   11.1965   56.0302   96.9694 N   0  0  0  0  0  0  0  0  0  0  0  0
   11.4744   54.8780   97.6125 C   0  0  0  0  0  0  0  0  0  0  0  0
   11.2319   53.7452   97.1934 O   0  0  0  0  0  0  0  0  0  0  0  0
   12.1133   55.0679   98.9864 C   0  0  0  0  0  0  0  0  0  0  0  0
   11.3934   56.8777   97.4301 H   0  0  0  0  0  0  0  0  0  0  0  0
    9.9693   57.4455   95.4321 C   0  0  0  0  0  0  0  0  0  0  0  0
    8.5721   57.2061   95.4193 C   0  0  0  0  0  0  0  0  0  0  0  0
    8.0727   55.9180   95.2088 C   0  0  0  0  0  0  0  0  0  0  0  0
    6.7050   55.6694   95.1915 C   0  0  0  0  0  0  0  0  0  0  0  0
    5.8081   56.7124   95.3789 C   0  0  0  0  0  0  0  0  0  0  0  0
    6.2847   57.9995   95.5970 C   0  0  0  0  0  0  0  0  0  0  0  0
    7.6565   58.2493   95.6180 C   0  0  0  0  0  0  0  0  0  0  0  0
 23 24  2  0  0  0
 23 22  1  0  0  0
 24 25  1  0  0  0
 21 22  1  0  0  0
 22 26  2  0  0  0
 25 26  1  0  0  0
 26 15  1  0  0  0
 15 18  2  0  0  0
 15 16  1  0  0  0
 18 19  1  0  0  0
 16 17  2  0  0  0
 19 20  2  0  0  0
 17 20  1  0  0  0
 20 14  1  0  0  0
 14 10  1  0  0  0
 10 11  1  0  0  0
  2  1  1  0  0  0
  2  3  1  0  0  0
 11 12  2  0  0  0
 11  1  1  0  0  0
  1  6  1  0  0  0
  3  4  1  0  0  0
  3  5  1  0  0  0
  6  5  1  0  0  0
  6  7  1  0  0  0
  8  7  2  0  0  0
  7 27  1  0  0  0
 31 28  1  0  0  0
 27 28  1  0  0  0
 27 32  1  0  0  0
 29 28  1  0  0  0
 28 30  1  0  0  0
 32 33  1  0  0  0
 33 34  2  0  0  0
 33 36  1  0  0  0
 36 42  1  0  0  0
 36 37  1  0  0  0
 39 38  2  0  0  0
 44 45  2  0  0  0
 44 43  1  0  0  0
 42 43  1  0  0  0
 45 46  1  0  0  0
 43 48  2  0  0  0
 38 37  1  0  0  0
 38 40  1  0  0  0
 46 47  2  0  0  0
 48 47  1  0  0  0
 10 13  1  0  0  0
  4  9  1  0  0  0
 32 35  1  0  0  0
 37 41  1  0  0  0
M  END
> <minimizedAffinity>
-9.11176

$$$$
4W9K_3JO_C_301


 48 51  0  0  0  0  0  0  0  0999 V2000
   12.5738   54.3225   89.1619 C   0  0  0  0  0  0  0  0  0  0  0  0
   13.8949   54.6738   88.4372 C   0  0  0  0  0  0  0  0  0  0  0  0
   14.7421   55.3763   89.4627 C   0  0  0  0  0  0  0  0  0  0  0  0
   14.3751   56.7812   89.5442 O   0  0  0  0  0  0  0  0  0  0  0  0
   14.3755   54.6343   90.7591 C   0  0  0  0  0  0  0  0  0  0  0  0
   12.8954   54.3593   90.6321 N   0  0  0  0  0  0  0  0  0  0  0  0
   11.9056   54.2439   91.5504 C   0  0  0  0  0  0  0  0  0  0  0  0
   10.7337   54.0827   91.2279 O   0  0  0  0  0  0  0  0  0  0  0  0
   13.4280   56.8571   89.7397 H   0  0  0  0  0  0  0  0  0  0  0  0
   11.4584   53.0356   87.5710 N   0  0  0  0  0  0  0  0  0  0  0  0
   12.1568   53.0609   88.7117 C   0  0  0  0  0  0  0  0  0  0  0  0
   12.5021   52.0462   89.2873 O   0  0  0  0  0  0  0  0  0  0  0  0
   11.2170   53.8928   87.1513 H   0  0  0  0  0  0  0  0  0  0  0  0
   11.0279   51.7760   86.9046 C   0  0  0  0  0  0  0  0  0  0  0  0
   13.0814   51.4839   83.2082 C   0  0  0  0  0  0  0  0  0  0  0  0
   12.7533   50.3290   83.9094 C   0  0  0  0  0  0  0  0  0  0  0  0
   12.0735   50.3935   85.1366 C   0  0  0  0  0  0  0  0  0  0  0  0
   12.6995   52.7205   83.7623 C   0  0  0  0  0  0  0  0  0  0  0  0
   12.0327   52.7930   84.9879 C   0  0  0  0  0  0  0  0  0  0  0  0
   11.7016   51.6297   85.6928 C   0  0  0  0  0  0  0  0  0  0  0  0
   15.8243   52.7817   82.6458 C   0  0  0  0  0  0  0  0  0  0  0  0
   14.9382   51.9299   81.7196 C   0  0  0  0  0  0  0  0  0  0  0  0
   15.3496   51.6654   80.4600 N   0  0  0  0  0  0  0  0  0  0  0  0
   14.5160   50.9194   79.7454 C   0  0  0  0  0  0  0  0  0  0  0  0
   13.2442   50.5575   80.6612 S   0  0  0  0  0  0  0  0  0  0  0  0
   13.7411   51.4010   82.0376 C   0  0  0  0  0  0  0  0  0  0  0  0
   12.2580   54.3474   93.0539 C   0  0  0  0  0  0  0  0  0  0  0  0
   12.5286   52.9785   93.7032 C   0  0  0  0  0  0  0  0  0  0  0  0
   13.4649   53.0869   94.9410 C   0  0  0  0  0  0  0  0  0  0  0  0
   13.2116   52.0636   92.6654 C   0  0  0  0  0  0  0  0  0  0  0  0
   11.2209   52.2989   94.1212 C   0  0  0  0  0  0  0  0  0  0  0  0
   11.0979   54.9325   93.7296 N   0  0  0  0  0  0  0  0  0  0  0  0
   11.1254   55.9565   94.5895 C   0  0  0  0  0  0  0  0  0  0  0  0
   12.1483   56.5319   94.9767 O   0  0  0  0  0  0  0  0  0  0  0  0
   10.2183   54.5364   93.5331 H   0  0  0  0  0  0  0  0  0  0  0  0
    9.7134   56.2863   95.1522 C   0  0  0  0  0  0  0  0  0  0  0  0
    9.1131   55.0004   95.5655 N   0  0  0  0  0  0  0  0  0  0  0  0
    8.2013   54.3289   94.8334 C   0  0  0  0  0  0  0  0  0  0  0  0
    7.7089   54.7134   93.7715 O   0  0  0  0  0  0  0  0  0  0  0  0
    7.7611   53.0021   95.4479 C   0  0  0  0  0  0  0  0  0  0  0  0
    9.3953   54.6118   96.4249 H   0  0  0  0  0  0  0  0  0  0  0  0
    9.7647   57.1980   96.3520 C   0  0  0  0  0  0  0  0  0  0  0  0
    8.4221   57.5768   96.6038 C   0  0  0  0  0  0  0  0  0  0  0  0
    7.8212   57.2931   97.8332 C   0  0  0  0  0  0  0  0  0  0  0  0
    6.5048   57.6568   98.0927 C   0  0  0  0  0  0  0  0  0  0  0  0
    5.7604   58.3084   97.1187 C   0  0  0  0  0  0  0  0  0  0  0  0
    6.3419   58.6062   95.8920 C   0  0  0  0  0  0  0  0  0  0  0  0
    7.6635   58.2449   95.6320 C   0  0  0  0  0  0  0  0  0  0  0  0
 23 24  2  0  0  0
 23 22  1  0  0  0
 24 25  1  0  0  0
 21 22  1  0  0  0
 22 26  2  0  0  0
 25 26  1  0  0  0
 26 15  1  0  0  0
 15 18  2  0  0  0
 15 16  1  0  0  0
 18 19  1  0  0  0
 16 17  2  0  0  0
 19 20  2  0  0  0
 17 20  1  0  0  0
 20 14  1  0  0  0
 14 10  1  0  0  0
 10 11  1  0  0  0
  2  1  1  0  0  0
  2  3  1  0  0  0
 11 12  2  0  0  0
 11  1  1  0  0  0
  1  6  1  0  0  0
  3  4  1  0  0  0
  3  5  1  0  0  0
  6  5  1  0  0  0
  6  7  1  0  0  0
  8  7  2  0  0  0
  7 27  1  0  0  0
 31 28  1  0  0  0
 27 28  1  0  0  0
 27 32  1  0  0  0
 29 28  1  0  0  0
 28 30  1  0  0  0
 32 33  1  0  0  0
 33 34  2  0  0  0
 33 36  1  0  0  0
 36 42  1  0  0  0
 36 37  1  0  0  0
 39 38  2  0  0  0
 44 45  2  0  0  0
 44 43  1  0  0  0
 42 43  1  0  0  0
 45 46  1  0  0  0
 43 48  2  0  0  0
 38 37  1  0  0  0
 38 40  1  0  0  0
 46 47  2  0  0  0
 48 47  1  0  0  0
 10 13  1  0  0  0
  4  9  1  0  0  0
 32 35  1  0  0  0
 37 41  1  0  0  0
M  END
> <minimizedAffinity>
-8.94034

$$$$
4W9K_3JO_C_301


 48 51  0  0  0  0  0  0  0  0999 V2000
   12.0751   54.5693   89.4652 C   0  0  0  0  0  0  0  0  0  0  0  0
   13.1882   54.9476   88.4593 C   0  0  0  0  0  0  0  0  0  0  0  0
   14.4023   55.2460   89.2957 C   0  0  0  0  0  0  0  0  0  0  0  0
   14.3470   56.6099   89.7975 O   0  0  0  0  0  0  0  0  0  0  0  0
   14.2712   54.2304   90.4433 C   0  0  0  0  0  0  0  0  0  0  0  0
   12.7890   54.1723   90.7297 N   0  0  0  0  0  0  0  0  0  0  0  0
   12.0863   53.9294   91.8627 C   0  0  0  0  0  0  0  0  0  0  0  0
   10.8626   53.9972   91.8971 O   0  0  0  0  0  0  0  0  0  0  0  0
   13.5227   56.7393   90.2921 H   0  0  0  0  0  0  0  0  0  0  0  0
   11.9470   52.7438   88.0222 N   0  0  0  0  0  0  0  0  0  0  0  0
   11.3176   53.5321   88.9009 C   0  0  0  0  0  0  0  0  0  0  0  0
   10.1798   53.3151   89.2729 O   0  0  0  0  0  0  0  0  0  0  0  0
   12.8709   52.9706   87.7685 H   0  0  0  0  0  0  0  0  0  0  0  0
   11.3202   51.5409   87.4088 C   0  0  0  0  0  0  0  0  0  0  0  0
   12.7790   51.1701   83.4464 C   0  0  0  0  0  0  0  0  0  0  0  0
   12.5994   50.0328   84.2258 C   0  0  0  0  0  0  0  0  0  0  0  0
   12.1180   50.1236   85.5420 C   0  0  0  0  0  0  0  0  0  0  0  0
   12.4512   52.4156   84.0153 C   0  0  0  0  0  0  0  0  0  0  0  0
   11.9821   52.5146   85.3275 C   0  0  0  0  0  0  0  0  0  0  0  0
   11.8005   51.3689   86.1113 C   0  0  0  0  0  0  0  0  0  0  0  0
   15.3846   52.4768   82.4329 C   0  0  0  0  0  0  0  0  0  0  0  0
   14.3764   51.5934   81.6768 C   0  0  0  0  0  0  0  0  0  0  0  0
   14.5905   51.2998   80.3754 N   0  0  0  0  0  0  0  0  0  0  0  0
   13.6656   50.5282   79.8175 C   0  0  0  0  0  0  0  0  0  0  0  0
   12.5561   50.1792   80.9284 S   0  0  0  0  0  0  0  0  0  0  0  0
   13.2499   51.0626   82.1899 C   0  0  0  0  0  0  0  0  0  0  0  0
   12.8511   53.5836   93.1631 C   0  0  0  0  0  0  0  0  0  0  0  0
   12.9745   52.0684   93.4027 C   0  0  0  0  0  0  0  0  0  0  0  0
   13.1131   51.2699   92.0746 C   0  0  0  0  0  0  0  0  0  0  0  0
   11.7043   51.5756   94.1267 C   0  0  0  0  0  0  0  0  0  0  0  0
   14.1691   51.7492   94.3069 C   0  0  0  0  0  0  0  0  0  0  0  0
   12.0830   54.1435   94.2772 N   0  0  0  0  0  0  0  0  0  0  0  0
   12.0553   55.4298   94.6424 C   0  0  0  0  0  0  0  0  0  0  0  0
   12.7158   56.3322   94.1162 O   0  0  0  0  0  0  0  0  0  0  0  0
   11.5377   53.5164   94.8050 H   0  0  0  0  0  0  0  0  0  0  0  0
   11.1693   55.6623   95.8993 C   0  0  0  0  0  0  0  0  0  0  0  0
    9.9756   56.4047   95.4425 N   0  0  0  0  0  0  0  0  0  0  0  0
    9.2694   57.2443   96.2265 C   0  0  0  0  0  0  0  0  0  0  0  0
    9.4802   57.4593   97.4212 O   0  0  0  0  0  0  0  0  0  0  0  0
    8.1029   57.9286   95.5174 C   0  0  0  0  0  0  0  0  0  0  0  0
    9.6790   56.2789   94.5122 H   0  0  0  0  0  0  0  0  0  0  0  0
   10.7161   54.3734   96.5370 C   0  0  0  0  0  0  0  0  0  0  0  0
   11.6096   54.1427   97.6132 C   0  0  0  0  0  0  0  0  0  0  0  0
   12.3355   52.9512   97.6926 C   0  0  0  0  0  0  0  0  0  0  0  0
   13.2133   52.7110   98.7433 C   0  0  0  0  0  0  0  0  0  0  0  0
   13.3761   53.6614   99.7422 C   0  0  0  0  0  0  0  0  0  0  0  0
   12.6688   54.8560   99.6777 C   0  0  0  0  0  0  0  0  0  0  0  0
   11.7906   55.0994   98.6222 C   0  0  0  0  0  0  0  0  0  0  0  0
 23 24  2  0  0  0
 23 22  1  0  0  0
 24 25  1  0  0  0
 21 22  1  0  0  0
 22 26  2  0  0  0
 25 26  1  0  0  0
 26 15  1  0  0  0
 15 18  2  0  0  0
 15 16  1  0  0  0
 18 19  1  0  0  0
 16 17  2  0  0  0
 19 20  2  0  0  0
 17 20  1  0  0  0
 20 14  1  0  0  0
 14 10  1  0  0  0
 10 11  1  0  0  0
  2  1  1  0  0  0
  2  3  1  0  0  0
 11 12  2  0  0  0
 11  1  1  0  0  0
  1  6  1  0  0  0
  3  4  1  0  0  0
  3  5  1  0  0  0
  6  5  1  0  0  0
  6  7  1  0  0  0
  8  7  2  0  0  0
  7 27  1  0  0  0
 31 28  1  0  0  0
 27 28  1  0  0  0
 27 32  1  0  0  0
 29 28  1  0  0  0
 28 30  1  0  0  0
 32 33  1  0  0  0
 33 34  2  0  0  0
 33 36  1  0  0  0
 36 42  1  0  0  0
 36 37  1  0  0  0
 39 38  2  0  0  0
 44 45  2  0  0  0
 44 43  1  0  0  0
 42 43  1  0  0  0
 45 46  1  0  0  0
 43 48  2  0  0  0
 38 37  1  0  0  0
 38 40  1  0  0  0
 46 47  2  0  0  0
 48 47  1  0  0  0
 10 13  1  0  0  0
  4  9  1  0  0  0
 32 35  1  0  0  0
 37 41  1  0  0  0
M  END
> <minimizedAffinity>
-7.75394

$$$$
4W9K_3JO_C_301


 48 51  0  0  0  0  0  0  0  0999 V2000
   10.5541   52.6959   87.5909 C   0  0  0  0  0  0  0  0  0  0  0  0
    9.3691   52.8361   88.5758 C   0  0  0  0  0  0  0  0  0  0  0  0
    8.3728   51.7892   88.1586 C   0  0  0  0  0  0  0  0  0  0  0  0
    7.5579   52.2778   87.0576 O   0  0  0  0  0  0  0  0  0  0  0  0
    9.2790   50.6329   87.7033 C   0  0  0  0  0  0  0  0  0  0  0  0
   10.4391   51.3108   87.0126 N   0  0  0  0  0  0  0  0  0  0  0  0
   11.2465   50.9272   85.9941 C   0  0  0  0  0  0  0  0  0  0  0  0
   12.1039   51.6694   85.5279 O   0  0  0  0  0  0  0  0  0  0  0  0
    8.1331   52.5467   86.3242 H   0  0  0  0  0  0  0  0  0  0  0  0
   12.0923   54.1785   88.5221 N   0  0  0  0  0  0  0  0  0  0  0  0
   11.7402   52.9054   88.3101 C   0  0  0  0  0  0  0  0  0  0  0  0
   12.3530   51.9709   88.7911 O   0  0  0  0  0  0  0  0  0  0  0  0
   11.5491   54.8887   88.1100 H   0  0  0  0  0  0  0  0  0  0  0  0
   13.2643   54.5749   89.3499 C   0  0  0  0  0  0  0  0  0  0  0  0
   12.2887   54.7759   93.4698 C   0  0  0  0  0  0  0  0  0  0  0  0
   11.2950   54.5006   92.5371 C   0  0  0  0  0  0  0  0  0  0  0  0
   11.5872   54.4278   91.1654 C   0  0  0  0  0  0  0  0  0  0  0  0
   13.6005   54.9675   92.9959 C   0  0  0  0  0  0  0  0  0  0  0  0
   13.8967   54.9073   91.6319 C   0  0  0  0  0  0  0  0  0  0  0  0
   12.8958   54.6290   90.6935 C   0  0  0  0  0  0  0  0  0  0  0  0
   11.6088   57.3874   94.9670 C   0  0  0  0  0  0  0  0  0  0  0  0
   11.6724   55.9446   95.4988 C   0  0  0  0  0  0  0  0  0  0  0  0
   11.4047   55.7005   96.8005 N   0  0  0  0  0  0  0  0  0  0  0  0
   11.4823   54.4241   97.1568 C   0  0  0  0  0  0  0  0  0  0  0  0
   11.8778   53.5571   95.8610 S   0  0  0  0  0  0  0  0  0  0  0  0
   11.9864   54.8500   94.7795 C   0  0  0  0  0  0  0  0  0  0  0  0
   11.0640   49.5191   85.3783 C   0  0  0  0  0  0  0  0  0  0  0  0
   11.9227   48.4451   86.0696 C   0  0  0  0  0  0  0  0  0  0  0  0
   12.4015   48.8905   87.4812 C   0  0  0  0  0  0  0  0  0  0  0  0
   13.1710   48.1752   85.2041 C   0  0  0  0  0  0  0  0  0  0  0  0
   11.1577   47.1237   86.1932 C   0  0  0  0  0  0  0  0  0  0  0  0
   11.5000   49.5988   83.9825 N   0  0  0  0  0  0  0  0  0  0  0  0
   10.6991   49.6663   82.9135 C   0  0  0  0  0  0  0  0  0  0  0  0
    9.4643   49.6244   82.9470 O   0  0  0  0  0  0  0  0  0  0  0  0
   12.4703   49.6031   83.8160 H   0  0  0  0  0  0  0  0  0  0  0  0
   11.5018   49.6923   81.5816 C   0  0  0  0  0  0  0  0  0  0  0  0
   10.7198   48.9084   80.6025 N   0  0  0  0  0  0  0  0  0  0  0  0
   11.2693   48.0530   79.7168 C   0  0  0  0  0  0  0  0  0  0  0  0
   12.4756   47.8546   79.5635 O   0  0  0  0  0  0  0  0  0  0  0  0
   10.2540   47.3259   78.8380 C   0  0  0  0  0  0  0  0  0  0  0  0
    9.7413   49.0171   80.5967 H   0  0  0  0  0  0  0  0  0  0  0  0
   11.6843   51.0879   81.0407 C   0  0  0  0  0  0  0  0  0  0  0  0
   13.0829   51.3196   81.0408 C   0  0  0  0  0  0  0  0  0  0  0  0
   13.7381   51.7180   82.2091 C   0  0  0  0  0  0  0  0  0  0  0  0
   15.1086   51.9507   82.2229 C   0  0  0  0  0  0  0  0  0  0  0  0
   15.8504   51.7945   81.0598 C   0  0  0  0  0  0  0  0  0  0  0  0
   15.2187   51.3919   79.8892 C   0  0  0  0  0  0  0  0  0  0  0  0
   13.8446   51.1548   79.8751 C   0  0  0  0  0  0  0  0  0  0  0  0
 23 24  2  0  0  0
 23 22  1  0  0  0
 24 25  1  0  0  0
 21 22  1  0  0  0
 22 26  2  0  0  0
 25 26  1  0  0  0
 26 15  1  0  0  0
 15 18  2  0  0  0
 15 16  1  0  0  0
 18 19  1  0  0  0
 16 17  2  0  0  0
 19 20  2  0  0  0
 17 20  1  0  0  0
 20 14  1  0  0  0
 14 10  1  0  0  0
 10 11  1  0  0  0
  2  1  1  0  0  0
  2  3  1  0  0  0
 11 12  2  0  0  0
 11  1  1  0  0  0
  1  6  1  0  0  0
  3  4  1  0  0  0
  3  5  1  0  0  0
  6  5  1  0  0  0
  6  7  1  0  0  0
  8  7  2  0  0  0
  7 27  1  0  0  0
 31 28  1  0  0  0
 27 28  1  0  0  0
 27 32  1  0  0  0
 29 28  1  0  0  0
 28 30  1  0  0  0
 32 33  1  0  0  0
 33 34  2  0  0  0
 33 36  1  0  0  0
 36 42  1  0  0  0
 36 37  1  0  0  0
 39 38  2  0  0  0
 44 45  2  0  0  0
 44 43  1  0  0  0
 42 43  1  0  0  0
 45 46  1  0  0  0
 43 48  2  0  0  0
 38 37  1  0  0  0
 38 40  1  0  0  0
 46 47  2  0  0  0
 48 47  1  0  0  0
 10 13  1  0  0  0
  4  9  1  0  0  0
 32 35  1  0  0  0
 37 41  1  0  0  0
M  END
> <minimizedAffinity>
-7.59955

$$$$
4W9K_3JO_C_301


 48 51  0  0  0  0  0  0  0  0999 V2000
   13.6122   53.9054   91.0195 C   0  0  0  0  0  0  0  0  0  0  0  0
   13.8066   55.4373   90.9223 C   0  0  0  0  0  0  0  0  0  0  0  0
   13.0411   55.8635   89.6995 C   0  0  0  0  0  0  0  0  0  0  0  0
   13.8419   55.6531   88.5037 O   0  0  0  0  0  0  0  0  0  0  0  0
   11.8272   54.9194   89.7234 C   0  0  0  0  0  0  0  0  0  0  0  0
   12.3833   53.6000   90.2054 N   0  0  0  0  0  0  0  0  0  0  0  0
   12.0276   52.3152   89.9623 C   0  0  0  0  0  0  0  0  0  0  0  0
   12.6653   51.3675   90.4078 O   0  0  0  0  0  0  0  0  0  0  0  0
   14.1154   54.7237   88.4572 H   0  0  0  0  0  0  0  0  0  0  0  0
   12.7012   54.3692   93.1138 N   0  0  0  0  0  0  0  0  0  0  0  0
   13.4821   53.5721   92.3759 C   0  0  0  0  0  0  0  0  0  0  0  0
   13.9810   52.5554   92.8205 O   0  0  0  0  0  0  0  0  0  0  0  0
   12.3218   55.1735   92.6913 H   0  0  0  0  0  0  0  0  0  0  0  0
   12.3772   54.1008   94.5418 C   0  0  0  0  0  0  0  0  0  0  0  0
    9.0780   56.4665   95.7603 C   0  0  0  0  0  0  0  0  0  0  0  0
   10.3529   57.0207   95.7326 C   0  0  0  0  0  0  0  0  0  0  0  0
   11.4655   56.2623   95.3338 C   0  0  0  0  0  0  0  0  0  0  0  0
    8.9364   55.1229   95.3641 C   0  0  0  0  0  0  0  0  0  0  0  0
   10.0401   54.3591   94.9765 C   0  0  0  0  0  0  0  0  0  0  0  0
   11.3233   54.9182   94.9477 C   0  0  0  0  0  0  0  0  0  0  0  0
    8.1266   56.7470   98.6827 C   0  0  0  0  0  0  0  0  0  0  0  0
    7.5562   57.3858   97.4039 C   0  0  0  0  0  0  0  0  0  0  0  0
    6.4826   58.2020   97.4870 N   0  0  0  0  0  0  0  0  0  0  0  0
    6.0723   58.7046   96.3290 C   0  0  0  0  0  0  0  0  0  0  0  0
    7.0381   58.1566   95.1654 S   0  0  0  0  0  0  0  0  0  0  0  0
    8.0257   57.2078   96.1541 C   0  0  0  0  0  0  0  0  0  0  0  0
   10.7947   52.0314   89.0708 C   0  0  0  0  0  0  0  0  0  0  0  0
    9.8381   50.9919   89.6814 C   0  0  0  0  0  0  0  0  0  0  0  0
    9.6664   51.1776   91.2165 C   0  0  0  0  0  0  0  0  0  0  0  0
   10.4125   49.5820   89.4314 C   0  0  0  0  0  0  0  0  0  0  0  0
    8.4615   51.0500   89.0120 C   0  0  0  0  0  0  0  0  0  0  0  0
   11.2928   51.4818   87.8080 N   0  0  0  0  0  0  0  0  0  0  0  0
   11.1056   52.0113   86.5943 C   0  0  0  0  0  0  0  0  0  0  0  0
   10.4402   53.0253   86.3564 O   0  0  0  0  0  0  0  0  0  0  0  0
   11.8125   50.6470   87.8571 H   0  0  0  0  0  0  0  0  0  0  0  0
   11.7341   51.1378   85.4714 C   0  0  0  0  0  0  0  0  0  0  0  0
   11.0700   49.8191   85.5413 N   0  0  0  0  0  0  0  0  0  0  0  0
   11.6152   48.7355   86.1302 C   0  0  0  0  0  0  0  0  0  0  0  0
   12.7408   48.6786   86.6280 O   0  0  0  0  0  0  0  0  0  0  0  0
   10.7196   47.4988   86.1141 C   0  0  0  0  0  0  0  0  0  0  0  0
   10.1783   49.7267   85.1345 H   0  0  0  0  0  0  0  0  0  0  0  0
   11.5121   51.7129   84.0953 C   0  0  0  0  0  0  0  0  0  0  0  0
   12.7924   52.1106   83.6346 C   0  0  0  0  0  0  0  0  0  0  0  0
   13.4366   51.3978   82.6198 C   0  0  0  0  0  0  0  0  0  0  0  0
   14.6930   51.7753   82.1600 C   0  0  0  0  0  0  0  0  0  0  0  0
   15.3332   52.8749   82.7154 C   0  0  0  0  0  0  0  0  0  0  0  0
   14.7063   53.6015   83.7206 C   0  0  0  0  0  0  0  0  0  0  0  0
   13.4444   53.2257   84.1801 C   0  0  0  0  0  0  0  0  0  0  0  0
 23 24  2  0  0  0
 23 22  1  0  0  0
 24 25  1  0  0  0
 21 22  1  0  0  0
 22 26  2  0  0  0
 25 26  1  0  0  0
 26 15  1  0  0  0
 15 18  2  0  0  0
 15 16  1  0  0  0
 18 19  1  0  0  0
 16 17  2  0  0  0
 19 20  2  0  0  0
 17 20  1  0  0  0
 20 14  1  0  0  0
 14 10  1  0  0  0
 10 11  1  0  0  0
  2  1  1  0  0  0
  2  3  1  0  0  0
 11 12  2  0  0  0
 11  1  1  0  0  0
  1  6  1  0  0  0
  3  4  1  0  0  0
  3  5  1  0  0  0
  6  5  1  0  0  0
  6  7  1  0  0  0
  8  7  2  0  0  0
  7 27  1  0  0  0
 31 28  1  0  0  0
 27 28  1  0  0  0
 27 32  1  0  0  0
 29 28  1  0  0  0
 28 30  1  0  0  0
 32 33  1  0  0  0
 33 34  2  0  0  0
 33 36  1  0  0  0
 36 42  1  0  0  0
 36 37  1  0  0  0
 39 38  2  0  0  0
 44 45  2  0  0  0
 44 43  1  0  0  0
 42 43  1  0  0  0
 45 46  1  0  0  0
 43 48  2  0  0  0
 38 37  1  0  0  0
 38 40  1  0  0  0
 46 47  2  0  0  0
 48 47  1  0  0  0
 10 13  1  0  0  0
  4  9  1  0  0  0
 32 35  1  0  0  0
 37 41  1  0  0  0
M  END
> <minimizedAffinity>
-7.58275

$$$$
4W9K_3JO_C_301


 48 51  0  0  0  0  0  0  0  0999 V2000
   13.3105   53.4205   91.0166 C   0  0  0  0  0  0  0  0  0  0  0  0
   13.8463   54.8034   91.4578 C   0  0  0  0  0  0  0  0  0  0  0  0
   13.6854   55.6985   90.2597 C   0  0  0  0  0  0  0  0  0  0  0  0
   14.8014   55.5219   89.3439 O   0  0  0  0  0  0  0  0  0  0  0  0
   12.3752   55.1865   89.6377 C   0  0  0  0  0  0  0  0  0  0  0  0
   12.4259   53.6887   89.8284 N   0  0  0  0  0  0  0  0  0  0  0  0
   11.9194   52.6585   89.1083 C   0  0  0  0  0  0  0  0  0  0  0  0
   12.1360   51.4885   89.4043 O   0  0  0  0  0  0  0  0  0  0  0  0
   14.8699   54.5871   89.0942 H   0  0  0  0  0  0  0  0  0  0  0  0
   13.0597   51.6573   92.5196 N   0  0  0  0  0  0  0  0  0  0  0  0
   12.6297   52.8542   92.1046 C   0  0  0  0  0  0  0  0  0  0  0  0
   11.7606   53.4732   92.6890 O   0  0  0  0  0  0  0  0  0  0  0  0
   13.7720   51.2123   92.0059 H   0  0  0  0  0  0  0  0  0  0  0  0
   12.5149   50.9647   93.7194 C   0  0  0  0  0  0  0  0  0  0  0  0
   15.4475   50.6792   96.7664 C   0  0  0  0  0  0  0  0  0  0  0  0
   15.1506   51.9170   96.2070 C   0  0  0  0  0  0  0  0  0  0  0  0
   14.1842   52.0435   95.1958 C   0  0  0  0  0  0  0  0  0  0  0  0
   14.7393   49.5575   96.2947 C   0  0  0  0  0  0  0  0  0  0  0  0
   13.7844   49.6740   95.2816 C   0  0  0  0  0  0  0  0  0  0  0  0
   13.4852   50.9208   94.7197 C   0  0  0  0  0  0  0  0  0  0  0  0
   15.1417   51.7812   99.6327 C   0  0  0  0  0  0  0  0  0  0  0  0
   16.3213   51.0233   98.9981 C   0  0  0  0  0  0  0  0  0  0  0  0
   17.4219   50.7619   99.7371 N   0  0  0  0  0  0  0  0  0  0  0  0
   18.3790   50.0999   99.0985 C   0  0  0  0  0  0  0  0  0  0  0  0
   17.8825   49.8108   97.5961 S   0  0  0  0  0  0  0  0  0  0  0  0
   16.3835   50.5778   97.7286 C   0  0  0  0  0  0  0  0  0  0  0  0
   11.0639   52.9647   87.8554 C   0  0  0  0  0  0  0  0  0  0  0  0
    9.5708   52.6501   88.0557 C   0  0  0  0  0  0  0  0  0  0  0  0
    8.6616   53.4599   87.0872 C   0  0  0  0  0  0  0  0  0  0  0  0
    9.1761   53.0170   89.5014 C   0  0  0  0  0  0  0  0  0  0  0  0
    9.2934   51.1548   87.8717 C   0  0  0  0  0  0  0  0  0  0  0  0
   11.5538   52.1030   86.7773 N   0  0  0  0  0  0  0  0  0  0  0  0
   11.9186   52.5063   85.5555 C   0  0  0  0  0  0  0  0  0  0  0  0
   11.8507   53.6688   85.1412 O   0  0  0  0  0  0  0  0  0  0  0  0
   11.6207   51.1397   86.9694 H   0  0  0  0  0  0  0  0  0  0  0  0
   12.3438   51.3162   84.6490 C   0  0  0  0  0  0  0  0  0  0  0  0
   11.5803   50.1387   85.1130 N   0  0  0  0  0  0  0  0  0  0  0  0
   12.1216   48.9165   85.2903 C   0  0  0  0  0  0  0  0  0  0  0  0
   13.2866   48.6038   85.0395 O   0  0  0  0  0  0  0  0  0  0  0  0
   11.1425   47.8702   85.8181 C   0  0  0  0  0  0  0  0  0  0  0  0
   10.6213   50.2534   85.3036 H   0  0  0  0  0  0  0  0  0  0  0  0
   12.0239   51.5509   83.1943 C   0  0  0  0  0  0  0  0  0  0  0  0
   13.2762   51.6573   82.5384 C   0  0  0  0  0  0  0  0  0  0  0  0
   14.2877   52.4664   83.0629 C   0  0  0  0  0  0  0  0  0  0  0  0
   15.5196   52.5817   82.4290 C   0  0  0  0  0  0  0  0  0  0  0  0
   15.7597   51.8908   81.2490 C   0  0  0  0  0  0  0  0  0  0  0  0
   14.7692   51.0752   80.7149 C   0  0  0  0  0  0  0  0  0  0  0  0
   13.5345   50.9561   81.3520 C   0  0  0  0  0  0  0  0  0  0  0  0
 23 24  2  0  0  0
 23 22  1  0  0  0
 24 25  1  0  0  0
 21 22  1  0  0  0
 22 26  2  0  0  0
 25 26  1  0  0  0
 26 15  1  0  0  0
 15 18  2  0  0  0
 15 16  1  0  0  0
 18 19  1  0  0  0
 16 17  2  0  0  0
 19 20  2  0  0  0
 17 20  1  0  0  0
 20 14  1  0  0  0
 14 10  1  0  0  0
 10 11  1  0  0  0
  2  1  1  0  0  0
  2  3  1  0  0  0
 11 12  2  0  0  0
 11  1  1  0  0  0
  1  6  1  0  0  0
  3  4  1  0  0  0
  3  5  1  0  0  0
  6  5  1  0  0  0
  6  7  1  0  0  0
  8  7  2  0  0  0
  7 27  1  0  0  0
 31 28  1  0  0  0
 27 28  1  0  0  0
 27 32  1  0  0  0
 29 28  1  0  0  0
 28 30  1  0  0  0
 32 33  1  0  0  0
 33 34  2  0  0  0
 33 36  1  0  0  0
 36 42  1  0  0  0
 36 37  1  0  0  0
 39 38  2  0  0  0
 44 45  2  0  0  0
 44 43  1  0  0  0
 42 43  1  0  0  0
 45 46  1  0  0  0
 43 48  2  0  0  0
 38 37  1  0  0  0
 38 40  1  0  0  0
 46 47  2  0  0  0
 48 47  1  0  0  0
 10 13  1  0  0  0
  4  9  1  0  0  0
 32 35  1  0  0  0
 37 41  1  0  0  0
M  END
> <minimizedAffinity>
-7.56465

$$$$
4W9K_3JO_C_301


 48 51  0  0  0  0  0  0  0  0999 V2000
   10.7918   53.6836   90.1930 C   0  0  0  0  0  0  0  0  0  0  0  0
    9.4856   54.2957   90.7526 C   0  0  0  0  0  0  0  0  0  0  0  0
    8.3734   53.6628   89.9620 C   0  0  0  0  0  0  0  0  0  0  0  0
    8.1950   54.3569   88.6964 O   0  0  0  0  0  0  0  0  0  0  0  0
    8.8977   52.2343   89.7383 C   0  0  0  0  0  0  0  0  0  0  0  0
   10.3809   52.4073   89.5085 N   0  0  0  0  0  0  0  0  0  0  0  0
   11.2803   51.7045   88.7781 C   0  0  0  0  0  0  0  0  0  0  0  0
   12.4488   52.0589   88.6678 O   0  0  0  0  0  0  0  0  0  0  0  0
    9.0334   54.3601   88.2085 H   0  0  0  0  0  0  0  0  0  0  0  0
   12.3614   54.5530   91.6802 N   0  0  0  0  0  0  0  0  0  0  0  0
   11.6703   53.4841   91.2684 C   0  0  0  0  0  0  0  0  0  0  0  0
   11.7183   52.4146   91.8464 O   0  0  0  0  0  0  0  0  0  0  0  0
   12.2722   55.3916   91.1723 H   0  0  0  0  0  0  0  0  0  0  0  0
   13.2584   54.5376   92.8682 C   0  0  0  0  0  0  0  0  0  0  0  0
   11.0710   55.7440   96.2925 C   0  0  0  0  0  0  0  0  0  0  0  0
   11.3163   54.3936   96.0697 C   0  0  0  0  0  0  0  0  0  0  0  0
   12.0377   53.9631   94.9442 C   0  0  0  0  0  0  0  0  0  0  0  0
   11.5795   56.6674   95.3593 C   0  0  0  0  0  0  0  0  0  0  0  0
   12.2886   56.2458   94.2318 C   0  0  0  0  0  0  0  0  0  0  0  0
   12.5362   54.8861   94.0087 C   0  0  0  0  0  0  0  0  0  0  0  0
    8.6355   57.6375   96.2100 C   0  0  0  0  0  0  0  0  0  0  0  0
    9.2967   56.9483   97.4168 C   0  0  0  0  0  0  0  0  0  0  0  0
    8.7982   57.1498   98.6564 N   0  0  0  0  0  0  0  0  0  0  0  0
    9.4369   56.5071   99.6264 C   0  0  0  0  0  0  0  0  0  0  0  0
   10.6371   55.6600   98.9714 S   0  0  0  0  0  0  0  0  0  0  0  0
   10.3698   56.1356   97.3729 C   0  0  0  0  0  0  0  0  0  0  0  0
   10.8142   50.4294   88.0349 C   0  0  0  0  0  0  0  0  0  0  0  0
   11.1114   49.1366   88.8152 C   0  0  0  0  0  0  0  0  0  0  0  0
   12.6171   49.0015   89.1825 C   0  0  0  0  0  0  0  0  0  0  0  0
   10.7224   47.9278   87.9390 C   0  0  0  0  0  0  0  0  0  0  0  0
   10.2740   49.0613   90.0957 C   0  0  0  0  0  0  0  0  0  0  0  0
   11.5622   50.3654   86.7774 N   0  0  0  0  0  0  0  0  0  0  0  0
   11.1885   50.9093   85.6142 C   0  0  0  0  0  0  0  0  0  0  0  0
   10.1263   51.5107   85.4197 O   0  0  0  0  0  0  0  0  0  0  0  0
   12.4174   49.8778   86.7894 H   0  0  0  0  0  0  0  0  0  0  0  0
   12.2013   50.6053   84.4737 C   0  0  0  0  0  0  0  0  0  0  0  0
   11.9684   49.2041   84.0652 N   0  0  0  0  0  0  0  0  0  0  0  0
   12.5691   48.1447   84.6441 C   0  0  0  0  0  0  0  0  0  0  0  0
   13.4203   48.1991   85.5332 O   0  0  0  0  0  0  0  0  0  0  0  0
   12.1350   46.7943   84.0784 C   0  0  0  0  0  0  0  0  0  0  0  0
   11.3384   49.0345   83.3279 H   0  0  0  0  0  0  0  0  0  0  0  0
   12.0053   51.4933   83.2709 C   0  0  0  0  0  0  0  0  0  0  0  0
   13.3073   51.7774   82.7875 C   0  0  0  0  0  0  0  0  0  0  0  0
   14.0929   52.7610   83.3945 C   0  0  0  0  0  0  0  0  0  0  0  0
   15.3703   53.0514   82.9294 C   0  0  0  0  0  0  0  0  0  0  0  0
   15.8843   52.3634   81.8385 C   0  0  0  0  0  0  0  0  0  0  0  0
   15.1218   51.3765   81.2254 C   0  0  0  0  0  0  0  0  0  0  0  0
   13.8416   51.0820   81.6934 C   0  0  0  0  0  0  0  0  0  0  0  0
 23 24  2  0  0  0
 23 22  1  0  0  0
 24 25  1  0  0  0
 21 22  1  0  0  0
 22 26  2  0  0  0
 25 26  1  0  0  0
 26 15  1  0  0  0
 15 18  2  0  0  0
 15 16  1  0  0  0
 18 19  1  0  0  0
 16 17  2  0  0  0
 19 20  2  0  0  0
 17 20  1  0  0  0
 20 14  1  0  0  0
 14 10  1  0  0  0
 10 11  1  0  0  0
  2  1  1  0  0  0
  2  3  1  0  0  0
 11 12  2  0  0  0
 11  1  1  0  0  0
  1  6  1  0  0  0
  3  4  1  0  0  0
  3  5  1  0  0  0
  6  5  1  0  0  0
  6  7  1  0  0  0
  8  7  2  0  0  0
  7 27  1  0  0  0
 31 28  1  0  0  0
 27 28  1  0  0  0
 27 32  1  0  0  0
 29 28  1  0  0  0
 28 30  1  0  0  0
 32 33  1  0  0  0
 33 34  2  0  0  0
 33 36  1  0  0  0
 36 42  1  0  0  0
 36 37  1  0  0  0
 39 38  2  0  0  0
 44 45  2  0  0  0
 44 43  1  0  0  0
 42 43  1  0  0  0
 45 46  1  0  0  0
 43 48  2  0  0  0
 38 37  1  0  0  0
 38 40  1  0  0  0
 46 47  2  0  0  0
 48 47  1  0  0  0
 10 13  1  0  0  0
  4  9  1  0  0  0
 32 35  1  0  0  0
 37 41  1  0  0  0
M  END
> <minimizedAffinity>
-7.37198

$$$$
4W9K_3JO_C_301


 48 51  0  0  0  0  0  0  0  0999 V2000
   10.2536   51.8060   87.6564 C   0  0  0  0  0  0  0  0  0  0  0  0
    8.8640   52.0401   87.0174 C   0  0  0  0  0  0  0  0  0  0  0  0
    8.2504   53.1739   87.7925 C   0  0  0  0  0  0  0  0  0  0  0  0
    7.6404   52.6775   89.0158 O   0  0  0  0  0  0  0  0  0  0  0  0
    9.4687   54.0595   88.1037 C   0  0  0  0  0  0  0  0  0  0  0  0
   10.5858   53.0816   88.3835 N   0  0  0  0  0  0  0  0  0  0  0  0
   11.6793   53.1476   89.1812 C   0  0  0  0  0  0  0  0  0  0  0  0
   12.4417   52.1976   89.3209 O   0  0  0  0  0  0  0  0  0  0  0  0
    8.3035   52.1970   89.5359 H   0  0  0  0  0  0  0  0  0  0  0  0
   11.4433   52.4837   85.7706 N   0  0  0  0  0  0  0  0  0  0  0  0
   11.1555   51.4973   86.6272 C   0  0  0  0  0  0  0  0  0  0  0  0
   11.7110   50.4157   86.5862 O   0  0  0  0  0  0  0  0  0  0  0  0
   10.9630   53.3382   85.8628 H   0  0  0  0  0  0  0  0  0  0  0  0
   12.4535   52.3539   84.6849 C   0  0  0  0  0  0  0  0  0  0  0  0
   10.6249   51.5011   80.9573 C   0  0  0  0  0  0  0  0  0  0  0  0
    9.9584   52.2881   81.8899 C   0  0  0  0  0  0  0  0  0  0  0  0
   10.5382   52.5877   83.1335 C   0  0  0  0  0  0  0  0  0  0  0  0
   11.9056   51.0237   81.2952 C   0  0  0  0  0  0  0  0  0  0  0  0
   12.4841   51.3087   82.5345 C   0  0  0  0  0  0  0  0  0  0  0  0
   11.8129   52.1021   83.4725 C   0  0  0  0  0  0  0  0  0  0  0  0
    8.8792   49.0162   80.4079 C   0  0  0  0  0  0  0  0  0  0  0  0
    9.2705   50.1642   79.4604 C   0  0  0  0  0  0  0  0  0  0  0  0
    8.8253   50.1580   78.1847 N   0  0  0  0  0  0  0  0  0  0  0  0
    9.2150   51.1942   77.4523 C   0  0  0  0  0  0  0  0  0  0  0  0
   10.1188   52.1561   78.3715 S   0  0  0  0  0  0  0  0  0  0  0  0
   10.0482   51.2181   79.7743 C   0  0  0  0  0  0  0  0  0  0  0  0
   11.9617   54.4521   89.9647 C   0  0  0  0  0  0  0  0  0  0  0  0
   13.3598   55.0309   89.6839 C   0  0  0  0  0  0  0  0  0  0  0  0
   13.8999   54.6174   88.2847 C   0  0  0  0  0  0  0  0  0  0  0  0
   14.3398   54.5004   90.7509 C   0  0  0  0  0  0  0  0  0  0  0  0
   13.3543   56.5593   89.7879 C   0  0  0  0  0  0  0  0  0  0  0  0
   11.9014   54.1209   91.3900 N   0  0  0  0  0  0  0  0  0  0  0  0
   10.7937   54.0733   92.1378 C   0  0  0  0  0  0  0  0  0  0  0  0
    9.6561   54.3494   91.7410 O   0  0  0  0  0  0  0  0  0  0  0  0
   12.7534   53.9146   91.8382 H   0  0  0  0  0  0  0  0  0  0  0  0
   11.1045   53.7338   93.6234 C   0  0  0  0  0  0  0  0  0  0  0  0
   11.6762   52.3708   93.6339 N   0  0  0  0  0  0  0  0  0  0  0  0
   11.4755   51.4812   94.6272 C   0  0  0  0  0  0  0  0  0  0  0  0
   10.8515   51.6953   95.6677 O   0  0  0  0  0  0  0  0  0  0  0  0
   12.1332   50.1233   94.3920 C   0  0  0  0  0  0  0  0  0  0  0  0
   12.2359   52.0967   92.8717 H   0  0  0  0  0  0  0  0  0  0  0  0
   12.1071   54.6779   94.2375 C   0  0  0  0  0  0  0  0  0  0  0  0
   11.3582   55.7960   94.6833 C   0  0  0  0  0  0  0  0  0  0  0  0
   10.0213   55.6511   95.0638 C   0  0  0  0  0  0  0  0  0  0  0  0
    9.2746   56.7392   95.5008 C   0  0  0  0  0  0  0  0  0  0  0  0
    9.8538   57.9996   95.5584 C   0  0  0  0  0  0  0  0  0  0  0  0
   11.1842   58.1634   95.1912 C   0  0  0  0  0  0  0  0  0  0  0  0
   11.9351   57.0719   94.7562 C   0  0  0  0  0  0  0  0  0  0  0  0
 23 24  2  0  0  0
 23 22  1  0  0  0
 24 25  1  0  0  0
 21 22  1  0  0  0
 22 26  2  0  0  0
 25 26  1  0  0  0
 26 15  1  0  0  0
 15 18  2  0  0  0
 15 16  1  0  0  0
 18 19  1  0  0  0
 16 17  2  0  0  0
 19 20  2  0  0  0
 17 20  1  0  0  0
 20 14  1  0  0  0
 14 10  1  0  0  0
 10 11  1  0  0  0
  2  1  1  0  0  0
  2  3  1  0  0  0
 11 12  2  0  0  0
 11  1  1  0  0  0
  1  6  1  0  0  0
  3  4  1  0  0  0
  3  5  1  0  0  0
  6  5  1  0  0  0
  6  7  1  0  0  0
  8  7  2  0  0  0
  7 27  1  0  0  0
 31 28  1  0  0  0
 27 28  1  0  0  0
 27 32  1  0  0  0
 29 28  1  0  0  0
 28 30  1  0  0  0
 32 33  1  0  0  0
 33 34  2  0  0  0
 33 36  1  0  0  0
 36 42  1  0  0  0
 36 37  1  0  0  0
 39 38  2  0  0  0
 44 45  2  0  0  0
 44 43  1  0  0  0
 42 43  1  0  0  0
 45 46  1  0  0  0
 43 48  2  0  0  0
 38 37  1  0  0  0
 38 40  1  0  0  0
 46 47  2  0  0  0
 48 47  1  0  0  0
 10 13  1  0  0  0
  4  9  1  0  0  0
 32 35  1  0  0  0
 37 41  1  0  0  0
M  END
> <minimizedAffinity>
-7.36775

$$$$
4W9K_3JO_C_301


 48 51  0  0  0  0  0  0  0  0999 V2000
   11.7218   50.6275   88.1884 C   0  0  0  0  0  0  0  0  0  0  0  0
   11.8643   49.1488   87.7558 C   0  0  0  0  0  0  0  0  0  0  0  0
   11.5920   48.3391   88.9940 C   0  0  0  0  0  0  0  0  0  0  0  0
   12.7909   48.2493   89.8124 O   0  0  0  0  0  0  0  0  0  0  0  0
   10.5042   49.1674   89.6983 C   0  0  0  0  0  0  0  0  0  0  0  0
   10.9027   50.6036   89.4511 N   0  0  0  0  0  0  0  0  0  0  0  0
   10.7260   51.7376   90.1717 C   0  0  0  0  0  0  0  0  0  0  0  0
   11.1958   52.8135   89.8182 O   0  0  0  0  0  0  0  0  0  0  0  0
   13.1065   49.1422   90.0226 H   0  0  0  0  0  0  0  0  0  0  0  0
   11.7927   52.3613   86.6327 N   0  0  0  0  0  0  0  0  0  0  0  0
   11.1101   51.3275   87.1377 C   0  0  0  0  0  0  0  0  0  0  0  0
   10.0596   50.9438   86.6590 O   0  0  0  0  0  0  0  0  0  0  0  0
   12.6410   52.6164   87.0624 H   0  0  0  0  0  0  0  0  0  0  0  0
   11.3338   53.1452   85.4533 C   0  0  0  0  0  0  0  0  0  0  0  0
   13.0234   51.4732   81.9439 C   0  0  0  0  0  0  0  0  0  0  0  0
   11.6581   51.3535   82.1781 C   0  0  0  0  0  0  0  0  0  0  0  0
   11.0693   51.8966   83.3316 C   0  0  0  0  0  0  0  0  0  0  0  0
   13.7953   52.1672   82.8951 C   0  0  0  0  0  0  0  0  0  0  0  0
   13.2183   52.7007   84.0502 C   0  0  0  0  0  0  0  0  0  0  0  0
   11.8434   52.5808   84.2847 C   0  0  0  0  0  0  0  0  0  0  0  0
   15.7975   52.2241   80.8194 C   0  0  0  0  0  0  0  0  0  0  0  0
   14.7716   51.2062   80.2902 C   0  0  0  0  0  0  0  0  0  0  0  0
   15.0501   50.4962   79.1748 N   0  0  0  0  0  0  0  0  0  0  0  0
   14.1029   49.6428   78.8051 C   0  0  0  0  0  0  0  0  0  0  0  0
   12.8921   49.7382   79.8596 S   0  0  0  0  0  0  0  0  0  0  0  0
   13.5701   50.9380   80.8363 C   0  0  0  0  0  0  0  0  0  0  0  0
    9.9311   51.6705   91.4980 C   0  0  0  0  0  0  0  0  0  0  0  0
    8.4949   52.2074   91.3656 C   0  0  0  0  0  0  0  0  0  0  0  0
    8.3870   53.7084   91.7604 C   0  0  0  0  0  0  0  0  0  0  0  0
    7.5746   51.3988   92.3034 C   0  0  0  0  0  0  0  0  0  0  0  0
    7.9679   52.0249   89.9389 C   0  0  0  0  0  0  0  0  0  0  0  0
   10.6308   52.5205   92.4637 N   0  0  0  0  0  0  0  0  0  0  0  0
   11.5833   52.1218   93.3137 C   0  0  0  0  0  0  0  0  0  0  0  0
   11.9815   50.9586   93.4398 O   0  0  0  0  0  0  0  0  0  0  0  0
   10.3771   53.4714   92.4896 H   0  0  0  0  0  0  0  0  0  0  0  0
   12.0737   53.2801   94.2283 C   0  0  0  0  0  0  0  0  0  0  0  0
   13.3757   52.8559   94.7847 N   0  0  0  0  0  0  0  0  0  0  0  0
   13.5317   52.3475   96.0239 C   0  0  0  0  0  0  0  0  0  0  0  0
   12.6415   52.2238   96.8666 O   0  0  0  0  0  0  0  0  0  0  0  0
   14.9656   51.9413   96.3565 C   0  0  0  0  0  0  0  0  0  0  0  0
   14.1751   52.9500   94.2179 H   0  0  0  0  0  0  0  0  0  0  0  0
   12.2732   54.5707   93.4746 C   0  0  0  0  0  0  0  0  0  0  0  0
   11.5180   55.5448   94.1750 C   0  0  0  0  0  0  0  0  0  0  0  0
   10.1777   55.3115   94.4946 C   0  0  0  0  0  0  0  0  0  0  0  0
    9.4248   56.2587   95.1790 C   0  0  0  0  0  0  0  0  0  0  0  0
   10.0013   57.4655   95.5518 C   0  0  0  0  0  0  0  0  0  0  0  0
   11.3349   57.7138   95.2497 C   0  0  0  0  0  0  0  0  0  0  0  0
   12.0920   56.7627   94.5663 C   0  0  0  0  0  0  0  0  0  0  0  0
 23 24  2  0  0  0
 23 22  1  0  0  0
 24 25  1  0  0  0
 21 22  1  0  0  0
 22 26  2  0  0  0
 25 26  1  0  0  0
 26 15  1  0  0  0
 15 18  2  0  0  0
 15 16  1  0  0  0
 18 19  1  0  0  0
 16 17  2  0  0  0
 19 20  2  0  0  0
 17 20  1  0  0  0
 20 14  1  0  0  0
 14 10  1  0  0  0
 10 11  1  0  0  0
  2  1  1  0  0  0
  2  3  1  0  0  0
 11 12  2  0  0  0
 11  1  1  0  0  0
  1  6  1  0  0  0
  3  4  1  0  0  0
  3  5  1  0  0  0
  6  5  1  0  0  0
  6  7  1  0  0  0
  8  7  2  0  0  0
  7 27  1  0  0  0
 31 28  1  0  0  0
 27 28  1  0  0  0
 27 32  1  0  0  0
 29 28  1  0  0  0
 28 30  1  0  0  0
 32 33  1  0  0  0
 33 34  2  0  0  0
 33 36  1  0  0  0
 36 42  1  0  0  0
 36 37  1  0  0  0
 39 38  2  0  0  0
 44 45  2  0  0  0
 44 43  1  0  0  0
 42 43  1  0  0  0
 45 46  1  0  0  0
 43 48  2  0  0  0
 38 37  1  0  0  0
 38 40  1  0  0  0
 46 47  2  0  0  0
 48 47  1  0  0  0
 10 13  1  0  0  0
  4  9  1  0  0  0
 32 35  1  0  0  0
 37 41  1  0  0  0
M  END
> <minimizedAffinity>
-6.79517

$$$$
4W9K_3JO_C_301


 48 51  0  0  0  0  0  0  0  0999 V2000
   12.3917   54.3248   89.5023 C   0  0  0  0  0  0  0  0  0  0  0  0
   13.5520   54.7574   88.5747 C   0  0  0  0  0  0  0  0  0  0  0  0
   14.5740   55.3924   89.4776 C   0  0  0  0  0  0  0  0  0  0  0  0
   14.2235   56.7792   89.7403 O   0  0  0  0  0  0  0  0  0  0  0  0
   14.4600   54.5432   90.7549 C   0  0  0  0  0  0  0  0  0  0  0  0
   12.9834   54.2511   90.8846 N   0  0  0  0  0  0  0  0  0  0  0  0
   12.1839   54.0446   91.9591 C   0  0  0  0  0  0  0  0  0  0  0  0
   10.9729   53.8873   91.8490 O   0  0  0  0  0  0  0  0  0  0  0  0
   13.3296   56.8215   90.1147 H   0  0  0  0  0  0  0  0  0  0  0  0
   12.2636   52.0089   89.7288 N   0  0  0  0  0  0  0  0  0  0  0  0
   11.9024   53.0952   89.0367 C   0  0  0  0  0  0  0  0  0  0  0  0
   11.1155   53.0459   88.1102 O   0  0  0  0  0  0  0  0  0  0  0  0
   12.8990   52.1183   90.4729 H   0  0  0  0  0  0  0  0  0  0  0  0
   11.7529   50.6428   89.4301 C   0  0  0  0  0  0  0  0  0  0  0  0
    8.2535   49.9348   91.7146 C   0  0  0  0  0  0  0  0  0  0  0  0
    8.1485   50.1983   90.3534 C   0  0  0  0  0  0  0  0  0  0  0  0
    9.2895   50.4371   89.5702 C   0  0  0  0  0  0  0  0  0  0  0  0
    9.5422   49.9031   92.2807 C   0  0  0  0  0  0  0  0  0  0  0  0
   10.6810   50.1504   91.5101 C   0  0  0  0  0  0  0  0  0  0  0  0
   10.5746   50.4145   90.1394 C   0  0  0  0  0  0  0  0  0  0  0  0
    6.7300   52.1165   93.2777 C   0  0  0  0  0  0  0  0  0  0  0  0
    6.4251   50.6134   93.1494 C   0  0  0  0  0  0  0  0  0  0  0  0
    5.3509   50.0937   93.7832 N   0  0  0  0  0  0  0  0  0  0  0  0
    5.1738   48.7903   93.6049 C   0  0  0  0  0  0  0  0  0  0  0  0
    6.3435   48.2444   92.6452 S   0  0  0  0  0  0  0  0  0  0  0  0
    7.1469   49.7172   92.4496 C   0  0  0  0  0  0  0  0  0  0  0  0
   12.8117   54.0353   93.3737 C   0  0  0  0  0  0  0  0  0  0  0  0
   13.1503   52.6189   93.8714 C   0  0  0  0  0  0  0  0  0  0  0  0
   13.7983   51.7422   92.7616 C   0  0  0  0  0  0  0  0  0  0  0  0
   11.8477   51.9286   94.3268 C   0  0  0  0  0  0  0  0  0  0  0  0
   14.0878   52.6698   95.0818 C   0  0  0  0  0  0  0  0  0  0  0  0
   11.8177   54.5974   94.2906 N   0  0  0  0  0  0  0  0  0  0  0  0
   11.7393   55.8762   94.6739 C   0  0  0  0  0  0  0  0  0  0  0  0
   12.5294   56.7670   94.3428 O   0  0  0  0  0  0  0  0  0  0  0  0
   11.1465   53.9779   94.6579 H   0  0  0  0  0  0  0  0  0  0  0  0
   10.5882   56.1122   95.6929 C   0  0  0  0  0  0  0  0  0  0  0  0
   11.1975   56.0552   97.0383 N   0  0  0  0  0  0  0  0  0  0  0  0
   11.4554   54.9069   97.6965 C   0  0  0  0  0  0  0  0  0  0  0  0
   11.1716   53.7743   97.3031 O   0  0  0  0  0  0  0  0  0  0  0  0
   12.1280   55.1021   99.0535 C   0  0  0  0  0  0  0  0  0  0  0  0
   11.4284   56.9045   97.4793 H   0  0  0  0  0  0  0  0  0  0  0  0
    9.9287   57.4575   95.5230 C   0  0  0  0  0  0  0  0  0  0  0  0
    8.5368   57.1970   95.4575 C   0  0  0  0  0  0  0  0  0  0  0  0
    8.0648   55.8970   95.2567 C   0  0  0  0  0  0  0  0  0  0  0  0
    6.7028   55.6276   95.1881 C   0  0  0  0  0  0  0  0  0  0  0  0
    5.7842   56.6611   95.3133 C   0  0  0  0  0  0  0  0  0  0  0  0
    6.2331   57.9599   95.5207 C   0  0  0  0  0  0  0  0  0  0  0  0
    7.5992   58.2306   95.5932 C   0  0  0  0  0  0  0  0  0  0  0  0
 23 24  2  0  0  0
 23 22  1  0  0  0
 24 25  1  0  0  0
 21 22  1  0  0  0
 22 26  2  0  0  0
 25 26  1  0  0  0
 26 15  1  0  0  0
 15 18  2  0  0  0
 15 16  1  0  0  0
 18 19  1  0  0  0
 16 17  2  0  0  0
 19 20  2  0  0  0
 17 20  1  0  0  0
 20 14  1  0  0  0
 14 10  1  0  0  0
 10 11  1  0  0  0
  2  1  1  0  0  0
  2  3  1  0  0  0
 11 12  2  0  0  0
 11  1  1  0  0  0
  1  6  1  0  0  0
  3  4  1  0  0  0
  3  5  1  0  0  0
  6  5  1  0  0  0
  6  7  1  0  0  0
  8  7  2  0  0  0
  7 27  1  0  0  0
 31 28  1  0  0  0
 27 28  1  0  0  0
 27 32  1  0  0  0
 29 28  1  0  0  0
 28 30  1  0  0  0
 32 33  1  0  0  0
 33 34  2  0  0  0
 33 36  1  0  0  0
 36 42  1  0  0  0
 36 37  1  0  0  0
 39 38  2  0  0  0
 44 45  2  0  0  0
 44 43  1  0  0  0
 42 43  1  0  0  0
 45 46  1  0  0  0
 43 48  2  0  0  0
 38 37  1  0  0  0
 38 40  1  0  0  0
 46 47  2  0  0  0
 48 47  1  0  0  0
 10 13  1  0  0  0
  4  9  1  0  0  0
 32 35  1  0  0  0
 37 41  1  0  0  0
M  END
> <minimizedAffinity>
-6.79061

$$$$
