5VC4_XZN_A_601
  RCSB PDB12061719593D
Coordinates from PDB:5VC4:A:601 Model:1 without hydrogens
 36 39  0  0  0  0            999 V2000
   -4.1190    7.5390    9.2500   C 0  0  0  0  0  0  0  0  0  0  0  0
   -1.1650   -2.0110   11.3820   O 0  0  0  0  0  0  0  0  0  0  0  0
   -9.0110    9.8990   10.7140   C 0  0  0  0  0  0  0  0  0  0  0  0
   -2.6510    1.4260   15.0750   N 0  0  0  0  0  0  0  0  0  0  0  0
   -4.0530   -1.6740   12.1760  Cl 0  0  0  0  0  0  0  0  0  0  0  0
    0.9020    0.0850   10.8210  Cl 0  0  0  0  0  0  0  0  0  0  0  0
   -3.2470    2.3200   14.6710   C 0  0  0  0  0  0  0  0  0  0  0  0
   -4.7960    3.9540   15.1120   C 0  0  0  0  0  0  0  0  0  0  0  0
   -6.3200    6.6290   13.2040   C 0  0  0  0  0  0  0  0  0  0  0  0
   -4.6510    5.5410   11.2150   C 0  0  0  0  0  0  0  0  0  0  0  0
   -8.9630    9.7670   12.2610   C 0  0  0  0  0  0  0  0  0  0  0  0
   -7.9310    8.7200   12.7480   C 0  0  0  0  0  0  0  0  0  0  0  0
  -10.6360   12.9340    7.5090   C 0  0  0  0  0  0  0  0  0  0  0  0
  -10.2060   12.0860   10.3830   C 0  0  0  0  0  0  0  0  0  0  0  0
  -10.5530   10.2020    8.7910   C 0  0  0  0  0  0  0  0  0  0  0  0
  -11.4850   12.7620    9.8310   C 0  0  0  0  0  0  0  0  0  0  0  0
  -11.8300   10.8980    8.2680   C 0  0  0  0  0  0  0  0  0  0  0  0
   -5.5430    5.0110   14.7400   N 0  0  0  0  0  0  0  0  0  0  0  0
   -2.9970    3.2570   11.9150   N 0  0  0  0  0  0  0  0  0  0  0  0
   -5.4520    7.1920    9.6670   O 0  0  0  0  0  0  0  0  0  0  0  0
   -7.1130    8.2740   11.6450   O 0  0  0  0  0  0  0  0  0  0  0  0
   -1.6020   -0.7150   11.5060   C 0  0  0  0  0  0  0  0  0  0  0  0
   -2.9360   -0.4340   11.8730   C 0  0  0  0  0  0  0  0  0  0  0  0
   -1.1570    1.6900   11.3930   C 0  0  0  0  0  0  0  0  0  0  0  0
   -3.9240    3.3330   14.1970   C 0  0  0  0  0  0  0  0  0  0  0  0
   -2.4900    1.9860   11.7620   C 0  0  0  0  0  0  0  0  0  0  0  0
   -5.4700    6.6520   10.9230   C 0  0  0  0  0  0  0  0  0  0  0  0
   -6.3090    7.1990   11.9200   C 0  0  0  0  0  0  0  0  0  0  0  0
   -3.8400    3.8290   12.8510   C 0  0  0  0  0  0  0  0  0  0  0  0
   -5.5010    5.5250   13.4910   C 0  0  0  0  0  0  0  0  0  0  0  0
   -4.6460    4.9540   12.5050   C 0  0  0  0  0  0  0  0  0  0  0  0
  -10.2350   10.5990   10.2020   N 0  0  0  0  0  0  0  0  0  0  0  0
   -3.3670    0.9010   11.9880   C 0  0  0  0  0  0  0  0  0  0  0  0
  -11.6820   12.3750    8.4060   N 0  0  0  0  0  0  0  0  0  0  0  0
   -0.5600   -2.5380   12.5830   C 0  0  0  0  0  0  0  0  0  0  0  0
   -0.7120    0.3590   11.2650   C 0  0  0  0  0  0  0  0  0  0  0  0
  1 20  1  0  0  0  0
  2 22  1  0  0  0  0
  2 35  1  0  0  0  0
  3 11  1  0  0  0  0
  3 32  1  0  0  0  0
  4  7  3  0  0  0  0
  5 23  1  0  0  0  0
  6 36  1  0  0  0  0
  7 25  1  0  0  0  0
  8 18  2  0  0  0  0
  8 25  1  0  0  0  0
  9 28  2  0  0  0  0
  9 30  1  0  0  0  0
 10 27  2  0  0  0  0
 10 31  1  0  0  0  0
 11 12  1  0  0  0  0
 12 21  1  0  0  0  0
 13 34  1  0  0  0  0
 15 17  1  0  0  0  0
 15 32  1  0  0  0  0
 14 16  1  0  0  0  0
 14 32  1  0  0  0  0
 17 34  1  0  0  0  0
 16 34  1  0  0  0  0
 18 30  1  0  0  0  0
 19 26  1  0  0  0  0
 19 29  1  0  0  0  0
 20 27  1  0  0  0  0
 21 28  1  0  0  0  0
 22 23  1  0  0  0  0
 22 36  2  0  0  0  0
 23 33  2  0  0  0  0
 24 26  2  0  0  0  0
 24 36  1  0  0  0  0
 25 29  2  0  0  0  0
 26 33  1  0  0  0  0
 27 28  1  0  0  0  0
 29 31  1  0  0  0  0
 30 31  2  0  0  0  0
A    1
CAA
A    2
O02
A    3
CAC
A    4
NAD
A    5
CL1
A    6
CL2
A    7
CAG
A    8
CAH
A    9
CAK
A   10
CAL
A   11
CAM
A   12
CAN
A   13
CAO
A   14
CAQ
A   15
CAP
A   16
CAS
A   17
CAR
A   18
NAT
A   19
NAU
A   20
OAV
A   21
OAW
A   22
CAX
A   23
CAY
A   24
CAZ
A   25
CBA
A   26
CBB
A   27
CBC
A   28
CBD
A   29
CBE
A   30
CBF
A   31
CBG
A   32
NBH
A   33
CAJ
A   34
NBI
A   35
C01
A   36
CAI
M  END
>  <InstanceId>
5VC4_XZN_A_601

>  <ChemCompId>
XZN

>  <PdbId>
5VC4

>  <ChainId>
A

>  <ResidueNumber>
601

>  <InsertionCode>


>  <Model>
1

>  <AltIds>


>  <MissingHeavyAtoms>
0

>  <ObservedFormula>
C26 N5 O3 Cl2

>  <Name>
4-[(3,5-DICHLORO-4-METHOXYPHENYL)AMINO]-6-METHOXY-7-[3-(4-METHYLPIPERAZIN-1-YL)PROPOXY]QUINOLINE-3-CARBONITRILE

>  <SystematicName>
4-[[3,5-bis(chloranyl)-4-methoxy-phenyl]amino]-6-methoxy-7-[3-(4-methylpiperazin-1-yl)propoxy]quinoline-3-carbonitrile

>  <Synonyms>
BOSUTINIB ISOFORM 1

>  <Type>
non-polymer

>  <Formula>
C26 H29 Cl2 N5 O3

>  <MolecularWeight>
530.446

>  <ModifiedDate>
2014-09-05

>  <Parent>


>  <OneLetterCode>


>  <SubcomponentList>


>  <AmbiguousFlag>
N

>  <InChI>
InChI=1S/C26H29Cl2N5O3/c1-32-6-8-33(9-7-32)5-4-10-36-24-14-22-19(13-23(24)34-2)25(17(15-29)16-30-22)31-18-11-20(27)26(35-3)21(28)12-18/h11-14,16H,4-10H2,1-3H3,(H,30,31)

>  <InChIKey>
YCLIWTLPTXAGPQ-UHFFFAOYSA-N

>  <SMILES>
CN1CCN(CC1)CCCOc2cc3c(cc2OC)c(c(cn3)C#N)Nc4cc(c(c(c4)Cl)OC)Cl

$$$$
