5VC4_XZN_A_601


 37 40  0  0  0  0  0  0  0  0999 V2000
   -0.9795    0.5031   13.3239 C   0  0  0  0  0  0  0  0  0  0  0  0
   -3.6942    2.8840   13.6070 C   0  0  0  0  0  0  0  0  0  0  0  0
   -3.0438    3.2515   10.8927 C   0  0  0  0  0  0  0  0  0  0  0  0
   -1.9894    1.2594   13.7947 N   0  0  0  0  0  0  0  0  0  0  0  0
   -0.5696    0.6075   11.9807 C   0  0  0  0  0  0  0  0  0  0  0  0
   -4.0859    4.0000   11.4793 C   0  0  0  0  0  0  0  0  0  0  0  0
   -4.4143    3.8163   12.8415 C   0  0  0  0  0  0  0  0  0  0  0  0
   -1.2442    1.5247   11.1040 C   0  0  0  0  0  0  0  0  0  0  0  0
   -2.6558    2.1432   13.0197 C   0  0  0  0  0  0  0  0  0  0  0  0
   -2.3041    2.3085   11.6492 C   0  0  0  0  0  0  0  0  0  0  0  0
   -4.0614    5.2667    9.5285 C   0  0  0  0  0  0  0  0  0  0  0  0
   -4.7809    4.8996   10.7196 O   0  0  0  0  0  0  0  0  0  0  0  0
    1.3012   -0.8458   11.3356 N   0  0  0  0  0  0  0  0  0  0  0  0
    0.4224   -0.1719   11.6378 C   0  0  0  0  0  0  0  0  0  0  0  0
   -0.8782    1.6676    9.7775 N   0  0  0  0  0  0  0  0  0  0  0  0
   -1.3869    1.0887    9.1649 H   0  0  0  0  0  0  0  0  0  0  0  0
    3.5134    1.6830    7.2852 Cl  0  0  0  0  0  0  0  0  0  0  0  0
    0.7916    6.2834    8.2392 Cl  0  0  0  0  0  0  0  0  0  0  0  0
    2.0925    3.9392    7.8015 C   0  0  0  0  0  0  0  0  0  0  0  0
    2.1928    2.5361    7.9218 C   0  0  0  0  0  0  0  0  0  0  0  0
   -0.0344    3.8620    9.0119 C   0  0  0  0  0  0  0  0  0  0  0  0
    0.0542    2.4563    9.1416 C   0  0  0  0  0  0  0  0  0  0  0  0
    1.1783    1.8125    8.5764 C   0  0  0  0  0  0  0  0  0  0  0  0
    0.9683    4.6002    8.3518 C   0  0  0  0  0  0  0  0  0  0  0  0
    3.0688    4.6614    7.1602 O   0  0  0  0  0  0  0  0  0  0  0  0
    4.1794    5.0209    8.0107 C   0  0  0  0  0  0  0  0  0  0  0  0
   -5.4288    4.5337   13.4193 O   0  0  0  0  0  0  0  0  0  0  0  0
   -5.0078    5.7148   14.1351 C   0  0  0  0  0  0  0  0  0  0  0  0
   -5.2952    6.9826   13.2934 C   0  0  0  0  0  0  0  0  0  0  0  0
   -6.7405    7.0203   12.7256 C   0  0  0  0  0  0  0  0  0  0  0  0
   -6.4071   11.1989   10.5920 C   0  0  0  0  0  0  0  0  0  0  0  0
   -7.9799    8.7290   11.3599 C   0  0  0  0  0  0  0  0  0  0  0  0
   -5.5500    8.3309   10.9842 C   0  0  0  0  0  0  0  0  0  0  0  0
   -8.0539    9.4473    9.9902 C   0  0  0  0  0  0  0  0  0  0  0  0
   -5.6588    9.0453    9.6180 C   0  0  0  0  0  0  0  0  0  0  0  0
   -6.8587    7.7366   11.4128 N   0  0  0  0  0  0  0  0  0  0  0  0
   -6.7377   10.0722    9.6797 N   0  0  0  0  0  0  0  0  0  0  0  0
 11 12  1  0  0  0
 25 19  1  0  0  0
 25 26  1  0  0  0
 30 29  1  0  0  0
 30 36  1  0  0  0
 13 14  3  0  0  0
 17 20  1  0  0  0
 18 24  1  0  0  0
 14  5  1  0  0  0
  1  4  2  0  0  0
  1  5  1  0  0  0
  2  7  2  0  0  0
  2  9  1  0  0  0
  3  6  2  0  0  0
  3 10  1  0  0  0
 29 28  1  0  0  0
 28 27  1  0  0  0
 31 37  1  0  0  0
 33 35  1  0  0  0
 33 36  1  0  0  0
 32 34  1  0  0  0
 32 36  1  0  0  0
 35 37  1  0  0  0
 34 37  1  0  0  0
  4  9  1  0  0  0
 15 22  1  0  0  0
 15  8  1  0  0  0
 12  6  1  0  0  0
 27  7  1  0  0  0
 19 20  1  0  0  0
 19 24  2  0  0  0
 20 23  2  0  0  0
 21 22  2  0  0  0
 21 24  1  0  0  0
  5  8  2  0  0  0
 22 23  1  0  0  0
  6  7  1  0  0  0
  8 10  1  0  0  0
  9 10  2  0  0  0
 15 16  1  0  0  0
M  END
> <minimizedAffinity>
-8.71590

$$$$
5VC4_XZN_A_601


 37 40  0  0  0  0  0  0  0  0999 V2000
   -0.9023    0.4303   13.3312 C   0  0  0  0  0  0  0  0  0  0  0  0
   -3.6017    2.8226   13.6606 C   0  0  0  0  0  0  0  0  0  0  0  0
   -3.0035    3.1799   10.9330 C   0  0  0  0  0  0  0  0  0  0  0  0
   -1.8999    1.1919   13.8196 N   0  0  0  0  0  0  0  0  0  0  0  0
   -0.5185    0.5293   11.9799 C   0  0  0  0  0  0  0  0  0  0  0  0
   -4.0309    3.9341   11.5378 C   0  0  0  0  0  0  0  0  0  0  0  0
   -4.3331    3.7556   12.9067 C   0  0  0  0  0  0  0  0  0  0  0  0
   -1.2068    1.4466   11.1140 C   0  0  0  0  0  0  0  0  0  0  0  0
   -2.5780    2.0761   13.0552 C   0  0  0  0  0  0  0  0  0  0  0  0
   -2.2527    2.2361   11.6776 C   0  0  0  0  0  0  0  0  0  0  0  0
   -4.0405    5.1941    9.5825 C   0  0  0  0  0  0  0  0  0  0  0  0
   -4.7372    4.8343   10.7893 O   0  0  0  0  0  0  0  0  0  0  0  0
    1.3189   -0.9540   11.3079 N   0  0  0  0  0  0  0  0  0  0  0  0
    0.4635   -0.2550   11.6199 C   0  0  0  0  0  0  0  0  0  0  0  0
   -0.8663    1.5843    9.7802 N   0  0  0  0  0  0  0  0  0  0  0  0
   -1.4280    1.0494    9.1739 H   0  0  0  0  0  0  0  0  0  0  0  0
    0.5210    6.2139    8.3172 Cl  0  0  0  0  0  0  0  0  0  0  0  0
    3.5800    1.8669    7.2090 Cl  0  0  0  0  0  0  0  0  0  0  0  0
    1.9945    3.9914    7.8024 C   0  0  0  0  0  0  0  0  0  0  0  0
    0.8349    4.5483    8.3839 C   0  0  0  0  0  0  0  0  0  0  0  0
    1.2669    1.7745    8.5446 C   0  0  0  0  0  0  0  0  0  0  0  0
    0.0998    2.3187    9.1297 C   0  0  0  0  0  0  0  0  0  0  0  0
   -0.0892    3.7167    9.0441 C   0  0  0  0  0  0  0  0  0  0  0  0
    2.2062    2.5944    7.8877 C   0  0  0  0  0  0  0  0  0  0  0  0
    2.9109    4.7876    7.1603 O   0  0  0  0  0  0  0  0  0  0  0  0
    3.9946    5.2269    8.0081 C   0  0  0  0  0  0  0  0  0  0  0  0
   -5.3333    4.4786   13.5023 O   0  0  0  0  0  0  0  0  0  0  0  0
   -4.8932    5.6574   14.2103 C   0  0  0  0  0  0  0  0  0  0  0  0
   -5.3033    6.9332   13.4341 C   0  0  0  0  0  0  0  0  0  0  0  0
   -6.7487    6.8627   12.8694 C   0  0  0  0  0  0  0  0  0  0  0  0
   -6.4570   11.0237   10.6957 C   0  0  0  0  0  0  0  0  0  0  0  0
   -8.0294    8.5863   11.5619 C   0  0  0  0  0  0  0  0  0  0  0  0
   -5.6306    8.1428   11.0587 C   0  0  0  0  0  0  0  0  0  0  0  0
   -8.1643    9.2988   10.1938 C   0  0  0  0  0  0  0  0  0  0  0  0
   -5.8001    8.8521    9.6960 C   0  0  0  0  0  0  0  0  0  0  0  0
   -6.9246    7.5743   11.5606 N   0  0  0  0  0  0  0  0  0  0  0  0
   -6.8559    9.8984    9.8092 N   0  0  0  0  0  0  0  0  0  0  0  0
 11 12  1  0  0  0
 25 19  1  0  0  0
 25 26  1  0  0  0
 30 29  1  0  0  0
 30 36  1  0  0  0
 13 14  3  0  0  0
 17 20  1  0  0  0
 18 24  1  0  0  0
 14  5  1  0  0  0
  1  4  2  0  0  0
  1  5  1  0  0  0
  2  7  2  0  0  0
  2  9  1  0  0  0
  3  6  2  0  0  0
  3 10  1  0  0  0
 29 28  1  0  0  0
 28 27  1  0  0  0
 31 37  1  0  0  0
 33 35  1  0  0  0
 33 36  1  0  0  0
 32 34  1  0  0  0
 32 36  1  0  0  0
 35 37  1  0  0  0
 34 37  1  0  0  0
  4  9  1  0  0  0
 15 22  1  0  0  0
 15  8  1  0  0  0
 12  6  1  0  0  0
 27  7  1  0  0  0
 19 20  1  0  0  0
 19 24  2  0  0  0
 20 23  2  0  0  0
 21 22  2  0  0  0
 21 24  1  0  0  0
  5  8  2  0  0  0
 22 23  1  0  0  0
  6  7  1  0  0  0
  8 10  1  0  0  0
  9 10  2  0  0  0
 15 16  1  0  0  0
M  END
> <minimizedAffinity>
-8.69908

$$$$
5VC4_XZN_A_601


 37 40  0  0  0  0  0  0  0  0999 V2000
   -4.6675    3.9820   14.8940 C   0  0  0  0  0  0  0  0  0  0  0  0
   -5.9664    6.8638   13.1258 C   0  0  0  0  0  0  0  0  0  0  0  0
   -4.7921    5.4923   10.9659 C   0  0  0  0  0  0  0  0  0  0  0  0
   -5.2698    5.1482   14.5930 N   0  0  0  0  0  0  0  0  0  0  0  0
   -4.0458    3.2145   13.8901 C   0  0  0  0  0  0  0  0  0  0  0  0
   -5.4447    6.7247   10.7521 C   0  0  0  0  0  0  0  0  0  0  0  0
   -6.0355    7.4142   11.8351 C   0  0  0  0  0  0  0  0  0  0  0  0
   -4.0645    3.6790   12.5304 C   0  0  0  0  0  0  0  0  0  0  0  0
   -5.3133    5.6384   13.3345 C   0  0  0  0  0  0  0  0  0  0  0  0
   -4.7095    4.9226   12.2610 C   0  0  0  0  0  0  0  0  0  0  0  0
   -4.2778    7.8877    9.1100 C   0  0  0  0  0  0  0  0  0  0  0  0
   -5.5082    7.2444    9.4891 O   0  0  0  0  0  0  0  0  0  0  0  0
   -3.0042    1.1244   14.6482 N   0  0  0  0  0  0  0  0  0  0  0  0
   -3.4903    2.1043   14.3001 C   0  0  0  0  0  0  0  0  0  0  0  0
   -3.4657    2.9647   11.5081 N   0  0  0  0  0  0  0  0  0  0  0  0
   -4.0609    2.3000   11.0921 H   0  0  0  0  0  0  0  0  0  0  0  0
    0.8509    0.4135   10.9111 Cl  0  0  0  0  0  0  0  0  0  0  0  0
    0.1903    5.3766    8.8106 Cl  0  0  0  0  0  0  0  0  0  0  0  0
    0.4425    2.8976    9.8922 C   0  0  0  0  0  0  0  0  0  0  0  0
   -0.0719    1.8083   10.6285 C   0  0  0  0  0  0  0  0  0  0  0  0
   -1.6777    4.0791   10.2140 C   0  0  0  0  0  0  0  0  0  0  0  0
   -2.2050    2.9960   10.9553 C   0  0  0  0  0  0  0  0  0  0  0  0
   -1.3816    1.8624   11.1411 C   0  0  0  0  0  0  0  0  0  0  0  0
   -0.3715    4.0372    9.6866 C   0  0  0  0  0  0  0  0  0  0  0  0
    1.7155    2.8604    9.3783 O   0  0  0  0  0  0  0  0  0  0  0  0
    1.7834    2.3475    8.0298 C   0  0  0  0  0  0  0  0  0  0  0  0
   -6.6772    8.6086   11.6373 O   0  0  0  0  0  0  0  0  0  0  0  0
   -8.1013    8.5806   11.8733 C   0  0  0  0  0  0  0  0  0  0  0  0
   -8.4910    9.6461   12.9275 C   0  0  0  0  0  0  0  0  0  0  0  0
   -8.8542   11.0191   12.2983 C   0  0  0  0  0  0  0  0  0  0  0  0
   -7.2315   15.1645   10.7796 C   0  0  0  0  0  0  0  0  0  0  0  0
   -6.8470   12.2224   11.3796 C   0  0  0  0  0  0  0  0  0  0  0  0
   -8.4315   13.3895   12.9065 C   0  0  0  0  0  0  0  0  0  0  0  0
   -5.8026   13.3341   11.6457 C   0  0  0  0  0  0  0  0  0  0  0  0
   -7.3642   14.4785   13.1584 C   0  0  0  0  0  0  0  0  0  0  0  0
   -7.8154   12.0796   12.5139 N   0  0  0  0  0  0  0  0  0  0  0  0
   -6.4997   14.6147   11.9515 N   0  0  0  0  0  0  0  0  0  0  0  0
 11 12  1  0  0  0
 25 19  1  0  0  0
 25 26  1  0  0  0
 30 29  1  0  0  0
 30 36  1  0  0  0
 13 14  3  0  0  0
 17 20  1  0  0  0
 18 24  1  0  0  0
 14  5  1  0  0  0
  1  4  2  0  0  0
  1  5  1  0  0  0
  2  7  2  0  0  0
  2  9  1  0  0  0
  3  6  2  0  0  0
  3 10  1  0  0  0
 29 28  1  0  0  0
 28 27  1  0  0  0
 31 37  1  0  0  0
 33 35  1  0  0  0
 33 36  1  0  0  0
 32 34  1  0  0  0
 32 36  1  0  0  0
 35 37  1  0  0  0
 34 37  1  0  0  0
  4  9  1  0  0  0
 15 22  1  0  0  0
 15  8  1  0  0  0
 12  6  1  0  0  0
 27  7  1  0  0  0
 19 20  1  0  0  0
 19 24  2  0  0  0
 20 23  2  0  0  0
 21 22  2  0  0  0
 21 24  1  0  0  0
  5  8  2  0  0  0
 22 23  1  0  0  0
  6  7  1  0  0  0
  8 10  1  0  0  0
  9 10  2  0  0  0
 15 16  1  0  0  0
M  END
> <minimizedAffinity>
-8.53456

$$$$
5VC4_XZN_A_601


 37 40  0  0  0  0  0  0  0  0999 V2000
   -1.8917    1.6208   14.9295 C   0  0  0  0  0  0  0  0  0  0  0  0
   -4.4463    4.1235   14.3557 C   0  0  0  0  0  0  0  0  0  0  0  0
   -3.8287    3.4787   11.6858 C   0  0  0  0  0  0  0  0  0  0  0  0
   -2.8428    2.5582   15.1038 N   0  0  0  0  0  0  0  0  0  0  0  0
   -1.5031    1.2236   13.6355 C   0  0  0  0  0  0  0  0  0  0  0  0
   -4.8101    4.4513   11.9711 C   0  0  0  0  0  0  0  0  0  0  0  0
   -5.1220    4.7756   13.3107 C   0  0  0  0  0  0  0  0  0  0  0  0
   -2.1366    1.8198   12.4919 C   0  0  0  0  0  0  0  0  0  0  0  0
   -3.4682    3.1581   14.0670 C   0  0  0  0  0  0  0  0  0  0  0  0
   -3.1343    2.8122   12.7260 C   0  0  0  0  0  0  0  0  0  0  0  0
   -4.5594    5.4733    9.8966 C   0  0  0  0  0  0  0  0  0  0  0  0
   -5.4627    5.0732   10.9431 O   0  0  0  0  0  0  0  0  0  0  0  0
    0.2502   -0.4936   13.5616 N   0  0  0  0  0  0  0  0  0  0  0  0
   -0.5687    0.3103   13.5893 C   0  0  0  0  0  0  0  0  0  0  0  0
   -1.7890    1.4673   11.2001 N   0  0  0  0  0  0  0  0  0  0  0  0
   -2.3064    0.7078   10.8472 H   0  0  0  0  0  0  0  0  0  0  0  0
    2.0829    0.2991    8.1765 Cl  0  0  0  0  0  0  0  0  0  0  0  0
    0.2867    5.4039    8.6203 Cl  0  0  0  0  0  0  0  0  0  0  0  0
    1.1262    2.8258    8.4530 C   0  0  0  0  0  0  0  0  0  0  0  0
    1.0304    1.4651    8.8167 C   0  0  0  0  0  0  0  0  0  0  0  0
   -0.7591    3.3244    9.9335 C   0  0  0  0  0  0  0  0  0  0  0  0
   -0.8651    1.9647   10.3085 C   0  0  0  0  0  0  0  0  0  0  0  0
    0.0395    1.0485    9.7256 C   0  0  0  0  0  0  0  0  0  0  0  0
    0.2216    3.7563    9.0183 C   0  0  0  0  0  0  0  0  0  0  0  0
    2.0818    3.2500    7.5625 O   0  0  0  0  0  0  0  0  0  0  0  0
    3.2814    3.7509    8.1919 C   0  0  0  0  0  0  0  0  0  0  0  0
   -6.0779    5.7142   13.5988 O   0  0  0  0  0  0  0  0  0  0  0  0
   -5.8251    7.0272   13.0542 C   0  0  0  0  0  0  0  0  0  0  0  0
   -7.1154    7.6017   12.4191 C   0  0  0  0  0  0  0  0  0  0  0  0
   -6.8516    8.3659   11.0926 C   0  0  0  0  0  0  0  0  0  0  0  0
  -11.1418   10.1988   10.4942 C   0  0  0  0  0  0  0  0  0  0  0  0
   -8.2672    9.8308    9.6194 C   0  0  0  0  0  0  0  0  0  0  0  0
   -8.6061    9.8152   12.0870 C   0  0  0  0  0  0  0  0  0  0  0  0
   -9.0650   11.1553    9.5380 C   0  0  0  0  0  0  0  0  0  0  0  0
   -9.3900   11.1423   11.9734 C   0  0  0  0  0  0  0  0  0  0  0  0
   -7.6295    9.6418   10.9619 N   0  0  0  0  0  0  0  0  0  0  0  0
  -10.0615   11.2096   10.6441 N   0  0  0  0  0  0  0  0  0  0  0  0
 11 12  1  0  0  0
 25 19  1  0  0  0
 25 26  1  0  0  0
 30 29  1  0  0  0
 30 36  1  0  0  0
 13 14  3  0  0  0
 17 20  1  0  0  0
 18 24  1  0  0  0
 14  5  1  0  0  0
  1  4  2  0  0  0
  1  5  1  0  0  0
  2  7  2  0  0  0
  2  9  1  0  0  0
  3  6  2  0  0  0
  3 10  1  0  0  0
 29 28  1  0  0  0
 28 27  1  0  0  0
 31 37  1  0  0  0
 33 35  1  0  0  0
 33 36  1  0  0  0
 32 34  1  0  0  0
 32 36  1  0  0  0
 35 37  1  0  0  0
 34 37  1  0  0  0
  4  9  1  0  0  0
 15 22  1  0  0  0
 15  8  1  0  0  0
 12  6  1  0  0  0
 27  7  1  0  0  0
 19 20  1  0  0  0
 19 24  2  0  0  0
 20 23  2  0  0  0
 21 22  2  0  0  0
 21 24  1  0  0  0
  5  8  2  0  0  0
 22 23  1  0  0  0
  6  7  1  0  0  0
  8 10  1  0  0  0
  9 10  2  0  0  0
 15 16  1  0  0  0
M  END
> <minimizedAffinity>
-8.46915

$$$$
5VC4_XZN_A_601


 37 40  0  0  0  0  0  0  0  0999 V2000
   -4.6071    4.1148   15.0421 C   0  0  0  0  0  0  0  0  0  0  0  0
   -6.0064    6.7141   12.9436 C   0  0  0  0  0  0  0  0  0  0  0  0
   -4.4990    5.3279   11.0119 C   0  0  0  0  0  0  0  0  0  0  0  0
   -5.2895    5.1873   14.5976 N   0  0  0  0  0  0  0  0  0  0  0  0
   -3.8185    3.3496   14.1613 C   0  0  0  0  0  0  0  0  0  0  0  0
   -5.2462    6.4668   10.6443 C   0  0  0  0  0  0  0  0  0  0  0  0
   -6.0041    7.1634   11.6125 C   0  0  0  0  0  0  0  0  0  0  0  0
   -3.7511    3.7142   12.7730 C   0  0  0  0  0  0  0  0  0  0  0  0
   -5.2589    5.5818   13.3056 C   0  0  0  0  0  0  0  0  0  0  0  0
   -4.4864    4.8611   12.3500 C   0  0  0  0  0  0  0  0  0  0  0  0
   -3.9011    6.9954    8.8216 C   0  0  0  0  0  0  0  0  0  0  0  0
   -5.2380    6.8882    9.3436 O   0  0  0  0  0  0  0  0  0  0  0  0
   -2.6625    1.4452   15.1935 N   0  0  0  0  0  0  0  0  0  0  0  0
   -3.1987    2.3352   14.7055 C   0  0  0  0  0  0  0  0  0  0  0  0
   -2.9887    2.9979   11.8677 N   0  0  0  0  0  0  0  0  0  0  0  0
   -2.6559    3.5415   11.1174 H   0  0  0  0  0  0  0  0  0  0  0  0
    0.7978   -0.1507   10.7516 Cl  0  0  0  0  0  0  0  0  0  0  0  0
   -4.0171   -2.0099   12.4376 Cl  0  0  0  0  0  0  0  0  0  0  0  0
   -1.6377   -1.0012   11.6006 C   0  0  0  0  0  0  0  0  0  0  0  0
   -0.7983    0.0861   11.2744 C   0  0  0  0  0  0  0  0  0  0  0  0
   -3.4310    0.5794   12.1302 C   0  0  0  0  0  0  0  0  0  0  0  0
   -2.6017    1.6781   11.8046 C   0  0  0  0  0  0  0  0  0  0  0  0
   -1.2797    1.4040   11.3867 C   0  0  0  0  0  0  0  0  0  0  0  0
   -2.9616   -0.7457   12.0316 C   0  0  0  0  0  0  0  0  0  0  0  0
   -1.1836   -2.2937   11.5040 O   0  0  0  0  0  0  0  0  0  0  0  0
   -0.4343   -2.7345   12.6574 C   0  0  0  0  0  0  0  0  0  0  0  0
   -6.7383    8.2669   11.2647 O   0  0  0  0  0  0  0  0  0  0  0  0
   -7.9024    8.5063   12.0844 C   0  0  0  0  0  0  0  0  0  0  0  0
   -8.7886    9.6059   11.4489 C   0  0  0  0  0  0  0  0  0  0  0  0
   -9.0575   10.7988   12.4069 C   0  0  0  0  0  0  0  0  0  0  0  0
   -7.3828   14.7734   10.5303 C   0  0  0  0  0  0  0  0  0  0  0  0
   -7.1019   11.8386   11.2174 C   0  0  0  0  0  0  0  0  0  0  0  0
   -8.4336   13.1603   12.8558 C   0  0  0  0  0  0  0  0  0  0  0  0
   -5.9722   12.8929   11.3151 C   0  0  0  0  0  0  0  0  0  0  0  0
   -7.2839   14.1899   12.9380 C   0  0  0  0  0  0  0  0  0  0  0  0
   -7.9420   11.8004   12.4574 N   0  0  0  0  0  0  0  0  0  0  0  0
   -6.5556   14.2252   11.6377 N   0  0  0  0  0  0  0  0  0  0  0  0
 11 12  1  0  0  0
 25 19  1  0  0  0
 25 26  1  0  0  0
 30 29  1  0  0  0
 30 36  1  0  0  0
 13 14  3  0  0  0
 17 20  1  0  0  0
 18 24  1  0  0  0
 14  5  1  0  0  0
  1  4  2  0  0  0
  1  5  1  0  0  0
  2  7  2  0  0  0
  2  9  1  0  0  0
  3  6  2  0  0  0
  3 10  1  0  0  0
 29 28  1  0  0  0
 28 27  1  0  0  0
 31 37  1  0  0  0
 33 35  1  0  0  0
 33 36  1  0  0  0
 32 34  1  0  0  0
 32 36  1  0  0  0
 35 37  1  0  0  0
 34 37  1  0  0  0
  4  9  1  0  0  0
 15 22  1  0  0  0
 15  8  1  0  0  0
 12  6  1  0  0  0
 27  7  1  0  0  0
 19 20  1  0  0  0
 19 24  2  0  0  0
 20 23  2  0  0  0
 21 22  2  0  0  0
 21 24  1  0  0  0
  5  8  2  0  0  0
 22 23  1  0  0  0
  6  7  1  0  0  0
  8 10  1  0  0  0
  9 10  2  0  0  0
 15 16  1  0  0  0
M  END
> <minimizedAffinity>
-8.27534

$$$$
5VC4_XZN_A_601


 37 40  0  0  0  0  0  0  0  0999 V2000
   -4.6025    3.8616   14.8990 C   0  0  0  0  0  0  0  0  0  0  0  0
   -6.0048    6.7686   13.2555 C   0  0  0  0  0  0  0  0  0  0  0  0
   -4.8700    5.4831   11.0228 C   0  0  0  0  0  0  0  0  0  0  0  0
   -5.2345    5.0245   14.6503 N   0  0  0  0  0  0  0  0  0  0  0  0
   -3.9969    3.1356   13.8553 C   0  0  0  0  0  0  0  0  0  0  0  0
   -5.5508    6.7086   10.8646 C   0  0  0  0  0  0  0  0  0  0  0  0
   -6.1218    7.3549   11.9842 C   0  0  0  0  0  0  0  0  0  0  0  0
   -4.0640    3.6391   12.5111 C   0  0  0  0  0  0  0  0  0  0  0  0
   -5.3238    5.5502   13.4087 C   0  0  0  0  0  0  0  0  0  0  0  0
   -4.7390    4.8775   12.2974 C   0  0  0  0  0  0  0  0  0  0  0  0
   -4.4550    7.9433    9.2259 C   0  0  0  0  0  0  0  0  0  0  0  0
   -5.6608    7.2636    9.6199 O   0  0  0  0  0  0  0  0  0  0  0  0
   -2.9058    1.0438   14.5351 N   0  0  0  0  0  0  0  0  0  0  0  0
   -3.4097    2.0246   14.2160 C   0  0  0  0  0  0  0  0  0  0  0  0
   -3.4828    2.9662   11.4512 N   0  0  0  0  0  0  0  0  0  0  0  0
   -4.1189    2.4179   10.9375 H   0  0  0  0  0  0  0  0  0  0  0  0
    0.1220    5.4923    8.9769 Cl  0  0  0  0  0  0  0  0  0  0  0  0
    0.9346    0.4253   10.7509 Cl  0  0  0  0  0  0  0  0  0  0  0  0
    0.4504    2.9577    9.8956 C   0  0  0  0  0  0  0  0  0  0  0  0
   -0.3930    4.0826    9.7672 C   0  0  0  0  0  0  0  0  0  0  0  0
   -1.3376    1.7900   11.0931 C   0  0  0  0  0  0  0  0  0  0  0  0
   -2.1940    2.9090   10.9700 C   0  0  0  0  0  0  0  0  0  0  0  0
   -1.6921    4.0524   10.3081 C   0  0  0  0  0  0  0  0  0  0  0  0
   -0.0312    1.8072   10.5650 C   0  0  0  0  0  0  0  0  0  0  0  0
    1.7234    2.9709    9.3805 O   0  0  0  0  0  0  0  0  0  0  0  0
    1.7944    2.5679    7.9953 C   0  0  0  0  0  0  0  0  0  0  0  0
   -6.7905    8.5423   11.8405 O   0  0  0  0  0  0  0  0  0  0  0  0
   -8.2224    8.4210   11.7002 C   0  0  0  0  0  0  0  0  0  0  0  0
   -8.7333    9.3639   10.5829 C   0  0  0  0  0  0  0  0  0  0  0  0
   -9.7605   10.4111   11.0940 C   0  0  0  0  0  0  0  0  0  0  0  0
   -5.7771   12.9074   11.2500 C   0  0  0  0  0  0  0  0  0  0  0  0
   -8.3323   11.9043   12.5261 C   0  0  0  0  0  0  0  0  0  0  0  0
   -8.4825   12.2769   10.0679 C   0  0  0  0  0  0  0  0  0  0  0  0
   -7.7515   13.3306   12.6869 C   0  0  0  0  0  0  0  0  0  0  0  0
   -7.9093   13.6989   10.2628 C   0  0  0  0  0  0  0  0  0  0  0  0
   -9.1817   11.7799   11.2982 N   0  0  0  0  0  0  0  0  0  0  0  0
   -7.0106   13.7128   11.4523 N   0  0  0  0  0  0  0  0  0  0  0  0
 11 12  1  0  0  0
 25 19  1  0  0  0
 25 26  1  0  0  0
 30 29  1  0  0  0
 30 36  1  0  0  0
 13 14  3  0  0  0
 17 20  1  0  0  0
 18 24  1  0  0  0
 14  5  1  0  0  0
  1  4  2  0  0  0
  1  5  1  0  0  0
  2  7  2  0  0  0
  2  9  1  0  0  0
  3  6  2  0  0  0
  3 10  1  0  0  0
 29 28  1  0  0  0
 28 27  1  0  0  0
 31 37  1  0  0  0
 33 35  1  0  0  0
 33 36  1  0  0  0
 32 34  1  0  0  0
 32 36  1  0  0  0
 35 37  1  0  0  0
 34 37  1  0  0  0
  4  9  1  0  0  0
 15 22  1  0  0  0
 15  8  1  0  0  0
 12  6  1  0  0  0
 27  7  1  0  0  0
 19 20  1  0  0  0
 19 24  2  0  0  0
 20 23  2  0  0  0
 21 22  2  0  0  0
 21 24  1  0  0  0
  5  8  2  0  0  0
 22 23  1  0  0  0
  6  7  1  0  0  0
  8 10  1  0  0  0
  9 10  2  0  0  0
 15 16  1  0  0  0
M  END
> <minimizedAffinity>
-8.24206

$$$$
5VC4_XZN_A_601


 37 40  0  0  0  0  0  0  0  0999 V2000
   -5.5534    7.0016   12.5000 C   0  0  0  0  0  0  0  0  0  0  0  0
   -3.5768    7.8775    9.5941 C   0  0  0  0  0  0  0  0  0  0  0  0
   -3.0392    5.1161    9.6983 C   0  0  0  0  0  0  0  0  0  0  0  0
   -4.9576    7.6799   11.5007 N   0  0  0  0  0  0  0  0  0  0  0  0
   -5.3519    5.6156   12.6475 C   0  0  0  0  0  0  0  0  0  0  0  0
   -2.4591    5.9134    8.6892 C   0  0  0  0  0  0  0  0  0  0  0  0
   -2.7285    7.2996    8.6349 C   0  0  0  0  0  0  0  0  0  0  0  0
   -4.5089    4.9197   11.7148 C   0  0  0  0  0  0  0  0  0  0  0  0
   -4.1497    7.0806   10.5984 C   0  0  0  0  0  0  0  0  0  0  0  0
   -3.8951    5.6812   10.6764 C   0  0  0  0  0  0  0  0  0  0  0  0
   -0.7593    4.3620    8.3504 C   0  0  0  0  0  0  0  0  0  0  0  0
   -1.6400    5.3350    7.7597 O   0  0  0  0  0  0  0  0  0  0  0  0
   -6.5155    4.5838   14.5474 N   0  0  0  0  0  0  0  0  0  0  0  0
   -5.9770    5.0651   13.6551 C   0  0  0  0  0  0  0  0  0  0  0  0
   -4.2759    3.5599   11.8175 N   0  0  0  0  0  0  0  0  0  0  0  0
   -5.0657    3.0092   11.6121 H   0  0  0  0  0  0  0  0  0  0  0  0
   -0.3702    0.9264    9.9986 Cl  0  0  0  0  0  0  0  0  0  0  0  0
   -1.1523    1.4909   15.3420 Cl  0  0  0  0  0  0  0  0  0  0  0  0
   -0.8299    1.2549   12.6551 C   0  0  0  0  0  0  0  0  0  0  0  0
   -1.2372    1.5210   11.3298 C   0  0  0  0  0  0  0  0  0  0  0  0
   -2.7412    2.5490   13.4717 C   0  0  0  0  0  0  0  0  0  0  0  0
   -3.1620    2.8216   12.1490 C   0  0  0  0  0  0  0  0  0  0  0  0
   -2.3834    2.3019   11.0902 C   0  0  0  0  0  0  0  0  0  0  0  0
   -1.5911    1.7762   13.7286 C   0  0  0  0  0  0  0  0  0  0  0  0
    0.2895    0.5008   12.9086 O   0  0  0  0  0  0  0  0  0  0  0  0
    0.0412   -0.9219   12.9230 C   0  0  0  0  0  0  0  0  0  0  0  0
   -2.1752    8.0817    7.6552 O   0  0  0  0  0  0  0  0  0  0  0  0
   -3.0522    8.3812    6.5480 C   0  0  0  0  0  0  0  0  0  0  0  0
   -2.4410    7.8600    5.2239 C   0  0  0  0  0  0  0  0  0  0  0  0
   -1.4021    8.8370    4.6081 C   0  0  0  0  0  0  0  0  0  0  0  0
    1.4041    7.2839    8.0486 C   0  0  0  0  0  0  0  0  0  0  0  0
    0.5638    9.4116    6.0660 C   0  0  0  0  0  0  0  0  0  0  0  0
    0.2107    7.0733    5.2836 C   0  0  0  0  0  0  0  0  0  0  0  0
    2.0260    9.0497    6.4247 C   0  0  0  0  0  0  0  0  0  0  0  0
    1.6776    6.7464    5.6438 C   0  0  0  0  0  0  0  0  0  0  0  0
    0.0173    8.5304    4.9846 N   0  0  0  0  0  0  0  0  0  0  0  0
    2.1126    7.6060    6.7815 N   0  0  0  0  0  0  0  0  0  0  0  0
 11 12  1  0  0  0
 25 19  1  0  0  0
 25 26  1  0  0  0
 30 29  1  0  0  0
 30 36  1  0  0  0
 13 14  3  0  0  0
 17 20  1  0  0  0
 18 24  1  0  0  0
 14  5  1  0  0  0
  1  4  2  0  0  0
  1  5  1  0  0  0
  2  7  2  0  0  0
  2  9  1  0  0  0
  3  6  2  0  0  0
  3 10  1  0  0  0
 29 28  1  0  0  0
 28 27  1  0  0  0
 31 37  1  0  0  0
 33 35  1  0  0  0
 33 36  1  0  0  0
 32 34  1  0  0  0
 32 36  1  0  0  0
 35 37  1  0  0  0
 34 37  1  0  0  0
  4  9  1  0  0  0
 15 22  1  0  0  0
 15  8  1  0  0  0
 12  6  1  0  0  0
 27  7  1  0  0  0
 19 20  1  0  0  0
 19 24  2  0  0  0
 20 23  2  0  0  0
 21 22  2  0  0  0
 21 24  1  0  0  0
  5  8  2  0  0  0
 22 23  1  0  0  0
  6  7  1  0  0  0
  8 10  1  0  0  0
  9 10  2  0  0  0
 15 16  1  0  0  0
M  END
> <minimizedAffinity>
-8.09067

$$$$
5VC4_XZN_A_601


 37 40  0  0  0  0  0  0  0  0999 V2000
    1.8786    3.8161    8.4567 C   0  0  0  0  0  0  0  0  0  0  0  0
    0.9865    7.3259    8.3926 C   0  0  0  0  0  0  0  0  0  0  0  0
   -1.4720    6.2437    9.2355 C   0  0  0  0  0  0  0  0  0  0  0  0
    1.9157    5.1551    8.3185 N   0  0  0  0  0  0  0  0  0  0  0  0
    0.6983    3.1691    8.8712 C   0  0  0  0  0  0  0  0  0  0  0  0
   -1.3342    7.6366    9.0590 C   0  0  0  0  0  0  0  0  0  0  0  0
   -0.1006    8.1817    8.6367 C   0  0  0  0  0  0  0  0  0  0  0  0
   -0.4735    3.9498    9.1577 C   0  0  0  0  0  0  0  0  0  0  0  0
    0.8439    5.9398    8.5668 C   0  0  0  0  0  0  0  0  0  0  0  0
   -0.3879    5.3640    8.9916 C   0  0  0  0  0  0  0  0  0  0  0  0
   -3.1490    8.0326   10.4592 C   0  0  0  0  0  0  0  0  0  0  0  0
   -2.3999    8.4568    9.3059 O   0  0  0  0  0  0  0  0  0  0  0  0
    0.8421    0.7239    9.0389 N   0  0  0  0  0  0  0  0  0  0  0  0
    0.7792    1.8677    8.9659 C   0  0  0  0  0  0  0  0  0  0  0  0
   -1.6584    3.3629    9.5646 N   0  0  0  0  0  0  0  0  0  0  0  0
   -2.2155    3.0436    8.8184 H   0  0  0  0  0  0  0  0  0  0  0  0
   -5.4812    4.5210   12.6539 Cl  0  0  0  0  0  0  0  0  0  0  0  0
   -1.5892    1.0460   14.1568 Cl  0  0  0  0  0  0  0  0  0  0  0  0
   -3.4977    2.7937   13.3307 C   0  0  0  0  0  0  0  0  0  0  0  0
   -4.0507    3.6579   12.3609 C   0  0  0  0  0  0  0  0  0  0  0  0
   -1.6738    2.2711   11.7831 C   0  0  0  0  0  0  0  0  0  0  0  0
   -2.2155    3.1353   10.8031 C   0  0  0  0  0  0  0  0  0  0  0  0
   -3.4161    3.8131   11.1141 C   0  0  0  0  0  0  0  0  0  0  0  0
   -2.3014    2.0980   13.0329 C   0  0  0  0  0  0  0  0  0  0  0  0
   -4.1062    2.6241   14.5501 O   0  0  0  0  0  0  0  0  0  0  0  0
   -3.6316    3.5323   15.5680 C   0  0  0  0  0  0  0  0  0  0  0  0
    0.0456    9.5337    8.4683 O   0  0  0  0  0  0  0  0  0  0  0  0
    1.3006    9.9417    7.8824 C   0  0  0  0  0  0  0  0  0  0  0  0
    1.0576   10.6128    6.5080 C   0  0  0  0  0  0  0  0  0  0  0  0
    1.0582    9.6013    5.3292 C   0  0  0  0  0  0  0  0  0  0  0  0
   -3.5636    9.3374    6.1617 C   0  0  0  0  0  0  0  0  0  0  0  0
   -0.9804    8.1436    5.1295 C   0  0  0  0  0  0  0  0  0  0  0  0
   -1.1597   10.6127    4.8544 C   0  0  0  0  0  0  0  0  0  0  0  0
   -2.3683    7.9881    4.4609 C   0  0  0  0  0  0  0  0  0  0  0  0
   -2.5386   10.4233    4.1825 C   0  0  0  0  0  0  0  0  0  0  0  0
   -0.2888    9.4013    4.7000 N   0  0  0  0  0  0  0  0  0  0  0  0
   -3.1926    9.1998    4.7283 N   0  0  0  0  0  0  0  0  0  0  0  0
 11 12  1  0  0  0
 25 19  1  0  0  0
 25 26  1  0  0  0
 30 29  1  0  0  0
 30 36  1  0  0  0
 13 14  3  0  0  0
 17 20  1  0  0  0
 18 24  1  0  0  0
 14  5  1  0  0  0
  1  4  2  0  0  0
  1  5  1  0  0  0
  2  7  2  0  0  0
  2  9  1  0  0  0
  3  6  2  0  0  0
  3 10  1  0  0  0
 29 28  1  0  0  0
 28 27  1  0  0  0
 31 37  1  0  0  0
 33 35  1  0  0  0
 33 36  1  0  0  0
 32 34  1  0  0  0
 32 36  1  0  0  0
 35 37  1  0  0  0
 34 37  1  0  0  0
  4  9  1  0  0  0
 15 22  1  0  0  0
 15  8  1  0  0  0
 12  6  1  0  0  0
 27  7  1  0  0  0
 19 20  1  0  0  0
 19 24  2  0  0  0
 20 23  2  0  0  0
 21 22  2  0  0  0
 21 24  1  0  0  0
  5  8  2  0  0  0
 22 23  1  0  0  0
  6  7  1  0  0  0
  8 10  1  0  0  0
  9 10  2  0  0  0
 15 16  1  0  0  0
M  END
> <minimizedAffinity>
-8.02170

$$$$
5VC4_XZN_A_601


 37 40  0  0  0  0  0  0  0  0999 V2000
   -4.6509    8.4435   10.7970 C   0  0  0  0  0  0  0  0  0  0  0  0
   -1.7183    7.8204    8.7647 C   0  0  0  0  0  0  0  0  0  0  0  0
   -2.3153    5.1777    9.5296 C   0  0  0  0  0  0  0  0  0  0  0  0
   -3.5744    8.5972   10.0025 N   0  0  0  0  0  0  0  0  0  0  0  0
   -5.0390    7.1647   11.2412 C   0  0  0  0  0  0  0  0  0  0  0  0
   -1.2050    5.4417    8.7002 C   0  0  0  0  0  0  0  0  0  0  0  0
   -0.9042    6.7676    8.3146 C   0  0  0  0  0  0  0  0  0  0  0  0
   -4.2819    6.0136   10.8331 C   0  0  0  0  0  0  0  0  0  0  0  0
   -2.8208    7.5533    9.5924 C   0  0  0  0  0  0  0  0  0  0  0  0
   -3.1465    6.2266    9.9961 C   0  0  0  0  0  0  0  0  0  0  0  0
   -0.6044    3.2250    9.0695 C   0  0  0  0  0  0  0  0  0  0  0  0
   -0.4256    4.4056    8.2661 O   0  0  0  0  0  0  0  0  0  0  0  0
   -7.0246    7.1280   12.6848 N   0  0  0  0  0  0  0  0  0  0  0  0
   -6.0958    7.1382   12.0105 C   0  0  0  0  0  0  0  0  0  0  0  0
   -4.6191    4.7364   11.2443 N   0  0  0  0  0  0  0  0  0  0  0  0
   -5.4159    4.3756   10.7925 H   0  0  0  0  0  0  0  0  0  0  0  0
   -2.0998    0.3989   11.8248 Cl  0  0  0  0  0  0  0  0  0  0  0  0
   -3.5839    3.3969   16.1017 Cl  0  0  0  0  0  0  0  0  0  0  0  0
   -2.8767    1.9542   13.9114 C   0  0  0  0  0  0  0  0  0  0  0  0
   -2.8400    1.7610   12.5133 C   0  0  0  0  0  0  0  0  0  0  0  0
   -4.0924    4.0503   13.5607 C   0  0  0  0  0  0  0  0  0  0  0  0
   -4.0649    3.8684   12.1582 C   0  0  0  0  0  0  0  0  0  0  0  0
   -3.4208    2.7148   11.6565 C   0  0  0  0  0  0  0  0  0  0  0  0
   -3.5080    3.1093   14.4318 C   0  0  0  0  0  0  0  0  0  0  0  0
   -2.3094    1.0382   14.7629 O   0  0  0  0  0  0  0  0  0  0  0  0
   -0.9186    1.2979   15.0534 C   0  0  0  0  0  0  0  0  0  0  0  0
    0.1681    7.0341    7.5043 O   0  0  0  0  0  0  0  0  0  0  0  0
   -0.1082    6.9700    6.0886 C   0  0  0  0  0  0  0  0  0  0  0  0
    0.5505    8.1668    5.3591 C   0  0  0  0  0  0  0  0  0  0  0  0
   -0.3880    8.8344    4.3168 C   0  0  0  0  0  0  0  0  0  0  0  0
   -4.4621   11.1674    4.0298 C   0  0  0  0  0  0  0  0  0  0  0  0
   -2.2257    9.9207    5.6447 C   0  0  0  0  0  0  0  0  0  0  0  0
   -2.7340    8.7478    3.5069 C   0  0  0  0  0  0  0  0  0  0  0  0
   -3.7298    9.8674    6.0087 C   0  0  0  0  0  0  0  0  0  0  0  0
   -4.2272    8.7025    3.9034 C   0  0  0  0  0  0  0  0  0  0  0  0
   -1.8365    8.8193    4.7065 N   0  0  0  0  0  0  0  0  0  0  0  0
   -4.5479    9.8770    4.7638 N   0  0  0  0  0  0  0  0  0  0  0  0
 11 12  1  0  0  0
 25 19  1  0  0  0
 25 26  1  0  0  0
 30 29  1  0  0  0
 30 36  1  0  0  0
 13 14  3  0  0  0
 17 20  1  0  0  0
 18 24  1  0  0  0
 14  5  1  0  0  0
  1  4  2  0  0  0
  1  5  1  0  0  0
  2  7  2  0  0  0
  2  9  1  0  0  0
  3  6  2  0  0  0
  3 10  1  0  0  0
 29 28  1  0  0  0
 28 27  1  0  0  0
 31 37  1  0  0  0
 33 35  1  0  0  0
 33 36  1  0  0  0
 32 34  1  0  0  0
 32 36  1  0  0  0
 35 37  1  0  0  0
 34 37  1  0  0  0
  4  9  1  0  0  0
 15 22  1  0  0  0
 15  8  1  0  0  0
 12  6  1  0  0  0
 27  7  1  0  0  0
 19 20  1  0  0  0
 19 24  2  0  0  0
 20 23  2  0  0  0
 21 22  2  0  0  0
 21 24  1  0  0  0
  5  8  2  0  0  0
 22 23  1  0  0  0
  6  7  1  0  0  0
  8 10  1  0  0  0
  9 10  2  0  0  0
 15 16  1  0  0  0
M  END
> <minimizedAffinity>
-8.01102

$$$$
5VC4_XZN_A_601


 37 40  0  0  0  0  0  0  0  0999 V2000
   -4.5340    8.3993   10.8959 C   0  0  0  0  0  0  0  0  0  0  0  0
   -1.5643    7.9227    8.8779 C   0  0  0  0  0  0  0  0  0  0  0  0
   -2.1507    5.2341    9.4721 C   0  0  0  0  0  0  0  0  0  0  0  0
   -3.4464    8.6091   10.1299 N   0  0  0  0  0  0  0  0  0  0  0  0
   -4.9181    7.0931   11.2558 C   0  0  0  0  0  0  0  0  0  0  0  0
   -1.0297    5.5562    8.6785 C   0  0  0  0  0  0  0  0  0  0  0  0
   -0.7342    6.9052    8.3785 C   0  0  0  0  0  0  0  0  0  0  0  0
   -4.1447    5.9746   10.7914 C   0  0  0  0  0  0  0  0  0  0  0  0
   -2.6775    7.5976    9.6699 C   0  0  0  0  0  0  0  0  0  0  0  0
   -2.9982    6.2465    9.9874 C   0  0  0  0  0  0  0  0  0  0  0  0
   -0.3206    3.3643    9.0003 C   0  0  0  0  0  0  0  0  0  0  0  0
   -0.2346    4.5542    8.1954 O   0  0  0  0  0  0  0  0  0  0  0  0
   -6.9215    6.9288   12.6656 N   0  0  0  0  0  0  0  0  0  0  0  0
   -5.9866    7.0122   12.0047 C   0  0  0  0  0  0  0  0  0  0  0  0
   -4.4774    4.6724   11.1193 N   0  0  0  0  0  0  0  0  0  0  0  0
   -5.2783    4.3417   10.6518 H   0  0  0  0  0  0  0  0  0  0  0  0
   -3.6504    3.4553   15.9497 Cl  0  0  0  0  0  0  0  0  0  0  0  0
   -1.8656    0.3101   11.8995 Cl  0  0  0  0  0  0  0  0  0  0  0  0
   -2.7913    1.9361   13.8688 C   0  0  0  0  0  0  0  0  0  0  0  0
   -3.4735    3.0938   14.3019 C   0  0  0  0  0  0  0  0  0  0  0  0
   -3.2300    2.5810   11.5479 C   0  0  0  0  0  0  0  0  0  0  0  0
   -3.9142    3.7457   11.9677 C   0  0  0  0  0  0  0  0  0  0  0  0
   -4.0315    3.9755   13.3573 C   0  0  0  0  0  0  0  0  0  0  0  0
   -2.6732    1.6837   12.4810 C   0  0  0  0  0  0  0  0  0  0  0  0
   -2.2462    1.0606   14.7756 O   0  0  0  0  0  0  0  0  0  0  0  0
   -0.8898    1.3834   15.1525 C   0  0  0  0  0  0  0  0  0  0  0  0
    0.3485    7.2284    7.6033 O   0  0  0  0  0  0  0  0  0  0  0  0
    0.2149    8.4543    6.8522 C   0  0  0  0  0  0  0  0  0  0  0  0
    1.1581    9.5402    7.4262 C   0  0  0  0  0  0  0  0  0  0  0  0
    2.2860    9.9487    6.4394 C   0  0  0  0  0  0  0  0  0  0  0  0
    3.7509   14.0576    4.6801 C   0  0  0  0  0  0  0  0  0  0  0  0
    4.2771   11.4518    6.1280 C   0  0  0  0  0  0  0  0  0  0  0  0
    2.0151   12.4158    6.5256 C   0  0  0  0  0  0  0  0  0  0  0  0
    4.9028   12.8204    6.4924 C   0  0  0  0  0  0  0  0  0  0  0  0
    2.6709   13.7663    6.8927 C   0  0  0  0  0  0  0  0  0  0  0  0
    2.9375   11.2588    6.7706 N   0  0  0  0  0  0  0  0  0  0  0  0
    3.9529   13.9145    6.1463 N   0  0  0  0  0  0  0  0  0  0  0  0
 11 12  1  0  0  0
 25 19  1  0  0  0
 25 26  1  0  0  0
 30 29  1  0  0  0
 30 36  1  0  0  0
 13 14  3  0  0  0
 17 20  1  0  0  0
 18 24  1  0  0  0
 14  5  1  0  0  0
  1  4  2  0  0  0
  1  5  1  0  0  0
  2  7  2  0  0  0
  2  9  1  0  0  0
  3  6  2  0  0  0
  3 10  1  0  0  0
 29 28  1  0  0  0
 28 27  1  0  0  0
 31 37  1  0  0  0
 33 35  1  0  0  0
 33 36  1  0  0  0
 32 34  1  0  0  0
 32 36  1  0  0  0
 35 37  1  0  0  0
 34 37  1  0  0  0
  4  9  1  0  0  0
 15 22  1  0  0  0
 15  8  1  0  0  0
 12  6  1  0  0  0
 27  7  1  0  0  0
 19 20  1  0  0  0
 19 24  2  0  0  0
 20 23  2  0  0  0
 21 22  2  0  0  0
 21 24  1  0  0  0
  5  8  2  0  0  0
 22 23  1  0  0  0
  6  7  1  0  0  0
  8 10  1  0  0  0
  9 10  2  0  0  0
 15 16  1  0  0  0
M  END
> <minimizedAffinity>
-7.93553

$$$$
