3SFG_2TU_A_601


 21 22  0  0  0  0  0  0  0  0999 V2000
   45.9965    0.2357   24.5402 C   0  0  0  0  0  0  0  0  0  0  0  0
   47.1237    0.8587   25.3508 C   0  0  0  0  0  0  0  0  0  0  0  0
   48.3694    0.7137   24.6978 O   0  0  0  0  0  0  0  0  0  0  0  0
   46.9903    0.1047   26.6812 C   0  0  0  0  0  0  0  0  0  0  0  0
   47.6434   -1.1593   26.5838 O   0  0  0  0  0  0  0  0  0  0  0  0
   45.4785   -0.1160   26.8024 C   0  0  0  0  0  0  0  0  0  0  0  0
   44.9455   -0.0133   25.4547 O   0  0  0  0  0  0  0  0  0  0  0  0
   48.5336   -0.2256   24.5196 H   0  0  0  0  0  0  0  0  0  0  0  0
   47.2747   -1.6572   25.8374 H   0  0  0  0  0  0  0  0  0  0  0  0
   45.4856    1.0972   23.4768 N   0  0  0  0  0  0  0  0  0  0  0  0
   45.3178    0.4922   22.2284 C   0  0  0  0  0  0  0  0  0  0  0  0
   45.7391   -1.1850   22.0905 S   0  0  0  0  0  0  0  0  0  0  0  0
   44.8322    1.2206   21.1999 N   0  0  0  0  0  0  0  0  0  0  0  0
   44.5180    2.5305   21.3740 C   0  0  0  0  0  0  0  0  0  0  0  0
   44.0756    3.2022   20.4073 O   0  0  0  0  0  0  0  0  0  0  0  0
   44.6869    3.1329   22.6245 C   0  0  0  0  0  0  0  0  0  0  0  0
   45.1786    2.3824   23.6854 C   0  0  0  0  0  0  0  0  0  0  0  0
   44.7053    0.7997   20.3190 H   0  0  0  0  0  0  0  0  0  0  0  0
   44.7465    0.8593   27.7010 C   0  0  0  0  0  0  0  0  0  0  0  0
   44.8378    2.1985   27.2157 O   0  0  0  0  0  0  0  0  0  0  0  0
   45.7686    2.4704   27.1900 H   0  0  0  0  0  0  0  0  0  0  0  0
 10 11  1  0  0  0
 10 17  1  0  0  0
 10  1  1  0  0  0
 11 12  2  0  0  0
 11 13  1  0  0  0
 13 14  1  0  0  0
 14 15  2  0  0  0
 14 16  1  0  0  0
 16 17  2  0  0  0
  1  2  1  0  0  0
  1  7  1  0  0  0
  2  3  1  0  0  0
  2  4  1  0  0  0
  4  5  1  0  0  0
  4  6  1  0  0  0
  6  7  1  0  0  0
  6 19  1  0  0  0
 19 20  1  0  0  0
 13 18  1  0  0  0
  3  8  1  0  0  0
  5  9  1  0  0  0
 20 21  1  0  0  0
M  END
> <minimizedAffinity>
-5.99269

$$$$
3SFG_2TU_A_601


 21 22  0  0  0  0  0  0  0  0999 V2000
   44.5942    4.4988   21.5800 C   0  0  0  0  0  0  0  0  0  0  0  0
   45.3332    5.5094   20.7148 C   0  0  0  0  0  0  0  0  0  0  0  0
   46.6864    5.6313   21.1063 O   0  0  0  0  0  0  0  0  0  0  0  0
   44.4763    6.7661   20.9211 C   0  0  0  0  0  0  0  0  0  0  0  0
   44.8499    7.4068   22.1391 O   0  0  0  0  0  0  0  0  0  0  0  0
   43.0599    6.1982   21.0629 C   0  0  0  0  0  0  0  0  0  0  0  0
   43.2188    4.8097   21.4599 O   0  0  0  0  0  0  0  0  0  0  0  0
   46.7311    5.8649   22.0467 H   0  0  0  0  0  0  0  0  0  0  0  0
   44.7681    6.7783   22.8734 H   0  0  0  0  0  0  0  0  0  0  0  0
   44.7892    3.1111   21.1672 N   0  0  0  0  0  0  0  0  0  0  0  0
   45.2616    2.2413   22.1536 C   0  0  0  0  0  0  0  0  0  0  0  0
   45.5642    2.9065   23.7269 S   0  0  0  0  0  0  0  0  0  0  0  0
   45.4494    0.9382   21.8521 N   0  0  0  0  0  0  0  0  0  0  0  0
   45.1905    0.4786   20.6004 C   0  0  0  0  0  0  0  0  0  0  0  0
   45.3780   -0.7346   20.3276 O   0  0  0  0  0  0  0  0  0  0  0  0
   44.7178    1.3515   19.6157 C   0  0  0  0  0  0  0  0  0  0  0  0
   44.5163    2.6905   19.9270 C   0  0  0  0  0  0  0  0  0  0  0  0
   45.7759    0.3180   22.5434 H   0  0  0  0  0  0  0  0  0  0  0  0
   42.2030    6.2625   19.8154 C   0  0  0  0  0  0  0  0  0  0  0  0
   40.9241    5.6622   20.0191 O   0  0  0  0  0  0  0  0  0  0  0  0
   41.0387    4.7256   20.2442 H   0  0  0  0  0  0  0  0  0  0  0  0
 10 11  1  0  0  0
 10 17  1  0  0  0
 10  1  1  0  0  0
 11 12  2  0  0  0
 11 13  1  0  0  0
 13 14  1  0  0  0
 14 15  2  0  0  0
 14 16  1  0  0  0
 16 17  2  0  0  0
  1  2  1  0  0  0
  1  7  1  0  0  0
  2  3  1  0  0  0
  2  4  1  0  0  0
  4  5  1  0  0  0
  4  6  1  0  0  0
  6  7  1  0  0  0
  6 19  1  0  0  0
 19 20  1  0  0  0
 13 18  1  0  0  0
  3  8  1  0  0  0
  5  9  1  0  0  0
 20 21  1  0  0  0
M  END
> <minimizedAffinity>
-5.88730

$$$$
3SFG_2TU_A_601


 21 22  0  0  0  0  0  0  0  0999 V2000
   44.9030    1.1330   22.1101 C   0  0  0  0  0  0  0  0  0  0  0  0
   43.7076    0.5364   22.8388 C   0  0  0  0  0  0  0  0  0  0  0  0
   42.6831    0.1710   21.9354 O   0  0  0  0  0  0  0  0  0  0  0  0
   43.3504    1.6702   23.8098 C   0  0  0  0  0  0  0  0  0  0  0  0
   42.5606    2.6479   23.1360 O   0  0  0  0  0  0  0  0  0  0  0  0
   44.7168    2.2737   24.1531 C   0  0  0  0  0  0  0  0  0  0  0  0
   45.6095    1.8946   23.0713 O   0  0  0  0  0  0  0  0  0  0  0  0
   42.4301    0.9423   21.4044 H   0  0  0  0  0  0  0  0  0  0  0  0
   43.0384    2.9667   22.3543 H   0  0  0  0  0  0  0  0  0  0  0  0
   45.8148    0.1365   21.5534 N   0  0  0  0  0  0  0  0  0  0  0  0
   46.1144    0.2743   20.1954 C   0  0  0  0  0  0  0  0  0  0  0  0
   45.3710    1.5894   19.3427 S   0  0  0  0  0  0  0  0  0  0  0  0
   46.9648   -0.5989   19.6135 N   0  0  0  0  0  0  0  0  0  0  0  0
   47.5168   -1.6066   20.3380 C   0  0  0  0  0  0  0  0  0  0  0  0
   48.2998   -2.4199   19.7841 O   0  0  0  0  0  0  0  0  0  0  0  0
   47.2150   -1.7415   21.6966 C   0  0  0  0  0  0  0  0  0  0  0  0
   46.3468   -0.8389   22.2982 C   0  0  0  0  0  0  0  0  0  0  0  0
   47.1858   -0.5045   18.6588 H   0  0  0  0  0  0  0  0  0  0  0  0
   45.3157    1.8260   25.4704 C   0  0  0  0  0  0  0  0  0  0  0  0
   46.3927    2.6698   25.8772 O   0  0  0  0  0  0  0  0  0  0  0  0
   47.0980    2.6372   25.2121 H   0  0  0  0  0  0  0  0  0  0  0  0
 10 11  1  0  0  0
 10 17  1  0  0  0
 10  1  1  0  0  0
 11 12  2  0  0  0
 11 13  1  0  0  0
 13 14  1  0  0  0
 14 15  2  0  0  0
 14 16  1  0  0  0
 16 17  2  0  0  0
  1  2  1  0  0  0
  1  7  1  0  0  0
  2  3  1  0  0  0
  2  4  1  0  0  0
  4  5  1  0  0  0
  4  6  1  0  0  0
  6  7  1  0  0  0
  6 19  1  0  0  0
 19 20  1  0  0  0
 13 18  1  0  0  0
  3  8  1  0  0  0
  5  9  1  0  0  0
 20 21  1  0  0  0
M  END
> <minimizedAffinity>
-5.81204

$$$$
3SFG_2TU_A_601


 21 22  0  0  0  0  0  0  0  0999 V2000
   45.3836    1.3607   24.5163 C   0  0  0  0  0  0  0  0  0  0  0  0
   46.2629    1.7461   25.6971 C   0  0  0  0  0  0  0  0  0  0  0  0
   46.8254    3.0316   25.5230 O   0  0  0  0  0  0  0  0  0  0  0  0
   47.2698    0.5877   25.7134 C   0  0  0  0  0  0  0  0  0  0  0  0
   48.2988    0.8329   24.7569 O   0  0  0  0  0  0  0  0  0  0  0  0
   46.4278   -0.6078   25.2541 C   0  0  0  0  0  0  0  0  0  0  0  0
   45.2926   -0.0515   24.5381 O   0  0  0  0  0  0  0  0  0  0  0  0
   47.3167    3.0590   24.6870 H   0  0  0  0  0  0  0  0  0  0  0  0
   47.9018    0.9661   23.8819 H   0  0  0  0  0  0  0  0  0  0  0  0
   44.0312    1.9091   24.5812 N   0  0  0  0  0  0  0  0  0  0  0  0
   43.7083    2.8549   23.6043 C   0  0  0  0  0  0  0  0  0  0  0  0
   44.9386    3.2654   22.4523 S   0  0  0  0  0  0  0  0  0  0  0  0
   42.4699    3.3937   23.5888 N   0  0  0  0  0  0  0  0  0  0  0  0
   41.5496    3.0273   24.5181 C   0  0  0  0  0  0  0  0  0  0  0  0
   40.4025    3.5423   24.5004 O   0  0  0  0  0  0  0  0  0  0  0  0
   41.8759    2.0806   25.4940 C   0  0  0  0  0  0  0  0  0  0  0  0
   43.1468    1.5195   25.5060 C   0  0  0  0  0  0  0  0  0  0  0  0
   42.2330    4.0559   22.8998 H   0  0  0  0  0  0  0  0  0  0  0  0
   45.9225   -1.5129   26.3586 C   0  0  0  0  0  0  0  0  0  0  0  0
   46.4557   -2.8324   26.2485 O   0  0  0  0  0  0  0  0  0  0  0  0
   46.1801   -3.2231   25.4045 H   0  0  0  0  0  0  0  0  0  0  0  0
 10 11  1  0  0  0
 10 17  1  0  0  0
 10  1  1  0  0  0
 11 12  2  0  0  0
 11 13  1  0  0  0
 13 14  1  0  0  0
 14 15  2  0  0  0
 14 16  1  0  0  0
 16 17  2  0  0  0
  1  2  1  0  0  0
  1  7  1  0  0  0
  2  3  1  0  0  0
  2  4  1  0  0  0
  4  5  1  0  0  0
  4  6  1  0  0  0
  6  7  1  0  0  0
  6 19  1  0  0  0
 19 20  1  0  0  0
 13 18  1  0  0  0
  3  8  1  0  0  0
  5  9  1  0  0  0
 20 21  1  0  0  0
M  END
> <minimizedAffinity>
-5.78193

$$$$
3SFG_2TU_A_601


 21 22  0  0  0  0  0  0  0  0999 V2000
   44.1500    1.1914   25.5800 C   0  0  0  0  0  0  0  0  0  0  0  0
   45.5525    1.4032   26.1315 C   0  0  0  0  0  0  0  0  0  0  0  0
   45.9946    2.7295   25.9204 O   0  0  0  0  0  0  0  0  0  0  0  0
   46.3392    0.3229   25.3765 C   0  0  0  0  0  0  0  0  0  0  0  0
   46.6849    0.8006   24.0780 O   0  0  0  0  0  0  0  0  0  0  0  0
   45.3209   -0.8146   25.2417 C   0  0  0  0  0  0  0  0  0  0  0  0
   44.0106   -0.2033   25.3848 O   0  0  0  0  0  0  0  0  0  0  0  0
   45.9465    2.9397   24.9746 H   0  0  0  0  0  0  0  0  0  0  0  0
   45.8803    1.0694   23.6076 H   0  0  0  0  0  0  0  0  0  0  0  0
   43.0872    1.6380   26.4772 N   0  0  0  0  0  0  0  0  0  0  0  0
   42.0833    2.4165   25.8948 C   0  0  0  0  0  0  0  0  0  0  0  0
   42.2223    2.7619   24.2005 S   0  0  0  0  0  0  0  0  0  0  0  0
   41.0571    2.8515   26.6575 N   0  0  0  0  0  0  0  0  0  0  0  0
   41.0048    2.5435   27.9794 C   0  0  0  0  0  0  0  0  0  0  0  0
   40.0498    2.9617   28.6825 O   0  0  0  0  0  0  0  0  0  0  0  0
   42.0108    1.7643   28.5590 C   0  0  0  0  0  0  0  0  0  0  0  0
   43.0627    1.3092   27.7736 C   0  0  0  0  0  0  0  0  0  0  0  0
   40.3428    3.3950   26.2530 H   0  0  0  0  0  0  0  0  0  0  0  0
   45.4579   -1.9362   26.2505 C   0  0  0  0  0  0  0  0  0  0  0  0
   46.8070   -2.3897   26.3593 O   0  0  0  0  0  0  0  0  0  0  0  0
   47.1027   -2.7333   25.5018 H   0  0  0  0  0  0  0  0  0  0  0  0
 10 11  1  0  0  0
 10 17  1  0  0  0
 10  1  1  0  0  0
 11 12  2  0  0  0
 11 13  1  0  0  0
 13 14  1  0  0  0
 14 15  2  0  0  0
 14 16  1  0  0  0
 16 17  2  0  0  0
  1  2  1  0  0  0
  1  7  1  0  0  0
  2  3  1  0  0  0
  2  4  1  0  0  0
  4  5  1  0  0  0
  4  6  1  0  0  0
  6  7  1  0  0  0
  6 19  1  0  0  0
 19 20  1  0  0  0
 13 18  1  0  0  0
  3  8  1  0  0  0
  5  9  1  0  0  0
 20 21  1  0  0  0
M  END
> <minimizedAffinity>
-5.61250

$$$$
3SFG_2TU_A_601


 21 22  0  0  0  0  0  0  0  0999 V2000
   46.0545   -0.0732   24.5841 C   0  0  0  0  0  0  0  0  0  0  0  0
   47.4888   -0.0405   25.0918 C   0  0  0  0  0  0  0  0  0  0  0  0
   48.0750    1.2317   24.8989 O   0  0  0  0  0  0  0  0  0  0  0  0
   48.1206   -1.1818   24.2827 C   0  0  0  0  0  0  0  0  0  0  0  0
   48.4782   -0.7095   22.9855 O   0  0  0  0  0  0  0  0  0  0  0  0
   46.9735   -2.1900   24.1547 C   0  0  0  0  0  0  0  0  0  0  0  0
   45.7481   -1.4364   24.3586 O   0  0  0  0  0  0  0  0  0  0  0  0
   48.0217    1.4734   23.9610 H   0  0  0  0  0  0  0  0  0  0  0  0
   47.6958   -0.3362   22.5503 H   0  0  0  0  0  0  0  0  0  0  0  0
   45.0796    0.4664   25.5288 N   0  0  0  0  0  0  0  0  0  0  0  0
   44.3911    1.6082   25.1102 C   0  0  0  0  0  0  0  0  0  0  0  0
   44.7777    2.2446   23.5434 S   0  0  0  0  0  0  0  0  0  0  0  0
   43.4605    2.1546   25.9223 N   0  0  0  0  0  0  0  0  0  0  0  0
   43.2017    1.6058   27.1375 C   0  0  0  0  0  0  0  0  0  0  0  0
   42.3400    2.1281   27.8898 O   0  0  0  0  0  0  0  0  0  0  0  0
   43.8923    0.4633   27.5532 C   0  0  0  0  0  0  0  0  0  0  0  0
   44.8441   -0.1046   26.7153 C   0  0  0  0  0  0  0  0  0  0  0  0
   42.9667    2.9553   25.6317 H   0  0  0  0  0  0  0  0  0  0  0  0
   47.0112   -3.3488   25.1295 C   0  0  0  0  0  0  0  0  0  0  0  0
   48.1973   -3.3355   25.9235 O   0  0  0  0  0  0  0  0  0  0  0  0
   48.9732   -3.4162   25.3470 H   0  0  0  0  0  0  0  0  0  0  0  0
 10 11  1  0  0  0
 10 17  1  0  0  0
 10  1  1  0  0  0
 11 12  2  0  0  0
 11 13  1  0  0  0
 13 14  1  0  0  0
 14 15  2  0  0  0
 14 16  1  0  0  0
 16 17  2  0  0  0
  1  2  1  0  0  0
  1  7  1  0  0  0
  2  3  1  0  0  0
  2  4  1  0  0  0
  4  5  1  0  0  0
  4  6  1  0  0  0
  6  7  1  0  0  0
  6 19  1  0  0  0
 19 20  1  0  0  0
 13 18  1  0  0  0
  3  8  1  0  0  0
  5  9  1  0  0  0
 20 21  1  0  0  0
M  END
> <minimizedAffinity>
-5.51000

$$$$
3SFG_2TU_A_601


 21 22  0  0  0  0  0  0  0  0999 V2000
   44.5270    0.3125   25.7981 C   0  0  0  0  0  0  0  0  0  0  0  0
   45.4697    1.2404   26.5505 C   0  0  0  0  0  0  0  0  0  0  0  0
   44.7559    2.2125   27.2886 O   0  0  0  0  0  0  0  0  0  0  0  0
   46.3296    1.7903   25.4040 C   0  0  0  0  0  0  0  0  0  0  0  0
   45.6450    2.8649   24.7635 O   0  0  0  0  0  0  0  0  0  0  0  0
   46.4192    0.6024   24.4397 C   0  0  0  0  0  0  0  0  0  0  0  0
   45.2887   -0.2560   24.7495 O   0  0  0  0  0  0  0  0  0  0  0  0
   44.1695    2.7045   26.6928 H   0  0  0  0  0  0  0  0  0  0  0  0
   44.7755    2.5595   24.4606 H   0  0  0  0  0  0  0  0  0  0  0  0
   43.9875   -0.7723   26.6142 N   0  0  0  0  0  0  0  0  0  0  0  0
   42.6062   -0.7489   26.8252 C   0  0  0  0  0  0  0  0  0  0  0  0
   41.7108    0.5531   26.1095 S   0  0  0  0  0  0  0  0  0  0  0  0
   42.0317   -1.7294   27.5550 N   0  0  0  0  0  0  0  0  0  0  0  0
   42.7889   -2.7239   28.0864 C   0  0  0  0  0  0  0  0  0  0  0  0
   42.2452   -3.6267   28.7724 O   0  0  0  0  0  0  0  0  0  0  0  0
   44.1707   -2.7445   27.8733 C   0  0  0  0  0  0  0  0  0  0  0  0
   44.7619   -1.7409   27.1158 C   0  0  0  0  0  0  0  0  0  0  0  0
   41.0583   -1.7232   27.7027 H   0  0  0  0  0  0  0  0  0  0  0  0
   47.6954   -0.2095   24.5211 C   0  0  0  0  0  0  0  0  0  0  0  0
   48.8335    0.6151   24.7703 O   0  0  0  0  0  0  0  0  0  0  0  0
   48.9389    1.2489   24.0436 H   0  0  0  0  0  0  0  0  0  0  0  0
 10 11  1  0  0  0
 10 17  1  0  0  0
 10  1  1  0  0  0
 11 12  2  0  0  0
 11 13  1  0  0  0
 13 14  1  0  0  0
 14 15  2  0  0  0
 14 16  1  0  0  0
 16 17  2  0  0  0
  1  2  1  0  0  0
  1  7  1  0  0  0
  2  3  1  0  0  0
  2  4  1  0  0  0
  4  5  1  0  0  0
  4  6  1  0  0  0
  6  7  1  0  0  0
  6 19  1  0  0  0
 19 20  1  0  0  0
 13 18  1  0  0  0
  3  8  1  0  0  0
  5  9  1  0  0  0
 20 21  1  0  0  0
M  END
> <minimizedAffinity>
-5.49465

$$$$
3SFG_2TU_A_601


 21 22  0  0  0  0  0  0  0  0999 V2000
   45.1171    1.6945   24.3906 C   0  0  0  0  0  0  0  0  0  0  0  0
   44.2197    0.9699   25.3833 C   0  0  0  0  0  0  0  0  0  0  0  0
   42.9101    1.5029   25.3787 O   0  0  0  0  0  0  0  0  0  0  0  0
   45.0002    1.1625   26.6910 C   0  0  0  0  0  0  0  0  0  0  0  0
   44.7115    2.4479   27.2371 O   0  0  0  0  0  0  0  0  0  0  0  0
   46.4611    1.1265   26.2292 C   0  0  0  0  0  0  0  0  0  0  0  0
   46.4460    1.4546   24.8139 O   0  0  0  0  0  0  0  0  0  0  0  0
   42.9479    2.4551   25.5594 H   0  0  0  0  0  0  0  0  0  0  0  0
   44.9155    3.1316   26.5800 H   0  0  0  0  0  0  0  0  0  0  0  0
   44.9809    1.2221   23.0150 N   0  0  0  0  0  0  0  0  0  0  0  0
   44.4673    2.1455   22.1003 C   0  0  0  0  0  0  0  0  0  0  0  0
   44.0505    3.7183   22.7017 S   0  0  0  0  0  0  0  0  0  0  0  0
   44.3293    1.7874   20.8054 N   0  0  0  0  0  0  0  0  0  0  0  0
   44.6774    0.5396   20.3968 C   0  0  0  0  0  0  0  0  0  0  0  0
   44.5358    0.2134   19.1907 O   0  0  0  0  0  0  0  0  0  0  0  0
   45.1911   -0.3818   21.3145 C   0  0  0  0  0  0  0  0  0  0  0  0
   45.3414   -0.0119   22.6453 C   0  0  0  0  0  0  0  0  0  0  0  0
   43.9742    2.4344   20.1538 H   0  0  0  0  0  0  0  0  0  0  0  0
   47.1749   -0.1952   26.4244 C   0  0  0  0  0  0  0  0  0  0  0  0
   48.4962   -0.0143   26.9331 O   0  0  0  0  0  0  0  0  0  0  0  0
   49.0173    0.5062   26.3018 H   0  0  0  0  0  0  0  0  0  0  0  0
 10 11  1  0  0  0
 10 17  1  0  0  0
 10  1  1  0  0  0
 11 12  2  0  0  0
 11 13  1  0  0  0
 13 14  1  0  0  0
 14 15  2  0  0  0
 14 16  1  0  0  0
 16 17  2  0  0  0
  1  2  1  0  0  0
  1  7  1  0  0  0
  2  3  1  0  0  0
  2  4  1  0  0  0
  4  5  1  0  0  0
  4  6  1  0  0  0
  6  7  1  0  0  0
  6 19  1  0  0  0
 19 20  1  0  0  0
 13 18  1  0  0  0
  3  8  1  0  0  0
  5  9  1  0  0  0
 20 21  1  0  0  0
M  END
> <minimizedAffinity>
-5.39409

$$$$
3SFG_2TU_A_601


 21 22  0  0  0  0  0  0  0  0999 V2000
   45.2317    0.8582   24.3518 C   0  0  0  0  0  0  0  0  0  0  0  0
   45.9339    2.2046   24.2523 C   0  0  0  0  0  0  0  0  0  0  0  0
   46.0706    2.8098   25.5228 O   0  0  0  0  0  0  0  0  0  0  0  0
   45.0207    2.9484   23.2678 C   0  0  0  0  0  0  0  0  0  0  0  0
   43.9004    3.4876   23.9663 O   0  0  0  0  0  0  0  0  0  0  0  0
   44.5430    1.8336   22.3309 C   0  0  0  0  0  0  0  0  0  0  0  0
   44.7108    0.5901   23.0635 O   0  0  0  0  0  0  0  0  0  0  0  0
   45.1976    2.8913   25.9378 H   0  0  0  0  0  0  0  0  0  0  0  0
   43.4377    2.7750   24.4344 H   0  0  0  0  0  0  0  0  0  0  0  0
   46.1141   -0.2434   24.7288 N   0  0  0  0  0  0  0  0  0  0  0  0
   45.8222   -0.8716   25.9425 C   0  0  0  0  0  0  0  0  0  0  0  0
   44.4703   -0.2704   26.8482 S   0  0  0  0  0  0  0  0  0  0  0  0
   46.5830   -1.9106   26.3495 N   0  0  0  0  0  0  0  0  0  0  0  0
   47.6271   -2.3359   25.5918 C   0  0  0  0  0  0  0  0  0  0  0  0
   48.3350   -3.2980   25.9847 O   0  0  0  0  0  0  0  0  0  0  0  0
   47.9163   -1.7052   24.3779 C   0  0  0  0  0  0  0  0  0  0  0  0
   47.1293   -0.6415   23.9541 C   0  0  0  0  0  0  0  0  0  0  0  0
   46.3797   -2.3624   27.2003 H   0  0  0  0  0  0  0  0  0  0  0  0
   45.2757    1.7333   21.0090 C   0  0  0  0  0  0  0  0  0  0  0  0
   46.1048    0.5729   20.9490 O   0  0  0  0  0  0  0  0  0  0  0  0
   46.7746    0.6175   21.6491 H   0  0  0  0  0  0  0  0  0  0  0  0
 10 11  1  0  0  0
 10 17  1  0  0  0
 10  1  1  0  0  0
 11 12  2  0  0  0
 11 13  1  0  0  0
 13 14  1  0  0  0
 14 15  2  0  0  0
 14 16  1  0  0  0
 16 17  2  0  0  0
  1  2  1  0  0  0
  1  7  1  0  0  0
  2  3  1  0  0  0
  2  4  1  0  0  0
  4  5  1  0  0  0
  4  6  1  0  0  0
  6  7  1  0  0  0
  6 19  1  0  0  0
 19 20  1  0  0  0
 13 18  1  0  0  0
  3  8  1  0  0  0
  5  9  1  0  0  0
 20 21  1  0  0  0
M  END
> <minimizedAffinity>
-5.36845

$$$$
3SFG_2TU_A_601


 21 22  0  0  0  0  0  0  0  0999 V2000
   45.6074    0.3852   24.9812 C   0  0  0  0  0  0  0  0  0  0  0  0
   45.0074    1.7769   24.8433 C   0  0  0  0  0  0  0  0  0  0  0  0
   46.0050    2.7769   24.9064 O   0  0  0  0  0  0  0  0  0  0  0  0
   43.9979    1.7854   25.9996 C   0  0  0  0  0  0  0  0  0  0  0  0
   44.6674    2.1013   27.2185 O   0  0  0  0  0  0  0  0  0  0  0  0
   43.5179    0.3308   26.0492 C   0  0  0  0  0  0  0  0  0  0  0  0
   44.5517   -0.4584   25.4015 O   0  0  0  0  0  0  0  0  0  0  0  0
   46.5051    2.6830   25.7322 H   0  0  0  0  0  0  0  0  0  0  0  0
   45.3904    1.4711   27.3630 H   0  0  0  0  0  0  0  0  0  0  0  0
   46.1549   -0.1496   23.7369 N   0  0  0  0  0  0  0  0  0  0  0  0
   47.4916   -0.5549   23.7823 C   0  0  0  0  0  0  0  0  0  0  0  0
   48.3319   -0.3689   25.2885 S   0  0  0  0  0  0  0  0  0  0  0  0
   48.0628   -1.0768   22.6753 N   0  0  0  0  0  0  0  0  0  0  0  0
   47.3487   -1.1989   21.5263 C   0  0  0  0  0  0  0  0  0  0  0  0
   47.8930   -1.6772   20.4986 O   0  0  0  0  0  0  0  0  0  0  0  0
   46.0115   -0.7924   21.4842 C   0  0  0  0  0  0  0  0  0  0  0  0
   45.4204   -0.2631   22.6247 C   0  0  0  0  0  0  0  0  0  0  0  0
   49.0021   -1.3705   22.7013 H   0  0  0  0  0  0  0  0  0  0  0  0
   42.1897    0.0583   25.3740 C   0  0  0  0  0  0  0  0  0  0  0  0
   41.3247    1.1925   25.4283 O   0  0  0  0  0  0  0  0  0  0  0  0
   41.1393    1.4136   26.3543 H   0  0  0  0  0  0  0  0  0  0  0  0
 10 11  1  0  0  0
 10 17  1  0  0  0
 10  1  1  0  0  0
 11 12  2  0  0  0
 11 13  1  0  0  0
 13 14  1  0  0  0
 14 15  2  0  0  0
 14 16  1  0  0  0
 16 17  2  0  0  0
  1  2  1  0  0  0
  1  7  1  0  0  0
  2  3  1  0  0  0
  2  4  1  0  0  0
  4  5  1  0  0  0
  4  6  1  0  0  0
  6  7  1  0  0  0
  6 19  1  0  0  0
 19 20  1  0  0  0
 13 18  1  0  0  0
  3  8  1  0  0  0
  5  9  1  0  0  0
 20 21  1  0  0  0
M  END
> <minimizedAffinity>
-5.30488

$$$$
