4P5Z_Q7M_A_1001


 43 47  0  0  0  0  0  0  0  0999 V2000
    1.3742   -5.9524  -15.4722 C   0  0  0  0  0  0  0  0  0  0  0  0
    0.8304   -7.0623  -16.0418 C   0  0  0  0  0  0  0  0  0  0  0  0
    0.9717   -8.2971  -15.4880 C   0  0  0  0  0  0  0  0  0  0  0  0
    2.0828   -6.1776  -14.3053 C   0  0  0  0  0  0  0  0  0  0  0  0
    2.2063   -7.4525  -13.7493 C   0  0  0  0  0  0  0  0  0  0  0  0
    1.6493   -8.5757  -14.3330 C   0  0  0  0  0  0  0  0  0  0  0  0
    1.6440   -9.8483  -13.9822 N   0  0  0  0  0  0  0  0  0  0  0  0
    1.3092  -10.3526  -12.7862 C   0  0  0  0  0  0  0  0  0  0  0  0
    1.1195   -9.6287  -11.6793 N   0  0  0  0  0  0  0  0  0  0  0  0
    1.7262  -10.7455  -14.9359 C   0  0  0  0  0  0  0  0  0  0  0  0
    1.5552  -12.0637  -14.2903 C   0  0  0  0  0  0  0  0  0  0  0  0
    1.2822  -11.8321  -12.8541 C   0  0  0  0  0  0  0  0  0  0  0  0
    2.0017  -10.6873  -16.2377 N   0  0  0  0  0  0  0  0  0  0  0  0
    2.1030  -11.8379  -16.9280 C   0  0  0  0  0  0  0  0  0  0  0  0
    1.8985  -13.1473  -16.2655 C   0  0  0  0  0  0  0  0  0  0  0  0
    1.6459  -13.2048  -14.9679 N   0  0  0  0  0  0  0  0  0  0  0  0
    2.3694  -11.8266  -18.2757 C   0  0  0  0  0  0  0  0  0  0  0  0
    2.4640  -13.0124  -18.9722 C   0  0  0  0  0  0  0  0  0  0  0  0
    2.2924  -14.2289  -18.3472 C   0  0  0  0  0  0  0  0  0  0  0  0
    2.0043  -14.3069  -16.9995 C   0  0  0  0  0  0  0  0  0  0  0  0
    1.1540   -8.6457  -11.7220 H   0  0  0  0  0  0  0  0  0  0  0  0
    0.9452  -10.0783  -10.8210 H   0  0  0  0  0  0  0  0  0  0  0  0
    1.0106  -12.9307  -11.8623 C   0  0  0  0  0  0  0  0  0  0  0  0
    0.8110  -14.1680  -12.2433 N   0  0  0  0  0  0  0  0  0  0  0  0
    0.9245  -12.7321  -10.6767 O   0  0  0  0  0  0  0  0  0  0  0  0
    0.8656  -14.4041  -13.1975 H   0  0  0  0  0  0  0  0  0  0  0  0
    0.6065  -14.8618  -11.5755 H   0  0  0  0  0  0  0  0  0  0  0  0
    0.2213   -2.7172  -16.4378 N   0  0  0  0  0  0  0  0  0  0  0  0
    0.1720   -3.8871  -15.8106 C   0  0  0  0  0  0  0  0  0  0  0  0
   -0.7743   -4.1980  -15.1666 O   0  0  0  0  0  0  0  0  0  0  0  0
    1.2321   -4.6774  -15.9360 N   0  0  0  0  0  0  0  0  0  0  0  0
    0.9886   -2.5486  -17.0312 H   0  0  0  0  0  0  0  0  0  0  0  0
    2.0028   -4.3001  -16.4185 H   0  0  0  0  0  0  0  0  0  0  0  0
   -2.7852   -0.6854  -15.5741 C   0  0  0  0  0  0  0  0  0  0  0  0
   -1.8782   -1.7190  -15.4907 C   0  0  0  0  0  0  0  0  0  0  0  0
   -2.5380    0.3415  -16.4192 C   0  0  0  0  0  0  0  0  0  0  0  0
   -1.4313    0.3452  -17.2178 C   0  0  0  0  0  0  0  0  0  0  0  0
   -0.5349   -0.6623  -17.1634 C   0  0  0  0  0  0  0  0  0  0  0  0
   -0.7207   -1.7273  -16.3177 C   0  0  0  0  0  0  0  0  0  0  0  0
   -4.7257    0.4517  -15.0315 F   0  0  0  0  0  0  0  0  0  0  0  0
   -4.0135   -0.5597  -14.7575 C   0  0  0  0  0  0  0  0  0  0  0  0
   -3.7034   -0.3216  -13.5857 F   0  0  0  0  0  0  0  0  0  0  0  0
   -4.6686   -1.6205  -14.5633 F   0  0  0  0  0  0  0  0  0  0  0  0
 18 17  2  0  0  0
 18 19  1  0  0  0
 17 14  1  0  0  0
 19 20  2  0  0  0
 37 38  2  0  0  0
 37 36  1  0  0  0
 38 39  1  0  0  0
 14 13  2  0  0  0
 14 15  1  0  0  0
 20 15  1  0  0  0
 36 34  2  0  0  0
 28 39  1  0  0  0
 28 29  1  0  0  0
 39 35  2  0  0  0
 13 10  1  0  0  0
 15 16  2  0  0  0
 31 29  1  0  0  0
 31  1  1  0  0  0
 29 30  2  0  0  0
 34 35  1  0  0  0
 34 41  1  0  0  0
  1  2  2  0  0  0
  1  4  1  0  0  0
 40 41  1  0  0  0
  2  3  1  0  0  0
  4  5  2  0  0  0
 10 11  2  0  0  0
 10  7  1  0  0  0
 16 11  1  0  0  0
  3  6  2  0  0  0
  5  6  1  0  0  0
 41 43  1  0  0  0
 41 42  1  0  0  0
  6  7  1  0  0  0
 11 12  1  0  0  0
  7  8  1  0  0  0
  8 12  2  0  0  0
  8  9  1  0  0  0
 12 23  1  0  0  0
 24 23  1  0  0  0
 23 25  2  0  0  0
 28 32  1  0  0  0
 31 33  1  0  0  0
  9 21  1  0  0  0
  9 22  1  0  0  0
 24 26  1  0  0  0
 24 27  1  0  0  0
M  END
> <minimizedAffinity>
-14.17355

$$$$
4P5Z_Q7M_A_1001


 43 47  0  0  0  0  0  0  0  0999 V2000
    1.6791   -6.3437  -16.1820 C   0  0  0  0  0  0  0  0  0  0  0  0
    1.8210   -7.0895  -17.3115 C   0  0  0  0  0  0  0  0  0  0  0  0
    1.8704   -8.4488  -17.2738 C   0  0  0  0  0  0  0  0  0  0  0  0
    1.6010   -7.0676  -15.0055 C   0  0  0  0  0  0  0  0  0  0  0  0
    1.6439   -8.4633  -14.9915 C   0  0  0  0  0  0  0  0  0  0  0  0
    1.7864   -9.2146  -16.1436 C   0  0  0  0  0  0  0  0  0  0  0  0
    1.8475  -10.5167  -16.3524 N   0  0  0  0  0  0  0  0  0  0  0  0
    2.2574  -11.1349  -17.4690 C   0  0  0  0  0  0  0  0  0  0  0  0
    2.4810  -10.5284  -18.6383 N   0  0  0  0  0  0  0  0  0  0  0  0
    1.7442  -11.3082  -15.3111 C   0  0  0  0  0  0  0  0  0  0  0  0
    1.9870  -12.6815  -15.7998 C   0  0  0  0  0  0  0  0  0  0  0  0
    2.3251  -12.5966  -17.2384 C   0  0  0  0  0  0  0  0  0  0  0  0
    1.4017  -11.1196  -14.0379 N   0  0  0  0  0  0  0  0  0  0  0  0
    1.3001  -12.1919  -13.2313 C   0  0  0  0  0  0  0  0  0  0  0  0
    1.5770  -13.5571  -13.7362 C   0  0  0  0  0  0  0  0  0  0  0  0
    1.8963  -13.7453  -15.0064 N   0  0  0  0  0  0  0  0  0  0  0  0
    0.9657  -12.0447  -11.9069 C   0  0  0  0  0  0  0  0  0  0  0  0
    0.8716  -13.1510  -11.0901 C   0  0  0  0  0  0  0  0  0  0  0  0
    1.1109  -14.4211  -11.5694 C   0  0  0  0  0  0  0  0  0  0  0  0
    1.4690  -14.6338  -12.8855 C   0  0  0  0  0  0  0  0  0  0  0  0
    2.4150   -9.5484  -18.7051 H   0  0  0  0  0  0  0  0  0  0  0  0
    2.7118  -11.0615  -19.4331 H   0  0  0  0  0  0  0  0  0  0  0  0
    2.6792  -13.7855  -18.0901 C   0  0  0  0  0  0  0  0  0  0  0  0
    2.6605  -15.0048  -17.6118 N   0  0  0  0  0  0  0  0  0  0  0  0
    3.0330  -13.6832  -19.2377 O   0  0  0  0  0  0  0  0  0  0  0  0
    2.3820  -15.1642  -16.6810 H   0  0  0  0  0  0  0  0  0  0  0  0
    2.9250  -15.7618  -18.1830 H   0  0  0  0  0  0  0  0  0  0  0  0
    0.5818   -2.9492  -16.1531 N   0  0  0  0  0  0  0  0  0  0  0  0
    0.4516   -4.2686  -16.0718 C   0  0  0  0  0  0  0  0  0  0  0  0
   -0.6136   -4.7722  -15.9351 O   0  0  0  0  0  0  0  0  0  0  0  0
    1.5679   -4.9847  -16.1428 N   0  0  0  0  0  0  0  0  0  0  0  0
    1.4753   -2.5898  -16.3575 H   0  0  0  0  0  0  0  0  0  0  0  0
    2.4109   -4.4769  -16.1703 H   0  0  0  0  0  0  0  0  0  0  0  0
   -2.5983   -1.2486  -15.2002 C   0  0  0  0  0  0  0  0  0  0  0  0
   -1.6125   -2.2107  -15.1830 C   0  0  0  0  0  0  0  0  0  0  0  0
   -2.4163   -0.1320  -15.9418 C   0  0  0  0  0  0  0  0  0  0  0  0
   -1.2959    0.0323  -16.7035 C   0  0  0  0  0  0  0  0  0  0  0  0
   -0.3221   -0.9022  -16.7132 C   0  0  0  0  0  0  0  0  0  0  0  0
   -0.4399   -2.0517  -15.9726 C   0  0  0  0  0  0  0  0  0  0  0  0
   -4.1766   -0.1946  -13.8769 F   0  0  0  0  0  0  0  0  0  0  0  0
   -3.8508   -1.2956  -14.4125 C   0  0  0  0  0  0  0  0  0  0  0  0
   -3.6806   -2.0040  -13.4150 F   0  0  0  0  0  0  0  0  0  0  0  0
   -4.8132   -1.9291  -14.9270 F   0  0  0  0  0  0  0  0  0  0  0  0
 18 17  2  0  0  0
 18 19  1  0  0  0
 17 14  1  0  0  0
 19 20  2  0  0  0
 37 38  2  0  0  0
 37 36  1  0  0  0
 38 39  1  0  0  0
 14 13  2  0  0  0
 14 15  1  0  0  0
 20 15  1  0  0  0
 36 34  2  0  0  0
 28 39  1  0  0  0
 28 29  1  0  0  0
 39 35  2  0  0  0
 13 10  1  0  0  0
 15 16  2  0  0  0
 31 29  1  0  0  0
 31  1  1  0  0  0
 29 30  2  0  0  0
 34 35  1  0  0  0
 34 41  1  0  0  0
  1  2  2  0  0  0
  1  4  1  0  0  0
 40 41  1  0  0  0
  2  3  1  0  0  0
  4  5  2  0  0  0
 10 11  2  0  0  0
 10  7  1  0  0  0
 16 11  1  0  0  0
  3  6  2  0  0  0
  5  6  1  0  0  0
 41 43  1  0  0  0
 41 42  1  0  0  0
  6  7  1  0  0  0
 11 12  1  0  0  0
  7  8  1  0  0  0
  8 12  2  0  0  0
  8  9  1  0  0  0
 12 23  1  0  0  0
 24 23  1  0  0  0
 23 25  2  0  0  0
 28 32  1  0  0  0
 31 33  1  0  0  0
  9 21  1  0  0  0
  9 22  1  0  0  0
 24 26  1  0  0  0
 24 27  1  0  0  0
M  END
> <minimizedAffinity>
-11.72667

$$$$
