4RRF_A3S_A_501
  RCSB PDB12061714413D
Coordinates from PDB:4RRF:A:501 Model:1 without hydrogens
 25 27  0  0  0  0            999 V2000
    9.1110   -2.9260    8.5920   O 0  0  0  0  0  0  0  0  0  0  0  0
    9.0740   -4.2610    8.0790   C 0  0  0  0  0  0  0  0  0  0  0  0
    9.7990   -4.3240    6.7820   C 0  0  0  0  0  0  0  0  0  0  0  0
    9.1590   -3.3630    6.0490   O 0  0  0  0  0  0  0  0  0  0  0  0
   10.1810   -2.5780    5.3500   C 0  0  0  0  0  0  0  0  0  0  0  0
   10.0100   -1.1430    5.6860   N 0  0  0  0  0  0  0  0  0  0  0  0
   10.8330   -0.1590    5.3750   C 0  0  0  0  0  0  0  0  0  0  0  0
   12.1230   -0.1130    4.9270   N 0  0  0  0  0  0  0  0  0  0  0  0
   12.7150    1.0860    4.7330   C 0  0  0  0  0  0  0  0  0  0  0  0
   12.1400    2.2630    5.0090   N 0  0  0  0  0  0  0  0  0  0  0  0
   10.8350    2.2390    5.4550   C 0  0  0  0  0  0  0  0  0  0  0  0
   10.2410    3.4070    5.7170   N 0  0  0  0  0  0  0  0  0  0  0  0
   10.1770    1.0260    5.6870   C 0  0  0  0  0  0  0  0  0  0  0  0
    8.8820    0.6950    6.1110   N 0  0  0  0  0  0  0  0  0  0  0  0
    8.7850   -0.6460    6.0780   C 0  0  0  0  0  0  0  0  0  0  0  0
   11.5000   -3.2430    5.5180   C 0  0  0  0  0  0  0  0  0  0  0  0
   11.6180   -4.2450    4.4880   O 0  0  0  0  0  0  0  0  0  0  0  0
   11.2590   -3.8120    6.9450   C 0  0  0  0  0  0  0  0  0  0  0  0
   12.1520   -4.9360    7.1330   N 0  0  0  0  0  0  0  0  0  0  0  0
   15.7330   -5.6500    7.7290   N 0  0  0  0  0  0  0  0  0  0  0  0
   14.3200   -6.0330    7.4930   C 0  0  0  0  0  0  0  0  0  0  0  0
   13.9240   -7.0190    8.6120   C 0  0  0  0  0  0  0  0  0  0  0  0
   14.7060   -8.2030    8.3800   O 0  0  0  0  0  0  0  0  0  0  0  0
   13.4210   -4.7770    7.4790   C 0  0  0  0  0  0  0  0  0  0  0  0
   13.9670   -3.5540    7.7000   O 0  0  0  0  0  0  0  0  0  0  0  0
  1  2  1  0  0  0  0
  2  3  1  0  0  0  0
  3  4  1  0  0  0  0
  3 18  1  0  0  0  0
  4  5  1  0  0  0  0
  5  6  1  0  0  0  0
  5 16  1  0  0  0  0
  6  7  1  0  0  0  0
  6 15  1  0  0  0  0
  7  8  1  0  0  0  0
  7 13  2  0  0  0  0
  8  9  2  0  0  0  0
  9 10  1  0  0  0  0
 10 11  2  0  0  0  0
 11 12  1  0  0  0  0
 11 13  1  0  0  0  0
 13 14  1  0  0  0  0
 14 15  2  0  0  0  0
 16 17  1  0  0  0  0
 16 18  1  0  0  0  0
 18 19  1  0  0  0  0
 19 24  1  0  0  0  0
 20 21  1  0  0  0  0
 21 22  1  0  0  0  0
 21 24  1  0  0  0  0
 22 23  1  0  0  0  0
 24 25  2  0  0  0  0
A    1
O5'
A    2
C5'
A    3
C4'
A    4
O4'
A    5
C1'
A    6
N9
A    7
C4
A    8
N3
A    9
C2
A   10
N1
A   11
C6
A   12
N6
A   13
C5
A   14
N7
A   15
C8
A   16
C2'
A   17
O2'
A   18
C3'
A   19
N8
A   20
N
A   21
CA
A   22
CB
A   23
OG
A   24
C
A   25
O
M  END
>  <InstanceId>
4RRF_A3S_A_501

>  <ChemCompId>
A3S

>  <PdbId>
4RRF

>  <ChainId>
A

>  <ResidueNumber>
501

>  <InsertionCode>


>  <Model>
1

>  <AltIds>


>  <MissingHeavyAtoms>
0

>  <ObservedFormula>
C13 N7 O5

>  <Name>
SERINE-3'-AMINOADENOSINE

>  <SystematicName>
(2S)-2-amino-N-[(2S,3S,4R,5R)-5-(6-aminopurin-9-yl)-4-hydroxy-2-(hydroxymethyl)oxolan-3-yl]-3-hydroxy-propanamide

>  <Synonyms>
N'-L-SERYL-3'-AMINO-(3'-DEOXY)-ADENOSINE

>  <Type>
NON-POLYMER

>  <Formula>
C13 H19 N7 O5

>  <MolecularWeight>
353.334

>  <ModifiedDate>
2011-06-04

>  <Parent>


>  <OneLetterCode>


>  <SubcomponentList>


>  <AmbiguousFlag>
N

>  <InChI>
InChI=1S/C13H19N7O5/c14-5(1-21)12(24)19-7-6(2-22)25-13(9(7)23)20-4-18-8-10(15)16-3-17-11(8)20/h3-7,9,13,21-23H,1-2,14H2,(H,19,24)(H2,15,16,17)/t5-,6+,7+,9+,13+/m0/s1

>  <InChIKey>
ITDKSTILAWHDJI-AYEBZEFBSA-N

>  <SMILES>
c1nc(c2c(n1)n(cn2)[C@H]3[C@@H]([C@@H]([C@H](O3)CO)NC(=O)[C@H](CO)N)O)N

$$$$
