4RRF_A3S_A_501


 33 35  0  0  0  0  0  0  0  0999 V2000
   10.0431   -4.5101    6.8067 C   0  0  0  0  0  0  0  0  0  0  0  0
    9.3749   -3.5129    6.1513 O   0  0  0  0  0  0  0  0  0  0  0  0
   10.3628   -2.7251    5.4078 C   0  0  0  0  0  0  0  0  0  0  0  0
   11.6755   -3.4209    5.4618 C   0  0  0  0  0  0  0  0  0  0  0  0
   11.6999   -4.3902    4.3946 O   0  0  0  0  0  0  0  0  0  0  0  0
   11.5217   -4.0324    6.8833 C   0  0  0  0  0  0  0  0  0  0  0  0
   10.9047   -4.9435    4.4422 H   0  0  0  0  0  0  0  0  0  0  0  0
   10.2468   -1.2990    5.8006 N   0  0  0  0  0  0  0  0  0  0  0  0
   11.0016   -0.3027    5.3766 C   0  0  0  0  0  0  0  0  0  0  0  0
   12.1963   -0.2377    4.7168 N   0  0  0  0  0  0  0  0  0  0  0  0
   12.7427    0.9694    4.4522 C   0  0  0  0  0  0  0  0  0  0  0  0
   12.2192    2.1360    4.8487 N   0  0  0  0  0  0  0  0  0  0  0  0
   11.0093    2.0930    5.5096 C   0  0  0  0  0  0  0  0  0  0  0  0
   10.4647    3.2507    5.8953 N   0  0  0  0  0  0  0  0  0  0  0  0
   10.4044    0.8705    5.8225 C   0  0  0  0  0  0  0  0  0  0  0  0
    9.2016    0.5212    6.4530 N   0  0  0  0  0  0  0  0  0  0  0  0
    9.1048   -0.8195    6.4065 C   0  0  0  0  0  0  0  0  0  0  0  0
   10.9038    4.1017    5.6665 H   0  0  0  0  0  0  0  0  0  0  0  0
    9.6245    3.2527    6.4083 H   0  0  0  0  0  0  0  0  0  0  0  0
   12.4009   -5.1792    6.9724 N   0  0  0  0  0  0  0  0  0  0  0  0
   13.6741   -5.0651    7.3204 C   0  0  0  0  0  0  0  0  0  0  0  0
   14.2378   -3.8711    7.6358 O   0  0  0  0  0  0  0  0  0  0  0  0
   12.0410   -6.0725    6.7679 H   0  0  0  0  0  0  0  0  0  0  0  0
   15.9915   -5.9577    7.2640 N   0  0  0  0  0  0  0  0  0  0  0  0
   14.5564   -6.3294    7.2252 C   0  0  0  0  0  0  0  0  0  0  0  0
   16.5627   -6.8003    7.2005 H   0  0  0  0  0  0  0  0  0  0  0  0
   16.1941   -5.4747    8.1392 H   0  0  0  0  0  0  0  0  0  0  0  0
   14.3075   -7.3016    8.3974 C   0  0  0  0  0  0  0  0  0  0  0  0
   13.8741   -6.4814    9.4959 O   0  0  0  0  0  0  0  0  0  0  0  0
   14.5562   -5.8210    9.6951 H   0  0  0  0  0  0  0  0  0  0  0  0
   10.3433   -4.9303    9.1384 O   0  0  0  0  0  0  0  0  0  0  0  0
    9.4113   -4.4762    8.1526 C   0  0  0  0  0  0  0  0  0  0  0  0
    9.9258   -4.9059   10.0136 H   0  0  0  0  0  0  0  0  0  0  0  0
 31 32  1  0  0  0
 32  1  1  0  0  0
  1  2  1  0  0  0
  1  6  1  0  0  0
  2  3  1  0  0  0
  3  8  1  0  0  0
  3  4  1  0  0  0
  8  9  1  0  0  0
  8 17  1  0  0  0
  9 10  1  0  0  0
  9 15  2  0  0  0
 10 11  2  0  0  0
 11 12  1  0  0  0
 12 13  2  0  0  0
 13 14  1  0  0  0
 13 15  1  0  0  0
 15 16  1  0  0  0
 16 17  2  0  0  0
  4  5  1  0  0  0
  4  6  1  0  0  0
  6 20  1  0  0  0
 20 21  1  0  0  0
 24 25  1  0  0  0
 25 28  1  0  0  0
 25 21  1  0  0  0
 28 29  1  0  0  0
 21 22  2  0  0  0
 31 33  1  0  0  0
 14 18  1  0  0  0
 14 19  1  0  0  0
  5  7  1  0  0  0
 20 23  1  0  0  0
 24 26  1  0  0  0
 24 27  1  0  0  0
 29 30  1  0  0  0
M  END
> <minimizedAffinity>
-10.05891

$$$$
4RRF_A3S_A_501


 33 35  0  0  0  0  0  0  0  0999 V2000
   10.9002   -4.3405    7.5365 C   0  0  0  0  0  0  0  0  0  0  0  0
   10.1554   -3.4406    6.8252 O   0  0  0  0  0  0  0  0  0  0  0  0
   10.8488   -3.1870    5.5587 C   0  0  0  0  0  0  0  0  0  0  0  0
   11.9720   -4.1512    5.4210 C   0  0  0  0  0  0  0  0  0  0  0  0
   11.4404   -5.3613    4.8450 O   0  0  0  0  0  0  0  0  0  0  0  0
   12.3307   -4.2601    6.9302 C   0  0  0  0  0  0  0  0  0  0  0  0
   10.6695   -5.6517    5.3573 H   0  0  0  0  0  0  0  0  0  0  0  0
   11.0823   -1.7291    5.4124 N   0  0  0  0  0  0  0  0  0  0  0  0
   10.2738   -0.7604    5.8001 C   0  0  0  0  0  0  0  0  0  0  0  0
    8.9628   -0.7213    6.1832 N   0  0  0  0  0  0  0  0  0  0  0  0
    8.3980    0.4663    6.4935 C   0  0  0  0  0  0  0  0  0  0  0  0
    9.0234    1.6459    6.3956 N   0  0  0  0  0  0  0  0  0  0  0  0
   10.3499    1.6278    6.0180 C   0  0  0  0  0  0  0  0  0  0  0  0
   10.9931    2.7961    5.9338 N   0  0  0  0  0  0  0  0  0  0  0  0
   10.9822    0.4285    5.6717 C   0  0  0  0  0  0  0  0  0  0  0  0
   12.2881    0.1037    5.2773 N   0  0  0  0  0  0  0  0  0  0  0  0
   12.3419   -1.2340    5.1488 C   0  0  0  0  0  0  0  0  0  0  0  0
   10.5329    3.6304    6.1815 H   0  0  0  0  0  0  0  0  0  0  0  0
   11.9273    2.8225    5.6241 H   0  0  0  0  0  0  0  0  0  0  0  0
   13.0186   -5.5175    7.1349 N   0  0  0  0  0  0  0  0  0  0  0  0
   14.3119   -5.5749    7.4169 C   0  0  0  0  0  0  0  0  0  0  0  0
   15.0769   -4.4618    7.5528 O   0  0  0  0  0  0  0  0  0  0  0  0
   12.5091   -6.3568    7.0621 H   0  0  0  0  0  0  0  0  0  0  0  0
   16.4496   -6.8399    7.4037 N   0  0  0  0  0  0  0  0  0  0  0  0
   14.9733   -6.9703    7.4543 C   0  0  0  0  0  0  0  0  0  0  0  0
   16.8739   -7.7671    7.4289 H   0  0  0  0  0  0  0  0  0  0  0  0
   16.7706   -6.2970    8.2053 H   0  0  0  0  0  0  0  0  0  0  0  0
   14.6298   -7.7421    8.7456 C   0  0  0  0  0  0  0  0  0  0  0  0
   14.0875   -6.7641    9.6492 O   0  0  0  0  0  0  0  0  0  0  0  0
   14.7402   -6.0615    9.7949 H   0  0  0  0  0  0  0  0  0  0  0  0
   12.0230   -4.1903    9.6389 O   0  0  0  0  0  0  0  0  0  0  0  0
   10.8766   -3.7537    8.9028 C   0  0  0  0  0  0  0  0  0  0  0  0
   12.0021   -3.8046   10.5287 H   0  0  0  0  0  0  0  0  0  0  0  0
 31 32  1  0  0  0
 32  1  1  0  0  0
  1  2  1  0  0  0
  1  6  1  0  0  0
  2  3  1  0  0  0
  3  8  1  0  0  0
  3  4  1  0  0  0
  8  9  1  0  0  0
  8 17  1  0  0  0
  9 10  1  0  0  0
  9 15  2  0  0  0
 10 11  2  0  0  0
 11 12  1  0  0  0
 12 13  2  0  0  0
 13 14  1  0  0  0
 13 15  1  0  0  0
 15 16  1  0  0  0
 16 17  2  0  0  0
  4  5  1  0  0  0
  4  6  1  0  0  0
  6 20  1  0  0  0
 20 21  1  0  0  0
 24 25  1  0  0  0
 25 28  1  0  0  0
 25 21  1  0  0  0
 28 29  1  0  0  0
 21 22  2  0  0  0
 31 33  1  0  0  0
 14 18  1  0  0  0
 14 19  1  0  0  0
  5  7  1  0  0  0
 20 23  1  0  0  0
 24 26  1  0  0  0
 24 27  1  0  0  0
 29 30  1  0  0  0
M  END
> <minimizedAffinity>
-9.64454

$$$$
4RRF_A3S_A_501


 33 35  0  0  0  0  0  0  0  0999 V2000
   10.3183   -4.5863    9.4150 C   0  0  0  0  0  0  0  0  0  0  0  0
    9.1803   -3.8918    9.1101 O   0  0  0  0  0  0  0  0  0  0  0  0
    9.2682   -3.4827    7.7050 C   0  0  0  0  0  0  0  0  0  0  0  0
   10.4395   -4.1511    7.0793 C   0  0  0  0  0  0  0  0  0  0  0  0
   10.0123   -5.4544    6.6347 O   0  0  0  0  0  0  0  0  0  0  0  0
   11.3568   -4.1680    8.3349 C   0  0  0  0  0  0  0  0  0  0  0  0
    9.5777   -5.9193    7.3667 H   0  0  0  0  0  0  0  0  0  0  0  0
    9.0992   -2.0115    7.6126 N   0  0  0  0  0  0  0  0  0  0  0  0
    9.7040   -1.2023    6.7631 C   0  0  0  0  0  0  0  0  0  0  0  0
   10.7812   -1.3381    5.9336 N   0  0  0  0  0  0  0  0  0  0  0  0
   11.1871   -0.2814    5.1958 C   0  0  0  0  0  0  0  0  0  0  0  0
   10.6372    0.9375    5.2601 N   0  0  0  0  0  0  0  0  0  0  0  0
    9.5434    1.0938    6.0858 C   0  0  0  0  0  0  0  0  0  0  0  0
    8.9717    2.3002    6.1465 N   0  0  0  0  0  0  0  0  0  0  0  0
    9.0880    0.0379    6.8831 C   0  0  0  0  0  0  0  0  0  0  0  0
    8.0208   -0.1037    7.7816 N   0  0  0  0  0  0  0  0  0  0  0  0
    8.0235   -1.3814    8.2017 C   0  0  0  0  0  0  0  0  0  0  0  0
    9.3049    3.0319    5.5783 H   0  0  0  0  0  0  0  0  0  0  0  0
    8.2175    2.4572    6.7594 H   0  0  0  0  0  0  0  0  0  0  0  0
   12.3315   -5.2242    8.1602 N   0  0  0  0  0  0  0  0  0  0  0  0
   13.5486   -4.9891    7.6925 C   0  0  0  0  0  0  0  0  0  0  0  0
   13.9731   -3.7425    7.3634 O   0  0  0  0  0  0  0  0  0  0  0  0
   12.0818   -6.1468    8.3965 H   0  0  0  0  0  0  0  0  0  0  0  0
   15.8762   -5.8135    7.4228 N   0  0  0  0  0  0  0  0  0  0  0  0
   14.4474   -6.2096    7.3953 C   0  0  0  0  0  0  0  0  0  0  0  0
   16.4585   -6.6273    7.2253 H   0  0  0  0  0  0  0  0  0  0  0  0
   16.1090   -5.4445    8.3448 H   0  0  0  0  0  0  0  0  0  0  0  0
   14.2674   -7.3321    8.4388 C   0  0  0  0  0  0  0  0  0  0  0  0
   15.4163   -8.1842    8.2935 O   0  0  0  0  0  0  0  0  0  0  0  0
   15.4566   -8.5205    7.3846 H   0  0  0  0  0  0  0  0  0  0  0  0
    9.5234   -3.9455   11.5741 O   0  0  0  0  0  0  0  0  0  0  0  0
   10.6838   -4.0192   10.7404 C   0  0  0  0  0  0  0  0  0  0  0  0
    9.7680   -3.5751   12.4365 H   0  0  0  0  0  0  0  0  0  0  0  0
 31 32  1  0  0  0
 32  1  1  0  0  0
  1  2  1  0  0  0
  1  6  1  0  0  0
  2  3  1  0  0  0
  3  8  1  0  0  0
  3  4  1  0  0  0
  8  9  1  0  0  0
  8 17  1  0  0  0
  9 10  1  0  0  0
  9 15  2  0  0  0
 10 11  2  0  0  0
 11 12  1  0  0  0
 12 13  2  0  0  0
 13 14  1  0  0  0
 13 15  1  0  0  0
 15 16  1  0  0  0
 16 17  2  0  0  0
  4  5  1  0  0  0
  4  6  1  0  0  0
  6 20  1  0  0  0
 20 21  1  0  0  0
 24 25  1  0  0  0
 25 28  1  0  0  0
 25 21  1  0  0  0
 28 29  1  0  0  0
 21 22  2  0  0  0
 31 33  1  0  0  0
 14 18  1  0  0  0
 14 19  1  0  0  0
  5  7  1  0  0  0
 20 23  1  0  0  0
 24 26  1  0  0  0
 24 27  1  0  0  0
 29 30  1  0  0  0
M  END
> <minimizedAffinity>
-8.00051

$$$$
4RRF_A3S_A_501


 33 35  0  0  0  0  0  0  0  0999 V2000
   12.7526   -4.0124    5.5184 C   0  0  0  0  0  0  0  0  0  0  0  0
   12.0297   -2.8730    5.7412 O   0  0  0  0  0  0  0  0  0  0  0  0
   11.7464   -2.7958    7.1775 C   0  0  0  0  0  0  0  0  0  0  0  0
   12.5241   -3.8498    7.8808 C   0  0  0  0  0  0  0  0  0  0  0  0
   13.8371   -3.3178    8.1488 O   0  0  0  0  0  0  0  0  0  0  0  0
   12.4808   -4.9193    6.7528 C   0  0  0  0  0  0  0  0  0  0  0  0
   14.2156   -2.9627    7.3292 H   0  0  0  0  0  0  0  0  0  0  0  0
   10.2817   -2.6748    7.3813 N   0  0  0  0  0  0  0  0  0  0  0  0
    9.6245   -2.8826    8.5069 C   0  0  0  0  0  0  0  0  0  0  0  0
    9.9487   -3.4773    9.6936 N   0  0  0  0  0  0  0  0  0  0  0  0
    9.0155   -3.5679   10.6665 C   0  0  0  0  0  0  0  0  0  0  0  0
    7.7468   -3.1619   10.5329 N   0  0  0  0  0  0  0  0  0  0  0  0
    7.4009   -2.5516    9.3453 C   0  0  0  0  0  0  0  0  0  0  0  0
    6.1428   -2.1240    9.2040 N   0  0  0  0  0  0  0  0  0  0  0  0
    8.3226   -2.4429    8.2980 C   0  0  0  0  0  0  0  0  0  0  0  0
    8.2673   -1.8741    7.0175 N   0  0  0  0  0  0  0  0  0  0  0  0
    9.4916   -1.9996    6.4751 C   0  0  0  0  0  0  0  0  0  0  0  0
    5.5074   -2.2082    9.9513 H   0  0  0  0  0  0  0  0  0  0  0  0
    5.8513   -1.7247    8.3527 H   0  0  0  0  0  0  0  0  0  0  0  0
   13.5962   -5.8209    6.9508 N   0  0  0  0  0  0  0  0  0  0  0  0
   13.8333   -6.4022    8.1176 C   0  0  0  0  0  0  0  0  0  0  0  0
   13.0386   -6.2095    9.2011 O   0  0  0  0  0  0  0  0  0  0  0  0
   14.1977   -6.0080    6.1943 H   0  0  0  0  0  0  0  0  0  0  0  0
   14.8662   -8.5167    8.9125 N   0  0  0  0  0  0  0  0  0  0  0  0
   15.1396   -7.2144    8.2582 C   0  0  0  0  0  0  0  0  0  0  0  0
   15.7357   -9.0428    8.9993 H   0  0  0  0  0  0  0  0  0  0  0  0
   14.2024   -9.0477    8.3486 H   0  0  0  0  0  0  0  0  0  0  0  0
   15.7843   -7.5202    6.8900 C   0  0  0  0  0  0  0  0  0  0  0  0
   17.0398   -8.1551    7.1863 O   0  0  0  0  0  0  0  0  0  0  0  0
   17.5809   -7.5627    7.7315 H   0  0  0  0  0  0  0  0  0  0  0  0
   12.2176   -5.9924    4.2948 O   0  0  0  0  0  0  0  0  0  0  0  0
   12.0942   -4.5671    4.3057 C   0  0  0  0  0  0  0  0  0  0  0  0
   11.7866   -6.3481    3.5020 H   0  0  0  0  0  0  0  0  0  0  0  0
 31 32  1  0  0  0
 32  1  1  0  0  0
  1  2  1  0  0  0
  1  6  1  0  0  0
  2  3  1  0  0  0
  3  8  1  0  0  0
  3  4  1  0  0  0
  8  9  1  0  0  0
  8 17  1  0  0  0
  9 10  1  0  0  0
  9 15  2  0  0  0
 10 11  2  0  0  0
 11 12  1  0  0  0
 12 13  2  0  0  0
 13 14  1  0  0  0
 13 15  1  0  0  0
 15 16  1  0  0  0
 16 17  2  0  0  0
  4  5  1  0  0  0
  4  6  1  0  0  0
  6 20  1  0  0  0
 20 21  1  0  0  0
 24 25  1  0  0  0
 25 28  1  0  0  0
 25 21  1  0  0  0
 28 29  1  0  0  0
 21 22  2  0  0  0
 31 33  1  0  0  0
 14 18  1  0  0  0
 14 19  1  0  0  0
  5  7  1  0  0  0
 20 23  1  0  0  0
 24 26  1  0  0  0
 24 27  1  0  0  0
 29 30  1  0  0  0
M  END
> <minimizedAffinity>
-7.28587

$$$$
