4R06_3E7_A_501


 35 39  0  0  0  0  0  0  0  0999 V2000
   18.6186   28.1267   15.3488 C   0  0  0  0  0  0  0  0  0  0  0  0
   19.3933   28.0739   14.1791 C   0  0  0  0  0  0  0  0  0  0  0  0
   18.7364   28.0983   12.8809 C   0  0  0  0  0  0  0  0  0  0  0  0
   17.3537   28.1862   12.7941 C   0  0  0  0  0  0  0  0  0  0  0  0
   16.5845   28.2487   13.9785 C   0  0  0  0  0  0  0  0  0  0  0  0
   17.2241   28.2304   15.2425 C   0  0  0  0  0  0  0  0  0  0  0  0
   16.4814   28.2055   11.7090 N   0  0  0  0  0  0  0  0  0  0  0  0
   15.2067   28.3000   12.1507 C   0  0  0  0  0  0  0  0  0  0  0  0
   15.2125   28.3238   13.5769 C   0  0  0  0  0  0  0  0  0  0  0  0
   18.3353   29.0278   17.6105 N   0  0  0  0  0  0  0  0  0  0  0  0
   19.1827   28.1740   16.7643 C   0  0  0  0  0  0  0  0  0  0  0  0
   20.2233   27.6276   17.1602 O   0  0  0  0  0  0  0  0  0  0  0  0
   17.5561   29.4240   17.1575 H   0  0  0  0  0  0  0  0  0  0  0  0
   18.4797   29.3854   19.0582 C   0  0  0  0  0  0  0  0  0  0  0  0
   20.9033   32.1719   18.2299 C   0  0  0  0  0  0  0  0  0  0  0  0
   21.0679   32.7476   19.4862 C   0  0  0  0  0  0  0  0  0  0  0  0
   20.3962   32.2442   20.5872 C   0  0  0  0  0  0  0  0  0  0  0  0
   19.5599   31.1632   20.4223 C   0  0  0  0  0  0  0  0  0  0  0  0
   19.3867   30.5936   19.1756 C   0  0  0  0  0  0  0  0  0  0  0  0
   20.0730   31.0928   18.0708 C   0  0  0  0  0  0  0  0  0  0  0  0
   18.6506   28.2303   19.9691 C   0  0  0  0  0  0  0  0  0  0  0  0
   17.5667   27.2662   19.8789 C   0  0  0  0  0  0  0  0  0  0  0  0
   16.8886   28.1877   10.1086 S   0  0  0  0  0  0  0  0  0  0  0  0
   15.6518   27.9995    9.3858 O   0  0  0  0  0  0  0  0  0  0  0  0
   17.8837   27.1425    9.7660 O   0  0  0  0  0  0  0  0  0  0  0  0
   17.6318   29.8400    9.8422 C   0  0  0  0  0  0  0  0  0  0  0  0
   19.0573   29.8572    9.7052 C   0  0  0  0  0  0  0  0  0  0  0  0
   19.7440   31.0974    9.4854 C   0  0  0  0  0  0  0  0  0  0  0  0
   19.0148   32.2874    9.4245 C   0  0  0  0  0  0  0  0  0  0  0  0
   17.5475   32.2855    9.5740 C   0  0  0  0  0  0  0  0  0  0  0  0
   16.8669   31.0790    9.7810 C   0  0  0  0  0  0  0  0  0  0  0  0
   16.8548   33.5172    9.5004 C   0  0  0  0  0  0  0  0  0  0  0  0
   15.4989   33.5510    9.6357 C   0  0  0  0  0  0  0  0  0  0  0  0
   14.7782   32.3168    9.8545 C   0  0  0  0  0  0  0  0  0  0  0  0
   15.4380   31.1319    9.9247 C   0  0  0  0  0  0  0  0  0  0  0  0
 24 23  2  0  0  0
 32 33  2  0  0  0
 32 30  1  0  0  0
 29 30  2  0  0  0
 29 28  1  0  0  0
 33 34  1  0  0  0
 30 31  1  0  0  0
 28 27  2  0  0  0
 34 35  2  0  0  0
 25 23  2  0  0  0
 31 35  1  0  0  0
 31 26  2  0  0  0
 27 26  1  0  0  0
 26 23  1  0  0  0
 23  7  1  0  0  0
  7  8  1  0  0  0
  7  4  1  0  0  0
  8  9  2  0  0  0
  4  3  2  0  0  0
  4  5  1  0  0  0
  3  2  1  0  0  0
  9  5  1  0  0  0
  5  6  2  0  0  0
  2  1  2  0  0  0
  6  1  1  0  0  0
  1 11  1  0  0  0
 11 12  2  0  0  0
 11 10  1  0  0  0
 10 14  1  0  0  0
 18 17  2  0  0  0
 18 19  1  0  0  0
 17 16  1  0  0  0
 14 19  1  0  0  0
 14 21  1  0  0  0
 19 20  2  0  0  0
 16 15  2  0  0  0
 21 22  1  0  0  0
 20 15  1  0  0  0
 10 13  1  0  0  0
M  END
> <minimizedAffinity>
-10.96529

$$$$
4R06_3E7_A_501


 35 39  0  0  0  0  0  0  0  0999 V2000
   18.7649   28.2088   15.2214 C   0  0  0  0  0  0  0  0  0  0  0  0
   19.3728   28.2889   13.9584 C   0  0  0  0  0  0  0  0  0  0  0  0
   18.5444   28.3020   12.7621 C   0  0  0  0  0  0  0  0  0  0  0  0
   17.1610   28.2488   12.8642 C   0  0  0  0  0  0  0  0  0  0  0  0
   16.5595   28.1783   14.1416 C   0  0  0  0  0  0  0  0  0  0  0  0
   17.3656   28.1710   15.3066 C   0  0  0  0  0  0  0  0  0  0  0  0
   16.1501   28.2250   11.9070 N   0  0  0  0  0  0  0  0  0  0  0  0
   14.9452   28.1663   12.5182 C   0  0  0  0  0  0  0  0  0  0  0  0
   15.1447   28.1275   13.9300 C   0  0  0  0  0  0  0  0  0  0  0  0
   19.0256   29.3813   17.3578 N   0  0  0  0  0  0  0  0  0  0  0  0
   19.5109   28.2521   16.5501 C   0  0  0  0  0  0  0  0  0  0  0  0
   20.4274   27.4953   16.9042 O   0  0  0  0  0  0  0  0  0  0  0  0
   18.3148   29.9194   16.9401 H   0  0  0  0  0  0  0  0  0  0  0  0
   19.4505   29.8359   18.7207 C   0  0  0  0  0  0  0  0  0  0  0  0
   16.6808   27.9369   20.4664 C   0  0  0  0  0  0  0  0  0  0  0  0
   16.4558   28.7652   21.5619 C   0  0  0  0  0  0  0  0  0  0  0  0
   17.1974   29.9211   21.7374 C   0  0  0  0  0  0  0  0  0  0  0  0
   18.1641   30.2413   20.8109 C   0  0  0  0  0  0  0  0  0  0  0  0
   18.3969   29.4177   19.7264 C   0  0  0  0  0  0  0  0  0  0  0  0
   17.6413   28.2616   19.5438 C   0  0  0  0  0  0  0  0  0  0  0  0
   20.0315   31.1973   18.7682 C   0  0  0  0  0  0  0  0  0  0  0  0
   19.4541   32.0996   17.7859 C   0  0  0  0  0  0  0  0  0  0  0  0
   16.3332   28.3206   10.2685 S   0  0  0  0  0  0  0  0  0  0  0  0
   15.0936   27.8417    9.7014 O   0  0  0  0  0  0  0  0  0  0  0  0
   17.4964   27.5532    9.7604 O   0  0  0  0  0  0  0  0  0  0  0  0
   16.6138   30.1065    9.9771 C   0  0  0  0  0  0  0  0  0  0  0  0
   17.9852   30.5188    9.9657 C   0  0  0  0  0  0  0  0  0  0  0  0
   18.3210   31.8949    9.7386 C   0  0  0  0  0  0  0  0  0  0  0  0
   17.3013   32.8304    9.5472 C   0  0  0  0  0  0  0  0  0  0  0  0
   15.8844   32.4214    9.5664 C   0  0  0  0  0  0  0  0  0  0  0  0
   15.5465   31.0790    9.7795 C   0  0  0  0  0  0  0  0  0  0  0  0
   14.8893   33.4069    9.3633 C   0  0  0  0  0  0  0  0  0  0  0  0
   13.5705   33.0630    9.3762 C   0  0  0  0  0  0  0  0  0  0  0  0
   13.2006   31.6830    9.5989 C   0  0  0  0  0  0  0  0  0  0  0  0
   14.1516   30.7333    9.7931 C   0  0  0  0  0  0  0  0  0  0  0  0
 24 23  2  0  0  0
 32 33  2  0  0  0
 32 30  1  0  0  0
 29 30  2  0  0  0
 29 28  1  0  0  0
 33 34  1  0  0  0
 30 31  1  0  0  0
 28 27  2  0  0  0
 34 35  2  0  0  0
 25 23  2  0  0  0
 31 35  1  0  0  0
 31 26  2  0  0  0
 27 26  1  0  0  0
 26 23  1  0  0  0
 23  7  1  0  0  0
  7  8  1  0  0  0
  7  4  1  0  0  0
  8  9  2  0  0  0
  4  3  2  0  0  0
  4  5  1  0  0  0
  3  2  1  0  0  0
  9  5  1  0  0  0
  5  6  2  0  0  0
  2  1  2  0  0  0
  6  1  1  0  0  0
  1 11  1  0  0  0
 11 12  2  0  0  0
 11 10  1  0  0  0
 10 14  1  0  0  0
 18 17  2  0  0  0
 18 19  1  0  0  0
 17 16  1  0  0  0
 14 19  1  0  0  0
 14 21  1  0  0  0
 19 20  2  0  0  0
 16 15  2  0  0  0
 21 22  1  0  0  0
 20 15  1  0  0  0
 10 13  1  0  0  0
M  END
> <minimizedAffinity>
-10.46919

$$$$
4R06_3E7_A_501


 35 39  0  0  0  0  0  0  0  0999 V2000
   18.5161   28.1607   14.9768 C   0  0  0  0  0  0  0  0  0  0  0  0
   19.0102   28.2733   13.6675 C   0  0  0  0  0  0  0  0  0  0  0  0
   18.0817   28.2760   12.5471 C   0  0  0  0  0  0  0  0  0  0  0  0
   16.7143   28.1811   12.7669 C   0  0  0  0  0  0  0  0  0  0  0  0
   16.2275   28.0781   14.0902 C   0  0  0  0  0  0  0  0  0  0  0  0
   17.1311   28.0809   15.1814 C   0  0  0  0  0  0  0  0  0  0  0  0
   15.6257   28.1387   11.8999 N   0  0  0  0  0  0  0  0  0  0  0  0
   14.4801   28.0376   12.6115 C   0  0  0  0  0  0  0  0  0  0  0  0
   14.8017   27.9882   14.0003 C   0  0  0  0  0  0  0  0  0  0  0  0
   18.9492   29.3363   17.0834 N   0  0  0  0  0  0  0  0  0  0  0  0
   19.3725   28.2104   16.2370 C   0  0  0  0  0  0  0  0  0  0  0  0
   20.3217   27.4609   16.5115 O   0  0  0  0  0  0  0  0  0  0  0  0
   18.2012   29.8687   16.7280 H   0  0  0  0  0  0  0  0  0  0  0  0
   19.4854   29.7949   18.4051 C   0  0  0  0  0  0  0  0  0  0  0  0
   16.8613   27.9366   20.4015 C   0  0  0  0  0  0  0  0  0  0  0  0
   16.6930   28.8079   21.4735 C   0  0  0  0  0  0  0  0  0  0  0  0
   17.4261   29.9797   21.5530 C   0  0  0  0  0  0  0  0  0  0  0  0
   18.3273   30.2724   20.5542 C   0  0  0  0  0  0  0  0  0  0  0  0
   18.5040   29.4064   19.4924 C   0  0  0  0  0  0  0  0  0  0  0  0
   17.7564   28.2339   19.4069 C   0  0  0  0  0  0  0  0  0  0  0  0
   20.0937   31.1450   18.3938 C   0  0  0  0  0  0  0  0  0  0  0  0
   21.0703   31.3229   17.3322 C   0  0  0  0  0  0  0  0  0  0  0  0
   15.6639   28.2587   10.2532 S   0  0  0  0  0  0  0  0  0  0  0  0
   14.5843   27.4293    9.7691 O   0  0  0  0  0  0  0  0  0  0  0  0
   16.9647   27.8577    9.6639 O   0  0  0  0  0  0  0  0  0  0  0  0
   15.3888   30.0438    9.9520 C   0  0  0  0  0  0  0  0  0  0  0  0
   14.0195   30.4390    9.8112 C   0  0  0  0  0  0  0  0  0  0  0  0
   13.6880   31.8154    9.5799 C   0  0  0  0  0  0  0  0  0  0  0  0
   14.7100   32.7620    9.4752 C   0  0  0  0  0  0  0  0  0  0  0  0
   16.1249   32.3675    9.6082 C   0  0  0  0  0  0  0  0  0  0  0  0
   16.4585   31.0275    9.8420 C   0  0  0  0  0  0  0  0  0  0  0  0
   17.1224   33.3653    9.4982 C   0  0  0  0  0  0  0  0  0  0  0  0
   18.4394   33.0345    9.6149 C   0  0  0  0  0  0  0  0  0  0  0  0
   18.8049   31.6557    9.8520 C   0  0  0  0  0  0  0  0  0  0  0  0
   17.8516   30.6947    9.9596 C   0  0  0  0  0  0  0  0  0  0  0  0
 24 23  2  0  0  0
 32 33  2  0  0  0
 32 30  1  0  0  0
 29 30  2  0  0  0
 29 28  1  0  0  0
 33 34  1  0  0  0
 30 31  1  0  0  0
 28 27  2  0  0  0
 34 35  2  0  0  0
 25 23  2  0  0  0
 31 35  1  0  0  0
 31 26  2  0  0  0
 27 26  1  0  0  0
 26 23  1  0  0  0
 23  7  1  0  0  0
  7  8  1  0  0  0
  7  4  1  0  0  0
  8  9  2  0  0  0
  4  3  2  0  0  0
  4  5  1  0  0  0
  3  2  1  0  0  0
  9  5  1  0  0  0
  5  6  2  0  0  0
  2  1  2  0  0  0
  6  1  1  0  0  0
  1 11  1  0  0  0
 11 12  2  0  0  0
 11 10  1  0  0  0
 10 14  1  0  0  0
 18 17  2  0  0  0
 18 19  1  0  0  0
 17 16  1  0  0  0
 14 19  1  0  0  0
 14 21  1  0  0  0
 19 20  2  0  0  0
 16 15  2  0  0  0
 21 22  1  0  0  0
 20 15  1  0  0  0
 10 13  1  0  0  0
M  END
> <minimizedAffinity>
-10.34345

$$$$
4R06_3E7_A_501


 35 39  0  0  0  0  0  0  0  0999 V2000
   18.2564   28.0988   15.2737 C   0  0  0  0  0  0  0  0  0  0  0  0
   18.8935   28.2515   14.0320 C   0  0  0  0  0  0  0  0  0  0  0  0
   18.0979   28.2663   12.8136 C   0  0  0  0  0  0  0  0  0  0  0  0
   16.7165   28.1436   12.8744 C   0  0  0  0  0  0  0  0  0  0  0  0
   16.0850   28.0002   14.1311 C   0  0  0  0  0  0  0  0  0  0  0  0
   16.8589   27.9911   15.3177 C   0  0  0  0  0  0  0  0  0  0  0  0
   15.7341   28.1045   11.8885 N   0  0  0  0  0  0  0  0  0  0  0  0
   14.5174   27.9672   12.4628 C   0  0  0  0  0  0  0  0  0  0  0  0
   14.6806   27.8891   13.8777 C   0  0  0  0  0  0  0  0  0  0  0  0
   18.1685   28.9122   17.5841 N   0  0  0  0  0  0  0  0  0  0  0  0
   18.9635   28.1317   16.6239 C   0  0  0  0  0  0  0  0  0  0  0  0
   20.0659   27.6294   16.8896 O   0  0  0  0  0  0  0  0  0  0  0  0
   17.3272   29.2803   17.2291 H   0  0  0  0  0  0  0  0  0  0  0  0
   18.4467   29.2314   19.0213 C   0  0  0  0  0  0  0  0  0  0  0  0
   20.8764   31.9704   18.0623 C   0  0  0  0  0  0  0  0  0  0  0  0
   21.0859   32.5695   19.3008 C   0  0  0  0  0  0  0  0  0  0  0  0
   20.4422   32.0971   20.4319 C   0  0  0  0  0  0  0  0  0  0  0  0
   19.5887   31.0233   20.3148 C   0  0  0  0  0  0  0  0  0  0  0  0
   19.3709   30.4305   19.0860 C   0  0  0  0  0  0  0  0  0  0  0  0
   20.0291   30.8986   17.9509 C   0  0  0  0  0  0  0  0  0  0  0  0
   18.6895   28.0522   19.8835 C   0  0  0  0  0  0  0  0  0  0  0  0
   17.5860   27.1064   19.8824 C   0  0  0  0  0  0  0  0  0  0  0  0
   15.9563   28.2654   10.2600 S   0  0  0  0  0  0  0  0  0  0  0  0
   14.7348   27.8000    9.6443 O   0  0  0  0  0  0  0  0  0  0  0  0
   17.1379   27.5269    9.7513 O   0  0  0  0  0  0  0  0  0  0  0  0
   16.2291   30.0633   10.0452 C   0  0  0  0  0  0  0  0  0  0  0  0
   15.0511   30.8751   10.1092 C   0  0  0  0  0  0  0  0  0  0  0  0
   15.1493   32.2987    9.9614 C   0  0  0  0  0  0  0  0  0  0  0  0
   16.3979   32.8835    9.7369 C   0  0  0  0  0  0  0  0  0  0  0  0
   17.6181   32.0586    9.6586 C   0  0  0  0  0  0  0  0  0  0  0  0
   17.5337   30.6687    9.8095 C   0  0  0  0  0  0  0  0  0  0  0  0
   18.8593   32.6998    9.4336 C   0  0  0  0  0  0  0  0  0  0  0  0
   20.0058   31.9669    9.3547 C   0  0  0  0  0  0  0  0  0  0  0  0
   19.9394   30.5302    9.5034 C   0  0  0  0  0  0  0  0  0  0  0  0
   18.7510   29.9100    9.7207 C   0  0  0  0  0  0  0  0  0  0  0  0
 24 23  2  0  0  0
 32 33  2  0  0  0
 32 30  1  0  0  0
 29 30  2  0  0  0
 29 28  1  0  0  0
 33 34  1  0  0  0
 30 31  1  0  0  0
 28 27  2  0  0  0
 34 35  2  0  0  0
 25 23  2  0  0  0
 31 35  1  0  0  0
 31 26  2  0  0  0
 27 26  1  0  0  0
 26 23  1  0  0  0
 23  7  1  0  0  0
  7  8  1  0  0  0
  7  4  1  0  0  0
  8  9  2  0  0  0
  4  3  2  0  0  0
  4  5  1  0  0  0
  3  2  1  0  0  0
  9  5  1  0  0  0
  5  6  2  0  0  0
  2  1  2  0  0  0
  6  1  1  0  0  0
  1 11  1  0  0  0
 11 12  2  0  0  0
 11 10  1  0  0  0
 10 14  1  0  0  0
 18 17  2  0  0  0
 18 19  1  0  0  0
 17 16  1  0  0  0
 14 19  1  0  0  0
 14 21  1  0  0  0
 19 20  2  0  0  0
 16 15  2  0  0  0
 21 22  1  0  0  0
 20 15  1  0  0  0
 10 13  1  0  0  0
M  END
> <minimizedAffinity>
-10.25589

$$$$
4R06_3E7_A_501


 35 39  0  0  0  0  0  0  0  0999 V2000
   18.5866   28.2073   15.0416 C   0  0  0  0  0  0  0  0  0  0  0  0
   19.0883   28.3845   13.7424 C   0  0  0  0  0  0  0  0  0  0  0  0
   18.1696   28.4036   12.6140 C   0  0  0  0  0  0  0  0  0  0  0  0
   16.8038   28.2608   12.8170 C   0  0  0  0  0  0  0  0  0  0  0  0
   16.3090   28.0928   14.1306 C   0  0  0  0  0  0  0  0  0  0  0  0
   17.2028   28.0796   15.2297 C   0  0  0  0  0  0  0  0  0  0  0  0
   15.7242   28.2205   11.9386 N   0  0  0  0  0  0  0  0  0  0  0  0
   14.5761   28.0589   12.6348 C   0  0  0  0  0  0  0  0  0  0  0  0
   14.8873   27.9653   14.0237 C   0  0  0  0  0  0  0  0  0  0  0  0
   18.9840   29.3289   17.1843 N   0  0  0  0  0  0  0  0  0  0  0  0
   19.4305   28.2330   16.3109 C   0  0  0  0  0  0  0  0  0  0  0  0
   20.3873   27.4890   16.5735 O   0  0  0  0  0  0  0  0  0  0  0  0
   18.2320   29.8609   16.8368 H   0  0  0  0  0  0  0  0  0  0  0  0
   19.5014   29.7573   18.5235 C   0  0  0  0  0  0  0  0  0  0  0  0
   16.7729   27.9579   20.4320 C   0  0  0  0  0  0  0  0  0  0  0  0
   16.6109   28.8171   21.5147 C   0  0  0  0  0  0  0  0  0  0  0  0
   17.3813   29.9616   21.6295 C   0  0  0  0  0  0  0  0  0  0  0  0
   18.3135   30.2395   20.6553 C   0  0  0  0  0  0  0  0  0  0  0  0
   18.4839   29.3852   19.5830 C   0  0  0  0  0  0  0  0  0  0  0  0
   17.6991   28.2405   19.4618 C   0  0  0  0  0  0  0  0  0  0  0  0
   20.1480   31.0894   18.5423 C   0  0  0  0  0  0  0  0  0  0  0  0
   19.4397   32.0796   17.7484 C   0  0  0  0  0  0  0  0  0  0  0  0
   15.7728   28.4049   10.2982 S   0  0  0  0  0  0  0  0  0  0  0  0
   15.5442   27.0905    9.7434 O   0  0  0  0  0  0  0  0  0  0  0  0
   17.0458   28.9883    9.8089 O   0  0  0  0  0  0  0  0  0  0  0  0
   14.4040   29.5741    9.9626 C   0  0  0  0  0  0  0  0  0  0  0  0
   13.1193   28.9741    9.7613 C   0  0  0  0  0  0  0  0  0  0  0  0
   11.9740   29.7971    9.4986 C   0  0  0  0  0  0  0  0  0  0  0  0
   12.1249   31.1839    9.4229 C   0  0  0  0  0  0  0  0  0  0  0  0
   13.4438   31.8145    9.6183 C   0  0  0  0  0  0  0  0  0  0  0  0
   14.5667   31.0202    9.8830 C   0  0  0  0  0  0  0  0  0  0  0  0
   13.5428   33.2237    9.5356 C   0  0  0  0  0  0  0  0  0  0  0  0
   14.7468   33.8382    9.7099 C   0  0  0  0  0  0  0  0  0  0  0  0
   15.9190   33.0357    9.9798 C   0  0  0  0  0  0  0  0  0  0  0  0
   15.8292   31.6832   10.0613 C   0  0  0  0  0  0  0  0  0  0  0  0
 24 23  2  0  0  0
 32 33  2  0  0  0
 32 30  1  0  0  0
 29 30  2  0  0  0
 29 28  1  0  0  0
 33 34  1  0  0  0
 30 31  1  0  0  0
 28 27  2  0  0  0
 34 35  2  0  0  0
 25 23  2  0  0  0
 31 35  1  0  0  0
 31 26  2  0  0  0
 27 26  1  0  0  0
 26 23  1  0  0  0
 23  7  1  0  0  0
  7  8  1  0  0  0
  7  4  1  0  0  0
  8  9  2  0  0  0
  4  3  2  0  0  0
  4  5  1  0  0  0
  3  2  1  0  0  0
  9  5  1  0  0  0
  5  6  2  0  0  0
  2  1  2  0  0  0
  6  1  1  0  0  0
  1 11  1  0  0  0
 11 12  2  0  0  0
 11 10  1  0  0  0
 10 14  1  0  0  0
 18 17  2  0  0  0
 18 19  1  0  0  0
 17 16  1  0  0  0
 14 19  1  0  0  0
 14 21  1  0  0  0
 19 20  2  0  0  0
 16 15  2  0  0  0
 21 22  1  0  0  0
 20 15  1  0  0  0
 10 13  1  0  0  0
M  END
> <minimizedAffinity>
-9.44448

$$$$
4R06_3E7_A_501


 35 39  0  0  0  0  0  0  0  0999 V2000
   18.0953   28.3586   15.0622 C   0  0  0  0  0  0  0  0  0  0  0  0
   16.8186   28.9147   14.8839 C   0  0  0  0  0  0  0  0  0  0  0  0
   16.2338   28.9585   13.5520 C   0  0  0  0  0  0  0  0  0  0  0  0
   16.9245   28.4433   12.4637 C   0  0  0  0  0  0  0  0  0  0  0  0
   18.2053   27.8769   12.6567 C   0  0  0  0  0  0  0  0  0  0  0  0
   18.7725   27.8293   13.9541 C   0  0  0  0  0  0  0  0  0  0  0  0
   16.6202   28.3749   11.1066 N   0  0  0  0  0  0  0  0  0  0  0  0
   17.6336   27.7745   10.4422 C   0  0  0  0  0  0  0  0  0  0  0  0
   18.6645   27.4453   11.3714 C   0  0  0  0  0  0  0  0  0  0  0  0
   18.1378   29.0421   17.4156 N   0  0  0  0  0  0  0  0  0  0  0  0
   18.7916   28.1931   16.4081 C   0  0  0  0  0  0  0  0  0  0  0  0
   19.7907   27.4953   16.6388 O   0  0  0  0  0  0  0  0  0  0  0  0
   17.3735   29.5683   17.0867 H   0  0  0  0  0  0  0  0  0  0  0  0
   18.4602   29.2266   18.8670 C   0  0  0  0  0  0  0  0  0  0  0  0
   20.9606   31.9705   18.1290 C   0  0  0  0  0  0  0  0  0  0  0  0
   21.0727   32.5572   19.3860 C   0  0  0  0  0  0  0  0  0  0  0  0
   20.3416   32.0749   20.4582 C   0  0  0  0  0  0  0  0  0  0  0  0
   19.4988   31.0037   20.2639 C   0  0  0  0  0  0  0  0  0  0  0  0
   19.3777   30.4234   19.0160 C   0  0  0  0  0  0  0  0  0  0  0  0
   20.1236   30.9013   17.9408 C   0  0  0  0  0  0  0  0  0  0  0  0
   18.7392   27.9736   19.6053 C   0  0  0  0  0  0  0  0  0  0  0  0
   17.5483   27.1771   19.8497 C   0  0  0  0  0  0  0  0  0  0  0  0
   15.2246   28.8717   10.3769 S   0  0  0  0  0  0  0  0  0  0  0  0
   14.1677   28.6248   11.3305 O   0  0  0  0  0  0  0  0  0  0  0  0
   14.9617   28.1922    9.0849 O   0  0  0  0  0  0  0  0  0  0  0  0
   15.5164   30.6539   10.0737 C   0  0  0  0  0  0  0  0  0  0  0  0
   16.8877   31.0656   10.1045 C   0  0  0  0  0  0  0  0  0  0  0  0
   17.2321   32.4388    9.8724 C   0  0  0  0  0  0  0  0  0  0  0  0
   16.2203   33.3721    9.6348 C   0  0  0  0  0  0  0  0  0  0  0  0
   14.8032   32.9640    9.6101 C   0  0  0  0  0  0  0  0  0  0  0  0
   14.4572   31.6243    9.8277 C   0  0  0  0  0  0  0  0  0  0  0  0
   13.8165   33.9472    9.3610 C   0  0  0  0  0  0  0  0  0  0  0  0
   12.4977   33.6039    9.3327 C   0  0  0  0  0  0  0  0  0  0  0  0
   12.1194   32.2269    9.5593 C   0  0  0  0  0  0  0  0  0  0  0  0
   13.0625   31.2793    9.7976 C   0  0  0  0  0  0  0  0  0  0  0  0
 24 23  2  0  0  0
 32 33  2  0  0  0
 32 30  1  0  0  0
 29 30  2  0  0  0
 29 28  1  0  0  0
 33 34  1  0  0  0
 30 31  1  0  0  0
 28 27  2  0  0  0
 34 35  2  0  0  0
 25 23  2  0  0  0
 31 35  1  0  0  0
 31 26  2  0  0  0
 27 26  1  0  0  0
 26 23  1  0  0  0
 23  7  1  0  0  0
  7  8  1  0  0  0
  7  4  1  0  0  0
  8  9  2  0  0  0
  4  3  2  0  0  0
  4  5  1  0  0  0
  3  2  1  0  0  0
  9  5  1  0  0  0
  5  6  2  0  0  0
  2  1  2  0  0  0
  6  1  1  0  0  0
  1 11  1  0  0  0
 11 12  2  0  0  0
 11 10  1  0  0  0
 10 14  1  0  0  0
 18 17  2  0  0  0
 18 19  1  0  0  0
 17 16  1  0  0  0
 14 19  1  0  0  0
 14 21  1  0  0  0
 19 20  2  0  0  0
 16 15  2  0  0  0
 21 22  1  0  0  0
 20 15  1  0  0  0
 10 13  1  0  0  0
M  END
> <minimizedAffinity>
-8.99276

$$$$
4R06_3E7_A_501


 35 39  0  0  0  0  0  0  0  0999 V2000
   17.2060   28.2640   12.9050 C   0  0  0  0  0  0  0  0  0  0  0  0
   16.5688   28.9219   13.9690 C   0  0  0  0  0  0  0  0  0  0  0  0
   17.1950   28.9370   15.2825 C   0  0  0  0  0  0  0  0  0  0  0  0
   18.4207   28.3173   15.4842 C   0  0  0  0  0  0  0  0  0  0  0  0
   19.0578   27.6662   14.4031 C   0  0  0  0  0  0  0  0  0  0  0  0
   18.4509   27.6561   13.1229 C   0  0  0  0  0  0  0  0  0  0  0  0
   19.2185   28.1621   16.6148 N   0  0  0  0  0  0  0  0  0  0  0  0
   20.3336   27.4674   16.2937 C   0  0  0  0  0  0  0  0  0  0  0  0
   20.2809   27.1227   14.9106 C   0  0  0  0  0  0  0  0  0  0  0  0
   15.5194   29.1084   11.3399 N   0  0  0  0  0  0  0  0  0  0  0  0
   16.6914   28.2294   11.4705 C   0  0  0  0  0  0  0  0  0  0  0  0
   17.1400   27.5371   10.5444 O   0  0  0  0  0  0  0  0  0  0  0  0
   15.2528   29.5753   12.1646 H   0  0  0  0  0  0  0  0  0  0  0  0
   14.6702   29.3999   10.1405 C   0  0  0  0  0  0  0  0  0  0  0  0
   15.7782   33.0025    9.7961 C   0  0  0  0  0  0  0  0  0  0  0  0
   14.5635   33.6153    9.5037 C   0  0  0  0  0  0  0  0  0  0  0  0
   13.4005   32.8698    9.4116 C   0  0  0  0  0  0  0  0  0  0  0  0
   13.4618   31.5094    9.6133 C   0  0  0  0  0  0  0  0  0  0  0  0
   14.6668   30.8953    9.8954 C   0  0  0  0  0  0  0  0  0  0  0  0
   15.8342   31.6482   10.0006 C   0  0  0  0  0  0  0  0  0  0  0  0
   13.4088   28.6273   10.0701 C   0  0  0  0  0  0  0  0  0  0  0  0
   13.1587   27.8318   11.2605 C   0  0  0  0  0  0  0  0  0  0  0  0
   18.9303   28.7698   18.1230 S   0  0  0  0  0  0  0  0  0  0  0  0
   19.5770   27.8657   19.0461 O   0  0  0  0  0  0  0  0  0  0  0  0
   17.4873   28.9216   18.4307 O   0  0  0  0  0  0  0  0  0  0  0  0
   19.7140   30.4240   18.0701 C   0  0  0  0  0  0  0  0  0  0  0  0
   20.1988   30.8330   16.7861 C   0  0  0  0  0  0  0  0  0  0  0  0
   20.8242   32.1143   16.6278 C   0  0  0  0  0  0  0  0  0  0  0  0
   20.9725   32.9503   17.7371 C   0  0  0  0  0  0  0  0  0  0  0  0
   20.4870   32.5377   19.0673 C   0  0  0  0  0  0  0  0  0  0  0  0
   19.8680   31.2919   19.2306 C   0  0  0  0  0  0  0  0  0  0  0  0
   20.6577   33.4227   20.1582 C   0  0  0  0  0  0  0  0  0  0  0  0
   20.2217   33.0718   21.4010 C   0  0  0  0  0  0  0  0  0  0  0  0
   19.5840   31.7881   21.5915 C   0  0  0  0  0  0  0  0  0  0  0  0
   19.4165   30.9357   20.5477 C   0  0  0  0  0  0  0  0  0  0  0  0
 24 23  2  0  0  0
 32 33  2  0  0  0
 32 30  1  0  0  0
 29 30  2  0  0  0
 29 28  1  0  0  0
 33 34  1  0  0  0
 30 31  1  0  0  0
 28 27  2  0  0  0
 34 35  2  0  0  0
 25 23  2  0  0  0
 31 35  1  0  0  0
 31 26  2  0  0  0
 27 26  1  0  0  0
 26 23  1  0  0  0
 23  7  1  0  0  0
  7  8  1  0  0  0
  7  4  1  0  0  0
  8  9  2  0  0  0
  4  3  2  0  0  0
  4  5  1  0  0  0
  3  2  1  0  0  0
  9  5  1  0  0  0
  5  6  2  0  0  0
  2  1  2  0  0  0
  6  1  1  0  0  0
  1 11  1  0  0  0
 11 12  2  0  0  0
 11 10  1  0  0  0
 10 14  1  0  0  0
 18 17  2  0  0  0
 18 19  1  0  0  0
 17 16  1  0  0  0
 14 19  1  0  0  0
 14 21  1  0  0  0
 19 20  2  0  0  0
 16 15  2  0  0  0
 21 22  1  0  0  0
 20 15  1  0  0  0
 10 13  1  0  0  0
M  END
> <minimizedAffinity>
-8.50299

$$$$
4R06_3E7_A_501


 35 39  0  0  0  0  0  0  0  0999 V2000
   18.1583   28.4135   14.7380 C   0  0  0  0  0  0  0  0  0  0  0  0
   16.8695   28.9645   14.6580 C   0  0  0  0  0  0  0  0  0  0  0  0
   16.1830   29.0028   13.3755 C   0  0  0  0  0  0  0  0  0  0  0  0
   16.7891   28.4874   12.2380 C   0  0  0  0  0  0  0  0  0  0  0  0
   18.0831   27.9260   12.3323 C   0  0  0  0  0  0  0  0  0  0  0  0
   18.7494   27.8837   13.5819 C   0  0  0  0  0  0  0  0  0  0  0  0
   16.3806   28.4144   10.9088 N   0  0  0  0  0  0  0  0  0  0  0  0
   17.3416   27.8159   10.1691 C   0  0  0  0  0  0  0  0  0  0  0  0
   18.4427   27.4928   11.0163 C   0  0  0  0  0  0  0  0  0  0  0  0
   18.8706   29.4870   16.8230 N   0  0  0  0  0  0  0  0  0  0  0  0
   18.9576   28.2538   16.0262 C   0  0  0  0  0  0  0  0  0  0  0  0
   19.6305   27.2659   16.3569 O   0  0  0  0  0  0  0  0  0  0  0  0
   18.3264   30.2045   16.4252 H   0  0  0  0  0  0  0  0  0  0  0  0
   19.4859   29.8155   18.1490 C   0  0  0  0  0  0  0  0  0  0  0  0
   17.0240   27.7843   20.1833 C   0  0  0  0  0  0  0  0  0  0  0  0
   16.8061   28.6465   21.2537 C   0  0  0  0  0  0  0  0  0  0  0  0
   17.4545   29.8680   21.3199 C   0  0  0  0  0  0  0  0  0  0  0  0
   18.3211   30.2195   20.3096 C   0  0  0  0  0  0  0  0  0  0  0  0
   18.5471   29.3632   19.2492 C   0  0  0  0  0  0  0  0  0  0  0  0
   17.8843   28.1400   19.1771 C   0  0  0  0  0  0  0  0  0  0  0  0
   20.1365   31.1439   18.2198 C   0  0  0  0  0  0  0  0  0  0  0  0
   21.2719   31.2727   17.3216 C   0  0  0  0  0  0  0  0  0  0  0  0
   14.9307   28.9044   10.2884 S   0  0  0  0  0  0  0  0  0  0  0  0
   13.9434   28.6020   11.2990 O   0  0  0  0  0  0  0  0  0  0  0  0
   14.5978   28.2631    8.9931 O   0  0  0  0  0  0  0  0  0  0  0  0
   15.1664   30.7019   10.0297 C   0  0  0  0  0  0  0  0  0  0  0  0
   16.5263   31.1507   10.0407 C   0  0  0  0  0  0  0  0  0  0  0  0
   16.8275   32.5389    9.8402 C   0  0  0  0  0  0  0  0  0  0  0  0
   15.7852   33.4499    9.6527 C   0  0  0  0  0  0  0  0  0  0  0  0
   14.3796   33.0031    9.6491 C   0  0  0  0  0  0  0  0  0  0  0  0
   14.0756   31.6487    9.8361 C   0  0  0  0  0  0  0  0  0  0  0  0
   13.3607   33.9649    9.4510 C   0  0  0  0  0  0  0  0  0  0  0  0
   12.0515   33.5858    9.4432 C   0  0  0  0  0  0  0  0  0  0  0  0
   11.7165   32.1929    9.6390 C   0  0  0  0  0  0  0  0  0  0  0  0
   12.6904   31.2658    9.8282 C   0  0  0  0  0  0  0  0  0  0  0  0
 24 23  2  0  0  0
 32 33  2  0  0  0
 32 30  1  0  0  0
 29 30  2  0  0  0
 29 28  1  0  0  0
 33 34  1  0  0  0
 30 31  1  0  0  0
 28 27  2  0  0  0
 34 35  2  0  0  0
 25 23  2  0  0  0
 31 35  1  0  0  0
 31 26  2  0  0  0
 27 26  1  0  0  0
 26 23  1  0  0  0
 23  7  1  0  0  0
  7  8  1  0  0  0
  7  4  1  0  0  0
  8  9  2  0  0  0
  4  3  2  0  0  0
  4  5  1  0  0  0
  3  2  1  0  0  0
  9  5  1  0  0  0
  5  6  2  0  0  0
  2  1  2  0  0  0
  6  1  1  0  0  0
  1 11  1  0  0  0
 11 12  2  0  0  0
 11 10  1  0  0  0
 10 14  1  0  0  0
 18 17  2  0  0  0
 18 19  1  0  0  0
 17 16  1  0  0  0
 14 19  1  0  0  0
 14 21  1  0  0  0
 19 20  2  0  0  0
 16 15  2  0  0  0
 21 22  1  0  0  0
 20 15  1  0  0  0
 10 13  1  0  0  0
M  END
> <minimizedAffinity>
-8.40316

$$$$
4R06_3E7_A_501


 35 39  0  0  0  0  0  0  0  0999 V2000
   18.4786   28.1170   14.5128 C   0  0  0  0  0  0  0  0  0  0  0  0
   18.8249   28.2378   13.1576 C   0  0  0  0  0  0  0  0  0  0  0  0
   17.7782   28.2449   12.1467 C   0  0  0  0  0  0  0  0  0  0  0  0
   16.4436   28.1461   12.5158 C   0  0  0  0  0  0  0  0  0  0  0  0
   16.1062   28.0348   13.8841 C   0  0  0  0  0  0  0  0  0  0  0  0
   17.1248   28.0333   14.8688 C   0  0  0  0  0  0  0  0  0  0  0  0
   15.2658   28.1065   11.7742 N   0  0  0  0  0  0  0  0  0  0  0  0
   14.2061   27.9992   12.6075 C   0  0  0  0  0  0  0  0  0  0  0  0
   14.6793   27.9427   13.9519 C   0  0  0  0  0  0  0  0  0  0  0  0
   20.1911   29.4426   15.6606 N   0  0  0  0  0  0  0  0  0  0  0  0
   19.4690   28.1613   15.6709 C   0  0  0  0  0  0  0  0  0  0  0  0
   19.6911   27.2518   16.4843 O   0  0  0  0  0  0  0  0  0  0  0  0
   19.9354   30.0610   14.9386 H   0  0  0  0  0  0  0  0  0  0  0  0
   21.2574   29.9480   16.5838 C   0  0  0  0  0  0  0  0  0  0  0  0
   20.4502   32.9026   18.8072 C   0  0  0  0  0  0  0  0  0  0  0  0
   19.4492   32.3553   19.6041 C   0  0  0  0  0  0  0  0  0  0  0  0
   19.0351   31.0472   19.4188 C   0  0  0  0  0  0  0  0  0  0  0  0
   19.6284   30.2925   18.4320 C   0  0  0  0  0  0  0  0  0  0  0  0
   20.6165   30.8342   17.6327 C   0  0  0  0  0  0  0  0  0  0  0  0
   21.0414   32.1464   17.8286 C   0  0  0  0  0  0  0  0  0  0  0  0
   22.5106   30.3665   15.9150 C   0  0  0  0  0  0  0  0  0  0  0  0
   22.6230   29.8743   14.5521 C   0  0  0  0  0  0  0  0  0  0  0  0
   15.1217   28.2357   10.1341 S   0  0  0  0  0  0  0  0  0  0  0  0
   14.0767   27.3134    9.7531 O   0  0  0  0  0  0  0  0  0  0  0  0
   16.3849   27.9569    9.4084 O   0  0  0  0  0  0  0  0  0  0  0  0
   14.6571   29.9895    9.8866 C   0  0  0  0  0  0  0  0  0  0  0  0
   13.2535   30.2397    9.7509 C   0  0  0  0  0  0  0  0  0  0  0  0
   12.7765   31.5792    9.5603 C   0  0  0  0  0  0  0  0  0  0  0  0
   13.6911   32.6328    9.4901 C   0  0  0  0  0  0  0  0  0  0  0  0
   15.1400   32.3884    9.6182 C   0  0  0  0  0  0  0  0  0  0  0  0
   15.6152   31.0852    9.8124 C   0  0  0  0  0  0  0  0  0  0  0  0
   16.0247   33.4903    9.5441 C   0  0  0  0  0  0  0  0  0  0  0  0
   17.3695   33.2992    9.6574 C   0  0  0  0  0  0  0  0  0  0  0  0
   17.8805   31.9609    9.8539 C   0  0  0  0  0  0  0  0  0  0  0  0
   17.0357   30.9002    9.9269 C   0  0  0  0  0  0  0  0  0  0  0  0
 24 23  2  0  0  0
 32 33  2  0  0  0
 32 30  1  0  0  0
 29 30  2  0  0  0
 29 28  1  0  0  0
 33 34  1  0  0  0
 30 31  1  0  0  0
 28 27  2  0  0  0
 34 35  2  0  0  0
 25 23  2  0  0  0
 31 35  1  0  0  0
 31 26  2  0  0  0
 27 26  1  0  0  0
 26 23  1  0  0  0
 23  7  1  0  0  0
  7  8  1  0  0  0
  7  4  1  0  0  0
  8  9  2  0  0  0
  4  3  2  0  0  0
  4  5  1  0  0  0
  3  2  1  0  0  0
  9  5  1  0  0  0
  5  6  2  0  0  0
  2  1  2  0  0  0
  6  1  1  0  0  0
  1 11  1  0  0  0
 11 12  2  0  0  0
 11 10  1  0  0  0
 10 14  1  0  0  0
 18 17  2  0  0  0
 18 19  1  0  0  0
 17 16  1  0  0  0
 14 19  1  0  0  0
 14 21  1  0  0  0
 19 20  2  0  0  0
 16 15  2  0  0  0
 21 22  1  0  0  0
 20 15  1  0  0  0
 10 13  1  0  0  0
M  END
> <minimizedAffinity>
-8.24546

$$$$
4R06_3E7_A_501


 35 39  0  0  0  0  0  0  0  0999 V2000
   16.9209   28.7084   11.5871 C   0  0  0  0  0  0  0  0  0  0  0  0
   18.3069   28.9238   11.6495 C   0  0  0  0  0  0  0  0  0  0  0  0
   19.0057   28.7432   12.9131 C   0  0  0  0  0  0  0  0  0  0  0  0
   18.3130   28.3478   14.0493 C   0  0  0  0  0  0  0  0  0  0  0  0
   16.9193   28.1242   13.9724 C   0  0  0  0  0  0  0  0  0  0  0  0
   16.2396   28.2949   12.7410 C   0  0  0  0  0  0  0  0  0  0  0  0
   18.7159   28.1256   15.3635 N   0  0  0  0  0  0  0  0  0  0  0  0
   17.6515   27.7521   16.1094 C   0  0  0  0  0  0  0  0  0  0  0  0
   16.4890   27.7414   15.2829 C   0  0  0  0  0  0  0  0  0  0  0  0
   14.9576   29.7228   10.5272 N   0  0  0  0  0  0  0  0  0  0  0  0
   16.0829   28.7993   10.3170 C   0  0  0  0  0  0  0  0  0  0  0  0
   16.2669   28.1653    9.2671 O   0  0  0  0  0  0  0  0  0  0  0  0
   14.9153   30.1341   11.4206 H   0  0  0  0  0  0  0  0  0  0  0  0
   13.8660   30.1316    9.5860 C   0  0  0  0  0  0  0  0  0  0  0  0
   14.8607   33.7779    9.3856 C   0  0  0  0  0  0  0  0  0  0  0  0
   13.6174   34.3884    9.5204 C   0  0  0  0  0  0  0  0  0  0  0  0
   12.4695   33.6283    9.6668 C   0  0  0  0  0  0  0  0  0  0  0  0
   12.5744   32.2557    9.6769 C   0  0  0  0  0  0  0  0  0  0  0  0
   13.8055   31.6449    9.5348 C   0  0  0  0  0  0  0  0  0  0  0  0
   14.9613   32.4109    9.4006 C   0  0  0  0  0  0  0  0  0  0  0  0
   12.6216   29.3364    9.6954 C   0  0  0  0  0  0  0  0  0  0  0  0
   12.7511   28.1912   10.5810 C   0  0  0  0  0  0  0  0  0  0  0  0
   20.2532   28.2215   15.9593 S   0  0  0  0  0  0  0  0  0  0  0  0
   21.1036   28.4925   14.8232 O   0  0  0  0  0  0  0  0  0  0  0  0
   20.6821   26.9986   16.6809 O   0  0  0  0  0  0  0  0  0  0  0  0
   20.1637   29.6191   17.1392 C   0  0  0  0  0  0  0  0  0  0  0  0
   20.9396   30.7702   16.7874 C   0  0  0  0  0  0  0  0  0  0  0  0
   20.9374   31.9264   17.6367 C   0  0  0  0  0  0  0  0  0  0  0  0
   20.1885   31.9136   18.8159 C   0  0  0  0  0  0  0  0  0  0  0  0
   19.3928   30.7312   19.1955 C   0  0  0  0  0  0  0  0  0  0  0  0
   19.3822   29.6004   18.3691 C   0  0  0  0  0  0  0  0  0  0  0  0
   18.6481   30.7701   20.3982 C   0  0  0  0  0  0  0  0  0  0  0  0
   17.9032   29.6940   20.7790 C   0  0  0  0  0  0  0  0  0  0  0  0
   17.8824   28.5152   19.9419 C   0  0  0  0  0  0  0  0  0  0  0  0
   18.5942   28.4732   18.7862 C   0  0  0  0  0  0  0  0  0  0  0  0
 24 23  2  0  0  0
 32 33  2  0  0  0
 32 30  1  0  0  0
 29 30  2  0  0  0
 29 28  1  0  0  0
 33 34  1  0  0  0
 30 31  1  0  0  0
 28 27  2  0  0  0
 34 35  2  0  0  0
 25 23  2  0  0  0
 31 35  1  0  0  0
 31 26  2  0  0  0
 27 26  1  0  0  0
 26 23  1  0  0  0
 23  7  1  0  0  0
  7  8  1  0  0  0
  7  4  1  0  0  0
  8  9  2  0  0  0
  4  3  2  0  0  0
  4  5  1  0  0  0
  3  2  1  0  0  0
  9  5  1  0  0  0
  5  6  2  0  0  0
  2  1  2  0  0  0
  6  1  1  0  0  0
  1 11  1  0  0  0
 11 12  2  0  0  0
 11 10  1  0  0  0
 10 14  1  0  0  0
 18 17  2  0  0  0
 18 19  1  0  0  0
 17 16  1  0  0  0
 14 19  1  0  0  0
 14 21  1  0  0  0
 19 20  2  0  0  0
 16 15  2  0  0  0
 21 22  1  0  0  0
 20 15  1  0  0  0
 10 13  1  0  0  0
M  END
> <minimizedAffinity>
-8.22948

$$$$
