2UZ9_XAN_A_1453
  RCSB PDB12061707013D
Coordinates from PDB:2UZ9:A:1453 Model:1 without hydrogens
 11 12  0  0  0  0            999 V2000
   -2.4870    8.4560  -29.7040   N 0  0  0  0  0  0  0  0  0  0  0  0
   -1.7010    7.4710  -30.1220   C 0  0  0  0  0  0  0  0  0  0  0  0
   -0.3860    7.3260  -30.2860   N 0  0  0  0  0  0  0  0  0  0  0  0
    0.1410    6.1680  -30.7390   C 0  0  0  0  0  0  0  0  0  0  0  0
    1.3810    6.1100  -30.8660   O 0  0  0  0  0  0  0  0  0  0  0  0
   -0.6180    5.0860  -31.0700   N 0  0  0  0  0  0  0  0  0  0  0  0
   -1.9570    5.0950  -30.9450   C 0  0  0  0  0  0  0  0  0  0  0  0
   -2.6510    4.1020  -31.2350   O 0  0  0  0  0  0  0  0  0  0  0  0
   -2.5830    6.3380  -30.4380   C 0  0  0  0  0  0  0  0  0  0  0  0
   -3.8260    6.7430  -30.1820   N 0  0  0  0  0  0  0  0  0  0  0  0
   -3.7620    8.0180  -29.7410   C 0  0  0  0  0  0  0  0  0  0  0  0
  1  2  1  0  0  0  0
  1 11  1  0  0  0  0
  2  3  1  0  0  0  0
  2  9  2  0  0  0  0
  3  4  1  0  0  0  0
  4  5  2  0  0  0  0
  4  6  1  0  0  0  0
  6  7  1  0  0  0  0
  7  8  2  0  0  0  0
  7  9  1  0  0  0  0
  9 10  1  0  0  0  0
 10 11  2  0  0  0  0
A    1
N9
A    2
C4
A    3
N3
A    4
C2
A    5
O2
A    6
N1
A    7
C6
A    8
O6
A    9
C5
A   10
N7
A   11
C8
M  END
>  <InstanceId>
2UZ9_XAN_A_1453

>  <ChemCompId>
XAN

>  <PdbId>
2UZ9

>  <ChainId>
A

>  <ResidueNumber>
1453

>  <InsertionCode>


>  <Model>
1

>  <AltIds>


>  <MissingHeavyAtoms>
0

>  <ObservedFormula>
C5 N4 O2

>  <Name>
XANTHINE

>  <SystematicName>
3,9-dihydropurine-2,6-dione

>  <Synonyms>


>  <Type>
NON-POLYMER

>  <Formula>
C5 H4 N4 O2

>  <MolecularWeight>
152.111

>  <ModifiedDate>
2011-06-04

>  <Parent>


>  <OneLetterCode>


>  <SubcomponentList>


>  <AmbiguousFlag>
N

>  <InChI>
InChI=1S/C5H4N4O2/c10-4-2-3(7-1-6-2)8-5(11)9-4/h1H,(H3,6,7,8,9,10,11)

>  <InChIKey>
LRFVTYWOQMYALW-UHFFFAOYSA-N

>  <SMILES>
c1[nH]c2c(n1)C(=O)NC(=O)N2

$$$$
