2ZDA_32U_H_1000
  RCSB PDB12061707433D
Coordinates from PDB:2ZDA:H:1000 Model:1 without hydrogens
 29 31  0  0  0  0            999 V2000
   16.4070  -15.9690   23.2170   N 0  0  0  0  0  0  0  0  0  0  0  0
   17.7070  -15.2630   23.2930   C 0  0  0  0  0  0  0  0  0  0  0  0
   17.6420  -13.9000   22.6520   C 0  0  0  0  0  0  0  0  0  0  0  0
   16.7470  -13.1380   23.0070   O 0  0  0  0  0  0  0  0  0  0  0  0
   18.2000  -15.1780   24.7660   C 0  0  0  0  0  0  0  0  0  0  0  0
   19.6330  -14.6780   24.8320   C 0  0  0  0  0  0  0  0  0  0  0  0
   20.7020  -15.4890   24.4400   C 0  0  0  0  0  0  0  0  0  0  0  0
   19.8990  -13.3910   25.2910   C 0  0  0  0  0  0  0  0  0  0  0  0
   22.0080  -15.0060   24.5090   C 0  0  0  0  0  0  0  0  0  0  0  0
   21.1970  -12.9070   25.3620   C 0  0  0  0  0  0  0  0  0  0  0  0
   22.2700  -13.7180   24.9670   C 0  0  0  0  0  0  0  0  0  0  0  0
   18.5340  -13.4950   21.7020   N 0  0  0  0  0  0  0  0  0  0  0  0
   18.4020  -12.1880   21.1060   C 0  0  0  0  0  0  0  0  0  0  0  0
   17.0550  -12.0990   20.4110   C 0  0  0  0  0  0  0  0  0  0  0  0
   16.6070  -13.0590   19.7980   O 0  0  0  0  0  0  0  0  0  0  0  0
   19.4930  -12.2580   19.9960   C 0  0  0  0  0  0  0  0  0  0  0  0
   20.5540  -13.1510   20.6840   C 0  0  0  0  0  0  0  0  0  0  0  0
   19.7150  -14.2790   21.3400   C 0  0  0  0  0  0  0  0  0  0  0  0
   16.4400  -10.8940   20.4880   N 0  0  0  0  0  0  0  0  0  0  0  0
   15.1610  -10.8260   19.7490   C 0  0  0  0  0  0  0  0  0  0  0  0
   14.0560  -10.8140   20.8210   C 0  0  0  0  0  0  0  0  0  0  0  0
   13.6330  -12.0110   21.3850   C 0  0  0  0  0  0  0  0  0  0  0  0
   12.6360  -12.0280   22.3570   C 0  0  0  0  0  0  0  0  0  0  0  0
   12.0380  -10.8380   22.7830   C 0  0  0  0  0  0  0  0  0  0  0  0
   10.8850  -10.8290   23.9030   C 0  0  0  0  0  0  0  0  0  0  0  0
   10.5950   -9.6970   24.5280   N 0  3  0  0  0  0  0  0  0  0  0  0
   10.2350  -11.9340   24.1950   N 0  0  0  0  0  0  0  0  0  0  0  0
   12.4720   -9.6480   22.2100   C 0  0  0  0  0  0  0  0  0  0  0  0
   13.4720   -9.6230   21.2350   C 0  0  0  0  0  0  0  0  0  0  0  0
 20 19  1  0  0  0  0
 20 21  1  0  0  0  0
 15 14  2  0  0  0  0
 16 17  1  0  0  0  0
 16 13  1  0  0  0  0
 14 19  1  0  0  0  0
 14 13  1  0  0  0  0
 17 18  1  0  0  0  0
 21 29  2  0  0  0  0
 21 22  1  0  0  0  0
 13 12  1  0  0  0  0
 29 28  1  0  0  0  0
 18 12  1  0  0  0  0
 22 23  2  0  0  0  0
 12  3  1  0  0  0  0
 28 24  2  0  0  0  0
 23 24  1  0  0  0  0
  3  4  2  0  0  0  0
  3  2  1  0  0  0  0
 24 25  1  0  0  0  0
  1  2  1  0  0  0  0
  2  5  1  0  0  0  0
 25 27  1  0  0  0  0
 25 26  2  0  0  0  0
  7  9  2  0  0  0  0
  7  6  1  0  0  0  0
  9 11  1  0  0  0  0
  5  6  1  0  0  0  0
  6  8  2  0  0  0  0
 11 10  2  0  0  0  0
  8 10  1  0  0  0  0
M  CHG  1  26   1
A    1
N13
A    2
C5
A    3
C14
A    4
O32
A    5
C33
A    6
C6
A    7
C8
A    8
C12
A    9
C9
A   10
C11
A   11
C10
A   12
N1
A   13
C1
A   14
C7
A   15
O22
A   16
C2
A   17
C3
A   18
C4
A   19
N23
A   20
C24
A   21
C25
A   22
C26
A   23
C27
A   24
C28
A   25
C21
A   26
N46
A   27
N47
A   28
C29
A   29
C30
M  END
>  <InstanceId>
2ZDA_32U_H_1000

>  <ChemCompId>
32U

>  <PdbId>
2ZDA

>  <ChainId>
H

>  <ResidueNumber>
1000

>  <InsertionCode>


>  <Model>
1

>  <AltIds>


>  <MissingHeavyAtoms>
0

>  <ObservedFormula>
C22 N5 O2

>  <Name>
D-phenylalanyl-N-{4-[amino(iminio)methyl]benzyl}-L-prolinamide

>  <SystematicName>
[azanyl-[4-[[[(2S)-1-[(2R)-2-azanyl-3-phenyl-propanoyl]pyrrolidin-2-yl]carbonylamino]methyl]phenyl]methylidene]azanium

>  <Synonyms>


>  <Type>
peptide-like

>  <Formula>
C22 H28 N5 O2

>  <MolecularWeight>
394.49

>  <ModifiedDate>
2012-01-05

>  <Parent>


>  <OneLetterCode>


>  <SubcomponentList>
DPN PRO 00S

>  <AmbiguousFlag>
N

>  <InChI>
InChI=1S/C22H27N5O2/c23-18(13-15-5-2-1-3-6-15)22(29)27-12-4-7-19(27)21(28)26-14-16-8-10-17(11-9-16)20(24)25/h1-3,5-6,8-11,18-19H,4,7,12-14,23H2,(H3,24,25)(H,26,28)/p+1/t18-,19+/m1/s1

>  <InChIKey>
VZFTWWJAUZOJDH-MOPGFXCFSA-O

>  <SMILES>
c1ccc(cc1)C[C@H](C(=O)N2CCC[C@H]2C(=O)NCc3ccc(cc3)C(=[NH2+])N)N

$$$$
