1BAI_0Q4_A_125


 75 75  0  0  0  0  0  0  0  0999 V2000
    1.4091   17.6729   33.7274 C   0  0  0  0  0  0  0  0  0  0  0  0
    2.5779   16.7348   33.3158 C   0  0  0  0  0  0  0  0  0  0  0  0
    2.3766   15.5294   33.1492 O   0  0  0  0  0  0  0  0  0  0  0  0
    3.7482   17.3158   33.0491 N   0  0  0  0  0  0  0  0  0  0  0  0
    3.8292   18.2886   33.1767 H   0  0  0  0  0  0  0  0  0  0  0  0
    4.9191   16.5732   32.5749 C   0  0  0  0  0  0  0  0  0  0  0  0
    6.2637   17.0001   33.1722 C   0  0  0  0  0  0  0  0  0  0  0  0
    7.3292   16.4976   32.8084 O   0  0  0  0  0  0  0  0  0  0  0  0
    6.1907   17.8196   34.2075 N   0  0  0  0  0  0  0  0  0  0  0  0
    5.3089   18.1048   34.5397 H   0  0  0  0  0  0  0  0  0  0  0  0
    7.3892   18.3029   34.8589 C   0  0  0  0  0  0  0  0  0  0  0  0
    7.0277   19.5240   35.6831 C   0  0  0  0  0  0  0  0  0  0  0  0
    8.1545   17.2928   35.7502 C   0  0  0  0  0  0  0  0  0  0  0  0
    9.3442   17.4453   36.0348 O   0  0  0  0  0  0  0  0  0  0  0  0
    7.4428   16.2358   36.1271 N   0  0  0  0  0  0  0  0  0  0  0  0
    6.4928   16.2032   35.8706 H   0  0  0  0  0  0  0  0  0  0  0  0
    7.9819   15.1223   36.8965 C   0  0  0  0  0  0  0  0  0  0  0  0
    8.2794   14.0068   35.8803 C   0  0  0  0  0  0  0  0  0  0  0  0
    9.0783   13.0698   36.1740 O   0  0  0  0  0  0  0  0  0  0  0  0
    7.7173   14.1088   34.7616 N   0  0  0  0  0  0  0  0  0  0  0  0
    7.1039   14.8585   34.5854 H   0  0  0  0  0  0  0  0  0  0  0  0
    7.8903   13.4392   34.0609 H   0  0  0  0  0  0  0  0  0  0  0  0
    6.9059   14.6463   37.9064 C   0  0  0  0  0  0  0  0  0  0  0  0
    5.8878   13.5540   37.4238 C   0  0  0  0  0  0  0  0  0  0  0  0
    4.4154   14.0797   37.1998 C   0  0  0  0  0  0  0  0  0  0  0  0
    4.3793   15.1574   36.1358 C   0  0  0  0  0  0  0  0  0  0  0  0
    4.9862   16.6605   31.0241 C   0  0  0  0  0  0  0  0  0  0  0  0
    4.3822   15.5147   30.2353 C   0  0  0  0  0  0  0  0  0  0  0  0
    4.4474   15.7278   28.7154 C   0  0  0  0  0  0  0  0  0  0  0  0
    4.4578   14.7288   27.9723 O   0  0  0  0  0  0  0  0  0  0  0  0
    4.4856   16.8943   28.2423 O   0  0  0  0  0  0  0  0  0  0  0  0
    4.4769   17.6338   28.8178 H   0  0  0  0  0  0  0  0  0  0  0  0
    0.6437   17.9051   32.4971 N   0  0  0  0  0  0  0  0  0  0  0  0
    0.6361   17.0137   32.0014 H   0  0  0  0  0  0  0  0  0  0  0  0
   -0.6052   18.3354   32.4843 C   0  0  0  0  0  0  0  0  0  0  0  0
   -1.6186   17.4027   31.8340 C   0  0  0  0  0  0  0  0  0  0  0  0
   -3.4944   16.4800   33.0413 C   0  0  0  0  0  0  0  0  0  0  0  0
   -2.8000   15.5472   33.4251 O   0  0  0  0  0  0  0  0  0  0  0  0
   -2.9773   17.4715   32.3380 N   0  0  0  0  0  0  0  0  0  0  0  0
   -3.5227   18.2700   32.1529 H   0  0  0  0  0  0  0  0  0  0  0  0
   -4.9794   16.6423   33.4583 C   0  0  0  0  0  0  0  0  0  0  0  0
   -6.9452   16.1979   32.0302 C   0  0  0  0  0  0  0  0  0  0  0  0
   -7.2923   17.3940   32.0212 O   0  0  0  0  0  0  0  0  0  0  0  0
   -5.8641   15.7598   32.6957 N   0  0  0  0  0  0  0  0  0  0  0  0
   -5.6563   14.7979   32.6694 H   0  0  0  0  0  0  0  0  0  0  0  0
   -8.0538   13.9821   32.2622 N   0  0  0  0  0  0  0  0  0  0  0  0
   -7.8200   15.1173   31.3176 C   0  0  0  0  0  0  0  0  0  0  0  0
   -7.1573   13.6150   32.5813 H   0  0  0  0  0  0  0  0  0  0  0  0
   -8.5729   13.2446   31.7857 H   0  0  0  0  0  0  0  0  0  0  0  0
   -9.1738   15.6614   30.8442 C   0  0  0  0  0  0  0  0  0  0  0  0
   -9.3352   15.9204   29.3070 C   0  0  0  0  0  0  0  0  0  0  0  0
   -8.1554   16.6850   28.6099 C   0  0  0  0  0  0  0  0  0  0  0  0
   -7.9283   18.0502   29.1023 N   0  0  0  0  0  0  0  0  0  0  0  0
   -8.6256   18.4535   29.6682 H   0  0  0  0  0  0  0  0  0  0  0  0
   -6.8442   18.7835   28.8378 C   0  0  0  0  0  0  0  0  0  0  0  0
   -6.3011   18.7285   27.6332 N   0  0  0  0  0  0  0  0  0  0  0  0
   -6.2294   19.4757   29.8085 N   0  0  0  0  0  0  0  0  0  0  0  0
   -6.7460   18.2227   26.9153 H   0  0  0  0  0  0  0  0  0  0  0  0
   -5.4520   19.1935   27.4544 H   0  0  0  0  0  0  0  0  0  0  0  0
   -6.6271   19.5215   30.7080 H   0  0  0  0  0  0  0  0  0  0  0  0
   -5.3805   19.9379   29.6215 H   0  0  0  0  0  0  0  0  0  0  0  0
   -5.2422   16.4611   35.0409 C   0  0  0  0  0  0  0  0  0  0  0  0
   -6.3065   17.4330   35.5558 C   0  0  0  0  0  0  0  0  0  0  0  0
   -5.7242   15.0298   35.3530 C   0  0  0  0  0  0  0  0  0  0  0  0
   -1.6290   17.5367   30.2917 C   0  0  0  0  0  0  0  0  0  0  0  0
   -2.2343   16.3268   29.5253 C   0  0  0  0  0  0  0  0  0  0  0  0
   -3.6917   16.5435   29.1194 C   0  0  0  0  0  0  0  0  0  0  0  0
   -1.3988   16.0209   28.2961 C   0  0  0  0  0  0  0  0  0  0  0  0
    0.4151   17.1103   34.7871 C   0  0  0  0  0  0  0  0  0  0  0  0
    0.9837   16.8960   36.1342 C   0  0  0  0  0  0  0  0  0  0  0  0
    1.8446   17.8285   36.6965 C   0  0  0  0  0  0  0  0  0  0  0  0
    0.6402   15.7698   36.8751 C   0  0  0  0  0  0  0  0  0  0  0  0
    2.3572   17.6533   38.0027 C   0  0  0  0  0  0  0  0  0  0  0  0
    1.1519   15.5752   38.1938 C   0  0  0  0  0  0  0  0  0  0  0  0
    2.0077   16.5241   38.7510 C   0  0  0  0  0  0  0  0  0  0  0  0
 46 47  1  0  0  0
 47 42  1  0  0  0
 47 50  1  0  0  0
 42 43  2  0  0  0
 50 51  1  0  0  0
 51 52  1  0  0  0
 52 53  1  0  0  0
 53 55  1  0  0  0
 55 56  1  0  0  0
 55 57  2  0  0  0
 44 41  1  0  0  0
 41 37  1  0  0  0
 41 62  1  0  0  0
 37 38  2  0  0  0
 62 63  1  0  0  0
 62 64  1  0  0  0
 39 36  1  0  0  0
 36 35  1  0  0  0
 36 65  1  0  0  0
 65 66  1  0  0  0
 66 67  1  0  0  0
 66 68  1  0  0  0
 33  1  1  0  0  0
  1  2  1  0  0  0
  1 69  1  0  0  0
  2  3  2  0  0  0
 69 70  1  0  0  0
 70 71  2  0  0  0
 70 72  1  0  0  0
 71 73  1  0  0  0
 72 74  2  0  0  0
 73 75  2  0  0  0
 74 75  1  0  0  0
  4  6  1  0  0  0
  6  7  1  0  0  0
  6 27  1  0  0  0
  7  8  2  0  0  0
 27 28  1  0  0  0
 28 29  1  0  0  0
 29 30  2  0  0  0
 29 31  1  0  0  0
  9 11  1  0  0  0
 11 13  1  0  0  0
 11 12  1  0  0  0
 13 14  2  0  0  0
 15 17  1  0  0  0
 17 18  1  0  0  0
 17 23  1  0  0  0
 18 19  2  0  0  0
 23 24  1  0  0  0
 24 25  1  0  0  0
 25 26  1  0  0  0
 42 44  1  0  0  0
 37 39  1  0  0  0
 35 33  1  0  0  0
  2  4  1  0  0  0
  7  9  1  0  0  0
 13 15  1  0  0  0
 18 20  1  0  0  0
 46 48  1  0  0  0
 46 49  1  0  0  0
 53 54  1  0  0  0
 56 58  1  0  0  0
 56 59  1  0  0  0
 57 60  1  0  0  0
 57 61  1  0  0  0
 44 45  1  0  0  0
 39 40  1  0  0  0
 33 34  1  0  0  0
  4  5  1  0  0  0
 31 32  1  0  0  0
  9 10  1  0  0  0
 15 16  1  0  0  0
 20 21  1  0  0  0
 20 22  1  0  0  0
M  CHG 1  57   1
M  END
> <minimizedAffinity>
-8.74881

$$$$
1BAI_0Q4_A_125


 75 75  0  0  0  0  0  0  0  0999 V2000
    1.6351   17.0561   32.3299 C   0  0  0  0  0  0  0  0  0  0  0  0
    1.6988   17.3224   33.8598 C   0  0  0  0  0  0  0  0  0  0  0  0
    1.2127   18.3536   34.3308 O   0  0  0  0  0  0  0  0  0  0  0  0
    2.1915   16.3434   34.6193 N   0  0  0  0  0  0  0  0  0  0  0  0
    2.5365   15.5344   34.1769 H   0  0  0  0  0  0  0  0  0  0  0  0
    2.2435   16.4160   36.0821 C   0  0  0  0  0  0  0  0  0  0  0  0
    3.6229   16.1929   36.7101 C   0  0  0  0  0  0  0  0  0  0  0  0
    4.2514   17.1072   37.2478 O   0  0  0  0  0  0  0  0  0  0  0  0
    4.1586   15.0029   36.4963 N   0  0  0  0  0  0  0  0  0  0  0  0
    3.6684   14.3393   35.9591 H   0  0  0  0  0  0  0  0  0  0  0  0
    5.4554   14.6629   37.0410 C   0  0  0  0  0  0  0  0  0  0  0  0
    5.5028   13.1635   37.2659 C   0  0  0  0  0  0  0  0  0  0  0  0
    6.6937   15.0955   36.2164 C   0  0  0  0  0  0  0  0  0  0  0  0
    7.8016   14.5822   36.3860 O   0  0  0  0  0  0  0  0  0  0  0  0
    6.4725   16.0915   35.3651 N   0  0  0  0  0  0  0  0  0  0  0  0
    5.5521   16.4304   35.2797 H   0  0  0  0  0  0  0  0  0  0  0  0
    7.5083   16.7128   34.5504 C   0  0  0  0  0  0  0  0  0  0  0  0
    7.9868   17.9450   35.3366 C   0  0  0  0  0  0  0  0  0  0  0  0
    9.1849   18.0226   35.7379 O   0  0  0  0  0  0  0  0  0  0  0  0
    7.1215   18.8240   35.5742 N   0  0  0  0  0  0  0  0  0  0  0  0
    6.2028   18.7139   35.2379 H   0  0  0  0  0  0  0  0  0  0  0  0
    7.3620   19.6231   36.0966 H   0  0  0  0  0  0  0  0  0  0  0  0
    6.8842   17.1542   33.2014 C   0  0  0  0  0  0  0  0  0  0  0  0
    7.6935   16.8507   31.8916 C   0  0  0  0  0  0  0  0  0  0  0  0
    7.0621   17.4504   30.5740 C   0  0  0  0  0  0  0  0  0  0  0  0
    7.4902   16.6571   29.3565 C   0  0  0  0  0  0  0  0  0  0  0  0
    1.2278   15.4025   36.6807 C   0  0  0  0  0  0  0  0  0  0  0  0
    0.3341   15.8929   37.8034 C   0  0  0  0  0  0  0  0  0  0  0  0
   -0.9802   16.5105   37.3026 C   0  0  0  0  0  0  0  0  0  0  0  0
   -2.0520   16.1181   37.7999 O   0  0  0  0  0  0  0  0  0  0  0  0
   -0.9608   17.3979   36.4090 O   0  0  0  0  0  0  0  0  0  0  0  0
   -0.1441   17.6802   36.0468 H   0  0  0  0  0  0  0  0  0  0  0  0
    0.4718   17.8115   31.8507 N   0  0  0  0  0  0  0  0  0  0  0  0
    0.2921   17.4754   30.9046 H   0  0  0  0  0  0  0  0  0  0  0  0
   -0.6995   17.8136   32.4613 C   0  0  0  0  0  0  0  0  0  0  0  0
   -1.6512   16.6912   32.0684 C   0  0  0  0  0  0  0  0  0  0  0  0
   -3.5354   16.5046   33.5661 C   0  0  0  0  0  0  0  0  0  0  0  0
   -2.7950   16.1248   34.4646 O   0  0  0  0  0  0  0  0  0  0  0  0
   -3.0509   16.8852   32.3975 N   0  0  0  0  0  0  0  0  0  0  0  0
   -3.6491   17.3073   31.7394 H   0  0  0  0  0  0  0  0  0  0  0  0
   -5.0609   16.6986   33.7671 C   0  0  0  0  0  0  0  0  0  0  0  0
   -6.8005   16.1925   32.0880 C   0  0  0  0  0  0  0  0  0  0  0  0
   -7.1073   17.3914   31.9471 O   0  0  0  0  0  0  0  0  0  0  0  0
   -5.8456   15.7818   32.9383 N   0  0  0  0  0  0  0  0  0  0  0  0
   -5.6643   14.8166   33.0077 H   0  0  0  0  0  0  0  0  0  0  0  0
   -8.1086   14.0874   32.3117 N   0  0  0  0  0  0  0  0  0  0  0  0
   -7.5886   15.0814   31.3231 C   0  0  0  0  0  0  0  0  0  0  0  0
   -7.3328   13.7141   32.8587 H   0  0  0  0  0  0  0  0  0  0  0  0
   -8.5727   13.3260   31.8164 H   0  0  0  0  0  0  0  0  0  0  0  0
   -8.7627   15.6361   30.5065 C   0  0  0  0  0  0  0  0  0  0  0  0
   -8.4620   16.0528   29.0260 C   0  0  0  0  0  0  0  0  0  0  0  0
   -8.1441   17.5712   28.7890 C   0  0  0  0  0  0  0  0  0  0  0  0
   -6.7241   17.9296   28.9032 N   0  0  0  0  0  0  0  0  0  0  0  0
   -6.1051   17.2419   29.2396 H   0  0  0  0  0  0  0  0  0  0  0  0
   -6.2124   19.1208   28.5837 C   0  0  0  0  0  0  0  0  0  0  0  0
   -5.5841   19.2692   27.4295 N   0  0  0  0  0  0  0  0  0  0  0  0
   -6.2186   20.1304   29.4670 N   0  0  0  0  0  0  0  0  0  0  0  0
   -5.5748   18.5331   26.7759 H   0  0  0  0  0  0  0  0  0  0  0  0
   -5.1257   20.1159   27.2239 H   0  0  0  0  0  0  0  0  0  0  0  0
   -6.6840   20.0280   30.3284 H   0  0  0  0  0  0  0  0  0  0  0  0
   -5.7578   20.9739   29.2537 H   0  0  0  0  0  0  0  0  0  0  0  0
   -5.5392   16.6049   35.3063 C   0  0  0  0  0  0  0  0  0  0  0  0
   -6.7142   17.5422   35.5949 C   0  0  0  0  0  0  0  0  0  0  0  0
   -5.9881   15.1704   35.6512 C   0  0  0  0  0  0  0  0  0  0  0  0
   -1.5168   16.3086   30.5744 C   0  0  0  0  0  0  0  0  0  0  0  0
   -2.3973   17.1368   29.5963 C   0  0  0  0  0  0  0  0  0  0  0  0
   -1.5874   18.1054   28.7353 C   0  0  0  0  0  0  0  0  0  0  0  0
   -3.1997   16.2060   28.7061 C   0  0  0  0  0  0  0  0  0  0  0  0
    2.8641   17.5287   31.4970 C   0  0  0  0  0  0  0  0  0  0  0  0
    3.5421   16.4718   30.7177 C   0  0  0  0  0  0  0  0  0  0  0  0
    4.2254   15.4472   31.3582 C   0  0  0  0  0  0  0  0  0  0  0  0
    3.4801   16.4687   29.3280 C   0  0  0  0  0  0  0  0  0  0  0  0
    4.8384   14.4073   30.6215 C   0  0  0  0  0  0  0  0  0  0  0  0
    4.0968   15.4288   28.5685 C   0  0  0  0  0  0  0  0  0  0  0  0
    4.7715   14.3999   29.2242 C   0  0  0  0  0  0  0  0  0  0  0  0
 46 47  1  0  0  0
 47 42  1  0  0  0
 47 50  1  0  0  0
 42 43  2  0  0  0
 50 51  1  0  0  0
 51 52  1  0  0  0
 52 53  1  0  0  0
 53 55  1  0  0  0
 55 56  1  0  0  0
 55 57  2  0  0  0
 44 41  1  0  0  0
 41 37  1  0  0  0
 41 62  1  0  0  0
 37 38  2  0  0  0
 62 63  1  0  0  0
 62 64  1  0  0  0
 39 36  1  0  0  0
 36 35  1  0  0  0
 36 65  1  0  0  0
 65 66  1  0  0  0
 66 67  1  0  0  0
 66 68  1  0  0  0
 33  1  1  0  0  0
  1  2  1  0  0  0
  1 69  1  0  0  0
  2  3  2  0  0  0
 69 70  1  0  0  0
 70 71  2  0  0  0
 70 72  1  0  0  0
 71 73  1  0  0  0
 72 74  2  0  0  0
 73 75  2  0  0  0
 74 75  1  0  0  0
  4  6  1  0  0  0
  6  7  1  0  0  0
  6 27  1  0  0  0
  7  8  2  0  0  0
 27 28  1  0  0  0
 28 29  1  0  0  0
 29 30  2  0  0  0
 29 31  1  0  0  0
  9 11  1  0  0  0
 11 13  1  0  0  0
 11 12  1  0  0  0
 13 14  2  0  0  0
 15 17  1  0  0  0
 17 18  1  0  0  0
 17 23  1  0  0  0
 18 19  2  0  0  0
 23 24  1  0  0  0
 24 25  1  0  0  0
 25 26  1  0  0  0
 42 44  1  0  0  0
 37 39  1  0  0  0
 35 33  1  0  0  0
  2  4  1  0  0  0
  7  9  1  0  0  0
 13 15  1  0  0  0
 18 20  1  0  0  0
 46 48  1  0  0  0
 46 49  1  0  0  0
 53 54  1  0  0  0
 56 58  1  0  0  0
 56 59  1  0  0  0
 57 60  1  0  0  0
 57 61  1  0  0  0
 44 45  1  0  0  0
 39 40  1  0  0  0
 33 34  1  0  0  0
  4  5  1  0  0  0
 31 32  1  0  0  0
  9 10  1  0  0  0
 15 16  1  0  0  0
 20 21  1  0  0  0
 20 22  1  0  0  0
M  CHG 1  57   1
M  END
> <minimizedAffinity>
-8.66042

$$$$
1BAI_0Q4_A_125


 75 75  0  0  0  0  0  0  0  0999 V2000
    1.7742   16.5918   32.5953 C   0  0  0  0  0  0  0  0  0  0  0  0
    1.9426   16.9883   34.0886 C   0  0  0  0  0  0  0  0  0  0  0  0
    1.6258   18.1176   34.4701 O   0  0  0  0  0  0  0  0  0  0  0  0
    2.3285   16.0245   34.9255 N   0  0  0  0  0  0  0  0  0  0  0  0
    2.5378   15.1368   34.5547 H   0  0  0  0  0  0  0  0  0  0  0  0
    2.4555   16.2256   36.3715 C   0  0  0  0  0  0  0  0  0  0  0  0
    3.8625   16.0372   36.9477 C   0  0  0  0  0  0  0  0  0  0  0  0
    4.5374   16.9885   37.3475 O   0  0  0  0  0  0  0  0  0  0  0  0
    4.3621   14.8176   36.8393 N   0  0  0  0  0  0  0  0  0  0  0  0
    3.8303   14.1120   36.4052 H   0  0  0  0  0  0  0  0  0  0  0  0
    5.6798   14.5061   37.3502 C   0  0  0  0  0  0  0  0  0  0  0  0
    5.7732   13.0057   37.5523 C   0  0  0  0  0  0  0  0  0  0  0  0
    6.8868   14.9842   36.5045 C   0  0  0  0  0  0  0  0  0  0  0  0
    8.0449   14.6671   36.7839 O   0  0  0  0  0  0  0  0  0  0  0  0
    6.5738   15.7989   35.5026 N   0  0  0  0  0  0  0  0  0  0  0  0
    5.6210   15.9850   35.3389 H   0  0  0  0  0  0  0  0  0  0  0  0
    7.5539   16.4338   34.6315 C   0  0  0  0  0  0  0  0  0  0  0  0
    7.9639   17.7401   35.3322 C   0  0  0  0  0  0  0  0  0  0  0  0
    9.1789   17.9651   35.6069 O   0  0  0  0  0  0  0  0  0  0  0  0
    7.0315   18.5260   35.6338 N   0  0  0  0  0  0  0  0  0  0  0  0
    6.1027   18.3022   35.3961 H   0  0  0  0  0  0  0  0  0  0  0  0
    7.2296   19.3658   36.1078 H   0  0  0  0  0  0  0  0  0  0  0  0
    6.8812   16.7506   33.2709 C   0  0  0  0  0  0  0  0  0  0  0  0
    7.7915   17.3118   32.1224 C   0  0  0  0  0  0  0  0  0  0  0  0
    7.1018   17.3654   30.7026 C   0  0  0  0  0  0  0  0  0  0  0  0
    7.7335   16.3677   29.7538 C   0  0  0  0  0  0  0  0  0  0  0  0
    1.4603   15.2851   37.1078 C   0  0  0  0  0  0  0  0  0  0  0  0
    0.4342   15.9323   38.0178 C   0  0  0  0  0  0  0  0  0  0  0  0
   -0.7612   16.5234   37.2554 C   0  0  0  0  0  0  0  0  0  0  0  0
   -1.9109   16.1843   37.5920 O   0  0  0  0  0  0  0  0  0  0  0  0
   -0.5695   17.3367   36.3131 O   0  0  0  0  0  0  0  0  0  0  0  0
    0.3034   17.5799   36.0744 H   0  0  0  0  0  0  0  0  0  0  0  0
    0.4010   16.9713   32.2435 N   0  0  0  0  0  0  0  0  0  0  0  0
    0.4269   17.2271   31.2564 H   0  0  0  0  0  0  0  0  0  0  0  0
   -0.6370   16.1658   32.3802 C   0  0  0  0  0  0  0  0  0  0  0  0
   -1.9025   16.5888   31.6458 C   0  0  0  0  0  0  0  0  0  0  0  0
   -4.2352   16.1373   32.0731 C   0  0  0  0  0  0  0  0  0  0  0  0
   -4.2666   15.3581   31.1289 O   0  0  0  0  0  0  0  0  0  0  0  0
   -3.1055   16.7106   32.4477 N   0  0  0  0  0  0  0  0  0  0  0  0
   -3.0794   17.2287   33.2844 H   0  0  0  0  0  0  0  0  0  0  0  0
   -5.4671   16.4042   32.9768 C   0  0  0  0  0  0  0  0  0  0  0  0
   -7.8522   15.9608   32.5118 C   0  0  0  0  0  0  0  0  0  0  0  0
   -8.1729   17.1542   32.6672 O   0  0  0  0  0  0  0  0  0  0  0  0
   -6.5899   15.5236   32.6496 N   0  0  0  0  0  0  0  0  0  0  0  0
   -6.4108   14.5636   32.5244 H   0  0  0  0  0  0  0  0  0  0  0  0
   -8.3007   13.5321   32.2070 N   0  0  0  0  0  0  0  0  0  0  0  0
   -8.9443   14.8817   32.2229 C   0  0  0  0  0  0  0  0  0  0  0  0
   -7.5469   13.5230   31.5200 H   0  0  0  0  0  0  0  0  0  0  0  0
   -8.9951   12.8272   31.9592 H   0  0  0  0  0  0  0  0  0  0  0  0
  -10.0758   14.8843   33.2587 C   0  0  0  0  0  0  0  0  0  0  0  0
  -10.6899   13.4940   33.6409 C   0  0  0  0  0  0  0  0  0  0  0  0
  -12.0073   13.0928   32.8884 C   0  0  0  0  0  0  0  0  0  0  0  0
  -13.2320   13.1904   33.6935 N   0  0  0  0  0  0  0  0  0  0  0  0
  -13.9824   12.5985   33.4572 H   0  0  0  0  0  0  0  0  0  0  0  0
  -13.4010   14.0240   34.7228 C   0  0  0  0  0  0  0  0  0  0  0  0
  -13.3358   13.5534   35.9571 N   0  0  0  0  0  0  0  0  0  0  0  0
  -13.7572   15.3014   34.5210 N   0  0  0  0  0  0  0  0  0  0  0  0
  -13.0752   12.6170   36.1137 H   0  0  0  0  0  0  0  0  0  0  0  0
  -13.5479   14.1394   36.7192 H   0  0  0  0  0  0  0  0  0  0  0  0
  -13.8082   15.6595   33.6054 H   0  0  0  0  0  0  0  0  0  0  0  0
  -13.9677   15.8809   35.2886 H   0  0  0  0  0  0  0  0  0  0  0  0
   -5.1501   16.3371   34.5584 C   0  0  0  0  0  0  0  0  0  0  0  0
   -5.9285   17.3980   35.3401 C   0  0  0  0  0  0  0  0  0  0  0  0
   -5.5315   14.9577   35.1328 C   0  0  0  0  0  0  0  0  0  0  0  0
   -1.6940   17.8828   30.8219 C   0  0  0  0  0  0  0  0  0  0  0  0
   -1.8914   17.7304   29.2871 C   0  0  0  0  0  0  0  0  0  0  0  0
   -1.4253   16.3757   28.7549 C   0  0  0  0  0  0  0  0  0  0  0  0
   -3.3491   17.9496   28.9274 C   0  0  0  0  0  0  0  0  0  0  0  0
    2.7207   17.3035   31.5829 C   0  0  0  0  0  0  0  0  0  0  0  0
    3.5075   16.4029   30.7145 C   0  0  0  0  0  0  0  0  0  0  0  0
    4.1636   15.3010   31.2458 C   0  0  0  0  0  0  0  0  0  0  0  0
    3.5778   16.6269   29.3433 C   0  0  0  0  0  0  0  0  0  0  0  0
    4.8810   14.4090   30.4156 C   0  0  0  0  0  0  0  0  0  0  0  0
    4.3011   15.7386   28.4911 C   0  0  0  0  0  0  0  0  0  0  0  0
    4.9474   14.6299   29.0358 C   0  0  0  0  0  0  0  0  0  0  0  0
 46 47  1  0  0  0
 47 42  1  0  0  0
 47 50  1  0  0  0
 42 43  2  0  0  0
 50 51  1  0  0  0
 51 52  1  0  0  0
 52 53  1  0  0  0
 53 55  1  0  0  0
 55 56  1  0  0  0
 55 57  2  0  0  0
 44 41  1  0  0  0
 41 37  1  0  0  0
 41 62  1  0  0  0
 37 38  2  0  0  0
 62 63  1  0  0  0
 62 64  1  0  0  0
 39 36  1  0  0  0
 36 35  1  0  0  0
 36 65  1  0  0  0
 65 66  1  0  0  0
 66 67  1  0  0  0
 66 68  1  0  0  0
 33  1  1  0  0  0
  1  2  1  0  0  0
  1 69  1  0  0  0
  2  3  2  0  0  0
 69 70  1  0  0  0
 70 71  2  0  0  0
 70 72  1  0  0  0
 71 73  1  0  0  0
 72 74  2  0  0  0
 73 75  2  0  0  0
 74 75  1  0  0  0
  4  6  1  0  0  0
  6  7  1  0  0  0
  6 27  1  0  0  0
  7  8  2  0  0  0
 27 28  1  0  0  0
 28 29  1  0  0  0
 29 30  2  0  0  0
 29 31  1  0  0  0
  9 11  1  0  0  0
 11 13  1  0  0  0
 11 12  1  0  0  0
 13 14  2  0  0  0
 15 17  1  0  0  0
 17 18  1  0  0  0
 17 23  1  0  0  0
 18 19  2  0  0  0
 23 24  1  0  0  0
 24 25  1  0  0  0
 25 26  1  0  0  0
 42 44  1  0  0  0
 37 39  1  0  0  0
 35 33  1  0  0  0
  2  4  1  0  0  0
  7  9  1  0  0  0
 13 15  1  0  0  0
 18 20  1  0  0  0
 46 48  1  0  0  0
 46 49  1  0  0  0
 53 54  1  0  0  0
 56 58  1  0  0  0
 56 59  1  0  0  0
 57 60  1  0  0  0
 57 61  1  0  0  0
 44 45  1  0  0  0
 39 40  1  0  0  0
 33 34  1  0  0  0
  4  5  1  0  0  0
 31 32  1  0  0  0
  9 10  1  0  0  0
 15 16  1  0  0  0
 20 21  1  0  0  0
 20 22  1  0  0  0
M  CHG 1  57   1
M  END
> <minimizedAffinity>
-8.50024

$$$$
1BAI_0Q4_A_125


 75 75  0  0  0  0  0  0  0  0999 V2000
    2.9897   17.2801   33.0843 C   0  0  0  0  0  0  0  0  0  0  0  0
    1.5197   17.7502   33.2671 C   0  0  0  0  0  0  0  0  0  0  0  0
    1.2145   18.4782   34.2148 O   0  0  0  0  0  0  0  0  0  0  0  0
    0.6606   17.4233   32.3010 N   0  0  0  0  0  0  0  0  0  0  0  0
    0.9809   16.8625   31.5579 H   0  0  0  0  0  0  0  0  0  0  0  0
   -0.7382   17.8603   32.2942 C   0  0  0  0  0  0  0  0  0  0  0  0
   -1.7486   16.8639   32.8716 C   0  0  0  0  0  0  0  0  0  0  0  0
   -1.4765   15.6708   33.0221 O   0  0  0  0  0  0  0  0  0  0  0  0
   -2.9729   17.3327   33.0452 N   0  0  0  0  0  0  0  0  0  0  0  0
   -3.1752   18.2646   32.8005 H   0  0  0  0  0  0  0  0  0  0  0  0
   -4.0194   16.4947   33.5899 C   0  0  0  0  0  0  0  0  0  0  0  0
   -4.1965   16.8410   35.0560 C   0  0  0  0  0  0  0  0  0  0  0  0
   -5.3964   16.5492   32.8817 C   0  0  0  0  0  0  0  0  0  0  0  0
   -6.3972   17.0075   33.4368 O   0  0  0  0  0  0  0  0  0  0  0  0
   -5.4157   16.0152   31.6652 N   0  0  0  0  0  0  0  0  0  0  0  0
   -4.5658   15.6887   31.2904 H   0  0  0  0  0  0  0  0  0  0  0  0
   -6.6172   15.8830   30.8519 C   0  0  0  0  0  0  0  0  0  0  0  0
   -6.2676   14.8860   29.7342 C   0  0  0  0  0  0  0  0  0  0  0  0
   -7.0581   14.7125   28.7608 O   0  0  0  0  0  0  0  0  0  0  0  0
   -5.1921   14.2515   29.8710 N   0  0  0  0  0  0  0  0  0  0  0  0
   -4.6132   14.4256   30.6480 H   0  0  0  0  0  0  0  0  0  0  0  0
   -4.9282   13.5800   29.2011 H   0  0  0  0  0  0  0  0  0  0  0  0
   -6.9604   17.2660   30.2405 C   0  0  0  0  0  0  0  0  0  0  0  0
   -5.8192   18.0285   29.4797 C   0  0  0  0  0  0  0  0  0  0  0  0
   -6.3190   18.9614   28.3074 C   0  0  0  0  0  0  0  0  0  0  0  0
   -5.6167   18.6248   27.0080 C   0  0  0  0  0  0  0  0  0  0  0  0
   -1.1489   18.2375   30.8429 C   0  0  0  0  0  0  0  0  0  0  0  0
   -0.7306   17.2927   29.7329 C   0  0  0  0  0  0  0  0  0  0  0  0
   -1.8627   16.3607   29.2751 C   0  0  0  0  0  0  0  0  0  0  0  0
   -1.6899   15.6676   28.2553 O   0  0  0  0  0  0  0  0  0  0  0  0
   -2.9379   16.3049   29.9285 O   0  0  0  0  0  0  0  0  0  0  0  0
   -3.0492   16.8343   30.6935 H   0  0  0  0  0  0  0  0  0  0  0  0
    3.5524   17.2238   34.4384 N   0  0  0  0  0  0  0  0  0  0  0  0
    2.7778   16.9701   35.0515 H   0  0  0  0  0  0  0  0  0  0  0  0
    4.5559   16.4356   34.7800 C   0  0  0  0  0  0  0  0  0  0  0  0
    4.3591   15.6325   36.0592 C   0  0  0  0  0  0  0  0  0  0  0  0
    5.6620   13.9767   37.2376 C   0  0  0  0  0  0  0  0  0  0  0  0
    4.8116   13.1274   37.0025 O   0  0  0  0  0  0  0  0  0  0  0  0
    5.5634   15.1968   36.7409 N   0  0  0  0  0  0  0  0  0  0  0  0
    6.3194   15.8205   36.8348 H   0  0  0  0  0  0  0  0  0  0  0  0
    6.9698   13.6580   38.0078 C   0  0  0  0  0  0  0  0  0  0  0  0
    8.9995   14.3516   36.7826 C   0  0  0  0  0  0  0  0  0  0  0  0
    9.0642   13.2807   36.1501 O   0  0  0  0  0  0  0  0  0  0  0  0
    8.0404   14.6040   37.6882 N   0  0  0  0  0  0  0  0  0  0  0  0
    8.0581   15.4677   38.1603 H   0  0  0  0  0  0  0  0  0  0  0  0
   11.4382   14.7696   36.5169 N   0  0  0  0  0  0  0  0  0  0  0  0
   10.1051   15.4410   36.6046 C   0  0  0  0  0  0  0  0  0  0  0  0
   11.5836   14.1928   37.3455 H   0  0  0  0  0  0  0  0  0  0  0  0
   12.1718   15.4761   36.4614 H   0  0  0  0  0  0  0  0  0  0  0  0
    9.8968   16.3051   35.3545 C   0  0  0  0  0  0  0  0  0  0  0  0
    8.6056   17.1924   35.3134 C   0  0  0  0  0  0  0  0  0  0  0  0
    7.9114   17.3337   33.9131 C   0  0  0  0  0  0  0  0  0  0  0  0
    8.6387   16.7124   32.7983 N   0  0  0  0  0  0  0  0  0  0  0  0
    9.6187   16.6516   32.8697 H   0  0  0  0  0  0  0  0  0  0  0  0
    8.0664   16.2241   31.6951 C   0  0  0  0  0  0  0  0  0  0  0  0
    7.6096   17.0588   30.7766 N   0  0  0  0  0  0  0  0  0  0  0  0
    7.8383   14.9087   31.5641 N   0  0  0  0  0  0  0  0  0  0  0  0
    7.7727   18.0256   30.8653 H   0  0  0  0  0  0  0  0  0  0  0  0
    7.1064   16.7133   30.0041 H   0  0  0  0  0  0  0  0  0  0  0  0
    8.1750   14.2807   32.2434 H   0  0  0  0  0  0  0  0  0  0  0  0
    7.3343   14.5713   30.7886 H   0  0  0  0  0  0  0  0  0  0  0  0
    6.7820   13.5502   39.6077 C   0  0  0  0  0  0  0  0  0  0  0  0
    8.0331   12.9933   40.2911 C   0  0  0  0  0  0  0  0  0  0  0  0
    6.4927   14.9369   40.2172 C   0  0  0  0  0  0  0  0  0  0  0  0
    3.4257   16.3529   37.0624 C   0  0  0  0  0  0  0  0  0  0  0  0
    2.1806   15.5375   37.5123 C   0  0  0  0  0  0  0  0  0  0  0  0
    1.4842   16.1335   38.7351 C   0  0  0  0  0  0  0  0  0  0  0  0
    1.1942   15.4218   36.3650 C   0  0  0  0  0  0  0  0  0  0  0  0
    3.1883   15.8728   32.4459 C   0  0  0  0  0  0  0  0  0  0  0  0
    3.7471   15.8738   31.0777 C   0  0  0  0  0  0  0  0  0  0  0  0
    3.5873   16.9751   30.2479 C   0  0  0  0  0  0  0  0  0  0  0  0
    4.4708   14.7820   30.6092 C   0  0  0  0  0  0  0  0  0  0  0  0
    4.1573   17.0023   28.9541 C   0  0  0  0  0  0  0  0  0  0  0  0
    5.0497   14.7911   29.3041 C   0  0  0  0  0  0  0  0  0  0  0  0
    4.8904   15.9073   28.4842 C   0  0  0  0  0  0  0  0  0  0  0  0
 46 47  1  0  0  0
 47 42  1  0  0  0
 47 50  1  0  0  0
 42 43  2  0  0  0
 50 51  1  0  0  0
 51 52  1  0  0  0
 52 53  1  0  0  0
 53 55  1  0  0  0
 55 56  1  0  0  0
 55 57  2  0  0  0
 44 41  1  0  0  0
 41 37  1  0  0  0
 41 62  1  0  0  0
 37 38  2  0  0  0
 62 63  1  0  0  0
 62 64  1  0  0  0
 39 36  1  0  0  0
 36 35  1  0  0  0
 36 65  1  0  0  0
 65 66  1  0  0  0
 66 67  1  0  0  0
 66 68  1  0  0  0
 33  1  1  0  0  0
  1  2  1  0  0  0
  1 69  1  0  0  0
  2  3  2  0  0  0
 69 70  1  0  0  0
 70 71  2  0  0  0
 70 72  1  0  0  0
 71 73  1  0  0  0
 72 74  2  0  0  0
 73 75  2  0  0  0
 74 75  1  0  0  0
  4  6  1  0  0  0
  6  7  1  0  0  0
  6 27  1  0  0  0
  7  8  2  0  0  0
 27 28  1  0  0  0
 28 29  1  0  0  0
 29 30  2  0  0  0
 29 31  1  0  0  0
  9 11  1  0  0  0
 11 13  1  0  0  0
 11 12  1  0  0  0
 13 14  2  0  0  0
 15 17  1  0  0  0
 17 18  1  0  0  0
 17 23  1  0  0  0
 18 19  2  0  0  0
 23 24  1  0  0  0
 24 25  1  0  0  0
 25 26  1  0  0  0
 42 44  1  0  0  0
 37 39  1  0  0  0
 35 33  1  0  0  0
  2  4  1  0  0  0
  7  9  1  0  0  0
 13 15  1  0  0  0
 18 20  1  0  0  0
 46 48  1  0  0  0
 46 49  1  0  0  0
 53 54  1  0  0  0
 56 58  1  0  0  0
 56 59  1  0  0  0
 57 60  1  0  0  0
 57 61  1  0  0  0
 44 45  1  0  0  0
 39 40  1  0  0  0
 33 34  1  0  0  0
  4  5  1  0  0  0
 31 32  1  0  0  0
  9 10  1  0  0  0
 15 16  1  0  0  0
 20 21  1  0  0  0
 20 22  1  0  0  0
M  CHG 1  57   1
M  END
> <minimizedAffinity>
-8.35699

$$$$
1BAI_0Q4_A_125


 75 75  0  0  0  0  0  0  0  0999 V2000
   -2.0484   16.9207   31.6784 C   0  0  0  0  0  0  0  0  0  0  0  0
   -0.8400   17.6735   32.3017 C   0  0  0  0  0  0  0  0  0  0  0  0
   -0.8261   18.9065   32.3323 O   0  0  0  0  0  0  0  0  0  0  0  0
    0.0958   16.9254   32.8871 N   0  0  0  0  0  0  0  0  0  0  0  0
    0.0056   15.9458   32.8490 H   0  0  0  0  0  0  0  0  0  0  0  0
    1.2525   17.4940   33.5846 C   0  0  0  0  0  0  0  0  0  0  0  0
    2.5546   16.6944   33.4739 C   0  0  0  0  0  0  0  0  0  0  0  0
    2.6209   15.5062   33.7965 O   0  0  0  0  0  0  0  0  0  0  0  0
    3.6297   17.3996   33.1648 N   0  0  0  0  0  0  0  0  0  0  0  0
    3.5504   18.3715   33.0293 H   0  0  0  0  0  0  0  0  0  0  0  0
    4.9211   16.7623   33.0229 C   0  0  0  0  0  0  0  0  0  0  0  0
    5.3665   16.8976   31.5793 C   0  0  0  0  0  0  0  0  0  0  0  0
    6.0523   17.2628   33.9560 C   0  0  0  0  0  0  0  0  0  0  0  0
    6.8858   18.0912   33.5835 O   0  0  0  0  0  0  0  0  0  0  0  0
    6.0785   16.6874   35.1534 N   0  0  0  0  0  0  0  0  0  0  0  0
    5.3625   16.0490   35.3750 H   0  0  0  0  0  0  0  0  0  0  0  0
    7.1016   16.9433   36.1586 C   0  0  0  0  0  0  0  0  0  0  0  0
    8.1759   15.8612   35.9580 C   0  0  0  0  0  0  0  0  0  0  0  0
    8.1341   14.7862   36.6253 O   0  0  0  0  0  0  0  0  0  0  0  0
    9.0878   16.1279   35.1363 N   0  0  0  0  0  0  0  0  0  0  0  0
    9.0721   16.9797   34.6430 H   0  0  0  0  0  0  0  0  0  0  0  0
    9.8180   15.4851   34.9855 H   0  0  0  0  0  0  0  0  0  0  0  0
    6.4648   16.8039   37.5654 C   0  0  0  0  0  0  0  0  0  0  0  0
    5.5012   17.9462   38.0442 C   0  0  0  0  0  0  0  0  0  0  0  0
    3.9933   17.5077   38.2129 C   0  0  0  0  0  0  0  0  0  0  0  0
    3.8925   16.0475   38.6030 C   0  0  0  0  0  0  0  0  0  0  0  0
    0.8943   17.7022   35.0831 C   0  0  0  0  0  0  0  0  0  0  0  0
   -0.0689   16.7144   35.7126 C   0  0  0  0  0  0  0  0  0  0  0  0
    0.5824   15.8446   36.7983 C   0  0  0  0  0  0  0  0  0  0  0  0
    0.4133   16.1538   37.9924 O   0  0  0  0  0  0  0  0  0  0  0  0
    1.2685   14.8392   36.4747 O   0  0  0  0  0  0  0  0  0  0  0  0
    1.3844   14.6225   35.5705 H   0  0  0  0  0  0  0  0  0  0  0  0
   -3.1756   17.1762   32.5828 N   0  0  0  0  0  0  0  0  0  0  0  0
   -4.0157   17.0974   32.0098 H   0  0  0  0  0  0  0  0  0  0  0  0
   -3.4136   16.4668   33.6714 C   0  0  0  0  0  0  0  0  0  0  0  0
   -4.8801   16.3169   34.0545 C   0  0  0  0  0  0  0  0  0  0  0  0
   -6.9918   16.4420   32.8911 C   0  0  0  0  0  0  0  0  0  0  0  0
   -7.3234   17.4002   33.5778 O   0  0  0  0  0  0  0  0  0  0  0  0
   -5.7866   15.9112   32.9968 N   0  0  0  0  0  0  0  0  0  0  0  0
   -5.4990   15.2294   32.3475 H   0  0  0  0  0  0  0  0  0  0  0  0
   -7.8916   15.8706   31.7646 C   0  0  0  0  0  0  0  0  0  0  0  0
  -10.2036   15.1937   32.3107 C   0  0  0  0  0  0  0  0  0  0  0  0
   -9.8990   13.9899   32.4078 O   0  0  0  0  0  0  0  0  0  0  0  0
   -9.3098   16.1469   32.0006 N   0  0  0  0  0  0  0  0  0  0  0  0
   -9.6237   17.0772   31.9284 H   0  0  0  0  0  0  0  0  0  0  0  0
  -12.0935   16.4221   31.2562 N   0  0  0  0  0  0  0  0  0  0  0  0
  -11.6904   15.6464   32.4694 C   0  0  0  0  0  0  0  0  0  0  0  0
  -11.4548   17.2067   31.1265 H   0  0  0  0  0  0  0  0  0  0  0  0
  -13.0434   16.7734   31.3774 H   0  0  0  0  0  0  0  0  0  0  0  0
  -12.6568   14.4697   32.6550 C   0  0  0  0  0  0  0  0  0  0  0  0
  -13.3518   14.3372   34.0534 C   0  0  0  0  0  0  0  0  0  0  0  0
  -12.4021   14.0534   35.2701 C   0  0  0  0  0  0  0  0  0  0  0  0
  -12.4977   15.0252   36.3674 N   0  0  0  0  0  0  0  0  0  0  0  0
  -11.6641   15.4473   36.6776 H   0  0  0  0  0  0  0  0  0  0  0  0
  -13.6336   15.3774   36.9745 C   0  0  0  0  0  0  0  0  0  0  0  0
  -14.3369   14.4610   37.6184 N   0  0  0  0  0  0  0  0  0  0  0  0
  -14.1316   16.6152   36.8357 N   0  0  0  0  0  0  0  0  0  0  0  0
  -13.9786   13.5502   37.7246 H   0  0  0  0  0  0  0  0  0  0  0  0
  -15.2188   14.6897   37.9916 H   0  0  0  0  0  0  0  0  0  0  0  0
  -13.6143   17.3032   36.3578 H   0  0  0  0  0  0  0  0  0  0  0  0
  -15.0143   16.8358   37.2118 H   0  0  0  0  0  0  0  0  0  0  0  0
   -7.4713   16.3477   30.2806 C   0  0  0  0  0  0  0  0  0  0  0  0
   -8.6540   16.2972   29.3105 C   0  0  0  0  0  0  0  0  0  0  0  0
   -6.9447   17.7970   30.3027 C   0  0  0  0  0  0  0  0  0  0  0  0
   -5.0706   15.3956   35.2840 C   0  0  0  0  0  0  0  0  0  0  0  0
   -5.2146   16.1304   36.6468 C   0  0  0  0  0  0  0  0  0  0  0  0
   -6.6560   16.1773   37.1524 C   0  0  0  0  0  0  0  0  0  0  0  0
   -4.3266   15.4728   37.6868 C   0  0  0  0  0  0  0  0  0  0  0  0
   -2.4875   17.3812   30.2563 C   0  0  0  0  0  0  0  0  0  0  0  0
   -3.4129   16.4670   29.5548 C   0  0  0  0  0  0  0  0  0  0  0  0
   -4.0492   16.8625   28.3862 C   0  0  0  0  0  0  0  0  0  0  0  0
   -3.6376   15.1818   30.0374 C   0  0  0  0  0  0  0  0  0  0  0  0
   -4.9007   15.9783   27.6843 C   0  0  0  0  0  0  0  0  0  0  0  0
   -4.4974   14.2776   29.3435 C   0  0  0  0  0  0  0  0  0  0  0  0
   -5.1227   14.6836   28.1655 C   0  0  0  0  0  0  0  0  0  0  0  0
 46 47  1  0  0  0
 47 42  1  0  0  0
 47 50  1  0  0  0
 42 43  2  0  0  0
 50 51  1  0  0  0
 51 52  1  0  0  0
 52 53  1  0  0  0
 53 55  1  0  0  0
 55 56  1  0  0  0
 55 57  2  0  0  0
 44 41  1  0  0  0
 41 37  1  0  0  0
 41 62  1  0  0  0
 37 38  2  0  0  0
 62 63  1  0  0  0
 62 64  1  0  0  0
 39 36  1  0  0  0
 36 35  1  0  0  0
 36 65  1  0  0  0
 65 66  1  0  0  0
 66 67  1  0  0  0
 66 68  1  0  0  0
 33  1  1  0  0  0
  1  2  1  0  0  0
  1 69  1  0  0  0
  2  3  2  0  0  0
 69 70  1  0  0  0
 70 71  2  0  0  0
 70 72  1  0  0  0
 71 73  1  0  0  0
 72 74  2  0  0  0
 73 75  2  0  0  0
 74 75  1  0  0  0
  4  6  1  0  0  0
  6  7  1  0  0  0
  6 27  1  0  0  0
  7  8  2  0  0  0
 27 28  1  0  0  0
 28 29  1  0  0  0
 29 30  2  0  0  0
 29 31  1  0  0  0
  9 11  1  0  0  0
 11 13  1  0  0  0
 11 12  1  0  0  0
 13 14  2  0  0  0
 15 17  1  0  0  0
 17 18  1  0  0  0
 17 23  1  0  0  0
 18 19  2  0  0  0
 23 24  1  0  0  0
 24 25  1  0  0  0
 25 26  1  0  0  0
 42 44  1  0  0  0
 37 39  1  0  0  0
 35 33  1  0  0  0
  2  4  1  0  0  0
  7  9  1  0  0  0
 13 15  1  0  0  0
 18 20  1  0  0  0
 46 48  1  0  0  0
 46 49  1  0  0  0
 53 54  1  0  0  0
 56 58  1  0  0  0
 56 59  1  0  0  0
 57 60  1  0  0  0
 57 61  1  0  0  0
 44 45  1  0  0  0
 39 40  1  0  0  0
 33 34  1  0  0  0
  4  5  1  0  0  0
 31 32  1  0  0  0
  9 10  1  0  0  0
 15 16  1  0  0  0
 20 21  1  0  0  0
 20 22  1  0  0  0
M  CHG 1  57   1
M  END
> <minimizedAffinity>
-8.16994

$$$$
1BAI_0Q4_A_125


 75 75  0  0  0  0  0  0  0  0999 V2000
    2.7088   17.3309   33.0787 C   0  0  0  0  0  0  0  0  0  0  0  0
    1.2941   17.9730   33.1217 C   0  0  0  0  0  0  0  0  0  0  0  0
    1.1420   19.1087   33.5783 O   0  0  0  0  0  0  0  0  0  0  0  0
    0.3062   17.2875   32.5454 N   0  0  0  0  0  0  0  0  0  0  0  0
    0.5062   16.3975   32.1750 H   0  0  0  0  0  0  0  0  0  0  0  0
   -1.0634   17.7975   32.4378 C   0  0  0  0  0  0  0  0  0  0  0  0
   -2.1730   16.8031   32.7944 C   0  0  0  0  0  0  0  0  0  0  0  0
   -2.1132   15.6145   32.4721 O   0  0  0  0  0  0  0  0  0  0  0  0
   -3.2622   17.3335   33.3245 N   0  0  0  0  0  0  0  0  0  0  0  0
   -3.3126   18.3077   33.4572 H   0  0  0  0  0  0  0  0  0  0  0  0
   -4.3810   16.5015   33.7121 C   0  0  0  0  0  0  0  0  0  0  0  0
   -4.5796   16.6326   35.2102 C   0  0  0  0  0  0  0  0  0  0  0  0
   -5.7280   16.7643   32.9929 C   0  0  0  0  0  0  0  0  0  0  0  0
   -6.3923   17.7811   33.2043 O   0  0  0  0  0  0  0  0  0  0  0  0
   -6.1250   15.7869   32.1850 N   0  0  0  0  0  0  0  0  0  0  0  0
   -5.5233   15.0179   32.0598 H   0  0  0  0  0  0  0  0  0  0  0  0
   -7.3962   15.7835   31.4732 C   0  0  0  0  0  0  0  0  0  0  0  0
   -8.4526   15.3189   32.4898 C   0  0  0  0  0  0  0  0  0  0  0  0
   -8.5279   14.1000   32.8229 O   0  0  0  0  0  0  0  0  0  0  0  0
   -9.2325   16.2023   32.9248 N   0  0  0  0  0  0  0  0  0  0  0  0
   -9.1296   17.1369   32.6328 H   0  0  0  0  0  0  0  0  0  0  0  0
   -9.9467   15.9601   33.5577 H   0  0  0  0  0  0  0  0  0  0  0  0
   -7.3085   14.7730   30.3004 C   0  0  0  0  0  0  0  0  0  0  0  0
   -5.9258   14.6193   29.5743 C   0  0  0  0  0  0  0  0  0  0  0  0
   -6.0243   14.3467   28.0218 C   0  0  0  0  0  0  0  0  0  0  0  0
   -5.3726   15.4629   27.2317 C   0  0  0  0  0  0  0  0  0  0  0  0
   -1.2944   18.3431   31.0004 C   0  0  0  0  0  0  0  0  0  0  0  0
   -0.7431   17.5255   29.8483 C   0  0  0  0  0  0  0  0  0  0  0  0
   -1.8396   16.9153   28.9622 C   0  0  0  0  0  0  0  0  0  0  0  0
   -1.6544   15.7838   28.4770 O   0  0  0  0  0  0  0  0  0  0  0  0
   -2.9017   17.5551   28.7412 O   0  0  0  0  0  0  0  0  0  0  0  0
   -3.0228   18.4056   29.1153 H   0  0  0  0  0  0  0  0  0  0  0  0
    3.0619   17.0711   34.4792 N   0  0  0  0  0  0  0  0  0  0  0  0
    2.1903   17.1434   35.0041 H   0  0  0  0  0  0  0  0  0  0  0  0
    3.6402   15.9576   34.8920 C   0  0  0  0  0  0  0  0  0  0  0  0
    3.4920   15.6471   36.3758 C   0  0  0  0  0  0  0  0  0  0  0  0
    5.3212   14.4454   37.3945 C   0  0  0  0  0  0  0  0  0  0  0  0
    4.9599   13.4121   36.8453 O   0  0  0  0  0  0  0  0  0  0  0  0
    4.7172   15.5948   37.1511 N   0  0  0  0  0  0  0  0  0  0  0  0
    5.1047   16.4293   37.5014 H   0  0  0  0  0  0  0  0  0  0  0  0
    6.5804   14.5150   38.2971 C   0  0  0  0  0  0  0  0  0  0  0  0
    8.6584   14.8391   37.0015 C   0  0  0  0  0  0  0  0  0  0  0  0
    8.8037   13.6182   36.8028 O   0  0  0  0  0  0  0  0  0  0  0  0
    7.6338   15.3436   37.7080 N   0  0  0  0  0  0  0  0  0  0  0  0
    7.5888   16.3187   37.8361 H   0  0  0  0  0  0  0  0  0  0  0  0
   10.7985   15.1061   35.7599 N   0  0  0  0  0  0  0  0  0  0  0  0
    9.7322   15.8542   36.4941 C   0  0  0  0  0  0  0  0  0  0  0  0
   11.1917   14.3889   36.3693 H   0  0  0  0  0  0  0  0  0  0  0  0
   11.5346   15.7531   35.4773 H   0  0  0  0  0  0  0  0  0  0  0  0
    9.1480   16.9295   35.5692 C   0  0  0  0  0  0  0  0  0  0  0  0
    8.1919   16.4396   34.4282 C   0  0  0  0  0  0  0  0  0  0  0  0
    7.1948   17.5093   33.8586 C   0  0  0  0  0  0  0  0  0  0  0  0
    6.1671   17.9612   34.8059 N   0  0  0  0  0  0  0  0  0  0  0  0
    5.2622   17.5849   34.7119 H   0  0  0  0  0  0  0  0  0  0  0  0
    6.3717   18.8454   35.7853 C   0  0  0  0  0  0  0  0  0  0  0  0
    5.8032   18.6524   36.9637 N   0  0  0  0  0  0  0  0  0  0  0  0
    7.0412   19.9846   35.5535 N   0  0  0  0  0  0  0  0  0  0  0  0
    5.3101   17.8192   37.1417 H   0  0  0  0  0  0  0  0  0  0  0  0
    5.8732   19.3420   37.6628 H   0  0  0  0  0  0  0  0  0  0  0  0
    7.4672   20.1360   34.6790 H   0  0  0  0  0  0  0  0  0  0  0  0
    7.1065   20.6692   36.2580 H   0  0  0  0  0  0  0  0  0  0  0  0
    6.2801   14.9899   39.8106 C   0  0  0  0  0  0  0  0  0  0  0  0
    6.9644   14.0844   40.8374 C   0  0  0  0  0  0  0  0  0  0  0  0
    6.7875   16.4278   40.0416 C   0  0  0  0  0  0  0  0  0  0  0  0
    2.4774   16.5879   37.0701 C   0  0  0  0  0  0  0  0  0  0  0  0
    1.1591   15.9103   37.5399 C   0  0  0  0  0  0  0  0  0  0  0  0
    1.0181   15.8649   39.0609 C   0  0  0  0  0  0  0  0  0  0  0  0
   -0.0353   16.6241   36.9344 C   0  0  0  0  0  0  0  0  0  0  0  0
    2.8277   15.9771   32.3168 C   0  0  0  0  0  0  0  0  0  0  0  0
    3.7373   15.9865   31.1520 C   0  0  0  0  0  0  0  0  0  0  0  0
    4.8476   15.1543   31.1133 C   0  0  0  0  0  0  0  0  0  0  0  0
    3.4780   16.8079   30.0596 C   0  0  0  0  0  0  0  0  0  0  0  0
    5.6975   15.1242   29.9835 C   0  0  0  0  0  0  0  0  0  0  0  0
    4.3280   16.7931   28.9126 C   0  0  0  0  0  0  0  0  0  0  0  0
    5.4344   15.9454   28.8820 C   0  0  0  0  0  0  0  0  0  0  0  0
 46 47  1  0  0  0
 47 42  1  0  0  0
 47 50  1  0  0  0
 42 43  2  0  0  0
 50 51  1  0  0  0
 51 52  1  0  0  0
 52 53  1  0  0  0
 53 55  1  0  0  0
 55 56  1  0  0  0
 55 57  2  0  0  0
 44 41  1  0  0  0
 41 37  1  0  0  0
 41 62  1  0  0  0
 37 38  2  0  0  0
 62 63  1  0  0  0
 62 64  1  0  0  0
 39 36  1  0  0  0
 36 35  1  0  0  0
 36 65  1  0  0  0
 65 66  1  0  0  0
 66 67  1  0  0  0
 66 68  1  0  0  0
 33  1  1  0  0  0
  1  2  1  0  0  0
  1 69  1  0  0  0
  2  3  2  0  0  0
 69 70  1  0  0  0
 70 71  2  0  0  0
 70 72  1  0  0  0
 71 73  1  0  0  0
 72 74  2  0  0  0
 73 75  2  0  0  0
 74 75  1  0  0  0
  4  6  1  0  0  0
  6  7  1  0  0  0
  6 27  1  0  0  0
  7  8  2  0  0  0
 27 28  1  0  0  0
 28 29  1  0  0  0
 29 30  2  0  0  0
 29 31  1  0  0  0
  9 11  1  0  0  0
 11 13  1  0  0  0
 11 12  1  0  0  0
 13 14  2  0  0  0
 15 17  1  0  0  0
 17 18  1  0  0  0
 17 23  1  0  0  0
 18 19  2  0  0  0
 23 24  1  0  0  0
 24 25  1  0  0  0
 25 26  1  0  0  0
 42 44  1  0  0  0
 37 39  1  0  0  0
 35 33  1  0  0  0
  2  4  1  0  0  0
  7  9  1  0  0  0
 13 15  1  0  0  0
 18 20  1  0  0  0
 46 48  1  0  0  0
 46 49  1  0  0  0
 53 54  1  0  0  0
 56 58  1  0  0  0
 56 59  1  0  0  0
 57 60  1  0  0  0
 57 61  1  0  0  0
 44 45  1  0  0  0
 39 40  1  0  0  0
 33 34  1  0  0  0
  4  5  1  0  0  0
 31 32  1  0  0  0
  9 10  1  0  0  0
 15 16  1  0  0  0
 20 21  1  0  0  0
 20 22  1  0  0  0
M  CHG 1  57   1
M  END
> <minimizedAffinity>
-8.11141

$$$$
1BAI_0Q4_A_125


 75 75  0  0  0  0  0  0  0  0999 V2000
   -4.8845   16.4414   32.9400 C   0  0  0  0  0  0  0  0  0  0  0  0
   -6.2185   16.8348   32.2465 C   0  0  0  0  0  0  0  0  0  0  0  0
   -6.8135   17.8614   32.5832 O   0  0  0  0  0  0  0  0  0  0  0  0
   -6.6058   16.0794   31.2181 N   0  0  0  0  0  0  0  0  0  0  0  0
   -6.0658   15.2895   30.9862 H   0  0  0  0  0  0  0  0  0  0  0  0
   -7.7980   16.3705   30.4171 C   0  0  0  0  0  0  0  0  0  0  0  0
   -8.9755   15.4085   30.6040 C   0  0  0  0  0  0  0  0  0  0  0  0
   -9.6015   14.9485   29.6465 O   0  0  0  0  0  0  0  0  0  0  0  0
   -9.3733   15.2334   31.8529 N   0  0  0  0  0  0  0  0  0  0  0  0
   -8.9160   15.7145   32.5800 H   0  0  0  0  0  0  0  0  0  0  0  0
  -10.4716   14.3445   32.1655 C   0  0  0  0  0  0  0  0  0  0  0  0
  -10.2014   13.7043   33.5138 C   0  0  0  0  0  0  0  0  0  0  0  0
  -11.8915   14.9644   32.1693 C   0  0  0  0  0  0  0  0  0  0  0  0
  -12.5900   15.0001   31.1541 O   0  0  0  0  0  0  0  0  0  0  0  0
  -12.2609   15.4967   33.3294 N   0  0  0  0  0  0  0  0  0  0  0  0
  -11.6483   15.4070   34.0948 H   0  0  0  0  0  0  0  0  0  0  0  0
  -13.5169   16.2048   33.5383 C   0  0  0  0  0  0  0  0  0  0  0  0
  -13.2123   17.6929   33.2969 C   0  0  0  0  0  0  0  0  0  0  0  0
  -13.4826   18.5538   34.1846 O   0  0  0  0  0  0  0  0  0  0  0  0
  -12.7240   17.9864   32.1773 N   0  0  0  0  0  0  0  0  0  0  0  0
  -12.5326   17.2766   31.5224 H   0  0  0  0  0  0  0  0  0  0  0  0
  -12.5328   18.9261   31.9548 H   0  0  0  0  0  0  0  0  0  0  0  0
  -13.9740   15.9882   35.0040 C   0  0  0  0  0  0  0  0  0  0  0  0
  -12.9762   15.2689   35.9785 C   0  0  0  0  0  0  0  0  0  0  0  0
  -13.2864   13.7405   36.2279 C   0  0  0  0  0  0  0  0  0  0  0  0
  -13.7827   13.5103   37.6404 C   0  0  0  0  0  0  0  0  0  0  0  0
   -7.4033   16.4260   28.9144 C   0  0  0  0  0  0  0  0  0  0  0  0
   -5.9332   16.2743   28.5744 C   0  0  0  0  0  0  0  0  0  0  0  0
   -5.2115   17.6195   28.4025 C   0  0  0  0  0  0  0  0  0  0  0  0
   -4.8797   18.2535   29.4214 O   0  0  0  0  0  0  0  0  0  0  0  0
   -4.9629   18.0598   27.2491 O   0  0  0  0  0  0  0  0  0  0  0  0
   -5.2207   17.5681   26.4943 H   0  0  0  0  0  0  0  0  0  0  0  0
   -3.8427   16.6487   31.9275 N   0  0  0  0  0  0  0  0  0  0  0  0
   -3.5196   17.6080   32.0528 H   0  0  0  0  0  0  0  0  0  0  0  0
   -2.7516   15.9092   31.8404 C   0  0  0  0  0  0  0  0  0  0  0  0
   -1.4324   16.6669   31.9143 C   0  0  0  0  0  0  0  0  0  0  0  0
    0.2806   17.0821   33.5639 C   0  0  0  0  0  0  0  0  0  0  0  0
    0.1078   18.2893   33.4526 O   0  0  0  0  0  0  0  0  0  0  0  0
   -0.4857   16.2206   32.9191 N   0  0  0  0  0  0  0  0  0  0  0  0
   -0.4133   15.2603   33.1237 H   0  0  0  0  0  0  0  0  0  0  0  0
    1.3028   16.4731   34.5587 C   0  0  0  0  0  0  0  0  0  0  0  0
    3.5079   16.5602   33.4490 C   0  0  0  0  0  0  0  0  0  0  0  0
    3.2360   15.6132   32.6871 O   0  0  0  0  0  0  0  0  0  0  0  0
    2.6469   17.0219   34.3705 N   0  0  0  0  0  0  0  0  0  0  0  0
    2.9337   17.7659   34.9478 H   0  0  0  0  0  0  0  0  0  0  0  0
    5.4035   17.4017   34.8242 N   0  0  0  0  0  0  0  0  0  0  0  0
    4.9264   17.2141   33.4196 C   0  0  0  0  0  0  0  0  0  0  0  0
    4.7240   17.9586   35.3425 H   0  0  0  0  0  0  0  0  0  0  0  0
    6.3026   17.8833   34.8165 H   0  0  0  0  0  0  0  0  0  0  0  0
    5.9549   16.3760   32.6496 C   0  0  0  0  0  0  0  0  0  0  0  0
    6.8225   17.1253   31.5811 C   0  0  0  0  0  0  0  0  0  0  0  0
    6.5526   16.7423   30.0833 C   0  0  0  0  0  0  0  0  0  0  0  0
    5.6432   15.6048   29.8915 N   0  0  0  0  0  0  0  0  0  0  0  0
    5.9163   14.7343   30.2614 H   0  0  0  0  0  0  0  0  0  0  0  0
    4.4729   15.6663   29.2516 C   0  0  0  0  0  0  0  0  0  0  0  0
    3.4773   16.3553   29.7837 N   0  0  0  0  0  0  0  0  0  0  0  0
    4.2563   14.9405   28.1445 N   0  0  0  0  0  0  0  0  0  0  0  0
    3.6279   16.8905   30.5962 H   0  0  0  0  0  0  0  0  0  0  0  0
    2.5854   16.3330   29.3673 H   0  0  0  0  0  0  0  0  0  0  0  0
    4.9921   14.4248   27.7422 H   0  0  0  0  0  0  0  0  0  0  0  0
    3.3615   14.9236   27.7342 H   0  0  0  0  0  0  0  0  0  0  0  0
    0.8650   16.5929   36.1081 C   0  0  0  0  0  0  0  0  0  0  0  0
    1.6331   17.7011   36.8323 C   0  0  0  0  0  0  0  0  0  0  0  0
   -0.6394   16.9108   36.2264 C   0  0  0  0  0  0  0  0  0  0  0  0
   -0.7290   16.7492   30.5377 C   0  0  0  0  0  0  0  0  0  0  0  0
   -1.6682   17.0205   29.3286 C   0  0  0  0  0  0  0  0  0  0  0  0
   -1.4372   18.3876   28.6857 C   0  0  0  0  0  0  0  0  0  0  0  0
   -1.5023   15.9289   28.2878 C   0  0  0  0  0  0  0  0  0  0  0  0
   -4.4840   17.2816   34.1893 C   0  0  0  0  0  0  0  0  0  0  0  0
   -5.0789   16.8358   35.4666 C   0  0  0  0  0  0  0  0  0  0  0  0
   -4.3650   16.0210   36.3346 C   0  0  0  0  0  0  0  0  0  0  0  0
   -6.3541   17.2518   35.8354 C   0  0  0  0  0  0  0  0  0  0  0  0
   -4.9093   15.6270   37.5788 C   0  0  0  0  0  0  0  0  0  0  0  0
   -6.9205   16.8600   37.0861 C   0  0  0  0  0  0  0  0  0  0  0  0
   -6.1892   16.0496   37.9533 C   0  0  0  0  0  0  0  0  0  0  0  0
 46 47  1  0  0  0
 47 42  1  0  0  0
 47 50  1  0  0  0
 42 43  2  0  0  0
 50 51  1  0  0  0
 51 52  1  0  0  0
 52 53  1  0  0  0
 53 55  1  0  0  0
 55 56  1  0  0  0
 55 57  2  0  0  0
 44 41  1  0  0  0
 41 37  1  0  0  0
 41 62  1  0  0  0
 37 38  2  0  0  0
 62 63  1  0  0  0
 62 64  1  0  0  0
 39 36  1  0  0  0
 36 35  1  0  0  0
 36 65  1  0  0  0
 65 66  1  0  0  0
 66 67  1  0  0  0
 66 68  1  0  0  0
 33  1  1  0  0  0
  1  2  1  0  0  0
  1 69  1  0  0  0
  2  3  2  0  0  0
 69 70  1  0  0  0
 70 71  2  0  0  0
 70 72  1  0  0  0
 71 73  1  0  0  0
 72 74  2  0  0  0
 73 75  2  0  0  0
 74 75  1  0  0  0
  4  6  1  0  0  0
  6  7  1  0  0  0
  6 27  1  0  0  0
  7  8  2  0  0  0
 27 28  1  0  0  0
 28 29  1  0  0  0
 29 30  2  0  0  0
 29 31  1  0  0  0
  9 11  1  0  0  0
 11 13  1  0  0  0
 11 12  1  0  0  0
 13 14  2  0  0  0
 15 17  1  0  0  0
 17 18  1  0  0  0
 17 23  1  0  0  0
 18 19  2  0  0  0
 23 24  1  0  0  0
 24 25  1  0  0  0
 25 26  1  0  0  0
 42 44  1  0  0  0
 37 39  1  0  0  0
 35 33  1  0  0  0
  2  4  1  0  0  0
  7  9  1  0  0  0
 13 15  1  0  0  0
 18 20  1  0  0  0
 46 48  1  0  0  0
 46 49  1  0  0  0
 53 54  1  0  0  0
 56 58  1  0  0  0
 56 59  1  0  0  0
 57 60  1  0  0  0
 57 61  1  0  0  0
 44 45  1  0  0  0
 39 40  1  0  0  0
 33 34  1  0  0  0
  4  5  1  0  0  0
 31 32  1  0  0  0
  9 10  1  0  0  0
 15 16  1  0  0  0
 20 21  1  0  0  0
 20 22  1  0  0  0
M  CHG 1  57   1
M  END
> <minimizedAffinity>
-7.97820

$$$$
1BAI_0Q4_A_125


 75 75  0  0  0  0  0  0  0  0999 V2000
   -5.6776   16.4890   31.4022 C   0  0  0  0  0  0  0  0  0  0  0  0
   -6.8672   16.2099   32.3626 C   0  0  0  0  0  0  0  0  0  0  0  0
   -7.9566   16.7576   32.1763 O   0  0  0  0  0  0  0  0  0  0  0  0
   -6.6760   15.2817   33.3007 N   0  0  0  0  0  0  0  0  0  0  0  0
   -5.7875   14.8640   33.3737 H   0  0  0  0  0  0  0  0  0  0  0  0
   -7.7273   14.8546   34.2281 C   0  0  0  0  0  0  0  0  0  0  0  0
   -9.0490   14.4261   33.5827 C   0  0  0  0  0  0  0  0  0  0  0  0
   -9.1354   13.4177   32.8786 O   0  0  0  0  0  0  0  0  0  0  0  0
  -10.0438   15.2897   33.6983 N   0  0  0  0  0  0  0  0  0  0  0  0
   -9.8959   16.1401   34.1718 H   0  0  0  0  0  0  0  0  0  0  0  0
  -11.3468   15.0018   33.1385 C   0  0  0  0  0  0  0  0  0  0  0  0
  -12.3844   15.1580   34.2339 C   0  0  0  0  0  0  0  0  0  0  0  0
  -11.7759   15.8357   31.9052 C   0  0  0  0  0  0  0  0  0  0  0  0
  -12.4089   16.8876   32.0177 O   0  0  0  0  0  0  0  0  0  0  0  0
  -11.4567   15.2969   30.7333 N   0  0  0  0  0  0  0  0  0  0  0  0
  -10.9335   14.4629   30.7354 H   0  0  0  0  0  0  0  0  0  0  0  0
  -11.8334   15.8644   29.4454 C   0  0  0  0  0  0  0  0  0  0  0  0
  -13.0608   15.0680   28.9715 C   0  0  0  0  0  0  0  0  0  0  0  0
  -14.1954   15.6245   28.8976 O   0  0  0  0  0  0  0  0  0  0  0  0
  -12.8686   13.8555   28.7054 N   0  0  0  0  0  0  0  0  0  0  0  0
  -11.9646   13.4726   28.7793 H   0  0  0  0  0  0  0  0  0  0  0  0
  -13.6219   13.2881   28.4229 H   0  0  0  0  0  0  0  0  0  0  0  0
  -10.6591   15.6697   28.4517 C   0  0  0  0  0  0  0  0  0  0  0  0
   -9.3732   16.5434   28.6651 C   0  0  0  0  0  0  0  0  0  0  0  0
   -9.3863   17.9296   27.9083 C   0  0  0  0  0  0  0  0  0  0  0  0
   -9.3167   17.7304   26.4082 C   0  0  0  0  0  0  0  0  0  0  0  0
   -7.9931   15.9892   35.2572 C   0  0  0  0  0  0  0  0  0  0  0  0
   -7.1981   15.9587   36.5482 C   0  0  0  0  0  0  0  0  0  0  0  0
   -5.7144   16.3046   36.3517 C   0  0  0  0  0  0  0  0  0  0  0  0
   -5.4113   17.1896   35.5301 O   0  0  0  0  0  0  0  0  0  0  0  0
   -4.8317   15.7007   37.0168 O   0  0  0  0  0  0  0  0  0  0  0  0
   -5.0795   15.0375   37.6306 H   0  0  0  0  0  0  0  0  0  0  0  0
   -4.5392   15.7558   31.9680 N   0  0  0  0  0  0  0  0  0  0  0  0
   -4.1535   15.2053   31.2008 H   0  0  0  0  0  0  0  0  0  0  0  0
   -3.5064   16.3433   32.5452 C   0  0  0  0  0  0  0  0  0  0  0  0
   -2.3206   16.6373   31.6358 C   0  0  0  0  0  0  0  0  0  0  0  0
   -0.4249   17.8792   32.4677 C   0  0  0  0  0  0  0  0  0  0  0  0
   -1.0141   18.9330   32.2629 O   0  0  0  0  0  0  0  0  0  0  0  0
   -1.0200   16.7158   32.2740 N   0  0  0  0  0  0  0  0  0  0  0  0
   -0.5738   15.8887   32.5675 H   0  0  0  0  0  0  0  0  0  0  0  0
    0.9940   17.8234   33.0913 C   0  0  0  0  0  0  0  0  0  0  0  0
    0.8181   16.1983   34.9432 C   0  0  0  0  0  0  0  0  0  0  0  0
    0.6930   15.2300   34.1700 O   0  0  0  0  0  0  0  0  0  0  0  0
    0.9573   17.4616   34.5094 N   0  0  0  0  0  0  0  0  0  0  0  0
    1.0386   18.1798   35.1779 H   0  0  0  0  0  0  0  0  0  0  0  0
    1.7024   14.9210   36.8873 N   0  0  0  0  0  0  0  0  0  0  0  0
    0.7347   15.9891   36.4892 C   0  0  0  0  0  0  0  0  0  0  0  0
    1.5028   14.0689   36.3634 H   0  0  0  0  0  0  0  0  0  0  0  0
    1.6118   14.7352   37.8861 H   0  0  0  0  0  0  0  0  0  0  0  0
    1.0437   17.2652   37.2824 C   0  0  0  0  0  0  0  0  0  0  0  0
    2.0397   17.1286   38.4846 C   0  0  0  0  0  0  0  0  0  0  0  0
    3.5453   17.4403   38.1703 C   0  0  0  0  0  0  0  0  0  0  0  0
    3.8605   17.5854   36.7430 N   0  0  0  0  0  0  0  0  0  0  0  0
    3.3382   18.2390   36.2240 H   0  0  0  0  0  0  0  0  0  0  0  0
    4.8044   16.8949   36.0986 C   0  0  0  0  0  0  0  0  0  0  0  0
    5.8529   17.5325   35.6055 N   0  0  0  0  0  0  0  0  0  0  0  0
    4.6431   15.5889   35.8383 N   0  0  0  0  0  0  0  0  0  0  0  0
    5.9786   18.4910   35.7919 H   0  0  0  0  0  0  0  0  0  0  0  0
    6.5077   17.0487   35.0520 H   0  0  0  0  0  0  0  0  0  0  0  0
    3.8653   15.1070   36.2016 H   0  0  0  0  0  0  0  0  0  0  0  0
    5.3024   15.1124   35.2839 H   0  0  0  0  0  0  0  0  0  0  0  0
    2.0240   16.8652   32.2992 C   0  0  0  0  0  0  0  0  0  0  0  0
    1.9157   17.0437   30.7830 C   0  0  0  0  0  0  0  0  0  0  0  0
    3.4791   17.1755   32.7051 C   0  0  0  0  0  0  0  0  0  0  0  0
   -2.2518   15.6640   30.4339 C   0  0  0  0  0  0  0  0  0  0  0  0
   -2.2954   16.3368   29.0328 C   0  0  0  0  0  0  0  0  0  0  0  0
   -2.2290   17.8622   29.0986 C   0  0  0  0  0  0  0  0  0  0  0  0
   -1.1642   15.8103   28.1692 C   0  0  0  0  0  0  0  0  0  0  0  0
   -5.8510   16.0037   29.9319 C   0  0  0  0  0  0  0  0  0  0  0  0
   -5.7988   17.0666   28.9064 C   0  0  0  0  0  0  0  0  0  0  0  0
   -5.6080   16.7511   27.5681 C   0  0  0  0  0  0  0  0  0  0  0  0
   -5.9719   18.4004   29.2617 C   0  0  0  0  0  0  0  0  0  0  0  0
   -5.6020   17.7578   26.5751 C   0  0  0  0  0  0  0  0  0  0  0  0
   -5.9645   19.4298   28.2724 C   0  0  0  0  0  0  0  0  0  0  0  0
   -5.7819   19.0989   26.9305 C   0  0  0  0  0  0  0  0  0  0  0  0
 46 47  1  0  0  0
 47 42  1  0  0  0
 47 50  1  0  0  0
 42 43  2  0  0  0
 50 51  1  0  0  0
 51 52  1  0  0  0
 52 53  1  0  0  0
 53 55  1  0  0  0
 55 56  1  0  0  0
 55 57  2  0  0  0
 44 41  1  0  0  0
 41 37  1  0  0  0
 41 62  1  0  0  0
 37 38  2  0  0  0
 62 63  1  0  0  0
 62 64  1  0  0  0
 39 36  1  0  0  0
 36 35  1  0  0  0
 36 65  1  0  0  0
 65 66  1  0  0  0
 66 67  1  0  0  0
 66 68  1  0  0  0
 33  1  1  0  0  0
  1  2  1  0  0  0
  1 69  1  0  0  0
  2  3  2  0  0  0
 69 70  1  0  0  0
 70 71  2  0  0  0
 70 72  1  0  0  0
 71 73  1  0  0  0
 72 74  2  0  0  0
 73 75  2  0  0  0
 74 75  1  0  0  0
  4  6  1  0  0  0
  6  7  1  0  0  0
  6 27  1  0  0  0
  7  8  2  0  0  0
 27 28  1  0  0  0
 28 29  1  0  0  0
 29 30  2  0  0  0
 29 31  1  0  0  0
  9 11  1  0  0  0
 11 13  1  0  0  0
 11 12  1  0  0  0
 13 14  2  0  0  0
 15 17  1  0  0  0
 17 18  1  0  0  0
 17 23  1  0  0  0
 18 19  2  0  0  0
 23 24  1  0  0  0
 24 25  1  0  0  0
 25 26  1  0  0  0
 42 44  1  0  0  0
 37 39  1  0  0  0
 35 33  1  0  0  0
  2  4  1  0  0  0
  7  9  1  0  0  0
 13 15  1  0  0  0
 18 20  1  0  0  0
 46 48  1  0  0  0
 46 49  1  0  0  0
 53 54  1  0  0  0
 56 58  1  0  0  0
 56 59  1  0  0  0
 57 60  1  0  0  0
 57 61  1  0  0  0
 44 45  1  0  0  0
 39 40  1  0  0  0
 33 34  1  0  0  0
  4  5  1  0  0  0
 31 32  1  0  0  0
  9 10  1  0  0  0
 15 16  1  0  0  0
 20 21  1  0  0  0
 20 22  1  0  0  0
M  CHG 1  57   1
M  END
> <minimizedAffinity>
-7.93311

$$$$
1BAI_0Q4_A_125


 75 75  0  0  0  0  0  0  0  0999 V2000
   -1.5841   16.6351   32.3081 C   0  0  0  0  0  0  0  0  0  0  0  0
   -0.5950   17.2184   33.3554 C   0  0  0  0  0  0  0  0  0  0  0  0
   -0.6336   18.4169   33.6448 O   0  0  0  0  0  0  0  0  0  0  0  0
    0.1935   16.3476   33.9863 N   0  0  0  0  0  0  0  0  0  0  0  0
    0.1508   15.3998   33.7236 H   0  0  0  0  0  0  0  0  0  0  0  0
    1.1207   16.7362   35.0526 C   0  0  0  0  0  0  0  0  0  0  0  0
    2.5256   17.1426   34.5963 C   0  0  0  0  0  0  0  0  0  0  0  0
    2.7553   17.5180   33.4446 O   0  0  0  0  0  0  0  0  0  0  0  0
    3.4942   16.9122   35.4666 N   0  0  0  0  0  0  0  0  0  0  0  0
    3.2792   16.5006   36.3347 H   0  0  0  0  0  0  0  0  0  0  0  0
    4.8660   17.2566   35.1604 C   0  0  0  0  0  0  0  0  0  0  0  0
    5.5881   17.5515   36.4613 C   0  0  0  0  0  0  0  0  0  0  0  0
    5.6808   16.2197   34.3471 C   0  0  0  0  0  0  0  0  0  0  0  0
    6.2222   15.2506   34.8832 O   0  0  0  0  0  0  0  0  0  0  0  0
    5.7906   16.4938   33.0515 N   0  0  0  0  0  0  0  0  0  0  0  0
    5.3099   17.2791   32.7031 H   0  0  0  0  0  0  0  0  0  0  0  0
    6.5785   15.7034   32.1150 C   0  0  0  0  0  0  0  0  0  0  0  0
    7.7037   16.6273   31.6192 C   0  0  0  0  0  0  0  0  0  0  0  0
    8.6254   16.9928   32.4061 O   0  0  0  0  0  0  0  0  0  0  0  0
    7.6248   17.0086   30.4249 N   0  0  0  0  0  0  0  0  0  0  0  0
    6.8862   16.6935   29.8553 H   0  0  0  0  0  0  0  0  0  0  0  0
    8.3015   17.6227   30.0585 H   0  0  0  0  0  0  0  0  0  0  0  0
    5.6723   15.2871   30.9277 C   0  0  0  0  0  0  0  0  0  0  0  0
    4.1370   15.5905   31.0431 C   0  0  0  0  0  0  0  0  0  0  0  0
    3.5845   16.6080   29.9690 C   0  0  0  0  0  0  0  0  0  0  0  0
    4.5120   16.6940   28.7744 C   0  0  0  0  0  0  0  0  0  0  0  0
    1.2225   15.5808   36.0878 C   0  0  0  0  0  0  0  0  0  0  0  0
    0.5381   15.7825   37.4260 C   0  0  0  0  0  0  0  0  0  0  0  0
    1.5220   16.0728   38.5694 C   0  0  0  0  0  0  0  0  0  0  0  0
    2.6684   16.4667   38.2851 O   0  0  0  0  0  0  0  0  0  0  0  0
    1.1634   15.9153   39.7664 O   0  0  0  0  0  0  0  0  0  0  0  0
    0.2962   15.6180   39.9604 H   0  0  0  0  0  0  0  0  0  0  0  0
   -2.9231   16.9626   32.8114 N   0  0  0  0  0  0  0  0  0  0  0  0
   -3.5785   16.5105   32.1739 H   0  0  0  0  0  0  0  0  0  0  0  0
   -3.3391   16.6629   34.0287 C   0  0  0  0  0  0  0  0  0  0  0  0
   -4.8361   16.4228   34.1748 C   0  0  0  0  0  0  0  0  0  0  0  0
   -6.7343   16.4201   32.6833 C   0  0  0  0  0  0  0  0  0  0  0  0
   -7.2250   17.3628   33.2917 O   0  0  0  0  0  0  0  0  0  0  0  0
   -5.5352   15.9591   32.9911 N   0  0  0  0  0  0  0  0  0  0  0  0
   -5.1091   15.2901   32.4079 H   0  0  0  0  0  0  0  0  0  0  0  0
   -7.4067   15.7909   31.4354 C   0  0  0  0  0  0  0  0  0  0  0  0
   -9.3970   14.5133   32.1482 C   0  0  0  0  0  0  0  0  0  0  0  0
   -8.7194   13.5357   32.5176 O   0  0  0  0  0  0  0  0  0  0  0  0
   -8.8491   15.6182   31.6165 N   0  0  0  0  0  0  0  0  0  0  0  0
   -9.4469   16.3479   31.3347 H   0  0  0  0  0  0  0  0  0  0  0  0
  -11.3660   13.5397   33.3177 N   0  0  0  0  0  0  0  0  0  0  0  0
  -10.9571   14.4619   32.2140 C   0  0  0  0  0  0  0  0  0  0  0  0
  -10.9479   12.6217   33.1663 H   0  0  0  0  0  0  0  0  0  0  0  0
  -12.3823   13.4527   33.3292 H   0  0  0  0  0  0  0  0  0  0  0  0
  -11.5909   15.8385   32.4515 C   0  0  0  0  0  0  0  0  0  0  0  0
  -13.1084   15.9916   32.0913 C   0  0  0  0  0  0  0  0  0  0  0  0
  -14.1233   15.3355   33.0924 C   0  0  0  0  0  0  0  0  0  0  0  0
  -14.4548   16.1586   34.2631 N   0  0  0  0  0  0  0  0  0  0  0  0
  -15.1873   16.8098   34.1710 H   0  0  0  0  0  0  0  0  0  0  0  0
  -13.8342   16.0872   35.4432 C   0  0  0  0  0  0  0  0  0  0  0  0
  -12.8925   15.1771   35.6277 N   0  0  0  0  0  0  0  0  0  0  0  0
  -14.2370   16.8399   36.4779 N   0  0  0  0  0  0  0  0  0  0  0  0
  -12.5912   14.6206   34.8735 H   0  0  0  0  0  0  0  0  0  0  0  0
  -12.4927   15.0561   36.5192 H   0  0  0  0  0  0  0  0  0  0  0  0
  -14.9375   17.5195   36.3490 H   0  0  0  0  0  0  0  0  0  0  0  0
  -13.8322   16.7126   37.3663 H   0  0  0  0  0  0  0  0  0  0  0  0
   -7.1094   16.5805   30.0590 C   0  0  0  0  0  0  0  0  0  0  0  0
   -8.3516   16.6587   29.1683 C   0  0  0  0  0  0  0  0  0  0  0  0
   -6.6476   18.0234   30.3471 C   0  0  0  0  0  0  0  0  0  0  0  0
   -5.1641   15.4943   35.3693 C   0  0  0  0  0  0  0  0  0  0  0  0
   -5.1434   16.1781   36.7656 C   0  0  0  0  0  0  0  0  0  0  0  0
   -6.5242   16.2529   37.4163 C   0  0  0  0  0  0  0  0  0  0  0  0
   -4.1809   15.4501   37.6854 C   0  0  0  0  0  0  0  0  0  0  0  0
   -1.4812   17.2154   30.8658 C   0  0  0  0  0  0  0  0  0  0  0  0
   -2.4647   16.6827   29.8998 C   0  0  0  0  0  0  0  0  0  0  0  0
   -2.8186   15.3406   29.9163 C   0  0  0  0  0  0  0  0  0  0  0  0
   -3.0765   17.5251   28.9772 C   0  0  0  0  0  0  0  0  0  0  0  0
   -3.7921   14.8320   29.0255 C   0  0  0  0  0  0  0  0  0  0  0  0
   -4.0584   17.0275   28.0680 C   0  0  0  0  0  0  0  0  0  0  0  0
   -4.4124   15.6795   28.1013 C   0  0  0  0  0  0  0  0  0  0  0  0
 46 47  1  0  0  0
 47 42  1  0  0  0
 47 50  1  0  0  0
 42 43  2  0  0  0
 50 51  1  0  0  0
 51 52  1  0  0  0
 52 53  1  0  0  0
 53 55  1  0  0  0
 55 56  1  0  0  0
 55 57  2  0  0  0
 44 41  1  0  0  0
 41 37  1  0  0  0
 41 62  1  0  0  0
 37 38  2  0  0  0
 62 63  1  0  0  0
 62 64  1  0  0  0
 39 36  1  0  0  0
 36 35  1  0  0  0
 36 65  1  0  0  0
 65 66  1  0  0  0
 66 67  1  0  0  0
 66 68  1  0  0  0
 33  1  1  0  0  0
  1  2  1  0  0  0
  1 69  1  0  0  0
  2  3  2  0  0  0
 69 70  1  0  0  0
 70 71  2  0  0  0
 70 72  1  0  0  0
 71 73  1  0  0  0
 72 74  2  0  0  0
 73 75  2  0  0  0
 74 75  1  0  0  0
  4  6  1  0  0  0
  6  7  1  0  0  0
  6 27  1  0  0  0
  7  8  2  0  0  0
 27 28  1  0  0  0
 28 29  1  0  0  0
 29 30  2  0  0  0
 29 31  1  0  0  0
  9 11  1  0  0  0
 11 13  1  0  0  0
 11 12  1  0  0  0
 13 14  2  0  0  0
 15 17  1  0  0  0
 17 18  1  0  0  0
 17 23  1  0  0  0
 18 19  2  0  0  0
 23 24  1  0  0  0
 24 25  1  0  0  0
 25 26  1  0  0  0
 42 44  1  0  0  0
 37 39  1  0  0  0
 35 33  1  0  0  0
  2  4  1  0  0  0
  7  9  1  0  0  0
 13 15  1  0  0  0
 18 20  1  0  0  0
 46 48  1  0  0  0
 46 49  1  0  0  0
 53 54  1  0  0  0
 56 58  1  0  0  0
 56 59  1  0  0  0
 57 60  1  0  0  0
 57 61  1  0  0  0
 44 45  1  0  0  0
 39 40  1  0  0  0
 33 34  1  0  0  0
  4  5  1  0  0  0
 31 32  1  0  0  0
  9 10  1  0  0  0
 15 16  1  0  0  0
 20 21  1  0  0  0
 20 22  1  0  0  0
M  CHG 1  57   1
M  END
> <minimizedAffinity>
-7.84192

$$$$
1BAI_0Q4_A_125


 75 75  0  0  0  0  0  0  0  0999 V2000
   -4.8033   16.5501   31.3711 C   0  0  0  0  0  0  0  0  0  0  0  0
   -6.0880   16.6236   32.2426 C   0  0  0  0  0  0  0  0  0  0  0  0
   -6.5575   17.7179   32.5645 O   0  0  0  0  0  0  0  0  0  0  0  0
   -6.6965   15.4684   32.5133 N   0  0  0  0  0  0  0  0  0  0  0  0
   -6.2797   14.6335   32.1997 H   0  0  0  0  0  0  0  0  0  0  0  0
   -7.9571   15.3841   33.2559 C   0  0  0  0  0  0  0  0  0  0  0  0
   -9.2180   15.7570   32.4696 C   0  0  0  0  0  0  0  0  0  0  0  0
   -9.1652   16.1779   31.3119 O   0  0  0  0  0  0  0  0  0  0  0  0
  -10.3433   15.7500   33.1641 N   0  0  0  0  0  0  0  0  0  0  0  0
  -10.3219   15.5191   34.1209 H   0  0  0  0  0  0  0  0  0  0  0  0
  -11.6058   16.0772   32.5370 C   0  0  0  0  0  0  0  0  0  0  0  0
  -12.1903   14.8085   31.9456 C   0  0  0  0  0  0  0  0  0  0  0  0
  -12.6707   16.7632   33.4291 C   0  0  0  0  0  0  0  0  0  0  0  0
  -12.8830   17.9764   33.3749 O   0  0  0  0  0  0  0  0  0  0  0  0
  -13.2843   15.9515   34.2836 N   0  0  0  0  0  0  0  0  0  0  0  0
  -13.0673   14.9920   34.2465 H   0  0  0  0  0  0  0  0  0  0  0  0
  -14.2586   16.3943   35.2722 C   0  0  0  0  0  0  0  0  0  0  0  0
  -13.6997   15.9703   36.6409 C   0  0  0  0  0  0  0  0  0  0  0  0
  -13.8846   16.6970   37.6608 O   0  0  0  0  0  0  0  0  0  0  0  0
  -13.0379   14.9029   36.6652 N   0  0  0  0  0  0  0  0  0  0  0  0
  -12.9246   14.3751   35.8419 H   0  0  0  0  0  0  0  0  0  0  0  0
  -12.6324   14.5942   37.5075 H   0  0  0  0  0  0  0  0  0  0  0  0
  -15.6051   15.6741   35.0032 C   0  0  0  0  0  0  0  0  0  0  0  0
  -15.5731   14.3789   34.1177 C   0  0  0  0  0  0  0  0  0  0  0  0
  -16.1664   14.5597   32.6652 C   0  0  0  0  0  0  0  0  0  0  0  0
  -16.3987   16.0234   32.3516 C   0  0  0  0  0  0  0  0  0  0  0  0
   -7.8586   16.2663   34.5322 C   0  0  0  0  0  0  0  0  0  0  0  0
   -7.0983   15.6976   35.7148 C   0  0  0  0  0  0  0  0  0  0  0  0
   -6.2013   16.7329   36.4099 C   0  0  0  0  0  0  0  0  0  0  0  0
   -5.1997   17.1577   35.8044 O   0  0  0  0  0  0  0  0  0  0  0  0
   -6.4857   17.1389   37.5677 O   0  0  0  0  0  0  0  0  0  0  0  0
   -7.2438   16.8074   38.0074 H   0  0  0  0  0  0  0  0  0  0  0  0
   -3.7794   15.9518   32.2355 N   0  0  0  0  0  0  0  0  0  0  0  0
   -3.1778   15.4065   31.6182 H   0  0  0  0  0  0  0  0  0  0  0  0
   -2.9661   16.6577   33.0004 C   0  0  0  0  0  0  0  0  0  0  0  0
   -1.5355   16.7927   32.4954 C   0  0  0  0  0  0  0  0  0  0  0  0
    0.4762   17.3546   33.7059 C   0  0  0  0  0  0  0  0  0  0  0  0
    0.4222   18.5018   33.2808 O   0  0  0  0  0  0  0  0  0  0  0  0
   -0.4827   16.4842   33.4448 N   0  0  0  0  0  0  0  0  0  0  0  0
   -0.4830   15.6123   33.9020 H   0  0  0  0  0  0  0  0  0  0  0  0
    1.5829   16.8770   34.6817 C   0  0  0  0  0  0  0  0  0  0  0  0
    3.7112   16.7046   33.4397 C   0  0  0  0  0  0  0  0  0  0  0  0
    3.3988   15.6148   32.9240 O   0  0  0  0  0  0  0  0  0  0  0  0
    2.9075   17.3628   34.2909 N   0  0  0  0  0  0  0  0  0  0  0  0
    3.2246   18.2139   34.6707 H   0  0  0  0  0  0  0  0  0  0  0  0
    5.7874   17.5906   34.4873 N   0  0  0  0  0  0  0  0  0  0  0  0
    5.1194   17.3275   33.1756 C   0  0  0  0  0  0  0  0  0  0  0  0
    5.1920   18.1911   35.0576 H   0  0  0  0  0  0  0  0  0  0  0  0
    6.6821   18.0531   34.3264 H   0  0  0  0  0  0  0  0  0  0  0  0
    6.0227   16.4242   32.3264 C   0  0  0  0  0  0  0  0  0  0  0  0
    6.9614   17.1330   31.2908 C   0  0  0  0  0  0  0  0  0  0  0  0
    6.6856   16.8128   29.7795 C   0  0  0  0  0  0  0  0  0  0  0  0
    5.3396   17.1664   29.3094 N   0  0  0  0  0  0  0  0  0  0  0  0
    5.1729   18.1056   29.0658 H   0  0  0  0  0  0  0  0  0  0  0  0
    4.3258   16.3058   29.1886 C   0  0  0  0  0  0  0  0  0  0  0  0
    3.2369   16.4783   29.9191 N   0  0  0  0  0  0  0  0  0  0  0  0
    4.4460   15.2045   28.4321 N   0  0  0  0  0  0  0  0  0  0  0  0
    3.1410   17.2838   30.4770 H   0  0  0  0  0  0  0  0  0  0  0  0
    2.5223   15.8014   29.9049 H   0  0  0  0  0  0  0  0  0  0  0  0
    5.2534   15.0685   27.8855 H   0  0  0  0  0  0  0  0  0  0  0  0
    3.7267   14.5323   28.4236 H   0  0  0  0  0  0  0  0  0  0  0  0
    1.2942   17.2332   36.2297 C   0  0  0  0  0  0  0  0  0  0  0  0
    0.4592   16.1499   36.9165 C   0  0  0  0  0  0  0  0  0  0  0  0
    2.6156   17.3734   37.0124 C   0  0  0  0  0  0  0  0  0  0  0  0
   -1.3022   16.0012   31.1855 C   0  0  0  0  0  0  0  0  0  0  0  0
   -0.9581   16.8667   29.9404 C   0  0  0  0  0  0  0  0  0  0  0  0
   -1.5140   16.2908   28.6385 C   0  0  0  0  0  0  0  0  0  0  0  0
   -1.4692   18.2821   30.1355 C   0  0  0  0  0  0  0  0  0  0  0  0
   -4.8913   15.6711   30.0877 C   0  0  0  0  0  0  0  0  0  0  0  0
   -5.1941   16.4041   28.8406 C   0  0  0  0  0  0  0  0  0  0  0  0
   -5.0918   17.7875   28.7892 C   0  0  0  0  0  0  0  0  0  0  0  0
   -5.5568   15.7163   27.6871 C   0  0  0  0  0  0  0  0  0  0  0  0
   -5.3358   18.4927   27.5880 C   0  0  0  0  0  0  0  0  0  0  0  0
   -5.8107   16.4129   26.4670 C   0  0  0  0  0  0  0  0  0  0  0  0
   -5.6947   17.8016   26.4259 C   0  0  0  0  0  0  0  0  0  0  0  0
 46 47  1  0  0  0
 47 42  1  0  0  0
 47 50  1  0  0  0
 42 43  2  0  0  0
 50 51  1  0  0  0
 51 52  1  0  0  0
 52 53  1  0  0  0
 53 55  1  0  0  0
 55 56  1  0  0  0
 55 57  2  0  0  0
 44 41  1  0  0  0
 41 37  1  0  0  0
 41 62  1  0  0  0
 37 38  2  0  0  0
 62 63  1  0  0  0
 62 64  1  0  0  0
 39 36  1  0  0  0
 36 35  1  0  0  0
 36 65  1  0  0  0
 65 66  1  0  0  0
 66 67  1  0  0  0
 66 68  1  0  0  0
 33  1  1  0  0  0
  1  2  1  0  0  0
  1 69  1  0  0  0
  2  3  2  0  0  0
 69 70  1  0  0  0
 70 71  2  0  0  0
 70 72  1  0  0  0
 71 73  1  0  0  0
 72 74  2  0  0  0
 73 75  2  0  0  0
 74 75  1  0  0  0
  4  6  1  0  0  0
  6  7  1  0  0  0
  6 27  1  0  0  0
  7  8  2  0  0  0
 27 28  1  0  0  0
 28 29  1  0  0  0
 29 30  2  0  0  0
 29 31  1  0  0  0
  9 11  1  0  0  0
 11 13  1  0  0  0
 11 12  1  0  0  0
 13 14  2  0  0  0
 15 17  1  0  0  0
 17 18  1  0  0  0
 17 23  1  0  0  0
 18 19  2  0  0  0
 23 24  1  0  0  0
 24 25  1  0  0  0
 25 26  1  0  0  0
 42 44  1  0  0  0
 37 39  1  0  0  0
 35 33  1  0  0  0
  2  4  1  0  0  0
  7  9  1  0  0  0
 13 15  1  0  0  0
 18 20  1  0  0  0
 46 48  1  0  0  0
 46 49  1  0  0  0
 53 54  1  0  0  0
 56 58  1  0  0  0
 56 59  1  0  0  0
 57 60  1  0  0  0
 57 61  1  0  0  0
 44 45  1  0  0  0
 39 40  1  0  0  0
 33 34  1  0  0  0
  4  5  1  0  0  0
 31 32  1  0  0  0
  9 10  1  0  0  0
 15 16  1  0  0  0
 20 21  1  0  0  0
 20 22  1  0  0  0
M  CHG 1  57   1
M  END
> <minimizedAffinity>
-7.82705

$$$$
