1BAI_0Q4_A_125
  RCSB PDB12061702043D
Coordinates from PDB:1BAI:A:125 Model:1 without hydrogens
 59 59  0  0  0  0            999 V2000
    9.0110   16.0520   33.5660   N 0  0  0  0  0  0  0  0  0  0  0  0
    7.7380   15.7040   34.2690   C 0  0  0  0  0  0  0  0  0  0  0  0
    6.5830   16.5830   33.6910   C 0  0  0  0  0  0  0  0  0  0  0  0
    6.7320   17.8130   33.5640   O 0  0  0  0  0  0  0  0  0  0  0  0
    7.9330   15.8910   35.7790   C 0  0  0  0  0  0  0  0  0  0  0  0
    6.7740   15.3950   36.7100   C 0  0  0  0  0  0  0  0  0  0  0  0
    6.9490   13.9610   37.3230   C 0  0  0  0  0  0  0  0  0  0  0  0
    7.4490   13.9370   38.7040   N 0  0  0  0  0  0  0  0  0  0  0  0
    6.7710   14.3790   39.7660   C 0  0  0  0  0  0  0  0  0  0  0  0
    5.5520   14.8650   39.6020   N 0  0  0  0  0  0  0  0  0  0  0  0
    7.3540   14.4510   40.9720   N 0  3  0  0  0  0  0  0  0  0  0  0
    5.4770   15.9390   33.2840   N 0  0  0  0  0  0  0  0  0  0  0  0
    4.3340   16.6170   32.6700   C 0  0  0  0  0  0  0  0  0  0  0  0
    2.9980   16.2560   33.3700   C 0  0  0  0  0  0  0  0  0  0  0  0
    2.3670   15.2410   33.1030   O 0  0  0  0  0  0  0  0  0  0  0  0
    4.3300   16.3670   31.0750   C 0  0  0  0  0  0  0  0  0  0  0  0
    3.0980   16.9810   30.4060   C 0  0  0  0  0  0  0  0  0  0  0  0
    5.5790   16.9930   30.4220   C 0  0  0  0  0  0  0  0  0  0  0  0
    2.5100   17.1660   34.1940   N 0  0  0  0  0  0  0  0  0  0  0  0
    1.3020   16.9140   34.9570   C 0  0  0  0  0  0  0  0  0  0  0  0
   -0.0030   17.4050   34.3440   C 0  0  0  0  0  0  0  0  0  0  0  0
    1.4900   17.4170   36.4090   C 0  0  0  0  0  0  0  0  0  0  0  0
    2.8590   17.0690   37.0590   C 0  0  0  0  0  0  0  0  0  0  0  0
    3.0070   17.6220   38.4760   C 0  0  0  0  0  0  0  0  0  0  0  0
    3.0600   15.5650   37.0710   C 0  0  0  0  0  0  0  0  0  0  0  0
   -0.1410   17.1960   33.0470   N 0  0  0  0  0  0  0  0  0  0  0  0
   -1.3440   17.5610   32.2900   C 0  0  0  0  0  0  0  0  0  0  0  0
   -2.4520   16.5880   32.7810   C 0  0  0  0  0  0  0  0  0  0  0  0
   -2.2050   15.3880   32.9240   O 0  0  0  0  0  0  0  0  0  0  0  0
   -0.9770   17.4800   30.7780   C 0  0  0  0  0  0  0  0  0  0  0  0
   -2.1030   17.1740   29.8710   C 0  0  0  0  0  0  0  0  0  0  0  0
   -2.5970   15.8810   29.7660   C 0  0  0  0  0  0  0  0  0  0  0  0
   -2.7080   18.1840   29.1300   C 0  0  0  0  0  0  0  0  0  0  0  0
   -3.7030   15.5880   28.9350   C 0  0  0  0  0  0  0  0  0  0  0  0
   -3.8230   17.9050   28.2830   C 0  0  0  0  0  0  0  0  0  0  0  0
   -4.3160   16.6040   28.1940   C 0  0  0  0  0  0  0  0  0  0  0  0
   -3.6150   17.1340   33.1380   N 0  0  0  0  0  0  0  0  0  0  0  0
   -4.7260   16.3560   33.6930   C 0  0  0  0  0  0  0  0  0  0  0  0
   -6.1110   16.6730   33.1200   C 0  0  0  0  0  0  0  0  0  0  0  0
   -6.5340   17.8280   33.0350   O 0  0  0  0  0  0  0  0  0  0  0  0
   -4.7490   16.5280   35.2380   C 0  0  0  0  0  0  0  0  0  0  0  0
   -5.7820   15.7320   36.0120   C 0  0  0  0  0  0  0  0  0  0  0  0
   -7.1330   16.4530   36.1330   C 0  0  0  0  0  0  0  0  0  0  0  0
   -7.1410   17.6570   36.4500   O 0  0  0  0  0  0  0  0  0  0  0  0
   -8.2040   15.8290   35.9100   O 0  0  0  0  0  0  0  0  0  0  0  0
   -6.8780   15.6240   32.8750   N 0  0  0  0  0  0  0  0  0  0  0  0
   -8.2070   15.7870   32.3260   C 0  0  0  0  0  0  0  0  0  0  0  0
   -9.2930   14.8000   32.8230   C 0  0  0  0  0  0  0  0  0  0  0  0
   -9.0260   13.6350   33.1250   O 0  0  0  0  0  0  0  0  0  0  0  0
   -8.1140   15.7090   30.8140   C 0  0  0  0  0  0  0  0  0  0  0  0
  -10.5260   15.2950   32.8400   N 0  0  0  0  0  0  0  0  0  0  0  0
  -11.7100   14.5220   33.1910   C 0  0  0  0  0  0  0  0  0  0  0  0
  -11.7480   13.3340   32.2150   C 0  0  0  0  0  0  0  0  0  0  0  0
  -11.8750   12.1520   32.6500   O 0  0  0  0  0  0  0  0  0  0  0  0
  -12.9640   15.4120   32.9920   C 0  0  0  0  0  0  0  0  0  0  0  0
  -14.3140   14.6970   32.6330   C 0  0  0  0  0  0  0  0  0  0  0  0
  -14.5790   14.5300   31.0850   C 0  0  0  0  0  0  0  0  0  0  0  0
  -15.6820   13.5240   30.8280   C 0  0  0  0  0  0  0  0  0  0  0  0
  -11.6130   13.6100   30.9970   N 0  0  0  0  0  0  0  0  0  0  0  0
  1  2  1  0  0  0  0
  2  3  1  0  0  0  0
  2  5  1  0  0  0  0
  3  4  2  0  0  0  0
  5  6  1  0  0  0  0
  6  7  1  0  0  0  0
  7  8  1  0  0  0  0
  8  9  1  0  0  0  0
  9 10  1  0  0  0  0
  9 11  2  0  0  0  0
 12 13  1  0  0  0  0
 13 14  1  0  0  0  0
 13 16  1  0  0  0  0
 14 15  2  0  0  0  0
 16 17  1  0  0  0  0
 16 18  1  0  0  0  0
 19 20  1  0  0  0  0
 20 21  1  0  0  0  0
 20 22  1  0  0  0  0
 22 23  1  0  0  0  0
 23 24  1  0  0  0  0
 23 25  1  0  0  0  0
 26 27  1  0  0  0  0
 27 28  1  0  0  0  0
 27 30  1  0  0  0  0
 28 29  2  0  0  0  0
 30 31  1  0  0  0  0
 31 32  2  0  0  0  0
 31 33  1  0  0  0  0
 32 34  1  0  0  0  0
 33 35  2  0  0  0  0
 34 36  2  0  0  0  0
 35 36  1  0  0  0  0
 37 38  1  0  0  0  0
 38 39  1  0  0  0  0
 38 41  1  0  0  0  0
 39 40  2  0  0  0  0
 41 42  1  0  0  0  0
 42 43  1  0  0  0  0
 43 44  2  0  0  0  0
 43 45  1  0  0  0  0
 46 47  1  0  0  0  0
 47 48  1  0  0  0  0
 47 50  1  0  0  0  0
 48 49  2  0  0  0  0
 51 52  1  0  0  0  0
 52 53  1  0  0  0  0
 52 55  1  0  0  0  0
 53 54  2  0  0  0  0
 55 56  1  0  0  0  0
 56 57  1  0  0  0  0
 57 58  1  0  0  0  0
  3 12  1  0  0  0  0
 14 19  1  0  0  0  0
 21 26  1  0  0  0  0
 28 37  1  0  0  0  0
 39 46  1  0  0  0  0
 48 51  1  0  0  0  0
 53 59  1  0  0  0  0
M  CHG  1  11   1
A    1
N
A    2
CA
A    3
C
A    4
O
A    5
CB
A    6
CG
A    7
CD
A    8
NE
A    9
CZ
A   10
NH1
A   11
NH2
A   12
N1
A   13
CA1
A   14
C1
A   15
O1
A   16
CB1
A   17
CG1
A   18
CG2
A   19
N2
A   20
CA2
A   21
C2
A   22
CB2
A   23
CG3
A   24
CD1
A   25
CD2
A   26
N3
A   27
CA3
A   28
C3
A   29
O2
A   30
CB3
A   31
CG4
A   32
CD11
A   33
CD21
A   34
CE1
A   35
CE2
A   36
CZ1
A   37
N4
A   38
CA4
A   39
C4
A   40
O3
A   41
CB4
A   42
CG5
A   43
CD3
A   44
OE1
A   45
OE2
A   46
N5
A   47
CA5
A   48
C5
A   49
O4
A   50
CB5
A   51
N6
A   52
CA6
A   53
C6
A   54
O5
A   55
CB6
A   56
CG6
A   57
CD4
A   58
CE
A   59
N7
M  END
>  <InstanceId>
1BAI_0Q4_A_125

>  <ChemCompId>
0Q4

>  <PdbId>
1BAI

>  <ChainId>
A

>  <ResidueNumber>
125

>  <InsertionCode>


>  <Model>
1

>  <AltIds>


>  <MissingHeavyAtoms>
0

>  <ObservedFormula>
C40 N11 O8

>  <Name>
N-[(2R)-2-({N~5~-[amino(iminio)methyl]-L-ornithyl-L-valyl}amino)-4-methylpentyl]-L-phenylalanyl-L-alpha-glutamyl-L-alanyl-L-norleucinamide

>  <SystematicName>
[azanyl-[[(4S)-4-azanyl-5-[[(2S)-1-[[(2S)-1-[[(2S)-1-[[(2S)-1-[[(2S)-1-[[(2S)-1-azanyl-1-oxo-hexan-2-yl]amino]-1-oxo-propan-2-yl]amino]-5-hydroxy-1,5-dioxo-pentan-2-yl]amino]-1-oxo-3-phenyl-propan-2-yl]amino]-4-methyl-pentan-2-yl]amino]-3-methyl-1-oxo-butan-2-yl]amino]-5-oxo-pentyl]amino]methylidene]azanium

>  <Synonyms>
Inhibitor analogues of CA-p2

>  <Type>
peptide-like

>  <Formula>
C40 H70 N11 O8

>  <MolecularWeight>
833.053

>  <ModifiedDate>
2011-07-13

>  <Parent>


>  <OneLetterCode>


>  <SubcomponentList>
ARG VAL DC0 GLU ALA NLE NH2

>  <AmbiguousFlag>
N

>  <InChI>
InChI=1S/C40H69N11O8/c1-7-8-16-29(34(42)54)49-35(55)25(6)47-37(57)30(17-18-32(52)53)50-38(58)31(21-26-13-10-9-11-14-26)46-22-27(20-23(2)3)48-39(59)33(24(4)5)51-36(56)28(41)15-12-19-45-40(43)44/h9-11,13-14,23-25,27-31,33,46H,7-8,12,15-22,41H2,1-6H3,(H2,42,54)(H,47,57)(H,48,59)(H,49,55)(H,50,58)(H,51,56)(H,52,53)(H4,43,44,45)/p+1/t25-,27-,28-,29-,30-,31-,33-/m0/s1

>  <InChIKey>
SGWAZUZKMXHYMB-UQGDEETHSA-O

>  <SMILES>
CCCC[C@@H](C(=O)N)NC(=O)[C@H](C)NC(=O)[C@H](CCC(=O)O)NC(=O)[C@H](Cc1ccccc1)NC[C@H](CC(C)C)NC(=O)[C@H](C(C)C)NC(=O)[C@H](CCCNC(=[NH2+])N)N

$$$$
