6BBX_D77_A_201


 48 53  0  0  0  0  0  0  0  0999 V2000
  -10.7624   -5.4271    6.8410 C   0  0  0  0  0  0  0  0  0  0  0  0
  -11.3151   -5.9243    7.9837 O   0  0  0  0  0  0  0  0  0  0  0  0
  -10.3751   -4.9431    8.2581 C   0  0  0  0  0  0  0  0  0  0  0  0
  -10.8952   -3.7144    8.7788 C   0  0  0  0  0  0  0  0  0  0  0  0
  -10.3151   -3.1751    9.9348 C   0  0  0  0  0  0  0  0  0  0  0  0
  -10.7150   -1.9799   10.4973 C   0  0  0  0  0  0  0  0  0  0  0  0
  -10.1055   -1.5376   11.6308 O   0  0  0  0  0  0  0  0  0  0  0  0
  -11.7488   -1.2244    9.9145 C   0  0  0  0  0  0  0  0  0  0  0  0
  -12.1454    0.0103   10.4839 C   0  0  0  0  0  0  0  0  0  0  0  0
  -11.6164    0.4487   11.5123 O   0  0  0  0  0  0  0  0  0  0  0  0
  -13.1610    0.7458    9.8688 C   0  0  0  0  0  0  0  0  0  0  0  0
  -13.5608    1.9735   10.4228 C   0  0  0  0  0  0  0  0  0  0  0  0
  -14.5781    2.7199    9.8331 C   0  0  0  0  0  0  0  0  0  0  0  0
  -15.1895    2.2478    8.6751 C   0  0  0  0  0  0  0  0  0  0  0  0
  -16.1765    2.9433    8.0642 O   0  0  0  0  0  0  0  0  0  0  0  0
  -14.7960    1.0268    8.1172 C   0  0  0  0  0  0  0  0  0  0  0  0
  -15.4166    0.5723    6.9847 O   0  0  0  0  0  0  0  0  0  0  0  0
  -13.7829    0.2528    8.7024 C   0  0  0  0  0  0  0  0  0  0  0  0
  -13.3988   -0.9757    8.1318 C   0  0  0  0  0  0  0  0  0  0  0  0
  -13.9829   -1.3738    7.1174 O   0  0  0  0  0  0  0  0  0  0  0  0
  -12.3668   -1.7377    8.7253 C   0  0  0  0  0  0  0  0  0  0  0  0
  -11.9406   -2.9874    8.1632 C   0  0  0  0  0  0  0  0  0  0  0  0
  -12.5155   -3.5364    6.9699 N   0  0  0  0  0  0  0  0  0  0  0  0
  -11.6648   -4.2942    6.0126 C   0  0  0  0  0  0  0  0  0  0  0  0
  -10.6936   -3.3636    5.4975 C   0  0  0  0  0  0  0  0  0  0  0  0
   -9.7772   -2.5753    5.1121 C   0  0  0  0  0  0  0  0  0  0  0  0
   -8.5946   -1.6425    4.7517 C   0  0  0  0  0  0  0  0  0  0  0  0
   -7.4798   -1.8961    5.6138 C   0  0  0  0  0  0  0  0  0  0  0  0
   -7.8112   -2.9937    6.6186 C   0  0  0  0  0  0  0  0  0  0  0  0
   -8.2356   -3.9209    7.3866 C   0  0  0  0  0  0  0  0  0  0  0  0
   -8.8113   -5.0362    8.2218 C   0  0  0  0  0  0  0  0  0  0  0  0
   -8.0133   -4.9803    9.5245 O   0  0  0  0  0  0  0  0  0  0  0  0
  -10.3706   -0.7273   12.0196 H   0  0  0  0  0  0  0  0  0  0  0  0
  -16.5741    2.6066    7.2854 H   0  0  0  0  0  0  0  0  0  0  0  0
  -16.0946    1.0813    6.5856 H   0  0  0  0  0  0  0  0  0  0  0  0
  -13.4741   -3.4118    6.7837 H   0  0  0  0  0  0  0  0  0  0  0  0
   -8.0854   -4.0931    9.9101 H   0  0  0  0  0  0  0  0  0  0  0  0
  -10.0814   -6.3931    5.8371 C   0  0  0  0  0  0  0  0  0  0  0  0
   -9.5927   -7.5553    6.4862 C   0  0  0  0  0  0  0  0  0  0  0  0
   -8.8453   -5.7506    5.1590 O   0  0  0  0  0  0  0  0  0  0  0  0
   -8.4495   -6.3848    4.5408 H   0  0  0  0  0  0  0  0  0  0  0  0
  -11.1830   -6.8184    4.7438 C   0  0  0  0  0  0  0  0  0  0  0  0
  -10.5067   -7.4047    3.6370 O   0  0  0  0  0  0  0  0  0  0  0  0
  -10.0772   -8.2273    3.9194 H   0  0  0  0  0  0  0  0  0  0  0  0
  -12.4646   -7.6674    5.2166 C   0  0  0  0  0  0  0  0  0  0  0  0
  -13.5960   -7.1805    5.0901 O   0  0  0  0  0  0  0  0  0  0  0  0
  -13.3754   -9.4221    6.5540 C   0  0  0  0  0  0  0  0  0  0  0  0
  -12.2899   -8.9478    5.7158 O   0  0  0  0  0  0  0  0  0  0  0  0
 27 26  1  0  0  0
 27 28  2  0  0  0
 40 38  1  0  0  0
 26 25  3  0  0  0
 39 38  1  0  0  0
 28 29  1  0  0  0
 25 24  1  0  0  0
 48 47  1  0  0  0
 48 45  1  0  0  0
 38 42  1  0  0  0
 38  1  1  0  0  0
 24  1  1  0  0  0
 24 23  1  0  0  0
 29 30  3  0  0  0
 43 42  1  0  0  0
 45 42  1  0  0  0
 45 46  2  0  0  0
  1  2  1  0  0  0
  1  3  1  0  0  0
 17 16  1  0  0  0
 23 22  1  0  0  0
 20 19  2  0  0  0
 30 31  1  0  0  0
 15 14  1  0  0  0
 16 14  2  0  0  0
 16 18  1  0  0  0
 19 18  1  0  0  0
 19 21  1  0  0  0
  2  3  1  0  0  0
 22 21  2  0  0  0
 22  4  1  0  0  0
 31  3  1  0  0  0
 31 32  1  0  0  0
  3  4  1  0  0  0
 14 13  1  0  0  0
 18 11  2  0  0  0
 21  8  1  0  0  0
  4  5  2  0  0  0
 13 12  2  0  0  0
 11 12  1  0  0  0
 11  9  1  0  0  0
  8  9  1  0  0  0
  8  6  2  0  0  0
  5  6  1  0  0  0
  9 10  2  0  0  0
  6  7  1  0  0  0
 43 44  1  0  0  0
 40 41  1  0  0  0
  7 33  1  0  0  0
 15 34  1  0  0  0
 17 35  1  0  0  0
 23 36  1  0  0  0
 32 37  1  0  0  0
M  END
> <minimizedAffinity>
-14.11298

$$$$
6BBX_D77_A_201


 48 53  0  0  0  0  0  0  0  0999 V2000
  -10.3984   -5.4130    6.9681 C   0  0  0  0  0  0  0  0  0  0  0  0
  -10.9495   -5.8962    8.1176 O   0  0  0  0  0  0  0  0  0  0  0  0
  -10.1027   -4.8278    8.3690 C   0  0  0  0  0  0  0  0  0  0  0  0
  -10.7392   -3.6218    8.8070 C   0  0  0  0  0  0  0  0  0  0  0  0
  -10.2466   -2.9787    9.9505 C   0  0  0  0  0  0  0  0  0  0  0  0
  -10.7621   -1.7941   10.4358 C   0  0  0  0  0  0  0  0  0  0  0  0
  -10.2316   -1.2462   11.5629 O   0  0  0  0  0  0  0  0  0  0  0  0
  -11.8324   -1.1572    9.7813 C   0  0  0  0  0  0  0  0  0  0  0  0
  -12.3482    0.0674   10.2716 C   0  0  0  0  0  0  0  0  0  0  0  0
  -11.8937    0.5994   11.2914 O   0  0  0  0  0  0  0  0  0  0  0  0
  -13.3974    0.6841    9.5865 C   0  0  0  0  0  0  0  0  0  0  0  0
  -13.9152    1.9008   10.0616 C   0  0  0  0  0  0  0  0  0  0  0  0
  -14.9680    2.5296    9.4013 C   0  0  0  0  0  0  0  0  0  0  0  0
  -15.4971    1.9506    8.2513 C   0  0  0  0  0  0  0  0  0  0  0  0
  -16.5149    2.5302    7.5734 O   0  0  0  0  0  0  0  0  0  0  0  0
  -14.9860    0.7400    7.7717 C   0  0  0  0  0  0  0  0  0  0  0  0
  -15.5267    0.1791    6.6460 O   0  0  0  0  0  0  0  0  0  0  0  0
  -13.9351    0.0832    8.4289 C   0  0  0  0  0  0  0  0  0  0  0  0
  -13.4322   -1.1364    7.9368 C   0  0  0  0  0  0  0  0  0  0  0  0
  -13.9454   -1.6322    6.9270 O   0  0  0  0  0  0  0  0  0  0  0  0
  -12.3637   -1.7792    8.6022 C   0  0  0  0  0  0  0  0  0  0  0  0
  -11.8175   -3.0160    8.1210 C   0  0  0  0  0  0  0  0  0  0  0  0
  -12.3028   -3.6701    6.9410 N   0  0  0  0  0  0  0  0  0  0  0  0
  -11.3596   -4.4020    6.0527 C   0  0  0  0  0  0  0  0  0  0  0  0
  -10.4493   -3.4212    5.5197 C   0  0  0  0  0  0  0  0  0  0  0  0
   -9.5868   -2.5799    5.1221 C   0  0  0  0  0  0  0  0  0  0  0  0
   -8.4718   -1.5716    4.7502 C   0  0  0  0  0  0  0  0  0  0  0  0
   -7.3717   -1.6881    5.6593 C   0  0  0  0  0  0  0  0  0  0  0  0
   -7.6485   -2.7574    6.7100 C   0  0  0  0  0  0  0  0  0  0  0  0
   -8.0235   -3.6768    7.5124 C   0  0  0  0  0  0  0  0  0  0  0  0
   -8.5362   -4.7925    8.3870 C   0  0  0  0  0  0  0  0  0  0  0  0
   -7.7926   -4.6051    9.7096 O   0  0  0  0  0  0  0  0  0  0  0  0
  -10.5754   -0.4421   11.8995 H   0  0  0  0  0  0  0  0  0  0  0  0
  -16.8557    2.1229    6.8015 H   0  0  0  0  0  0  0  0  0  0  0  0
  -16.2290    0.6094    6.1992 H   0  0  0  0  0  0  0  0  0  0  0  0
  -13.2611   -3.6351    6.7183 H   0  0  0  0  0  0  0  0  0  0  0  0
   -7.9503   -3.7086   10.0449 H   0  0  0  0  0  0  0  0  0  0  0  0
   -9.6056   -6.3684    6.0389 C   0  0  0  0  0  0  0  0  0  0  0  0
   -8.7812   -5.6487    5.1372 C   0  0  0  0  0  0  0  0  0  0  0  0
  -10.5418   -7.2225    5.1475 O   0  0  0  0  0  0  0  0  0  0  0  0
  -10.0089   -7.8045    4.5834 H   0  0  0  0  0  0  0  0  0  0  0  0
   -8.6847   -7.3036    6.9702 C   0  0  0  0  0  0  0  0  0  0  0  0
   -9.4568   -8.4310    7.3687 O   0  0  0  0  0  0  0  0  0  0  0  0
   -9.6777   -8.9636    6.5886 H   0  0  0  0  0  0  0  0  0  0  0  0
   -7.2110   -7.7006    6.4630 C   0  0  0  0  0  0  0  0  0  0  0  0
   -6.2241   -7.1678    6.9875 O   0  0  0  0  0  0  0  0  0  0  0  0
   -5.8950   -8.4933    4.6362 C   0  0  0  0  0  0  0  0  0  0  0  0
   -7.0635   -8.6649    5.4794 O   0  0  0  0  0  0  0  0  0  0  0  0
 27 26  1  0  0  0
 27 28  2  0  0  0
 40 38  1  0  0  0
 26 25  3  0  0  0
 39 38  1  0  0  0
 28 29  1  0  0  0
 25 24  1  0  0  0
 48 47  1  0  0  0
 48 45  1  0  0  0
 38 42  1  0  0  0
 38  1  1  0  0  0
 24  1  1  0  0  0
 24 23  1  0  0  0
 29 30  3  0  0  0
 43 42  1  0  0  0
 45 42  1  0  0  0
 45 46  2  0  0  0
  1  2  1  0  0  0
  1  3  1  0  0  0
 17 16  1  0  0  0
 23 22  1  0  0  0
 20 19  2  0  0  0
 30 31  1  0  0  0
 15 14  1  0  0  0
 16 14  2  0  0  0
 16 18  1  0  0  0
 19 18  1  0  0  0
 19 21  1  0  0  0
  2  3  1  0  0  0
 22 21  2  0  0  0
 22  4  1  0  0  0
 31  3  1  0  0  0
 31 32  1  0  0  0
  3  4  1  0  0  0
 14 13  1  0  0  0
 18 11  2  0  0  0
 21  8  1  0  0  0
  4  5  2  0  0  0
 13 12  2  0  0  0
 11 12  1  0  0  0
 11  9  1  0  0  0
  8  9  1  0  0  0
  8  6  2  0  0  0
  5  6  1  0  0  0
  9 10  2  0  0  0
  6  7  1  0  0  0
 43 44  1  0  0  0
 40 41  1  0  0  0
  7 33  1  0  0  0
 15 34  1  0  0  0
 17 35  1  0  0  0
 23 36  1  0  0  0
 32 37  1  0  0  0
M  END
> <minimizedAffinity>
-12.66630

$$$$
