1O2H_CR3_A_246


 30 33  0  0  0  0  0  0  0  0999 V2000
   44.2908   -2.9730   25.9544 C   0  0  0  0  0  0  0  0  0  0  0  0
   44.5228   -1.5914   25.9206 C   0  0  0  0  0  0  0  0  0  0  0  0
   44.3445   -0.8129   27.0428 C   0  0  0  0  0  0  0  0  0  0  0  0
   43.9389   -1.4198   28.1930 C   0  0  0  0  0  0  0  0  0  0  0  0
   43.7086   -2.7371   28.2769 C   0  0  0  0  0  0  0  0  0  0  0  0
   43.8753   -3.5625   27.1674 C   0  0  0  0  0  0  0  0  0  0  0  0
   43.6997   -0.9306   29.3561 N   0  0  0  0  0  0  0  0  0  0  0  0
   43.3201   -3.0833   29.4846 C   0  0  0  0  0  0  0  0  0  0  0  0
   43.3345   -1.9122   30.1265 C   0  0  0  0  0  0  0  0  0  0  0  0
   43.7785    0.0154   29.6168 H   0  0  0  0  0  0  0  0  0  0  0  0
   44.4737   -3.7139   24.7745 C   0  0  0  0  0  0  0  0  0  0  0  0
   44.3665   -5.0208   24.7813 N   0  0  0  0  0  0  0  0  0  0  0  0
   44.7407   -3.0673   23.6642 N   0  0  0  0  0  0  0  0  0  0  0  0
   44.1659   -5.4939   25.6210 H   0  0  0  0  0  0  0  0  0  0  0  0
   44.4867   -5.5289   23.9466 H   0  0  0  0  0  0  0  0  0  0  0  0
   44.8185   -2.0859   23.6726 H   0  0  0  0  0  0  0  0  0  0  0  0
   44.8631   -3.5636   22.8229 H   0  0  0  0  0  0  0  0  0  0  0  0
   43.0253   -1.7221   31.4859 C   0  0  0  0  0  0  0  0  0  0  0  0
   41.8744   -2.2952   32.0231 C   0  0  0  0  0  0  0  0  0  0  0  0
   41.5760   -2.1500   33.3749 C   0  0  0  0  0  0  0  0  0  0  0  0
   42.4173   -1.4381   34.2033 C   0  0  0  0  0  0  0  0  0  0  0  0
   43.5720   -0.8608   33.6925 C   0  0  0  0  0  0  0  0  0  0  0  0
   43.8752   -0.9950   32.3463 C   0  0  0  0  0  0  0  0  0  0  0  0
   45.0266   -0.3657   31.9060 O   0  0  0  0  0  0  0  0  0  0  0  0
   44.4626   -0.1530   34.4882 O   0  0  0  0  0  0  0  0  0  0  0  0
   43.9324    2.0139   35.3346 C   0  0  0  0  0  0  0  0  0  0  0  0
   44.1426    0.5389   35.7024 C   0  0  0  0  0  0  0  0  0  0  0  0
   45.4096    0.5083   36.5956 C   0  0  0  0  0  0  0  0  0  0  0  0
   45.7820    1.9686   36.8845 C   0  0  0  0  0  0  0  0  0  0  0  0
   44.5871    2.8083   36.4504 C   0  0  0  0  0  0  0  0  0  0  0  0
  1  2  2  0  0  0
  1  6  1  0  0  0
  1 11  1  0  0  0
  2  3  1  0  0  0
  3  4  2  0  0  0
  4  5  1  0  0  0
  4  7  1  0  0  0
  5  6  2  0  0  0
  5  8  1  0  0  0
 11 12  1  0  0  0
 11 13  2  0  0  0
  7  9  1  0  0  0
  8  9  2  0  0  0
  9 18  1  0  0  0
 18 19  2  0  0  0
 18 23  1  0  0  0
 19 20  1  0  0  0
 20 21  2  0  0  0
 21 22  1  0  0  0
 22 25  1  0  0  0
 22 23  2  0  0  0
 25 27  1  0  0  0
 23 24  1  0  0  0
 26 27  1  0  0  0
 26 30  1  0  0  0
 27 28  1  0  0  0
 28 29  1  0  0  0
 29 30  1  0  0  0
 12 14  1  0  0  0
 12 15  1  0  0  0
 13 16  1  0  0  0
 13 17  1  0  0  0
  7 10  1  0  0  0
M  CHG 1  13   1
M  CHG 1  24  -1
M  END
> <minimizedAffinity>
-9.23624

$$$$
1O2H_CR3_A_246


 30 33  0  0  0  0  0  0  0  0999 V2000
   44.1377   -2.6082   26.2770 C   0  0  0  0  0  0  0  0  0  0  0  0
   44.1491   -3.9194   26.7716 C   0  0  0  0  0  0  0  0  0  0  0  0
   43.9253   -4.1781   28.1057 C   0  0  0  0  0  0  0  0  0  0  0  0
   43.6879   -3.1255   28.9375 C   0  0  0  0  0  0  0  0  0  0  0  0
   43.6623   -1.8552   28.5121 C   0  0  0  0  0  0  0  0  0  0  0  0
   43.8839   -1.5470   27.1720 C   0  0  0  0  0  0  0  0  0  0  0  0
   43.4576   -3.0944   30.2005 N   0  0  0  0  0  0  0  0  0  0  0  0
   43.4224   -1.0203   29.4994 C   0  0  0  0  0  0  0  0  0  0  0  0
   43.2974   -1.8493   30.5390 C   0  0  0  0  0  0  0  0  0  0  0  0
   43.4109   -3.8718   30.8028 H   0  0  0  0  0  0  0  0  0  0  0  0
   44.3885   -2.4038   24.9097 C   0  0  0  0  0  0  0  0  0  0  0  0
   44.7417   -3.4029   24.1372 N   0  0  0  0  0  0  0  0  0  0  0  0
   44.2480   -1.1939   24.4214 N   0  0  0  0  0  0  0  0  0  0  0  0
   44.8436   -4.3059   24.5160 H   0  0  0  0  0  0  0  0  0  0  0  0
   44.9050   -3.2499   23.1784 H   0  0  0  0  0  0  0  0  0  0  0  0
   43.9824   -0.4525   25.0120 H   0  0  0  0  0  0  0  0  0  0  0  0
   44.4084   -1.0277   23.4643 H   0  0  0  0  0  0  0  0  0  0  0  0
   42.9987   -1.4647   31.8590 C   0  0  0  0  0  0  0  0  0  0  0  0
   41.7894   -1.8462   32.4368 C   0  0  0  0  0  0  0  0  0  0  0  0
   41.4968   -1.5080   33.7550 C   0  0  0  0  0  0  0  0  0  0  0  0
   42.4015   -0.7918   34.5096 C   0  0  0  0  0  0  0  0  0  0  0  0
   43.6147   -0.4034   33.9576 C   0  0  0  0  0  0  0  0  0  0  0  0
   43.9133   -0.7306   32.6438 C   0  0  0  0  0  0  0  0  0  0  0  0
   45.1282   -0.2819   32.1555 O   0  0  0  0  0  0  0  0  0  0  0  0
   44.5683    0.2996   34.6813 O   0  0  0  0  0  0  0  0  0  0  0  0
   44.9869    1.5588   36.6642 C   0  0  0  0  0  0  0  0  0  0  0  0
   44.8481    0.1469   36.0791 C   0  0  0  0  0  0  0  0  0  0  0  0
   46.2547   -0.4942   36.1983 C   0  0  0  0  0  0  0  0  0  0  0  0
   47.1140    0.4753   37.0208 C   0  0  0  0  0  0  0  0  0  0  0  0
   46.1512    1.4835   37.6356 C   0  0  0  0  0  0  0  0  0  0  0  0
  1  2  2  0  0  0
  1  6  1  0  0  0
  1 11  1  0  0  0
  2  3  1  0  0  0
  3  4  2  0  0  0
  4  5  1  0  0  0
  4  7  1  0  0  0
  5  6  2  0  0  0
  5  8  1  0  0  0
 11 12  1  0  0  0
 11 13  2  0  0  0
  7  9  1  0  0  0
  8  9  2  0  0  0
  9 18  1  0  0  0
 18 19  2  0  0  0
 18 23  1  0  0  0
 19 20  1  0  0  0
 20 21  2  0  0  0
 21 22  1  0  0  0
 22 25  1  0  0  0
 22 23  2  0  0  0
 25 27  1  0  0  0
 23 24  1  0  0  0
 26 27  1  0  0  0
 26 30  1  0  0  0
 27 28  1  0  0  0
 28 29  1  0  0  0
 29 30  1  0  0  0
 12 14  1  0  0  0
 12 15  1  0  0  0
 13 16  1  0  0  0
 13 17  1  0  0  0
  7 10  1  0  0  0
M  CHG 1  13   1
M  CHG 1  24  -1
M  END
> <minimizedAffinity>
-7.94584

$$$$
1O2H_CR3_A_246


 30 33  0  0  0  0  0  0  0  0999 V2000
   43.4727    2.9315   36.9513 C   0  0  0  0  0  0  0  0  0  0  0  0
   44.8231    2.7918   36.6039 C   0  0  0  0  0  0  0  0  0  0  0  0
   45.2287    1.8392   35.6956 C   0  0  0  0  0  0  0  0  0  0  0  0
   44.2824    1.0341   35.1369 C   0  0  0  0  0  0  0  0  0  0  0  0
   42.9792    1.1317   35.4329 C   0  0  0  0  0  0  0  0  0  0  0  0
   42.5241    2.0797   36.3461 C   0  0  0  0  0  0  0  0  0  0  0  0
   44.3943    0.0823   34.2820 N   0  0  0  0  0  0  0  0  0  0  0  0
   42.2668    0.2438   34.7743 C   0  0  0  0  0  0  0  0  0  0  0  0
   43.2027   -0.3886   34.0616 C   0  0  0  0  0  0  0  0  0  0  0  0
   45.2303   -0.2332   33.8688 H   0  0  0  0  0  0  0  0  0  0  0  0
   43.1198    3.9102   37.8958 C   0  0  0  0  0  0  0  0  0  0  0  0
   42.7979    5.1230   37.5148 N   0  0  0  0  0  0  0  0  0  0  0  0
   43.1069    3.5790   39.1655 N   0  0  0  0  0  0  0  0  0  0  0  0
   42.8116    5.3586   36.5590 H   0  0  0  0  0  0  0  0  0  0  0  0
   42.5425    5.7978   38.1846 H   0  0  0  0  0  0  0  0  0  0  0  0
   43.3507    2.6651   39.4384 H   0  0  0  0  0  0  0  0  0  0  0  0
   42.8533    4.2446   39.8452 H   0  0  0  0  0  0  0  0  0  0  0  0
   42.9667   -1.4298   33.1452 C   0  0  0  0  0  0  0  0  0  0  0  0
   42.0276   -2.4159   33.4411 C   0  0  0  0  0  0  0  0  0  0  0  0
   41.7537   -3.4296   32.5274 C   0  0  0  0  0  0  0  0  0  0  0  0
   42.4068   -3.4713   31.3139 C   0  0  0  0  0  0  0  0  0  0  0  0
   43.3440   -2.4982   30.9944 C   0  0  0  0  0  0  0  0  0  0  0  0
   43.6279   -1.4874   31.9000 C   0  0  0  0  0  0  0  0  0  0  0  0
   44.5955   -0.5726   31.5223 O   0  0  0  0  0  0  0  0  0  0  0  0
   44.0129   -2.4828   29.7779 O   0  0  0  0  0  0  0  0  0  0  0  0
   43.7160   -3.6625   27.7254 C   0  0  0  0  0  0  0  0  0  0  0  0
   43.4074   -2.3646   28.4839 C   0  0  0  0  0  0  0  0  0  0  0  0
   44.1654   -1.2465   27.7228 C   0  0  0  0  0  0  0  0  0  0  0  0
   44.7242   -1.8833   26.4434 C   0  0  0  0  0  0  0  0  0  0  0  0
   44.0373   -3.2362   26.3042 C   0  0  0  0  0  0  0  0  0  0  0  0
  1  2  2  0  0  0
  1  6  1  0  0  0
  1 11  1  0  0  0
  2  3  1  0  0  0
  3  4  2  0  0  0
  4  5  1  0  0  0
  4  7  1  0  0  0
  5  6  2  0  0  0
  5  8  1  0  0  0
 11 12  1  0  0  0
 11 13  2  0  0  0
  7  9  1  0  0  0
  8  9  2  0  0  0
  9 18  1  0  0  0
 18 19  2  0  0  0
 18 23  1  0  0  0
 19 20  1  0  0  0
 20 21  2  0  0  0
 21 22  1  0  0  0
 22 25  1  0  0  0
 22 23  2  0  0  0
 25 27  1  0  0  0
 23 24  1  0  0  0
 26 27  1  0  0  0
 26 30  1  0  0  0
 27 28  1  0  0  0
 28 29  1  0  0  0
 29 30  1  0  0  0
 12 14  1  0  0  0
 12 15  1  0  0  0
 13 16  1  0  0  0
 13 17  1  0  0  0
  7 10  1  0  0  0
M  CHG 1  13   1
M  CHG 1  24  -1
M  END
> <minimizedAffinity>
-7.32788

$$$$
1O2H_CR3_A_246


 30 33  0  0  0  0  0  0  0  0999 V2000
   43.9152   -3.0416   27.4715 C   0  0  0  0  0  0  0  0  0  0  0  0
   43.9850   -4.2043   28.2507 C   0  0  0  0  0  0  0  0  0  0  0  0
   43.5922   -4.2002   29.5709 C   0  0  0  0  0  0  0  0  0  0  0  0
   43.1286   -3.0352   30.1039 C   0  0  0  0  0  0  0  0  0  0  0  0
   43.0387   -1.8992   29.3990 C   0  0  0  0  0  0  0  0  0  0  0  0
   43.4252   -1.8570   28.0616 C   0  0  0  0  0  0  0  0  0  0  0  0
   42.7109   -2.7665   31.2881 N   0  0  0  0  0  0  0  0  0  0  0  0
   42.5715   -0.9122   30.1318 C   0  0  0  0  0  0  0  0  0  0  0  0
   42.3773   -1.5101   31.3102 C   0  0  0  0  0  0  0  0  0  0  0  0
   42.6536   -3.3971   32.0420 H   0  0  0  0  0  0  0  0  0  0  0  0
   44.3449   -3.1019   26.1351 C   0  0  0  0  0  0  0  0  0  0  0  0
   44.7348   -2.0183   25.5078 N   0  0  0  0  0  0  0  0  0  0  0  0
   44.3598   -4.2683   25.5342 N   0  0  0  0  0  0  0  0  0  0  0  0
   44.7187   -1.1492   25.9700 H   0  0  0  0  0  0  0  0  0  0  0  0
   45.0435   -2.0739   24.5746 H   0  0  0  0  0  0  0  0  0  0  0  0
   44.0646   -5.0743   26.0163 H   0  0  0  0  0  0  0  0  0  0  0  0
   44.6663   -4.3375   24.6011 H   0  0  0  0  0  0  0  0  0  0  0  0
   41.8481   -0.8959   32.4602 C   0  0  0  0  0  0  0  0  0  0  0  0
   40.5028   -0.5344   32.4978 C   0  0  0  0  0  0  0  0  0  0  0  0
   39.9551    0.0370   33.6428 C   0  0  0  0  0  0  0  0  0  0  0  0
   40.7363    0.2515   34.7584 C   0  0  0  0  0  0  0  0  0  0  0  0
   42.0784   -0.1036   34.7468 C   0  0  0  0  0  0  0  0  0  0  0  0
   42.6347   -0.6682   33.6093 C   0  0  0  0  0  0  0  0  0  0  0  0
   43.9851   -0.9666   33.6642 O   0  0  0  0  0  0  0  0  0  0  0  0
   42.9020    0.0714   35.8507 O   0  0  0  0  0  0  0  0  0  0  0  0
   43.6725    2.3168   35.6108 C   0  0  0  0  0  0  0  0  0  0  0  0
   43.0805    1.2895   36.5852 C   0  0  0  0  0  0  0  0  0  0  0  0
   44.1860    1.0310   37.6411 C   0  0  0  0  0  0  0  0  0  0  0  0
   45.3015    2.0497   37.3716 C   0  0  0  0  0  0  0  0  0  0  0  0
   44.7199    3.0750   36.4063 C   0  0  0  0  0  0  0  0  0  0  0  0
  1  2  2  0  0  0
  1  6  1  0  0  0
  1 11  1  0  0  0
  2  3  1  0  0  0
  3  4  2  0  0  0
  4  5  1  0  0  0
  4  7  1  0  0  0
  5  6  2  0  0  0
  5  8  1  0  0  0
 11 12  1  0  0  0
 11 13  2  0  0  0
  7  9  1  0  0  0
  8  9  2  0  0  0
  9 18  1  0  0  0
 18 19  2  0  0  0
 18 23  1  0  0  0
 19 20  1  0  0  0
 20 21  2  0  0  0
 21 22  1  0  0  0
 22 25  1  0  0  0
 22 23  2  0  0  0
 25 27  1  0  0  0
 23 24  1  0  0  0
 26 27  1  0  0  0
 26 30  1  0  0  0
 27 28  1  0  0  0
 28 29  1  0  0  0
 29 30  1  0  0  0
 12 14  1  0  0  0
 12 15  1  0  0  0
 13 16  1  0  0  0
 13 17  1  0  0  0
  7 10  1  0  0  0
M  CHG 1  13   1
M  CHG 1  24  -1
M  END
> <minimizedAffinity>
-7.16723

$$$$
1O2H_CR3_A_246


 30 33  0  0  0  0  0  0  0  0999 V2000
   43.1562   -3.5119   28.8427 C   0  0  0  0  0  0  0  0  0  0  0  0
   43.6675   -2.2625   28.4667 C   0  0  0  0  0  0  0  0  0  0  0  0
   43.9024   -1.2795   29.4025 C   0  0  0  0  0  0  0  0  0  0  0  0
   43.6284   -1.5518   30.7089 C   0  0  0  0  0  0  0  0  0  0  0  0
   43.1432   -2.7317   31.1186 C   0  0  0  0  0  0  0  0  0  0  0  0
   42.8899   -3.7541   30.2073 C   0  0  0  0  0  0  0  0  0  0  0  0
   43.7516   -0.8214   31.7580 N   0  0  0  0  0  0  0  0  0  0  0  0
   42.9538   -2.7502   32.4198 C   0  0  0  0  0  0  0  0  0  0  0  0
   43.3552   -1.5271   32.7755 C   0  0  0  0  0  0  0  0  0  0  0  0
   44.0855    0.1043   31.7865 H   0  0  0  0  0  0  0  0  0  0  0  0
   42.9216   -4.4704   27.8423 C   0  0  0  0  0  0  0  0  0  0  0  0
   43.4276   -4.3224   26.6416 N   0  0  0  0  0  0  0  0  0  0  0  0
   42.1964   -5.5225   28.1409 N   0  0  0  0  0  0  0  0  0  0  0  0
   43.9700   -3.5284   26.4304 H   0  0  0  0  0  0  0  0  0  0  0  0
   43.2652   -5.0054   25.9514 H   0  0  0  0  0  0  0  0  0  0  0  0
   41.8223   -5.6216   29.0461 H   0  0  0  0  0  0  0  0  0  0  0  0
   42.0266   -6.2127   27.4598 H   0  0  0  0  0  0  0  0  0  0  0  0
   43.3889   -1.0289   34.0909 C   0  0  0  0  0  0  0  0  0  0  0  0
   42.3872   -1.3818   34.9931 C   0  0  0  0  0  0  0  0  0  0  0  0
   42.4284   -0.9299   36.3090 C   0  0  0  0  0  0  0  0  0  0  0  0
   43.4635   -0.1274   36.7398 C   0  0  0  0  0  0  0  0  0  0  0  0
   44.4752    0.2349   35.8608 C   0  0  0  0  0  0  0  0  0  0  0  0
   44.4404   -0.2056   34.5467 C   0  0  0  0  0  0  0  0  0  0  0  0
   45.4674    0.2226   33.7235 O   0  0  0  0  0  0  0  0  0  0  0  0
   45.5501    1.0225   36.2503 O   0  0  0  0  0  0  0  0  0  0  0  0
   45.2729    2.4632   38.1319 C   0  0  0  0  0  0  0  0  0  0  0  0
   45.4925    2.4080   36.6141 C   0  0  0  0  0  0  0  0  0  0  0  0
   44.2027    2.9946   35.9844 C   0  0  0  0  0  0  0  0  0  0  0  0
   43.3612    3.5527   37.1399 C   0  0  0  0  0  0  0  0  0  0  0  0
   44.2761    3.5858   38.3578 C   0  0  0  0  0  0  0  0  0  0  0  0
  1  2  2  0  0  0
  1  6  1  0  0  0
  1 11  1  0  0  0
  2  3  1  0  0  0
  3  4  2  0  0  0
  4  5  1  0  0  0
  4  7  1  0  0  0
  5  6  2  0  0  0
  5  8  1  0  0  0
 11 12  1  0  0  0
 11 13  2  0  0  0
  7  9  1  0  0  0
  8  9  2  0  0  0
  9 18  1  0  0  0
 18 19  2  0  0  0
 18 23  1  0  0  0
 19 20  1  0  0  0
 20 21  2  0  0  0
 21 22  1  0  0  0
 22 25  1  0  0  0
 22 23  2  0  0  0
 25 27  1  0  0  0
 23 24  1  0  0  0
 26 27  1  0  0  0
 26 30  1  0  0  0
 27 28  1  0  0  0
 28 29  1  0  0  0
 29 30  1  0  0  0
 12 14  1  0  0  0
 12 15  1  0  0  0
 13 16  1  0  0  0
 13 17  1  0  0  0
  7 10  1  0  0  0
M  CHG 1  13   1
M  CHG 1  24  -1
M  END
> <minimizedAffinity>
-7.09206

$$$$
1O2H_CR3_A_246


 30 33  0  0  0  0  0  0  0  0999 V2000
   44.1682   -2.6581   26.1951 C   0  0  0  0  0  0  0  0  0  0  0  0
   44.3239   -1.4700   26.9217 C   0  0  0  0  0  0  0  0  0  0  0  0
   44.1517   -1.4443   28.2880 C   0  0  0  0  0  0  0  0  0  0  0  0
   43.8286   -2.6067   28.9209 C   0  0  0  0  0  0  0  0  0  0  0  0
   43.6733   -3.7684   28.2714 C   0  0  0  0  0  0  0  0  0  0  0  0
   43.8370   -3.8409   26.8902 C   0  0  0  0  0  0  0  0  0  0  0  0
   43.6130   -2.8492   30.1634 N   0  0  0  0  0  0  0  0  0  0  0  0
   43.3557   -4.7431   29.0950 C   0  0  0  0  0  0  0  0  0  0  0  0
   43.3343   -4.1144   30.2732 C   0  0  0  0  0  0  0  0  0  0  0  0
   43.6518   -2.1960   30.8990 H   0  0  0  0  0  0  0  0  0  0  0  0
   44.3405   -2.6205   24.8011 C   0  0  0  0  0  0  0  0  0  0  0  0
   44.6473   -3.7076   24.1349 N   0  0  0  0  0  0  0  0  0  0  0  0
   44.1742   -1.4764   24.1803 N   0  0  0  0  0  0  0  0  0  0  0  0
   44.7694   -4.5597   24.6126 H   0  0  0  0  0  0  0  0  0  0  0  0
   44.7556   -3.6715   23.1570 H   0  0  0  0  0  0  0  0  0  0  0  0
   43.9439   -0.6676   24.6921 H   0  0  0  0  0  0  0  0  0  0  0  0
   44.2796   -1.4269   23.2027 H   0  0  0  0  0  0  0  0  0  0  0  0
   43.0733   -4.7185   31.5167 C   0  0  0  0  0  0  0  0  0  0  0  0
   43.6043   -5.9745   31.8037 C   0  0  0  0  0  0  0  0  0  0  0  0
   43.3888   -6.5675   33.0444 C   0  0  0  0  0  0  0  0  0  0  0  0
   42.6478   -5.9188   34.0093 C   0  0  0  0  0  0  0  0  0  0  0  0
   42.1114   -4.6651   33.7486 C   0  0  0  0  0  0  0  0  0  0  0  0
   42.3157   -4.0684   32.5140 C   0  0  0  0  0  0  0  0  0  0  0  0
   41.7238   -2.8326   32.3189 O   0  0  0  0  0  0  0  0  0  0  0  0
   41.3767   -3.9612   34.6932 O   0  0  0  0  0  0  0  0  0  0  0  0
   40.3174   -4.3856   36.7885 C   0  0  0  0  0  0  0  0  0  0  0  0
   41.6183   -3.9415   36.1062 C   0  0  0  0  0  0  0  0  0  0  0  0
   41.8199   -2.4601   36.5168 C   0  0  0  0  0  0  0  0  0  0  0  0
   40.7530   -2.1453   37.5738 C   0  0  0  0  0  0  0  0  0  0  0  0
   40.1666   -3.4850   38.0013 C   0  0  0  0  0  0  0  0  0  0  0  0
  1  2  2  0  0  0
  1  6  1  0  0  0
  1 11  1  0  0  0
  2  3  1  0  0  0
  3  4  2  0  0  0
  4  5  1  0  0  0
  4  7  1  0  0  0
  5  6  2  0  0  0
  5  8  1  0  0  0
 11 12  1  0  0  0
 11 13  2  0  0  0
  7  9  1  0  0  0
  8  9  2  0  0  0
  9 18  1  0  0  0
 18 19  2  0  0  0
 18 23  1  0  0  0
 19 20  1  0  0  0
 20 21  2  0  0  0
 21 22  1  0  0  0
 22 25  1  0  0  0
 22 23  2  0  0  0
 25 27  1  0  0  0
 23 24  1  0  0  0
 26 27  1  0  0  0
 26 30  1  0  0  0
 27 28  1  0  0  0
 28 29  1  0  0  0
 29 30  1  0  0  0
 12 14  1  0  0  0
 12 15  1  0  0  0
 13 16  1  0  0  0
 13 17  1  0  0  0
  7 10  1  0  0  0
M  CHG 1  13   1
M  CHG 1  24  -1
M  END
> <minimizedAffinity>
-6.89788

$$$$
1O2H_CR3_A_246


 30 33  0  0  0  0  0  0  0  0999 V2000
   44.0947   -2.6434   26.1660 C   0  0  0  0  0  0  0  0  0  0  0  0
   43.8878   -3.9440   26.6450 C   0  0  0  0  0  0  0  0  0  0  0  0
   43.6455   -4.1798   27.9801 C   0  0  0  0  0  0  0  0  0  0  0  0
   43.6076   -3.1145   28.8284 C   0  0  0  0  0  0  0  0  0  0  0  0
   43.7945   -1.8526   28.4184 C   0  0  0  0  0  0  0  0  0  0  0  0
   44.0431   -1.5675   27.0779 C   0  0  0  0  0  0  0  0  0  0  0  0
   43.4078   -3.0627   30.0959 N   0  0  0  0  0  0  0  0  0  0  0  0
   43.7193   -1.0035   29.4197 C   0  0  0  0  0  0  0  0  0  0  0  0
   43.4707   -1.8138   30.4519 C   0  0  0  0  0  0  0  0  0  0  0  0
   43.2378   -3.8292   30.6900 H   0  0  0  0  0  0  0  0  0  0  0  0
   44.3536   -2.4651   24.7964 C   0  0  0  0  0  0  0  0  0  0  0  0
   44.7346   -3.4740   24.0503 N   0  0  0  0  0  0  0  0  0  0  0  0
   44.1925   -1.2700   24.2791 N   0  0  0  0  0  0  0  0  0  0  0  0
   44.8518   -4.3657   24.4508 H   0  0  0  0  0  0  0  0  0  0  0  0
   44.9034   -3.3397   23.0898 H   0  0  0  0  0  0  0  0  0  0  0  0
   43.9060   -0.5209   24.8502 H   0  0  0  0  0  0  0  0  0  0  0  0
   44.3581   -1.1224   23.3199 H   0  0  0  0  0  0  0  0  0  0  0  0
   43.2655   -1.4030   31.7818 C   0  0  0  0  0  0  0  0  0  0  0  0
   44.2669   -0.7069   32.4560 C   0  0  0  0  0  0  0  0  0  0  0  0
   44.0636   -0.2585   33.7580 C   0  0  0  0  0  0  0  0  0  0  0  0
   42.8662   -0.4949   34.3992 C   0  0  0  0  0  0  0  0  0  0  0  0
   41.8519   -1.1830   33.7472 C   0  0  0  0  0  0  0  0  0  0  0  0
   42.0465   -1.6386   32.4523 C   0  0  0  0  0  0  0  0  0  0  0  0
   41.0008   -2.3426   31.8807 O   0  0  0  0  0  0  0  0  0  0  0  0
   40.6207   -1.4277   34.3404 O   0  0  0  0  0  0  0  0  0  0  0  0
   41.1372   -3.4918   35.4200 C   0  0  0  0  0  0  0  0  0  0  0  0
   40.4000   -2.1528   35.5573 C   0  0  0  0  0  0  0  0  0  0  0  0
   38.8923   -2.5104   35.6115 C   0  0  0  0  0  0  0  0  0  0  0  0
   38.8038   -4.0395   35.7050 C   0  0  0  0  0  0  0  0  0  0  0  0
   40.2101   -4.5301   36.0261 C   0  0  0  0  0  0  0  0  0  0  0  0
  1  2  2  0  0  0
  1  6  1  0  0  0
  1 11  1  0  0  0
  2  3  1  0  0  0
  3  4  2  0  0  0
  4  5  1  0  0  0
  4  7  1  0  0  0
  5  6  2  0  0  0
  5  8  1  0  0  0
 11 12  1  0  0  0
 11 13  2  0  0  0
  7  9  1  0  0  0
  8  9  2  0  0  0
  9 18  1  0  0  0
 18 19  2  0  0  0
 18 23  1  0  0  0
 19 20  1  0  0  0
 20 21  2  0  0  0
 21 22  1  0  0  0
 22 25  1  0  0  0
 22 23  2  0  0  0
 25 27  1  0  0  0
 23 24  1  0  0  0
 26 27  1  0  0  0
 26 30  1  0  0  0
 27 28  1  0  0  0
 28 29  1  0  0  0
 29 30  1  0  0  0
 12 14  1  0  0  0
 12 15  1  0  0  0
 13 16  1  0  0  0
 13 17  1  0  0  0
  7 10  1  0  0  0
M  CHG 1  13   1
M  CHG 1  24  -1
M  END
> <minimizedAffinity>
-6.87297

$$$$
1O2H_CR3_A_246


 30 33  0  0  0  0  0  0  0  0999 V2000
   43.0905   -4.0433   29.8852 C   0  0  0  0  0  0  0  0  0  0  0  0
   43.6280   -2.9581   29.1800 C   0  0  0  0  0  0  0  0  0  0  0  0
   43.8675   -1.7535   29.8033 C   0  0  0  0  0  0  0  0  0  0  0  0
   43.5719   -1.6411   31.1285 C   0  0  0  0  0  0  0  0  0  0  0  0
   43.0612   -2.6504   31.8467 C   0  0  0  0  0  0  0  0  0  0  0  0
   42.8023   -3.8857   31.2577 C   0  0  0  0  0  0  0  0  0  0  0  0
   43.6941   -0.6452   31.9299 N   0  0  0  0  0  0  0  0  0  0  0  0
   42.8546   -2.2972   33.0965 C   0  0  0  0  0  0  0  0  0  0  0  0
   43.2724   -1.0287   33.0985 C   0  0  0  0  0  0  0  0  0  0  0  0
   44.0434    0.2464   31.7012 H   0  0  0  0  0  0  0  0  0  0  0  0
   42.8525   -5.2427   29.1930 C   0  0  0  0  0  0  0  0  0  0  0  0
   42.3493   -5.2283   27.9821 N   0  0  0  0  0  0  0  0  0  0  0  0
   43.1576   -6.3757   29.7804 N   0  0  0  0  0  0  0  0  0  0  0  0
   42.1246   -4.3714   27.5526 H   0  0  0  0  0  0  0  0  0  0  0  0
   42.1961   -6.0744   27.5026 H   0  0  0  0  0  0  0  0  0  0  0  0
   43.5348   -6.3728   30.6898 H   0  0  0  0  0  0  0  0  0  0  0  0
   43.0094   -7.2287   29.3117 H   0  0  0  0  0  0  0  0  0  0  0  0
   43.2975   -0.1789   34.2196 C   0  0  0  0  0  0  0  0  0  0  0  0
   42.1021    0.2463   34.7957 C   0  0  0  0  0  0  0  0  0  0  0  0
   42.1105    1.0542   35.9292 C   0  0  0  0  0  0  0  0  0  0  0  0
   43.3033    1.4438   36.5003 C   0  0  0  0  0  0  0  0  0  0  0  0
   44.5076    1.0302   35.9469 C   0  0  0  0  0  0  0  0  0  0  0  0
   44.5099    0.2300   34.8147 C   0  0  0  0  0  0  0  0  0  0  0  0
   45.7491   -0.1156   34.3042 O   0  0  0  0  0  0  0  0  0  0  0  0
   45.7347    1.3768   36.4960 O   0  0  0  0  0  0  0  0  0  0  0  0
   47.6937    0.2344   37.2375 C   0  0  0  0  0  0  0  0  0  0  0  0
   46.3306    0.7960   37.6635 C   0  0  0  0  0  0  0  0  0  0  0  0
   45.4741   -0.4370   38.0509 C   0  0  0  0  0  0  0  0  0  0  0  0
   46.4129   -1.6508   38.0318 C   0  0  0  0  0  0  0  0  0  0  0  0
   47.8294   -1.0944   37.9591 C   0  0  0  0  0  0  0  0  0  0  0  0
  1  2  2  0  0  0
  1  6  1  0  0  0
  1 11  1  0  0  0
  2  3  1  0  0  0
  3  4  2  0  0  0
  4  5  1  0  0  0
  4  7  1  0  0  0
  5  6  2  0  0  0
  5  8  1  0  0  0
 11 12  1  0  0  0
 11 13  2  0  0  0
  7  9  1  0  0  0
  8  9  2  0  0  0
  9 18  1  0  0  0
 18 19  2  0  0  0
 18 23  1  0  0  0
 19 20  1  0  0  0
 20 21  2  0  0  0
 21 22  1  0  0  0
 22 25  1  0  0  0
 22 23  2  0  0  0
 25 27  1  0  0  0
 23 24  1  0  0  0
 26 27  1  0  0  0
 26 30  1  0  0  0
 27 28  1  0  0  0
 28 29  1  0  0  0
 29 30  1  0  0  0
 12 14  1  0  0  0
 12 15  1  0  0  0
 13 16  1  0  0  0
 13 17  1  0  0  0
  7 10  1  0  0  0
M  CHG 1  13   1
M  CHG 1  24  -1
M  END
> <minimizedAffinity>
-6.27151

$$$$
