3ZQE_DXC_B_1079
  RCSB PDB12061711323D
Coordinates from PDB:3ZQE:B:1079 Model:1 without hydrogens
 28 31  0  0  0  0            999 V2000
   -0.7890   22.7230   14.8810   C 0  0  0  0  0  0  0  0  0  0  0  0
   -1.0180   21.2760   14.4390   C 0  0  0  0  0  0  0  0  0  0  0  0
   -0.0460   20.3530   15.1770   C 0  0  0  0  0  0  0  0  0  0  0  0
    1.4140   20.7310   14.9120   C 0  0  0  0  0  0  0  0  0  0  0  0
    1.6310   22.1960   15.2960   C 0  0  0  0  0  0  0  0  0  0  0  0
    0.6540   23.1170   14.5620   C 0  0  0  0  0  0  0  0  0  0  0  0
   -0.3280   18.9080   14.7610   C 0  0  0  0  0  0  0  0  0  0  0  0
   -0.0040   18.7190   13.2770   C 0  0  0  0  0  0  0  0  0  0  0  0
    1.4590   19.0780   13.0140   C 0  0  0  0  0  0  0  0  0  0  0  0
    1.7600   20.5180   13.4350   C 0  0  0  0  0  0  0  0  0  0  0  0
    1.7850   18.9300   11.5270   C 0  0  0  0  0  0  0  0  0  0  0  0
    3.2760   19.1630   11.2940   C 0  0  0  0  0  0  0  0  0  0  0  0
    3.6100   20.6030   11.6970   C 0  0  0  0  0  0  0  0  0  0  0  0
    3.2320   20.8510   13.1610   C 0  0  0  0  0  0  0  0  0  0  0  0
    1.6300   17.5170   10.9680   C 0  0  0  0  0  0  0  0  0  0  0  0
    2.3980   17.6280    9.6470   C 0  0  0  0  0  0  0  0  0  0  0  0
    3.2780   18.8760    9.7910   C 0  0  0  0  0  0  0  0  0  0  0  0
    2.3220   19.8510   15.7750   C 0  0  0  0  0  0  0  0  0  0  0  0
    4.6510   18.6590    9.1450   C 0  0  0  0  0  0  0  0  0  0  0  0
    2.9060   21.5170   10.8550   O 0  0  0  0  0  0  0  0  0  0  0  0
   -1.6900   23.5770   14.1700   O 0  0  0  0  0  0  0  0  0  0  0  0
    4.1090   18.1500   12.0810   C 0  0  0  0  0  0  0  0  0  0  0  0
    4.4380   18.2250    7.6940   C 0  0  0  0  0  0  0  0  0  0  0  0
    5.7000   17.6830    7.0140   C 0  0  0  0  0  0  0  0  0  0  0  0
    6.6230   18.7850    6.4860   C 0  0  0  0  0  0  0  0  0  0  0  0
    7.7480   18.8860    7.0080   O 0  0  0  0  0  0  0  0  0  0  0  0
    6.1860   19.4800    5.5370   O 0  0  0  0  0  0  0  0  0  0  0  0
    5.4990   19.9320    9.2190   C 0  0  0  0  0  0  0  0  0  0  0  0
  1  2  1  0  0  0  0
  1  6  1  0  0  0  0
  1 21  1  0  0  0  0
  2  3  1  0  0  0  0
  3  4  1  0  0  0  0
  3  7  1  0  0  0  0
  4  5  1  0  0  0  0
  4 10  1  0  0  0  0
  4 18  1  0  0  0  0
  5  6  1  0  0  0  0
  7  8  1  0  0  0  0
  8  9  1  0  0  0  0
  9 10  1  0  0  0  0
  9 11  1  0  0  0  0
 10 14  1  0  0  0  0
 11 12  1  0  0  0  0
 11 15  1  0  0  0  0
 12 13  1  0  0  0  0
 12 17  1  0  0  0  0
 12 22  1  0  0  0  0
 13 14  1  0  0  0  0
 13 20  1  0  0  0  0
 15 16  1  0  0  0  0
 16 17  1  0  0  0  0
 17 19  1  0  0  0  0
 19 23  1  0  0  0  0
 19 28  1  0  0  0  0
 23 24  1  0  0  0  0
 24 25  1  0  0  0  0
 25 26  2  0  0  0  0
 25 27  1  0  0  0  0
A    1
C1
A    2
C2
A    3
C3
A    4
C4
A    5
C5
A    6
C6
A    7
C7
A    8
C8
A    9
C9
A   10
C10
A   11
C11
A   12
C12
A   13
C13
A   14
C14
A   15
C15
A   16
C16
A   17
C17
A   18
C18
A   19
C19
A   20
O1
A   21
O2
A   22
C20
A   23
C21
A   24
C22
A   25
C23
A   26
O3
A   27
O4
A   28
C24
M  END
>  <InstanceId>
3ZQE_DXC_B_1079

>  <ChemCompId>
DXC

>  <PdbId>
3ZQE

>  <ChainId>
B

>  <ResidueNumber>
1079

>  <InsertionCode>


>  <Model>
1

>  <AltIds>


>  <MissingHeavyAtoms>
0

>  <ObservedFormula>
C24 O4

>  <Name>
(3ALPHA,5BETA,12ALPHA)-3,12-DIHYDROXYCHOLAN-24-OIC ACID

>  <SystematicName>
(4R)-4-[(3R,5R,8R,9S,10S,12S,13R,14S,17R)-3,12-dihydroxy-10,13-dimethyl-2,3,4,5,6,7,8,9,11,12,14,15,16,17-tetradecahydro-1H-cyclopenta[a]phenanthren-17-yl]pentanoic acid

>  <Synonyms>
DEOXYCHOLIC ACID

>  <Type>
NON-POLYMER

>  <Formula>
C24 H40 O4

>  <MolecularWeight>
392.572

>  <ModifiedDate>
2011-06-04

>  <Parent>


>  <OneLetterCode>


>  <SubcomponentList>


>  <AmbiguousFlag>
N

>  <InChI>
InChI=1S/C24H40O4/c1-14(4-9-22(27)28)18-7-8-19-17-6-5-15-12-16(25)10-11-23(15,2)20(17)13-21(26)24(18,19)3/h14-21,25-26H,4-13H2,1-3H3,(H,27,28)/t14-,15-,16-,17+,18-,19+,20+,21+,23+,24-/m1/s1

>  <InChIKey>
KXGVEGMKQFWNSR-LLQZFEROSA-N

>  <SMILES>
C[C@H](CCC(=O)O)[C@H]1CC[C@@H]2[C@@]1([C@H](C[C@H]3[C@H]2CC[C@H]4[C@@]3(CC[C@H](C4)O)C)O)C

$$$$
