4DSY_0LO_A_503


 16 17  0  0  0  0  0  0  0  0999 V2000
  -70.8613   35.0194  -43.2696 C   0  0  0  0  0  0  0  0  0  0  0  0
  -70.4233   33.8847  -42.5803 C   0  0  0  0  0  0  0  0  0  0  0  0
  -71.9592   35.7129  -42.7790 C   0  0  0  0  0  0  0  0  0  0  0  0
  -72.5734   35.2997  -41.6623 N   0  0  0  0  0  0  0  0  0  0  0  0
  -72.1719   34.2204  -40.9876 C   0  0  0  0  0  0  0  0  0  0  0  0
  -71.1010   33.4741  -41.4338 C   0  0  0  0  0  0  0  0  0  0  0  0
  -68.7998   35.5596  -44.5802 C   0  0  0  0  0  0  0  0  0  0  0  0
  -68.1700   36.0130  -45.7375 C   0  0  0  0  0  0  0  0  0  0  0  0
  -68.9238   36.4142  -46.8399 C   0  0  0  0  0  0  0  0  0  0  0  0
  -70.3108   36.3633  -46.7920 C   0  0  0  0  0  0  0  0  0  0  0  0
  -70.9371   35.9062  -45.6351 C   0  0  0  0  0  0  0  0  0  0  0  0
  -70.1915   35.5045  -44.5252 C   0  0  0  0  0  0  0  0  0  0  0  0
  -70.6591   32.2861  -40.6655 C   0  0  0  0  0  0  0  0  0  0  0  0
  -69.4905   32.1748  -40.1661 O   0  0  0  0  0  0  0  0  0  0  0  0
  -71.5123   31.3730  -40.5444 O   0  0  0  0  0  0  0  0  0  0  0  0
  -68.8692   32.8687  -40.2684 H   0  0  0  0  0  0  0  0  0  0  0  0
  9 10  2  0  0  0
  9  8  1  0  0  0
 10 11  1  0  0  0
  8  7  2  0  0  0
 11 12  2  0  0  0
  7 12  1  0  0  0
 12  1  1  0  0  0
  1  2  2  0  0  0
  1  3  1  0  0  0
  2  6  1  0  0  0
  3  4  2  0  0  0
  6 13  1  0  0  0
  6  5  2  0  0  0
 15 13  2  0  0  0
  4  5  1  0  0  0
 13 14  1  0  0  0
 14 16  1  0  0  0
M  END
> <minimizedAffinity>
-5.27518

$$$$
4DSY_0LO_A_503


 16 17  0  0  0  0  0  0  0  0999 V2000
  -70.3794   35.1176  -42.5923 C   0  0  0  0  0  0  0  0  0  0  0  0
  -70.3794   33.8272  -42.0544 C   0  0  0  0  0  0  0  0  0  0  0  0
  -71.4617   35.9468  -42.3314 C   0  0  0  0  0  0  0  0  0  0  0  0
  -72.4757   35.5123  -41.5713 N   0  0  0  0  0  0  0  0  0  0  0  0
  -72.4964   34.2853  -41.0467 C   0  0  0  0  0  0  0  0  0  0  0  0
  -71.4622   33.4041  -41.2857 C   0  0  0  0  0  0  0  0  0  0  0  0
  -69.2336   35.3181  -44.8073 C   0  0  0  0  0  0  0  0  0  0  0  0
  -68.1930   35.7841  -45.6083 C   0  0  0  0  0  0  0  0  0  0  0  0
  -67.1721   36.5587  -45.0587 C   0  0  0  0  0  0  0  0  0  0  0  0
  -67.1863   36.8727  -43.7059 C   0  0  0  0  0  0  0  0  0  0  0  0
  -68.2297   36.4084  -42.9088 C   0  0  0  0  0  0  0  0  0  0  0  0
  -69.2552   35.6304  -43.4491 C   0  0  0  0  0  0  0  0  0  0  0  0
  -71.4937   32.0498  -40.6845 C   0  0  0  0  0  0  0  0  0  0  0  0
  -72.4594   31.2340  -40.8557 O   0  0  0  0  0  0  0  0  0  0  0  0
  -70.5036   31.7516  -39.9723 O   0  0  0  0  0  0  0  0  0  0  0  0
  -73.1887   31.4771  -41.3914 H   0  0  0  0  0  0  0  0  0  0  0  0
  9 10  2  0  0  0
  9  8  1  0  0  0
 10 11  1  0  0  0
  8  7  2  0  0  0
 11 12  2  0  0  0
  7 12  1  0  0  0
 12  1  1  0  0  0
  1  2  2  0  0  0
  1  3  1  0  0  0
  2  6  1  0  0  0
  3  4  2  0  0  0
  6 13  1  0  0  0
  6  5  2  0  0  0
 15 13  2  0  0  0
  4  5  1  0  0  0
 13 14  1  0  0  0
 14 16  1  0  0  0
M  END
> <minimizedAffinity>
-5.26871

$$$$
4DSY_0LO_A_503


 16 17  0  0  0  0  0  0  0  0999 V2000
  -65.7171   35.8897  -47.0854 C   0  0  0  0  0  0  0  0  0  0  0  0
  -66.0480   34.5690  -46.7682 C   0  0  0  0  0  0  0  0  0  0  0  0
  -65.2644   36.7235  -46.0721 C   0  0  0  0  0  0  0  0  0  0  0  0
  -65.1425   36.2593  -44.8213 N   0  0  0  0  0  0  0  0  0  0  0  0
  -65.4513   35.0023  -44.4959 C   0  0  0  0  0  0  0  0  0  0  0  0
  -65.9277   34.1287  -45.4514 C   0  0  0  0  0  0  0  0  0  0  0  0
  -66.3021   35.6055  -49.5013 C   0  0  0  0  0  0  0  0  0  0  0  0
  -66.4189   36.1018  -50.7980 C   0  0  0  0  0  0  0  0  0  0  0  0
  -66.0790   37.4243  -51.0805 C   0  0  0  0  0  0  0  0  0  0  0  0
  -65.6218   38.2582  -50.0683 C   0  0  0  0  0  0  0  0  0  0  0  0
  -65.5096   37.7600  -48.7726 C   0  0  0  0  0  0  0  0  0  0  0  0
  -65.8451   36.4368  -48.4800 C   0  0  0  0  0  0  0  0  0  0  0  0
  -66.2530   32.7321  -45.0766 C   0  0  0  0  0  0  0  0  0  0  0  0
  -65.3858   31.7968  -45.0544 O   0  0  0  0  0  0  0  0  0  0  0  0
  -67.4563   32.5158  -44.7907 O   0  0  0  0  0  0  0  0  0  0  0  0
  -64.4930   31.9805  -45.2714 H   0  0  0  0  0  0  0  0  0  0  0  0
  9 10  2  0  0  0
  9  8  1  0  0  0
 10 11  1  0  0  0
  8  7  2  0  0  0
 11 12  2  0  0  0
  7 12  1  0  0  0
 12  1  1  0  0  0
  1  2  2  0  0  0
  1  3  1  0  0  0
  2  6  1  0  0  0
  3  4  2  0  0  0
  6 13  1  0  0  0
  6  5  2  0  0  0
 15 13  2  0  0  0
  4  5  1  0  0  0
 13 14  1  0  0  0
 14 16  1  0  0  0
M  END
> <minimizedAffinity>
-5.20605

$$$$
4DSY_0LO_A_503


 16 17  0  0  0  0  0  0  0  0999 V2000
  -71.5155   35.5096  -42.2091 C   0  0  0  0  0  0  0  0  0  0  0  0
  -71.8464   34.3724  -41.4663 C   0  0  0  0  0  0  0  0  0  0  0  0
  -70.3087   35.5282  -42.8947 C   0  0  0  0  0  0  0  0  0  0  0  0
  -69.4895   34.4692  -42.8459 N   0  0  0  0  0  0  0  0  0  0  0  0
  -69.7853   33.3729  -42.1445 C   0  0  0  0  0  0  0  0  0  0  0  0
  -70.9588   33.2988  -41.4230 C   0  0  0  0  0  0  0  0  0  0  0  0
  -72.1348   37.8241  -41.4884 C   0  0  0  0  0  0  0  0  0  0  0  0
  -72.9662   38.9409  -41.5435 C   0  0  0  0  0  0  0  0  0  0  0  0
  -74.0786   38.9515  -42.3842 C   0  0  0  0  0  0  0  0  0  0  0  0
  -74.3654   37.8466  -43.1752 C   0  0  0  0  0  0  0  0  0  0  0  0
  -73.5303   36.7334  -43.1205 C   0  0  0  0  0  0  0  0  0  0  0  0
  -72.4155   36.7119  -42.2804 C   0  0  0  0  0  0  0  0  0  0  0  0
  -71.2789   32.0689  -40.6604 C   0  0  0  0  0  0  0  0  0  0  0  0
  -70.5006   31.5732  -39.7795 O   0  0  0  0  0  0  0  0  0  0  0  0
  -72.3739   31.5253  -40.9466 O   0  0  0  0  0  0  0  0  0  0  0  0
  -69.6879   31.9954  -39.5814 H   0  0  0  0  0  0  0  0  0  0  0  0
  9 10  2  0  0  0
  9  8  1  0  0  0
 10 11  1  0  0  0
  8  7  2  0  0  0
 11 12  2  0  0  0
  7 12  1  0  0  0
 12  1  1  0  0  0
  1  2  2  0  0  0
  1  3  1  0  0  0
  2  6  1  0  0  0
  3  4  2  0  0  0
  6 13  1  0  0  0
  6  5  2  0  0  0
 15 13  2  0  0  0
  4  5  1  0  0  0
 13 14  1  0  0  0
 14 16  1  0  0  0
M  END
> <minimizedAffinity>
-5.19430

$$$$
4DSY_0LO_A_503


 16 17  0  0  0  0  0  0  0  0999 V2000
  -71.3782   34.6570  -43.4629 C   0  0  0  0  0  0  0  0  0  0  0  0
  -70.6862   33.7590  -42.6449 C   0  0  0  0  0  0  0  0  0  0  0  0
  -72.6943   34.9657  -43.1470 C   0  0  0  0  0  0  0  0  0  0  0  0
  -73.2764   34.4155  -42.0731 N   0  0  0  0  0  0  0  0  0  0  0  0
  -72.6347   33.5570  -41.2778 C   0  0  0  0  0  0  0  0  0  0  0  0
  -71.3324   33.1912  -41.5484 C   0  0  0  0  0  0  0  0  0  0  0  0
  -71.5412   35.5712  -45.7861 C   0  0  0  0  0  0  0  0  0  0  0  0
  -70.9666   36.1511  -46.9153 C   0  0  0  0  0  0  0  0  0  0  0  0
  -69.6043   36.4474  -46.9405 C   0  0  0  0  0  0  0  0  0  0  0  0
  -68.8091   36.1670  -45.8369 C   0  0  0  0  0  0  0  0  0  0  0  0
  -69.3873   35.5908  -44.7085 C   0  0  0  0  0  0  0  0  0  0  0  0
  -70.7497   35.2882  -44.6741 C   0  0  0  0  0  0  0  0  0  0  0  0
  -70.6294   32.2473  -40.6476 C   0  0  0  0  0  0  0  0  0  0  0  0
  -69.4356   32.4335  -40.2382 O   0  0  0  0  0  0  0  0  0  0  0  0
  -71.2835   31.2282  -40.3159 O   0  0  0  0  0  0  0  0  0  0  0  0
  -68.9656   33.2013  -40.4980 H   0  0  0  0  0  0  0  0  0  0  0  0
  9 10  2  0  0  0
  9  8  1  0  0  0
 10 11  1  0  0  0
  8  7  2  0  0  0
 11 12  2  0  0  0
  7 12  1  0  0  0
 12  1  1  0  0  0
  1  2  2  0  0  0
  1  3  1  0  0  0
  2  6  1  0  0  0
  3  4  2  0  0  0
  6 13  1  0  0  0
  6  5  2  0  0  0
 15 13  2  0  0  0
  4  5  1  0  0  0
 13 14  1  0  0  0
 14 16  1  0  0  0
M  END
> <minimizedAffinity>
-5.13519

$$$$
4DSY_0LO_A_503


 16 17  0  0  0  0  0  0  0  0999 V2000
  -69.4798   35.2544  -43.9031 C   0  0  0  0  0  0  0  0  0  0  0  0
  -70.0818   34.8010  -42.7256 C   0  0  0  0  0  0  0  0  0  0  0  0
  -70.2369   35.2893  -45.0661 C   0  0  0  0  0  0  0  0  0  0  0  0
  -71.5195   34.9026  -45.0473 N   0  0  0  0  0  0  0  0  0  0  0  0
  -72.1149   34.4675  -43.9348 C   0  0  0  0  0  0  0  0  0  0  0  0
  -71.4125   34.3875  -42.7502 C   0  0  0  0  0  0  0  0  0  0  0  0
  -67.2037   35.1770  -44.9389 C   0  0  0  0  0  0  0  0  0  0  0  0
  -65.8690   35.5735  -44.9896 C   0  0  0  0  0  0  0  0  0  0  0  0
  -65.3669   36.4817  -44.0582 C   0  0  0  0  0  0  0  0  0  0  0  0
  -66.1965   36.9995  -43.0720 C   0  0  0  0  0  0  0  0  0  0  0  0
  -67.5310   36.6038  -43.0263 C   0  0  0  0  0  0  0  0  0  0  0  0
  -68.0427   35.6933  -43.9527 C   0  0  0  0  0  0  0  0  0  0  0  0
  -72.0920   33.9152  -41.5206 C   0  0  0  0  0  0  0  0  0  0  0  0
  -72.3008   34.6637  -40.5089 O   0  0  0  0  0  0  0  0  0  0  0  0
  -72.4442   32.7100  -41.5269 O   0  0  0  0  0  0  0  0  0  0  0  0
  -72.0296   35.5604  -40.5257 H   0  0  0  0  0  0  0  0  0  0  0  0
  9 10  2  0  0  0
  9  8  1  0  0  0
 10 11  1  0  0  0
  8  7  2  0  0  0
 11 12  2  0  0  0
  7 12  1  0  0  0
 12  1  1  0  0  0
  1  2  2  0  0  0
  1  3  1  0  0  0
  2  6  1  0  0  0
  3  4  2  0  0  0
  6 13  1  0  0  0
  6  5  2  0  0  0
 15 13  2  0  0  0
  4  5  1  0  0  0
 13 14  1  0  0  0
 14 16  1  0  0  0
M  END
> <minimizedAffinity>
-4.70244

$$$$
4DSY_0LO_A_503


 16 17  0  0  0  0  0  0  0  0999 V2000
  -72.5288   35.1702  -43.1733 C   0  0  0  0  0  0  0  0  0  0  0  0
  -72.3223   34.1011  -42.2964 C   0  0  0  0  0  0  0  0  0  0  0  0
  -71.4219   35.8074  -43.7172 C   0  0  0  0  0  0  0  0  0  0  0  0
  -70.1861   35.3926  -43.4082 N   0  0  0  0  0  0  0  0  0  0  0  0
  -69.9654   34.3739  -42.5748 C   0  0  0  0  0  0  0  0  0  0  0  0
  -71.0213   33.7120  -41.9830 C   0  0  0  0  0  0  0  0  0  0  0  0
  -74.0415   36.8319  -44.2733 C   0  0  0  0  0  0  0  0  0  0  0  0
  -75.3123   37.2937  -44.6098 C   0  0  0  0  0  0  0  0  0  0  0  0
  -76.4475   36.5886  -44.2117 C   0  0  0  0  0  0  0  0  0  0  0  0
  -76.3187   35.4175  -43.4762 C   0  0  0  0  0  0  0  0  0  0  0  0
  -75.0469   34.9568  -43.1446 C   0  0  0  0  0  0  0  0  0  0  0  0
  -73.9043   35.6567  -43.5364 C   0  0  0  0  0  0  0  0  0  0  0  0
  -70.7596   32.5738  -41.0705 C   0  0  0  0  0  0  0  0  0  0  0  0
  -69.6045   32.3125  -40.5963 O   0  0  0  0  0  0  0  0  0  0  0  0
  -71.7559   31.8602  -40.7973 O   0  0  0  0  0  0  0  0  0  0  0  0
  -68.8745   32.8585  -40.8133 H   0  0  0  0  0  0  0  0  0  0  0  0
  9 10  2  0  0  0
  9  8  1  0  0  0
 10 11  1  0  0  0
  8  7  2  0  0  0
 11 12  2  0  0  0
  7 12  1  0  0  0
 12  1  1  0  0  0
  1  2  2  0  0  0
  1  3  1  0  0  0
  2  6  1  0  0  0
  3  4  2  0  0  0
  6 13  1  0  0  0
  6  5  2  0  0  0
 15 13  2  0  0  0
  4  5  1  0  0  0
 13 14  1  0  0  0
 14 16  1  0  0  0
M  END
> <minimizedAffinity>
-4.48864

$$$$
4DSY_0LO_A_503


 16 17  0  0  0  0  0  0  0  0999 V2000
  -65.7013   36.1293  -46.4662 C   0  0  0  0  0  0  0  0  0  0  0  0
  -65.5321   37.2124  -45.5987 C   0  0  0  0  0  0  0  0  0  0  0  0
  -65.8966   34.8667  -45.9233 C   0  0  0  0  0  0  0  0  0  0  0  0
  -65.9292   34.7023  -44.5941 N   0  0  0  0  0  0  0  0  0  0  0  0
  -65.7712   35.7217  -43.7473 C   0  0  0  0  0  0  0  0  0  0  0  0
  -65.5515   36.9984  -44.2217 C   0  0  0  0  0  0  0  0  0  0  0  0
  -66.2086   35.2830  -48.7654 C   0  0  0  0  0  0  0  0  0  0  0  0
  -66.1776   35.4160  -50.1520 C   0  0  0  0  0  0  0  0  0  0  0  0
  -65.6072   36.5443  -50.7400 C   0  0  0  0  0  0  0  0  0  0  0  0
  -65.0657   37.5464  -49.9454 C   0  0  0  0  0  0  0  0  0  0  0  0
  -65.1015   37.4120  -48.5596 C   0  0  0  0  0  0  0  0  0  0  0  0
  -65.6682   36.2852  -47.9613 C   0  0  0  0  0  0  0  0  0  0  0  0
  -65.3917   38.1218  -43.2682 C   0  0  0  0  0  0  0  0  0  0  0  0
  -65.5824   38.0022  -42.0126 O   0  0  0  0  0  0  0  0  0  0  0  0
  -65.0656   39.2216  -43.7788 O   0  0  0  0  0  0  0  0  0  0  0  0
  -65.8253   37.1719  -41.6526 H   0  0  0  0  0  0  0  0  0  0  0  0
  9 10  2  0  0  0
  9  8  1  0  0  0
 10 11  1  0  0  0
  8  7  2  0  0  0
 11 12  2  0  0  0
  7 12  1  0  0  0
 12  1  1  0  0  0
  1  2  2  0  0  0
  1  3  1  0  0  0
  2  6  1  0  0  0
  3  4  2  0  0  0
  6 13  1  0  0  0
  6  5  2  0  0  0
 15 13  2  0  0  0
  4  5  1  0  0  0
 13 14  1  0  0  0
 14 16  1  0  0  0
M  END
> <minimizedAffinity>
-4.41644

$$$$
4DSY_0LO_A_503


 16 17  0  0  0  0  0  0  0  0999 V2000
  -68.6717   35.8140  -43.5138 C   0  0  0  0  0  0  0  0  0  0  0  0
  -68.0656   34.9962  -44.4722 C   0  0  0  0  0  0  0  0  0  0  0  0
  -68.0551   37.0107  -43.1752 C   0  0  0  0  0  0  0  0  0  0  0  0
  -66.9080   37.3690  -43.7672 N   0  0  0  0  0  0  0  0  0  0  0  0
  -66.3125   36.6049  -44.6852 C   0  0  0  0  0  0  0  0  0  0  0  0
  -66.8616   35.3933  -45.0508 C   0  0  0  0  0  0  0  0  0  0  0  0
  -70.2485   34.0895  -42.6198 C   0  0  0  0  0  0  0  0  0  0  0  0
  -71.4407   33.7291  -41.9950 C   0  0  0  0  0  0  0  0  0  0  0  0
  -72.3457   34.7071  -41.5844 C   0  0  0  0  0  0  0  0  0  0  0  0
  -72.0637   36.0506  -41.7949 C   0  0  0  0  0  0  0  0  0  0  0  0
  -70.8696   36.4076  -42.4164 C   0  0  0  0  0  0  0  0  0  0  0  0
  -69.9580   35.4359  -42.8333 C   0  0  0  0  0  0  0  0  0  0  0  0
  -66.1951   34.5629  -46.0818 C   0  0  0  0  0  0  0  0  0  0  0  0
  -66.0686   34.9300  -47.2969 O   0  0  0  0  0  0  0  0  0  0  0  0
  -65.7669   33.4509  -45.6861 O   0  0  0  0  0  0  0  0  0  0  0  0
  -66.3955   35.7643  -47.5708 H   0  0  0  0  0  0  0  0  0  0  0  0
  9 10  2  0  0  0
  9  8  1  0  0  0
 10 11  1  0  0  0
  8  7  2  0  0  0
 11 12  2  0  0  0
  7 12  1  0  0  0
 12  1  1  0  0  0
  1  2  2  0  0  0
  1  3  1  0  0  0
  2  6  1  0  0  0
  3  4  2  0  0  0
  6 13  1  0  0  0
  6  5  2  0  0  0
 15 13  2  0  0  0
  4  5  1  0  0  0
 13 14  1  0  0  0
 14 16  1  0  0  0
M  END
> <minimizedAffinity>
-4.39786

$$$$
4DSY_0LO_A_503


 16 17  0  0  0  0  0  0  0  0999 V2000
  -71.1660   34.6118  -44.7565 C   0  0  0  0  0  0  0  0  0  0  0  0
  -72.0595   34.5866  -43.6815 C   0  0  0  0  0  0  0  0  0  0  0  0
  -69.8444   34.2519  -44.5312 C   0  0  0  0  0  0  0  0  0  0  0  0
  -69.4461   33.8812  -43.3070 N   0  0  0  0  0  0  0  0  0  0  0  0
  -70.2817   33.8486  -42.2667 C   0  0  0  0  0  0  0  0  0  0  0  0
  -71.6029   34.2154  -42.4182 C   0  0  0  0  0  0  0  0  0  0  0  0
  -70.9174   36.0705  -46.7739 C   0  0  0  0  0  0  0  0  0  0  0  0
  -71.3028   36.4637  -48.0538 C   0  0  0  0  0  0  0  0  0  0  0  0
  -72.3548   35.8187  -48.7032 C   0  0  0  0  0  0  0  0  0  0  0  0
  -73.0265   34.7766  -48.0774 C   0  0  0  0  0  0  0  0  0  0  0  0
  -72.6363   34.3836  -46.7994 C   0  0  0  0  0  0  0  0  0  0  0  0
  -71.5859   35.0244  -46.1400 C   0  0  0  0  0  0  0  0  0  0  0  0
  -72.5211   34.1605  -41.2560 C   0  0  0  0  0  0  0  0  0  0  0  0
  -72.1503   34.4172  -40.0627 O   0  0  0  0  0  0  0  0  0  0  0  0
  -73.7032   33.8270  -41.5166 O   0  0  0  0  0  0  0  0  0  0  0  0
  -71.2630   34.6644  -39.8907 H   0  0  0  0  0  0  0  0  0  0  0  0
  9 10  2  0  0  0
  9  8  1  0  0  0
 10 11  1  0  0  0
  8  7  2  0  0  0
 11 12  2  0  0  0
  7 12  1  0  0  0
 12  1  1  0  0  0
  1  2  2  0  0  0
  1  3  1  0  0  0
  2  6  1  0  0  0
  3  4  2  0  0  0
  6 13  1  0  0  0
  6  5  2  0  0  0
 15 13  2  0  0  0
  4  5  1  0  0  0
 13 14  1  0  0  0
 14 16  1  0  0  0
M  END
> <minimizedAffinity>
-4.29099

$$$$
