4EF6_I2E_A_404
  RCSB PDB12061712223D
Coordinates from PDB:4EF6:A:404 Model:1 without hydrogens
 14 15  0  0  0  0            999 V2000
   14.0110    9.9680   -3.9600   C 0  0  0  0  0  0  0  0  0  0  0  0
   15.3410   10.2550   -3.8840   C 0  0  0  0  0  0  0  0  0  0  0  0
   15.9060   10.5870   -2.6350   C 0  0  0  0  0  0  0  0  0  0  0  0
   13.2090    9.9760   -2.8380   C 0  0  0  0  0  0  0  0  0  0  0  0
   13.7160   10.2740   -1.5970   C 0  0  0  0  0  0  0  0  0  0  0  0
   15.0860   10.5630   -1.4630   C 0  0  0  0  0  0  0  0  0  0  0  0
   15.6130   10.9140   -0.1970   C 0  0  0  0  0  0  0  0  0  0  0  0
   17.0060   10.2600    0.0980   C 0  0  0  0  0  0  0  0  0  0  0  0
   18.2290   11.1310   -0.3530   C 0  0  0  0  0  0  0  0  0  0  0  0
   18.1410   12.3670   -0.4680   O 0  0  0  0  0  0  0  0  0  0  0  0
   11.8820    9.5630   -4.6270   C 0  0  0  0  0  0  0  0  0  0  0  0
   19.2480   10.5040   -0.5910   O 0  0  0  0  0  0  0  0  0  0  0  0
   13.2800    9.6100   -5.0770   O 0  0  0  0  0  0  0  0  0  0  0  0
   11.9130    9.6480   -3.1680   O 0  0  0  0  0  0  0  0  0  0  0  0
  1  2  1  0  0  0  0
  1  4  2  0  0  0  0
  1 13  1  0  0  0  0
  2  3  2  0  0  0  0
  3  6  1  0  0  0  0
  4  5  1  0  0  0  0
  4 14  1  0  0  0  0
  5  6  2  0  0  0  0
  6  7  1  0  0  0  0
  7  8  1  0  0  0  0
  8  9  1  0  0  0  0
  9 10  1  0  0  0  0
  9 12  2  0  0  0  0
 11 13  1  0  0  0  0
 11 14  1  0  0  0  0
A    1
C4
A    2
C5
A    3
C6
A    4
C3
A    5
C2
A    6
C1
A    7
C7
A    8
C8
A    9
C9
A   10
O1
A   11
C20
A   12
O2
A   13
O4
A   14
O3
M  END
>  <InstanceId>
4EF6_I2E_A_404

>  <ChemCompId>
I2E

>  <PdbId>
4EF6

>  <ChainId>
A

>  <ResidueNumber>
404

>  <InsertionCode>


>  <Model>
1

>  <AltIds>


>  <MissingHeavyAtoms>
0

>  <ObservedFormula>
C10 O4

>  <Name>
3-(1,3-benzodioxol-5-yl)propanoic acid

>  <SystematicName>
3-(1,3-benzodioxol-5-yl)propanoic acid

>  <Synonyms>


>  <Type>
non-polymer

>  <Formula>
C10 H10 O4

>  <MolecularWeight>
194.184

>  <ModifiedDate>
2014-09-05

>  <Parent>


>  <OneLetterCode>


>  <SubcomponentList>


>  <AmbiguousFlag>
N

>  <InChI>
InChI=1S/C10H10O4/c11-10(12)4-2-7-1-3-8-9(5-7)14-6-13-8/h1,3,5H,2,4,6H2,(H,11,12)

>  <InChIKey>
UIYJGLLTSVRSBM-UHFFFAOYSA-N

>  <SMILES>
c1cc2c(cc1CCC(=O)O)OCO2

$$$$
