4EF6_I2E_A_404


 15 16  0  0  0  0  0  0  0  0999 V2000
   13.0073    9.9643   -2.7316 C   0  0  0  0  0  0  0  0  0  0  0  0
   13.0670   10.2160   -1.3936 C   0  0  0  0  0  0  0  0  0  0  0  0
   14.3237   10.4028   -0.7811 C   0  0  0  0  0  0  0  0  0  0  0  0
   14.1487    9.9076   -3.5037 C   0  0  0  0  0  0  0  0  0  0  0  0
   15.3936   10.1018   -2.9574 C   0  0  0  0  0  0  0  0  0  0  0  0
   15.5080   10.3794   -1.5833 C   0  0  0  0  0  0  0  0  0  0  0  0
   12.3918    9.3915   -4.8375 C   0  0  0  0  0  0  0  0  0  0  0  0
   11.8831    9.7686   -3.5115 O   0  0  0  0  0  0  0  0  0  0  0  0
   13.8305    9.6493   -4.8183 O   0  0  0  0  0  0  0  0  0  0  0  0
   16.7876   10.5387   -0.9993 C   0  0  0  0  0  0  0  0  0  0  0  0
   16.7341   11.0355    0.4858 C   0  0  0  0  0  0  0  0  0  0  0  0
   17.6899   12.2401    0.7911 C   0  0  0  0  0  0  0  0  0  0  0  0
   17.6679   12.8269    1.8884 O   0  0  0  0  0  0  0  0  0  0  0  0
   18.4304   12.5553   -0.1257 O   0  0  0  0  0  0  0  0  0  0  0  0
   17.0787   12.5434    2.5595 H   0  0  0  0  0  0  0  0  0  0  0  0
  1  2  1  0  0  0
  1  4  2  0  0  0
  1  8  1  0  0  0
  2  3  2  0  0  0
  3  6  1  0  0  0
  4  5  1  0  0  0
  4  9  1  0  0  0
  5  6  2  0  0  0
  6 10  1  0  0  0
 10 11  1  0  0  0
 11 12  1  0  0  0
 12 13  1  0  0  0
 12 14  2  0  0  0
  7  8  1  0  0  0
  7  9  1  0  0  0
 13 15  1  0  0  0
M  END
> <minimizedAffinity>
-7.13493

$$$$
4EF6_I2E_A_404


 15 16  0  0  0  0  0  0  0  0999 V2000
   14.0240    9.7956   -3.8838 C   0  0  0  0  0  0  0  0  0  0  0  0
   15.3734    9.9749   -3.8199 C   0  0  0  0  0  0  0  0  0  0  0  0
   15.9558   10.4138   -2.6126 C   0  0  0  0  0  0  0  0  0  0  0  0
   13.2173   10.0154   -2.7869 C   0  0  0  0  0  0  0  0  0  0  0  0
   13.7390   10.4246   -1.5843 C   0  0  0  0  0  0  0  0  0  0  0  0
   15.1280   10.6098   -1.4625 C   0  0  0  0  0  0  0  0  0  0  0  0
   11.8729    9.4929   -4.5338 C   0  0  0  0  0  0  0  0  0  0  0  0
   13.2730    9.3621   -4.9600 O   0  0  0  0  0  0  0  0  0  0  0  0
   11.9001    9.7603   -3.0969 O   0  0  0  0  0  0  0  0  0  0  0  0
   15.6741   11.0730   -0.2414 C   0  0  0  0  0  0  0  0  0  0  0  0
   17.0970   10.4912    0.0620 C   0  0  0  0  0  0  0  0  0  0  0  0
   18.2565   11.5381   -0.0689 C   0  0  0  0  0  0  0  0  0  0  0  0
   19.4387   11.1839   -0.2285 O   0  0  0  0  0  0  0  0  0  0  0  0
   17.9088   12.7046    0.0127 O   0  0  0  0  0  0  0  0  0  0  0  0
   19.6513   10.2731   -0.2848 H   0  0  0  0  0  0  0  0  0  0  0  0
  1  2  1  0  0  0
  1  4  2  0  0  0
  1  8  1  0  0  0
  2  3  2  0  0  0
  3  6  1  0  0  0
  4  5  1  0  0  0
  4  9  1  0  0  0
  5  6  2  0  0  0
  6 10  1  0  0  0
 10 11  1  0  0  0
 11 12  1  0  0  0
 12 13  1  0  0  0
 12 14  2  0  0  0
  7  8  1  0  0  0
  7  9  1  0  0  0
 13 15  1  0  0  0
M  END
> <minimizedAffinity>
-7.09796

$$$$
4EF6_I2E_A_404


 15 16  0  0  0  0  0  0  0  0999 V2000
   14.1671    9.8565   -3.6126 C   0  0  0  0  0  0  0  0  0  0  0  0
   15.4181   10.0443   -3.1057 C   0  0  0  0  0  0  0  0  0  0  0  0
   15.5831   10.2026   -1.7139 C   0  0  0  0  0  0  0  0  0  0  0  0
   13.0605    9.7982   -2.7916 C   0  0  0  0  0  0  0  0  0  0  0  0
   13.1717    9.9275   -1.4289 C   0  0  0  0  0  0  0  0  0  0  0  0
   14.4430   10.1084   -0.8549 C   0  0  0  0  0  0  0  0  0  0  0  0
   12.3335    9.6681   -4.9332 C   0  0  0  0  0  0  0  0  0  0  0  0
   13.8029    9.6694   -4.9327 O   0  0  0  0  0  0  0  0  0  0  0  0
   11.9185    9.5946   -3.5335 O   0  0  0  0  0  0  0  0  0  0  0  0
   14.5672   10.2863    0.5439 C   0  0  0  0  0  0  0  0  0  0  0  0
   13.4944    9.4952    1.3675 C   0  0  0  0  0  0  0  0  0  0  0  0
   13.9601    8.0677    1.8183 C   0  0  0  0  0  0  0  0  0  0  0  0
   13.2106    7.0786    1.7251 O   0  0  0  0  0  0  0  0  0  0  0  0
   15.0909    8.0145    2.2727 O   0  0  0  0  0  0  0  0  0  0  0  0
   12.3498    7.1751    1.3678 H   0  0  0  0  0  0  0  0  0  0  0  0
  1  2  1  0  0  0
  1  4  2  0  0  0
  1  8  1  0  0  0
  2  3  2  0  0  0
  3  6  1  0  0  0
  4  5  1  0  0  0
  4  9  1  0  0  0
  5  6  2  0  0  0
  6 10  1  0  0  0
 10 11  1  0  0  0
 11 12  1  0  0  0
 12 13  1  0  0  0
 12 14  2  0  0  0
  7  8  1  0  0  0
  7  9  1  0  0  0
 13 15  1  0  0  0
M  END
> <minimizedAffinity>
-6.92524

$$$$
4EF6_I2E_A_404


 15 16  0  0  0  0  0  0  0  0999 V2000
   15.8940   10.9096    0.5380 C   0  0  0  0  0  0  0  0  0  0  0  0
   14.6712   10.3271    0.6883 C   0  0  0  0  0  0  0  0  0  0  0  0
   14.0309    9.7646   -0.4356 C   0  0  0  0  0  0  0  0  0  0  0  0
   16.5280   10.9436   -0.6864 C   0  0  0  0  0  0  0  0  0  0  0  0
   15.9543   10.3927   -1.8059 C   0  0  0  0  0  0  0  0  0  0  0  0
   14.6992    9.7665   -1.7005 C   0  0  0  0  0  0  0  0  0  0  0  0
   17.8137   12.0909    0.7842 C   0  0  0  0  0  0  0  0  0  0  0  0
   16.6818   11.4976    1.5094 O   0  0  0  0  0  0  0  0  0  0  0  0
   17.7475   11.5744   -0.5817 O   0  0  0  0  0  0  0  0  0  0  0  0
   14.0772    9.2329   -2.8546 C   0  0  0  0  0  0  0  0  0  0  0  0
   12.5909    9.6973   -3.0290 C   0  0  0  0  0  0  0  0  0  0  0  0
   11.9694    9.3401   -4.4233 C   0  0  0  0  0  0  0  0  0  0  0  0
   10.8838    8.7392   -4.5175 O   0  0  0  0  0  0  0  0  0  0  0  0
   12.6354    9.6814   -5.3867 O   0  0  0  0  0  0  0  0  0  0  0  0
   10.4120    8.4999   -3.7441 H   0  0  0  0  0  0  0  0  0  0  0  0
  1  2  1  0  0  0
  1  4  2  0  0  0
  1  8  1  0  0  0
  2  3  2  0  0  0
  3  6  1  0  0  0
  4  5  1  0  0  0
  4  9  1  0  0  0
  5  6  2  0  0  0
  6 10  1  0  0  0
 10 11  1  0  0  0
 11 12  1  0  0  0
 12 13  1  0  0  0
 12 14  2  0  0  0
  7  8  1  0  0  0
  7  9  1  0  0  0
 13 15  1  0  0  0
M  END
> <minimizedAffinity>
-6.81412

$$$$
4EF6_I2E_A_404


 15 16  0  0  0  0  0  0  0  0999 V2000
   13.9822    8.5790    1.1120 C   0  0  0  0  0  0  0  0  0  0  0  0
   14.4490    7.9043    0.0240 C   0  0  0  0  0  0  0  0  0  0  0  0
   14.4771    8.5498   -1.2298 C   0  0  0  0  0  0  0  0  0  0  0  0
   13.5546    9.8868    1.0174 C   0  0  0  0  0  0  0  0  0  0  0  0
   13.5805   10.5645   -0.1768 C   0  0  0  0  0  0  0  0  0  0  0  0
   14.0673    9.9170   -1.3266 C   0  0  0  0  0  0  0  0  0  0  0  0
   13.1854    9.1964    3.1432 C   0  0  0  0  0  0  0  0  0  0  0  0
   13.8884    8.1305    2.4160 O   0  0  0  0  0  0  0  0  0  0  0  0
   13.1390   10.3495    2.2459 O   0  0  0  0  0  0  0  0  0  0  0  0
   14.0592   10.5893   -2.5723 C   0  0  0  0  0  0  0  0  0  0  0  0
   15.2264   10.1511   -3.5213 C   0  0  0  0  0  0  0  0  0  0  0  0
   14.7764    9.8576   -4.9941 C   0  0  0  0  0  0  0  0  0  0  0  0
   15.5983    9.7986   -5.9266 O   0  0  0  0  0  0  0  0  0  0  0  0
   13.5749    9.7104   -5.1459 O   0  0  0  0  0  0  0  0  0  0  0  0
   16.5114    9.9191   -5.7546 H   0  0  0  0  0  0  0  0  0  0  0  0
  1  2  1  0  0  0
  1  4  2  0  0  0
  1  8  1  0  0  0
  2  3  2  0  0  0
  3  6  1  0  0  0
  4  5  1  0  0  0
  4  9  1  0  0  0
  5  6  2  0  0  0
  6 10  1  0  0  0
 10 11  1  0  0  0
 11 12  1  0  0  0
 12 13  1  0  0  0
 12 14  2  0  0  0
  7  8  1  0  0  0
  7  9  1  0  0  0
 13 15  1  0  0  0
M  END
> <minimizedAffinity>
-6.70534

$$$$
4EF6_I2E_A_404


 15 16  0  0  0  0  0  0  0  0999 V2000
   13.7069    9.1821    0.1415 C   0  0  0  0  0  0  0  0  0  0  0  0
   13.3615   10.4406   -0.2510 C   0  0  0  0  0  0  0  0  0  0  0  0
   13.7599   10.9014   -1.5232 C   0  0  0  0  0  0  0  0  0  0  0  0
   14.4212    8.3418   -0.6867 C   0  0  0  0  0  0  0  0  0  0  0  0
   14.8152    8.7374   -1.9414 C   0  0  0  0  0  0  0  0  0  0  0  0
   14.4708   10.0219   -2.3994 C   0  0  0  0  0  0  0  0  0  0  0  0
   14.1397    7.2774    1.2931 C   0  0  0  0  0  0  0  0  0  0  0  0
   13.4029    8.5481    1.3313 O   0  0  0  0  0  0  0  0  0  0  0  0
   14.6396    7.1289   -0.0725 O   0  0  0  0  0  0  0  0  0  0  0  0
   14.9075   10.4579   -3.6733 C   0  0  0  0  0  0  0  0  0  0  0  0
   14.3947    9.5556   -4.8472 C   0  0  0  0  0  0  0  0  0  0  0  0
   12.8899    9.1351   -4.7193 C   0  0  0  0  0  0  0  0  0  0  0  0
   11.9749    9.9785   -4.7313 O   0  0  0  0  0  0  0  0  0  0  0  0
   12.6987    7.9368   -4.5943 O   0  0  0  0  0  0  0  0  0  0  0  0
   12.1773   10.8880   -4.8303 H   0  0  0  0  0  0  0  0  0  0  0  0
  1  2  1  0  0  0
  1  4  2  0  0  0
  1  8  1  0  0  0
  2  3  2  0  0  0
  3  6  1  0  0  0
  4  5  1  0  0  0
  4  9  1  0  0  0
  5  6  2  0  0  0
  6 10  1  0  0  0
 10 11  1  0  0  0
 11 12  1  0  0  0
 12 13  1  0  0  0
 12 14  2  0  0  0
  7  8  1  0  0  0
  7  9  1  0  0  0
 13 15  1  0  0  0
M  END
> <minimizedAffinity>
-6.33573

$$$$
4EF6_I2E_A_404


 15 16  0  0  0  0  0  0  0  0999 V2000
   18.4415   11.0115    1.8137 C   0  0  0  0  0  0  0  0  0  0  0  0
   17.2722   10.7876    2.4768 C   0  0  0  0  0  0  0  0  0  0  0  0
   16.0732   10.6707    1.7432 C   0  0  0  0  0  0  0  0  0  0  0  0
   18.4806   11.1067    0.4383 C   0  0  0  0  0  0  0  0  0  0  0  0
   17.3435   10.9806   -0.3212 C   0  0  0  0  0  0  0  0  0  0  0  0
   16.1133   10.7341    0.3146 C   0  0  0  0  0  0  0  0  0  0  0  0
   20.5693   11.5159    1.2141 C   0  0  0  0  0  0  0  0  0  0  0  0
   19.7106   11.1404    2.3457 O   0  0  0  0  0  0  0  0  0  0  0  0
   19.7694   11.3256    0.0055 O   0  0  0  0  0  0  0  0  0  0  0  0
   14.9272   10.6452   -0.4528 C   0  0  0  0  0  0  0  0  0  0  0  0
   14.7837    9.2851   -1.2175 C   0  0  0  0  0  0  0  0  0  0  0  0
   14.3652    8.0806   -0.3056 C   0  0  0  0  0  0  0  0  0  0  0  0
   14.7856    6.9282   -0.5154 O   0  0  0  0  0  0  0  0  0  0  0  0
   13.5963    8.3620    0.5988 O   0  0  0  0  0  0  0  0  0  0  0  0
   15.3758    6.7668   -1.2250 H   0  0  0  0  0  0  0  0  0  0  0  0
  1  2  1  0  0  0
  1  4  2  0  0  0
  1  8  1  0  0  0
  2  3  2  0  0  0
  3  6  1  0  0  0
  4  5  1  0  0  0
  4  9  1  0  0  0
  5  6  2  0  0  0
  6 10  1  0  0  0
 10 11  1  0  0  0
 11 12  1  0  0  0
 12 13  1  0  0  0
 12 14  2  0  0  0
  7  8  1  0  0  0
  7  9  1  0  0  0
 13 15  1  0  0  0
M  END
> <minimizedAffinity>
-6.29669

$$$$
4EF6_I2E_A_404


 15 16  0  0  0  0  0  0  0  0999 V2000
   14.7229   10.0338   -2.3361 C   0  0  0  0  0  0  0  0  0  0  0  0
   15.9390   10.2342   -1.7548 C   0  0  0  0  0  0  0  0  0  0  0  0
   16.0146   10.4267   -0.3595 C   0  0  0  0  0  0  0  0  0  0  0  0
   13.5658    9.9956   -1.5865 C   0  0  0  0  0  0  0  0  0  0  0  0
   13.5896   10.1584   -0.2231 C   0  0  0  0  0  0  0  0  0  0  0  0
   14.8217   10.3535    0.4266 C   0  0  0  0  0  0  0  0  0  0  0  0
   12.9774    9.8127   -3.7666 C   0  0  0  0  0  0  0  0  0  0  0  0
   14.4438    9.8143   -3.6718 O   0  0  0  0  0  0  0  0  0  0  0  0
   12.4734    9.7736   -2.3950 O   0  0  0  0  0  0  0  0  0  0  0  0
   14.8562   10.5657    1.8257 C   0  0  0  0  0  0  0  0  0  0  0  0
   16.3073   10.7381    2.3913 C   0  0  0  0  0  0  0  0  0  0  0  0
   16.4203   11.7860    3.5519 C   0  0  0  0  0  0  0  0  0  0  0  0
   17.4426   11.8696    4.2565 O   0  0  0  0  0  0  0  0  0  0  0  0
   15.4345   12.4869    3.7107 O   0  0  0  0  0  0  0  0  0  0  0  0
   18.1728   11.3061    4.0913 H   0  0  0  0  0  0  0  0  0  0  0  0
  1  2  1  0  0  0
  1  4  2  0  0  0
  1  8  1  0  0  0
  2  3  2  0  0  0
  3  6  1  0  0  0
  4  5  1  0  0  0
  4  9  1  0  0  0
  5  6  2  0  0  0
  6 10  1  0  0  0
 10 11  1  0  0  0
 11 12  1  0  0  0
 12 13  1  0  0  0
 12 14  2  0  0  0
  7  8  1  0  0  0
  7  9  1  0  0  0
 13 15  1  0  0  0
M  END
> <minimizedAffinity>
-6.10429

$$$$
4EF6_I2E_A_404


 15 16  0  0  0  0  0  0  0  0999 V2000
   17.7690   11.0296    2.0737 C   0  0  0  0  0  0  0  0  0  0  0  0
   16.7849   10.9528    3.0133 C   0  0  0  0  0  0  0  0  0  0  0  0
   15.4670   10.6519    2.6106 C   0  0  0  0  0  0  0  0  0  0  0  0
   17.5076   10.7999    0.7391 C   0  0  0  0  0  0  0  0  0  0  0  0
   16.2451   10.4848    0.3002 C   0  0  0  0  0  0  0  0  0  0  0  0
   15.1973   10.3789    1.2325 C   0  0  0  0  0  0  0  0  0  0  0  0
   19.6831   11.4061    0.9179 C   0  0  0  0  0  0  0  0  0  0  0  0
   19.1114   11.2957    2.2670 O   0  0  0  0  0  0  0  0  0  0  0  0
   18.6576   10.9274   -0.0074 O   0  0  0  0  0  0  0  0  0  0  0  0
   13.8830   10.0974    0.7886 C   0  0  0  0  0  0  0  0  0  0  0  0
   13.8281    9.5451   -0.6767 C   0  0  0  0  0  0  0  0  0  0  0  0
   13.1794   10.5322   -1.7076 C   0  0  0  0  0  0  0  0  0  0  0  0
   12.3397   10.1448   -2.5403 O   0  0  0  0  0  0  0  0  0  0  0  0
   13.5721   11.6849   -1.6343 O   0  0  0  0  0  0  0  0  0  0  0  0
   12.0725    9.2468   -2.5533 H   0  0  0  0  0  0  0  0  0  0  0  0
  1  2  1  0  0  0
  1  4  2  0  0  0
  1  8  1  0  0  0
  2  3  2  0  0  0
  3  6  1  0  0  0
  4  5  1  0  0  0
  4  9  1  0  0  0
  5  6  2  0  0  0
  6 10  1  0  0  0
 10 11  1  0  0  0
 11 12  1  0  0  0
 12 13  1  0  0  0
 12 14  2  0  0  0
  7  8  1  0  0  0
  7  9  1  0  0  0
 13 15  1  0  0  0
M  END
> <minimizedAffinity>
-6.06539

$$$$
4EF6_I2E_A_404


 15 16  0  0  0  0  0  0  0  0999 V2000
   13.6380   10.0969   -2.5734 C   0  0  0  0  0  0  0  0  0  0  0  0
   13.0963   10.2707   -1.3351 C   0  0  0  0  0  0  0  0  0  0  0  0
   13.9483   10.4913   -0.2329 C   0  0  0  0  0  0  0  0  0  0  0  0
   15.0012   10.1517   -2.7754 C   0  0  0  0  0  0  0  0  0  0  0  0
   15.8706   10.3829   -1.7377 C   0  0  0  0  0  0  0  0  0  0  0  0
   15.3604   10.5834   -0.4424 C   0  0  0  0  0  0  0  0  0  0  0  0
   14.0354    9.6179   -4.7538 C   0  0  0  0  0  0  0  0  0  0  0  0
   12.9780    9.8850   -3.7691 O   0  0  0  0  0  0  0  0  0  0  0  0
   15.3011    9.9552   -4.1049 O   0  0  0  0  0  0  0  0  0  0  0  0
   16.2474   10.7796    0.6432 C   0  0  0  0  0  0  0  0  0  0  0  0
   15.5884   10.5105    2.0391 C   0  0  0  0  0  0  0  0  0  0  0  0
   15.9475    9.1151    2.6567 C   0  0  0  0  0  0  0  0  0  0  0  0
   15.1269    8.1796    2.6730 O   0  0  0  0  0  0  0  0  0  0  0  0
   17.0714    9.0323    3.1235 O   0  0  0  0  0  0  0  0  0  0  0  0
   14.2754    8.2968    2.2998 H   0  0  0  0  0  0  0  0  0  0  0  0
  1  2  1  0  0  0
  1  4  2  0  0  0
  1  8  1  0  0  0
  2  3  2  0  0  0
  3  6  1  0  0  0
  4  5  1  0  0  0
  4  9  1  0  0  0
  5  6  2  0  0  0
  6 10  1  0  0  0
 10 11  1  0  0  0
 11 12  1  0  0  0
 12 13  1  0  0  0
 12 14  2  0  0  0
  7  8  1  0  0  0
  7  9  1  0  0  0
 13 15  1  0  0  0
M  END
> <minimizedAffinity>
-6.03467

$$$$
