1K4G_AIQ_A_900


 26 28  0  0  0  0  0  0  0  0999 V2000
   16.8217   17.0240   19.3002 C   0  0  0  0  0  0  0  0  0  0  0  0
   15.7843   16.8587   20.2431 C   0  0  0  0  0  0  0  0  0  0  0  0
   16.0965   16.9987   21.6134 C   0  0  0  0  0  0  0  0  0  0  0  0
   15.1357   16.8584   22.5679 N   0  0  0  0  0  0  0  0  0  0  0  0
   15.3522   16.9712   23.8309 C   0  0  0  0  0  0  0  0  0  0  0  0
   14.3583   16.8196   24.6690 N   0  0  0  0  0  0  0  0  0  0  0  0
   16.5641   17.2421   24.3147 N   0  0  0  0  0  0  0  0  0  0  0  0
   17.6122   17.4145   23.5257 C   0  0  0  0  0  0  0  0  0  0  0  0
   18.7307   17.6636   23.9593 O   0  0  0  0  0  0  0  0  0  0  0  0
   17.4153   17.2937   22.0233 C   0  0  0  0  0  0  0  0  0  0  0  0
   18.4403   17.4536   21.0716 C   0  0  0  0  0  0  0  0  0  0  0  0
   18.1424   17.3219   19.6991 C   0  0  0  0  0  0  0  0  0  0  0  0
   19.1165   17.4763   18.7704 N   0  0  0  0  0  0  0  0  0  0  0  0
   13.4557   16.6191   24.3310 H   0  0  0  0  0  0  0  0  0  0  0  0
   14.5135   16.9060   25.6373 H   0  0  0  0  0  0  0  0  0  0  0  0
   16.6832   17.3161   25.2892 H   0  0  0  0  0  0  0  0  0  0  0  0
   18.9036   17.3834   17.8137 H   0  0  0  0  0  0  0  0  0  0  0  0
   20.0372   17.6814   19.0522 H   0  0  0  0  0  0  0  0  0  0  0  0
   14.3200   16.5280   19.8599 C   0  0  0  0  0  0  0  0  0  0  0  0
   13.9934   14.7727   19.4026 S   0  0  0  0  0  0  0  0  0  0  0  0
   13.1594   15.1156   17.8556 C   0  0  0  0  0  0  0  0  0  0  0  0
   12.7824   16.3486   17.4711 N   0  0  0  0  0  0  0  0  0  0  0  0
   12.8103   14.3139   16.9476 N   0  0  0  0  0  0  0  0  0  0  0  0
   12.1967   16.2146   16.2806 C   0  0  0  0  0  0  0  0  0  0  0  0
   12.1594   14.9500   15.8491 C   0  0  0  0  0  0  0  0  0  0  0  0
   12.9711   13.3436   16.9921 H   0  0  0  0  0  0  0  0  0  0  0  0
  1  2  2  0  0  0
  1 12  1  0  0  0
  2 19  1  0  0  0
  2  3  1  0  0  0
 19 20  1  0  0  0
  3  4  1  0  0  0
  3 10  2  0  0  0
  4  5  2  0  0  0
  5  6  1  0  0  0
  5  7  1  0  0  0
  7  8  1  0  0  0
  8  9  2  0  0  0
  8 10  1  0  0  0
 10 11  1  0  0  0
 11 12  2  0  0  0
 12 13  1  0  0  0
 20 21  1  0  0  0
 21 22  2  0  0  0
 21 23  1  0  0  0
 22 24  1  0  0  0
 23 25  1  0  0  0
 24 25  2  0  0  0
  6 14  1  0  0  0
  6 15  1  0  0  0
  7 16  1  0  0  0
 13 17  1  0  0  0
 13 18  1  0  0  0
 23 26  1  0  0  0
M  END
> <minimizedAffinity>
-9.26492

$$$$
1K4G_AIQ_A_900


 26 28  0  0  0  0  0  0  0  0999 V2000
   13.8636   16.4731   21.7231 C   0  0  0  0  0  0  0  0  0  0  0  0
   14.9484   16.4961   20.8201 C   0  0  0  0  0  0  0  0  0  0  0  0
   16.2232   16.8502   21.3142 C   0  0  0  0  0  0  0  0  0  0  0  0
   17.3083   16.8818   20.4922 N   0  0  0  0  0  0  0  0  0  0  0  0
   18.4948   17.1968   20.8763 C   0  0  0  0  0  0  0  0  0  0  0  0
   19.4730   17.1955   20.0066 N   0  0  0  0  0  0  0  0  0  0  0  0
   18.7607   17.5235   22.1407 N   0  0  0  0  0  0  0  0  0  0  0  0
   17.8225   17.5389   23.0735 C   0  0  0  0  0  0  0  0  0  0  0  0
   18.0552   17.8378   24.2388 O   0  0  0  0  0  0  0  0  0  0  0  0
   16.4009   17.1744   22.6771 C   0  0  0  0  0  0  0  0  0  0  0  0
   15.3093   17.1491   23.5656 C   0  0  0  0  0  0  0  0  0  0  0  0
   14.0310   16.7924   23.0877 C   0  0  0  0  0  0  0  0  0  0  0  0
   12.9708   16.7598   23.9303 N   0  0  0  0  0  0  0  0  0  0  0  0
   19.2967   16.9570   19.0678 H   0  0  0  0  0  0  0  0  0  0  0  0
   20.3850   17.4331   20.2912 H   0  0  0  0  0  0  0  0  0  0  0  0
   19.6836   17.7607   22.3883 H   0  0  0  0  0  0  0  0  0  0  0  0
   12.0806   16.5101   23.5920 H   0  0  0  0  0  0  0  0  0  0  0  0
   13.0905   16.9857   24.8810 H   0  0  0  0  0  0  0  0  0  0  0  0
   14.8192   16.1582   19.3136 C   0  0  0  0  0  0  0  0  0  0  0  0
   14.0883   14.5111   18.9267 S   0  0  0  0  0  0  0  0  0  0  0  0
   13.1272   15.0407   17.5117 C   0  0  0  0  0  0  0  0  0  0  0  0
   12.6860   16.3003   17.3413 N   0  0  0  0  0  0  0  0  0  0  0  0
   12.7319   14.3655   16.5232 N   0  0  0  0  0  0  0  0  0  0  0  0
   12.0137   16.3166   16.1898 C   0  0  0  0  0  0  0  0  0  0  0  0
   11.9796   15.1274   15.5806 C   0  0  0  0  0  0  0  0  0  0  0  0
   12.9237   13.4062   16.4125 H   0  0  0  0  0  0  0  0  0  0  0  0
  1  2  2  0  0  0
  1 12  1  0  0  0
  2 19  1  0  0  0
  2  3  1  0  0  0
 19 20  1  0  0  0
  3  4  1  0  0  0
  3 10  2  0  0  0
  4  5  2  0  0  0
  5  6  1  0  0  0
  5  7  1  0  0  0
  7  8  1  0  0  0
  8  9  2  0  0  0
  8 10  1  0  0  0
 10 11  1  0  0  0
 11 12  2  0  0  0
 12 13  1  0  0  0
 20 21  1  0  0  0
 21 22  2  0  0  0
 21 23  1  0  0  0
 22 24  1  0  0  0
 23 25  1  0  0  0
 24 25  2  0  0  0
  6 14  1  0  0  0
  6 15  1  0  0  0
  7 16  1  0  0  0
 13 17  1  0  0  0
 13 18  1  0  0  0
 23 26  1  0  0  0
M  END
> <minimizedAffinity>
-8.51750

$$$$
1K4G_AIQ_A_900


 26 28  0  0  0  0  0  0  0  0999 V2000
   15.5335   16.9489   22.1230 C   0  0  0  0  0  0  0  0  0  0  0  0
   15.5902   17.1063   20.7214 C   0  0  0  0  0  0  0  0  0  0  0  0
   16.7915   17.5792   20.1489 C   0  0  0  0  0  0  0  0  0  0  0  0
   16.9079   17.7433   18.8022 N   0  0  0  0  0  0  0  0  0  0  0  0
   17.9707   18.1707   18.2171 C   0  0  0  0  0  0  0  0  0  0  0  0
   17.9818   18.2921   16.9139 N   0  0  0  0  0  0  0  0  0  0  0  0
   19.0681   18.4931   18.9011 N   0  0  0  0  0  0  0  0  0  0  0  0
   19.1298   18.3885   20.2186 C   0  0  0  0  0  0  0  0  0  0  0  0
   20.1330   18.6822   20.8578 O   0  0  0  0  0  0  0  0  0  0  0  0
   17.9030   17.8876   20.9635 C   0  0  0  0  0  0  0  0  0  0  0  0
   17.8312   17.7276   22.3604 C   0  0  0  0  0  0  0  0  0  0  0  0
   16.6396   17.2513   22.9460 C   0  0  0  0  0  0  0  0  0  0  0  0
   16.5552   17.0884   24.2882 N   0  0  0  0  0  0  0  0  0  0  0  0
   17.1809   18.0590   16.3909 H   0  0  0  0  0  0  0  0  0  0  0  0
   18.7911   18.6165   16.4566 H   0  0  0  0  0  0  0  0  0  0  0  0
   19.8573   18.8191   18.4109 H   0  0  0  0  0  0  0  0  0  0  0  0
   15.7214   16.7556   24.6923 H   0  0  0  0  0  0  0  0  0  0  0  0
   17.3278   17.3029   24.8596 H   0  0  0  0  0  0  0  0  0  0  0  0
   14.4056   16.7928   19.7733 C   0  0  0  0  0  0  0  0  0  0  0  0
   14.0227   15.0049   19.5413 S   0  0  0  0  0  0  0  0  0  0  0  0
   13.3986   15.1443   17.8688 C   0  0  0  0  0  0  0  0  0  0  0  0
   14.0948   15.6965   16.8585 N   0  0  0  0  0  0  0  0  0  0  0  0
   12.2844   14.7804   17.4046 N   0  0  0  0  0  0  0  0  0  0  0  0
   13.3180   15.6267   15.7769 C   0  0  0  0  0  0  0  0  0  0  0  0
   12.1322   15.0570   16.0135 C   0  0  0  0  0  0  0  0  0  0  0  0
   11.5875   14.3477   17.9490 H   0  0  0  0  0  0  0  0  0  0  0  0
  1  2  2  0  0  0
  1 12  1  0  0  0
  2 19  1  0  0  0
  2  3  1  0  0  0
 19 20  1  0  0  0
  3  4  1  0  0  0
  3 10  2  0  0  0
  4  5  2  0  0  0
  5  6  1  0  0  0
  5  7  1  0  0  0
  7  8  1  0  0  0
  8  9  2  0  0  0
  8 10  1  0  0  0
 10 11  1  0  0  0
 11 12  2  0  0  0
 12 13  1  0  0  0
 20 21  1  0  0  0
 21 22  2  0  0  0
 21 23  1  0  0  0
 22 24  1  0  0  0
 23 25  1  0  0  0
 24 25  2  0  0  0
  6 14  1  0  0  0
  6 15  1  0  0  0
  7 16  1  0  0  0
 13 17  1  0  0  0
 13 18  1  0  0  0
 23 26  1  0  0  0
M  END
> <minimizedAffinity>
-8.10205

$$$$
1K4G_AIQ_A_900


 26 28  0  0  0  0  0  0  0  0999 V2000
   17.3278   16.8337   19.1491 C   0  0  0  0  0  0  0  0  0  0  0  0
   16.3210   16.5572   20.0992 C   0  0  0  0  0  0  0  0  0  0  0  0
   16.5825   16.8498   21.4559 C   0  0  0  0  0  0  0  0  0  0  0  0
   15.6466   16.6122   22.4160 N   0  0  0  0  0  0  0  0  0  0  0  0
   15.8202   16.8534   23.6675 C   0  0  0  0  0  0  0  0  0  0  0  0
   14.8556   16.5903   24.5122 N   0  0  0  0  0  0  0  0  0  0  0  0
   16.9579   17.3685   24.1327 N   0  0  0  0  0  0  0  0  0  0  0  0
   17.9715   17.6652   23.3356 C   0  0  0  0  0  0  0  0  0  0  0  0
   19.0219   18.1387   23.7521 O   0  0  0  0  0  0  0  0  0  0  0  0
   17.8223   17.4021   21.8459 C   0  0  0  0  0  0  0  0  0  0  0  0
   18.8178   17.6705   20.8874 C   0  0  0  0  0  0  0  0  0  0  0  0
   18.5691   17.3884   19.5278 C   0  0  0  0  0  0  0  0  0  0  0  0
   19.5152   17.6441   18.5926 N   0  0  0  0  0  0  0  0  0  0  0  0
   14.0076   16.2095   24.1879 H   0  0  0  0  0  0  0  0  0  0  0  0
   14.9780   16.7732   25.4718 H   0  0  0  0  0  0  0  0  0  0  0  0
   17.0470   17.5333   25.0992 H   0  0  0  0  0  0  0  0  0  0  0  0
   19.3369   17.4455   17.6449 H   0  0  0  0  0  0  0  0  0  0  0  0
   20.3810   18.0285   18.8605 H   0  0  0  0  0  0  0  0  0  0  0  0
   14.9438   15.9462   19.7382 C   0  0  0  0  0  0  0  0  0  0  0  0
   13.7377   17.1037   18.9619 S   0  0  0  0  0  0  0  0  0  0  0  0
   12.7062   17.3254   20.4087 C   0  0  0  0  0  0  0  0  0  0  0  0
   11.5555   18.0226   20.4022 N   0  0  0  0  0  0  0  0  0  0  0  0
   12.8835   16.9007   21.5824 N   0  0  0  0  0  0  0  0  0  0  0  0
   11.0722   17.9729   21.6440 C   0  0  0  0  0  0  0  0  0  0  0  0
   11.8452   17.2784   22.4847 C   0  0  0  0  0  0  0  0  0  0  0  0
   13.6623   16.3613   21.8500 H   0  0  0  0  0  0  0  0  0  0  0  0
  1  2  2  0  0  0
  1 12  1  0  0  0
  2 19  1  0  0  0
  2  3  1  0  0  0
 19 20  1  0  0  0
  3  4  1  0  0  0
  3 10  2  0  0  0
  4  5  2  0  0  0
  5  6  1  0  0  0
  5  7  1  0  0  0
  7  8  1  0  0  0
  8  9  2  0  0  0
  8 10  1  0  0  0
 10 11  1  0  0  0
 11 12  2  0  0  0
 12 13  1  0  0  0
 20 21  1  0  0  0
 21 22  2  0  0  0
 21 23  1  0  0  0
 22 24  1  0  0  0
 23 25  1  0  0  0
 24 25  2  0  0  0
  6 14  1  0  0  0
  6 15  1  0  0  0
  7 16  1  0  0  0
 13 17  1  0  0  0
 13 18  1  0  0  0
 23 26  1  0  0  0
M  END
> <minimizedAffinity>
-7.89367

$$$$
1K4G_AIQ_A_900


 26 28  0  0  0  0  0  0  0  0999 V2000
   14.4813   17.0467   19.6913 C   0  0  0  0  0  0  0  0  0  0  0  0
   15.2745   17.3651   18.5679 C   0  0  0  0  0  0  0  0  0  0  0  0
   16.6744   17.4433   18.7374 C   0  0  0  0  0  0  0  0  0  0  0  0
   17.4909   17.7385   17.6885 N   0  0  0  0  0  0  0  0  0  0  0  0
   18.7713   17.8270   17.7741 C   0  0  0  0  0  0  0  0  0  0  0  0
   19.4682   18.1151   16.7042 N   0  0  0  0  0  0  0  0  0  0  0  0
   19.4140   17.6303   18.9249 N   0  0  0  0  0  0  0  0  0  0  0  0
   18.7741   17.3292   20.0432 C   0  0  0  0  0  0  0  0  0  0  0  0
   19.3544   17.1465   21.1068 O   0  0  0  0  0  0  0  0  0  0  0  0
   17.2592   17.2105   20.0015 C   0  0  0  0  0  0  0  0  0  0  0  0
   16.4553   16.8960   21.1135 C   0  0  0  0  0  0  0  0  0  0  0  0
   15.0560   16.8092   20.9584 C   0  0  0  0  0  0  0  0  0  0  0  0
   14.2685   16.5041   22.0176 N   0  0  0  0  0  0  0  0  0  0  0  0
   19.0118   18.2639   15.8447 H   0  0  0  0  0  0  0  0  0  0  0  0
   20.4488   18.1830   16.7591 H   0  0  0  0  0  0  0  0  0  0  0  0
   20.3949   17.7117   18.9436 H   0  0  0  0  0  0  0  0  0  0  0  0
   13.2923   16.4447   21.9043 H   0  0  0  0  0  0  0  0  0  0  0  0
   14.6723   16.3417   22.9006 H   0  0  0  0  0  0  0  0  0  0  0  0
   14.6952   17.6382   17.1571 C   0  0  0  0  0  0  0  0  0  0  0  0
   14.5151   16.1605   16.0704 S   0  0  0  0  0  0  0  0  0  0  0  0
   15.4650   16.8011   14.6943 C   0  0  0  0  0  0  0  0  0  0  0  0
   15.1974   16.5134   13.4075 N   0  0  0  0  0  0  0  0  0  0  0  0
   16.4690   17.5633   14.7095 N   0  0  0  0  0  0  0  0  0  0  0  0
   16.1052   17.1597   12.6751 C   0  0  0  0  0  0  0  0  0  0  0  0
   16.9716   17.8649   13.4090 C   0  0  0  0  0  0  0  0  0  0  0  0
   16.8672   17.9160   15.5379 H   0  0  0  0  0  0  0  0  0  0  0  0
  1  2  2  0  0  0
  1 12  1  0  0  0
  2 19  1  0  0  0
  2  3  1  0  0  0
 19 20  1  0  0  0
  3  4  1  0  0  0
  3 10  2  0  0  0
  4  5  2  0  0  0
  5  6  1  0  0  0
  5  7  1  0  0  0
  7  8  1  0  0  0
  8  9  2  0  0  0
  8 10  1  0  0  0
 10 11  1  0  0  0
 11 12  2  0  0  0
 12 13  1  0  0  0
 20 21  1  0  0  0
 21 22  2  0  0  0
 21 23  1  0  0  0
 22 24  1  0  0  0
 23 25  1  0  0  0
 24 25  2  0  0  0
  6 14  1  0  0  0
  6 15  1  0  0  0
  7 16  1  0  0  0
 13 17  1  0  0  0
 13 18  1  0  0  0
 23 26  1  0  0  0
M  END
> <minimizedAffinity>
-7.88359

$$$$
1K4G_AIQ_A_900


 26 28  0  0  0  0  0  0  0  0999 V2000
   13.9377   16.4169   21.6954 C   0  0  0  0  0  0  0  0  0  0  0  0
   15.0291   16.4445   20.8006 C   0  0  0  0  0  0  0  0  0  0  0  0
   16.2958   16.8180   21.3011 C   0  0  0  0  0  0  0  0  0  0  0  0
   17.3867   16.8550   20.4871 N   0  0  0  0  0  0  0  0  0  0  0  0
   18.5665   17.1874   20.8773 C   0  0  0  0  0  0  0  0  0  0  0  0
   19.5513   17.1897   20.0152 N   0  0  0  0  0  0  0  0  0  0  0  0
   18.8188   17.5287   22.1407 N   0  0  0  0  0  0  0  0  0  0  0  0
   17.8732   17.5416   23.0661 C   0  0  0  0  0  0  0  0  0  0  0  0
   18.0934   17.8538   24.2303 O   0  0  0  0  0  0  0  0  0  0  0  0
   16.4592   17.1567   22.6623 C   0  0  0  0  0  0  0  0  0  0  0  0
   15.3611   17.1267   23.5427 C   0  0  0  0  0  0  0  0  0  0  0  0
   14.0908   16.7505   23.0583 C   0  0  0  0  0  0  0  0  0  0  0  0
   13.0245   16.7131   23.8931 N   0  0  0  0  0  0  0  0  0  0  0  0
   19.3851   16.9406   19.0773 H   0  0  0  0  0  0  0  0  0  0  0  0
   20.4583   17.4406   20.3045 H   0  0  0  0  0  0  0  0  0  0  0  0
   19.7368   17.7790   22.3931 H   0  0  0  0  0  0  0  0  0  0  0  0
   12.1400   16.4500   23.5503 H   0  0  0  0  0  0  0  0  0  0  0  0
   13.1342   16.9491   24.8426 H   0  0  0  0  0  0  0  0  0  0  0  0
   14.9155   16.0914   19.2963 C   0  0  0  0  0  0  0  0  0  0  0  0
   13.7478   17.1309   18.3201 S   0  0  0  0  0  0  0  0  0  0  0  0
   14.9253   17.6461   17.0734 C   0  0  0  0  0  0  0  0  0  0  0  0
   16.1607   18.0968   17.3579 N   0  0  0  0  0  0  0  0  0  0  0  0
   14.7927   17.6743   15.8200 N   0  0  0  0  0  0  0  0  0  0  0  0
   16.7400   18.3842   16.1916 C   0  0  0  0  0  0  0  0  0  0  0  0
   15.9513   18.1511   15.1379 C   0  0  0  0  0  0  0  0  0  0  0  0
   13.9701   17.3945   15.3572 H   0  0  0  0  0  0  0  0  0  0  0  0
  1  2  2  0  0  0
  1 12  1  0  0  0
  2 19  1  0  0  0
  2  3  1  0  0  0
 19 20  1  0  0  0
  3  4  1  0  0  0
  3 10  2  0  0  0
  4  5  2  0  0  0
  5  6  1  0  0  0
  5  7  1  0  0  0
  7  8  1  0  0  0
  8  9  2  0  0  0
  8 10  1  0  0  0
 10 11  1  0  0  0
 11 12  2  0  0  0
 12 13  1  0  0  0
 20 21  1  0  0  0
 21 22  2  0  0  0
 21 23  1  0  0  0
 22 24  1  0  0  0
 23 25  1  0  0  0
 24 25  2  0  0  0
  6 14  1  0  0  0
  6 15  1  0  0  0
  7 16  1  0  0  0
 13 17  1  0  0  0
 13 18  1  0  0  0
 23 26  1  0  0  0
M  END
> <minimizedAffinity>
-7.75178

$$$$
1K4G_AIQ_A_900


 26 28  0  0  0  0  0  0  0  0999 V2000
   17.4923   18.0384   17.1651 C   0  0  0  0  0  0  0  0  0  0  0  0
   16.0901   17.9677   17.0183 C   0  0  0  0  0  0  0  0  0  0  0  0
   15.3203   17.5603   18.1301 C   0  0  0  0  0  0  0  0  0  0  0  0
   13.9633   17.4811   18.0505 N   0  0  0  0  0  0  0  0  0  0  0  0
   13.2041   17.1164   19.0226 C   0  0  0  0  0  0  0  0  0  0  0  0
   11.9080   17.0746   18.8446 N   0  0  0  0  0  0  0  0  0  0  0  0
   13.6995   16.7804   20.2134 N   0  0  0  0  0  0  0  0  0  0  0  0
   14.9981   16.8064   20.4657 C   0  0  0  0  0  0  0  0  0  0  0  0
   15.4648   16.4994   21.5562 O   0  0  0  0  0  0  0  0  0  0  0  0
   15.9437   17.2307   19.3536 C   0  0  0  0  0  0  0  0  0  0  0  0
   17.3434   17.3038   19.4847 C   0  0  0  0  0  0  0  0  0  0  0  0
   18.1250   17.7142   18.3845 C   0  0  0  0  0  0  0  0  0  0  0  0
   19.4728   17.7932   18.4951 N   0  0  0  0  0  0  0  0  0  0  0  0
   11.5228   17.3191   17.9722 H   0  0  0  0  0  0  0  0  0  0  0  0
   11.3184   16.7987   19.5832 H   0  0  0  0  0  0  0  0  0  0  0  0
   13.0802   16.5043   20.9272 H   0  0  0  0  0  0  0  0  0  0  0  0
   20.0140   18.0801   17.7244 H   0  0  0  0  0  0  0  0  0  0  0  0
   19.9112   17.5637   19.3462 H   0  0  0  0  0  0  0  0  0  0  0  0
   15.3460   18.3087   15.7028 C   0  0  0  0  0  0  0  0  0  0  0  0
   15.2718   16.9538   14.4555 S   0  0  0  0  0  0  0  0  0  0  0  0
   13.7248   16.2458   15.0139 C   0  0  0  0  0  0  0  0  0  0  0  0
   12.5345   16.8582   14.8783 N   0  0  0  0  0  0  0  0  0  0  0  0
   13.5184   15.1430   15.5887 N   0  0  0  0  0  0  0  0  0  0  0  0
   11.6225   16.0407   15.4057 C   0  0  0  0  0  0  0  0  0  0  0  0
   12.1441   14.9101   15.8919 C   0  0  0  0  0  0  0  0  0  0  0  0
   14.2356   14.5049   15.8071 H   0  0  0  0  0  0  0  0  0  0  0  0
  1  2  2  0  0  0
  1 12  1  0  0  0
  2 19  1  0  0  0
  2  3  1  0  0  0
 19 20  1  0  0  0
  3  4  1  0  0  0
  3 10  2  0  0  0
  4  5  2  0  0  0
  5  6  1  0  0  0
  5  7  1  0  0  0
  7  8  1  0  0  0
  8  9  2  0  0  0
  8 10  1  0  0  0
 10 11  1  0  0  0
 11 12  2  0  0  0
 12 13  1  0  0  0
 20 21  1  0  0  0
 21 22  2  0  0  0
 21 23  1  0  0  0
 22 24  1  0  0  0
 23 25  1  0  0  0
 24 25  2  0  0  0
  6 14  1  0  0  0
  6 15  1  0  0  0
  7 16  1  0  0  0
 13 17  1  0  0  0
 13 18  1  0  0  0
 23 26  1  0  0  0
M  END
> <minimizedAffinity>
-7.56244

$$$$
1K4G_AIQ_A_900


 26 28  0  0  0  0  0  0  0  0999 V2000
   16.0329   16.8867   21.2250 C   0  0  0  0  0  0  0  0  0  0  0  0
   15.3694   16.9641   19.9815 C   0  0  0  0  0  0  0  0  0  0  0  0
   16.0596   17.5334   18.8887 C   0  0  0  0  0  0  0  0  0  0  0  0
   15.4738   17.6274   17.6632 N   0  0  0  0  0  0  0  0  0  0  0  0
   16.0444   18.1353   16.6283 C   0  0  0  0  0  0  0  0  0  0  0  0
   15.3950   18.1778   15.4927 N   0  0  0  0  0  0  0  0  0  0  0  0
   17.2850   18.6199   16.6767 N   0  0  0  0  0  0  0  0  0  0  0  0
   18.0020   18.6031   17.7886 C   0  0  0  0  0  0  0  0  0  0  0  0
   19.1430   19.0459   17.8448 O   0  0  0  0  0  0  0  0  0  0  0  0
   17.3786   18.0136   19.0434 C   0  0  0  0  0  0  0  0  0  0  0  0
   18.0270   17.9317   20.2903 C   0  0  0  0  0  0  0  0  0  0  0  0
   17.3521   17.3609   21.3896 C   0  0  0  0  0  0  0  0  0  0  0  0
   17.9631   17.2713   22.5953 N   0  0  0  0  0  0  0  0  0  0  0  0
   14.4776   17.8249   15.4367 H   0  0  0  0  0  0  0  0  0  0  0  0
   15.8238   18.5627   14.6945 H   0  0  0  0  0  0  0  0  0  0  0  0
   17.6801   19.0022   15.8600 H   0  0  0  0  0  0  0  0  0  0  0  0
   17.4879   16.8721   23.3596 H   0  0  0  0  0  0  0  0  0  0  0  0
   18.8823   17.6055   22.7074 H   0  0  0  0  0  0  0  0  0  0  0  0
   13.9223   16.4625   19.7474 C   0  0  0  0  0  0  0  0  0  0  0  0
   13.7642   14.7013   19.2275 S   0  0  0  0  0  0  0  0  0  0  0  0
   12.9771   15.0227   17.6516 C   0  0  0  0  0  0  0  0  0  0  0  0
   12.5295   16.2350   17.2771 N   0  0  0  0  0  0  0  0  0  0  0  0
   12.7273   14.2212   16.7112 N   0  0  0  0  0  0  0  0  0  0  0  0
   12.0083   16.0896   16.0583 C   0  0  0  0  0  0  0  0  0  0  0  0
   12.0816   14.8368   15.5980 C   0  0  0  0  0  0  0  0  0  0  0  0
   12.9556   13.2640   16.7419 H   0  0  0  0  0  0  0  0  0  0  0  0
  1  2  2  0  0  0
  1 12  1  0  0  0
  2 19  1  0  0  0
  2  3  1  0  0  0
 19 20  1  0  0  0
  3  4  1  0  0  0
  3 10  2  0  0  0
  4  5  2  0  0  0
  5  6  1  0  0  0
  5  7  1  0  0  0
  7  8  1  0  0  0
  8  9  2  0  0  0
  8 10  1  0  0  0
 10 11  1  0  0  0
 11 12  2  0  0  0
 12 13  1  0  0  0
 20 21  1  0  0  0
 21 22  2  0  0  0
 21 23  1  0  0  0
 22 24  1  0  0  0
 23 25  1  0  0  0
 24 25  2  0  0  0
  6 14  1  0  0  0
  6 15  1  0  0  0
  7 16  1  0  0  0
 13 17  1  0  0  0
 13 18  1  0  0  0
 23 26  1  0  0  0
M  END
> <minimizedAffinity>
-7.50329

$$$$
1K4G_AIQ_A_900


 26 28  0  0  0  0  0  0  0  0999 V2000
   17.0877   17.9411   16.9722 C   0  0  0  0  0  0  0  0  0  0  0  0
   16.8298   17.4521   18.2711 C   0  0  0  0  0  0  0  0  0  0  0  0
   15.4859   17.2519   18.6563 C   0  0  0  0  0  0  0  0  0  0  0  0
   15.1762   16.7747   19.8934 N   0  0  0  0  0  0  0  0  0  0  0  0
   13.9756   16.5714   20.3080 C   0  0  0  0  0  0  0  0  0  0  0  0
   13.7834   16.1077   21.5168 N   0  0  0  0  0  0  0  0  0  0  0  0
   12.9154   16.8174   19.5389 N   0  0  0  0  0  0  0  0  0  0  0  0
   13.0358   17.2800   18.3052 C   0  0  0  0  0  0  0  0  0  0  0  0
   12.0684   17.5100   17.5892 O   0  0  0  0  0  0  0  0  0  0  0  0
   14.4316   17.5383   17.7615 C   0  0  0  0  0  0  0  0  0  0  0  0
   14.7040   18.0277   16.4699 C   0  0  0  0  0  0  0  0  0  0  0  0
   16.0416   18.2276   16.0691 C   0  0  0  0  0  0  0  0  0  0  0  0
   16.3209   18.6945   14.8285 N   0  0  0  0  0  0  0  0  0  0  0  0
   14.5539   15.9197   22.1002 H   0  0  0  0  0  0  0  0  0  0  0  0
   12.8685   15.9468   21.8426 H   0  0  0  0  0  0  0  0  0  0  0  0
   12.0149   16.6496   19.8998 H   0  0  0  0  0  0  0  0  0  0  0  0
   17.2560   18.8324   14.5534 H   0  0  0  0  0  0  0  0  0  0  0  0
   15.5887   18.8959   14.2019 H   0  0  0  0  0  0  0  0  0  0  0  0
   17.9394   17.1252   19.3018 C   0  0  0  0  0  0  0  0  0  0  0  0
   18.5684   18.5576   20.2762 S   0  0  0  0  0  0  0  0  0  0  0  0
   17.9444   18.0150   21.8644 C   0  0  0  0  0  0  0  0  0  0  0  0
   18.7343   17.6038   22.8730 N   0  0  0  0  0  0  0  0  0  0  0  0
   16.7509   17.9301   22.2612 N   0  0  0  0  0  0  0  0  0  0  0  0
   17.9260   17.2792   23.8827 C   0  0  0  0  0  0  0  0  0  0  0  0
   16.6310   17.4496   23.5990 C   0  0  0  0  0  0  0  0  0  0  0  0
   15.9772   18.1718   21.7025 H   0  0  0  0  0  0  0  0  0  0  0  0
  1  2  2  0  0  0
  1 12  1  0  0  0
  2 19  1  0  0  0
  2  3  1  0  0  0
 19 20  1  0  0  0
  3  4  1  0  0  0
  3 10  2  0  0  0
  4  5  2  0  0  0
  5  6  1  0  0  0
  5  7  1  0  0  0
  7  8  1  0  0  0
  8  9  2  0  0  0
  8 10  1  0  0  0
 10 11  1  0  0  0
 11 12  2  0  0  0
 12 13  1  0  0  0
 20 21  1  0  0  0
 21 22  2  0  0  0
 21 23  1  0  0  0
 22 24  1  0  0  0
 23 25  1  0  0  0
 24 25  2  0  0  0
  6 14  1  0  0  0
  6 15  1  0  0  0
  7 16  1  0  0  0
 13 17  1  0  0  0
 13 18  1  0  0  0
 23 26  1  0  0  0
M  END
> <minimizedAffinity>
-7.49162

$$$$
1K4G_AIQ_A_900


 26 28  0  0  0  0  0  0  0  0999 V2000
   18.1815   18.2780   18.9009 C   0  0  0  0  0  0  0  0  0  0  0  0
   17.3234   17.3590   19.5426 C   0  0  0  0  0  0  0  0  0  0  0  0
   16.1710   16.9243   18.8515 C   0  0  0  0  0  0  0  0  0  0  0  0
   15.3108   16.0327   19.4165 N   0  0  0  0  0  0  0  0  0  0  0  0
   14.2443   15.5976   18.8439 C   0  0  0  0  0  0  0  0  0  0  0  0
   13.4827   14.7385   19.4723 N   0  0  0  0  0  0  0  0  0  0  0  0
   13.8906   15.9952   17.6220 N   0  0  0  0  0  0  0  0  0  0  0  0
   14.6164   16.8555   16.9265 C   0  0  0  0  0  0  0  0  0  0  0  0
   14.3009   17.2282   15.8027 O   0  0  0  0  0  0  0  0  0  0  0  0
   15.8886   17.4027   17.5532 C   0  0  0  0  0  0  0  0  0  0  0  0
   16.7526   18.3207   16.9265 C   0  0  0  0  0  0  0  0  0  0  0  0
   17.9102   18.7599   17.6024 C   0  0  0  0  0  0  0  0  0  0  0  0
   18.7536   19.6404   17.0121 N   0  0  0  0  0  0  0  0  0  0  0  0
   13.7271   14.4327   20.3757 H   0  0  0  0  0  0  0  0  0  0  0  0
   12.6655   14.3980   19.0417 H   0  0  0  0  0  0  0  0  0  0  0  0
   13.0638   15.6377   17.2247 H   0  0  0  0  0  0  0  0  0  0  0  0
   19.5603   19.9440   17.4878 H   0  0  0  0  0  0  0  0  0  0  0  0
   18.5600   19.9767   16.1073 H   0  0  0  0  0  0  0  0  0  0  0  0
   17.5722   16.8017   20.9666 C   0  0  0  0  0  0  0  0  0  0  0  0
   17.2323   17.9710   22.3502 S   0  0  0  0  0  0  0  0  0  0  0  0
   15.7323   17.1792   22.9240 C   0  0  0  0  0  0  0  0  0  0  0  0
   15.5345   16.7946   24.1980 N   0  0  0  0  0  0  0  0  0  0  0  0
   14.6985   16.8705   22.2719 N   0  0  0  0  0  0  0  0  0  0  0  0
   14.3194   16.2475   24.2472 C   0  0  0  0  0  0  0  0  0  0  0  0
   13.6933   16.2434   23.0663 C   0  0  0  0  0  0  0  0  0  0  0  0
   14.5950   17.0452   21.3085 H   0  0  0  0  0  0  0  0  0  0  0  0
  1  2  2  0  0  0
  1 12  1  0  0  0
  2 19  1  0  0  0
  2  3  1  0  0  0
 19 20  1  0  0  0
  3  4  1  0  0  0
  3 10  2  0  0  0
  4  5  2  0  0  0
  5  6  1  0  0  0
  5  7  1  0  0  0
  7  8  1  0  0  0
  8  9  2  0  0  0
  8 10  1  0  0  0
 10 11  1  0  0  0
 11 12  2  0  0  0
 12 13  1  0  0  0
 20 21  1  0  0  0
 21 22  2  0  0  0
 21 23  1  0  0  0
 22 24  1  0  0  0
 23 25  1  0  0  0
 24 25  2  0  0  0
  6 14  1  0  0  0
  6 15  1  0  0  0
  7 16  1  0  0  0
 13 17  1  0  0  0
 13 18  1  0  0  0
 23 26  1  0  0  0
M  END
> <minimizedAffinity>
-7.45504

$$$$
