1BNW_TPD_A_555


 22 23  0  0  0  0  0  0  0  0999 V2000
   -5.7661    2.3635   16.3587 C   0  0  0  0  0  0  0  0  0  0  0  0
   -6.4318    3.4278   15.8331 C   0  0  0  0  0  0  0  0  0  0  0  0
   -5.6361    4.1453   14.9785 C   0  0  0  0  0  0  0  0  0  0  0  0
   -4.3661    3.6309   14.8545 C   0  0  0  0  0  0  0  0  0  0  0  0
   -4.1454    2.2408   15.8059 S   0  0  0  0  0  0  0  0  0  0  0  0
   -6.3856    1.7613   18.7571 O   0  0  0  0  0  0  0  0  0  0  0  0
   -7.8001    1.0790   17.0458 O   0  0  0  0  0  0  0  0  0  0  0  0
   -5.6546   -0.0569   17.3257 N   0  0  0  0  0  0  0  0  0  0  0  0
   -6.4364    1.2049   17.4412 S   0  0  0  0  0  0  0  0  0  0  0  0
   -4.6937    0.1100   17.6244 H   0  0  0  0  0  0  0  0  0  0  0  0
   -5.6592   -0.3722   16.3557 H   0  0  0  0  0  0  0  0  0  0  0  0
   -3.0572    4.2356   13.8879 S   0  0  0  0  0  0  0  0  0  0  0  0
   -3.4520    5.5254   13.4038 O   0  0  0  0  0  0  0  0  0  0  0  0
   -1.8990    4.3608   14.7279 O   0  0  0  0  0  0  0  0  0  0  0  0
   -2.7574    3.2515   12.8032 N   0  0  0  0  0  0  0  0  0  0  0  0
   -1.9680    3.6148   12.2690 H   0  0  0  0  0  0  0  0  0  0  0  0
   -3.8285    2.9543   11.8568 C   0  0  0  0  0  0  0  0  0  0  0  0
   -3.7148    1.5147   11.7444 C   0  0  0  0  0  0  0  0  0  0  0  0
   -4.6574    0.6349   12.2403 C   0  0  0  0  0  0  0  0  0  0  0  0
   -4.3363   -0.6687   11.9361 C   0  0  0  0  0  0  0  0  0  0  0  0
   -3.1585   -0.8122   11.2215 C   0  0  0  0  0  0  0  0  0  0  0  0
   -2.4142    0.7253   10.9103 S   0  0  0  0  0  0  0  0  0  0  0  0
  1  9  1  0  0  0
  1  2  2  0  0  0
  1  5  1  0  0  0
 17 18  1  0  0  0
 17 15  1  0  0  0
 18 19  2  0  0  0
 18 22  1  0  0  0
 19 20  1  0  0  0
 20 21  2  0  0  0
 21 22  1  0  0  0
  6  9  2  0  0  0
  7  9  2  0  0  0
  8  9  1  0  0  0
  2  3  1  0  0  0
  3  4  2  0  0  0
  4  5  1  0  0  0
  4 12  1  0  0  0
 12 13  2  0  0  0
 12 14  2  0  0  0
 12 15  1  0  0  0
  8 10  1  0  0  0
  8 11  1  0  0  0
 15 16  1  0  0  0
M  END
> <minimizedAffinity>
-7.48737

$$$$
1BNW_TPD_A_555


 22 23  0  0  0  0  0  0  0  0999 V2000
   -5.5655    2.1068   16.3650 C   0  0  0  0  0  0  0  0  0  0  0  0
   -4.2597    1.9197   16.0305 C   0  0  0  0  0  0  0  0  0  0  0  0
   -3.8397    2.8449   15.1107 C   0  0  0  0  0  0  0  0  0  0  0  0
   -4.8234    3.7338   14.7431 C   0  0  0  0  0  0  0  0  0  0  0  0
   -6.2912    3.4267   15.5414 S   0  0  0  0  0  0  0  0  0  0  0  0
   -6.4174    1.8803   18.7571 O   0  0  0  0  0  0  0  0  0  0  0  0
   -7.7811    1.1500   17.0245 O   0  0  0  0  0  0  0  0  0  0  0  0
   -5.8113   -0.1716   17.6119 N   0  0  0  0  0  0  0  0  0  0  0  0
   -6.4429    1.1732   17.5148 S   0  0  0  0  0  0  0  0  0  0  0  0
   -4.8604   -0.0756   17.9682 H   0  0  0  0  0  0  0  0  0  0  0  0
   -5.7863   -0.6030   16.6880 H   0  0  0  0  0  0  0  0  0  0  0  0
   -4.7112    5.0445   13.6105 S   0  0  0  0  0  0  0  0  0  0  0  0
   -6.0360    5.2966   13.1255 O   0  0  0  0  0  0  0  0  0  0  0  0
   -4.2163    6.1989   14.3070 O   0  0  0  0  0  0  0  0  0  0  0  0
   -3.7368    4.6791   12.5373 N   0  0  0  0  0  0  0  0  0  0  0  0
   -3.2052    5.5185   12.3069 H   0  0  0  0  0  0  0  0  0  0  0  0
   -4.2834    4.1496   11.2915 C   0  0  0  0  0  0  0  0  0  0  0  0
   -3.7428    2.8059   11.2942 C   0  0  0  0  0  0  0  0  0  0  0  0
   -2.3919    2.5278   11.2139 C   0  0  0  0  0  0  0  0  0  0  0  0
   -2.1515    1.1756   11.3071 C   0  0  0  0  0  0  0  0  0  0  0  0
   -3.2927    0.4037   11.4496 C   0  0  0  0  0  0  0  0  0  0  0  0
   -4.7242    1.3859   11.4702 S   0  0  0  0  0  0  0  0  0  0  0  0
  1  9  1  0  0  0
  1  2  2  0  0  0
  1  5  1  0  0  0
 17 18  1  0  0  0
 17 15  1  0  0  0
 18 19  2  0  0  0
 18 22  1  0  0  0
 19 20  1  0  0  0
 20 21  2  0  0  0
 21 22  1  0  0  0
  6  9  2  0  0  0
  7  9  2  0  0  0
  8  9  1  0  0  0
  2  3  1  0  0  0
  3  4  2  0  0  0
  4  5  1  0  0  0
  4 12  1  0  0  0
 12 13  2  0  0  0
 12 14  2  0  0  0
 12 15  1  0  0  0
  8 10  1  0  0  0
  8 11  1  0  0  0
 15 16  1  0  0  0
M  END
> <minimizedAffinity>
-7.06055

$$$$
1BNW_TPD_A_555


 22 23  0  0  0  0  0  0  0  0999 V2000
   -5.9618    2.4532   16.0882 C   0  0  0  0  0  0  0  0  0  0  0  0
   -6.6869    3.6048   16.0814 C   0  0  0  0  0  0  0  0  0  0  0  0
   -6.2630    4.4590   15.0970 C   0  0  0  0  0  0  0  0  0  0  0  0
   -5.2158    3.9610   14.3566 C   0  0  0  0  0  0  0  0  0  0  0  0
   -4.7428    2.4155   14.8800 S   0  0  0  0  0  0  0  0  0  0  0  0
   -5.5644   -0.0164   16.5807 O   0  0  0  0  0  0  0  0  0  0  0  0
   -5.5490    1.4810   18.3562 O   0  0  0  0  0  0  0  0  0  0  0  0
   -7.6831    0.9178   17.3071 N   0  0  0  0  0  0  0  0  0  0  0  0
   -6.2167    1.1217   17.1492 S   0  0  0  0  0  0  0  0  0  0  0  0
   -8.0900    0.6645   16.4067 H   0  0  0  0  0  0  0  0  0  0  0  0
   -8.1119    1.7799   17.6436 H   0  0  0  0  0  0  0  0  0  0  0  0
   -4.3862    4.7189   13.0334 S   0  0  0  0  0  0  0  0  0  0  0  0
   -4.8882    6.0573   12.9328 O   0  0  0  0  0  0  0  0  0  0  0  0
   -2.9828    4.7434   13.3381 O   0  0  0  0  0  0  0  0  0  0  0  0
   -4.5932    3.9038   11.7975 N   0  0  0  0  0  0  0  0  0  0  0  0
   -5.1375    3.0820   12.0595 H   0  0  0  0  0  0  0  0  0  0  0  0
   -3.3999    3.4357   11.0990 C   0  0  0  0  0  0  0  0  0  0  0  0
   -3.5679    1.9995   11.1839 C   0  0  0  0  0  0  0  0  0  0  0  0
   -4.8008    1.3777   11.2251 C   0  0  0  0  0  0  0  0  0  0  0  0
   -4.6717    0.0072   11.2345 C   0  0  0  0  0  0  0  0  0  0  0  0
   -3.3612   -0.4405   11.2096 C   0  0  0  0  0  0  0  0  0  0  0  0
   -2.2391    0.8839   11.1726 S   0  0  0  0  0  0  0  0  0  0  0  0
  1  9  1  0  0  0
  1  2  2  0  0  0
  1  5  1  0  0  0
 17 18  1  0  0  0
 17 15  1  0  0  0
 18 19  2  0  0  0
 18 22  1  0  0  0
 19 20  1  0  0  0
 20 21  2  0  0  0
 21 22  1  0  0  0
  6  9  2  0  0  0
  7  9  2  0  0  0
  8  9  1  0  0  0
  2  3  1  0  0  0
  3  4  2  0  0  0
  4  5  1  0  0  0
  4 12  1  0  0  0
 12 13  2  0  0  0
 12 14  2  0  0  0
 12 15  1  0  0  0
  8 10  1  0  0  0
  8 11  1  0  0  0
 15 16  1  0  0  0
M  END
> <minimizedAffinity>
-6.87478

$$$$
1BNW_TPD_A_555


 22 23  0  0  0  0  0  0  0  0999 V2000
   -4.4232    1.6903   14.1985 C   0  0  0  0  0  0  0  0  0  0  0  0
   -4.3995    0.8547   13.1246 C   0  0  0  0  0  0  0  0  0  0  0  0
   -4.1862    1.5422   11.9583 C   0  0  0  0  0  0  0  0  0  0  0  0
   -4.0502    2.8989   12.1422 C   0  0  0  0  0  0  0  0  0  0  0  0
   -4.1875    3.3378   13.7776 S   0  0  0  0  0  0  0  0  0  0  0  0
   -4.9315   -0.1953   15.8373 O   0  0  0  0  0  0  0  0  0  0  0  0
   -3.3510    1.3965   16.4397 O   0  0  0  0  0  0  0  0  0  0  0  0
   -5.7136    2.0210   16.4416 N   0  0  0  0  0  0  0  0  0  0  0  0
   -4.6276    1.2017   15.8365 S   0  0  0  0  0  0  0  0  0  0  0  0
   -6.5924    1.8292   15.9608 H   0  0  0  0  0  0  0  0  0  0  0  0
   -5.4845    3.0107   16.3493 H   0  0  0  0  0  0  0  0  0  0  0  0
   -3.7779    4.1190   10.9379 S   0  0  0  0  0  0  0  0  0  0  0  0
   -2.8678    5.0717   11.5017 O   0  0  0  0  0  0  0  0  0  0  0  0
   -3.1831    3.4927    9.7904 O   0  0  0  0  0  0  0  0  0  0  0  0
   -5.0917    4.7074   10.5345 N   0  0  0  0  0  0  0  0  0  0  0  0
   -5.6424    3.9633   10.1061 H   0  0  0  0  0  0  0  0  0  0  0  0
   -5.0623    5.8268    9.5979 C   0  0  0  0  0  0  0  0  0  0  0  0
   -5.9847    6.7479   10.2294 C   0  0  0  0  0  0  0  0  0  0  0  0
   -6.9591    7.4432    9.5398 C   0  0  0  0  0  0  0  0  0  0  0  0
   -7.7386    8.1927   10.3916 C   0  0  0  0  0  0  0  0  0  0  0  0
   -7.3787    8.0954   11.7255 C   0  0  0  0  0  0  0  0  0  0  0  0
   -6.0214    7.0341   11.9403 S   0  0  0  0  0  0  0  0  0  0  0  0
  1  9  1  0  0  0
  1  2  2  0  0  0
  1  5  1  0  0  0
 17 18  1  0  0  0
 17 15  1  0  0  0
 18 19  2  0  0  0
 18 22  1  0  0  0
 19 20  1  0  0  0
 20 21  2  0  0  0
 21 22  1  0  0  0
  6  9  2  0  0  0
  7  9  2  0  0  0
  8  9  1  0  0  0
  2  3  1  0  0  0
  3  4  2  0  0  0
  4  5  1  0  0  0
  4 12  1  0  0  0
 12 13  2  0  0  0
 12 14  2  0  0  0
 12 15  1  0  0  0
  8 10  1  0  0  0
  8 11  1  0  0  0
 15 16  1  0  0  0
M  END
> <minimizedAffinity>
-6.62482

$$$$
1BNW_TPD_A_555


 22 23  0  0  0  0  0  0  0  0999 V2000
   -5.2438    2.4002   15.5418 C   0  0  0  0  0  0  0  0  0  0  0  0
   -6.3160    3.1227   15.9664 C   0  0  0  0  0  0  0  0  0  0  0  0
   -6.4804    4.2617   15.2220 C   0  0  0  0  0  0  0  0  0  0  0  0
   -5.5344    4.4085   14.2339 C   0  0  0  0  0  0  0  0  0  0  0  0
   -4.4224    3.1243   14.2196 S   0  0  0  0  0  0  0  0  0  0  0  0
   -4.8549   -0.0913   15.1669 O   0  0  0  0  0  0  0  0  0  0  0  0
   -3.3560    1.0719   16.5067 O   0  0  0  0  0  0  0  0  0  0  0  0
   -5.5847    0.5819   17.3812 N   0  0  0  0  0  0  0  0  0  0  0  0
   -4.7358    0.8919   16.1980 S   0  0  0  0  0  0  0  0  0  0  0  0
   -6.5536    0.4672   17.0839 H   0  0  0  0  0  0  0  0  0  0  0  0
   -5.5236    1.3467   18.0533 H   0  0  0  0  0  0  0  0  0  0  0  0
   -5.3797    5.7009   13.0854 S   0  0  0  0  0  0  0  0  0  0  0  0
   -6.6788    6.2863   12.9325 O   0  0  0  0  0  0  0  0  0  0  0  0
   -4.4652    6.6704   13.6207 O   0  0  0  0  0  0  0  0  0  0  0  0
   -4.8109    5.1577   11.8141 N   0  0  0  0  0  0  0  0  0  0  0  0
   -4.5912    4.1742   11.9719 H   0  0  0  0  0  0  0  0  0  0  0  0
   -3.6069    5.7987   11.2940 C   0  0  0  0  0  0  0  0  0  0  0  0
   -2.6574    4.7065   11.3529 C   0  0  0  0  0  0  0  0  0  0  0  0
   -2.8211    3.5168   10.6699 C   0  0  0  0  0  0  0  0  0  0  0  0
   -1.7400    2.6834   10.8473 C   0  0  0  0  0  0  0  0  0  0  0  0
   -0.7480    3.2044   11.6616 C   0  0  0  0  0  0  0  0  0  0  0  0
   -1.1647    4.7900   12.2333 S   0  0  0  0  0  0  0  0  0  0  0  0
  1  9  1  0  0  0
  1  2  2  0  0  0
  1  5  1  0  0  0
 17 18  1  0  0  0
 17 15  1  0  0  0
 18 19  2  0  0  0
 18 22  1  0  0  0
 19 20  1  0  0  0
 20 21  2  0  0  0
 21 22  1  0  0  0
  6  9  2  0  0  0
  7  9  2  0  0  0
  8  9  1  0  0  0
  2  3  1  0  0  0
  3  4  2  0  0  0
  4  5  1  0  0  0
  4 12  1  0  0  0
 12 13  2  0  0  0
 12 14  2  0  0  0
 12 15  1  0  0  0
  8 10  1  0  0  0
  8 11  1  0  0  0
 15 16  1  0  0  0
M  END
> <minimizedAffinity>
-6.59879

$$$$
1BNW_TPD_A_555


 22 23  0  0  0  0  0  0  0  0999 V2000
   -5.9149    2.3543   16.1878 C   0  0  0  0  0  0  0  0  0  0  0  0
   -6.6440    3.4938   16.0395 C   0  0  0  0  0  0  0  0  0  0  0  0
   -6.1419    4.2842   15.0387 C   0  0  0  0  0  0  0  0  0  0  0  0
   -5.0315    3.7499   14.4270 C   0  0  0  0  0  0  0  0  0  0  0  0
   -4.5957    2.2495   15.0941 S   0  0  0  0  0  0  0  0  0  0  0  0
   -5.8744    1.5603   18.6100 O   0  0  0  0  0  0  0  0  0  0  0  0
   -7.6683    0.9372   17.2725 O   0  0  0  0  0  0  0  0  0  0  0  0
   -5.4968   -0.1203   16.9005 N   0  0  0  0  0  0  0  0  0  0  0  0
   -6.2522    1.0950   17.3120 S   0  0  0  0  0  0  0  0  0  0  0  0
   -4.4957    0.0675   16.9538 H   0  0  0  0  0  0  0  0  0  0  0  0
   -5.7459   -0.3673   15.9427 H   0  0  0  0  0  0  0  0  0  0  0  0
   -4.0953    4.4261   13.1310 S   0  0  0  0  0  0  0  0  0  0  0  0
   -3.3306    5.5054   13.6824 O   0  0  0  0  0  0  0  0  0  0  0  0
   -3.2152    3.4063   12.6329 O   0  0  0  0  0  0  0  0  0  0  0  0
   -5.0168    4.8424   12.0299 N   0  0  0  0  0  0  0  0  0  0  0  0
   -5.2077    4.0174   11.4613 H   0  0  0  0  0  0  0  0  0  0  0  0
   -4.5517    5.8960   11.1327 C   0  0  0  0  0  0  0  0  0  0  0  0
   -5.7445    6.7083   11.0085 C   0  0  0  0  0  0  0  0  0  0  0  0
   -6.3644    7.3208   12.0805 C   0  0  0  0  0  0  0  0  0  0  0  0
   -7.4334    8.0857   11.6720 C   0  0  0  0  0  0  0  0  0  0  0  0
   -7.6555    8.0685   10.3049 C   0  0  0  0  0  0  0  0  0  0  0  0
   -6.4970    7.0670    9.4868 S   0  0  0  0  0  0  0  0  0  0  0  0
  1  9  1  0  0  0
  1  2  2  0  0  0
  1  5  1  0  0  0
 17 18  1  0  0  0
 17 15  1  0  0  0
 18 19  2  0  0  0
 18 22  1  0  0  0
 19 20  1  0  0  0
 20 21  2  0  0  0
 21 22  1  0  0  0
  6  9  2  0  0  0
  7  9  2  0  0  0
  8  9  1  0  0  0
  2  3  1  0  0  0
  3  4  2  0  0  0
  4  5  1  0  0  0
  4 12  1  0  0  0
 12 13  2  0  0  0
 12 14  2  0  0  0
 12 15  1  0  0  0
  8 10  1  0  0  0
  8 11  1  0  0  0
 15 16  1  0  0  0
M  END
> <minimizedAffinity>
-6.51192

$$$$
1BNW_TPD_A_555


 22 23  0  0  0  0  0  0  0  0999 V2000
   -5.1448    2.5964   15.4330 C   0  0  0  0  0  0  0  0  0  0  0  0
   -6.3274    3.2395   15.6326 C   0  0  0  0  0  0  0  0  0  0  0  0
   -6.4633    4.3129   14.7912 C   0  0  0  0  0  0  0  0  0  0  0  0
   -5.3860    4.4891   13.9539 C   0  0  0  0  0  0  0  0  0  0  0  0
   -4.1839    3.3153   14.2054 S   0  0  0  0  0  0  0  0  0  0  0  0
   -3.2316    1.3305   16.5449 O   0  0  0  0  0  0  0  0  0  0  0  0
   -5.3455    1.1985   17.4981 O   0  0  0  0  0  0  0  0  0  0  0  0
   -4.9148   -0.0022   15.4137 N   0  0  0  0  0  0  0  0  0  0  0  0
   -4.6263    1.1828   16.2676 S   0  0  0  0  0  0  0  0  0  0  0  0
   -4.3669    0.0557   14.5553 H   0  0  0  0  0  0  0  0  0  0  0  0
   -5.9080   -0.0209   15.1825 H   0  0  0  0  0  0  0  0  0  0  0  0
   -5.1558    5.7210   12.7527 S   0  0  0  0  0  0  0  0  0  0  0  0
   -4.9234    5.0548   11.5053 O   0  0  0  0  0  0  0  0  0  0  0  0
   -6.3583    6.5024   12.6745 O   0  0  0  0  0  0  0  0  0  0  0  0
   -4.0331    6.6120   13.1775 N   0  0  0  0  0  0  0  0  0  0  0  0
   -3.1632    6.1777   12.8691 H   0  0  0  0  0  0  0  0  0  0  0  0
   -3.9038    6.8884   14.6051 C   0  0  0  0  0  0  0  0  0  0  0  0
   -2.7778    7.7995   14.6157 C   0  0  0  0  0  0  0  0  0  0  0  0
   -2.4566    8.6014   15.6938 C   0  0  0  0  0  0  0  0  0  0  0  0
   -1.3029    9.3155   15.4620 C   0  0  0  0  0  0  0  0  0  0  0  0
   -0.7317    9.0859   14.2212 C   0  0  0  0  0  0  0  0  0  0  0  0
   -1.6556    7.9403   13.3000 S   0  0  0  0  0  0  0  0  0  0  0  0
  1  9  1  0  0  0
  1  2  2  0  0  0
  1  5  1  0  0  0
 17 18  1  0  0  0
 17 15  1  0  0  0
 18 19  2  0  0  0
 18 22  1  0  0  0
 19 20  1  0  0  0
 20 21  2  0  0  0
 21 22  1  0  0  0
  6  9  2  0  0  0
  7  9  2  0  0  0
  8  9  1  0  0  0
  2  3  1  0  0  0
  3  4  2  0  0  0
  4  5  1  0  0  0
  4 12  1  0  0  0
 12 13  2  0  0  0
 12 14  2  0  0  0
 12 15  1  0  0  0
  8 10  1  0  0  0
  8 11  1  0  0  0
 15 16  1  0  0  0
M  END
> <minimizedAffinity>
-6.44896

$$$$
1BNW_TPD_A_555


 22 23  0  0  0  0  0  0  0  0999 V2000
   -3.4396    1.1781   11.6852 C   0  0  0  0  0  0  0  0  0  0  0  0
   -2.3968    2.0353   11.5124 C   0  0  0  0  0  0  0  0  0  0  0  0
   -2.6122    3.2244   12.1591 C   0  0  0  0  0  0  0  0  0  0  0  0
   -3.8171    3.2746   12.8213 C   0  0  0  0  0  0  0  0  0  0  0  0
   -4.7019    1.8350   12.6455 S   0  0  0  0  0  0  0  0  0  0  0  0
   -4.6858   -1.0449   11.6210 O   0  0  0  0  0  0  0  0  0  0  0  0
   -3.7204   -0.2621    9.6588 O   0  0  0  0  0  0  0  0  0  0  0  0
   -2.2693   -1.1383   11.4191 N   0  0  0  0  0  0  0  0  0  0  0  0
   -3.5258   -0.4241   11.0615 S   0  0  0  0  0  0  0  0  0  0  0  0
   -2.1994   -1.2161   12.4337 H   0  0  0  0  0  0  0  0  0  0  0  0
   -1.4686   -0.6170   11.0620 H   0  0  0  0  0  0  0  0  0  0  0  0
   -4.4735    4.5869   13.7488 S   0  0  0  0  0  0  0  0  0  0  0  0
   -3.4733    5.6122   13.7943 O   0  0  0  0  0  0  0  0  0  0  0  0
   -5.6437    5.0733   13.0731 O   0  0  0  0  0  0  0  0  0  0  0  0
   -4.8757    4.0782   15.0958 N   0  0  0  0  0  0  0  0  0  0  0  0
   -4.4156    3.1784   15.2339 H   0  0  0  0  0  0  0  0  0  0  0  0
   -6.3022    3.8837   15.3372 C   0  0  0  0  0  0  0  0  0  0  0  0
   -6.2870    2.7170   16.1955 C   0  0  0  0  0  0  0  0  0  0  0  0
   -7.3760    2.3031   16.9381 C   0  0  0  0  0  0  0  0  0  0  0  0
   -7.1099    1.1305   17.6083 C   0  0  0  0  0  0  0  0  0  0  0  0
   -5.8326    0.6357   17.4033 C   0  0  0  0  0  0  0  0  0  0  0  0
   -4.9194    1.6589   16.3385 S   0  0  0  0  0  0  0  0  0  0  0  0
  1  9  1  0  0  0
  1  2  2  0  0  0
  1  5  1  0  0  0
 17 18  1  0  0  0
 17 15  1  0  0  0
 18 19  2  0  0  0
 18 22  1  0  0  0
 19 20  1  0  0  0
 20 21  2  0  0  0
 21 22  1  0  0  0
  6  9  2  0  0  0
  7  9  2  0  0  0
  8  9  1  0  0  0
  2  3  1  0  0  0
  3  4  2  0  0  0
  4  5  1  0  0  0
  4 12  1  0  0  0
 12 13  2  0  0  0
 12 14  2  0  0  0
 12 15  1  0  0  0
  8 10  1  0  0  0
  8 11  1  0  0  0
 15 16  1  0  0  0
M  END
> <minimizedAffinity>
-6.33768

$$$$
1BNW_TPD_A_555


 22 23  0  0  0  0  0  0  0  0999 V2000
   -4.3092    1.2671   12.6845 C   0  0  0  0  0  0  0  0  0  0  0  0
   -4.4003    0.9887   14.0135 C   0  0  0  0  0  0  0  0  0  0  0  0
   -4.7893    2.0894   14.7315 C   0  0  0  0  0  0  0  0  0  0  0  0
   -4.9920    3.2050   13.9522 C   0  0  0  0  0  0  0  0  0  0  0  0
   -4.6985    2.8961   12.3077 S   0  0  0  0  0  0  0  0  0  0  0  0
   -2.4623    0.1172   11.3557 O   0  0  0  0  0  0  0  0  0  0  0  0
   -4.3331   -1.1243   11.9501 O   0  0  0  0  0  0  0  0  0  0  0  0
   -4.5433    0.5537   10.1861 N   0  0  0  0  0  0  0  0  0  0  0  0
   -3.8883    0.1366   11.4564 S   0  0  0  0  0  0  0  0  0  0  0  0
   -4.1765    1.4602    9.8961 H   0  0  0  0  0  0  0  0  0  0  0  0
   -5.5505    0.6249   10.3303 H   0  0  0  0  0  0  0  0  0  0  0  0
   -5.4787    4.7913   14.4621 S   0  0  0  0  0  0  0  0  0  0  0  0
   -6.4122    4.6207   15.5359 O   0  0  0  0  0  0  0  0  0  0  0  0
   -4.3143    5.4893   14.9312 O   0  0  0  0  0  0  0  0  0  0  0  0
   -6.0388    5.5298   13.2892 N   0  0  0  0  0  0  0  0  0  0  0  0
   -6.1549    4.8578   12.5306 H   0  0  0  0  0  0  0  0  0  0  0  0
   -5.2576    6.6481   12.7695 C   0  0  0  0  0  0  0  0  0  0  0  0
   -6.0668    7.0573   11.6399 C   0  0  0  0  0  0  0  0  0  0  0  0
   -7.1533    7.9038   11.7477 C   0  0  0  0  0  0  0  0  0  0  0  0
   -7.6973    8.1816   10.5142 C   0  0  0  0  0  0  0  0  0  0  0  0
   -7.0559    7.5585    9.4565 C   0  0  0  0  0  0  0  0  0  0  0  0
   -5.7244    6.5885   10.0049 S   0  0  0  0  0  0  0  0  0  0  0  0
  1  9  1  0  0  0
  1  2  2  0  0  0
  1  5  1  0  0  0
 17 18  1  0  0  0
 17 15  1  0  0  0
 18 19  2  0  0  0
 18 22  1  0  0  0
 19 20  1  0  0  0
 20 21  2  0  0  0
 21 22  1  0  0  0
  6  9  2  0  0  0
  7  9  2  0  0  0
  8  9  1  0  0  0
  2  3  1  0  0  0
  3  4  2  0  0  0
  4  5  1  0  0  0
  4 12  1  0  0  0
 12 13  2  0  0  0
 12 14  2  0  0  0
 12 15  1  0  0  0
  8 10  1  0  0  0
  8 11  1  0  0  0
 15 16  1  0  0  0
M  END
> <minimizedAffinity>
-6.24063

$$$$
1BNW_TPD_A_555


 22 23  0  0  0  0  0  0  0  0999 V2000
   -5.2714    2.4389   15.5252 C   0  0  0  0  0  0  0  0  0  0  0  0
   -6.3833    3.0877   15.9665 C   0  0  0  0  0  0  0  0  0  0  0  0
   -6.6177    4.2294   15.2453 C   0  0  0  0  0  0  0  0  0  0  0  0
   -5.6855    4.4517   14.2581 C   0  0  0  0  0  0  0  0  0  0  0  0
   -4.4991    3.2366   14.2158 S   0  0  0  0  0  0  0  0  0  0  0  0
   -4.8098   -0.0361   15.1250 O   0  0  0  0  0  0  0  0  0  0  0  0
   -3.2856    1.1828   16.3843 O   0  0  0  0  0  0  0  0  0  0  0  0
   -5.4437    0.6092   17.3768 N   0  0  0  0  0  0  0  0  0  0  0  0
   -4.6723    0.9509   16.1501 S   0  0  0  0  0  0  0  0  0  0  0  0
   -6.4223    0.4580   17.1320 H   0  0  0  0  0  0  0  0  0  0  0  0
   -5.3753    1.3759   18.0461 H   0  0  0  0  0  0  0  0  0  0  0  0
   -5.6120    5.7735   13.1352 S   0  0  0  0  0  0  0  0  0  0  0  0
   -6.9117    6.3767   13.1090 O   0  0  0  0  0  0  0  0  0  0  0  0
   -4.6430    6.7181   13.6162 O   0  0  0  0  0  0  0  0  0  0  0  0
   -5.1602    5.2593   11.8062 N   0  0  0  0  0  0  0  0  0  0  0  0
   -4.6420    4.3964   11.9712 H   0  0  0  0  0  0  0  0  0  0  0  0
   -4.3104    6.1355   11.0053 C   0  0  0  0  0  0  0  0  0  0  0  0
   -5.2923    6.7925   10.1673 C   0  0  0  0  0  0  0  0  0  0  0  0
   -5.9995    6.1460    9.1721 C   0  0  0  0  0  0  0  0  0  0  0  0
   -6.9137    6.9869    8.5788 C   0  0  0  0  0  0  0  0  0  0  0  0
   -6.9196    8.2734    9.0921 C   0  0  0  0  0  0  0  0  0  0  0  0
   -5.7485    8.4552   10.3610 S   0  0  0  0  0  0  0  0  0  0  0  0
  1  9  1  0  0  0
  1  2  2  0  0  0
  1  5  1  0  0  0
 17 18  1  0  0  0
 17 15  1  0  0  0
 18 19  2  0  0  0
 18 22  1  0  0  0
 19 20  1  0  0  0
 20 21  2  0  0  0
 21 22  1  0  0  0
  6  9  2  0  0  0
  7  9  2  0  0  0
  8  9  1  0  0  0
  2  3  1  0  0  0
  3  4  2  0  0  0
  4  5  1  0  0  0
  4 12  1  0  0  0
 12 13  2  0  0  0
 12 14  2  0  0  0
 12 15  1  0  0  0
  8 10  1  0  0  0
  8 11  1  0  0  0
 15 16  1  0  0  0
M  END
> <minimizedAffinity>
-6.20911

$$$$
