1BNW_TPD_A_555
  RCSB PDB12061702053D
Coordinates from PDB:1BNW:A:555 Model:1 without hydrogens
 19 20  0  0  0  0            999 V2000
   -5.2720    2.0930   15.8300   C 0  0  0  0  0  0  0  0  0  0  0  0
   -2.5880    6.3460   13.9900   C 0  0  0  0  0  0  0  0  0  0  0  0
   -2.0720    7.6960   13.8940   C 0  0  0  0  0  0  0  0  0  0  0  0
   -2.1060    8.4440   12.7330   C 0  0  0  0  0  0  0  0  0  0  0  0
   -1.6140    9.7130   12.9390   C 0  0  0  0  0  0  0  0  0  0  0  0
   -1.1930    9.9560   14.2360   C 0  0  0  0  0  0  0  0  0  0  0  0
   -5.4750    1.0740   18.1580   O 0  0  0  0  0  0  0  0  0  0  0  0
   -7.3150    0.9750   16.7440   O 0  0  0  0  0  0  0  0  0  0  0  0
   -5.3990   -0.4720   16.2890   N 0  0  0  0  0  0  0  0  0  0  0  0
   -5.8990    0.8280   16.8150   S 0  0  0  0  0  0  0  0  0  0  0  0
   -4.0400    2.1040   15.2520   C 0  0  0  0  0  0  0  0  0  0  0  0
   -3.8220    3.2650   14.5570   C 0  0  0  0  0  0  0  0  0  0  0  0
   -4.8860    4.1360   14.6030   C 0  0  0  0  0  0  0  0  0  0  0  0
   -6.1780    3.5170   15.5160   S 0  0  0  0  0  0  0  0  0  0  0  0
   -5.0220    5.6980   13.8580   S 0  0  0  0  0  0  0  0  0  0  0  0
   -4.9270    5.4990   12.4420   O 0  0  0  0  0  0  0  0  0  0  0  0
   -6.3080    6.2440   14.1910   O 0  0  0  0  0  0  0  0  0  0  0  0
   -3.9630    6.5960   14.4120   N 0  0  0  0  0  0  0  0  0  0  0  0
   -1.4130    8.5610   15.2460   S 0  0  0  0  0  0  0  0  0  0  0  0
  1 10  1  0  0  0  0
  1 11  2  0  0  0  0
  1 14  1  0  0  0  0
  2  3  1  0  0  0  0
  2 18  1  0  0  0  0
  3  4  2  0  0  0  0
  3 19  1  0  0  0  0
  4  5  1  0  0  0  0
  5  6  2  0  0  0  0
  6 19  1  0  0  0  0
  7 10  2  0  0  0  0
  8 10  2  0  0  0  0
  9 10  1  0  0  0  0
 11 12  1  0  0  0  0
 12 13  2  0  0  0  0
 13 14  1  0  0  0  0
 13 15  1  0  0  0  0
 15 16  2  0  0  0  0
 15 17  2  0  0  0  0
 15 18  1  0  0  0  0
A    1
C3
A    2
C9
A    3
C10
A    4
C11
A    5
C12
A    6
C13
A    7
O1A
A    8
O2A
A    9
N21
A   10
S1
A   11
C4
A   12
C5
A   13
C6
A   14
S2
A   15
S7
A   16
O3B
A   17
O4B
A   18
N8
A   19
S14
M  END
>  <InstanceId>
1BNW_TPD_A_555

>  <ChemCompId>
TPD

>  <PdbId>
1BNW

>  <ChainId>
A

>  <ResidueNumber>
555

>  <InsertionCode>


>  <Model>
1

>  <AltIds>


>  <MissingHeavyAtoms>
0

>  <ObservedFormula>
C9 N2 O4 S4

>  <Name>
N-(2-THIENYLMETHYL)-2,5-THIOPHENEDISULFONAMIDE

>  <SystematicName>
N-(thiophen-2-ylmethyl)thiophene-2,5-disulfonamide

>  <Synonyms>


>  <Type>
NON-POLYMER

>  <Formula>
C9 H10 N2 O4 S4

>  <MolecularWeight>
338.447

>  <ModifiedDate>
2011-06-04

>  <Parent>


>  <OneLetterCode>


>  <SubcomponentList>


>  <AmbiguousFlag>
N

>  <InChI>
InChI=1S/C9H10N2O4S4/c10-18(12,13)8-3-4-9(17-8)19(14,15)11-6-7-2-1-5-16-7/h1-5,11H,6H2,(H2,10,12,13)

>  <InChIKey>
STOTVDLYLKWVJB-UHFFFAOYSA-N

>  <SMILES>
c1cc(sc1)CNS(=O)(=O)c2ccc(s2)S(=O)(=O)N

$$$$
