2PVK_P45_A_501


 29 32  0  0  0  0  0  0  0  0999 V2000
   20.9989    5.3159   26.2848 N   0  0  0  0  0  0  0  0  0  0  0  0
   20.2401    5.8553   27.2706 C   0  0  0  0  0  0  0  0  0  0  0  0
   19.7415    7.0883   26.8164 C   0  0  0  0  0  0  0  0  0  0  0  0
   20.2608    7.2359   25.4750 C   0  0  0  0  0  0  0  0  0  0  0  0
   21.0260    6.1374   25.1980 N   0  0  0  0  0  0  0  0  0  0  0  0
   20.1312    8.1874   24.5383 N   0  0  0  0  0  0  0  0  0  0  0  0
   20.7650    8.0060   23.3853 C   0  0  0  0  0  0  0  0  0  0  0  0
   21.5198    6.9501   23.0946 N   0  0  0  0  0  0  0  0  0  0  0  0
   21.6401    6.0134   24.0313 C   0  0  0  0  0  0  0  0  0  0  0  0
   22.4279    4.9335   23.7962 N   0  0  0  0  0  0  0  0  0  0  0  0
   22.7475    4.4372   24.5841 H   0  0  0  0  0  0  0  0  0  0  0  0
   22.8198    4.4688   22.5775 C   0  0  0  0  0  0  0  0  0  0  0  0
   24.0485    4.7869   21.9990 C   0  0  0  0  0  0  0  0  0  0  0  0
   24.3705    4.3744   20.7060 C   0  0  0  0  0  0  0  0  0  0  0  0
   23.4546    3.6272   19.9649 C   0  0  0  0  0  0  0  0  0  0  0  0
   22.2436    3.2622   20.5548 C   0  0  0  0  0  0  0  0  0  0  0  0
   21.9304    3.6710   21.8501 C   0  0  0  0  0  0  0  0  0  0  0  0
   20.6303    8.9730   22.4470 N   0  0  0  0  0  0  0  0  0  0  0  0
   21.1418    9.8076   22.5518 H   0  0  0  0  0  0  0  0  0  0  0  0
   19.7572    8.8274   21.2868 C   0  0  0  0  0  0  0  0  0  0  0  0
   20.4598    8.8435   19.9498 C   0  0  0  0  0  0  0  0  0  0  0  0
   19.9048    9.5788   18.9043 C   0  0  0  0  0  0  0  0  0  0  0  0
   20.5208    9.5939   17.6542 C   0  0  0  0  0  0  0  0  0  0  0  0
   21.6924    8.8725   17.4250 C   0  0  0  0  0  0  0  0  0  0  0  0
   22.2605    8.1718   18.4859 C   0  0  0  0  0  0  0  0  0  0  0  0
   21.6491    8.1453   19.7402 C   0  0  0  0  0  0  0  0  0  0  0  0
   22.4034    8.8344   15.8402 Cl  0  0  0  0  0  0  0  0  0  0  0  0
   18.9186    7.9936   27.5610 C   0  0  0  0  0  0  0  0  0  0  0  0
   18.2127    8.7569   28.0740 N   0  0  0  0  0  0  0  0  0  0  0  0
  1  2  2  0  0  0
  1  5  1  0  0  0
  2  3  1  0  0  0
  3 28  1  0  0  0
  3  4  2  0  0  0
  4  6  1  0  0  0
  4  5  1  0  0  0
  5  9  1  0  0  0
  6  7  2  0  0  0
  7 18  1  0  0  0
  7  8  1  0  0  0
  8  9  2  0  0  0
  9 10  1  0  0  0
 10 12  1  0  0  0
 12 13  2  0  0  0
 12 17  1  0  0  0
 13 14  1  0  0  0
 14 15  2  0  0  0
 15 16  1  0  0  0
 16 17  2  0  0  0
 18 20  1  0  0  0
 20 21  1  0  0  0
 21 26  1  0  0  0
 21 22  2  0  0  0
 22 23  1  0  0  0
 23 24  2  0  0  0
 24 25  1  0  0  0
 24 27  1  0  0  0
 25 26  2  0  0  0
 28 29  3  0  0  0
 10 11  1  0  0  0
 18 19  1  0  0  0
M  END
> <minimizedAffinity>
-9.37895

$$$$
2PVK_P45_A_501


 29 32  0  0  0  0  0  0  0  0999 V2000
   19.9411    9.4289   19.8944 N   0  0  0  0  0  0  0  0  0  0  0  0
   20.1972    9.7109   18.5931 C   0  0  0  0  0  0  0  0  0  0  0  0
   21.2723    8.9089   18.1732 C   0  0  0  0  0  0  0  0  0  0  0  0
   21.6315    8.1206   19.3309 C   0  0  0  0  0  0  0  0  0  0  0  0
   20.7996    8.4766   20.3557 N   0  0  0  0  0  0  0  0  0  0  0  0
   22.5639    7.1814   19.5506 N   0  0  0  0  0  0  0  0  0  0  0  0
   22.6273    6.6501   20.7662 C   0  0  0  0  0  0  0  0  0  0  0  0
   21.8343    6.9840   21.7805 N   0  0  0  0  0  0  0  0  0  0  0  0
   20.9137    7.9160   21.5500 C   0  0  0  0  0  0  0  0  0  0  0  0
   20.1033    8.3167   22.5624 N   0  0  0  0  0  0  0  0  0  0  0  0
   19.3660    8.9250   22.3265 H   0  0  0  0  0  0  0  0  0  0  0  0
   20.2098    7.9602   23.8725 C   0  0  0  0  0  0  0  0  0  0  0  0
   20.0707    6.6461   24.3190 C   0  0  0  0  0  0  0  0  0  0  0  0
   20.0853    6.3363   25.6789 C   0  0  0  0  0  0  0  0  0  0  0  0
   20.2421    7.3515   26.6229 C   0  0  0  0  0  0  0  0  0  0  0  0
   20.4321    8.6621   26.1827 C   0  0  0  0  0  0  0  0  0  0  0  0
   20.4242    8.9647   24.8220 C   0  0  0  0  0  0  0  0  0  0  0  0
   23.5732    5.7048   20.9790 N   0  0  0  0  0  0  0  0  0  0  0  0
   24.2224    5.5164   20.2633 H   0  0  0  0  0  0  0  0  0  0  0  0
   23.6688    4.9542   22.2269 C   0  0  0  0  0  0  0  0  0  0  0  0
   22.6398    3.8619   22.3984 C   0  0  0  0  0  0  0  0  0  0  0  0
   22.0358    3.6927   23.6426 C   0  0  0  0  0  0  0  0  0  0  0  0
   21.0987    2.6790   23.8344 C   0  0  0  0  0  0  0  0  0  0  0  0
   20.7552    1.8158   22.7940 C   0  0  0  0  0  0  0  0  0  0  0  0
   21.3352    2.0166   21.5440 C   0  0  0  0  0  0  0  0  0  0  0  0
   22.2788    3.0249   21.3424 C   0  0  0  0  0  0  0  0  0  0  0  0
   19.6475    0.5060   23.0701 Cl  0  0  0  0  0  0  0  0  0  0  0  0
   21.8764    8.9167   16.8746 C   0  0  0  0  0  0  0  0  0  0  0  0
   22.3509    8.8212   15.8213 N   0  0  0  0  0  0  0  0  0  0  0  0
  1  2  2  0  0  0
  1  5  1  0  0  0
  2  3  1  0  0  0
  3 28  1  0  0  0
  3  4  2  0  0  0
  4  6  1  0  0  0
  4  5  1  0  0  0
  5  9  1  0  0  0
  6  7  2  0  0  0
  7 18  1  0  0  0
  7  8  1  0  0  0
  8  9  2  0  0  0
  9 10  1  0  0  0
 10 12  1  0  0  0
 12 13  2  0  0  0
 12 17  1  0  0  0
 13 14  1  0  0  0
 14 15  2  0  0  0
 15 16  1  0  0  0
 16 17  2  0  0  0
 18 20  1  0  0  0
 20 21  1  0  0  0
 21 26  1  0  0  0
 21 22  2  0  0  0
 22 23  1  0  0  0
 23 24  2  0  0  0
 24 25  1  0  0  0
 24 27  1  0  0  0
 25 26  2  0  0  0
 28 29  3  0  0  0
 10 11  1  0  0  0
 18 19  1  0  0  0
M  END
> <minimizedAffinity>
-9.26500

$$$$
2PVK_P45_A_501


 29 32  0  0  0  0  0  0  0  0999 V2000
   20.9522    7.1478   23.8537 N   0  0  0  0  0  0  0  0  0  0  0  0
   20.2948    6.6763   24.9419 C   0  0  0  0  0  0  0  0  0  0  0  0
   20.1644    5.2834   24.8069 C   0  0  0  0  0  0  0  0  0  0  0  0
   20.8047    4.9630   23.5507 C   0  0  0  0  0  0  0  0  0  0  0  0
   21.2621    6.1293   23.0032 N   0  0  0  0  0  0  0  0  0  0  0  0
   21.0066    3.8141   22.8882 N   0  0  0  0  0  0  0  0  0  0  0  0
   21.6423    3.8790   21.7239 C   0  0  0  0  0  0  0  0  0  0  0  0
   22.0907    5.0009   21.1678 N   0  0  0  0  0  0  0  0  0  0  0  0
   21.8848    6.1334   21.8346 C   0  0  0  0  0  0  0  0  0  0  0  0
   22.2922    7.3091   21.2925 N   0  0  0  0  0  0  0  0  0  0  0  0
   23.0666    7.7474   21.7138 H   0  0  0  0  0  0  0  0  0  0  0  0
   21.7352    7.9422   20.2231 C   0  0  0  0  0  0  0  0  0  0  0  0
   22.3099    7.9419   18.9522 C   0  0  0  0  0  0  0  0  0  0  0  0
   21.7619    8.6864   17.9077 C   0  0  0  0  0  0  0  0  0  0  0  0
   20.6154    9.4513   18.1242 C   0  0  0  0  0  0  0  0  0  0  0  0
   20.0059    9.4176   19.3791 C   0  0  0  0  0  0  0  0  0  0  0  0
   20.5537    8.6656   20.4171 C   0  0  0  0  0  0  0  0  0  0  0  0
   21.8391    2.7145   21.0613 N   0  0  0  0  0  0  0  0  0  0  0  0
   21.2768    2.5156   20.2781 H   0  0  0  0  0  0  0  0  0  0  0  0
   22.8513    1.7426   21.4620 C   0  0  0  0  0  0  0  0  0  0  0  0
   24.0375    1.6327   20.5333 C   0  0  0  0  0  0  0  0  0  0  0  0
   25.2335    2.2528   20.8894 C   0  0  0  0  0  0  0  0  0  0  0  0
   26.3372    2.1853   20.0412 C   0  0  0  0  0  0  0  0  0  0  0  0
   26.2645    1.5069   18.8247 C   0  0  0  0  0  0  0  0  0  0  0  0
   25.0773    0.8578   18.4948 C   0  0  0  0  0  0  0  0  0  0  0  0
   23.9642    0.9237   19.3342 C   0  0  0  0  0  0  0  0  0  0  0  0
   27.6223    1.5011   17.7407 Cl  0  0  0  0  0  0  0  0  0  0  0  0
   19.5065    4.4029   25.7251 C   0  0  0  0  0  0  0  0  0  0  0  0
   18.9700    3.6211   26.3921 N   0  0  0  0  0  0  0  0  0  0  0  0
  1  2  2  0  0  0
  1  5  1  0  0  0
  2  3  1  0  0  0
  3 28  1  0  0  0
  3  4  2  0  0  0
  4  6  1  0  0  0
  4  5  1  0  0  0
  5  9  1  0  0  0
  6  7  2  0  0  0
  7 18  1  0  0  0
  7  8  1  0  0  0
  8  9  2  0  0  0
  9 10  1  0  0  0
 10 12  1  0  0  0
 12 13  2  0  0  0
 12 17  1  0  0  0
 13 14  1  0  0  0
 14 15  2  0  0  0
 15 16  1  0  0  0
 16 17  2  0  0  0
 18 20  1  0  0  0
 20 21  1  0  0  0
 21 26  1  0  0  0
 21 22  2  0  0  0
 22 23  1  0  0  0
 23 24  2  0  0  0
 24 25  1  0  0  0
 24 27  1  0  0  0
 25 26  2  0  0  0
 28 29  3  0  0  0
 10 11  1  0  0  0
 18 19  1  0  0  0
M  END
> <minimizedAffinity>
-8.93299

$$$$
2PVK_P45_A_501


 29 32  0  0  0  0  0  0  0  0999 V2000
   19.8413    9.3268   19.9220 N   0  0  0  0  0  0  0  0  0  0  0  0
   20.0976    9.6061   18.6201 C   0  0  0  0  0  0  0  0  0  0  0  0
   21.2466    8.8935   18.2361 C   0  0  0  0  0  0  0  0  0  0  0  0
   21.6500    8.1610   19.4157 C   0  0  0  0  0  0  0  0  0  0  0  0
   20.7701    8.4618   20.4178 N   0  0  0  0  0  0  0  0  0  0  0  0
   22.6560    7.3110   19.6710 N   0  0  0  0  0  0  0  0  0  0  0  0
   22.7412    6.8097   20.8979 C   0  0  0  0  0  0  0  0  0  0  0  0
   21.9023    7.0917   21.8908 N   0  0  0  0  0  0  0  0  0  0  0  0
   20.9088    7.9353   21.6249 C   0  0  0  0  0  0  0  0  0  0  0  0
   20.0468    8.2823   22.6143 N   0  0  0  0  0  0  0  0  0  0  0  0
   19.2842    8.8505   22.3595 H   0  0  0  0  0  0  0  0  0  0  0  0
   20.1329    7.9218   23.9248 C   0  0  0  0  0  0  0  0  0  0  0  0
   20.1899    8.8460   24.9679 C   0  0  0  0  0  0  0  0  0  0  0  0
   20.3804    8.4391   26.2884 C   0  0  0  0  0  0  0  0  0  0  0  0
   20.5176    7.0831   26.5866 C   0  0  0  0  0  0  0  0  0  0  0  0
   20.4116    6.1489   25.5552 C   0  0  0  0  0  0  0  0  0  0  0  0
   20.2137    6.5610   24.2384 C   0  0  0  0  0  0  0  0  0  0  0  0
   23.7614    5.9548   21.1468 N   0  0  0  0  0  0  0  0  0  0  0  0
   24.6835    6.2597   20.9855 H   0  0  0  0  0  0  0  0  0  0  0  0
   23.5487    4.5996   21.6447 C   0  0  0  0  0  0  0  0  0  0  0  0
   24.1286    3.5021   20.7840 C   0  0  0  0  0  0  0  0  0  0  0  0
   23.4171    3.0747   19.6647 C   0  0  0  0  0  0  0  0  0  0  0  0
   23.9187    2.0492   18.8653 C   0  0  0  0  0  0  0  0  0  0  0  0
   25.1304    1.4303   19.1720 C   0  0  0  0  0  0  0  0  0  0  0  0
   25.8530    1.8899   20.2701 C   0  0  0  0  0  0  0  0  0  0  0  0
   25.3574    2.9122   21.0807 C   0  0  0  0  0  0  0  0  0  0  0  0
   25.7026    0.0985   18.2140 Cl  0  0  0  0  0  0  0  0  0  0  0  0
   21.8733    8.9301   16.9487 C   0  0  0  0  0  0  0  0  0  0  0  0
   22.3042    8.8998   15.8729 N   0  0  0  0  0  0  0  0  0  0  0  0
  1  2  2  0  0  0
  1  5  1  0  0  0
  2  3  1  0  0  0
  3 28  1  0  0  0
  3  4  2  0  0  0
  4  6  1  0  0  0
  4  5  1  0  0  0
  5  9  1  0  0  0
  6  7  2  0  0  0
  7 18  1  0  0  0
  7  8  1  0  0  0
  8  9  2  0  0  0
  9 10  1  0  0  0
 10 12  1  0  0  0
 12 13  2  0  0  0
 12 17  1  0  0  0
 13 14  1  0  0  0
 14 15  2  0  0  0
 15 16  1  0  0  0
 16 17  2  0  0  0
 18 20  1  0  0  0
 20 21  1  0  0  0
 21 26  1  0  0  0
 21 22  2  0  0  0
 22 23  1  0  0  0
 23 24  2  0  0  0
 24 25  1  0  0  0
 24 27  1  0  0  0
 25 26  2  0  0  0
 28 29  3  0  0  0
 10 11  1  0  0  0
 18 19  1  0  0  0
M  END
> <minimizedAffinity>
-8.80211

$$$$
2PVK_P45_A_501


 29 32  0  0  0  0  0  0  0  0999 V2000
   19.3866    8.9073   25.1406 N   0  0  0  0  0  0  0  0  0  0  0  0
   19.1168    8.6747   26.4489 C   0  0  0  0  0  0  0  0  0  0  0  0
   19.6752    7.4333   26.7987 C   0  0  0  0  0  0  0  0  0  0  0  0
   20.3061    6.9482   25.5915 C   0  0  0  0  0  0  0  0  0  0  0  0
   20.0980    7.8745   24.6078 N   0  0  0  0  0  0  0  0  0  0  0  0
   20.9997    5.8378   25.2987 N   0  0  0  0  0  0  0  0  0  0  0  0
   21.4444    5.7004   24.0548 C   0  0  0  0  0  0  0  0  0  0  0  0
   21.2495    6.5834   23.0794 N   0  0  0  0  0  0  0  0  0  0  0  0
   20.5608    7.6804   23.3823 C   0  0  0  0  0  0  0  0  0  0  0  0
   20.3049    8.5952   22.4129 N   0  0  0  0  0  0  0  0  0  0  0  0
   19.8060    9.4000   22.6826 H   0  0  0  0  0  0  0  0  0  0  0  0
   20.6703    8.5094   21.1037 C   0  0  0  0  0  0  0  0  0  0  0  0
   21.7691    7.7704   20.6654 C   0  0  0  0  0  0  0  0  0  0  0  0
   22.1708    7.7900   19.3298 C   0  0  0  0  0  0  0  0  0  0  0  0
   21.4681    8.5596   18.4023 C   0  0  0  0  0  0  0  0  0  0  0  0
   20.3379    9.2621   18.8229 C   0  0  0  0  0  0  0  0  0  0  0  0
   19.9368    9.2327   20.1575 C   0  0  0  0  0  0  0  0  0  0  0  0
   22.1412    4.5752   23.7682 N   0  0  0  0  0  0  0  0  0  0  0  0
   22.9234    4.3499   24.3219 H   0  0  0  0  0  0  0  0  0  0  0  0
   21.7790    3.6833   22.6714 C   0  0  0  0  0  0  0  0  0  0  0  0
   22.8564    3.4726   21.6340 C   0  0  0  0  0  0  0  0  0  0  0  0
   24.1558    3.1986   22.0563 C   0  0  0  0  0  0  0  0  0  0  0  0
   25.1735    3.0209   21.1209 C   0  0  0  0  0  0  0  0  0  0  0  0
   24.9146    3.1205   19.7540 C   0  0  0  0  0  0  0  0  0  0  0  0
   23.6060    3.3565   19.3402 C   0  0  0  0  0  0  0  0  0  0  0  0
   22.5803    3.5415   20.2684 C   0  0  0  0  0  0  0  0  0  0  0  0
   26.2085    2.9784   18.6032 Cl  0  0  0  0  0  0  0  0  0  0  0  0
   19.5937    6.8006   28.0810 C   0  0  0  0  0  0  0  0  0  0  0  0
   19.4959    6.2038   29.0700 N   0  0  0  0  0  0  0  0  0  0  0  0
  1  2  2  0  0  0
  1  5  1  0  0  0
  2  3  1  0  0  0
  3 28  1  0  0  0
  3  4  2  0  0  0
  4  6  1  0  0  0
  4  5  1  0  0  0
  5  9  1  0  0  0
  6  7  2  0  0  0
  7 18  1  0  0  0
  7  8  1  0  0  0
  8  9  2  0  0  0
  9 10  1  0  0  0
 10 12  1  0  0  0
 12 13  2  0  0  0
 12 17  1  0  0  0
 13 14  1  0  0  0
 14 15  2  0  0  0
 15 16  1  0  0  0
 16 17  2  0  0  0
 18 20  1  0  0  0
 20 21  1  0  0  0
 21 26  1  0  0  0
 21 22  2  0  0  0
 22 23  1  0  0  0
 23 24  2  0  0  0
 24 25  1  0  0  0
 24 27  1  0  0  0
 25 26  2  0  0  0
 28 29  3  0  0  0
 10 11  1  0  0  0
 18 19  1  0  0  0
M  END
> <minimizedAffinity>
-8.72304

$$$$
2PVK_P45_A_501


 29 32  0  0  0  0  0  0  0  0999 V2000
   20.5783    2.0066   23.7299 N   0  0  0  0  0  0  0  0  0  0  0  0
   19.9775    2.0032   24.9454 C   0  0  0  0  0  0  0  0  0  0  0  0
   19.9110    3.3293   25.4062 C   0  0  0  0  0  0  0  0  0  0  0  0
   20.5162    4.1243   24.3610 C   0  0  0  0  0  0  0  0  0  0  0  0
   20.9138    3.2759   23.3654 N   0  0  0  0  0  0  0  0  0  0  0  0
   20.7360    5.4398   24.2167 N   0  0  0  0  0  0  0  0  0  0  0  0
   21.3381    5.8444   23.1041 C   0  0  0  0  0  0  0  0  0  0  0  0
   21.7398    5.0388   22.1250 N   0  0  0  0  0  0  0  0  0  0  0  0
   21.5157    3.7368   22.2796 C   0  0  0  0  0  0  0  0  0  0  0  0
   21.9385    2.8700   21.3245 N   0  0  0  0  0  0  0  0  0  0  0  0
   21.2449    2.3467   20.8616 H   0  0  0  0  0  0  0  0  0  0  0  0
   23.2279    2.6530   20.9435 C   0  0  0  0  0  0  0  0  0  0  0  0
   24.1652    2.0124   21.7539 C   0  0  0  0  0  0  0  0  0  0  0  0
   25.5011    1.9000   21.3691 C   0  0  0  0  0  0  0  0  0  0  0  0
   25.9225    2.4341   20.1511 C   0  0  0  0  0  0  0  0  0  0  0  0
   24.9812    3.0322   19.3121 C   0  0  0  0  0  0  0  0  0  0  0  0
   23.6459    3.1349   19.6986 C   0  0  0  0  0  0  0  0  0  0  0  0
   21.5580    7.1737   22.9687 N   0  0  0  0  0  0  0  0  0  0  0  0
   22.3926    7.5535   23.3270 H   0  0  0  0  0  0  0  0  0  0  0  0
   20.6073    8.0657   22.3128 C   0  0  0  0  0  0  0  0  0  0  0  0
   20.8828    8.3340   20.8521 C   0  0  0  0  0  0  0  0  0  0  0  0
   21.9940    7.7423   20.2549 C   0  0  0  0  0  0  0  0  0  0  0  0
   22.2837    7.9897   18.9143 C   0  0  0  0  0  0  0  0  0  0  0  0
   21.4770    8.8343   18.1519 C   0  0  0  0  0  0  0  0  0  0  0  0
   20.3472    9.3906   18.7465 C   0  0  0  0  0  0  0  0  0  0  0  0
   20.0509    9.1540   20.0896 C   0  0  0  0  0  0  0  0  0  0  0  0
   21.8969    9.1984   16.5057 Cl  0  0  0  0  0  0  0  0  0  0  0  0
   19.3753    3.7623   26.6619 C   0  0  0  0  0  0  0  0  0  0  0  0
   18.9255    4.2043   27.6346 N   0  0  0  0  0  0  0  0  0  0  0  0
  1  2  2  0  0  0
  1  5  1  0  0  0
  2  3  1  0  0  0
  3 28  1  0  0  0
  3  4  2  0  0  0
  4  6  1  0  0  0
  4  5  1  0  0  0
  5  9  1  0  0  0
  6  7  2  0  0  0
  7 18  1  0  0  0
  7  8  1  0  0  0
  8  9  2  0  0  0
  9 10  1  0  0  0
 10 12  1  0  0  0
 12 13  2  0  0  0
 12 17  1  0  0  0
 13 14  1  0  0  0
 14 15  2  0  0  0
 15 16  1  0  0  0
 16 17  2  0  0  0
 18 20  1  0  0  0
 20 21  1  0  0  0
 21 26  1  0  0  0
 21 22  2  0  0  0
 22 23  1  0  0  0
 23 24  2  0  0  0
 24 25  1  0  0  0
 24 27  1  0  0  0
 25 26  2  0  0  0
 28 29  3  0  0  0
 10 11  1  0  0  0
 18 19  1  0  0  0
M  END
> <minimizedAffinity>
-8.71487

$$$$
2PVK_P45_A_501


 29 32  0  0  0  0  0  0  0  0999 V2000
   21.4186    5.8589   22.9073 N   0  0  0  0  0  0  0  0  0  0  0  0
   20.8589    4.9975   23.7924 C   0  0  0  0  0  0  0  0  0  0  0  0
   21.0094    3.6931   23.2910 C   0  0  0  0  0  0  0  0  0  0  0  0
   21.7112    3.8482   22.0364 C   0  0  0  0  0  0  0  0  0  0  0  0
   21.9320    5.1832   21.8412 N   0  0  0  0  0  0  0  0  0  0  0  0
   22.1433    2.9785   21.1108 N   0  0  0  0  0  0  0  0  0  0  0  0
   22.7632    3.4720   20.0450 C   0  0  0  0  0  0  0  0  0  0  0  0
   22.9841    4.7658   19.8293 N   0  0  0  0  0  0  0  0  0  0  0  0
   22.5514    5.6180   20.7545 C   0  0  0  0  0  0  0  0  0  0  0  0
   22.7213    6.9510   20.5639 N   0  0  0  0  0  0  0  0  0  0  0  0
   23.4784    7.3732   21.0306 H   0  0  0  0  0  0  0  0  0  0  0  0
   21.9474    7.7621   19.7905 C   0  0  0  0  0  0  0  0  0  0  0  0
   22.2440    8.0570   18.4598 C   0  0  0  0  0  0  0  0  0  0  0  0
   21.4833    8.9722   17.7323 C   0  0  0  0  0  0  0  0  0  0  0  0
   20.4004    9.6128   18.3351 C   0  0  0  0  0  0  0  0  0  0  0  0
   20.0666    9.2860   19.6502 C   0  0  0  0  0  0  0  0  0  0  0  0
   20.8260    8.3649   20.3699 C   0  0  0  0  0  0  0  0  0  0  0  0
   23.1933    2.5867   19.1150 N   0  0  0  0  0  0  0  0  0  0  0  0
   22.9838    2.7567   18.1682 H   0  0  0  0  0  0  0  0  0  0  0  0
   23.9550    1.3907   19.4602 C   0  0  0  0  0  0  0  0  0  0  0  0
   24.8855    0.8898   18.3810 C   0  0  0  0  0  0  0  0  0  0  0  0
   24.3916    0.0130   17.4172 C   0  0  0  0  0  0  0  0  0  0  0  0
   25.2336   -0.4814   16.4226 C   0  0  0  0  0  0  0  0  0  0  0  0
   26.5791   -0.1165   16.3775 C   0  0  0  0  0  0  0  0  0  0  0  0
   27.0546    0.7900   17.3217 C   0  0  0  0  0  0  0  0  0  0  0  0
   26.2216    1.2868   18.3252 C   0  0  0  0  0  0  0  0  0  0  0  0
   27.6352   -0.8048   15.1818 Cl  0  0  0  0  0  0  0  0  0  0  0  0
   20.5321    2.4908   23.9057 C   0  0  0  0  0  0  0  0  0  0  0  0
   20.0591    1.5299   24.3493 N   0  0  0  0  0  0  0  0  0  0  0  0
  1  2  2  0  0  0
  1  5  1  0  0  0
  2  3  1  0  0  0
  3 28  1  0  0  0
  3  4  2  0  0  0
  4  6  1  0  0  0
  4  5  1  0  0  0
  5  9  1  0  0  0
  6  7  2  0  0  0
  7 18  1  0  0  0
  7  8  1  0  0  0
  8  9  2  0  0  0
  9 10  1  0  0  0
 10 12  1  0  0  0
 12 13  2  0  0  0
 12 17  1  0  0  0
 13 14  1  0  0  0
 14 15  2  0  0  0
 15 16  1  0  0  0
 16 17  2  0  0  0
 18 20  1  0  0  0
 20 21  1  0  0  0
 21 26  1  0  0  0
 21 22  2  0  0  0
 22 23  1  0  0  0
 23 24  2  0  0  0
 24 25  1  0  0  0
 24 27  1  0  0  0
 25 26  2  0  0  0
 28 29  3  0  0  0
 10 11  1  0  0  0
 18 19  1  0  0  0
M  END
> <minimizedAffinity>
-8.70778

$$$$
2PVK_P45_A_501


 29 32  0  0  0  0  0  0  0  0999 V2000
   21.4651    8.2213   23.2981 N   0  0  0  0  0  0  0  0  0  0  0  0
   20.9092    8.0785   24.5266 C   0  0  0  0  0  0  0  0  0  0  0  0
   20.6771    6.7100   24.7472 C   0  0  0  0  0  0  0  0  0  0  0  0
   21.1471    6.0483   23.5506 C   0  0  0  0  0  0  0  0  0  0  0  0
   21.6105    7.0083   22.6947 N   0  0  0  0  0  0  0  0  0  0  0  0
   21.1990    4.7627   23.1707 N   0  0  0  0  0  0  0  0  0  0  0  0
   21.6991    4.4960   21.9696 C   0  0  0  0  0  0  0  0  0  0  0  0
   22.1499    5.4119   21.1169 N   0  0  0  0  0  0  0  0  0  0  0  0
   22.0935    6.6828   21.5054 C   0  0  0  0  0  0  0  0  0  0  0  0
   22.5086    7.6577   20.6571 N   0  0  0  0  0  0  0  0  0  0  0  0
   23.4274    7.9899   20.7784 H   0  0  0  0  0  0  0  0  0  0  0  0
   21.7791    8.2216   19.6548 C   0  0  0  0  0  0  0  0  0  0  0  0
   22.2021    8.2488   18.3259 C   0  0  0  0  0  0  0  0  0  0  0  0
   21.4747    8.9249   17.3464 C   0  0  0  0  0  0  0  0  0  0  0  0
   20.2978    9.5913   17.6886 C   0  0  0  0  0  0  0  0  0  0  0  0
   19.8415    9.5268   19.0059 C   0  0  0  0  0  0  0  0  0  0  0  0
   20.5687    8.8432   19.9789 C   0  0  0  0  0  0  0  0  0  0  0  0
   21.7450    3.1958   21.5940 N   0  0  0  0  0  0  0  0  0  0  0  0
   22.4261    2.9165   20.9403 H   0  0  0  0  0  0  0  0  0  0  0  0
   20.8250    2.1921   22.1193 C   0  0  0  0  0  0  0  0  0  0  0  0
   21.4304    1.2214   23.1056 C   0  0  0  0  0  0  0  0  0  0  0  0
   22.8174    1.1538   23.2216 C   0  0  0  0  0  0  0  0  0  0  0  0
   23.4031    0.2521   24.1084 C   0  0  0  0  0  0  0  0  0  0  0  0
   22.6181   -0.5992   24.8859 C   0  0  0  0  0  0  0  0  0  0  0  0
   21.2324   -0.4978   24.7914 C   0  0  0  0  0  0  0  0  0  0  0  0
   20.6356    0.3976   23.9027 C   0  0  0  0  0  0  0  0  0  0  0  0
   23.3637   -1.7745   25.9258 Cl  0  0  0  0  0  0  0  0  0  0  0  0
   20.0755    6.1313   25.9111 C   0  0  0  0  0  0  0  0  0  0  0  0
   19.6724    5.6918   26.9052 N   0  0  0  0  0  0  0  0  0  0  0  0
  1  2  2  0  0  0
  1  5  1  0  0  0
  2  3  1  0  0  0
  3 28  1  0  0  0
  3  4  2  0  0  0
  4  6  1  0  0  0
  4  5  1  0  0  0
  5  9  1  0  0  0
  6  7  2  0  0  0
  7 18  1  0  0  0
  7  8  1  0  0  0
  8  9  2  0  0  0
  9 10  1  0  0  0
 10 12  1  0  0  0
 12 13  2  0  0  0
 12 17  1  0  0  0
 13 14  1  0  0  0
 14 15  2  0  0  0
 15 16  1  0  0  0
 16 17  2  0  0  0
 18 20  1  0  0  0
 20 21  1  0  0  0
 21 26  1  0  0  0
 21 22  2  0  0  0
 22 23  1  0  0  0
 23 24  2  0  0  0
 24 25  1  0  0  0
 24 27  1  0  0  0
 25 26  2  0  0  0
 28 29  3  0  0  0
 10 11  1  0  0  0
 18 19  1  0  0  0
M  END
> <minimizedAffinity>
-8.35850

$$$$
2PVK_P45_A_501


 29 32  0  0  0  0  0  0  0  0999 V2000
   23.8850    1.1327   22.8718 N   0  0  0  0  0  0  0  0  0  0  0  0
   22.7740    1.0448   23.6441 C   0  0  0  0  0  0  0  0  0  0  0  0
   22.0913    2.2713   23.5727 C   0  0  0  0  0  0  0  0  0  0  0  0
   22.8846    3.0954   22.6883 C   0  0  0  0  0  0  0  0  0  0  0  0
   23.9693    2.3634   22.2929 N   0  0  0  0  0  0  0  0  0  0  0  0
   22.7484    4.3493   22.2312 N   0  0  0  0  0  0  0  0  0  0  0  0
   23.6889    4.8122   21.4157 C   0  0  0  0  0  0  0  0  0  0  0  0
   24.7559    4.1226   21.0221 N   0  0  0  0  0  0  0  0  0  0  0  0
   24.8793    2.8804   21.4817 C   0  0  0  0  0  0  0  0  0  0  0  0
   25.9688    2.1479   21.1373 N   0  0  0  0  0  0  0  0  0  0  0  0
   26.6244    1.9660   21.8489 H   0  0  0  0  0  0  0  0  0  0  0  0
   26.2443    1.6397   19.9041 C   0  0  0  0  0  0  0  0  0  0  0  0
   27.3077    2.0818   19.1171 C   0  0  0  0  0  0  0  0  0  0  0  0
   27.4956    1.6082   17.8187 C   0  0  0  0  0  0  0  0  0  0  0  0
   26.6099    0.6725   17.2835 C   0  0  0  0  0  0  0  0  0  0  0  0
   25.5729    0.1879   18.0819 C   0  0  0  0  0  0  0  0  0  0  0  0
   25.3945    0.6592   19.3815 C   0  0  0  0  0  0  0  0  0  0  0  0
   23.5441    6.0797   20.9616 N   0  0  0  0  0  0  0  0  0  0  0  0
   24.1371    6.3943   20.2415 H   0  0  0  0  0  0  0  0  0  0  0  0
   22.5443    6.9980   21.4971 C   0  0  0  0  0  0  0  0  0  0  0  0
   21.7856    7.7944   20.4619 C   0  0  0  0  0  0  0  0  0  0  0  0
   20.6418    8.4894   20.8497 C   0  0  0  0  0  0  0  0  0  0  0  0
   19.9108    9.2148   19.9107 C   0  0  0  0  0  0  0  0  0  0  0  0
   20.3030    9.2530   18.5727 C   0  0  0  0  0  0  0  0  0  0  0  0
   21.4685    8.5872   18.2018 C   0  0  0  0  0  0  0  0  0  0  0  0
   22.2050    7.8532   19.1328 C   0  0  0  0  0  0  0  0  0  0  0  0
   19.3364   10.0933   17.3987 Cl  0  0  0  0  0  0  0  0  0  0  0  0
   20.8832    2.6080   24.2644 C   0  0  0  0  0  0  0  0  0  0  0  0
   19.8700    2.7875   24.7984 N   0  0  0  0  0  0  0  0  0  0  0  0
  1  2  2  0  0  0
  1  5  1  0  0  0
  2  3  1  0  0  0
  3 28  1  0  0  0
  3  4  2  0  0  0
  4  6  1  0  0  0
  4  5  1  0  0  0
  5  9  1  0  0  0
  6  7  2  0  0  0
  7 18  1  0  0  0
  7  8  1  0  0  0
  8  9  2  0  0  0
  9 10  1  0  0  0
 10 12  1  0  0  0
 12 13  2  0  0  0
 12 17  1  0  0  0
 13 14  1  0  0  0
 14 15  2  0  0  0
 15 16  1  0  0  0
 16 17  2  0  0  0
 18 20  1  0  0  0
 20 21  1  0  0  0
 21 26  1  0  0  0
 21 22  2  0  0  0
 22 23  1  0  0  0
 23 24  2  0  0  0
 24 25  1  0  0  0
 24 27  1  0  0  0
 25 26  2  0  0  0
 28 29  3  0  0  0
 10 11  1  0  0  0
 18 19  1  0  0  0
M  END
> <minimizedAffinity>
-8.25196

$$$$
2PVK_P45_A_501


 29 32  0  0  0  0  0  0  0  0999 V2000
   23.8255    4.7890   19.7383 N   0  0  0  0  0  0  0  0  0  0  0  0
   24.1125    3.5065   20.0719 C   0  0  0  0  0  0  0  0  0  0  0  0
   23.4628    3.2117   21.2829 C   0  0  0  0  0  0  0  0  0  0  0  0
   22.7592    4.4234   21.6399 C   0  0  0  0  0  0  0  0  0  0  0  0
   23.0155    5.3574   20.6751 N   0  0  0  0  0  0  0  0  0  0  0  0
   21.9674    4.7574   22.6700 N   0  0  0  0  0  0  0  0  0  0  0  0
   21.4772    5.9915   22.6942 C   0  0  0  0  0  0  0  0  0  0  0  0
   21.7169    6.9193   21.7717 N   0  0  0  0  0  0  0  0  0  0  0  0
   22.5030    6.5758   20.7552 C   0  0  0  0  0  0  0  0  0  0  0  0
   22.8063    7.4979   19.8065 N   0  0  0  0  0  0  0  0  0  0  0  0
   23.7579    7.6015   19.5765 H   0  0  0  0  0  0  0  0  0  0  0  0
   21.9237    8.2938   19.1414 C   0  0  0  0  0  0  0  0  0  0  0  0
   20.7522    8.7828   19.7194 C   0  0  0  0  0  0  0  0  0  0  0  0
   19.8242    9.5103   18.9744 C   0  0  0  0  0  0  0  0  0  0  0  0
   20.0599    9.7621   17.6226 C   0  0  0  0  0  0  0  0  0  0  0  0
   21.2528    9.3195   17.0492 C   0  0  0  0  0  0  0  0  0  0  0  0
   22.1801    8.5994   17.8007 C   0  0  0  0  0  0  0  0  0  0  0  0
   20.6811    6.3201   23.7391 N   0  0  0  0  0  0  0  0  0  0  0  0
   19.9473    5.7112   23.9839 H   0  0  0  0  0  0  0  0  0  0  0  0
   20.8675    7.5408   24.5169 C   0  0  0  0  0  0  0  0  0  0  0  0
   20.1399    7.5751   25.8401 C   0  0  0  0  0  0  0  0  0  0  0  0
   20.5342    6.7000   26.8503 C   0  0  0  0  0  0  0  0  0  0  0  0
   19.8664    6.6957   28.0736 C   0  0  0  0  0  0  0  0  0  0  0  0
   18.7934    7.5560   28.3061 C   0  0  0  0  0  0  0  0  0  0  0  0
   18.4311    8.4535   27.3049 C   0  0  0  0  0  0  0  0  0  0  0  0
   19.0893    8.4624   26.0742 C   0  0  0  0  0  0  0  0  0  0  0  0
   17.9185    7.4820   29.8054 Cl  0  0  0  0  0  0  0  0  0  0  0  0
   23.5282    1.9723   21.9976 C   0  0  0  0  0  0  0  0  0  0  0  0
   23.6704    0.9516   22.5285 N   0  0  0  0  0  0  0  0  0  0  0  0
  1  2  2  0  0  0
  1  5  1  0  0  0
  2  3  1  0  0  0
  3 28  1  0  0  0
  3  4  2  0  0  0
  4  6  1  0  0  0
  4  5  1  0  0  0
  5  9  1  0  0  0
  6  7  2  0  0  0
  7 18  1  0  0  0
  7  8  1  0  0  0
  8  9  2  0  0  0
  9 10  1  0  0  0
 10 12  1  0  0  0
 12 13  2  0  0  0
 12 17  1  0  0  0
 13 14  1  0  0  0
 14 15  2  0  0  0
 15 16  1  0  0  0
 16 17  2  0  0  0
 18 20  1  0  0  0
 20 21  1  0  0  0
 21 26  1  0  0  0
 21 22  2  0  0  0
 22 23  1  0  0  0
 23 24  2  0  0  0
 24 25  1  0  0  0
 24 27  1  0  0  0
 25 26  2  0  0  0
 28 29  3  0  0  0
 10 11  1  0  0  0
 18 19  1  0  0  0
M  END
> <minimizedAffinity>
-8.08152

$$$$
