1KDK_DHT_A_301
  RCSB PDB12061703043D
Coordinates from PDB:1KDK:A:301 Model:1 without hydrogens
 21 24  0  0  0  0            999 V2000
   24.0520   10.0270   31.5730   C 0  0  0  0  0  0  0  0  0  0  0  0
   25.5770   10.2030   31.4680   C 0  0  0  0  0  0  0  0  0  0  0  0
   26.0140   11.6250   31.6660   C 0  0  0  0  0  0  0  0  0  0  0  0
   26.8450   12.2080   30.9600   O 0  0  0  0  0  0  0  0  0  0  0  0
   25.3430   12.3870   32.7590   C 0  0  0  0  0  0  0  0  0  0  0  0
   23.8560   12.1460   32.9140   C 0  0  0  0  0  0  0  0  0  0  0  0
   23.2530   12.8000   34.1710   C 0  0  0  0  0  0  0  0  0  0  0  0
   21.7230   12.7710   34.0700   C 0  0  0  0  0  0  0  0  0  0  0  0
   21.2400   11.2890   34.0470   C 0  0  0  0  0  0  0  0  0  0  0  0
   21.8950   10.5780   32.8330   C 0  0  0  0  0  0  0  0  0  0  0  0
   23.4260   10.6590   32.8330   C 0  0  0  0  0  0  0  0  0  0  0  0
   21.4010    9.0980   32.7140   C 0  0  0  0  0  0  0  0  0  0  0  0
   19.8740    9.0050   32.7010   C 0  0  0  0  0  0  0  0  0  0  0  0
   19.2260    9.7660   33.8590   C 0  0  0  0  0  0  0  0  0  0  0  0
   19.7430   11.2230   33.8270   C 0  0  0  0  0  0  0  0  0  0  0  0
   18.8410   11.9420   34.8510   C 0  0  0  0  0  0  0  0  0  0  0  0
   17.4550   11.2710   34.6930   C 0  0  0  0  0  0  0  0  0  0  0  0
   17.7560   10.0950   33.7410   C 0  0  0  0  0  0  0  0  0  0  0  0
   16.8200    9.0140   33.9480   O 0  0  0  0  0  0  0  0  0  0  0  0
   19.5610    9.0160   35.1640   C 0  0  0  0  0  0  0  0  0  0  0  0
   24.0270    9.9370   34.0760   C 0  0  0  0  0  0  0  0  0  0  0  0
  1  2  1  0  0  0  0
  1 11  1  0  0  0  0
  2  3  1  0  0  0  0
  3  4  2  0  0  0  0
  3  5  1  0  0  0  0
  5  6  1  0  0  0  0
  6  7  1  0  0  0  0
  6 11  1  0  0  0  0
  7  8  1  0  0  0  0
  8  9  1  0  0  0  0
  9 10  1  0  0  0  0
  9 15  1  0  0  0  0
 10 11  1  0  0  0  0
 10 12  1  0  0  0  0
 11 21  1  0  0  0  0
 12 13  1  0  0  0  0
 13 14  1  0  0  0  0
 14 15  1  0  0  0  0
 14 18  1  0  0  0  0
 14 20  1  0  0  0  0
 15 16  1  0  0  0  0
 16 17  1  0  0  0  0
 17 18  1  0  0  0  0
 18 19  1  0  0  0  0
A    1
C1
A    2
C2
A    3
C3
A    4
O3
A    5
C4
A    6
C5
A    7
C6
A    8
C7
A    9
C8
A   10
C9
A   11
C10
A   12
C11
A   13
C12
A   14
C13
A   15
C14
A   16
C15
A   17
C16
A   18
C17
A   19
O17
A   20
C18
A   21
C19
M  END
>  <InstanceId>
1KDK_DHT_A_301

>  <ChemCompId>
DHT

>  <PdbId>
1KDK

>  <ChainId>
A

>  <ResidueNumber>
301

>  <InsertionCode>


>  <Model>
1

>  <AltIds>


>  <MissingHeavyAtoms>
0

>  <ObservedFormula>
C19 O2

>  <Name>
5-ALPHA-DIHYDROTESTOSTERONE

>  <SystematicName>
(5S,8R,9S,10S,13S,14S,17S)-17-hydroxy-10,13-dimethyl-1,2,4,5,6,7,8,9,11,12,14,15,16,17-tetradecahydrocyclopenta[a]phenanthren-3-one

>  <Synonyms>


>  <Type>
NON-POLYMER

>  <Formula>
C19 H30 O2

>  <MolecularWeight>
290.44

>  <ModifiedDate>
2011-06-04

>  <Parent>


>  <OneLetterCode>


>  <SubcomponentList>


>  <AmbiguousFlag>
N

>  <InChI>
InChI=1S/C19H30O2/c1-18-9-7-13(20)11-12(18)3-4-14-15-5-6-17(21)19(15,2)10-8-16(14)18/h12,14-17,21H,3-11H2,1-2H3/t12-,14-,15-,16-,17-,18-,19-/m0/s1

>  <InChIKey>
NVKAWKQGWWIWPM-ABEVXSGRSA-N

>  <SMILES>
C[C@]12CCC(=O)C[C@@H]1CC[C@@H]3[C@@H]2CC[C@]4([C@H]3CC[C@@H]4O)C

$$$$
