1C5X_ESI_B_251
  RCSB PDB12061702083D
Coordinates from PDB:1C5X:B:251 Model:1 without hydrogens
 13 14  0  0  0  0            999 V2000
    7.9510   -0.9830   25.9110   C 0  0  0  0  0  0  0  0  0  0  0  0
    8.2930    0.2880   25.5050   C 0  0  0  0  0  0  0  0  0  0  0  0
    7.3070   -1.1620   27.0290   N 0  0  0  0  0  0  0  0  0  0  0  0
    8.3420   -1.9500   25.1290   N 0  3  0  0  0  0  0  0  0  0  0  0
    9.0260    0.6610   23.8540   S 0  0  0  0  0  0  0  0  0  0  0  0
    9.1720    2.3800   24.1510   C 0  0  0  0  0  0  0  0  0  0  0  0
    8.6640    2.6270   25.4550   C 0  0  0  0  0  0  0  0  0  0  0  0
    8.2290    1.5180   26.1370   C 0  0  0  0  0  0  0  0  0  0  0  0
    9.6550    3.3990   23.3520   C 0  0  0  0  0  0  0  0  0  0  0  0
    9.6440    4.6920   23.8400   C 0  0  0  0  0  0  0  0  0  0  0  0
    9.1550    4.9540   25.1360   C 0  0  0  0  0  0  0  0  0  0  0  0
    8.6720    3.9300   25.9340   C 0  0  0  0  0  0  0  0  0  0  0  0
    8.0320    4.5270   27.8120   I 0  0  0  0  0  0  0  0  0  0  0  0
  1  2  1  0  0  0  0
  1  3  1  0  0  0  0
  1  4  2  0  0  0  0
  2  5  1  0  0  0  0
  2  8  2  0  0  0  0
  5  6  1  0  0  0  0
  6  7  2  0  0  0  0
  6  9  1  0  0  0  0
  7  8  1  0  0  0  0
  7 12  1  0  0  0  0
  9 10  2  0  0  0  0
 10 11  1  0  0  0  0
 11 12  2  0  0  0  0
 12 13  1  0  0  0  0
M  CHG  1   4   1
A    1
C0
A    2
C1
A    3
N1
A    4
N2
A    5
S2
A    6
C3
A    7
C4
A    8
C5
A    9
C6
A   10
C7
A   11
C8
A   12
C9
A   13
I9
M  END
>  <InstanceId>
1C5X_ESI_B_251

>  <ChemCompId>
ESI

>  <PdbId>
1C5X

>  <ChainId>
B

>  <ResidueNumber>
251

>  <InsertionCode>


>  <Model>
1

>  <AltIds>


>  <MissingHeavyAtoms>
0

>  <ObservedFormula>
C9 N2 S I

>  <Name>
4-IODOBENZO[B]THIOPHENE-2-CARBOXAMIDINE

>  <SystematicName>
[amino-(4-iodo-1-benzothiophen-2-yl)methylidene]azanium

>  <Synonyms>


>  <Type>
NON-POLYMER

>  <Formula>
C9 H8 I N2 S

>  <MolecularWeight>
303.143

>  <ModifiedDate>
2011-06-04

>  <Parent>


>  <OneLetterCode>


>  <SubcomponentList>


>  <AmbiguousFlag>
N

>  <InChI>
InChI=1S/C9H7IN2S/c10-6-2-1-3-7-5(6)4-8(13-7)9(11)12/h1-4H,(H3,11,12)/p+1

>  <InChIKey>
YERQOXAYAFWFEJ-UHFFFAOYSA-O

>  <SMILES>
c1cc2c(cc(s2)C(=[NH2+])N)c(c1)I

$$$$
