1C5X_ESI_B_251


 17 18  0  0  0  0  0  0  0  0999 V2000
    8.4863    0.7733   25.4764 C   0  0  0  0  0  0  0  0  0  0  0  0
    9.1667    1.3598   23.8655 S   0  0  0  0  0  0  0  0  0  0  0  0
    8.9950    3.0587   24.2514 C   0  0  0  0  0  0  0  0  0  0  0  0
    8.4296    3.1401   25.5526 C   0  0  0  0  0  0  0  0  0  0  0  0
    8.1909    1.9361   26.1671 C   0  0  0  0  0  0  0  0  0  0  0  0
    9.2990    4.1892   23.5169 C   0  0  0  0  0  0  0  0  0  0  0  0
    9.0468    5.4311   24.0683 C   0  0  0  0  0  0  0  0  0  0  0  0
    8.4974    5.5312   25.3627 C   0  0  0  0  0  0  0  0  0  0  0  0
    8.1943    4.3958   26.0960 C   0  0  0  0  0  0  0  0  0  0  0  0
    7.4265    4.7666   27.9843 I   0  0  0  0  0  0  0  0  0  0  0  0
    8.3728   -0.5584   25.8096 C   0  0  0  0  0  0  0  0  0  0  0  0
    8.4329   -1.4724   24.8835 N   0  0  0  0  0  0  0  0  0  0  0  0
    8.1742   -0.8093   27.0734 N   0  0  0  0  0  0  0  0  0  0  0  0
    8.5859   -1.2138   23.9460 H   0  0  0  0  0  0  0  0  0  0  0  0
    8.3254   -2.4217   25.1211 H   0  0  0  0  0  0  0  0  0  0  0  0
    8.1398   -0.0700   27.7226 H   0  0  0  0  0  0  0  0  0  0  0  0
    8.0587   -1.7382   27.3786 H   0  0  0  0  0  0  0  0  0  0  0  0
 11  1  1  0  0  0
 11 12  1  0  0  0
 11 13  2  0  0  0
  1  2  1  0  0  0
  1  5  2  0  0  0
  2  3  1  0  0  0
  3  4  2  0  0  0
  3  6  1  0  0  0
  4  5  1  0  0  0
  4  9  1  0  0  0
  6  7  2  0  0  0
  7  8  1  0  0  0
  8  9  2  0  0  0
  9 10  1  0  0  0
 12 14  1  0  0  0
 12 15  1  0  0  0
 13 16  1  0  0  0
 13 17  1  0  0  0
M  CHG 1  13   1
M  END
> <minimizedAffinity>
-6.75371

$$$$
1C5X_ESI_B_251


 17 18  0  0  0  0  0  0  0  0999 V2000
    8.8589    2.8809   24.4751 C   0  0  0  0  0  0  0  0  0  0  0  0
    8.5436    2.1670   26.1464 S   0  0  0  0  0  0  0  0  0  0  0  0
    8.0934    3.6965   26.8691 C   0  0  0  0  0  0  0  0  0  0  0  0
    8.2014    4.6886   25.8574 C   0  0  0  0  0  0  0  0  0  0  0  0
    8.5870    4.2303   24.6223 C   0  0  0  0  0  0  0  0  0  0  0  0
    7.7049    4.0093   28.1580 C   0  0  0  0  0  0  0  0  0  0  0  0
    7.4118    5.3243   28.4661 C   0  0  0  0  0  0  0  0  0  0  0  0
    7.5018    6.3199   27.4721 C   0  0  0  0  0  0  0  0  0  0  0  0
    7.8912    6.0025   26.1813 C   0  0  0  0  0  0  0  0  0  0  0  0
    7.9266    7.6068   24.8706 I   0  0  0  0  0  0  0  0  0  0  0  0
    9.2504    2.1258   23.3917 C   0  0  0  0  0  0  0  0  0  0  0  0
    9.6826    2.7083   22.3097 N   0  0  0  0  0  0  0  0  0  0  0  0
    9.1230    0.8355   23.5269 N   0  0  0  0  0  0  0  0  0  0  0  0
    9.7548    3.6895   22.2741 H   0  0  0  0  0  0  0  0  0  0  0  0
    9.9371    2.1673   21.5275 H   0  0  0  0  0  0  0  0  0  0  0  0
    8.7896    0.4599   24.3737 H   0  0  0  0  0  0  0  0  0  0  0  0
    9.3602    0.2367   22.7824 H   0  0  0  0  0  0  0  0  0  0  0  0
 11  1  1  0  0  0
 11 12  1  0  0  0
 11 13  2  0  0  0
  1  2  1  0  0  0
  1  5  2  0  0  0
  2  3  1  0  0  0
  3  4  2  0  0  0
  3  6  1  0  0  0
  4  5  1  0  0  0
  4  9  1  0  0  0
  6  7  2  0  0  0
  7  8  1  0  0  0
  8  9  2  0  0  0
  9 10  1  0  0  0
 12 14  1  0  0  0
 12 15  1  0  0  0
 13 16  1  0  0  0
 13 17  1  0  0  0
M  CHG 1  13   1
M  END
> <minimizedAffinity>
-5.51454

$$$$
1C5X_ESI_B_251


 17 18  0  0  0  0  0  0  0  0999 V2000
    8.4636    3.3350   24.8553 C   0  0  0  0  0  0  0  0  0  0  0  0
    9.9370    4.1502   24.1025 S   0  0  0  0  0  0  0  0  0  0  0  0
    9.0820    5.6164   23.6742 C   0  0  0  0  0  0  0  0  0  0  0  0
    7.7326    5.4539   24.0892 C   0  0  0  0  0  0  0  0  0  0  0  0
    7.4476    4.2643   24.7120 C   0  0  0  0  0  0  0  0  0  0  0  0
    9.5170    6.7669   23.0438 C   0  0  0  0  0  0  0  0  0  0  0  0
    8.6116    7.7857   22.8153 C   0  0  0  0  0  0  0  0  0  0  0  0
    7.2718    7.6469   23.2311 C   0  0  0  0  0  0  0  0  0  0  0  0
    6.8395    6.4924   23.8629 C   0  0  0  0  0  0  0  0  0  0  0  0
    4.8437    6.5077   24.4191 I   0  0  0  0  0  0  0  0  0  0  0  0
    8.5017    2.0822   25.4265 C   0  0  0  0  0  0  0  0  0  0  0  0
    9.0422    1.0861   24.7843 N   0  0  0  0  0  0  0  0  0  0  0  0
    7.9429    1.9793   26.5998 N   0  0  0  0  0  0  0  0  0  0  0  0
    9.4481    1.2331   23.8995 H   0  0  0  0  0  0  0  0  0  0  0  0
    9.0447    0.1863   25.1838 H   0  0  0  0  0  0  0  0  0  0  0  0
    7.5522    2.7738   27.0304 H   0  0  0  0  0  0  0  0  0  0  0  0
    7.9115    1.1071   27.0553 H   0  0  0  0  0  0  0  0  0  0  0  0
 11  1  1  0  0  0
 11 12  1  0  0  0
 11 13  2  0  0  0
  1  2  1  0  0  0
  1  5  2  0  0  0
  2  3  1  0  0  0
  3  4  2  0  0  0
  3  6  1  0  0  0
  4  5  1  0  0  0
  4  9  1  0  0  0
  6  7  2  0  0  0
  7  8  1  0  0  0
  8  9  2  0  0  0
  9 10  1  0  0  0
 12 14  1  0  0  0
 12 15  1  0  0  0
 13 16  1  0  0  0
 13 17  1  0  0  0
M  CHG 1  13   1
M  END
> <minimizedAffinity>
-5.26169

$$$$
1C5X_ESI_B_251


 17 18  0  0  0  0  0  0  0  0999 V2000
    8.8961    1.9312   24.7113 C   0  0  0  0  0  0  0  0  0  0  0  0
    8.4854    2.0381   26.5063 S   0  0  0  0  0  0  0  0  0  0  0  0
    8.0883    3.7423   26.4577 C   0  0  0  0  0  0  0  0  0  0  0  0
    8.2828    4.1823   25.1205 C   0  0  0  0  0  0  0  0  0  0  0  0
    8.6884    3.2145   24.2355 C   0  0  0  0  0  0  0  0  0  0  0  0
    7.6705    4.6034   27.4547 C   0  0  0  0  0  0  0  0  0  0  0  0
    7.4341    5.9275   27.1372 C   0  0  0  0  0  0  0  0  0  0  0  0
    7.6101    6.3790   25.8133 C   0  0  0  0  0  0  0  0  0  0  0  0
    8.0287    5.5129   24.8166 C   0  0  0  0  0  0  0  0  0  0  0  0
    8.1926    6.3721   22.9384 I   0  0  0  0  0  0  0  0  0  0  0  0
    9.2870    0.7641   24.0930 C   0  0  0  0  0  0  0  0  0  0  0  0
    8.5280   -0.2929   24.1502 N   0  0  0  0  0  0  0  0  0  0  0  0
   10.4482    0.7999   23.5014 N   0  0  0  0  0  0  0  0  0  0  0  0
    7.6606   -0.2516   24.6139 H   0  0  0  0  0  0  0  0  0  0  0  0
    8.8219   -1.1333   23.7297 H   0  0  0  0  0  0  0  0  0  0  0  0
   10.9719    1.6335   23.4951 H   0  0  0  0  0  0  0  0  0  0  0  0
   10.8013   -0.0066   23.0609 H   0  0  0  0  0  0  0  0  0  0  0  0
 11  1  1  0  0  0
 11 12  1  0  0  0
 11 13  2  0  0  0
  1  2  1  0  0  0
  1  5  2  0  0  0
  2  3  1  0  0  0
  3  4  2  0  0  0
  3  6  1  0  0  0
  4  5  1  0  0  0
  4  9  1  0  0  0
  6  7  2  0  0  0
  7  8  1  0  0  0
  8  9  2  0  0  0
  9 10  1  0  0  0
 12 14  1  0  0  0
 12 15  1  0  0  0
 13 16  1  0  0  0
 13 17  1  0  0  0
M  CHG 1  13   1
M  END
> <minimizedAffinity>
-5.19949

$$$$
1C5X_ESI_B_251


 17 18  0  0  0  0  0  0  0  0999 V2000
    9.2818    3.6979   23.9155 C   0  0  0  0  0  0  0  0  0  0  0  0
    7.8916    4.1343   25.0464 S   0  0  0  0  0  0  0  0  0  0  0  0
    8.4348    5.7778   25.3079 C   0  0  0  0  0  0  0  0  0  0  0  0
    9.6321    5.9496   24.5619 C   0  0  0  0  0  0  0  0  0  0  0  0
   10.0369    4.8556   23.8385 C   0  0  0  0  0  0  0  0  0  0  0  0
    7.9013    6.7965   26.0745 C   0  0  0  0  0  0  0  0  0  0  0  0
    8.5524    8.0151   26.1114 C   0  0  0  0  0  0  0  0  0  0  0  0
    9.7347    8.2074   25.3681 C   0  0  0  0  0  0  0  0  0  0  0  0
   10.2662    7.1840   24.6006 C   0  0  0  0  0  0  0  0  0  0  0  0
   11.9880    7.6868   23.5637 I   0  0  0  0  0  0  0  0  0  0  0  0
    9.4132    2.4627   23.3202 C   0  0  0  0  0  0  0  0  0  0  0  0
    9.2219    1.3776   24.0149 N   0  0  0  0  0  0  0  0  0  0  0  0
    9.7642    2.4753   22.0648 N   0  0  0  0  0  0  0  0  0  0  0  0
    8.9572    1.4391   24.9611 H   0  0  0  0  0  0  0  0  0  0  0  0
    9.3421    0.4959   23.5937 H   0  0  0  0  0  0  0  0  0  0  0  0
    9.8924    3.3327   21.5981 H   0  0  0  0  0  0  0  0  0  0  0  0
    9.9011    1.6276   21.5834 H   0  0  0  0  0  0  0  0  0  0  0  0
 11  1  1  0  0  0
 11 12  1  0  0  0
 11 13  2  0  0  0
  1  2  1  0  0  0
  1  5  2  0  0  0
  2  3  1  0  0  0
  3  4  2  0  0  0
  3  6  1  0  0  0
  4  5  1  0  0  0
  4  9  1  0  0  0
  6  7  2  0  0  0
  7  8  1  0  0  0
  8  9  2  0  0  0
  9 10  1  0  0  0
 12 14  1  0  0  0
 12 15  1  0  0  0
 13 16  1  0  0  0
 13 17  1  0  0  0
M  CHG 1  13   1
M  END
> <minimizedAffinity>
-5.11152

$$$$
1C5X_ESI_B_251


 17 18  0  0  0  0  0  0  0  0999 V2000
    8.5967    4.5911   24.4466 C   0  0  0  0  0  0  0  0  0  0  0  0
    8.4508    3.2289   25.6816 S   0  0  0  0  0  0  0  0  0  0  0  0
    7.9630    4.2808   26.9931 C   0  0  0  0  0  0  0  0  0  0  0  0
    7.9347    5.6064   26.4817 C   0  0  0  0  0  0  0  0  0  0  0  0
    8.2546    5.7316   25.1528 C   0  0  0  0  0  0  0  0  0  0  0  0
    7.6531    4.0012   28.3106 C   0  0  0  0  0  0  0  0  0  0  0  0
    7.3040    5.0426   29.1495 C   0  0  0  0  0  0  0  0  0  0  0  0
    7.2588    6.3625   28.6564 C   0  0  0  0  0  0  0  0  0  0  0  0
    7.5698    6.6388   27.3352 C   0  0  0  0  0  0  0  0  0  0  0  0
    7.4096    8.6366   26.8097 I   0  0  0  0  0  0  0  0  0  0  0  0
    8.9519    4.3851   23.1318 C   0  0  0  0  0  0  0  0  0  0  0  0
    9.3725    3.2153   22.7429 N   0  0  0  0  0  0  0  0  0  0  0  0
    8.8663    5.4276   22.3538 N   0  0  0  0  0  0  0  0  0  0  0  0
    9.4124    2.4686   23.3833 H   0  0  0  0  0  0  0  0  0  0  0  0
    9.6505    3.0778   21.8085 H   0  0  0  0  0  0  0  0  0  0  0  0
    8.5393    6.2841   22.7126 H   0  0  0  0  0  0  0  0  0  0  0  0
    9.1287    5.3584   21.4074 H   0  0  0  0  0  0  0  0  0  0  0  0
 11  1  1  0  0  0
 11 12  1  0  0  0
 11 13  2  0  0  0
  1  2  1  0  0  0
  1  5  2  0  0  0
  2  3  1  0  0  0
  3  4  2  0  0  0
  3  6  1  0  0  0
  4  5  1  0  0  0
  4  9  1  0  0  0
  6  7  2  0  0  0
  7  8  1  0  0  0
  8  9  2  0  0  0
  9 10  1  0  0  0
 12 14  1  0  0  0
 12 15  1  0  0  0
 13 16  1  0  0  0
 13 17  1  0  0  0
M  CHG 1  13   1
M  END
> <minimizedAffinity>
-5.00294

$$$$
1C5X_ESI_B_251


 17 18  0  0  0  0  0  0  0  0999 V2000
    7.9248    4.1387   26.9411 C   0  0  0  0  0  0  0  0  0  0  0  0
    8.5446    5.0524   25.4635 S   0  0  0  0  0  0  0  0  0  0  0  0
    8.8622    3.6070   24.5284 C   0  0  0  0  0  0  0  0  0  0  0  0
    8.5122    2.4945   25.3403 C   0  0  0  0  0  0  0  0  0  0  0  0
    8.0152    2.8049   26.5816 C   0  0  0  0  0  0  0  0  0  0  0  0
    9.3651    3.4475   23.2511 C   0  0  0  0  0  0  0  0  0  0  0  0
    9.5280    2.1686   22.7529 C   0  0  0  0  0  0  0  0  0  0  0  0
    9.1748    1.0535   23.5397 C   0  0  0  0  0  0  0  0  0  0  0  0
    8.6707    1.2174   24.8194 C   0  0  0  0  0  0  0  0  0  0  0  0
    8.1863   -0.5480   25.7897 I   0  0  0  0  0  0  0  0  0  0  0  0
    7.4736    4.7638   28.0826 C   0  0  0  0  0  0  0  0  0  0  0  0
    6.6846    5.7964   27.9951 N   0  0  0  0  0  0  0  0  0  0  0  0
    7.9146    4.2731   29.2070 N   0  0  0  0  0  0  0  0  0  0  0  0
    6.3881    6.1161   27.1124 H   0  0  0  0  0  0  0  0  0  0  0  0
    6.3846    6.2573   28.8118 H   0  0  0  0  0  0  0  0  0  0  0  0
    8.5096    3.4887   29.2021 H   0  0  0  0  0  0  0  0  0  0  0  0
    7.6526    4.6869   30.0610 H   0  0  0  0  0  0  0  0  0  0  0  0
 11  1  1  0  0  0
 11 12  1  0  0  0
 11 13  2  0  0  0
  1  2  1  0  0  0
  1  5  2  0  0  0
  2  3  1  0  0  0
  3  4  2  0  0  0
  3  6  1  0  0  0
  4  5  1  0  0  0
  4  9  1  0  0  0
  6  7  2  0  0  0
  7  8  1  0  0  0
  8  9  2  0  0  0
  9 10  1  0  0  0
 12 14  1  0  0  0
 12 15  1  0  0  0
 13 16  1  0  0  0
 13 17  1  0  0  0
M  CHG 1  13   1
M  END
> <minimizedAffinity>
-4.98390

$$$$
1C5X_ESI_B_251


 17 18  0  0  0  0  0  0  0  0999 V2000
    9.2521    5.3634   23.6737 C   0  0  0  0  0  0  0  0  0  0  0  0
    9.5306    3.7353   22.8529 S   0  0  0  0  0  0  0  0  0  0  0  0
    9.0357    2.7919   24.2420 C   0  0  0  0  0  0  0  0  0  0  0  0
    8.6918    3.7079   25.2726 C   0  0  0  0  0  0  0  0  0  0  0  0
    8.8011    5.0354   24.9408 C   0  0  0  0  0  0  0  0  0  0  0  0
    8.9635    1.4244   24.4285 C   0  0  0  0  0  0  0  0  0  0  0  0
    8.5421    0.9391   25.6520 C   0  0  0  0  0  0  0  0  0  0  0  0
    8.1852    1.8331   26.6820 C   0  0  0  0  0  0  0  0  0  0  0  0
    8.2586    3.2031   26.4911 C   0  0  0  0  0  0  0  0  0  0  0  0
    7.6589    4.3354   28.1194 I   0  0  0  0  0  0  0  0  0  0  0  0
    9.4594    6.5720   23.0464 C   0  0  0  0  0  0  0  0  0  0  0  0
    8.4693    7.4021   22.8809 N   0  0  0  0  0  0  0  0  0  0  0  0
   10.6730    6.7868   22.6213 N   0  0  0  0  0  0  0  0  0  0  0  0
    7.5757    7.1777   23.2277 H   0  0  0  0  0  0  0  0  0  0  0  0
    8.6146    8.2538   22.4090 H   0  0  0  0  0  0  0  0  0  0  0  0
   11.3761    6.1162   22.7801 H   0  0  0  0  0  0  0  0  0  0  0  0
   10.8863    7.6195   22.1414 H   0  0  0  0  0  0  0  0  0  0  0  0
 11  1  1  0  0  0
 11 12  1  0  0  0
 11 13  2  0  0  0
  1  2  1  0  0  0
  1  5  2  0  0  0
  2  3  1  0  0  0
  3  4  2  0  0  0
  3  6  1  0  0  0
  4  5  1  0  0  0
  4  9  1  0  0  0
  6  7  2  0  0  0
  7  8  1  0  0  0
  8  9  2  0  0  0
  9 10  1  0  0  0
 12 14  1  0  0  0
 12 15  1  0  0  0
 13 16  1  0  0  0
 13 17  1  0  0  0
M  CHG 1  13   1
M  END
> <minimizedAffinity>
-4.90017

$$$$
1C5X_ESI_B_251


 17 18  0  0  0  0  0  0  0  0999 V2000
    7.3920    6.7416   23.9384 C   0  0  0  0  0  0  0  0  0  0  0  0
    6.9444    6.9937   25.7099 S   0  0  0  0  0  0  0  0  0  0  0  0
    7.5358    5.4294   26.2275 C   0  0  0  0  0  0  0  0  0  0  0  0
    8.0343    4.7648   25.0745 C   0  0  0  0  0  0  0  0  0  0  0  0
    7.9583    5.4789   23.9046 C   0  0  0  0  0  0  0  0  0  0  0  0
    7.5574    4.8375   27.4762 C   0  0  0  0  0  0  0  0  0  0  0  0
    8.0817    3.5650   27.6026 C   0  0  0  0  0  0  0  0  0  0  0  0
    8.5918    2.8954   26.4718 C   0  0  0  0  0  0  0  0  0  0  0  0
    8.5687    3.4920   25.2219 C   0  0  0  0  0  0  0  0  0  0  0  0
    9.3961    2.3498   23.7041 I   0  0  0  0  0  0  0  0  0  0  0  0
    7.1810    7.6906   22.9626 C   0  0  0  0  0  0  0  0  0  0  0  0
    6.1323    8.4614   23.0150 N   0  0  0  0  0  0  0  0  0  0  0  0
    8.0663    7.7237   22.0063 N   0  0  0  0  0  0  0  0  0  0  0  0
    5.5018    8.3844   23.7672 H   0  0  0  0  0  0  0  0  0  0  0  0
    5.9701    9.1210   22.3023 H   0  0  0  0  0  0  0  0  0  0  0  0
    8.8374    7.1119   22.0278 H   0  0  0  0  0  0  0  0  0  0  0  0
    7.9639    8.3606   21.2625 H   0  0  0  0  0  0  0  0  0  0  0  0
 11  1  1  0  0  0
 11 12  1  0  0  0
 11 13  2  0  0  0
  1  2  1  0  0  0
  1  5  2  0  0  0
  2  3  1  0  0  0
  3  4  2  0  0  0
  3  6  1  0  0  0
  4  5  1  0  0  0
  4  9  1  0  0  0
  6  7  2  0  0  0
  7  8  1  0  0  0
  8  9  2  0  0  0
  9 10  1  0  0  0
 12 14  1  0  0  0
 12 15  1  0  0  0
 13 16  1  0  0  0
 13 17  1  0  0  0
M  CHG 1  13   1
M  END
> <minimizedAffinity>
-4.82882

$$$$
1C5X_ESI_B_251


 17 18  0  0  0  0  0  0  0  0999 V2000
    9.1741    3.7599   24.1119 C   0  0  0  0  0  0  0  0  0  0  0  0
    8.8953    5.3004   23.1364 S   0  0  0  0  0  0  0  0  0  0  0  0
    8.1582    6.1740   24.4623 C   0  0  0  0  0  0  0  0  0  0  0  0
    8.1298    5.2974   25.5805 C   0  0  0  0  0  0  0  0  0  0  0  0
    8.6780    4.0567   25.3698 C   0  0  0  0  0  0  0  0  0  0  0  0
    7.6521    7.4582   24.5300 C   0  0  0  0  0  0  0  0  0  0  0  0
    7.1066    7.8986   25.7211 C   0  0  0  0  0  0  0  0  0  0  0  0
    7.0810    7.0469   26.8442 C   0  0  0  0  0  0  0  0  0  0  0  0
    7.5895    5.7605   26.7725 C   0  0  0  0  0  0  0  0  0  0  0  0
    7.4824    4.6894   28.5429 I   0  0  0  0  0  0  0  0  0  0  0  0
    9.7786    2.6358   23.5941 C   0  0  0  0  0  0  0  0  0  0  0  0
   10.9085    2.7362   22.9537 N   0  0  0  0  0  0  0  0  0  0  0  0
    9.1311    1.5172   23.7644 N   0  0  0  0  0  0  0  0  0  0  0  0
   11.3457    3.6135   22.8614 H   0  0  0  0  0  0  0  0  0  0  0  0
   11.3252    1.9349   22.5620 H   0  0  0  0  0  0  0  0  0  0  0  0
    8.2802    1.5115   24.2596 H   0  0  0  0  0  0  0  0  0  0  0  0
    9.4929    0.6782   23.3978 H   0  0  0  0  0  0  0  0  0  0  0  0
 11  1  1  0  0  0
 11 12  1  0  0  0
 11 13  2  0  0  0
  1  2  1  0  0  0
  1  5  2  0  0  0
  2  3  1  0  0  0
  3  4  2  0  0  0
  3  6  1  0  0  0
  4  5  1  0  0  0
  4  9  1  0  0  0
  6  7  2  0  0  0
  7  8  1  0  0  0
  8  9  2  0  0  0
  9 10  1  0  0  0
 12 14  1  0  0  0
 12 15  1  0  0  0
 13 16  1  0  0  0
 13 17  1  0  0  0
M  CHG 1  13   1
M  END
> <minimizedAffinity>
-4.82587

$$$$
