3BEX_PAU_A_248


 19 18  0  0  0  0  0  0  0  0999 V2000
    4.7828   13.0439   18.3320 C   0  0  0  0  0  0  0  0  0  0  0  0
    5.8582   12.6865   18.9029 O   0  0  0  0  0  0  0  0  0  0  0  0
    4.3278   14.1973   18.4616 N   0  0  0  0  0  0  0  0  0  0  0  0
    3.4601   14.3842   18.0358 H   0  0  0  0  0  0  0  0  0  0  0  0
    4.0494   12.0321   17.4806 C   0  0  0  0  0  0  0  0  0  0  0  0
    4.2998   10.7583   18.0186 O   0  0  0  0  0  0  0  0  0  0  0  0
    5.2458   10.5568   17.9456 H   0  0  0  0  0  0  0  0  0  0  0  0
    4.3332   12.0209   15.9877 C   0  0  0  0  0  0  0  0  0  0  0  0
    5.6645   12.6373   15.6811 C   0  0  0  0  0  0  0  0  0  0  0  0
    4.2800   10.5892   15.5028 C   0  0  0  0  0  0  0  0  0  0  0  0
    3.1578   14.1152   15.7560 O   0  0  0  0  0  0  0  0  0  0  0  0
    3.2581   12.8140   15.2865 C   0  0  0  0  0  0  0  0  0  0  0  0
    2.4554   14.5795   15.2744 H   0  0  0  0  0  0  0  0  0  0  0  0
    4.9497   15.2804   19.1738 C   0  0  0  0  0  0  0  0  0  0  0  0
    4.1772   16.5760   18.9346 C   0  0  0  0  0  0  0  0  0  0  0  0
    4.1197   17.0725   17.5149 C   0  0  0  0  0  0  0  0  0  0  0  0
    5.0263   17.6872   17.0247 O   0  0  0  0  0  0  0  0  0  0  0  0
    3.1142   16.7736   16.8880 O   0  0  0  0  0  0  0  0  0  0  0  0
    5.7813   17.8977   17.5382 H   0  0  0  0  0  0  0  0  0  0  0  0
 11 12  1  0  0  0
  8 12  1  0  0  0
  8  9  1  0  0  0
  8 10  1  0  0  0
  8  5  1  0  0  0
  5  6  1  0  0  0
  5  1  1  0  0  0
  1  2  2  0  0  0
  1  3  1  0  0  0
  3 14  1  0  0  0
 14 15  1  0  0  0
 15 16  1  0  0  0
 16 17  1  0  0  0
 16 18  2  0  0  0
 11 13  1  0  0  0
  6  7  1  0  0  0
  3  4  1  0  0  0
 17 19  1  0  0  0
M  END
> <minimizedAffinity>
-7.16680

$$$$
3BEX_PAU_A_248


 19 18  0  0  0  0  0  0  0  0999 V2000
    3.8749   13.4004   16.9623 C   0  0  0  0  0  0  0  0  0  0  0  0
    3.3027   12.7013   17.8534 O   0  0  0  0  0  0  0  0  0  0  0  0
    4.5659   14.3951   17.2577 N   0  0  0  0  0  0  0  0  0  0  0  0
    4.9314   14.9214   16.5103 H   0  0  0  0  0  0  0  0  0  0  0  0
    3.7008   13.0028   15.5139 C   0  0  0  0  0  0  0  0  0  0  0  0
    2.3634   12.6098   15.3357 O   0  0  0  0  0  0  0  0  0  0  0  0
    2.1848   11.8197   15.8694 H   0  0  0  0  0  0  0  0  0  0  0  0
    4.6259   11.9350   14.9541 C   0  0  0  0  0  0  0  0  0  0  0  0
    4.1331   11.4241   13.6340 C   0  0  0  0  0  0  0  0  0  0  0  0
    6.0108   12.5275   14.8174 C   0  0  0  0  0  0  0  0  0  0  0  0
    3.4671   10.1255   16.0516 O   0  0  0  0  0  0  0  0  0  0  0  0
    4.6811   10.7851   15.9295 C   0  0  0  0  0  0  0  0  0  0  0  0
    3.5566    9.3985   16.6875 H   0  0  0  0  0  0  0  0  0  0  0  0
    4.8798   14.8468   18.5860 C   0  0  0  0  0  0  0  0  0  0  0  0
    4.4191   16.2912   18.7703 C   0  0  0  0  0  0  0  0  0  0  0  0
    4.1565   17.0788   17.5149 C   0  0  0  0  0  0  0  0  0  0  0  0
    5.0168   17.7265   16.9854 O   0  0  0  0  0  0  0  0  0  0  0  0
    3.0295   16.9811   17.0525 O   0  0  0  0  0  0  0  0  0  0  0  0
    5.8693   17.7772   17.3709 H   0  0  0  0  0  0  0  0  0  0  0  0
 11 12  1  0  0  0
  8 12  1  0  0  0
  8  9  1  0  0  0
  8 10  1  0  0  0
  8  5  1  0  0  0
  5  6  1  0  0  0
  5  1  1  0  0  0
  1  2  2  0  0  0
  1  3  1  0  0  0
  3 14  1  0  0  0
 14 15  1  0  0  0
 15 16  1  0  0  0
 16 17  1  0  0  0
 16 18  2  0  0  0
 11 13  1  0  0  0
  6  7  1  0  0  0
  3  4  1  0  0  0
 17 19  1  0  0  0
M  END
> <minimizedAffinity>
-6.94063

$$$$
3BEX_PAU_A_248


 19 18  0  0  0  0  0  0  0  0999 V2000
    4.7699   12.6151   18.0143 C   0  0  0  0  0  0  0  0  0  0  0  0
    5.9046   12.3126   18.4951 O   0  0  0  0  0  0  0  0  0  0  0  0
    4.3176   13.7743   18.0900 N   0  0  0  0  0  0  0  0  0  0  0  0
    3.4070   13.9205   17.7455 H   0  0  0  0  0  0  0  0  0  0  0  0
    3.9616   11.5297   17.3398 C   0  0  0  0  0  0  0  0  0  0  0  0
    4.3281   10.3019   17.9167 O   0  0  0  0  0  0  0  0  0  0  0  0
    5.2615   10.1203   17.7248 H   0  0  0  0  0  0  0  0  0  0  0  0
    4.0366   11.4252   15.8256 C   0  0  0  0  0  0  0  0  0  0  0  0
    5.3361   11.9612   15.3057 C   0  0  0  0  0  0  0  0  0  0  0  0
    3.8612    9.9736   15.4383 C   0  0  0  0  0  0  0  0  0  0  0  0
    3.0632   13.5946   15.4164 O   0  0  0  0  0  0  0  0  0  0  0  0
    2.9070   12.2291   15.2302 C   0  0  0  0  0  0  0  0  0  0  0  0
    2.3138   14.0632   15.0167 H   0  0  0  0  0  0  0  0  0  0  0  0
    4.9993   14.9181   18.6324 C   0  0  0  0  0  0  0  0  0  0  0  0
    4.5270   15.1801   20.0609 C   0  0  0  0  0  0  0  0  0  0  0  0
    3.7799   14.0625   20.7380 C   0  0  0  0  0  0  0  0  0  0  0  0
    4.3528   13.1432   21.2542 O   0  0  0  0  0  0  0  0  0  0  0  0
    2.5634   14.1755   20.7629 O   0  0  0  0  0  0  0  0  0  0  0  0
    5.2875   13.0914   21.2137 H   0  0  0  0  0  0  0  0  0  0  0  0
 11 12  1  0  0  0
  8 12  1  0  0  0
  8  9  1  0  0  0
  8 10  1  0  0  0
  8  5  1  0  0  0
  5  6  1  0  0  0
  5  1  1  0  0  0
  1  2  2  0  0  0
  1  3  1  0  0  0
  3 14  1  0  0  0
 14 15  1  0  0  0
 15 16  1  0  0  0
 16 17  1  0  0  0
 16 18  2  0  0  0
 11 13  1  0  0  0
  6  7  1  0  0  0
  3  4  1  0  0  0
 17 19  1  0  0  0
M  END
> <minimizedAffinity>
-6.56938

$$$$
3BEX_PAU_A_248


 19 18  0  0  0  0  0  0  0  0999 V2000
    5.0908   13.2825   18.5854 C   0  0  0  0  0  0  0  0  0  0  0  0
    6.1900   12.9314   19.1131 O   0  0  0  0  0  0  0  0  0  0  0  0
    4.0899   13.5488   19.2793 N   0  0  0  0  0  0  0  0  0  0  0  0
    3.2571   13.7582   18.7979 H   0  0  0  0  0  0  0  0  0  0  0  0
    5.0123   13.3720   17.0780 C   0  0  0  0  0  0  0  0  0  0  0  0
    4.0664   14.3603   16.7566 O   0  0  0  0  0  0  0  0  0  0  0  0
    3.1909   14.0839   17.0696 H   0  0  0  0  0  0  0  0  0  0  0  0
    4.7043   12.0999   16.3059 C   0  0  0  0  0  0  0  0  0  0  0  0
    5.1667   12.1998   14.8837 C   0  0  0  0  0  0  0  0  0  0  0  0
    5.3757   10.9409   17.0086 C   0  0  0  0  0  0  0  0  0  0  0  0
    2.5708   12.4881   15.2481 O   0  0  0  0  0  0  0  0  0  0  0  0
    3.2118   11.8787   16.3165 C   0  0  0  0  0  0  0  0  0  0  0  0
    1.6177   12.3160   15.3019 H   0  0  0  0  0  0  0  0  0  0  0  0
    4.0362   13.5793   20.7157 C   0  0  0  0  0  0  0  0  0  0  0  0
    4.1635   15.0174   21.2139 C   0  0  0  0  0  0  0  0  0  0  0  0
    4.0511   16.1014   20.1757 C   0  0  0  0  0  0  0  0  0  0  0  0
    5.0072   16.4889   19.5628 O   0  0  0  0  0  0  0  0  0  0  0  0
    2.9237   16.5264   19.9715 O   0  0  0  0  0  0  0  0  0  0  0  0
    5.8562   16.1386   19.7484 H   0  0  0  0  0  0  0  0  0  0  0  0
 11 12  1  0  0  0
  8 12  1  0  0  0
  8  9  1  0  0  0
  8 10  1  0  0  0
  8  5  1  0  0  0
  5  6  1  0  0  0
  5  1  1  0  0  0
  1  2  2  0  0  0
  1  3  1  0  0  0
  3 14  1  0  0  0
 14 15  1  0  0  0
 15 16  1  0  0  0
 16 17  1  0  0  0
 16 18  2  0  0  0
 11 13  1  0  0  0
  6  7  1  0  0  0
  3  4  1  0  0  0
 17 19  1  0  0  0
M  END
> <minimizedAffinity>
-6.51603

$$$$
3BEX_PAU_A_248


 19 18  0  0  0  0  0  0  0  0999 V2000
    3.2394   10.6020   15.4421 C   0  0  0  0  0  0  0  0  0  0  0  0
    3.0782    9.6323   16.2446 O   0  0  0  0  0  0  0  0  0  0  0  0
    3.1949   10.4405   14.2068 N   0  0  0  0  0  0  0  0  0  0  0  0
    3.3858   11.2278   13.6475 H   0  0  0  0  0  0  0  0  0  0  0  0
    3.4926   11.9774   16.0171 C   0  0  0  0  0  0  0  0  0  0  0  0
    2.7723   12.9036   15.2439 O   0  0  0  0  0  0  0  0  0  0  0  0
    3.1189   12.9075   14.3379 H   0  0  0  0  0  0  0  0  0  0  0  0
    4.9349   12.4366   16.1518 C   0  0  0  0  0  0  0  0  0  0  0  0
    5.7580   11.4352   16.9041 C   0  0  0  0  0  0  0  0  0  0  0  0
    5.4961   12.6597   14.7651 C   0  0  0  0  0  0  0  0  0  0  0  0
    3.9230   13.8536   17.8220 O   0  0  0  0  0  0  0  0  0  0  0  0
    4.9563   13.7449   16.9032 C   0  0  0  0  0  0  0  0  0  0  0  0
    3.9824   14.7089   18.2757 H   0  0  0  0  0  0  0  0  0  0  0  0
    2.8914    9.2137   13.5211 C   0  0  0  0  0  0  0  0  0  0  0  0
    3.5020    9.2315   12.1214 C   0  0  0  0  0  0  0  0  0  0  0  0
    3.2088   10.4411   11.2749 C   0  0  0  0  0  0  0  0  0  0  0  0
    2.3962   11.2599   11.6054 O   0  0  0  0  0  0  0  0  0  0  0  0
    3.8782   10.5531   10.2587 O   0  0  0  0  0  0  0  0  0  0  0  0
    1.9020   11.1385   12.3921 H   0  0  0  0  0  0  0  0  0  0  0  0
 11 12  1  0  0  0
  8 12  1  0  0  0
  8  9  1  0  0  0
  8 10  1  0  0  0
  8  5  1  0  0  0
  5  6  1  0  0  0
  5  1  1  0  0  0
  1  2  2  0  0  0
  1  3  1  0  0  0
  3 14  1  0  0  0
 14 15  1  0  0  0
 15 16  1  0  0  0
 16 17  1  0  0  0
 16 18  2  0  0  0
 11 13  1  0  0  0
  6  7  1  0  0  0
  3  4  1  0  0  0
 17 19  1  0  0  0
M  END
> <minimizedAffinity>
-6.50223

$$$$
3BEX_PAU_A_248


 19 18  0  0  0  0  0  0  0  0999 V2000
    4.6869   14.4047   17.2197 C   0  0  0  0  0  0  0  0  0  0  0  0
    5.4319   15.2512   16.6379 O   0  0  0  0  0  0  0  0  0  0  0  0
    4.4492   14.4760   18.4414 N   0  0  0  0  0  0  0  0  0  0  0  0
    3.9094   13.7518   18.8331 H   0  0  0  0  0  0  0  0  0  0  0  0
    4.0844   13.2896   16.3951 C   0  0  0  0  0  0  0  0  0  0  0  0
    3.0348   12.7256   17.1400 O   0  0  0  0  0  0  0  0  0  0  0  0
    3.3915   12.3206   17.9459 H   0  0  0  0  0  0  0  0  0  0  0  0
    5.0104   12.1895   15.9035 C   0  0  0  0  0  0  0  0  0  0  0  0
    4.2483   10.9414   15.5752 C   0  0  0  0  0  0  0  0  0  0  0  0
    5.7543   12.6994   14.6892 C   0  0  0  0  0  0  0  0  0  0  0  0
    5.4076   11.4266   18.1577 O   0  0  0  0  0  0  0  0  0  0  0  0
    6.0081   11.8769   16.9914 C   0  0  0  0  0  0  0  0  0  0  0  0
    6.0898   11.2408   18.8218 H   0  0  0  0  0  0  0  0  0  0  0  0
    4.8884   15.5151   19.3328 C   0  0  0  0  0  0  0  0  0  0  0  0
    4.3010   15.2934   20.7249 C   0  0  0  0  0  0  0  0  0  0  0  0
    3.4688   14.0535   20.9143 C   0  0  0  0  0  0  0  0  0  0  0  0
    2.2787   14.0635   20.7609 O   0  0  0  0  0  0  0  0  0  0  0  0
    4.0868   13.0362   21.1911 O   0  0  0  0  0  0  0  0  0  0  0  0
    1.8403   14.8641   20.5492 H   0  0  0  0  0  0  0  0  0  0  0  0
 11 12  1  0  0  0
  8 12  1  0  0  0
  8  9  1  0  0  0
  8 10  1  0  0  0
  8  5  1  0  0  0
  5  6  1  0  0  0
  5  1  1  0  0  0
  1  2  2  0  0  0
  1  3  1  0  0  0
  3 14  1  0  0  0
 14 15  1  0  0  0
 15 16  1  0  0  0
 16 17  1  0  0  0
 16 18  2  0  0  0
 11 13  1  0  0  0
  6  7  1  0  0  0
  3  4  1  0  0  0
 17 19  1  0  0  0
M  END
> <minimizedAffinity>
-6.47115

$$$$
3BEX_PAU_A_248


 19 18  0  0  0  0  0  0  0  0999 V2000
    4.3835   13.1795   19.2524 C   0  0  0  0  0  0  0  0  0  0  0  0
    5.5542   12.9373   19.6778 O   0  0  0  0  0  0  0  0  0  0  0  0
    3.5732   13.8517   19.9199 N   0  0  0  0  0  0  0  0  0  0  0  0
    2.6656   13.9499   19.5512 H   0  0  0  0  0  0  0  0  0  0  0  0
    3.9800   12.6293   17.9030 C   0  0  0  0  0  0  0  0  0  0  0  0
    4.2907   11.2589   17.8893 O   0  0  0  0  0  0  0  0  0  0  0  0
    5.2509   11.1443   17.9659 H   0  0  0  0  0  0  0  0  0  0  0  0
    4.5539   13.2956   16.6636 C   0  0  0  0  0  0  0  0  0  0  0  0
    4.9663   14.7087   16.9456 C   0  0  0  0  0  0  0  0  0  0  0  0
    5.7327   12.4777   16.1848 C   0  0  0  0  0  0  0  0  0  0  0  0
    2.5479   12.3070   15.7582 O   0  0  0  0  0  0  0  0  0  0  0  0
    3.4965   13.3043   15.5873 C   0  0  0  0  0  0  0  0  0  0  0  0
    1.8944   12.3564   15.0431 H   0  0  0  0  0  0  0  0  0  0  0  0
    3.8379   14.4974   21.1769 C   0  0  0  0  0  0  0  0  0  0  0  0
    3.1960   15.8830   21.1991 C   0  0  0  0  0  0  0  0  0  0  0  0
    1.6929   15.9270   21.2643 C   0  0  0  0  0  0  0  0  0  0  0  0
    1.0979   16.9597   21.4045 O   0  0  0  0  0  0  0  0  0  0  0  0
    1.1235   14.8549   21.1238 O   0  0  0  0  0  0  0  0  0  0  0  0
    1.5703   17.7620   21.5095 H   0  0  0  0  0  0  0  0  0  0  0  0
 11 12  1  0  0  0
  8 12  1  0  0  0
  8  9  1  0  0  0
  8 10  1  0  0  0
  8  5  1  0  0  0
  5  6  1  0  0  0
  5  1  1  0  0  0
  1  2  2  0  0  0
  1  3  1  0  0  0
  3 14  1  0  0  0
 14 15  1  0  0  0
 15 16  1  0  0  0
 16 17  1  0  0  0
 16 18  2  0  0  0
 11 13  1  0  0  0
  6  7  1  0  0  0
  3  4  1  0  0  0
 17 19  1  0  0  0
M  END
> <minimizedAffinity>
-6.09950

$$$$
3BEX_PAU_A_248


 19 18  0  0  0  0  0  0  0  0999 V2000
    3.2951   10.4018   15.5922 C   0  0  0  0  0  0  0  0  0  0  0  0
    3.3491    9.3651   16.3218 O   0  0  0  0  0  0  0  0  0  0  0  0
    3.0892   10.3256   14.3650 N   0  0  0  0  0  0  0  0  0  0  0  0
    3.1177   11.1675   13.8555 H   0  0  0  0  0  0  0  0  0  0  0  0
    3.4899   11.7519   16.2446 C   0  0  0  0  0  0  0  0  0  0  0  0
    2.5520   12.6366   15.6858 O   0  0  0  0  0  0  0  0  0  0  0  0
    2.7376   12.7498   14.7405 H   0  0  0  0  0  0  0  0  0  0  0  0
    4.8752   12.3743   16.1895 C   0  0  0  0  0  0  0  0  0  0  0  0
    4.8454   13.8100   16.6189 C   0  0  0  0  0  0  0  0  0  0  0  0
    5.7964   11.5675   17.0773 C   0  0  0  0  0  0  0  0  0  0  0  0
    4.5298   12.9227   13.8654 O   0  0  0  0  0  0  0  0  0  0  0  0
    5.3798   12.3029   14.7694 C   0  0  0  0  0  0  0  0  0  0  0  0
    4.8989   12.8486   12.9714 H   0  0  0  0  0  0  0  0  0  0  0  0
    2.8139    9.1253   13.6230 C   0  0  0  0  0  0  0  0  0  0  0  0
    3.5152    9.1755   12.2673 C   0  0  0  0  0  0  0  0  0  0  0  0
    3.1807   10.3444   11.3798 C   0  0  0  0  0  0  0  0  0  0  0  0
    2.7230   11.3614   11.8226 O   0  0  0  0  0  0  0  0  0  0  0  0
    3.4438   10.2039   10.1948 O   0  0  0  0  0  0  0  0  0  0  0  0
    2.5344   11.4309   12.7378 H   0  0  0  0  0  0  0  0  0  0  0  0
 11 12  1  0  0  0
  8 12  1  0  0  0
  8  9  1  0  0  0
  8 10  1  0  0  0
  8  5  1  0  0  0
  5  6  1  0  0  0
  5  1  1  0  0  0
  1  2  2  0  0  0
  1  3  1  0  0  0
  3 14  1  0  0  0
 14 15  1  0  0  0
 15 16  1  0  0  0
 16 17  1  0  0  0
 16 18  2  0  0  0
 11 13  1  0  0  0
  6  7  1  0  0  0
  3  4  1  0  0  0
 17 19  1  0  0  0
M  END
> <minimizedAffinity>
-6.08173

$$$$
3BEX_PAU_A_248


 19 18  0  0  0  0  0  0  0  0999 V2000
    5.0289   13.6093   18.7925 C   0  0  0  0  0  0  0  0  0  0  0  0
    6.0901   13.0594   19.2188 O   0  0  0  0  0  0  0  0  0  0  0  0
    4.1024   13.9248   19.5647 N   0  0  0  0  0  0  0  0  0  0  0  0
    3.2874   14.2948   19.1547 H   0  0  0  0  0  0  0  0  0  0  0  0
    4.9031   13.8777   17.3098 C   0  0  0  0  0  0  0  0  0  0  0  0
    3.9423   14.8887   17.1379 O   0  0  0  0  0  0  0  0  0  0  0  0
    3.0785   14.5687   17.4417 H   0  0  0  0  0  0  0  0  0  0  0  0
    4.5783   12.7044   16.4004 C   0  0  0  0  0  0  0  0  0  0  0  0
    3.5090   13.0600   15.4122 C   0  0  0  0  0  0  0  0  0  0  0  0
    5.8467   12.2850   15.6912 C   0  0  0  0  0  0  0  0  0  0  0  0
    5.0885   10.6324   17.5264 O   0  0  0  0  0  0  0  0  0  0  0  0
    4.0916   11.5562   17.2498 C   0  0  0  0  0  0  0  0  0  0  0  0
    4.7248    9.9181   18.0727 H   0  0  0  0  0  0  0  0  0  0  0  0
    4.1109   13.7999   20.9969 C   0  0  0  0  0  0  0  0  0  0  0  0
    3.8660   15.1621   21.6427 C   0  0  0  0  0  0  0  0  0  0  0  0
    3.1032   16.1678   20.8227 C   0  0  0  0  0  0  0  0  0  0  0  0
    1.9072   16.1300   20.7316 O   0  0  0  0  0  0  0  0  0  0  0  0
    3.7746   17.0421   20.2955 O   0  0  0  0  0  0  0  0  0  0  0  0
    1.4270   15.4430   21.1504 H   0  0  0  0  0  0  0  0  0  0  0  0
 11 12  1  0  0  0
  8 12  1  0  0  0
  8  9  1  0  0  0
  8 10  1  0  0  0
  8  5  1  0  0  0
  5  6  1  0  0  0
  5  1  1  0  0  0
  1  2  2  0  0  0
  1  3  1  0  0  0
  3 14  1  0  0  0
 14 15  1  0  0  0
 15 16  1  0  0  0
 16 17  1  0  0  0
 16 18  2  0  0  0
 11 13  1  0  0  0
  6  7  1  0  0  0
  3  4  1  0  0  0
 17 19  1  0  0  0
M  END
> <minimizedAffinity>
-6.07348

$$$$
3BEX_PAU_A_248


 19 18  0  0  0  0  0  0  0  0999 V2000
    5.3866   11.5175   16.8731 C   0  0  0  0  0  0  0  0  0  0  0  0
    5.1291   10.4587   17.5233 O   0  0  0  0  0  0  0  0  0  0  0  0
    5.7396   12.5661   17.4477 N   0  0  0  0  0  0  0  0  0  0  0  0
    5.8668   13.3623   16.8829 H   0  0  0  0  0  0  0  0  0  0  0  0
    5.2543   11.4874   15.3671 C   0  0  0  0  0  0  0  0  0  0  0  0
    5.9623   12.5870   14.8532 O   0  0  0  0  0  0  0  0  0  0  0  0
    5.5473   13.4094   15.1572 H   0  0  0  0  0  0  0  0  0  0  0  0
    3.8540   11.4606   14.7774 C   0  0  0  0  0  0  0  0  0  0  0  0
    3.1135   10.2234   15.1867 C   0  0  0  0  0  0  0  0  0  0  0  0
    3.1200   12.7016   15.2344 C   0  0  0  0  0  0  0  0  0  0  0  0
    2.7276   11.4808   12.6438 O   0  0  0  0  0  0  0  0  0  0  0  0
    3.9638   11.4849   13.2727 C   0  0  0  0  0  0  0  0  0  0  0  0
    2.8541   11.4969   11.6822 H   0  0  0  0  0  0  0  0  0  0  0  0
    5.9788   12.7231   18.8566 C   0  0  0  0  0  0  0  0  0  0  0  0
    4.9533   13.6819   19.4580 C   0  0  0  0  0  0  0  0  0  0  0  0
    4.8834   15.0582   18.8526 C   0  0  0  0  0  0  0  0  0  0  0  0
    5.4473   15.9943   19.3482 O   0  0  0  0  0  0  0  0  0  0  0  0
    4.2540   15.1481   17.8090 O   0  0  0  0  0  0  0  0  0  0  0  0
    5.9200   15.8857   20.1499 H   0  0  0  0  0  0  0  0  0  0  0  0
 11 12  1  0  0  0
  8 12  1  0  0  0
  8  9  1  0  0  0
  8 10  1  0  0  0
  8  5  1  0  0  0
  5  6  1  0  0  0
  5  1  1  0  0  0
  1  2  2  0  0  0
  1  3  1  0  0  0
  3 14  1  0  0  0
 14 15  1  0  0  0
 15 16  1  0  0  0
 16 17  1  0  0  0
 16 18  2  0  0  0
 11 13  1  0  0  0
  6  7  1  0  0  0
  3  4  1  0  0  0
 17 19  1  0  0  0
M  END
> <minimizedAffinity>
-5.95791

$$$$
