5LZ7_7BK_A_502


 25 27  0  0  0  0  0  0  0  0999 V2000
   25.2695    0.9485   -1.0840 C   0  0  0  0  0  0  0  0  0  0  0  0
   25.5475    1.8675   -2.2854 C   0  0  0  0  0  0  0  0  0  0  0  0
   24.9282    3.2641   -2.0055 C   0  0  0  0  0  0  0  0  0  0  0  0
   26.0595    4.1161   -1.6730 N   0  0  0  0  0  0  0  0  0  0  0  0
   27.0672    2.1636   -2.4112 C   0  0  0  0  0  0  0  0  0  0  0  0
   27.2462    3.5996   -2.0063 C   0  0  0  0  0  0  0  0  0  0  0  0
   28.3057    4.2112   -1.9811 O   0  0  0  0  0  0  0  0  0  0  0  0
   26.0460    0.8915   -4.6005 C   0  0  0  0  0  0  0  0  0  0  0  0
   25.6504    0.2614   -5.7661 C   0  0  0  0  0  0  0  0  0  0  0  0
   24.3362   -0.1051   -5.9441 C   0  0  0  0  0  0  0  0  0  0  0  0
   23.4125    0.1558   -4.9609 C   0  0  0  0  0  0  0  0  0  0  0  0
   23.8008    0.7861   -3.7909 C   0  0  0  0  0  0  0  0  0  0  0  0
   25.1272    1.1664   -3.5900 C   0  0  0  0  0  0  0  0  0  0  0  0
   25.8848    5.4672   -1.1743 C   0  0  0  0  0  0  0  0  0  0  0  0
   25.7345    6.4802   -2.2830 C   0  0  0  0  0  0  0  0  0  0  0  0
   24.8584    7.5256   -1.8355 O   0  0  0  0  0  0  0  0  0  0  0  0
   23.9394    8.0302   -2.7209 C   0  0  0  0  0  0  0  0  0  0  0  0
   22.7245    8.0951   -4.7908 C   0  0  0  0  0  0  0  0  0  0  0  0
   22.0480    9.2021   -4.3430 C   0  0  0  0  0  0  0  0  0  0  0  0
   22.2902    9.7484   -3.0931 C   0  0  0  0  0  0  0  0  0  0  0  0
   23.2503    9.1498   -2.2782 C   0  0  0  0  0  0  0  0  0  0  0  0
   23.6721    7.5060   -3.9815 C   0  0  0  0  0  0  0  0  0  0  0  0
   21.1172    9.7790   -5.1396 F   0  0  0  0  0  0  0  0  0  0  0  0
   21.5852   10.9038   -2.6271 C   0  0  0  0  0  0  0  0  0  0  0  0
   21.0191   11.8343   -2.2518 N   0  0  0  0  0  0  0  0  0  0  0  0
 23 19  1  0  0  0
 10  9  2  0  0  0
 10 11  1  0  0  0
 18 19  2  0  0  0
 18 22  1  0  0  0
  9  8  1  0  0  0
 19 20  1  0  0  0
 11 12  2  0  0  0
 22 17  2  0  0  0
  8 13  2  0  0  0
 12 13  1  0  0  0
 20 24  1  0  0  0
 20 21  2  0  0  0
 13  2  1  0  0  0
 17 21  1  0  0  0
 17 16  1  0  0  0
 24 25  3  0  0  0
 15 16  1  0  0  0
 15 14  1  0  0  0
  5  2  1  0  0  0
  5  6  1  0  0  0
  7  6  2  0  0  0
  2  3  1  0  0  0
  2  1  1  0  0  0
  6  4  1  0  0  0
  3  4  1  0  0  0
  4 14  1  0  0  0
M  END
> <minimizedAffinity>
-9.21618

$$$$
5LZ7_7BK_A_502


 25 27  0  0  0  0  0  0  0  0999 V2000
   26.3666    2.0795   -4.2644 C   0  0  0  0  0  0  0  0  0  0  0  0
   26.0933    1.8977   -2.7619 C   0  0  0  0  0  0  0  0  0  0  0  0
   26.4484    3.2164   -2.0220 C   0  0  0  0  0  0  0  0  0  0  0  0
   25.1660    3.8316   -1.7163 N   0  0  0  0  0  0  0  0  0  0  0  0
   24.5720    1.7312   -2.4959 C   0  0  0  0  0  0  0  0  0  0  0  0
   24.1233    3.0043   -1.8357 C   0  0  0  0  0  0  0  0  0  0  0  0
   22.9857    3.2565   -1.4622 O   0  0  0  0  0  0  0  0  0  0  0  0
   26.9370    0.3565   -0.8981 C   0  0  0  0  0  0  0  0  0  0  0  0
   27.5484   -0.8051   -0.4634 C   0  0  0  0  0  0  0  0  0  0  0  0
   28.0032   -1.7313   -1.3737 C   0  0  0  0  0  0  0  0  0  0  0  0
   27.8500   -1.5021   -2.7197 C   0  0  0  0  0  0  0  0  0  0  0  0
   27.2386   -0.3416   -3.1629 C   0  0  0  0  0  0  0  0  0  0  0  0
   26.7708    0.6104   -2.2579 C   0  0  0  0  0  0  0  0  0  0  0  0
   25.0662    5.1746   -1.1766 C   0  0  0  0  0  0  0  0  0  0  0  0
   25.6421    6.2170   -2.1038 C   0  0  0  0  0  0  0  0  0  0  0  0
   25.0221    7.4797   -1.8184 O   0  0  0  0  0  0  0  0  0  0  0  0
   24.0839    7.9595   -2.6974 C   0  0  0  0  0  0  0  0  0  0  0  0
   22.8475    7.9858   -4.7554 C   0  0  0  0  0  0  0  0  0  0  0  0
   22.1523    9.0813   -4.3076 C   0  0  0  0  0  0  0  0  0  0  0  0
   22.3955    9.6404   -3.0636 C   0  0  0  0  0  0  0  0  0  0  0  0
   23.3759    9.0672   -2.2547 C   0  0  0  0  0  0  0  0  0  0  0  0
   23.8152    7.4218   -3.9521 C   0  0  0  0  0  0  0  0  0  0  0  0
   21.2018    9.6335   -5.0983 F   0  0  0  0  0  0  0  0  0  0  0  0
   21.6711   10.7838   -2.5975 C   0  0  0  0  0  0  0  0  0  0  0  0
   21.0869   11.7032   -2.2227 N   0  0  0  0  0  0  0  0  0  0  0  0
 23 19  1  0  0  0
 10  9  2  0  0  0
 10 11  1  0  0  0
 18 19  2  0  0  0
 18 22  1  0  0  0
  9  8  1  0  0  0
 19 20  1  0  0  0
 11 12  2  0  0  0
 22 17  2  0  0  0
  8 13  2  0  0  0
 12 13  1  0  0  0
 20 24  1  0  0  0
 20 21  2  0  0  0
 13  2  1  0  0  0
 17 21  1  0  0  0
 17 16  1  0  0  0
 24 25  3  0  0  0
 15 16  1  0  0  0
 15 14  1  0  0  0
  5  2  1  0  0  0
  5  6  1  0  0  0
  7  6  2  0  0  0
  2  3  1  0  0  0
  2  1  1  0  0  0
  6  4  1  0  0  0
  3  4  1  0  0  0
  4 14  1  0  0  0
M  END
> <minimizedAffinity>
-8.93101

$$$$
5LZ7_7BK_A_502


 25 27  0  0  0  0  0  0  0  0999 V2000
   22.7087    8.8433   -5.3358 C   0  0  0  0  0  0  0  0  0  0  0  0
   22.3370    7.9853   -4.1147 C   0  0  0  0  0  0  0  0  0  0  0  0
   23.4591    6.9387   -3.8739 C   0  0  0  0  0  0  0  0  0  0  0  0
   24.1984    7.4394   -2.7254 N   0  0  0  0  0  0  0  0  0  0  0  0
   22.3532    8.8391   -2.8172 C   0  0  0  0  0  0  0  0  0  0  0  0
   23.5596    8.3927   -2.0405 C   0  0  0  0  0  0  0  0  0  0  0  0
   23.9126    8.8259   -0.9519 O   0  0  0  0  0  0  0  0  0  0  0  0
   20.5322    6.2007   -3.7701 C   0  0  0  0  0  0  0  0  0  0  0  0
   19.2391    5.7336   -3.9182 C   0  0  0  0  0  0  0  0  0  0  0  0
   18.2954    6.4991   -4.5637 C   0  0  0  0  0  0  0  0  0  0  0  0
   18.6381    7.7322   -5.0636 C   0  0  0  0  0  0  0  0  0  0  0  0
   19.9306    8.2071   -4.9191 C   0  0  0  0  0  0  0  0  0  0  0  0
   20.9026    7.4477   -4.2689 C   0  0  0  0  0  0  0  0  0  0  0  0
   25.4413    6.8331   -2.2866 C   0  0  0  0  0  0  0  0  0  0  0  0
   25.4238    5.3281   -2.3976 C   0  0  0  0  0  0  0  0  0  0  0  0
   26.7508    4.8339   -2.1624 O   0  0  0  0  0  0  0  0  0  0  0  0
   27.0168    3.5179   -2.4465 C   0  0  0  0  0  0  0  0  0  0  0  0
   28.3347    1.5113   -2.4132 C   0  0  0  0  0  0  0  0  0  0  0  0
   27.3499    0.8692   -3.1214 C   0  0  0  0  0  0  0  0  0  0  0  0
   26.1884    1.5183   -3.5073 C   0  0  0  0  0  0  0  0  0  0  0  0
   26.0278    2.8597   -3.1627 C   0  0  0  0  0  0  0  0  0  0  0  0
   28.1715    2.8372   -2.0738 C   0  0  0  0  0  0  0  0  0  0  0  0
   27.5122   -0.4335   -3.4535 F   0  0  0  0  0  0  0  0  0  0  0  0
   25.1620    0.8485   -4.2471 C   0  0  0  0  0  0  0  0  0  0  0  0
   24.3365    0.3083   -4.8419 N   0  0  0  0  0  0  0  0  0  0  0  0
 23 19  1  0  0  0
 10  9  2  0  0  0
 10 11  1  0  0  0
 18 19  2  0  0  0
 18 22  1  0  0  0
  9  8  1  0  0  0
 19 20  1  0  0  0
 11 12  2  0  0  0
 22 17  2  0  0  0
  8 13  2  0  0  0
 12 13  1  0  0  0
 20 24  1  0  0  0
 20 21  2  0  0  0
 13  2  1  0  0  0
 17 21  1  0  0  0
 17 16  1  0  0  0
 24 25  3  0  0  0
 15 16  1  0  0  0
 15 14  1  0  0  0
  5  2  1  0  0  0
  5  6  1  0  0  0
  7  6  2  0  0  0
  2  3  1  0  0  0
  2  1  1  0  0  0
  6  4  1  0  0  0
  3  4  1  0  0  0
  4 14  1  0  0  0
M  END
> <minimizedAffinity>
-8.62329

$$$$
5LZ7_7BK_A_502


 25 27  0  0  0  0  0  0  0  0999 V2000
   25.5757    0.7105   -1.1357 C   0  0  0  0  0  0  0  0  0  0  0  0
   25.6137    1.7160   -2.2987 C   0  0  0  0  0  0  0  0  0  0  0  0
   24.8212    2.9881   -1.8912 C   0  0  0  0  0  0  0  0  0  0  0  0
   25.8386    3.9851   -1.5961 N   0  0  0  0  0  0  0  0  0  0  0  0
   27.0572    2.2443   -2.5220 C   0  0  0  0  0  0  0  0  0  0  0  0
   27.0562    3.6705   -2.0483 C   0  0  0  0  0  0  0  0  0  0  0  0
   28.0125    4.4336   -2.0677 O   0  0  0  0  0  0  0  0  0  0  0  0
   26.1348    0.5201   -4.5032 C   0  0  0  0  0  0  0  0  0  0  0  0
   25.7388   -0.1009   -5.6735 C   0  0  0  0  0  0  0  0  0  0  0  0
   24.4017   -0.2336   -5.9696 C   0  0  0  0  0  0  0  0  0  0  0  0
   23.4555    0.2526   -5.1000 C   0  0  0  0  0  0  0  0  0  0  0  0
   23.8438    0.8754   -3.9260 C   0  0  0  0  0  0  0  0  0  0  0  0
   25.1933    1.0209   -3.6066 C   0  0  0  0  0  0  0  0  0  0  0  0
   25.5093    5.2695   -1.0072 C   0  0  0  0  0  0  0  0  0  0  0  0
   25.4450    6.3775   -2.0299 C   0  0  0  0  0  0  0  0  0  0  0  0
   24.1828    6.3039   -2.7094 O   0  0  0  0  0  0  0  0  0  0  0  0
   23.4526    7.4564   -2.8562 C   0  0  0  0  0  0  0  0  0  0  0  0
   23.0268    9.8059   -2.6043 C   0  0  0  0  0  0  0  0  0  0  0  0
   21.8304    9.6450   -3.2573 C   0  0  0  0  0  0  0  0  0  0  0  0
   21.4144    8.4081   -3.7225 C   0  0  0  0  0  0  0  0  0  0  0  0
   22.2410    7.3047   -3.5144 C   0  0  0  0  0  0  0  0  0  0  0  0
   23.8413    8.7126   -2.4016 C   0  0  0  0  0  0  0  0  0  0  0  0
   21.0320   10.7206   -3.4556 F   0  0  0  0  0  0  0  0  0  0  0  0
   20.1657    8.2406   -4.4023 C   0  0  0  0  0  0  0  0  0  0  0  0
   19.1615    8.1047   -4.9501 N   0  0  0  0  0  0  0  0  0  0  0  0
 23 19  1  0  0  0
 10  9  2  0  0  0
 10 11  1  0  0  0
 18 19  2  0  0  0
 18 22  1  0  0  0
  9  8  1  0  0  0
 19 20  1  0  0  0
 11 12  2  0  0  0
 22 17  2  0  0  0
  8 13  2  0  0  0
 12 13  1  0  0  0
 20 24  1  0  0  0
 20 21  2  0  0  0
 13  2  1  0  0  0
 17 21  1  0  0  0
 17 16  1  0  0  0
 24 25  3  0  0  0
 15 16  1  0  0  0
 15 14  1  0  0  0
  5  2  1  0  0  0
  5  6  1  0  0  0
  7  6  2  0  0  0
  2  3  1  0  0  0
  2  1  1  0  0  0
  6  4  1  0  0  0
  3  4  1  0  0  0
  4 14  1  0  0  0
M  END
> <minimizedAffinity>
-8.06940

$$$$
5LZ7_7BK_A_502


 25 27  0  0  0  0  0  0  0  0999 V2000
   22.4245    2.0105   -0.7638 C   0  0  0  0  0  0  0  0  0  0  0  0
   22.9990    2.5644   -2.0784 C   0  0  0  0  0  0  0  0  0  0  0  0
   23.5210    4.0064   -1.8323 C   0  0  0  0  0  0  0  0  0  0  0  0
   24.9693    3.8777   -1.7845 N   0  0  0  0  0  0  0  0  0  0  0  0
   24.2756    1.7827   -2.4933 C   0  0  0  0  0  0  0  0  0  0  0  0
   25.4288    2.7191   -2.2665 C   0  0  0  0  0  0  0  0  0  0  0  0
   26.6073    2.4718   -2.4843 O   0  0  0  0  0  0  0  0  0  0  0  0
   22.0253    1.2705   -4.0631 C   0  0  0  0  0  0  0  0  0  0  0  0
   21.1015    1.1179   -5.0806 C   0  0  0  0  0  0  0  0  0  0  0  0
   20.1184    2.0616   -5.2713 C   0  0  0  0  0  0  0  0  0  0  0  0
   20.0537    3.1600   -4.4485 C   0  0  0  0  0  0  0  0  0  0  0  0
   20.9749    3.3199   -3.4273 C   0  0  0  0  0  0  0  0  0  0  0  0
   21.9794    2.3761   -3.2165 C   0  0  0  0  0  0  0  0  0  0  0  0
   25.8274    4.9813   -1.3964 C   0  0  0  0  0  0  0  0  0  0  0  0
   25.6754    6.1804   -2.3003 C   0  0  0  0  0  0  0  0  0  0  0  0
   24.6005    6.9944   -1.8080 O   0  0  0  0  0  0  0  0  0  0  0  0
   23.7862    7.6201   -2.7183 C   0  0  0  0  0  0  0  0  0  0  0  0
   22.7196    7.8936   -4.8518 C   0  0  0  0  0  0  0  0  0  0  0  0
   22.1081    9.0301   -4.3849 C   0  0  0  0  0  0  0  0  0  0  0  0
   22.3116    9.4895   -3.0939 C   0  0  0  0  0  0  0  0  0  0  0  0
   23.1636    8.7705   -2.2565 C   0  0  0  0  0  0  0  0  0  0  0  0
   23.5603    7.1853   -4.0204 C   0  0  0  0  0  0  0  0  0  0  0  0
   21.2822    9.7242   -5.2034 F   0  0  0  0  0  0  0  0  0  0  0  0
   21.6746   10.6758   -2.6077 C   0  0  0  0  0  0  0  0  0  0  0  0
   21.1607   11.6298   -2.2167 N   0  0  0  0  0  0  0  0  0  0  0  0
 23 19  1  0  0  0
 10  9  2  0  0  0
 10 11  1  0  0  0
 18 19  2  0  0  0
 18 22  1  0  0  0
  9  8  1  0  0  0
 19 20  1  0  0  0
 11 12  2  0  0  0
 22 17  2  0  0  0
  8 13  2  0  0  0
 12 13  1  0  0  0
 20 24  1  0  0  0
 20 21  2  0  0  0
 13  2  1  0  0  0
 17 21  1  0  0  0
 17 16  1  0  0  0
 24 25  3  0  0  0
 15 16  1  0  0  0
 15 14  1  0  0  0
  5  2  1  0  0  0
  5  6  1  0  0  0
  7  6  2  0  0  0
  2  3  1  0  0  0
  2  1  1  0  0  0
  6  4  1  0  0  0
  3  4  1  0  0  0
  4 14  1  0  0  0
M  END
> <minimizedAffinity>
-7.66177

$$$$
5LZ7_7BK_A_502


 25 27  0  0  0  0  0  0  0  0999 V2000
   22.9095    0.4577   -3.4246 C   0  0  0  0  0  0  0  0  0  0  0  0
   22.8868    1.8725   -2.8220 C   0  0  0  0  0  0  0  0  0  0  0  0
   21.8943    2.7498   -3.6329 C   0  0  0  0  0  0  0  0  0  0  0  0
   20.7167    2.8637   -2.7863 N   0  0  0  0  0  0  0  0  0  0  0  0
   22.2716    1.8530   -1.3958 C   0  0  0  0  0  0  0  0  0  0  0  0
   20.9236    2.5064   -1.5153 C   0  0  0  0  0  0  0  0  0  0  0  0
   20.1310    2.6883   -0.6010 O   0  0  0  0  0  0  0  0  0  0  0  0
   24.6198    3.4975   -1.8642 C   0  0  0  0  0  0  0  0  0  0  0  0
   25.9174    3.9595   -1.7424 C   0  0  0  0  0  0  0  0  0  0  0  0
   26.9407    3.3393   -2.4219 C   0  0  0  0  0  0  0  0  0  0  0  0
   26.6732    2.2569   -3.2248 C   0  0  0  0  0  0  0  0  0  0  0  0
   25.3767    1.7881   -3.3519 C   0  0  0  0  0  0  0  0  0  0  0  0
   24.3248    2.4018   -2.6727 C   0  0  0  0  0  0  0  0  0  0  0  0
   19.4842    3.4653   -3.2594 C   0  0  0  0  0  0  0  0  0  0  0  0
   19.4593    4.9625   -3.0704 C   0  0  0  0  0  0  0  0  0  0  0  0
   20.2024    5.5732   -4.1359 O   0  0  0  0  0  0  0  0  0  0  0  0
   20.8721    6.7427   -3.8775 C   0  0  0  0  0  0  0  0  0  0  0  0
   21.0886    9.1264   -3.6874 C   0  0  0  0  0  0  0  0  0  0  0  0
   22.3985    8.9635   -3.3117 C   0  0  0  0  0  0  0  0  0  0  0  0
   22.9766    7.7088   -3.2081 C   0  0  0  0  0  0  0  0  0  0  0  0
   22.1973    6.5894   -3.4974 C   0  0  0  0  0  0  0  0  0  0  0  0
   20.3215    8.0170   -3.9716 C   0  0  0  0  0  0  0  0  0  0  0  0
   23.1501   10.0549   -3.0326 F   0  0  0  0  0  0  0  0  0  0  0  0
   24.3434    7.5396   -2.8174 C   0  0  0  0  0  0  0  0  0  0  0  0
   25.4436    7.4046   -2.5036 N   0  0  0  0  0  0  0  0  0  0  0  0
 23 19  1  0  0  0
 10  9  2  0  0  0
 10 11  1  0  0  0
 18 19  2  0  0  0
 18 22  1  0  0  0
  9  8  1  0  0  0
 19 20  1  0  0  0
 11 12  2  0  0  0
 22 17  2  0  0  0
  8 13  2  0  0  0
 12 13  1  0  0  0
 20 24  1  0  0  0
 20 21  2  0  0  0
 13  2  1  0  0  0
 17 21  1  0  0  0
 17 16  1  0  0  0
 24 25  3  0  0  0
 15 16  1  0  0  0
 15 14  1  0  0  0
  5  2  1  0  0  0
  5  6  1  0  0  0
  7  6  2  0  0  0
  2  3  1  0  0  0
  2  1  1  0  0  0
  6  4  1  0  0  0
  3  4  1  0  0  0
  4 14  1  0  0  0
M  END
> <minimizedAffinity>
-7.53049

$$$$
5LZ7_7BK_A_502


 25 27  0  0  0  0  0  0  0  0999 V2000
   21.8391    1.2112   -0.9554 C   0  0  0  0  0  0  0  0  0  0  0  0
   20.3277    1.4917   -0.9087 C   0  0  0  0  0  0  0  0  0  0  0  0
   20.0690    2.9426   -1.3989 C   0  0  0  0  0  0  0  0  0  0  0  0
   19.5380    2.7943   -2.7452 N   0  0  0  0  0  0  0  0  0  0  0  0
   19.5738    0.6179   -1.9484 C   0  0  0  0  0  0  0  0  0  0  0  0
   19.1299    1.5553   -3.0358 C   0  0  0  0  0  0  0  0  0  0  0  0
   18.4948    1.2458   -4.0348 O   0  0  0  0  0  0  0  0  0  0  0  0
   19.7451    2.0212    1.5288 C   0  0  0  0  0  0  0  0  0  0  0  0
   19.2376    1.6622    2.7640 C   0  0  0  0  0  0  0  0  0  0  0  0
   18.7437    0.3944    2.9685 C   0  0  0  0  0  0  0  0  0  0  0  0
   18.7545   -0.5193    1.9423 C   0  0  0  0  0  0  0  0  0  0  0  0
   19.2607   -0.1675    0.7026 C   0  0  0  0  0  0  0  0  0  0  0  0
   19.7665    1.1116    0.4737 C   0  0  0  0  0  0  0  0  0  0  0  0
   19.3293    3.9329   -3.6197 C   0  0  0  0  0  0  0  0  0  0  0  0
   20.5558    4.8040   -3.7411 C   0  0  0  0  0  0  0  0  0  0  0  0
   20.1516    6.1091   -4.1813 O   0  0  0  0  0  0  0  0  0  0  0  0
   20.9042    7.1899   -3.7958 C   0  0  0  0  0  0  0  0  0  0  0  0
   21.2860    9.5105   -3.3123 C   0  0  0  0  0  0  0  0  0  0  0  0
   22.5888    9.2160   -2.9964 C   0  0  0  0  0  0  0  0  0  0  0  0
   23.0820    7.9234   -3.0682 C   0  0  0  0  0  0  0  0  0  0  0  0
   22.2229    6.9033   -3.4749 C   0  0  0  0  0  0  0  0  0  0  0  0
   20.4400    8.4988   -3.7129 C   0  0  0  0  0  0  0  0  0  0  0  0
   23.4182   10.2115   -2.6027 F   0  0  0  0  0  0  0  0  0  0  0  0
   24.4413    7.6170   -2.7399 C   0  0  0  0  0  0  0  0  0  0  0  0
   25.5352    7.3696   -2.4769 N   0  0  0  0  0  0  0  0  0  0  0  0
 23 19  1  0  0  0
 10  9  2  0  0  0
 10 11  1  0  0  0
 18 19  2  0  0  0
 18 22  1  0  0  0
  9  8  1  0  0  0
 19 20  1  0  0  0
 11 12  2  0  0  0
 22 17  2  0  0  0
  8 13  2  0  0  0
 12 13  1  0  0  0
 20 24  1  0  0  0
 20 21  2  0  0  0
 13  2  1  0  0  0
 17 21  1  0  0  0
 17 16  1  0  0  0
 24 25  3  0  0  0
 15 16  1  0  0  0
 15 14  1  0  0  0
  5  2  1  0  0  0
  5  6  1  0  0  0
  7  6  2  0  0  0
  2  3  1  0  0  0
  2  1  1  0  0  0
  6  4  1  0  0  0
  3  4  1  0  0  0
  4 14  1  0  0  0
M  END
> <minimizedAffinity>
-7.38763

$$$$
5LZ7_7BK_A_502


 25 27  0  0  0  0  0  0  0  0999 V2000
   22.7526    1.6060   -1.0732 C   0  0  0  0  0  0  0  0  0  0  0  0
   23.6816    2.0286   -2.2236 C   0  0  0  0  0  0  0  0  0  0  0  0
   23.8368    3.5739   -2.2043 C   0  0  0  0  0  0  0  0  0  0  0  0
   25.1623    3.8107   -1.6536 N   0  0  0  0  0  0  0  0  0  0  0  0
   25.1275    1.5161   -1.9794 C   0  0  0  0  0  0  0  0  0  0  0  0
   25.9470    2.7290   -1.6397 C   0  0  0  0  0  0  0  0  0  0  0  0
   27.1443    2.7382   -1.3876 O   0  0  0  0  0  0  0  0  0  0  0  0
   21.8896    1.5138   -3.9799 C   0  0  0  0  0  0  0  0  0  0  0  0
   21.4803    0.9342   -5.1668 C   0  0  0  0  0  0  0  0  0  0  0  0
   22.3739    0.2249   -5.9360 C   0  0  0  0  0  0  0  0  0  0  0  0
   23.6779    0.0912   -5.5241 C   0  0  0  0  0  0  0  0  0  0  0  0
   24.0955    0.6687   -4.3371 C   0  0  0  0  0  0  0  0  0  0  0  0
   23.2065    1.3913   -3.5421 C   0  0  0  0  0  0  0  0  0  0  0  0
   25.6252    5.1413   -1.3073 C   0  0  0  0  0  0  0  0  0  0  0  0
   25.1990    6.1838   -2.3120 C   0  0  0  0  0  0  0  0  0  0  0  0
   24.4188    7.1818   -1.6368 O   0  0  0  0  0  0  0  0  0  0  0  0
   23.5851    7.9746   -2.3848 C   0  0  0  0  0  0  0  0  0  0  0  0
   22.6918   10.0636   -3.1613 C   0  0  0  0  0  0  0  0  0  0  0  0
   21.8235    9.3753   -3.9712 C   0  0  0  0  0  0  0  0  0  0  0  0
   21.8085    7.9907   -4.0138 C   0  0  0  0  0  0  0  0  0  0  0  0
   22.7028    7.2888   -3.2066 C   0  0  0  0  0  0  0  0  0  0  0  0
   23.5749    9.3657   -2.3657 C   0  0  0  0  0  0  0  0  0  0  0  0
   20.9570   10.0630   -4.7523 F   0  0  0  0  0  0  0  0  0  0  0  0
   20.9017    7.2732   -4.8577 C   0  0  0  0  0  0  0  0  0  0  0  0
   20.1714    6.6971   -5.5373 N   0  0  0  0  0  0  0  0  0  0  0  0
 23 19  1  0  0  0
 10  9  2  0  0  0
 10 11  1  0  0  0
 18 19  2  0  0  0
 18 22  1  0  0  0
  9  8  1  0  0  0
 19 20  1  0  0  0
 11 12  2  0  0  0
 22 17  2  0  0  0
  8 13  2  0  0  0
 12 13  1  0  0  0
 20 24  1  0  0  0
 20 21  2  0  0  0
 13  2  1  0  0  0
 17 21  1  0  0  0
 17 16  1  0  0  0
 24 25  3  0  0  0
 15 16  1  0  0  0
 15 14  1  0  0  0
  5  2  1  0  0  0
  5  6  1  0  0  0
  7  6  2  0  0  0
  2  3  1  0  0  0
  2  1  1  0  0  0
  6  4  1  0  0  0
  3  4  1  0  0  0
  4 14  1  0  0  0
M  END
> <minimizedAffinity>
-7.32233

$$$$
5LZ7_7BK_A_502


 25 27  0  0  0  0  0  0  0  0999 V2000
   17.6408    4.2779   -3.5091 C   0  0  0  0  0  0  0  0  0  0  0  0
   19.1564    4.3547   -3.7589 C   0  0  0  0  0  0  0  0  0  0  0  0
   19.9002    3.7614   -2.5313 C   0  0  0  0  0  0  0  0  0  0  0  0
   20.3554    2.4501   -2.9666 N   0  0  0  0  0  0  0  0  0  0  0  0
   19.5702    3.4134   -4.9232 C   0  0  0  0  0  0  0  0  0  0  0  0
   20.3150    2.2718   -4.2905 C   0  0  0  0  0  0  0  0  0  0  0  0
   20.8107    1.3227   -4.8826 O   0  0  0  0  0  0  0  0  0  0  0  0
   20.7920    6.3222   -3.8812 C   0  0  0  0  0  0  0  0  0  0  0  0
   21.1240    7.6057   -4.2744 C   0  0  0  0  0  0  0  0  0  0  0  0
   20.2221    8.3699   -4.9786 C   0  0  0  0  0  0  0  0  0  0  0  0
   18.9867    7.8570   -5.2925 C   0  0  0  0  0  0  0  0  0  0  0  0
   18.6469    6.5727   -4.9027 C   0  0  0  0  0  0  0  0  0  0  0  0
   19.5453    5.7812   -4.1881 C   0  0  0  0  0  0  0  0  0  0  0  0
   20.9473    1.4967   -2.0471 C   0  0  0  0  0  0  0  0  0  0  0  0
   22.3056    1.9322   -1.5541 C   0  0  0  0  0  0  0  0  0  0  0  0
   23.2534    1.7786   -2.6212 O   0  0  0  0  0  0  0  0  0  0  0  0
   24.4971    2.3398   -2.4750 C   0  0  0  0  0  0  0  0  0  0  0  0
   26.8955    2.3100   -2.3690 C   0  0  0  0  0  0  0  0  0  0  0  0
   26.8891    3.6657   -2.1552 C   0  0  0  0  0  0  0  0  0  0  0  0
   25.7089    4.3888   -2.0960 C   0  0  0  0  0  0  0  0  0  0  0  0
   24.5019    3.7099   -2.2578 C   0  0  0  0  0  0  0  0  0  0  0  0
   25.7001    1.6430   -2.5294 C   0  0  0  0  0  0  0  0  0  0  0  0
   28.0648    4.3190   -1.9982 F   0  0  0  0  0  0  0  0  0  0  0  0
   25.7027    5.8026   -1.8716 C   0  0  0  0  0  0  0  0  0  0  0  0
   25.6967    6.9405   -1.6921 N   0  0  0  0  0  0  0  0  0  0  0  0
 23 19  1  0  0  0
 10  9  2  0  0  0
 10 11  1  0  0  0
 18 19  2  0  0  0
 18 22  1  0  0  0
  9  8  1  0  0  0
 19 20  1  0  0  0
 11 12  2  0  0  0
 22 17  2  0  0  0
  8 13  2  0  0  0
 12 13  1  0  0  0
 20 24  1  0  0  0
 20 21  2  0  0  0
 13  2  1  0  0  0
 17 21  1  0  0  0
 17 16  1  0  0  0
 24 25  3  0  0  0
 15 16  1  0  0  0
 15 14  1  0  0  0
  5  2  1  0  0  0
  5  6  1  0  0  0
  7  6  2  0  0  0
  2  3  1  0  0  0
  2  1  1  0  0  0
  6  4  1  0  0  0
  3  4  1  0  0  0
  4 14  1  0  0  0
M  END
> <minimizedAffinity>
-7.26679

$$$$
5LZ7_7BK_A_502


 25 27  0  0  0  0  0  0  0  0999 V2000
   21.1026   10.0786   -3.1252 C   0  0  0  0  0  0  0  0  0  0  0  0
   21.0864    8.6326   -3.6486 C   0  0  0  0  0  0  0  0  0  0  0  0
   19.7434    7.9653   -3.2444 C   0  0  0  0  0  0  0  0  0  0  0  0
   18.9571    7.9343   -4.4679 N   0  0  0  0  0  0  0  0  0  0  0  0
   21.0494    8.6102   -5.2013 C   0  0  0  0  0  0  0  0  0  0  0  0
   19.6689    8.1512   -5.5779 C   0  0  0  0  0  0  0  0  0  0  0  0
   19.2501    7.9969   -6.7172 O   0  0  0  0  0  0  0  0  0  0  0  0
   22.6583    6.6101   -3.6493 C   0  0  0  0  0  0  0  0  0  0  0  0
   23.8244    5.9755   -3.2627 C   0  0  0  0  0  0  0  0  0  0  0  0
   24.7302    6.6224   -2.4538 C   0  0  0  0  0  0  0  0  0  0  0  0
   24.4759    7.9038   -2.0279 C   0  0  0  0  0  0  0  0  0  0  0  0
   23.3108    8.5461   -2.4108 C   0  0  0  0  0  0  0  0  0  0  0  0
   22.3792    7.9090   -3.2296 C   0  0  0  0  0  0  0  0  0  0  0  0
   17.5604    7.5417   -4.4751 C   0  0  0  0  0  0  0  0  0  0  0  0
   17.3656    6.0971   -4.8661 C   0  0  0  0  0  0  0  0  0  0  0  0
   17.3549    5.2955   -3.6754 O   0  0  0  0  0  0  0  0  0  0  0  0
   18.4496    4.5131   -3.4058 C   0  0  0  0  0  0  0  0  0  0  0  0
   20.6152    3.5778   -3.8530 C   0  0  0  0  0  0  0  0  0  0  0  0
   20.5429    2.8813   -2.6726 C   0  0  0  0  0  0  0  0  0  0  0  0
   19.4426    2.9766   -1.8362 C   0  0  0  0  0  0  0  0  0  0  0  0
   18.3864    3.8042   -2.2151 C   0  0  0  0  0  0  0  0  0  0  0  0
   19.5692    4.3955   -4.2233 C   0  0  0  0  0  0  0  0  0  0  0  0
   21.5719    2.0788   -2.3107 F   0  0  0  0  0  0  0  0  0  0  0  0
   19.3671    2.2489   -0.6057 C   0  0  0  0  0  0  0  0  0  0  0  0
   19.3053    1.6625    0.3839 N   0  0  0  0  0  0  0  0  0  0  0  0
 23 19  1  0  0  0
 10  9  2  0  0  0
 10 11  1  0  0  0
 18 19  2  0  0  0
 18 22  1  0  0  0
  9  8  1  0  0  0
 19 20  1  0  0  0
 11 12  2  0  0  0
 22 17  2  0  0  0
  8 13  2  0  0  0
 12 13  1  0  0  0
 20 24  1  0  0  0
 20 21  2  0  0  0
 13  2  1  0  0  0
 17 21  1  0  0  0
 17 16  1  0  0  0
 24 25  3  0  0  0
 15 16  1  0  0  0
 15 14  1  0  0  0
  5  2  1  0  0  0
  5  6  1  0  0  0
  7  6  2  0  0  0
  2  3  1  0  0  0
  2  1  1  0  0  0
  6  4  1  0  0  0
  3  4  1  0  0  0
  4 14  1  0  0  0
M  END
> <minimizedAffinity>
-7.16580

$$$$
