1AFL_ATR_A_125


 39 41  0  0  0  0  0  0  0  0999 V2000
   38.7350   -6.9766   19.6142 C   0  0  0  0  0  0  0  0  0  0  0  0
   37.6993   -6.3119   18.9316 O   0  0  0  0  0  0  0  0  0  0  0  0
   39.7629   -7.5968   18.5581 C   0  0  0  0  0  0  0  0  0  0  0  0
   40.4526   -8.8932   18.9403 O   0  0  0  0  0  0  0  0  0  0  0  0
   38.7365   -7.9066   17.4846 C   0  0  0  0  0  0  0  0  0  0  0  0
   37.5734   -6.9308   17.6829 C   0  0  0  0  0  0  0  0  0  0  0  0
   39.7849   -9.5665   19.1448 H   0  0  0  0  0  0  0  0  0  0  0  0
   37.3150   -5.9594   16.5231 N   0  0  0  0  0  0  0  0  0  0  0  0
   36.3170   -6.1966   15.5599 C   0  0  0  0  0  0  0  0  0  0  0  0
   36.0557   -5.2181   14.7499 N   0  0  0  0  0  0  0  0  0  0  0  0
   36.9757   -4.1991   15.1941 C   0  0  0  0  0  0  0  0  0  0  0  0
   37.1788   -2.8426   14.7690 C   0  0  0  0  0  0  0  0  0  0  0  0
   36.5406   -2.3405   13.6823 N   0  0  0  0  0  0  0  0  0  0  0  0
   38.1168   -2.1084   15.4747 N   0  0  0  0  0  0  0  0  0  0  0  0
   38.7928   -2.6774   16.4688 C   0  0  0  0  0  0  0  0  0  0  0  0
   38.7122   -3.9069   16.9478 N   0  0  0  0  0  0  0  0  0  0  0  0
   37.7593   -4.6420   16.2686 C   0  0  0  0  0  0  0  0  0  0  0  0
   35.8787   -2.8893   13.2030 H   0  0  0  0  0  0  0  0  0  0  0  0
   36.7394   -1.4272   13.3731 H   0  0  0  0  0  0  0  0  0  0  0  0
   39.0831   -5.7990   20.3653 C   0  0  0  0  0  0  0  0  0  0  0  0
   37.9300   -5.1132   20.8833 O   0  0  0  0  0  0  0  0  0  0  0  0
   38.0731   -5.2412   22.5398 P   0  0  0  0  0  0  0  0  0  0  0  0
   37.1979   -6.4240   22.8976 O   0  0  0  0  0  0  0  0  0  0  0  0
   39.5633   -5.2041   22.9273 O   0  0  0  0  0  0  0  0  0  0  0  0
   39.6488   -5.2784   23.8907 H   0  0  0  0  0  0  0  0  0  0  0  0
   37.1221   -3.8726   23.0256 O   0  0  0  0  0  0  0  0  0  0  0  0
   37.3622   -2.3480   23.3373 P   0  0  0  0  0  0  0  0  0  0  0  0
   38.6634   -1.9933   22.7817 O   0  0  0  0  0  0  0  0  0  0  0  0
   37.3583   -2.4468   24.8055 O   0  0  0  0  0  0  0  0  0  0  0  0
   36.2484   -1.6224   22.7166 O   0  0  0  0  0  0  0  0  0  0  0  0
   37.4984   -1.5670   25.1891 H   0  0  0  0  0  0  0  0  0  0  0  0
   36.3501   -0.6718   22.8809 H   0  0  0  0  0  0  0  0  0  0  0  0
   38.1659   -9.1719   17.7553 O   0  0  0  0  0  0  0  0  0  0  0  0
   38.0354  -10.2046   16.4802 P   0  0  0  0  0  0  0  0  0  0  0  0
   36.8059  -11.0210   16.6706 O   0  0  0  0  0  0  0  0  0  0  0  0
   38.0261   -9.3077   15.2753 O   0  0  0  0  0  0  0  0  0  0  0  0
   39.3339  -10.8412   16.8579 O   0  0  0  0  0  0  0  0  0  0  0  0
   37.1310   -8.9601   15.1379 H   0  0  0  0  0  0  0  0  0  0  0  0
   39.2069  -11.3916   17.6465 H   0  0  0  0  0  0  0  0  0  0  0  0
 27 28  2  0  0  0
 27 29  1  0  0  0
 27 30  1  0  0  0
 27 26  1  0  0  0
 22 23  2  0  0  0
 22 24  1  0  0  0
 22 26  1  0  0  0
 22 21  1  0  0  0
 21 20  1  0  0  0
 20  1  1  0  0  0
  1  2  1  0  0  0
  1  3  1  0  0  0
  2  6  1  0  0  0
  3  4  1  0  0  0
  3  5  1  0  0  0
  5 33  1  0  0  0
  5  6  1  0  0  0
 33 34  1  0  0  0
 34 35  2  0  0  0
 34 36  1  0  0  0
 34 37  1  0  0  0
  6  8  1  0  0  0
  8  9  1  0  0  0
  8 17  1  0  0  0
  9 10  2  0  0  0
 10 11  1  0  0  0
 11 12  1  0  0  0
 11 17  2  0  0  0
 12 13  1  0  0  0
 12 14  2  0  0  0
 14 15  1  0  0  0
 15 16  2  0  0  0
 16 17  1  0  0  0
 29 31  1  0  0  0
 30 32  1  0  0  0
 24 25  1  0  0  0
  4  7  1  0  0  0
 36 38  1  0  0  0
 37 39  1  0  0  0
 13 18  1  0  0  0
 13 19  1  0  0  0
M  END
> <minimizedAffinity>
-7.29753

$$$$
1AFL_ATR_A_125


 39 41  0  0  0  0  0  0  0  0999 V2000
   39.7849   -5.4667   21.8315 C   0  0  0  0  0  0  0  0  0  0  0  0
   38.8990   -4.9077   20.8916 O   0  0  0  0  0  0  0  0  0  0  0  0
   40.3092   -6.8808   21.3006 C   0  0  0  0  0  0  0  0  0  0  0  0
   40.6083   -7.9446   22.3405 O   0  0  0  0  0  0  0  0  0  0  0  0
   39.0348   -7.2732   20.5768 C   0  0  0  0  0  0  0  0  0  0  0  0
   38.3186   -5.9744   20.1964 C   0  0  0  0  0  0  0  0  0  0  0  0
   39.8186   -8.0982   22.8824 H   0  0  0  0  0  0  0  0  0  0  0  0
   38.1476   -5.7253   18.6917 N   0  0  0  0  0  0  0  0  0  0  0  0
   37.1931   -6.4185   17.9247 C   0  0  0  0  0  0  0  0  0  0  0  0
   37.0018   -5.9859   16.7171 N   0  0  0  0  0  0  0  0  0  0  0  0
   37.9275   -4.8821   16.6372 C   0  0  0  0  0  0  0  0  0  0  0  0
   38.1913   -3.9282   15.5967 C   0  0  0  0  0  0  0  0  0  0  0  0
   37.6238   -4.0467   14.3703 N   0  0  0  0  0  0  0  0  0  0  0  0
   39.1135   -2.9372   15.8871 N   0  0  0  0  0  0  0  0  0  0  0  0
   39.7215   -2.9233   17.0699 C   0  0  0  0  0  0  0  0  0  0  0  0
   39.5809   -3.7402   18.0997 N   0  0  0  0  0  0  0  0  0  0  0  0
   38.6425   -4.7186   17.8318 C   0  0  0  0  0  0  0  0  0  0  0  0
   36.9712   -4.7631   14.1970 H   0  0  0  0  0  0  0  0  0  0  0  0
   37.8645   -3.4162   13.6535 H   0  0  0  0  0  0  0  0  0  0  0  0
   40.6450   -4.3128   21.8033 C   0  0  0  0  0  0  0  0  0  0  0  0
   40.3927   -3.4089   22.8930 O   0  0  0  0  0  0  0  0  0  0  0  0
   40.1203   -1.9347   22.1625 P   0  0  0  0  0  0  0  0  0  0  0  0
   41.1659   -1.0218   22.7677 O   0  0  0  0  0  0  0  0  0  0  0  0
   40.0179   -2.1320   20.6385 O   0  0  0  0  0  0  0  0  0  0  0  0
   39.8595   -1.2755   20.2115 H   0  0  0  0  0  0  0  0  0  0  0  0
   38.6580   -1.4683   22.9735 O   0  0  0  0  0  0  0  0  0  0  0  0
   37.2504   -2.1043   23.2792 P   0  0  0  0  0  0  0  0  0  0  0  0
   37.3117   -2.6620   24.6256 O   0  0  0  0  0  0  0  0  0  0  0  0
   37.2643   -3.1255   22.2198 O   0  0  0  0  0  0  0  0  0  0  0  0
   36.2723   -1.0192   23.1441 O   0  0  0  0  0  0  0  0  0  0  0  0
   36.4414   -3.6380   22.2539 H   0  0  0  0  0  0  0  0  0  0  0  0
   35.3827   -1.3615   23.3238 H   0  0  0  0  0  0  0  0  0  0  0  0
   38.1578   -7.8840   21.5028 O   0  0  0  0  0  0  0  0  0  0  0  0
   37.3686   -9.2323   20.9847 P   0  0  0  0  0  0  0  0  0  0  0  0
   37.5121   -9.3121   19.5056 O   0  0  0  0  0  0  0  0  0  0  0  0
   38.0093  -10.3549   21.7498 O   0  0  0  0  0  0  0  0  0  0  0  0
   36.0806   -8.6848   21.5096 O   0  0  0  0  0  0  0  0  0  0  0  0
   38.8326  -10.6179   21.3094 H   0  0  0  0  0  0  0  0  0  0  0  0
   35.7730   -7.9702   20.9302 H   0  0  0  0  0  0  0  0  0  0  0  0
 27 28  2  0  0  0
 27 29  1  0  0  0
 27 30  1  0  0  0
 27 26  1  0  0  0
 22 23  2  0  0  0
 22 24  1  0  0  0
 22 26  1  0  0  0
 22 21  1  0  0  0
 21 20  1  0  0  0
 20  1  1  0  0  0
  1  2  1  0  0  0
  1  3  1  0  0  0
  2  6  1  0  0  0
  3  4  1  0  0  0
  3  5  1  0  0  0
  5 33  1  0  0  0
  5  6  1  0  0  0
 33 34  1  0  0  0
 34 35  2  0  0  0
 34 36  1  0  0  0
 34 37  1  0  0  0
  6  8  1  0  0  0
  8  9  1  0  0  0
  8 17  1  0  0  0
  9 10  2  0  0  0
 10 11  1  0  0  0
 11 12  1  0  0  0
 11 17  2  0  0  0
 12 13  1  0  0  0
 12 14  2  0  0  0
 14 15  1  0  0  0
 15 16  2  0  0  0
 16 17  1  0  0  0
 29 31  1  0  0  0
 30 32  1  0  0  0
 24 25  1  0  0  0
  4  7  1  0  0  0
 36 38  1  0  0  0
 37 39  1  0  0  0
 13 18  1  0  0  0
 13 19  1  0  0  0
M  END
> <minimizedAffinity>
-7.19222

$$$$
1AFL_ATR_A_125


 39 41  0  0  0  0  0  0  0  0999 V2000
   38.3071   -5.5521   18.8054 C   0  0  0  0  0  0  0  0  0  0  0  0
   38.9300   -4.3138   18.5618 O   0  0  0  0  0  0  0  0  0  0  0  0
   38.5805   -6.5412   17.5792 C   0  0  0  0  0  0  0  0  0  0  0  0
   37.4932   -7.5442   17.2414 O   0  0  0  0  0  0  0  0  0  0  0  0
   38.5908   -5.4747   16.5002 C   0  0  0  0  0  0  0  0  0  0  0  0
   39.0026   -4.1621   17.1726 C   0  0  0  0  0  0  0  0  0  0  0  0
   36.6613   -7.0748   17.0725 H   0  0  0  0  0  0  0  0  0  0  0  0
   40.3165   -3.5438   16.6757 N   0  0  0  0  0  0  0  0  0  0  0  0
   41.0223   -4.0733   15.5796 C   0  0  0  0  0  0  0  0  0  0  0  0
   42.0035   -3.3562   15.1270 N   0  0  0  0  0  0  0  0  0  0  0  0
   41.9795   -2.2138   16.0080 C   0  0  0  0  0  0  0  0  0  0  0  0
   42.7605   -1.0091   16.0338 C   0  0  0  0  0  0  0  0  0  0  0  0
   43.8270   -0.8417   15.2124 N   0  0  0  0  0  0  0  0  0  0  0  0
   42.4173   -0.0714   16.9929 N   0  0  0  0  0  0  0  0  0  0  0  0
   41.4281   -0.3257   17.8447 C   0  0  0  0  0  0  0  0  0  0  0  0
   40.6466   -1.3881   17.9363 N   0  0  0  0  0  0  0  0  0  0  0  0
   40.9619   -2.3204   16.9662 C   0  0  0  0  0  0  0  0  0  0  0  0
   44.0436   -1.5282   14.5408 H   0  0  0  0  0  0  0  0  0  0  0  0
   44.3844   -0.0337   15.2878 H   0  0  0  0  0  0  0  0  0  0  0  0
   39.0017   -5.7289   20.0537 C   0  0  0  0  0  0  0  0  0  0  0  0
   38.1922   -5.3813   21.1904 O   0  0  0  0  0  0  0  0  0  0  0  0
   39.1914   -4.4538   22.1507 P   0  0  0  0  0  0  0  0  0  0  0  0
   39.1849   -5.1641   23.4880 O   0  0  0  0  0  0  0  0  0  0  0  0
   40.5073   -4.1770   21.3998 O   0  0  0  0  0  0  0  0  0  0  0  0
   41.0901   -3.6375   21.9567 H   0  0  0  0  0  0  0  0  0  0  0  0
   38.1589   -3.0837   22.4155 O   0  0  0  0  0  0  0  0  0  0  0  0
   36.8906   -2.7403   23.2831 P   0  0  0  0  0  0  0  0  0  0  0  0
   37.3544   -2.4771   24.6407 O   0  0  0  0  0  0  0  0  0  0  0  0
   36.2008   -4.0320   23.1386 O   0  0  0  0  0  0  0  0  0  0  0  0
   36.2626   -1.5763   22.6481 O   0  0  0  0  0  0  0  0  0  0  0  0
   35.3632   -4.0077   23.6272 H   0  0  0  0  0  0  0  0  0  0  0  0
   35.4709   -1.3231   23.1481 H   0  0  0  0  0  0  0  0  0  0  0  0
   37.2600   -5.2383   16.0843 O   0  0  0  0  0  0  0  0  0  0  0  0
   37.0283   -4.9958   14.4729 P   0  0  0  0  0  0  0  0  0  0  0  0
   37.2778   -3.5580   14.1813 O   0  0  0  0  0  0  0  0  0  0  0  0
   37.9769   -5.9551   13.8126 O   0  0  0  0  0  0  0  0  0  0  0  0
   35.6014   -5.4192   14.6105 O   0  0  0  0  0  0  0  0  0  0  0  0
   38.8645   -5.5648   13.7852 H   0  0  0  0  0  0  0  0  0  0  0  0
   35.0967   -4.7169   15.0497 H   0  0  0  0  0  0  0  0  0  0  0  0
 27 28  2  0  0  0
 27 29  1  0  0  0
 27 30  1  0  0  0
 27 26  1  0  0  0
 22 23  2  0  0  0
 22 24  1  0  0  0
 22 26  1  0  0  0
 22 21  1  0  0  0
 21 20  1  0  0  0
 20  1  1  0  0  0
  1  2  1  0  0  0
  1  3  1  0  0  0
  2  6  1  0  0  0
  3  4  1  0  0  0
  3  5  1  0  0  0
  5 33  1  0  0  0
  5  6  1  0  0  0
 33 34  1  0  0  0
 34 35  2  0  0  0
 34 36  1  0  0  0
 34 37  1  0  0  0
  6  8  1  0  0  0
  8  9  1  0  0  0
  8 17  1  0  0  0
  9 10  2  0  0  0
 10 11  1  0  0  0
 11 12  1  0  0  0
 11 17  2  0  0  0
 12 13  1  0  0  0
 12 14  2  0  0  0
 14 15  1  0  0  0
 15 16  2  0  0  0
 16 17  1  0  0  0
 29 31  1  0  0  0
 30 32  1  0  0  0
 24 25  1  0  0  0
  4  7  1  0  0  0
 36 38  1  0  0  0
 37 39  1  0  0  0
 13 18  1  0  0  0
 13 19  1  0  0  0
M  END
> <minimizedAffinity>
-6.76043

$$$$
1AFL_ATR_A_125


 39 41  0  0  0  0  0  0  0  0999 V2000
   39.2456   -7.4708   19.4052 C   0  0  0  0  0  0  0  0  0  0  0  0
   39.6456   -6.5939   18.3797 O   0  0  0  0  0  0  0  0  0  0  0  0
   37.9242   -6.9083   20.1080 C   0  0  0  0  0  0  0  0  0  0  0  0
   37.7509   -7.1930   21.5884 O   0  0  0  0  0  0  0  0  0  0  0  0
   38.2591   -5.4375   19.9461 C   0  0  0  0  0  0  0  0  0  0  0  0
   39.1842   -5.3205   18.7316 C   0  0  0  0  0  0  0  0  0  0  0  0
   38.5197   -6.8561   22.0746 H   0  0  0  0  0  0  0  0  0  0  0  0
   38.6358   -4.5031   17.5541 N   0  0  0  0  0  0  0  0  0  0  0  0
   39.2830   -3.3453   17.0844 C   0  0  0  0  0  0  0  0  0  0  0  0
   38.8442   -2.8546   15.9670 N   0  0  0  0  0  0  0  0  0  0  0  0
   37.7751   -3.7640   15.6324 C   0  0  0  0  0  0  0  0  0  0  0  0
   36.9038   -3.8384   14.4932 C   0  0  0  0  0  0  0  0  0  0  0  0
   36.8977   -2.8685   13.5449 N   0  0  0  0  0  0  0  0  0  0  0  0
   36.0201   -4.9038   14.4606 N   0  0  0  0  0  0  0  0  0  0  0  0
   35.9927   -5.7735   15.4664 C   0  0  0  0  0  0  0  0  0  0  0  0
   36.7235   -5.8126   16.5673 N   0  0  0  0  0  0  0  0  0  0  0  0
   37.6287   -4.7688   16.5987 C   0  0  0  0  0  0  0  0  0  0  0  0
   37.5400   -2.1243   13.5978 H   0  0  0  0  0  0  0  0  0  0  0  0
   36.2510   -2.9088   12.8037 H   0  0  0  0  0  0  0  0  0  0  0  0
   39.1720   -8.5922   18.5057 C   0  0  0  0  0  0  0  0  0  0  0  0
   37.9697   -8.5897   17.7167 O   0  0  0  0  0  0  0  0  0  0  0  0
   38.2913   -9.6330   16.4562 P   0  0  0  0  0  0  0  0  0  0  0  0
   39.7670   -9.9416   16.5972 O   0  0  0  0  0  0  0  0  0  0  0  0
   37.2379  -10.7565   16.4428 O   0  0  0  0  0  0  0  0  0  0  0  0
   37.4232  -11.3647   15.7101 H   0  0  0  0  0  0  0  0  0  0  0  0
   38.2365   -8.5173   15.1274 O   0  0  0  0  0  0  0  0  0  0  0  0
   39.2611   -7.6679   14.2858 P   0  0  0  0  0  0  0  0  0  0  0  0
   40.0590   -8.6052   13.5033 O   0  0  0  0  0  0  0  0  0  0  0  0
   39.9941   -7.0733   15.4147 O   0  0  0  0  0  0  0  0  0  0  0  0
   38.4589   -6.7581   13.4606 O   0  0  0  0  0  0  0  0  0  0  0  0
   40.6948   -6.4942   15.0762 H   0  0  0  0  0  0  0  0  0  0  0  0
   39.0473   -6.2088   12.9193 H   0  0  0  0  0  0  0  0  0  0  0  0
   39.0731   -5.0364   21.0307 O   0  0  0  0  0  0  0  0  0  0  0  0
   38.3196   -4.2340   22.2545 P   0  0  0  0  0  0  0  0  0  0  0  0
   36.8504   -4.3608   22.0548 O   0  0  0  0  0  0  0  0  0  0  0  0
   38.8520   -4.8766   23.5034 O   0  0  0  0  0  0  0  0  0  0  0  0
   38.9534   -2.9549   21.8113 O   0  0  0  0  0  0  0  0  0  0  0  0
   38.3602   -5.6935   23.6816 H   0  0  0  0  0  0  0  0  0  0  0  0
   38.5227   -2.6450   20.9993 H   0  0  0  0  0  0  0  0  0  0  0  0
 27 28  2  0  0  0
 27 29  1  0  0  0
 27 30  1  0  0  0
 27 26  1  0  0  0
 22 23  2  0  0  0
 22 24  1  0  0  0
 22 26  1  0  0  0
 22 21  1  0  0  0
 21 20  1  0  0  0
 20  1  1  0  0  0
  1  2  1  0  0  0
  1  3  1  0  0  0
  2  6  1  0  0  0
  3  4  1  0  0  0
  3  5  1  0  0  0
  5 33  1  0  0  0
  5  6  1  0  0  0
 33 34  1  0  0  0
 34 35  2  0  0  0
 34 36  1  0  0  0
 34 37  1  0  0  0
  6  8  1  0  0  0
  8  9  1  0  0  0
  8 17  1  0  0  0
  9 10  2  0  0  0
 10 11  1  0  0  0
 11 12  1  0  0  0
 11 17  2  0  0  0
 12 13  1  0  0  0
 12 14  2  0  0  0
 14 15  1  0  0  0
 15 16  2  0  0  0
 16 17  1  0  0  0
 29 31  1  0  0  0
 30 32  1  0  0  0
 24 25  1  0  0  0
  4  7  1  0  0  0
 36 38  1  0  0  0
 37 39  1  0  0  0
 13 18  1  0  0  0
 13 19  1  0  0  0
M  END
> <minimizedAffinity>
-6.71090

$$$$
1AFL_ATR_A_125


 39 41  0  0  0  0  0  0  0  0999 V2000
   39.3553   -4.7747   20.9409 C   0  0  0  0  0  0  0  0  0  0  0  0
   38.5890   -5.0252   19.7874 O   0  0  0  0  0  0  0  0  0  0  0  0
   40.5485   -3.7714   20.5857 C   0  0  0  0  0  0  0  0  0  0  0  0
   41.8474   -3.9394   21.3519 O   0  0  0  0  0  0  0  0  0  0  0  0
   40.7690   -4.2653   19.1683 C   0  0  0  0  0  0  0  0  0  0  0  0
   39.4412   -4.8591   18.6899 C   0  0  0  0  0  0  0  0  0  0  0  0
   42.1720   -4.8470   21.2430 H   0  0  0  0  0  0  0  0  0  0  0  0
   38.7916   -4.1555   17.4906 N   0  0  0  0  0  0  0  0  0  0  0  0
   39.3094   -2.9610   16.9566 C   0  0  0  0  0  0  0  0  0  0  0  0
   38.8030   -2.5684   15.8291 N   0  0  0  0  0  0  0  0  0  0  0  0
   37.8260   -3.5951   15.5583 C   0  0  0  0  0  0  0  0  0  0  0  0
   36.9466   -3.8086   14.4433 C   0  0  0  0  0  0  0  0  0  0  0  0
   36.8250   -2.8884   13.4541 N   0  0  0  0  0  0  0  0  0  0  0  0
   36.1752   -4.9578   14.4769 N   0  0  0  0  0  0  0  0  0  0  0  0
   36.2542   -5.7792   15.5199 C   0  0  0  0  0  0  0  0  0  0  0  0
   37.0048   -5.6944   16.6048 N   0  0  0  0  0  0  0  0  0  0  0  0
   37.7997   -4.5645   16.5705 C   0  0  0  0  0  0  0  0  0  0  0  0
   37.3892   -2.0817   13.4601 H   0  0  0  0  0  0  0  0  0  0  0  0
   36.1725   -3.0274   12.7300 H   0  0  0  0  0  0  0  0  0  0  0  0
   38.2097   -4.3126   21.6799 C   0  0  0  0  0  0  0  0  0  0  0  0
   38.3466   -2.9490   22.1157 O   0  0  0  0  0  0  0  0  0  0  0  0
   37.6763   -2.9257   23.6425 P   0  0  0  0  0  0  0  0  0  0  0  0
   37.9298   -1.5174   24.1377 O   0  0  0  0  0  0  0  0  0  0  0  0
   36.2513   -3.5070   23.5827 O   0  0  0  0  0  0  0  0  0  0  0  0
   35.8595   -3.4944   24.4700 H   0  0  0  0  0  0  0  0  0  0  0  0
   38.8536   -3.8730   24.4969 O   0  0  0  0  0  0  0  0  0  0  0  0
   40.4092   -3.8429   24.7390 P   0  0  0  0  0  0  0  0  0  0  0  0
   40.9537   -5.0858   24.2040 O   0  0  0  0  0  0  0  0  0  0  0  0
   40.3763   -3.8017   26.2096 O   0  0  0  0  0  0  0  0  0  0  0  0
   40.9080   -2.6468   24.0512 O   0  0  0  0  0  0  0  0  0  0  0  0
   41.2832   -3.7784   26.5528 H   0  0  0  0  0  0  0  0  0  0  0  0
   41.8684   -2.5819   24.1708 H   0  0  0  0  0  0  0  0  0  0  0  0
   41.6419   -5.3772   19.2069 O   0  0  0  0  0  0  0  0  0  0  0  0
   42.9333   -5.3304   18.1873 P   0  0  0  0  0  0  0  0  0  0  0  0
   43.0849   -6.6765   17.5714 O   0  0  0  0  0  0  0  0  0  0  0  0
   42.6086   -4.2218   17.2272 O   0  0  0  0  0  0  0  0  0  0  0  0
   43.8336   -5.0082   19.3362 O   0  0  0  0  0  0  0  0  0  0  0  0
   42.0206   -4.5576   16.5326 H   0  0  0  0  0  0  0  0  0  0  0  0
   43.9640   -5.8025   19.8774 H   0  0  0  0  0  0  0  0  0  0  0  0
 27 28  2  0  0  0
 27 29  1  0  0  0
 27 30  1  0  0  0
 27 26  1  0  0  0
 22 23  2  0  0  0
 22 24  1  0  0  0
 22 26  1  0  0  0
 22 21  1  0  0  0
 21 20  1  0  0  0
 20  1  1  0  0  0
  1  2  1  0  0  0
  1  3  1  0  0  0
  2  6  1  0  0  0
  3  4  1  0  0  0
  3  5  1  0  0  0
  5 33  1  0  0  0
  5  6  1  0  0  0
 33 34  1  0  0  0
 34 35  2  0  0  0
 34 36  1  0  0  0
 34 37  1  0  0  0
  6  8  1  0  0  0
  8  9  1  0  0  0
  8 17  1  0  0  0
  9 10  2  0  0  0
 10 11  1  0  0  0
 11 12  1  0  0  0
 11 17  2  0  0  0
 12 13  1  0  0  0
 12 14  2  0  0  0
 14 15  1  0  0  0
 15 16  2  0  0  0
 16 17  1  0  0  0
 29 31  1  0  0  0
 30 32  1  0  0  0
 24 25  1  0  0  0
  4  7  1  0  0  0
 36 38  1  0  0  0
 37 39  1  0  0  0
 13 18  1  0  0  0
 13 19  1  0  0  0
M  END
> <minimizedAffinity>
-6.70681

$$$$
1AFL_ATR_A_125


 39 41  0  0  0  0  0  0  0  0999 V2000
   39.0501   -5.6938   20.9031 C   0  0  0  0  0  0  0  0  0  0  0  0
   37.9787   -5.5348   20.0045 O   0  0  0  0  0  0  0  0  0  0  0  0
   40.3307   -6.2446   20.1200 C   0  0  0  0  0  0  0  0  0  0  0  0
   41.2695   -7.1605   20.8830 O   0  0  0  0  0  0  0  0  0  0  0  0
   39.5660   -7.0842   19.1140 C   0  0  0  0  0  0  0  0  0  0  0  0
   38.1782   -6.4537   18.9682 C   0  0  0  0  0  0  0  0  0  0  0  0
   40.7729   -7.9206   21.2245 H   0  0  0  0  0  0  0  0  0  0  0  0
   37.8370   -5.9119   17.5734 N   0  0  0  0  0  0  0  0  0  0  0  0
   36.8940   -6.5405   16.7393 C   0  0  0  0  0  0  0  0  0  0  0  0
   36.5414   -5.8873   15.6759 N   0  0  0  0  0  0  0  0  0  0  0  0
   37.3297   -4.6833   15.7808 C   0  0  0  0  0  0  0  0  0  0  0  0
   37.3868   -3.5031   14.9647 C   0  0  0  0  0  0  0  0  0  0  0  0
   36.7200   -3.4274   13.7858 N   0  0  0  0  0  0  0  0  0  0  0  0
   38.2195   -2.4882   15.4045 N   0  0  0  0  0  0  0  0  0  0  0  0
   38.9335   -2.6507   16.5147 C   0  0  0  0  0  0  0  0  0  0  0  0
   38.9824   -3.6803   17.3425 N   0  0  0  0  0  0  0  0  0  0  0  0
   38.1344   -4.6899   16.9285 C   0  0  0  0  0  0  0  0  0  0  0  0
   36.1354   -4.1672   13.5025 H   0  0  0  0  0  0  0  0  0  0  0  0
   36.8206   -2.6326   13.2135 H   0  0  0  0  0  0  0  0  0  0  0  0
   38.9875   -4.3179   21.3217 C   0  0  0  0  0  0  0  0  0  0  0  0
   39.7944   -4.0565   22.4831 O   0  0  0  0  0  0  0  0  0  0  0  0
   38.7137   -3.5202   23.6343 P   0  0  0  0  0  0  0  0  0  0  0  0
   37.3961   -4.1447   23.2261 O   0  0  0  0  0  0  0  0  0  0  0  0
   39.3065   -3.7510   25.0370 O   0  0  0  0  0  0  0  0  0  0  0  0
   38.6794   -3.4397   25.7083 H   0  0  0  0  0  0  0  0  0  0  0  0
   38.5484   -1.8653   23.1367 O   0  0  0  0  0  0  0  0  0  0  0  0
   37.4688   -0.7247   23.2499 P   0  0  0  0  0  0  0  0  0  0  0  0
   37.3882   -0.3445   24.6558 O   0  0  0  0  0  0  0  0  0  0  0  0
   36.3113   -1.5058   22.7859 O   0  0  0  0  0  0  0  0  0  0  0  0
   37.9291    0.3631   22.3797 O   0  0  0  0  0  0  0  0  0  0  0  0
   35.5203   -0.9444   22.7887 H   0  0  0  0  0  0  0  0  0  0  0  0
   37.2941    1.0955   22.4142 H   0  0  0  0  0  0  0  0  0  0  0  0
   39.3034   -8.3501   19.6871 O   0  0  0  0  0  0  0  0  0  0  0  0
   39.7804   -9.6621   18.8151 P   0  0  0  0  0  0  0  0  0  0  0  0
   39.3225   -9.4755   17.4115 O   0  0  0  0  0  0  0  0  0  0  0  0
   41.2704   -9.7092   18.9996 O   0  0  0  0  0  0  0  0  0  0  0  0
   38.9479  -10.5477   19.6850 O   0  0  0  0  0  0  0  0  0  0  0  0
   41.6925   -9.0932   18.3805 H   0  0  0  0  0  0  0  0  0  0  0  0
   38.0104  -10.4244   19.4689 H   0  0  0  0  0  0  0  0  0  0  0  0
 27 28  2  0  0  0
 27 29  1  0  0  0
 27 30  1  0  0  0
 27 26  1  0  0  0
 22 23  2  0  0  0
 22 24  1  0  0  0
 22 26  1  0  0  0
 22 21  1  0  0  0
 21 20  1  0  0  0
 20  1  1  0  0  0
  1  2  1  0  0  0
  1  3  1  0  0  0
  2  6  1  0  0  0
  3  4  1  0  0  0
  3  5  1  0  0  0
  5 33  1  0  0  0
  5  6  1  0  0  0
 33 34  1  0  0  0
 34 35  2  0  0  0
 34 36  1  0  0  0
 34 37  1  0  0  0
  6  8  1  0  0  0
  8  9  1  0  0  0
  8 17  1  0  0  0
  9 10  2  0  0  0
 10 11  1  0  0  0
 11 12  1  0  0  0
 11 17  2  0  0  0
 12 13  1  0  0  0
 12 14  2  0  0  0
 14 15  1  0  0  0
 15 16  2  0  0  0
 16 17  1  0  0  0
 29 31  1  0  0  0
 30 32  1  0  0  0
 24 25  1  0  0  0
  4  7  1  0  0  0
 36 38  1  0  0  0
 37 39  1  0  0  0
 13 18  1  0  0  0
 13 19  1  0  0  0
M  END
> <minimizedAffinity>
-6.68951

$$$$
1AFL_ATR_A_125


 39 41  0  0  0  0  0  0  0  0999 V2000
   40.7001   -4.5572   20.3244 C   0  0  0  0  0  0  0  0  0  0  0  0
   39.4652   -4.1838   19.7621 O   0  0  0  0  0  0  0  0  0  0  0  0
   41.6667   -5.1115   19.1777 C   0  0  0  0  0  0  0  0  0  0  0  0
   42.6483   -6.2020   19.5650 O   0  0  0  0  0  0  0  0  0  0  0  0
   40.5780   -5.7370   18.3261 C   0  0  0  0  0  0  0  0  0  0  0  0
   39.2853   -4.9703   18.6188 C   0  0  0  0  0  0  0  0  0  0  0  0
   42.1646   -6.9530   19.9431 H   0  0  0  0  0  0  0  0  0  0  0  0
   38.6738   -4.2186   17.4286 N   0  0  0  0  0  0  0  0  0  0  0  0
   39.2205   -3.0151   16.9460 C   0  0  0  0  0  0  0  0  0  0  0  0
   38.7461   -2.5787   15.8208 N   0  0  0  0  0  0  0  0  0  0  0  0
   37.7614   -3.5815   15.4943 C   0  0  0  0  0  0  0  0  0  0  0  0
   36.9053   -3.7457   14.3531 C   0  0  0  0  0  0  0  0  0  0  0  0
   36.8197   -2.7922   13.3920 N   0  0  0  0  0  0  0  0  0  0  0  0
   36.1173   -4.8839   14.3313 N   0  0  0  0  0  0  0  0  0  0  0  0
   36.1605   -5.7398   15.3483 C   0  0  0  0  0  0  0  0  0  0  0  0
   36.8868   -5.7013   16.4523 N   0  0  0  0  0  0  0  0  0  0  0  0
   37.6980   -4.5828   16.4732 C   0  0  0  0  0  0  0  0  0  0  0  0
   37.3949   -1.9945   13.4374 H   0  0  0  0  0  0  0  0  0  0  0  0
   36.1824   -2.8979   12.6491 H   0  0  0  0  0  0  0  0  0  0  0  0
   40.9122   -3.2496   20.8877 C   0  0  0  0  0  0  0  0  0  0  0  0
   40.8458   -3.2494   22.3242 O   0  0  0  0  0  0  0  0  0  0  0  0
   39.8433   -1.9706   22.6991 P   0  0  0  0  0  0  0  0  0  0  0  0
   39.9688   -1.8287   24.2014 O   0  0  0  0  0  0  0  0  0  0  0  0
   40.1479   -0.7907   21.7571 O   0  0  0  0  0  0  0  0  0  0  0  0
   39.5657   -0.0457   21.9735 H   0  0  0  0  0  0  0  0  0  0  0  0
   38.2986   -2.7352   22.4926 O   0  0  0  0  0  0  0  0  0  0  0  0
   36.9474   -2.8500   23.2929 P   0  0  0  0  0  0  0  0  0  0  0  0
   36.3983   -4.1746   23.0254 O   0  0  0  0  0  0  0  0  0  0  0  0
   36.2241   -1.7659   22.6096 O   0  0  0  0  0  0  0  0  0  0  0  0
   37.2874   -2.6364   24.7040 O   0  0  0  0  0  0  0  0  0  0  0  0
   35.3334   -1.6848   22.9849 H   0  0  0  0  0  0  0  0  0  0  0  0
   36.4834   -2.6975   25.2432 H   0  0  0  0  0  0  0  0  0  0  0  0
   40.3157   -7.0392   18.8110 O   0  0  0  0  0  0  0  0  0  0  0  0
   40.2303   -8.2368   17.6850 P   0  0  0  0  0  0  0  0  0  0  0  0
   40.1089   -9.5360   18.4004 O   0  0  0  0  0  0  0  0  0  0  0  0
   39.0499   -7.8635   16.8345 O   0  0  0  0  0  0  0  0  0  0  0  0
   41.5887   -7.8667   17.1829 O   0  0  0  0  0  0  0  0  0  0  0  0
   38.2333   -8.1570   17.2680 H   0  0  0  0  0  0  0  0  0  0  0  0
   42.2596   -8.1611   17.8185 H   0  0  0  0  0  0  0  0  0  0  0  0
 27 28  2  0  0  0
 27 29  1  0  0  0
 27 30  1  0  0  0
 27 26  1  0  0  0
 22 23  2  0  0  0
 22 24  1  0  0  0
 22 26  1  0  0  0
 22 21  1  0  0  0
 21 20  1  0  0  0
 20  1  1  0  0  0
  1  2  1  0  0  0
  1  3  1  0  0  0
  2  6  1  0  0  0
  3  4  1  0  0  0
  3  5  1  0  0  0
  5 33  1  0  0  0
  5  6  1  0  0  0
 33 34  1  0  0  0
 34 35  2  0  0  0
 34 36  1  0  0  0
 34 37  1  0  0  0
  6  8  1  0  0  0
  8  9  1  0  0  0
  8 17  1  0  0  0
  9 10  2  0  0  0
 10 11  1  0  0  0
 11 12  1  0  0  0
 11 17  2  0  0  0
 12 13  1  0  0  0
 12 14  2  0  0  0
 14 15  1  0  0  0
 15 16  2  0  0  0
 16 17  1  0  0  0
 29 31  1  0  0  0
 30 32  1  0  0  0
 24 25  1  0  0  0
  4  7  1  0  0  0
 36 38  1  0  0  0
 37 39  1  0  0  0
 13 18  1  0  0  0
 13 19  1  0  0  0
M  END
> <minimizedAffinity>
-6.65501

$$$$
1AFL_ATR_A_125


 39 41  0  0  0  0  0  0  0  0999 V2000
   39.8561   -5.7330   21.5907 C   0  0  0  0  0  0  0  0  0  0  0  0
   40.7696   -6.8019   21.5292 O   0  0  0  0  0  0  0  0  0  0  0  0
   38.3827   -6.2996   21.8446 C   0  0  0  0  0  0  0  0  0  0  0  0
   37.2284   -5.5317   21.2276 O   0  0  0  0  0  0  0  0  0  0  0  0
   38.5609   -7.5898   21.0667 C   0  0  0  0  0  0  0  0  0  0  0  0
   40.0557   -7.9209   21.0859 C   0  0  0  0  0  0  0  0  0  0  0  0
   37.3641   -5.4582   20.2699 H   0  0  0  0  0  0  0  0  0  0  0  0
   40.4381   -9.2298   21.7902 N   0  0  0  0  0  0  0  0  0  0  0  0
   41.5509   -9.3183   22.6469 C   0  0  0  0  0  0  0  0  0  0  0  0
   41.6590  -10.4104   23.3378 N   0  0  0  0  0  0  0  0  0  0  0  0
   40.5037  -11.1603   22.9078 C   0  0  0  0  0  0  0  0  0  0  0  0
   39.9849  -12.4356   23.3159 C   0  0  0  0  0  0  0  0  0  0  0  0
   40.6744  -13.2396   24.1635 N   0  0  0  0  0  0  0  0  0  0  0  0
   38.7913  -12.8306   22.7360 N   0  0  0  0  0  0  0  0  0  0  0  0
   38.2043  -12.0524   21.8311 C   0  0  0  0  0  0  0  0  0  0  0  0
   38.5785  -10.8743   21.3625 N   0  0  0  0  0  0  0  0  0  0  0  0
   39.7555  -10.4565   21.9541 C   0  0  0  0  0  0  0  0  0  0  0  0
   41.5204  -12.9278   24.5588 H   0  0  0  0  0  0  0  0  0  0  0  0
   40.3288  -14.1348   24.3832 H   0  0  0  0  0  0  0  0  0  0  0  0
   40.5827   -5.0887   22.6534 C   0  0  0  0  0  0  0  0  0  0  0  0
   39.8268   -5.0164   23.8747 O   0  0  0  0  0  0  0  0  0  0  0  0
   40.0476   -3.4541   24.4144 P   0  0  0  0  0  0  0  0  0  0  0  0
   40.3446   -3.6100   25.8910 O   0  0  0  0  0  0  0  0  0  0  0  0
   41.0261   -2.7238   23.4756 O   0  0  0  0  0  0  0  0  0  0  0  0
   41.1560   -1.8146   23.7878 H   0  0  0  0  0  0  0  0  0  0  0  0
   38.4036   -2.8972   24.3890 O   0  0  0  0  0  0  0  0  0  0  0  0
   37.2921   -2.6189   23.3090 P   0  0  0  0  0  0  0  0  0  0  0  0
   36.2981   -3.6797   23.4290 O   0  0  0  0  0  0  0  0  0  0  0  0
   38.1442   -2.7455   22.1160 O   0  0  0  0  0  0  0  0  0  0  0  0
   36.7570   -1.2855   23.6057 O   0  0  0  0  0  0  0  0  0  0  0  0
   37.6096   -2.5997   21.3199 H   0  0  0  0  0  0  0  0  0  0  0  0
   36.0638   -1.0651   22.9640 H   0  0  0  0  0  0  0  0  0  0  0  0
   38.2883   -7.3374   19.7022 O   0  0  0  0  0  0  0  0  0  0  0  0
   37.3091   -8.4179   18.9387 P   0  0  0  0  0  0  0  0  0  0  0  0
   36.7313   -7.7514   17.7402 O   0  0  0  0  0  0  0  0  0  0  0  0
   38.2033   -9.5894   18.6489 O   0  0  0  0  0  0  0  0  0  0  0  0
   36.4408   -8.4948   20.1529 O   0  0  0  0  0  0  0  0  0  0  0  0
   38.7110   -9.4165   17.8407 H   0  0  0  0  0  0  0  0  0  0  0  0
   35.9160   -7.6824   20.2271 H   0  0  0  0  0  0  0  0  0  0  0  0
 27 28  2  0  0  0
 27 29  1  0  0  0
 27 30  1  0  0  0
 27 26  1  0  0  0
 22 23  2  0  0  0
 22 24  1  0  0  0
 22 26  1  0  0  0
 22 21  1  0  0  0
 21 20  1  0  0  0
 20  1  1  0  0  0
  1  2  1  0  0  0
  1  3  1  0  0  0
  2  6  1  0  0  0
  3  4  1  0  0  0
  3  5  1  0  0  0
  5 33  1  0  0  0
  5  6  1  0  0  0
 33 34  1  0  0  0
 34 35  2  0  0  0
 34 36  1  0  0  0
 34 37  1  0  0  0
  6  8  1  0  0  0
  8  9  1  0  0  0
  8 17  1  0  0  0
  9 10  2  0  0  0
 10 11  1  0  0  0
 11 12  1  0  0  0
 11 17  2  0  0  0
 12 13  1  0  0  0
 12 14  2  0  0  0
 14 15  1  0  0  0
 15 16  2  0  0  0
 16 17  1  0  0  0
 29 31  1  0  0  0
 30 32  1  0  0  0
 24 25  1  0  0  0
  4  7  1  0  0  0
 36 38  1  0  0  0
 37 39  1  0  0  0
 13 18  1  0  0  0
 13 19  1  0  0  0
M  END
> <minimizedAffinity>
-6.48025

$$$$
1AFL_ATR_A_125


 39 41  0  0  0  0  0  0  0  0999 V2000
   37.5675   -7.7929   17.8350 C   0  0  0  0  0  0  0  0  0  0  0  0
   37.7939   -6.6634   18.6435 O   0  0  0  0  0  0  0  0  0  0  0  0
   38.4497   -7.6874   16.5057 C   0  0  0  0  0  0  0  0  0  0  0  0
   37.8714   -8.2918   15.2396 O   0  0  0  0  0  0  0  0  0  0  0  0
   38.3862   -6.1769   16.3796 C   0  0  0  0  0  0  0  0  0  0  0  0
   38.1635   -5.6194   17.7882 C   0  0  0  0  0  0  0  0  0  0  0  0
   37.0039   -7.8969   15.0598 H   0  0  0  0  0  0  0  0  0  0  0  0
   39.2853   -4.7261   18.3350 N   0  0  0  0  0  0  0  0  0  0  0  0
   40.1650   -5.1656   19.3415 C   0  0  0  0  0  0  0  0  0  0  0  0
   41.1896   -4.4075   19.5807 N   0  0  0  0  0  0  0  0  0  0  0  0
   40.9941   -3.3250   18.6469 C   0  0  0  0  0  0  0  0  0  0  0  0
   41.7900   -2.1694   18.3416 C   0  0  0  0  0  0  0  0  0  0  0  0
   42.8872   -1.8545   19.0745 N   0  0  0  0  0  0  0  0  0  0  0  0
   41.3314   -1.3567   17.3188 N   0  0  0  0  0  0  0  0  0  0  0  0
   40.1933   -1.6517   16.6972 C   0  0  0  0  0  0  0  0  0  0  0  0
   39.3676   -2.6666   16.8869 N   0  0  0  0  0  0  0  0  0  0  0  0
   39.8287   -3.5004   17.8879 C   0  0  0  0  0  0  0  0  0  0  0  0
   43.1867   -2.4547   19.7952 H   0  0  0  0  0  0  0  0  0  0  0  0
   43.3840   -1.0258   18.8858 H   0  0  0  0  0  0  0  0  0  0  0  0
   37.9407   -8.7012   18.8876 C   0  0  0  0  0  0  0  0  0  0  0  0
   38.9405   -8.1514   19.7630 O   0  0  0  0  0  0  0  0  0  0  0  0
   38.5017   -8.6750   21.2843 P   0  0  0  0  0  0  0  0  0  0  0  0
   37.0207   -8.9666   21.1636 O   0  0  0  0  0  0  0  0  0  0  0  0
   39.4925   -9.7552   21.7573 O   0  0  0  0  0  0  0  0  0  0  0  0
   39.2391  -10.0612   22.6422 H   0  0  0  0  0  0  0  0  0  0  0  0
   38.5484   -7.1661   22.1414 O   0  0  0  0  0  0  0  0  0  0  0  0
   37.5637   -5.9749   22.4429 P   0  0  0  0  0  0  0  0  0  0  0  0
   38.2714   -5.0383   23.3086 O   0  0  0  0  0  0  0  0  0  0  0  0
   36.5273   -6.7515   23.1415 O   0  0  0  0  0  0  0  0  0  0  0  0
   37.2019   -5.4029   21.1412 O   0  0  0  0  0  0  0  0  0  0  0  0
   35.8085   -6.1599   23.4138 H   0  0  0  0  0  0  0  0  0  0  0  0
   36.5922   -4.6600   21.2727 H   0  0  0  0  0  0  0  0  0  0  0  0
   37.2027   -5.8296   15.6877 O   0  0  0  0  0  0  0  0  0  0  0  0
   37.3008   -4.5393   14.6704 P   0  0  0  0  0  0  0  0  0  0  0  0
   36.4290   -4.8101   13.4952 O   0  0  0  0  0  0  0  0  0  0  0  0
   36.8881   -3.3679   15.5151 O   0  0  0  0  0  0  0  0  0  0  0  0
   38.7651   -4.7836   14.4955 O   0  0  0  0  0  0  0  0  0  0  0  0
   35.9199   -3.3191   15.5494 H   0  0  0  0  0  0  0  0  0  0  0  0
   38.8980   -5.5629   13.9335 H   0  0  0  0  0  0  0  0  0  0  0  0
 27 28  2  0  0  0
 27 29  1  0  0  0
 27 30  1  0  0  0
 27 26  1  0  0  0
 22 23  2  0  0  0
 22 24  1  0  0  0
 22 26  1  0  0  0
 22 21  1  0  0  0
 21 20  1  0  0  0
 20  1  1  0  0  0
  1  2  1  0  0  0
  1  3  1  0  0  0
  2  6  1  0  0  0
  3  4  1  0  0  0
  3  5  1  0  0  0
  5 33  1  0  0  0
  5  6  1  0  0  0
 33 34  1  0  0  0
 34 35  2  0  0  0
 34 36  1  0  0  0
 34 37  1  0  0  0
  6  8  1  0  0  0
  8  9  1  0  0  0
  8 17  1  0  0  0
  9 10  2  0  0  0
 10 11  1  0  0  0
 11 12  1  0  0  0
 11 17  2  0  0  0
 12 13  1  0  0  0
 12 14  2  0  0  0
 14 15  1  0  0  0
 15 16  2  0  0  0
 16 17  1  0  0  0
 29 31  1  0  0  0
 30 32  1  0  0  0
 24 25  1  0  0  0
  4  7  1  0  0  0
 36 38  1  0  0  0
 37 39  1  0  0  0
 13 18  1  0  0  0
 13 19  1  0  0  0
M  END
> <minimizedAffinity>
-6.46273

$$$$
1AFL_ATR_A_125


 39 41  0  0  0  0  0  0  0  0999 V2000
   39.1764   -4.7326   19.0184 C   0  0  0  0  0  0  0  0  0  0  0  0
   38.5861   -6.0100   19.0438 O   0  0  0  0  0  0  0  0  0  0  0  0
   39.7154   -4.3609   20.4771 C   0  0  0  0  0  0  0  0  0  0  0  0
   39.6791   -2.8979   20.8781 O   0  0  0  0  0  0  0  0  0  0  0  0
   38.6313   -5.0892   21.2491 C   0  0  0  0  0  0  0  0  0  0  0  0
   38.1200   -6.2159   20.3471 C   0  0  0  0  0  0  0  0  0  0  0  0
   38.7727   -2.5624   20.7953 H   0  0  0  0  0  0  0  0  0  0  0  0
   38.3373   -7.6407   20.8745 N   0  0  0  0  0  0  0  0  0  0  0  0
   37.4697   -8.6984   20.5449 C   0  0  0  0  0  0  0  0  0  0  0  0
   37.8611   -9.8885   20.8799 N   0  0  0  0  0  0  0  0  0  0  0  0
   39.1294   -9.6260   21.5158 C   0  0  0  0  0  0  0  0  0  0  0  0
   40.1222  -10.5040   22.0687 C   0  0  0  0  0  0  0  0  0  0  0  0
   39.8981  -11.8365   22.1882 N   0  0  0  0  0  0  0  0  0  0  0  0
   41.2774   -9.9075   22.5448 N   0  0  0  0  0  0  0  0  0  0  0  0
   41.4075   -8.5846   22.4998 C   0  0  0  0  0  0  0  0  0  0  0  0
   40.5737   -7.6709   22.0334 N   0  0  0  0  0  0  0  0  0  0  0  0
   39.4275   -8.2564   21.5303 C   0  0  0  0  0  0  0  0  0  0  0  0
   39.0656  -12.2290   21.8385 H   0  0  0  0  0  0  0  0  0  0  0  0
   40.5679  -12.4112   22.6245 H   0  0  0  0  0  0  0  0  0  0  0  0
   40.0949   -5.1071   17.9752 C   0  0  0  0  0  0  0  0  0  0  0  0
   40.0503   -4.2104   16.8518 O   0  0  0  0  0  0  0  0  0  0  0  0
   39.7237   -5.1911   15.5432 P   0  0  0  0  0  0  0  0  0  0  0  0
   41.0188   -5.2067   14.7587 O   0  0  0  0  0  0  0  0  0  0  0  0
   39.0718   -6.4970   16.0348 O   0  0  0  0  0  0  0  0  0  0  0  0
   38.8810   -7.0691   15.2750 H   0  0  0  0  0  0  0  0  0  0  0  0
   38.7062   -4.1275   14.6230 O   0  0  0  0  0  0  0  0  0  0  0  0
   37.1975   -3.6766   14.6283 P   0  0  0  0  0  0  0  0  0  0  0  0
   37.1803   -2.2245   14.4918 O   0  0  0  0  0  0  0  0  0  0  0  0
   36.8602   -4.1428   15.9826 O   0  0  0  0  0  0  0  0  0  0  0  0
   36.5577   -4.3729   13.5066 O   0  0  0  0  0  0  0  0  0  0  0  0
   35.9300   -3.9424   16.1712 H   0  0  0  0  0  0  0  0  0  0  0  0
   35.6202   -4.1274   13.4660 H   0  0  0  0  0  0  0  0  0  0  0  0
   37.5156   -4.2305   21.3824 O   0  0  0  0  0  0  0  0  0  0  0  0
   36.8312   -4.1454   22.8769 P   0  0  0  0  0  0  0  0  0  0  0  0
   36.0085   -2.9070   22.9387 O   0  0  0  0  0  0  0  0  0  0  0  0
   36.0628   -5.4295   23.0073 O   0  0  0  0  0  0  0  0  0  0  0  0
   38.1888   -4.0860   23.4995 O   0  0  0  0  0  0  0  0  0  0  0  0
   35.2046   -5.3392   22.5643 H   0  0  0  0  0  0  0  0  0  0  0  0
   38.5768   -3.2104   23.3460 H   0  0  0  0  0  0  0  0  0  0  0  0
 27 28  2  0  0  0
 27 29  1  0  0  0
 27 30  1  0  0  0
 27 26  1  0  0  0
 22 23  2  0  0  0
 22 24  1  0  0  0
 22 26  1  0  0  0
 22 21  1  0  0  0
 21 20  1  0  0  0
 20  1  1  0  0  0
  1  2  1  0  0  0
  1  3  1  0  0  0
  2  6  1  0  0  0
  3  4  1  0  0  0
  3  5  1  0  0  0
  5 33  1  0  0  0
  5  6  1  0  0  0
 33 34  1  0  0  0
 34 35  2  0  0  0
 34 36  1  0  0  0
 34 37  1  0  0  0
  6  8  1  0  0  0
  8  9  1  0  0  0
  8 17  1  0  0  0
  9 10  2  0  0  0
 10 11  1  0  0  0
 11 12  1  0  0  0
 11 17  2  0  0  0
 12 13  1  0  0  0
 12 14  2  0  0  0
 14 15  1  0  0  0
 15 16  2  0  0  0
 16 17  1  0  0  0
 29 31  1  0  0  0
 30 32  1  0  0  0
 24 25  1  0  0  0
  4  7  1  0  0  0
 36 38  1  0  0  0
 37 39  1  0  0  0
 13 18  1  0  0  0
 13 19  1  0  0  0
M  END
> <minimizedAffinity>
-6.41967

$$$$
