4QLK_CTT_A_1001
  RCSB PDB12061714263D
Coordinates from PDB:4QLK:A:1001 Model:1 without hydrogens
 45 48  0  0  0  0            999 V2000
  -13.2430   -2.0460   57.4290   O 0  0  0  0  0  0  0  0  0  0  0  0
  -12.1500   -2.6270   56.7050   C 0  0  0  0  0  0  0  0  0  0  0  0
  -12.3960   -2.5250   55.2010   C 0  0  0  0  0  0  0  0  0  0  0  0
  -13.6720   -3.0900   54.8820   O 0  0  0  0  0  0  0  0  0  0  0  0
  -11.2390   -3.2250   54.4780   C 0  0  0  0  0  0  0  0  0  0  0  0
  -11.4530   -3.3050   53.0550   O 0  0  0  0  0  0  0  0  0  0  0  0
  -10.9180   -1.9560   56.9960   O 0  0  0  0  0  0  0  0  0  0  0  0
   -9.7740   -2.5340   56.3470   C 0  0  0  0  0  0  0  0  0  0  0  0
   -8.5250   -1.8040   56.8570   C 0  0  0  0  0  0  0  0  0  0  0  0
   -8.6810   -0.3960   56.6370   O 0  0  0  0  0  0  0  0  0  0  0  0
   -9.9560   -2.4690   54.8240   C 0  0  0  0  0  0  0  0  0  0  0  0
   -8.8470   -3.0370   54.1180   O 0  0  0  0  0  0  0  0  0  0  0  0
   -7.9720   -2.1500   53.3990   C 0  0  0  0  0  0  0  0  0  0  0  0
   -6.6810   -2.9530   53.2280   C 0  0  0  0  0  0  0  0  0  0  0  0
   -6.0240   -3.0620   54.4960   O 0  0  0  0  0  0  0  0  0  0  0  0
   -5.7220   -2.3840   52.1820   C 0  0  0  0  0  0  0  0  0  0  0  0
   -4.6620   -3.3130   51.9650   O 0  0  0  0  0  0  0  0  0  0  0  0
   -8.5220   -1.7940   52.1170   O 0  0  0  0  0  0  0  0  0  0  0  0
   -7.6120   -1.1950   51.1760   C 0  0  0  0  0  0  0  0  0  0  0  0
   -8.3860   -0.8370   49.9140   C 0  0  0  0  0  0  0  0  0  0  0  0
   -9.4170    0.0840   50.2700   O 0  0  0  0  0  0  0  0  0  0  0  0
   -6.4380   -2.1180   50.8650   C 0  0  0  0  0  0  0  0  0  0  0  0
   -5.5320   -1.5310   49.9140   O 0  0  0  0  0  0  0  0  0  0  0  0
   -5.0290   -2.3840   48.8680   C 0  0  0  0  0  0  0  0  0  0  0  0
   -4.3160   -1.5560   47.8020   C 0  0  0  0  0  0  0  0  0  0  0  0
   -5.2550   -0.6140   47.2860   O 0  0  0  0  0  0  0  0  0  0  0  0
   -3.7470   -2.4250   46.6840   C 0  0  0  0  0  0  0  0  0  0  0  0
   -2.9140   -1.6480   45.8080   O 0  0  0  0  0  0  0  0  0  0  0  0
   -4.0560   -3.3230   49.3170   O 0  0  0  0  0  0  0  0  0  0  0  0
   -3.7340   -4.2930   48.3040   C 0  0  0  0  0  0  0  0  0  0  0  0
   -3.0280   -5.4530   48.9900   C 0  0  0  0  0  0  0  0  0  0  0  0
   -3.8120   -5.8220   50.1450   O 0  0  0  0  0  0  0  0  0  0  0  0
   -2.9430   -3.6390   47.1630   C 0  0  0  0  0  0  0  0  0  0  0  0
   -2.7800   -4.4930   46.0080   O 0  0  0  0  0  0  0  0  0  0  0  0
   -1.5530   -5.2410   45.7100   C 0  0  0  0  0  0  0  0  0  0  0  0
   -1.4480   -5.5450   44.1730   C 0  0  0  0  0  0  0  0  0  0  0  0
   -1.4290   -6.9520   43.8570   O 0  0  0  0  0  0  0  0  0  0  0  0
   -0.2060   -5.0140   43.4700   C 0  0  0  0  0  0  0  0  0  0  0  0
   -0.4160   -4.9730   42.0360   O 0  0  0  0  0  0  0  0  0  0  0  0
    0.0970   -3.6580   44.0770   C 0  0  0  0  0  0  0  0  0  0  0  0
    1.0890   -2.9730   43.3080   O 0  0  0  0  0  0  0  0  0  0  0  0
   -0.4050   -4.5920   46.3020   O 0  0  0  0  0  0  0  0  0  0  0  0
    0.5790   -3.9260   45.4980   C 0  0  0  0  0  0  0  0  0  0  0  0
    0.9590   -2.6450   46.2390   C 0  0  0  0  0  0  0  0  0  0  0  0
   -0.1770   -1.7650   46.3320   O 0  0  0  0  0  0  0  0  0  0  0  0
  1  2  1  0  0  0  0
  2  7  1  0  0  0  0
  2  3  1  0  0  0  0
  4  3  1  0  0  0  0
  3  5  1  0  0  0  0
  5 11  1  0  0  0  0
  5  6  1  0  0  0  0
  7  8  1  0  0  0  0
  8 11  1  0  0  0  0
  8  9  1  0  0  0  0
 10  9  1  0  0  0  0
 11 12  1  0  0  0  0
 12 13  1  0  0  0  0
 13 14  1  0  0  0  0
 13 18  1  0  0  0  0
 15 14  1  0  0  0  0
 14 16  1  0  0  0  0
 16 17  1  0  0  0  0
 16 22  1  0  0  0  0
 18 19  1  0  0  0  0
 19 20  1  0  0  0  0
 19 22  1  0  0  0  0
 21 20  1  0  0  0  0
 22 23  1  0  0  0  0
 23 24  1  0  0  0  0
 24 29  1  0  0  0  0
 24 25  1  0  0  0  0
 26 25  1  0  0  0  0
 25 27  1  0  0  0  0
 27 33  1  0  0  0  0
 27 28  1  0  0  0  0
 29 30  1  0  0  0  0
 31 30  1  0  0  0  0
 30 33  1  0  0  0  0
 32 31  1  0  0  0  0
 33 34  1  0  0  0  0
 34 35  1  0  0  0  0
 35 42  1  0  0  0  0
 35 36  1  0  0  0  0
 36 37  1  0  0  0  0
 36 38  1  0  0  0  0
 40 38  1  0  0  0  0
 38 39  1  0  0  0  0
 43 40  1  0  0  0  0
 40 41  1  0  0  0  0
 42 43  1  0  0  0  0
 44 43  1  0  0  0  0
 45 44  1  0  0  0  0
A    1
O1B
A    2
C1B
A    3
C2B
A    4
O2B
A    5
C3B
A    6
O3B
A    7
O5B
A    8
C5B
A    9
C6B
A   10
O6B
A   11
C4B
A   12
O4B
A   13
C1C
A   14
C2C
A   15
O2C
A   16
C3C
A   17
O3C
A   18
O5C
A   19
C5C
A   20
C6C
A   21
O6C
A   22
C4C
A   23
O4C
A   24
C1D
A   25
C2D
A   26
O2D
A   27
C3D
A   28
O3D
A   29
O5D
A   30
C5D
A   31
C6D
A   32
O6D
A   33
C4D
A   34
O4D
A   35
C1E
A   36
C2E
A   37
O2E
A   38
C3E
A   39
O3E
A   40
C4E
A   41
O4E
A   42
O5E
A   43
C5E
A   44
C6E
A   45
O6E
M  END
>  <InstanceId>
4QLK_CTT_A_1001

>  <ChemCompId>
CTT

>  <PdbId>
4QLK

>  <ChainId>
A

>  <ResidueNumber>
1001

>  <InsertionCode>


>  <Model>
1

>  <AltIds>


>  <MissingHeavyAtoms>
0

>  <ObservedFormula>
C24 O21

>  <Name>
beta-D-glucopyranosyl-(1->4)-beta-D-glucopyranosyl-(1->4)-beta-D-glucopyranosyl-(1->4)-beta-D-glucopyranose

>  <SystematicName>
(2R,3R,4R,5S,6R)-5-[(2S,3R,4R,5S,6R)-5-[(2S,3R,4R,5S,6R)-3,4-dihydroxy-6-(hydroxymethyl)-5-[(2S,3R,4S,5S,6R)-3,4,5-trihydroxy-6-(hydroxymethyl)oxan-2-yl]oxy-oxan-2-yl]oxy-3,4-dihydroxy-6-(hydroxymethyl)oxan-2-yl]oxy-6-(hydroxymethyl)oxane-2,3,4-triol

>  <Synonyms>
CELLOTETRAOSE

>  <Type>
D-saccharide 1,4 and 1,4 linking

>  <Formula>
C24 H42 O21

>  <MolecularWeight>
666.578

>  <ModifiedDate>
2011-06-04

>  <Parent>


>  <OneLetterCode>


>  <SubcomponentList>


>  <AmbiguousFlag>
N

>  <InChI>
InChI=1S/C24H42O21/c25-1-5-9(29)10(30)15(35)22(40-5)44-19-7(3-27)42-24(17(37)12(19)32)45-20-8(4-28)41-23(16(36)13(20)33)43-18-6(2-26)39-21(38)14(34)11(18)31/h5-38H,1-4H2/t5-,6-,7-,8-,9-,10+,11-,12-,13-,14-,15-,16-,17-,18-,19-,20-,21-,22+,23+,24+/m1/s1

>  <InChIKey>
LUEWUZLMQUOBSB-HGDSAIHNSA-N

>  <SMILES>
C([C@@H]1[C@H]([C@@H]([C@H]([C@@H](O1)O[C@@H]2[C@H](O[C@H]([C@@H]([C@H]2O)O)O[C@@H]3[C@H](O[C@H]([C@@H]([C@H]3O)O)O[C@@H]4[C@H](O[C@H]([C@@H]([C@H]4O)O)O)CO)CO)CO)O)O)O)O

$$$$
