4QLK_CTT_A_1001


 59 62  0  0  0  0  0  0  0  0999 V2000
   -5.4113   -1.5239   49.9562 O   0  0  0  0  0  0  0  0  0  0  0  0
   -8.0611   -2.1694   53.2794 C   0  0  0  0  0  0  0  0  0  0  0  0
   -6.7228   -2.9088   53.2253 C   0  0  0  0  0  0  0  0  0  0  0  0
   -6.1539   -2.9475   54.5391 O   0  0  0  0  0  0  0  0  0  0  0  0
   -5.7208   -2.3208   52.2315 C   0  0  0  0  0  0  0  0  0  0  0  0
   -4.6030   -3.1993   52.1193 O   0  0  0  0  0  0  0  0  0  0  0  0
   -8.5348   -1.8790   51.9512 O   0  0  0  0  0  0  0  0  0  0  0  0
   -7.5906   -1.2605   51.0577 C   0  0  0  0  0  0  0  0  0  0  0  0
   -6.3528   -2.1298   50.8596 C   0  0  0  0  0  0  0  0  0  0  0  0
   -5.9732   -2.0432   54.8400 H   0  0  0  0  0  0  0  0  0  0  0  0
   -4.9016   -4.0621   51.7917 H   0  0  0  0  0  0  0  0  0  0  0  0
   -8.2889   -0.9792   49.7337 C   0  0  0  0  0  0  0  0  0  0  0  0
   -7.5536    0.0349   49.0490 O   0  0  0  0  0  0  0  0  0  0  0  0
   -7.5222    0.8360   49.5950 H   0  0  0  0  0  0  0  0  0  0  0  0
   -8.9402   -3.0798   53.9633 O   0  0  0  0  0  0  0  0  0  0  0  0
  -13.6514   -2.2706   56.8650 O   0  0  0  0  0  0  0  0  0  0  0  0
  -12.5127   -2.8167   56.1857 C   0  0  0  0  0  0  0  0  0  0  0  0
  -12.5603   -2.4621   54.7008 C   0  0  0  0  0  0  0  0  0  0  0  0
  -13.8175   -2.8670   54.1487 O   0  0  0  0  0  0  0  0  0  0  0  0
  -11.3655   -3.1306   54.0102 C   0  0  0  0  0  0  0  0  0  0  0  0
  -11.4026   -2.9703   52.5784 O   0  0  0  0  0  0  0  0  0  0  0  0
  -11.2891   -2.2996   56.7227 O   0  0  0  0  0  0  0  0  0  0  0  0
  -10.1092   -2.8585   56.1232 C   0  0  0  0  0  0  0  0  0  0  0  0
  -10.0933   -2.5424   54.6210 C   0  0  0  0  0  0  0  0  0  0  0  0
  -13.6087   -2.5029   57.8058 H   0  0  0  0  0  0  0  0  0  0  0  0
  -13.9284   -3.8236   54.2645 H   0  0  0  0  0  0  0  0  0  0  0  0
  -11.3773   -2.0260   52.3580 H   0  0  0  0  0  0  0  0  0  0  0  0
   -8.8930   -2.3188   56.8864 C   0  0  0  0  0  0  0  0  0  0  0  0
   -7.7801   -3.1985   56.6794 O   0  0  0  0  0  0  0  0  0  0  0  0
   -8.0039   -4.0849   57.0037 H   0  0  0  0  0  0  0  0  0  0  0  0
   -4.9331   -2.3300   48.8626 C   0  0  0  0  0  0  0  0  0  0  0  0
   -4.1727   -1.4680   47.8580 C   0  0  0  0  0  0  0  0  0  0  0  0
   -5.0642   -0.4552   47.3947 O   0  0  0  0  0  0  0  0  0  0  0  0
   -3.6284   -2.2885   46.6921 C   0  0  0  0  0  0  0  0  0  0  0  0
   -2.7525   -1.4946   45.8749 O   0  0  0  0  0  0  0  0  0  0  0  0
   -4.0066   -3.3371   49.2595 O   0  0  0  0  0  0  0  0  0  0  0  0
   -3.7147   -4.2541   48.1897 C   0  0  0  0  0  0  0  0  0  0  0  0
   -2.8829   -3.5643   47.0999 C   0  0  0  0  0  0  0  0  0  0  0  0
   -5.8286   -0.8694   46.9645 H   0  0  0  0  0  0  0  0  0  0  0  0
   -1.9745   -1.2348   46.3927 H   0  0  0  0  0  0  0  0  0  0  0  0
   -3.0672   -5.4849   48.8066 C   0  0  0  0  0  0  0  0  0  0  0  0
   -3.2805   -5.4237   50.2334 O   0  0  0  0  0  0  0  0  0  0  0  0
   -2.8862   -4.6100   50.5846 H   0  0  0  0  0  0  0  0  0  0  0  0
   -2.7431   -4.3497   45.8943 O   0  0  0  0  0  0  0  0  0  0  0  0
   -1.5872   -5.2064   45.6052 C   0  0  0  0  0  0  0  0  0  0  0  0
   -1.4953   -5.5143   44.0682 C   0  0  0  0  0  0  0  0  0  0  0  0
   -1.6025   -6.9161   43.7469 O   0  0  0  0  0  0  0  0  0  0  0  0
   -0.2028   -5.0976   43.3792 C   0  0  0  0  0  0  0  0  0  0  0  0
   -0.3940   -5.0332   41.9434 O   0  0  0  0  0  0  0  0  0  0  0  0
    0.2174   -3.7770   43.9942 C   0  0  0  0  0  0  0  0  0  0  0  0
    1.2757   -3.1838   43.2374 O   0  0  0  0  0  0  0  0  0  0  0  0
   -0.3903   -4.6674   46.2107 O   0  0  0  0  0  0  0  0  0  0  0  0
    0.6586   -4.0923   45.4188 C   0  0  0  0  0  0  0  0  0  0  0  0
   -0.8266   -7.3866   44.0898 H   0  0  0  0  0  0  0  0  0  0  0  0
   -1.0973   -4.3973   41.7390 H   0  0  0  0  0  0  0  0  0  0  0  0
    2.0317   -3.7908   43.2078 H   0  0  0  0  0  0  0  0  0  0  0  0
    1.1473   -2.8538   46.1683 C   0  0  0  0  0  0  0  0  0  0  0  0
    0.0319   -2.0255   46.5470 O   0  0  0  0  0  0  0  0  0  0  0  0
   -0.4437   -1.7402   45.7512 H   0  0  0  0  0  0  0  0  0  0  0  0
 16 17  1  0  0  0
 17 22  1  0  0  0
 17 18  1  0  0  0
 19 18  1  0  0  0
 18 20  1  0  0  0
 20 24  1  0  0  0
 20 21  1  0  0  0
 22 23  1  0  0  0
 23 24  1  0  0  0
 23 28  1  0  0  0
 29 28  1  0  0  0
 24 15  1  0  0  0
 15  2  1  0  0  0
  2  3  1  0  0  0
  2  7  1  0  0  0
  4  3  1  0  0  0
  3  5  1  0  0  0
  5  6  1  0  0  0
  5  9  1  0  0  0
  7  8  1  0  0  0
  8 12  1  0  0  0
  8  9  1  0  0  0
 13 12  1  0  0  0
  9  1  1  0  0  0
  1 31  1  0  0  0
 31 36  1  0  0  0
 31 32  1  0  0  0
 33 32  1  0  0  0
 32 34  1  0  0  0
 34 38  1  0  0  0
 34 35  1  0  0  0
 36 37  1  0  0  0
 41 37  1  0  0  0
 37 38  1  0  0  0
 42 41  1  0  0  0
 38 44  1  0  0  0
 44 45  1  0  0  0
 45 52  1  0  0  0
 45 46  1  0  0  0
 46 47  1  0  0  0
 46 48  1  0  0  0
 50 48  1  0  0  0
 48 49  1  0  0  0
 53 50  1  0  0  0
 50 51  1  0  0  0
 52 53  1  0  0  0
 57 53  1  0  0  0
 58 57  1  0  0  0
 16 25  1  0  0  0
 19 26  1  0  0  0
 21 27  1  0  0  0
 29 30  1  0  0  0
  4 10  1  0  0  0
  6 11  1  0  0  0
 13 14  1  0  0  0
 33 39  1  0  0  0
 35 40  1  0  0  0
 42 43  1  0  0  0
 47 54  1  0  0  0
 49 55  1  0  0  0
 51 56  1  0  0  0
 58 59  1  0  0  0
M  END
> <minimizedAffinity>
-12.17555

$$$$
4QLK_CTT_A_1001


 59 62  0  0  0  0  0  0  0  0999 V2000
   -5.1945   -1.3461   49.9239 O   0  0  0  0  0  0  0  0  0  0  0  0
   -7.9918   -1.7685   53.1610 C   0  0  0  0  0  0  0  0  0  0  0  0
   -6.8138   -2.7382   53.0487 C   0  0  0  0  0  0  0  0  0  0  0  0
   -6.2915   -2.9965   54.3571 O   0  0  0  0  0  0  0  0  0  0  0  0
   -5.6978   -2.2648   52.1171 C   0  0  0  0  0  0  0  0  0  0  0  0
   -4.7611   -3.3242   51.9334 O   0  0  0  0  0  0  0  0  0  0  0  0
   -8.3733   -1.2805   51.8613 O   0  0  0  0  0  0  0  0  0  0  0  0
   -7.3107   -0.7751   51.0320 C   0  0  0  0  0  0  0  0  0  0  0  0
   -6.2524   -1.8406   50.7642 C   0  0  0  0  0  0  0  0  0  0  0  0
   -5.9524   -2.1717   54.7385 H   0  0  0  0  0  0  0  0  0  0  0  0
   -5.2077   -4.0841   51.5284 H   0  0  0  0  0  0  0  0  0  0  0  0
   -7.9146   -0.2543   49.7343 C   0  0  0  0  0  0  0  0  0  0  0  0
   -7.7121   -1.2398   48.7216 O   0  0  0  0  0  0  0  0  0  0  0  0
   -6.7619   -1.4027   48.6144 H   0  0  0  0  0  0  0  0  0  0  0  0
   -9.0402   -2.5536   53.7558 O   0  0  0  0  0  0  0  0  0  0  0  0
  -12.4220    1.1027   56.2983 O   0  0  0  0  0  0  0  0  0  0  0  0
  -11.4549    0.4494   55.4651 C   0  0  0  0  0  0  0  0  0  0  0  0
  -10.3377   -0.1488   56.3178 C   0  0  0  0  0  0  0  0  0  0  0  0
   -9.7862    0.8624   57.1677 O   0  0  0  0  0  0  0  0  0  0  0  0
   -9.2963   -0.7670   55.3773 C   0  0  0  0  0  0  0  0  0  0  0  0
   -8.1306   -1.2338   56.0847 O   0  0  0  0  0  0  0  0  0  0  0  0
  -12.0507   -0.6136   54.7116 O   0  0  0  0  0  0  0  0  0  0  0  0
  -11.1428   -1.2665   53.8096 C   0  0  0  0  0  0  0  0  0  0  0  0
   -9.9857   -1.8903   54.6025 C   0  0  0  0  0  0  0  0  0  0  0  0
  -13.1249    1.4776   55.7449 H   0  0  0  0  0  0  0  0  0  0  0  0
   -9.4370    1.5863   56.6246 H   0  0  0  0  0  0  0  0  0  0  0  0
   -8.3912   -1.9168   56.7223 H   0  0  0  0  0  0  0  0  0  0  0  0
  -11.9472   -2.2770   52.9820 C   0  0  0  0  0  0  0  0  0  0  0  0
  -11.5632   -3.6055   53.3600 O   0  0  0  0  0  0  0  0  0  0  0  0
  -10.6151   -3.7272   53.1952 H   0  0  0  0  0  0  0  0  0  0  0  0
   -4.7583   -2.1936   48.8440 C   0  0  0  0  0  0  0  0  0  0  0  0
   -3.9931   -1.3797   47.8036 C   0  0  0  0  0  0  0  0  0  0  0  0
   -4.8652   -0.3552   47.3289 O   0  0  0  0  0  0  0  0  0  0  0  0
   -3.4926   -2.2452   46.6507 C   0  0  0  0  0  0  0  0  0  0  0  0
   -2.6105   -1.4976   45.7975 O   0  0  0  0  0  0  0  0  0  0  0  0
   -3.8524   -3.2151   49.2516 O   0  0  0  0  0  0  0  0  0  0  0  0
   -3.6049   -4.1676   48.2018 C   0  0  0  0  0  0  0  0  0  0  0  0
   -2.7747   -3.5299   47.0796 C   0  0  0  0  0  0  0  0  0  0  0  0
   -5.6482   -0.7593   46.9234 H   0  0  0  0  0  0  0  0  0  0  0  0
   -1.8164   -1.2457   46.2945 H   0  0  0  0  0  0  0  0  0  0  0  0
   -2.9800   -5.3992   48.8401 C   0  0  0  0  0  0  0  0  0  0  0  0
   -3.2395   -5.3368   50.2591 O   0  0  0  0  0  0  0  0  0  0  0  0
   -2.8554   -4.5236   50.6226 H   0  0  0  0  0  0  0  0  0  0  0  0
   -2.6782   -4.3503   45.8932 O   0  0  0  0  0  0  0  0  0  0  0  0
   -1.5314   -5.2131   45.5860 C   0  0  0  0  0  0  0  0  0  0  0  0
   -1.4588   -5.5121   44.0461 C   0  0  0  0  0  0  0  0  0  0  0  0
   -1.5793   -6.9112   43.7176 O   0  0  0  0  0  0  0  0  0  0  0  0
   -0.1713   -5.1000   43.3453 C   0  0  0  0  0  0  0  0  0  0  0  0
   -0.3779   -5.0255   41.9122 O   0  0  0  0  0  0  0  0  0  0  0  0
    0.2649   -3.7861   43.9637 C   0  0  0  0  0  0  0  0  0  0  0  0
    1.3188   -3.1955   43.1988 O   0  0  0  0  0  0  0  0  0  0  0  0
   -0.3242   -4.6861   46.1814 O   0  0  0  0  0  0  0  0  0  0  0  0
    0.7198   -4.1133   45.3813 C   0  0  0  0  0  0  0  0  0  0  0  0
   -0.8029   -7.3891   44.0489 H   0  0  0  0  0  0  0  0  0  0  0  0
   -1.0790   -4.3835   41.7195 H   0  0  0  0  0  0  0  0  0  0  0  0
    2.0702   -3.8076   43.1570 H   0  0  0  0  0  0  0  0  0  0  0  0
    1.2253   -2.8828   46.1328 C   0  0  0  0  0  0  0  0  0  0  0  0
    0.1194   -2.0540   46.5371 O   0  0  0  0  0  0  0  0  0  0  0  0
   -0.3685   -1.7603   45.7519 H   0  0  0  0  0  0  0  0  0  0  0  0
 16 17  1  0  0  0
 17 22  1  0  0  0
 17 18  1  0  0  0
 19 18  1  0  0  0
 18 20  1  0  0  0
 20 24  1  0  0  0
 20 21  1  0  0  0
 22 23  1  0  0  0
 23 24  1  0  0  0
 23 28  1  0  0  0
 29 28  1  0  0  0
 24 15  1  0  0  0
 15  2  1  0  0  0
  2  3  1  0  0  0
  2  7  1  0  0  0
  4  3  1  0  0  0
  3  5  1  0  0  0
  5  6  1  0  0  0
  5  9  1  0  0  0
  7  8  1  0  0  0
  8 12  1  0  0  0
  8  9  1  0  0  0
 13 12  1  0  0  0
  9  1  1  0  0  0
  1 31  1  0  0  0
 31 36  1  0  0  0
 31 32  1  0  0  0
 33 32  1  0  0  0
 32 34  1  0  0  0
 34 38  1  0  0  0
 34 35  1  0  0  0
 36 37  1  0  0  0
 41 37  1  0  0  0
 37 38  1  0  0  0
 42 41  1  0  0  0
 38 44  1  0  0  0
 44 45  1  0  0  0
 45 52  1  0  0  0
 45 46  1  0  0  0
 46 47  1  0  0  0
 46 48  1  0  0  0
 50 48  1  0  0  0
 48 49  1  0  0  0
 53 50  1  0  0  0
 50 51  1  0  0  0
 52 53  1  0  0  0
 57 53  1  0  0  0
 58 57  1  0  0  0
 16 25  1  0  0  0
 19 26  1  0  0  0
 21 27  1  0  0  0
 29 30  1  0  0  0
  4 10  1  0  0  0
  6 11  1  0  0  0
 13 14  1  0  0  0
 33 39  1  0  0  0
 35 40  1  0  0  0
 42 43  1  0  0  0
 47 54  1  0  0  0
 49 55  1  0  0  0
 51 56  1  0  0  0
 58 59  1  0  0  0
M  END
> <minimizedAffinity>
-11.05453

$$$$
4QLK_CTT_A_1001


 59 62  0  0  0  0  0  0  0  0999 V2000
   -5.8465   -3.7489   49.3980 O   0  0  0  0  0  0  0  0  0  0  0  0
   -2.3549   -2.3472   47.3180 C   0  0  0  0  0  0  0  0  0  0  0  0
   -3.7294   -1.7832   46.9528 C   0  0  0  0  0  0  0  0  0  0  0  0
   -3.6114   -0.3761   46.7131 O   0  0  0  0  0  0  0  0  0  0  0  0
   -4.8155   -2.0535   47.9944 C   0  0  0  0  0  0  0  0  0  0  0  0
   -6.0807   -1.6667   47.4619 O   0  0  0  0  0  0  0  0  0  0  0  0
   -2.4747   -3.6913   47.8199 O   0  0  0  0  0  0  0  0  0  0  0  0
   -3.4572   -3.9027   48.8506 C   0  0  0  0  0  0  0  0  0  0  0  0
   -4.8576   -3.5265   48.3770 C   0  0  0  0  0  0  0  0  0  0  0  0
   -3.3229    0.0673   47.5261 H   0  0  0  0  0  0  0  0  0  0  0  0
   -6.2702   -2.1891   46.6669 H   0  0  0  0  0  0  0  0  0  0  0  0
   -3.3927   -5.3596   49.2902 C   0  0  0  0  0  0  0  0  0  0  0  0
   -3.7712   -5.4273   50.6650 O   0  0  0  0  0  0  0  0  0  0  0  0
   -3.1662   -4.8842   51.1941 H   0  0  0  0  0  0  0  0  0  0  0  0
   -1.6189   -2.3115   46.0826 O   0  0  0  0  0  0  0  0  0  0  0  0
    0.3887   -6.4070   42.8475 O   0  0  0  0  0  0  0  0  0  0  0  0
   -0.1085   -5.1713   43.3788 C   0  0  0  0  0  0  0  0  0  0  0  0
   -1.5341   -5.3520   43.8967 C   0  0  0  0  0  0  0  0  0  0  0  0
   -2.3533   -5.9149   42.8665 O   0  0  0  0  0  0  0  0  0  0  0  0
   -2.0433   -3.9897   44.3826 C   0  0  0  0  0  0  0  0  0  0  0  0
   -3.4336   -4.0295   44.7603 O   0  0  0  0  0  0  0  0  0  0  0  0
    0.7003   -4.7103   44.4679 O   0  0  0  0  0  0  0  0  0  0  0  0
    0.2876   -3.4421   45.0021 C   0  0  0  0  0  0  0  0  0  0  0  0
   -1.1463   -3.5496   45.5398 C   0  0  0  0  0  0  0  0  0  0  0  0
    1.2936   -6.2783   42.5226 H   0  0  0  0  0  0  0  0  0  0  0  0
   -2.3531   -5.3263   42.0955 H   0  0  0  0  0  0  0  0  0  0  0  0
   -3.5536   -4.6624   45.4855 H   0  0  0  0  0  0  0  0  0  0  0  0
    1.3182   -3.0179   46.0562 C   0  0  0  0  0  0  0  0  0  0  0  0
    0.7785   -3.2550   47.3630 O   0  0  0  0  0  0  0  0  0  0  0  0
   -0.0360   -2.7402   47.4748 H   0  0  0  0  0  0  0  0  0  0  0  0
   -6.0011   -2.7270   50.4012 C   0  0  0  0  0  0  0  0  0  0  0  0
   -7.4755   -2.3739   50.5793 C   0  0  0  0  0  0  0  0  0  0  0  0
   -7.9696   -1.9297   49.3169 O   0  0  0  0  0  0  0  0  0  0  0  0
   -7.6864   -1.3086   51.6514 C   0  0  0  0  0  0  0  0  0  0  0  0
   -9.0847   -1.1438   51.9385 O   0  0  0  0  0  0  0  0  0  0  0  0
   -5.5592   -3.1273   51.6952 O   0  0  0  0  0  0  0  0  0  0  0  0
   -5.5270   -2.0250   52.6197 C   0  0  0  0  0  0  0  0  0  0  0  0
   -6.9511   -1.5731   52.9702 C   0  0  0  0  0  0  0  0  0  0  0  0
   -7.4731   -1.1463   49.0328 H   0  0  0  0  0  0  0  0  0  0  0  0
   -9.4358   -1.9645   52.3180 H   0  0  0  0  0  0  0  0  0  0  0  0
   -4.6792   -2.4508   53.8091 C   0  0  0  0  0  0  0  0  0  0  0  0
   -4.7700   -1.4109   54.8068 O   0  0  0  0  0  0  0  0  0  0  0  0
   -4.4499   -0.5751   54.4327 H   0  0  0  0  0  0  0  0  0  0  0  0
   -6.9989   -0.3330   53.7116 O   0  0  0  0  0  0  0  0  0  0  0  0
   -7.6536   -0.1847   55.0167 C   0  0  0  0  0  0  0  0  0  0  0  0
   -9.2066   -0.0299   54.8440 C   0  0  0  0  0  0  0  0  0  0  0  0
   -9.7262    1.2217   55.3375 O   0  0  0  0  0  0  0  0  0  0  0  0
  -10.0649   -1.0673   55.5553 C   0  0  0  0  0  0  0  0  0  0  0  0
  -11.4014   -1.0879   54.9938 O   0  0  0  0  0  0  0  0  0  0  0  0
   -9.3385   -2.3931   55.4395 C   0  0  0  0  0  0  0  0  0  0  0  0
  -10.1857   -3.4685   55.8525 O   0  0  0  0  0  0  0  0  0  0  0  0
   -7.2228   -1.2250   55.9232 O   0  0  0  0  0  0  0  0  0  0  0  0
   -8.1049   -2.2815   56.3279 C   0  0  0  0  0  0  0  0  0  0  0  0
   -9.6301    1.2537   56.3022 H   0  0  0  0  0  0  0  0  0  0  0  0
  -11.3513   -1.2934   54.0471 H   0  0  0  0  0  0  0  0  0  0  0  0
  -10.4676   -3.3243   56.7693 H   0  0  0  0  0  0  0  0  0  0  0  0
   -7.2762   -3.5650   56.3434 C   0  0  0  0  0  0  0  0  0  0  0  0
   -7.5056   -4.3233   55.1409 O   0  0  0  0  0  0  0  0  0  0  0  0
   -8.4445   -4.5598   55.0820 H   0  0  0  0  0  0  0  0  0  0  0  0
 16 17  1  0  0  0
 17 22  1  0  0  0
 17 18  1  0  0  0
 19 18  1  0  0  0
 18 20  1  0  0  0
 20 24  1  0  0  0
 20 21  1  0  0  0
 22 23  1  0  0  0
 23 24  1  0  0  0
 23 28  1  0  0  0
 29 28  1  0  0  0
 24 15  1  0  0  0
 15  2  1  0  0  0
  2  3  1  0  0  0
  2  7  1  0  0  0
  4  3  1  0  0  0
  3  5  1  0  0  0
  5  6  1  0  0  0
  5  9  1  0  0  0
  7  8  1  0  0  0
  8 12  1  0  0  0
  8  9  1  0  0  0
 13 12  1  0  0  0
  9  1  1  0  0  0
  1 31  1  0  0  0
 31 36  1  0  0  0
 31 32  1  0  0  0
 33 32  1  0  0  0
 32 34  1  0  0  0
 34 38  1  0  0  0
 34 35  1  0  0  0
 36 37  1  0  0  0
 41 37  1  0  0  0
 37 38  1  0  0  0
 42 41  1  0  0  0
 38 44  1  0  0  0
 44 45  1  0  0  0
 45 52  1  0  0  0
 45 46  1  0  0  0
 46 47  1  0  0  0
 46 48  1  0  0  0
 50 48  1  0  0  0
 48 49  1  0  0  0
 53 50  1  0  0  0
 50 51  1  0  0  0
 52 53  1  0  0  0
 57 53  1  0  0  0
 58 57  1  0  0  0
 16 25  1  0  0  0
 19 26  1  0  0  0
 21 27  1  0  0  0
 29 30  1  0  0  0
  4 10  1  0  0  0
  6 11  1  0  0  0
 13 14  1  0  0  0
 33 39  1  0  0  0
 35 40  1  0  0  0
 42 43  1  0  0  0
 47 54  1  0  0  0
 49 55  1  0  0  0
 51 56  1  0  0  0
 58 59  1  0  0  0
M  END
> <minimizedAffinity>
-10.77802

$$$$
4QLK_CTT_A_1001


 59 62  0  0  0  0  0  0  0  0999 V2000
   -6.4496   -2.0418   47.9639 O   0  0  0  0  0  0  0  0  0  0  0  0
   -2.2972   -1.9239   46.8571 C   0  0  0  0  0  0  0  0  0  0  0  0
   -3.2436   -0.8302   46.3583 C   0  0  0  0  0  0  0  0  0  0  0  0
   -2.5710    0.4333   46.4112 O   0  0  0  0  0  0  0  0  0  0  0  0
   -4.5704   -0.7557   47.1144 C   0  0  0  0  0  0  0  0  0  0  0  0
   -5.4421    0.1501   46.4410 O   0  0  0  0  0  0  0  0  0  0  0  0
   -3.0116   -3.1558   47.0686 O   0  0  0  0  0  0  0  0  0  0  0  0
   -4.2211   -3.0672   47.8442 C   0  0  0  0  0  0  0  0  0  0  0  0
   -5.2326   -2.1238   47.2010 C   0  0  0  0  0  0  0  0  0  0  0  0
   -2.3467    0.6419   47.3315 H   0  0  0  0  0  0  0  0  0  0  0  0
   -5.6102   -0.1713   45.5414 H   0  0  0  0  0  0  0  0  0  0  0  0
   -4.7953   -4.4684   48.0083 C   0  0  0  0  0  0  0  0  0  0  0  0
   -4.8800   -4.7544   49.4044 O   0  0  0  0  0  0  0  0  0  0  0  0
   -3.9960   -4.6995   49.7999 H   0  0  0  0  0  0  0  0  0  0  0  0
   -1.3238   -2.0549   45.8060 O   0  0  0  0  0  0  0  0  0  0  0  0
    0.3825   -6.5533   42.9560 O   0  0  0  0  0  0  0  0  0  0  0  0
    0.0108   -5.2357   43.3828 C   0  0  0  0  0  0  0  0  0  0  0  0
   -1.4633   -5.2033   43.7815 C   0  0  0  0  0  0  0  0  0  0  0  0
   -2.2634   -5.7162   42.7110 O   0  0  0  0  0  0  0  0  0  0  0  0
   -1.8264   -3.7613   44.1561 C   0  0  0  0  0  0  0  0  0  0  0  0
   -3.2358   -3.6020   44.4118 O   0  0  0  0  0  0  0  0  0  0  0  0
    0.7824   -4.8189   44.5158 O   0  0  0  0  0  0  0  0  0  0  0  0
    0.4985   -3.4797   44.9515 C   0  0  0  0  0  0  0  0  0  0  0  0
   -0.9759   -3.3725   45.3656 C   0  0  0  0  0  0  0  0  0  0  0  0
    1.3197   -6.5599   42.7060 H   0  0  0  0  0  0  0  0  0  0  0  0
   -2.1232   -5.1782   41.9161 H   0  0  0  0  0  0  0  0  0  0  0  0
   -3.4963   -4.1714   45.1526 H   0  0  0  0  0  0  0  0  0  0  0  0
    1.4871   -3.1295   46.0708 C   0  0  0  0  0  0  0  0  0  0  0  0
    0.8197   -3.2298   47.3356 O   0  0  0  0  0  0  0  0  0  0  0  0
    0.0703   -2.6143   47.3555 H   0  0  0  0  0  0  0  0  0  0  0  0
   -6.3590   -1.4993   49.2951 C   0  0  0  0  0  0  0  0  0  0  0  0
   -7.4945   -0.5105   49.5460 C   0  0  0  0  0  0  0  0  0  0  0  0
   -7.3943    0.5213   48.5658 O   0  0  0  0  0  0  0  0  0  0  0  0
   -7.4489    0.0722   50.9556 C   0  0  0  0  0  0  0  0  0  0  0  0
   -8.6340    0.8373   51.2298 O   0  0  0  0  0  0  0  0  0  0  0  0
   -6.4913   -2.4800   50.3203 O   0  0  0  0  0  0  0  0  0  0  0  0
   -6.1849   -1.9461   51.6210 C   0  0  0  0  0  0  0  0  0  0  0  0
   -7.2750   -0.9643   52.0715 C   0  0  0  0  0  0  0  0  0  0  0  0
   -6.5386    0.9695   48.6545 H   0  0  0  0  0  0  0  0  0  0  0  0
   -9.4070    0.2514   51.2179 H   0  0  0  0  0  0  0  0  0  0  0  0
   -5.9576   -3.1241   52.5566 C   0  0  0  0  0  0  0  0  0  0  0  0
   -6.6001   -4.2778   51.9727 O   0  0  0  0  0  0  0  0  0  0  0  0
   -7.5470   -4.0991   51.8620 H   0  0  0  0  0  0  0  0  0  0  0  0
   -6.9273   -0.2190   53.2604 O   0  0  0  0  0  0  0  0  0  0  0  0
   -7.6825   -0.2840   54.5171 C   0  0  0  0  0  0  0  0  0  0  0  0
   -8.8204   -1.3622   54.4253 C   0  0  0  0  0  0  0  0  0  0  0  0
  -10.1484   -0.8233   54.5862 O   0  0  0  0  0  0  0  0  0  0  0  0
   -8.7699   -2.4771   55.4613 C   0  0  0  0  0  0  0  0  0  0  0  0
   -9.5741   -3.6039   55.0302 O   0  0  0  0  0  0  0  0  0  0  0  0
   -7.3073   -2.8201   55.6672 C   0  0  0  0  0  0  0  0  0  0  0  0
   -7.1752   -4.0240   56.4274 O   0  0  0  0  0  0  0  0  0  0  0  0
   -6.7856   -0.4113   55.6436 O   0  0  0  0  0  0  0  0  0  0  0  0
   -6.6895   -1.6308   56.3932 C   0  0  0  0  0  0  0  0  0  0  0  0
  -10.2574   -0.4972   55.4932 H   0  0  0  0  0  0  0  0  0  0  0  0
   -9.2442   -3.9294   54.1781 H   0  0  0  0  0  0  0  0  0  0  0  0
   -7.6137   -3.9142   57.2856 H   0  0  0  0  0  0  0  0  0  0  0  0
   -5.2085   -1.8399   56.7052 C   0  0  0  0  0  0  0  0  0  0  0  0
   -5.0551   -2.6876   57.8591 O   0  0  0  0  0  0  0  0  0  0  0  0
   -5.4786   -2.2703   58.6255 H   0  0  0  0  0  0  0  0  0  0  0  0
 16 17  1  0  0  0
 17 22  1  0  0  0
 17 18  1  0  0  0
 19 18  1  0  0  0
 18 20  1  0  0  0
 20 24  1  0  0  0
 20 21  1  0  0  0
 22 23  1  0  0  0
 23 24  1  0  0  0
 23 28  1  0  0  0
 29 28  1  0  0  0
 24 15  1  0  0  0
 15  2  1  0  0  0
  2  3  1  0  0  0
  2  7  1  0  0  0
  4  3  1  0  0  0
  3  5  1  0  0  0
  5  6  1  0  0  0
  5  9  1  0  0  0
  7  8  1  0  0  0
  8 12  1  0  0  0
  8  9  1  0  0  0
 13 12  1  0  0  0
  9  1  1  0  0  0
  1 31  1  0  0  0
 31 36  1  0  0  0
 31 32  1  0  0  0
 33 32  1  0  0  0
 32 34  1  0  0  0
 34 38  1  0  0  0
 34 35  1  0  0  0
 36 37  1  0  0  0
 41 37  1  0  0  0
 37 38  1  0  0  0
 42 41  1  0  0  0
 38 44  1  0  0  0
 44 45  1  0  0  0
 45 52  1  0  0  0
 45 46  1  0  0  0
 46 47  1  0  0  0
 46 48  1  0  0  0
 50 48  1  0  0  0
 48 49  1  0  0  0
 53 50  1  0  0  0
 50 51  1  0  0  0
 52 53  1  0  0  0
 57 53  1  0  0  0
 58 57  1  0  0  0
 16 25  1  0  0  0
 19 26  1  0  0  0
 21 27  1  0  0  0
 29 30  1  0  0  0
  4 10  1  0  0  0
  6 11  1  0  0  0
 13 14  1  0  0  0
 33 39  1  0  0  0
 35 40  1  0  0  0
 42 43  1  0  0  0
 47 54  1  0  0  0
 49 55  1  0  0  0
 51 56  1  0  0  0
 58 59  1  0  0  0
M  END
> <minimizedAffinity>
-10.58819

$$$$
4QLK_CTT_A_1001


 59 62  0  0  0  0  0  0  0  0999 V2000
   -5.3870   -1.2212   50.9222 O   0  0  0  0  0  0  0  0  0  0  0  0
   -8.7966   -2.0386   53.4098 C   0  0  0  0  0  0  0  0  0  0  0  0
   -7.4297   -2.6115   53.7891 C   0  0  0  0  0  0  0  0  0  0  0  0
   -7.2608   -2.5235   55.2086 O   0  0  0  0  0  0  0  0  0  0  0  0
   -6.2515   -1.9499   53.0737 C   0  0  0  0  0  0  0  0  0  0  0  0
   -5.0634   -2.6901   53.3464 O   0  0  0  0  0  0  0  0  0  0  0  0
   -8.8968   -1.8661   51.9840 O   0  0  0  0  0  0  0  0  0  0  0  0
   -7.8057   -1.1770   51.3460 C   0  0  0  0  0  0  0  0  0  0  0  0
   -6.4797   -1.8971   51.5694 C   0  0  0  0  0  0  0  0  0  0  0  0
   -7.2692   -1.5917   55.4781 H   0  0  0  0  0  0  0  0  0  0  0  0
   -5.1639   -3.5963   53.0152 H   0  0  0  0  0  0  0  0  0  0  0  0
   -8.1202   -1.0406   49.8620 C   0  0  0  0  0  0  0  0  0  0  0  0
   -9.1791   -0.0943   49.7162 O   0  0  0  0  0  0  0  0  0  0  0  0
   -9.9588   -0.4040   50.2030 H   0  0  0  0  0  0  0  0  0  0  0  0
   -9.7352   -3.0184   53.8876 O   0  0  0  0  0  0  0  0  0  0  0  0
  -15.0444   -2.6015   55.5928 O   0  0  0  0  0  0  0  0  0  0  0  0
  -13.7409   -3.0523   55.2003 C   0  0  0  0  0  0  0  0  0  0  0  0
  -13.4620   -2.6692   53.7483 C   0  0  0  0  0  0  0  0  0  0  0  0
  -14.5204   -3.1479   52.9118 O   0  0  0  0  0  0  0  0  0  0  0  0
  -12.0926   -3.2380   53.3576 C   0  0  0  0  0  0  0  0  0  0  0  0
  -11.8019   -3.0492   51.9587 O   0  0  0  0  0  0  0  0  0  0  0  0
  -12.7197   -2.4637   56.0149 O   0  0  0  0  0  0  0  0  0  0  0  0
  -11.3943   -2.9262   55.7096 C   0  0  0  0  0  0  0  0  0  0  0  0
  -11.0468   -2.5768   54.2557 C   0  0  0  0  0  0  0  0  0  0  0  0
  -15.2085   -2.8510   56.5157 H   0  0  0  0  0  0  0  0  0  0  0  0
  -14.5859   -4.1123   52.9932 H   0  0  0  0  0  0  0  0  0  0  0  0
  -11.7938   -2.1008   51.7553 H   0  0  0  0  0  0  0  0  0  0  0  0
  -10.4352   -2.3206   56.7423 C   0  0  0  0  0  0  0  0  0  0  0  0
   -9.2910   -3.1736   56.8779 O   0  0  0  0  0  0  0  0  0  0  0  0
   -9.5763   -4.0530   57.1714 H   0  0  0  0  0  0  0  0  0  0  0  0
   -4.8373   -1.8355   49.7410 C   0  0  0  0  0  0  0  0  0  0  0  0
   -4.9084   -3.3566   49.8494 C   0  0  0  0  0  0  0  0  0  0  0  0
   -4.1783   -3.7421   51.0129 O   0  0  0  0  0  0  0  0  0  0  0  0
   -4.3556   -4.0482   48.6064 C   0  0  0  0  0  0  0  0  0  0  0  0
   -4.6188   -5.4602   48.6491 O   0  0  0  0  0  0  0  0  0  0  0  0
   -5.5500   -1.5174   48.5490 O   0  0  0  0  0  0  0  0  0  0  0  0
   -4.8580   -1.9666   47.3700 C   0  0  0  0  0  0  0  0  0  0  0  0
   -4.8873   -3.4983   47.2781 C   0  0  0  0  0  0  0  0  0  0  0  0
   -3.2549   -3.4589   50.9238 H   0  0  0  0  0  0  0  0  0  0  0  0
   -5.5766   -5.6115   48.6238 H   0  0  0  0  0  0  0  0  0  0  0  0
   -5.4665   -1.2417   46.1789 C   0  0  0  0  0  0  0  0  0  0  0  0
   -4.6155   -0.1174   45.8684 O   0  0  0  0  0  0  0  0  0  0  0  0
   -4.5586    0.4678   46.6400 H   0  0  0  0  0  0  0  0  0  0  0  0
   -4.0244   -4.0330   46.2487 O   0  0  0  0  0  0  0  0  0  0  0  0
   -3.1318   -3.2126   45.4217 C   0  0  0  0  0  0  0  0  0  0  0  0
   -1.9337   -2.6632   46.2752 C   0  0  0  0  0  0  0  0  0  0  0  0
   -1.8802   -1.2238   46.3461 O   0  0  0  0  0  0  0  0  0  0  0  0
   -0.5400   -3.0395   45.7906 C   0  0  0  0  0  0  0  0  0  0  0  0
    0.4305   -2.8558   46.8521 O   0  0  0  0  0  0  0  0  0  0  0  0
   -0.6209   -4.4662   45.2838 C   0  0  0  0  0  0  0  0  0  0  0  0
    0.6881   -4.9908   45.0470 O   0  0  0  0  0  0  0  0  0  0  0  0
   -2.7706   -3.9157   44.2113 O   0  0  0  0  0  0  0  0  0  0  0  0
   -1.4427   -4.4161   44.0011 C   0  0  0  0  0  0  0  0  0  0  0  0
   -1.6791   -0.8641   45.4680 H   0  0  0  0  0  0  0  0  0  0  0  0
    0.1855   -3.4056   47.6128 H   0  0  0  0  0  0  0  0  0  0  0  0
    1.1470   -4.4344   44.3984 H   0  0  0  0  0  0  0  0  0  0  0  0
   -1.5883   -5.7882   43.3448 C   0  0  0  0  0  0  0  0  0  0  0  0
   -1.6182   -6.8216   44.3471 O   0  0  0  0  0  0  0  0  0  0  0  0
   -0.7910   -6.8051   44.8534 H   0  0  0  0  0  0  0  0  0  0  0  0
 16 17  1  0  0  0
 17 22  1  0  0  0
 17 18  1  0  0  0
 19 18  1  0  0  0
 18 20  1  0  0  0
 20 24  1  0  0  0
 20 21  1  0  0  0
 22 23  1  0  0  0
 23 24  1  0  0  0
 23 28  1  0  0  0
 29 28  1  0  0  0
 24 15  1  0  0  0
 15  2  1  0  0  0
  2  3  1  0  0  0
  2  7  1  0  0  0
  4  3  1  0  0  0
  3  5  1  0  0  0
  5  6  1  0  0  0
  5  9  1  0  0  0
  7  8  1  0  0  0
  8 12  1  0  0  0
  8  9  1  0  0  0
 13 12  1  0  0  0
  9  1  1  0  0  0
  1 31  1  0  0  0
 31 36  1  0  0  0
 31 32  1  0  0  0
 33 32  1  0  0  0
 32 34  1  0  0  0
 34 38  1  0  0  0
 34 35  1  0  0  0
 36 37  1  0  0  0
 41 37  1  0  0  0
 37 38  1  0  0  0
 42 41  1  0  0  0
 38 44  1  0  0  0
 44 45  1  0  0  0
 45 52  1  0  0  0
 45 46  1  0  0  0
 46 47  1  0  0  0
 46 48  1  0  0  0
 50 48  1  0  0  0
 48 49  1  0  0  0
 53 50  1  0  0  0
 50 51  1  0  0  0
 52 53  1  0  0  0
 57 53  1  0  0  0
 58 57  1  0  0  0
 16 25  1  0  0  0
 19 26  1  0  0  0
 21 27  1  0  0  0
 29 30  1  0  0  0
  4 10  1  0  0  0
  6 11  1  0  0  0
 13 14  1  0  0  0
 33 39  1  0  0  0
 35 40  1  0  0  0
 42 43  1  0  0  0
 47 54  1  0  0  0
 49 55  1  0  0  0
 51 56  1  0  0  0
 58 59  1  0  0  0
M  END
> <minimizedAffinity>
-10.31337

$$$$
4QLK_CTT_A_1001


 59 62  0  0  0  0  0  0  0  0999 V2000
   -6.0984   -0.5449   48.6980 O   0  0  0  0  0  0  0  0  0  0  0  0
   -2.9896   -2.2063   46.2368 C   0  0  0  0  0  0  0  0  0  0  0  0
   -3.1887   -2.7315   47.6599 C   0  0  0  0  0  0  0  0  0  0  0  0
   -3.0178   -4.1535   47.6642 O   0  0  0  0  0  0  0  0  0  0  0  0
   -4.5335   -2.3580   48.2842 C   0  0  0  0  0  0  0  0  0  0  0  0
   -4.5254   -2.7203   49.6635 O   0  0  0  0  0  0  0  0  0  0  0  0
   -3.4089   -0.8324   46.1394 O   0  0  0  0  0  0  0  0  0  0  0  0
   -4.7098   -0.5226   46.6724 C   0  0  0  0  0  0  0  0  0  0  0  0
   -4.8049   -0.8654   48.1557 C   0  0  0  0  0  0  0  0  0  0  0  0
   -3.6980   -4.5626   47.1066 H   0  0  0  0  0  0  0  0  0  0  0  0
   -3.8207   -2.2357   50.1210 H   0  0  0  0  0  0  0  0  0  0  0  0
   -4.9964    0.9526   46.4242 C   0  0  0  0  0  0  0  0  0  0  0  0
   -4.6000    1.6846   47.5839 O   0  0  0  0  0  0  0  0  0  0  0  0
   -5.0970    1.3653   48.3533 H   0  0  0  0  0  0  0  0  0  0  0  0
   -1.5764   -2.3419   46.0048 O   0  0  0  0  0  0  0  0  0  0  0  0
    0.5032   -6.3990   42.7667 O   0  0  0  0  0  0  0  0  0  0  0  0
   -0.0021   -5.1686   43.3025 C   0  0  0  0  0  0  0  0  0  0  0  0
   -1.4441   -5.3475   43.7733 C   0  0  0  0  0  0  0  0  0  0  0  0
   -2.2348   -5.8880   42.7094 O   0  0  0  0  0  0  0  0  0  0  0  0
   -1.9591   -3.9896   44.2654 C   0  0  0  0  0  0  0  0  0  0  0  0
   -3.3606   -4.0257   44.5996 O   0  0  0  0  0  0  0  0  0  0  0  0
    0.7757   -4.7308   44.4233 O   0  0  0  0  0  0  0  0  0  0  0  0
    0.3551   -3.4685   44.9652 C   0  0  0  0  0  0  0  0  0  0  0  0
   -1.0954   -3.5745   45.4567 C   0  0  0  0  0  0  0  0  0  0  0  0
    1.4185   -6.2715   42.4719 H   0  0  0  0  0  0  0  0  0  0  0  0
   -2.2069   -5.2871   41.9484 H   0  0  0  0  0  0  0  0  0  0  0  0
   -3.5071   -4.6694   45.3103 H   0  0  0  0  0  0  0  0  0  0  0  0
    1.3554   -3.0685   46.0572 C   0  0  0  0  0  0  0  0  0  0  0  0
    0.7641   -3.2978   47.3429 O   0  0  0  0  0  0  0  0  0  0  0  0
   -0.0432   -2.7666   47.4269 H   0  0  0  0  0  0  0  0  0  0  0  0
   -6.1937   -0.3823   50.1260 C   0  0  0  0  0  0  0  0  0  0  0  0
   -7.0620    0.8257   50.4680 C   0  0  0  0  0  0  0  0  0  0  0  0
   -6.4669    1.9719   49.8618 O   0  0  0  0  0  0  0  0  0  0  0  0
   -7.2079    1.0212   51.9744 C   0  0  0  0  0  0  0  0  0  0  0  0
   -8.1859    2.0332   52.2649 O   0  0  0  0  0  0  0  0  0  0  0  0
   -6.8164   -1.4818   50.7844 O   0  0  0  0  0  0  0  0  0  0  0  0
   -6.7047   -1.3876   52.2159 C   0  0  0  0  0  0  0  0  0  0  0  0
   -7.5803   -0.2466   52.7514 C   0  0  0  0  0  0  0  0  0  0  0  0
   -5.5719    2.0963   50.2147 H   0  0  0  0  0  0  0  0  0  0  0  0
   -9.0574    1.7383   51.9576 H   0  0  0  0  0  0  0  0  0  0  0  0
   -7.0201   -2.7607   52.7902 C   0  0  0  0  0  0  0  0  0  0  0  0
   -6.2932   -2.8946   54.0306 O   0  0  0  0  0  0  0  0  0  0  0  0
   -5.3431   -2.7984   53.8605 H   0  0  0  0  0  0  0  0  0  0  0  0
   -7.3485    0.0553   54.1460 O   0  0  0  0  0  0  0  0  0  0  0  0
   -8.4183    0.2061   55.1394 C   0  0  0  0  0  0  0  0  0  0  0  0
   -9.8214   -0.0668   54.4894 C   0  0  0  0  0  0  0  0  0  0  0  0
  -10.7144    1.0647   54.5336 O   0  0  0  0  0  0  0  0  0  0  0  0
  -10.6437   -1.1834   55.1187 C   0  0  0  0  0  0  0  0  0  0  0  0
  -11.6822   -1.6214   54.2067 O   0  0  0  0  0  0  0  0  0  0  0  0
   -9.6720   -2.2821   55.5031 C   0  0  0  0  0  0  0  0  0  0  0  0
  -10.3764   -3.4725   55.8654 O   0  0  0  0  0  0  0  0  0  0  0  0
   -8.1182   -0.5567   56.3300 O   0  0  0  0  0  0  0  0  0  0  0  0
   -8.8559   -1.7392   56.6704 C   0  0  0  0  0  0  0  0  0  0  0  0
  -10.9556    1.2505   55.4546 H   0  0  0  0  0  0  0  0  0  0  0  0
  -11.2779   -1.9333   53.3820 H   0  0  0  0  0  0  0  0  0  0  0  0
  -10.9720   -3.2826   56.6071 H   0  0  0  0  0  0  0  0  0  0  0  0
   -7.8424   -2.7533   57.1983 C   0  0  0  0  0  0  0  0  0  0  0  0
   -7.6346   -3.8019   56.2335 O   0  0  0  0  0  0  0  0  0  0  0  0
   -8.4739   -4.2586   56.0666 H   0  0  0  0  0  0  0  0  0  0  0  0
 16 17  1  0  0  0
 17 22  1  0  0  0
 17 18  1  0  0  0
 19 18  1  0  0  0
 18 20  1  0  0  0
 20 24  1  0  0  0
 20 21  1  0  0  0
 22 23  1  0  0  0
 23 24  1  0  0  0
 23 28  1  0  0  0
 29 28  1  0  0  0
 24 15  1  0  0  0
 15  2  1  0  0  0
  2  3  1  0  0  0
  2  7  1  0  0  0
  4  3  1  0  0  0
  3  5  1  0  0  0
  5  6  1  0  0  0
  5  9  1  0  0  0
  7  8  1  0  0  0
  8 12  1  0  0  0
  8  9  1  0  0  0
 13 12  1  0  0  0
  9  1  1  0  0  0
  1 31  1  0  0  0
 31 36  1  0  0  0
 31 32  1  0  0  0
 33 32  1  0  0  0
 32 34  1  0  0  0
 34 38  1  0  0  0
 34 35  1  0  0  0
 36 37  1  0  0  0
 41 37  1  0  0  0
 37 38  1  0  0  0
 42 41  1  0  0  0
 38 44  1  0  0  0
 44 45  1  0  0  0
 45 52  1  0  0  0
 45 46  1  0  0  0
 46 47  1  0  0  0
 46 48  1  0  0  0
 50 48  1  0  0  0
 48 49  1  0  0  0
 53 50  1  0  0  0
 50 51  1  0  0  0
 52 53  1  0  0  0
 57 53  1  0  0  0
 58 57  1  0  0  0
 16 25  1  0  0  0
 19 26  1  0  0  0
 21 27  1  0  0  0
 29 30  1  0  0  0
  4 10  1  0  0  0
  6 11  1  0  0  0
 13 14  1  0  0  0
 33 39  1  0  0  0
 35 40  1  0  0  0
 42 43  1  0  0  0
 47 54  1  0  0  0
 49 55  1  0  0  0
 51 56  1  0  0  0
 58 59  1  0  0  0
M  END
> <minimizedAffinity>
-9.89548

$$$$
4QLK_CTT_A_1001


 59 62  0  0  0  0  0  0  0  0999 V2000
   -5.9307   -3.5286   49.2431 O   0  0  0  0  0  0  0  0  0  0  0  0
   -2.2955   -2.2963   47.3069 C   0  0  0  0  0  0  0  0  0  0  0  0
   -3.6183   -1.6281   46.9267 C   0  0  0  0  0  0  0  0  0  0  0  0
   -3.3996   -0.2249   46.7412 O   0  0  0  0  0  0  0  0  0  0  0  0
   -4.7492   -1.8597   47.9291 C   0  0  0  0  0  0  0  0  0  0  0  0
   -5.9700   -1.3699   47.3783 O   0  0  0  0  0  0  0  0  0  0  0  0
   -2.5192   -3.6456   47.7564 O   0  0  0  0  0  0  0  0  0  0  0  0
   -3.5425   -3.8252   48.7529 C   0  0  0  0  0  0  0  0  0  0  0  0
   -4.9005   -3.3387   48.2569 C   0  0  0  0  0  0  0  0  0  0  0  0
   -3.1053    0.1698   47.5770 H   0  0  0  0  0  0  0  0  0  0  0  0
   -6.1714   -1.8506   46.5602 H   0  0  0  0  0  0  0  0  0  0  0  0
   -3.5881   -5.2973   49.1409 C   0  0  0  0  0  0  0  0  0  0  0  0
   -4.7534   -5.8767   48.5542 O   0  0  0  0  0  0  0  0  0  0  0  0
   -5.5423   -5.4141   48.8776 H   0  0  0  0  0  0  0  0  0  0  0  0
   -1.5239   -2.2681   46.0931 O   0  0  0  0  0  0  0  0  0  0  0  0
    0.3959   -6.4002   42.8513 O   0  0  0  0  0  0  0  0  0  0  0  0
   -0.0842   -5.1578   43.3825 C   0  0  0  0  0  0  0  0  0  0  0  0
   -1.4994   -5.3271   43.9316 C   0  0  0  0  0  0  0  0  0  0  0  0
   -2.3427   -5.8945   42.9235 O   0  0  0  0  0  0  0  0  0  0  0  0
   -1.9918   -3.9583   44.4165 C   0  0  0  0  0  0  0  0  0  0  0  0
   -3.3741   -3.9881   44.8236 O   0  0  0  0  0  0  0  0  0  0  0  0
    0.7494   -4.6917   44.4505 O   0  0  0  0  0  0  0  0  0  0  0  0
    0.3541   -3.4171   44.9825 C   0  0  0  0  0  0  0  0  0  0  0  0
   -1.0687   -3.5130   45.5509 C   0  0  0  0  0  0  0  0  0  0  0  0
    1.2944   -6.2788   42.5064 H   0  0  0  0  0  0  0  0  0  0  0  0
   -2.3559   -5.3124   42.1477 H   0  0  0  0  0  0  0  0  0  0  0  0
   -3.4818   -4.6144   45.5564 H   0  0  0  0  0  0  0  0  0  0  0  0
    1.4085   -2.9892   46.0112 C   0  0  0  0  0  0  0  0  0  0  0  0
    0.9401   -3.3131   47.3268 O   0  0  0  0  0  0  0  0  0  0  0  0
    0.1070   -2.8464   47.4974 H   0  0  0  0  0  0  0  0  0  0  0  0
   -6.1116   -2.4840   50.2183 C   0  0  0  0  0  0  0  0  0  0  0  0
   -7.5901   -2.1276   50.3492 C   0  0  0  0  0  0  0  0  0  0  0  0
   -8.0505   -1.7124   49.0643 O   0  0  0  0  0  0  0  0  0  0  0  0
   -7.8290   -1.0381   51.3908 C   0  0  0  0  0  0  0  0  0  0  0  0
   -9.2345   -0.8674   51.6369 O   0  0  0  0  0  0  0  0  0  0  0  0
   -5.7042   -2.8547   51.5324 O   0  0  0  0  0  0  0  0  0  0  0  0
   -5.6962   -1.7316   52.4321 C   0  0  0  0  0  0  0  0  0  0  0  0
   -7.1291   -1.2724   52.7343 C   0  0  0  0  0  0  0  0  0  0  0  0
   -7.5464   -0.9355   48.7758 H   0  0  0  0  0  0  0  0  0  0  0  0
   -9.5956   -1.6794   52.0256 H   0  0  0  0  0  0  0  0  0  0  0  0
   -4.8804   -2.1299   53.6529 C   0  0  0  0  0  0  0  0  0  0  0  0
   -5.7557   -2.8465   54.5502 O   0  0  0  0  0  0  0  0  0  0  0  0
   -6.4998   -2.2766   54.7998 H   0  0  0  0  0  0  0  0  0  0  0  0
   -7.1962   -0.0157   53.4458 O   0  0  0  0  0  0  0  0  0  0  0  0
   -7.2522    0.0947   54.9081 C   0  0  0  0  0  0  0  0  0  0  0  0
   -6.0439    0.9401   55.4474 C   0  0  0  0  0  0  0  0  0  0  0  0
   -5.1727    0.2110   56.3359 O   0  0  0  0  0  0  0  0  0  0  0  0
   -6.4033    2.1809   56.2537 C   0  0  0  0  0  0  0  0  0  0  0  0
   -5.2706    3.0831   56.3241 O   0  0  0  0  0  0  0  0  0  0  0  0
   -7.6256    2.7929   55.5976 C   0  0  0  0  0  0  0  0  0  0  0  0
   -7.8819    4.0958   56.1281 O   0  0  0  0  0  0  0  0  0  0  0  0
   -8.5632    0.5285   55.3357 O   0  0  0  0  0  0  0  0  0  0  0  0
   -8.7812    1.8391   55.8772 C   0  0  0  0  0  0  0  0  0  0  0  0
   -5.6484    0.0009   57.1547 H   0  0  0  0  0  0  0  0  0  0  0  0
   -5.0039    3.3379   55.4269 H   0  0  0  0  0  0  0  0  0  0  0  0
   -8.0166    4.0339   57.0867 H   0  0  0  0  0  0  0  0  0  0  0  0
  -10.1053    2.3385   55.3014 C   0  0  0  0  0  0  0  0  0  0  0  0
  -10.9721    1.2278   55.0038 O   0  0  0  0  0  0  0  0  0  0  0  0
  -10.5462    0.6513   54.3501 H   0  0  0  0  0  0  0  0  0  0  0  0
 16 17  1  0  0  0
 17 22  1  0  0  0
 17 18  1  0  0  0
 19 18  1  0  0  0
 18 20  1  0  0  0
 20 24  1  0  0  0
 20 21  1  0  0  0
 22 23  1  0  0  0
 23 24  1  0  0  0
 23 28  1  0  0  0
 29 28  1  0  0  0
 24 15  1  0  0  0
 15  2  1  0  0  0
  2  3  1  0  0  0
  2  7  1  0  0  0
  4  3  1  0  0  0
  3  5  1  0  0  0
  5  6  1  0  0  0
  5  9  1  0  0  0
  7  8  1  0  0  0
  8 12  1  0  0  0
  8  9  1  0  0  0
 13 12  1  0  0  0
  9  1  1  0  0  0
  1 31  1  0  0  0
 31 36  1  0  0  0
 31 32  1  0  0  0
 33 32  1  0  0  0
 32 34  1  0  0  0
 34 38  1  0  0  0
 34 35  1  0  0  0
 36 37  1  0  0  0
 41 37  1  0  0  0
 37 38  1  0  0  0
 42 41  1  0  0  0
 38 44  1  0  0  0
 44 45  1  0  0  0
 45 52  1  0  0  0
 45 46  1  0  0  0
 46 47  1  0  0  0
 46 48  1  0  0  0
 50 48  1  0  0  0
 48 49  1  0  0  0
 53 50  1  0  0  0
 50 51  1  0  0  0
 52 53  1  0  0  0
 57 53  1  0  0  0
 58 57  1  0  0  0
 16 25  1  0  0  0
 19 26  1  0  0  0
 21 27  1  0  0  0
 29 30  1  0  0  0
  4 10  1  0  0  0
  6 11  1  0  0  0
 13 14  1  0  0  0
 33 39  1  0  0  0
 35 40  1  0  0  0
 42 43  1  0  0  0
 47 54  1  0  0  0
 49 55  1  0  0  0
 51 56  1  0  0  0
 58 59  1  0  0  0
M  END
> <minimizedAffinity>
-9.74137

$$$$
4QLK_CTT_A_1001


 59 62  0  0  0  0  0  0  0  0999 V2000
   -5.7248   -3.1535   51.6576 O   0  0  0  0  0  0  0  0  0  0  0  0
   -3.3517   -3.6939   48.1138 C   0  0  0  0  0  0  0  0  0  0  0  0
   -4.2176   -2.4411   48.2597 C   0  0  0  0  0  0  0  0  0  0  0  0
   -3.4968   -1.3104   47.7564 O   0  0  0  0  0  0  0  0  0  0  0  0
   -4.6960   -2.1715   49.6866 C   0  0  0  0  0  0  0  0  0  0  0  0
   -5.6485   -1.1104   49.6679 O   0  0  0  0  0  0  0  0  0  0  0  0
   -3.9260   -4.7955   48.8415 O   0  0  0  0  0  0  0  0  0  0  0  0
   -4.3025   -4.5324   50.2058 C   0  0  0  0  0  0  0  0  0  0  0  0
   -5.3335   -3.4118   50.2975 C   0  0  0  0  0  0  0  0  0  0  0  0
   -2.6974   -1.1736   48.2885 H   0  0  0  0  0  0  0  0  0  0  0  0
   -6.4094   -1.3685   49.1245 H   0  0  0  0  0  0  0  0  0  0  0  0
   -4.8289   -5.8226   50.8207 C   0  0  0  0  0  0  0  0  0  0  0  0
   -6.2523   -5.7359   50.8873 O   0  0  0  0  0  0  0  0  0  0  0  0
   -6.5047   -4.9720   51.4291 H   0  0  0  0  0  0  0  0  0  0  0  0
   -3.3369   -3.9501   46.6984 O   0  0  0  0  0  0  0  0  0  0  0  0
    0.6488   -3.2191   42.8448 O   0  0  0  0  0  0  0  0  0  0  0  0
   -0.4951   -3.6403   43.6002 C   0  0  0  0  0  0  0  0  0  0  0  0
   -0.0562   -4.2721   44.9197 C   0  0  0  0  0  0  0  0  0  0  0  0
    0.8892   -5.3159   44.6632 O   0  0  0  0  0  0  0  0  0  0  0  0
   -1.3079   -4.7710   45.6514 C   0  0  0  0  0  0  0  0  0  0  0  0
   -0.9841   -5.5108   46.8452 O   0  0  0  0  0  0  0  0  0  0  0  0
   -1.3529   -2.5341   43.9056 O   0  0  0  0  0  0  0  0  0  0  0  0
   -2.5500   -2.9038   44.6086 C   0  0  0  0  0  0  0  0  0  0  0  0
   -2.1820   -3.5529   45.9503 C   0  0  0  0  0  0  0  0  0  0  0  0
    0.3562   -2.8202   42.0104 H   0  0  0  0  0  0  0  0  0  0  0  0
    0.4827   -5.9875   44.0934 H   0  0  0  0  0  0  0  0  0  0  0  0
   -0.4956   -4.9387   47.4575 H   0  0  0  0  0  0  0  0  0  0  0  0
   -3.4236   -1.6499   44.7419 C   0  0  0  0  0  0  0  0  0  0  0  0
   -2.5909   -0.5297   45.0688 O   0  0  0  0  0  0  0  0  0  0  0  0
   -2.1329   -0.7008   45.9065 H   0  0  0  0  0  0  0  0  0  0  0  0
   -7.1197   -2.8932   51.9051 C   0  0  0  0  0  0  0  0  0  0  0  0
   -7.4974   -3.3167   53.3223 C   0  0  0  0  0  0  0  0  0  0  0  0
   -7.2066   -4.7075   53.4502 O   0  0  0  0  0  0  0  0  0  0  0  0
   -8.9648   -3.0369   53.6343 C   0  0  0  0  0  0  0  0  0  0  0  0
   -9.2404   -3.2553   55.0276 O   0  0  0  0  0  0  0  0  0  0  0  0
   -7.4639   -1.5126   51.8292 O   0  0  0  0  0  0  0  0  0  0  0  0
   -8.8878   -1.3083   51.8680 C   0  0  0  0  0  0  0  0  0  0  0  0
   -9.4407   -1.6278   53.2635 C   0  0  0  0  0  0  0  0  0  0  0  0
   -7.7293   -5.2079   52.8042 H   0  0  0  0  0  0  0  0  0  0  0  0
   -8.7377   -2.6192   55.5602 H   0  0  0  0  0  0  0  0  0  0  0  0
   -9.1598    0.1068   51.3798 C   0  0  0  0  0  0  0  0  0  0  0  0
  -10.5431    0.1710   50.9708 O   0  0  0  0  0  0  0  0  0  0  0  0
  -10.7024   -0.4767   50.2666 H   0  0  0  0  0  0  0  0  0  0  0  0
  -10.8848   -1.6646   53.3194 O   0  0  0  0  0  0  0  0  0  0  0  0
  -11.6950   -0.7629   54.1467 C   0  0  0  0  0  0  0  0  0  0  0  0
  -13.2142   -1.1520   54.0671 C   0  0  0  0  0  0  0  0  0  0  0  0
  -14.0546   -0.1126   53.5254 O   0  0  0  0  0  0  0  0  0  0  0  0
  -13.8879   -1.4894   55.3904 C   0  0  0  0  0  0  0  0  0  0  0  0
  -15.1152   -2.2257   55.1590 O   0  0  0  0  0  0  0  0  0  0  0  0
  -12.8719   -2.2504   56.2196 C   0  0  0  0  0  0  0  0  0  0  0  0
  -13.4935   -2.8287   57.3702 O   0  0  0  0  0  0  0  0  0  0  0  0
  -11.1418   -0.6593   55.4781 O   0  0  0  0  0  0  0  0  0  0  0  0
  -11.8006   -1.2399   56.6126 C   0  0  0  0  0  0  0  0  0  0  0  0
  -14.0745    0.6392   54.1381 H   0  0  0  0  0  0  0  0  0  0  0  0
  -14.9164   -3.0408   54.6721 H   0  0  0  0  0  0  0  0  0  0  0  0
  -13.8995   -2.1284   57.9047 H   0  0  0  0  0  0  0  0  0  0  0  0
  -10.7096   -1.8536   57.4886 C   0  0  0  0  0  0  0  0  0  0  0  0
  -10.6685   -3.2818   57.3094 O   0  0  0  0  0  0  0  0  0  0  0  0
  -11.5230   -3.6643   57.5631 H   0  0  0  0  0  0  0  0  0  0  0  0
 16 17  1  0  0  0
 17 22  1  0  0  0
 17 18  1  0  0  0
 19 18  1  0  0  0
 18 20  1  0  0  0
 20 24  1  0  0  0
 20 21  1  0  0  0
 22 23  1  0  0  0
 23 24  1  0  0  0
 23 28  1  0  0  0
 29 28  1  0  0  0
 24 15  1  0  0  0
 15  2  1  0  0  0
  2  3  1  0  0  0
  2  7  1  0  0  0
  4  3  1  0  0  0
  3  5  1  0  0  0
  5  6  1  0  0  0
  5  9  1  0  0  0
  7  8  1  0  0  0
  8 12  1  0  0  0
  8  9  1  0  0  0
 13 12  1  0  0  0
  9  1  1  0  0  0
  1 31  1  0  0  0
 31 36  1  0  0  0
 31 32  1  0  0  0
 33 32  1  0  0  0
 32 34  1  0  0  0
 34 38  1  0  0  0
 34 35  1  0  0  0
 36 37  1  0  0  0
 41 37  1  0  0  0
 37 38  1  0  0  0
 42 41  1  0  0  0
 38 44  1  0  0  0
 44 45  1  0  0  0
 45 52  1  0  0  0
 45 46  1  0  0  0
 46 47  1  0  0  0
 46 48  1  0  0  0
 50 48  1  0  0  0
 48 49  1  0  0  0
 53 50  1  0  0  0
 50 51  1  0  0  0
 52 53  1  0  0  0
 57 53  1  0  0  0
 58 57  1  0  0  0
 16 25  1  0  0  0
 19 26  1  0  0  0
 21 27  1  0  0  0
 29 30  1  0  0  0
  4 10  1  0  0  0
  6 11  1  0  0  0
 13 14  1  0  0  0
 33 39  1  0  0  0
 35 40  1  0  0  0
 42 43  1  0  0  0
 47 54  1  0  0  0
 49 55  1  0  0  0
 51 56  1  0  0  0
 58 59  1  0  0  0
M  END
> <minimizedAffinity>
-9.67615

$$$$
4QLK_CTT_A_1001


 59 62  0  0  0  0  0  0  0  0999 V2000
   -5.5402   -3.2407   52.0391 O   0  0  0  0  0  0  0  0  0  0  0  0
   -3.6544   -3.4335   48.1805 C   0  0  0  0  0  0  0  0  0  0  0  0
   -4.5288   -2.2291   48.5350 C   0  0  0  0  0  0  0  0  0  0  0  0
   -3.9161   -1.0381   48.0277 O   0  0  0  0  0  0  0  0  0  0  0  0
   -4.8170   -2.0811   50.0292 C   0  0  0  0  0  0  0  0  0  0  0  0
   -5.7939   -1.0594   50.2179 O   0  0  0  0  0  0  0  0  0  0  0  0
   -4.0924   -4.6059   48.8922 O   0  0  0  0  0  0  0  0  0  0  0  0
   -4.2881   -4.4557   50.3105 C   0  0  0  0  0  0  0  0  0  0  0  0
   -5.3294   -3.3858   50.6233 C   0  0  0  0  0  0  0  0  0  0  0  0
   -3.0563   -0.9084   48.4576 H   0  0  0  0  0  0  0  0  0  0  0  0
   -6.6136   -1.3077   49.7625 H   0  0  0  0  0  0  0  0  0  0  0  0
   -4.6884   -5.8061   50.8901 C   0  0  0  0  0  0  0  0  0  0  0  0
   -6.1034   -5.8079   51.0793 O   0  0  0  0  0  0  0  0  0  0  0  0
   -6.3496   -5.0906   51.6841 H   0  0  0  0  0  0  0  0  0  0  0  0
   -3.8240   -3.5872   46.7603 O   0  0  0  0  0  0  0  0  0  0  0  0
    0.2290   -3.7601   42.9116 O   0  0  0  0  0  0  0  0  0  0  0  0
   -0.8809   -4.0378   43.7760 C   0  0  0  0  0  0  0  0  0  0  0  0
   -0.4314   -4.0302   45.2357 C   0  0  0  0  0  0  0  0  0  0  0  0
    0.6754   -4.9225   45.4037 O   0  0  0  0  0  0  0  0  0  0  0  0
   -1.6345   -4.4052   46.1093 C   0  0  0  0  0  0  0  0  0  0  0  0
   -1.2745   -4.5630   47.4958 O   0  0  0  0  0  0  0  0  0  0  0  0
   -1.9136   -3.0557   43.6284 O   0  0  0  0  0  0  0  0  0  0  0  0
   -3.0809   -3.3155   44.4248 C   0  0  0  0  0  0  0  0  0  0  0  0
   -2.7000   -3.3267   45.9119 C   0  0  0  0  0  0  0  0  0  0  0  0
   -0.0699   -3.7679   41.9888 H   0  0  0  0  0  0  0  0  0  0  0  0
    0.4106   -5.8186   45.1433 H   0  0  0  0  0  0  0  0  0  0  0  0
   -0.9164   -3.7274   47.8340 H   0  0  0  0  0  0  0  0  0  0  0  0
   -4.1412   -2.2685   44.0610 C   0  0  0  0  0  0  0  0  0  0  0  0
   -4.1828   -1.2663   45.0853 O   0  0  0  0  0  0  0  0  0  0  0  0
   -4.4077   -1.6799   45.9333 H   0  0  0  0  0  0  0  0  0  0  0  0
   -6.8166   -2.7287   52.4674 C   0  0  0  0  0  0  0  0  0  0  0  0
   -7.2578   -3.4109   53.7598 C   0  0  0  0  0  0  0  0  0  0  0  0
   -7.3285   -4.8131   53.5065 O   0  0  0  0  0  0  0  0  0  0  0  0
   -8.5978   -2.8805   54.2616 C   0  0  0  0  0  0  0  0  0  0  0  0
   -8.8885   -3.3893   55.5737 O   0  0  0  0  0  0  0  0  0  0  0  0
   -6.7989   -1.3372   52.7728 O   0  0  0  0  0  0  0  0  0  0  0  0
   -8.1223   -0.8148   52.9885 C   0  0  0  0  0  0  0  0  0  0  0  0
   -8.7067   -1.3521   54.3019 C   0  0  0  0  0  0  0  0  0  0  0  0
   -7.9760   -4.9826   52.8045 H   0  0  0  0  0  0  0  0  0  0  0  0
   -8.2283   -3.0582   56.2025 H   0  0  0  0  0  0  0  0  0  0  0  0
   -8.0353    0.7014   52.8991 C   0  0  0  0  0  0  0  0  0  0  0  0
   -8.3454    1.2360   54.2040 O   0  0  0  0  0  0  0  0  0  0  0  0
   -9.2355    0.9533   54.4661 H   0  0  0  0  0  0  0  0  0  0  0  0
  -10.1108   -1.0547   54.4751 O   0  0  0  0  0  0  0  0  0  0  0  0
  -11.1348   -1.3187   53.4574 C   0  0  0  0  0  0  0  0  0  0  0  0
  -12.1625   -2.3899   53.9693 C   0  0  0  0  0  0  0  0  0  0  0  0
  -12.2011   -3.5895   53.1698 O   0  0  0  0  0  0  0  0  0  0  0  0
  -13.6203   -1.9518   54.0094 C   0  0  0  0  0  0  0  0  0  0  0  0
  -14.3876   -2.8287   54.8724 O   0  0  0  0  0  0  0  0  0  0  0  0
  -13.6319   -0.5023   54.4541 C   0  0  0  0  0  0  0  0  0  0  0  0
  -14.9626   -0.0825   54.7664 O   0  0  0  0  0  0  0  0  0  0  0  0
  -11.7050   -0.0806   52.9761 O   0  0  0  0  0  0  0  0  0  0  0  0
  -13.0497    0.3021   53.2976 C   0  0  0  0  0  0  0  0  0  0  0  0
  -12.5539   -3.3809   52.2906 H   0  0  0  0  0  0  0  0  0  0  0  0
  -14.0126   -2.8112   55.7668 H   0  0  0  0  0  0  0  0  0  0  0  0
  -15.5283   -0.1943   53.9864 H   0  0  0  0  0  0  0  0  0  0  0  0
  -13.0239    1.8030   53.5826 C   0  0  0  0  0  0  0  0  0  0  0  0
  -13.6792    2.5249   52.5229 O   0  0  0  0  0  0  0  0  0  0  0  0
  -13.2183    2.3591   51.6856 H   0  0  0  0  0  0  0  0  0  0  0  0
 16 17  1  0  0  0
 17 22  1  0  0  0
 17 18  1  0  0  0
 19 18  1  0  0  0
 18 20  1  0  0  0
 20 24  1  0  0  0
 20 21  1  0  0  0
 22 23  1  0  0  0
 23 24  1  0  0  0
 23 28  1  0  0  0
 29 28  1  0  0  0
 24 15  1  0  0  0
 15  2  1  0  0  0
  2  3  1  0  0  0
  2  7  1  0  0  0
  4  3  1  0  0  0
  3  5  1  0  0  0
  5  6  1  0  0  0
  5  9  1  0  0  0
  7  8  1  0  0  0
  8 12  1  0  0  0
  8  9  1  0  0  0
 13 12  1  0  0  0
  9  1  1  0  0  0
  1 31  1  0  0  0
 31 36  1  0  0  0
 31 32  1  0  0  0
 33 32  1  0  0  0
 32 34  1  0  0  0
 34 38  1  0  0  0
 34 35  1  0  0  0
 36 37  1  0  0  0
 41 37  1  0  0  0
 37 38  1  0  0  0
 42 41  1  0  0  0
 38 44  1  0  0  0
 44 45  1  0  0  0
 45 52  1  0  0  0
 45 46  1  0  0  0
 46 47  1  0  0  0
 46 48  1  0  0  0
 50 48  1  0  0  0
 48 49  1  0  0  0
 53 50  1  0  0  0
 50 51  1  0  0  0
 52 53  1  0  0  0
 57 53  1  0  0  0
 58 57  1  0  0  0
 16 25  1  0  0  0
 19 26  1  0  0  0
 21 27  1  0  0  0
 29 30  1  0  0  0
  4 10  1  0  0  0
  6 11  1  0  0  0
 13 14  1  0  0  0
 33 39  1  0  0  0
 35 40  1  0  0  0
 42 43  1  0  0  0
 47 54  1  0  0  0
 49 55  1  0  0  0
 51 56  1  0  0  0
 58 59  1  0  0  0
M  END
> <minimizedAffinity>
-9.44402

$$$$
4QLK_CTT_A_1001


 59 62  0  0  0  0  0  0  0  0999 V2000
   -7.5078   -2.5054   50.8708 O   0  0  0  0  0  0  0  0  0  0  0  0
  -10.1778   -1.0718   53.9201 C   0  0  0  0  0  0  0  0  0  0  0  0
  -10.0193   -0.2795   52.6210 C   0  0  0  0  0  0  0  0  0  0  0  0
  -11.3001    0.2147   52.2127 O   0  0  0  0  0  0  0  0  0  0  0  0
   -9.3674   -1.0648   51.4826 C   0  0  0  0  0  0  0  0  0  0  0  0
   -9.0885   -0.1771   50.4019 O   0  0  0  0  0  0  0  0  0  0  0  0
   -8.9731   -1.8008   54.2203 O   0  0  0  0  0  0  0  0  0  0  0  0
   -8.4199   -2.5883   53.1497 C   0  0  0  0  0  0  0  0  0  0  0  0
   -8.0745   -1.7264   51.9394 C   0  0  0  0  0  0  0  0  0  0  0  0
  -11.8904   -0.5321   52.0264 H   0  0  0  0  0  0  0  0  0  0  0  0
   -8.4749    0.5125   50.7000 H   0  0  0  0  0  0  0  0  0  0  0  0
   -7.1947   -3.3259   53.6736 C   0  0  0  0  0  0  0  0  0  0  0  0
   -6.9071   -4.4022   52.7810 O   0  0  0  0  0  0  0  0  0  0  0  0
   -7.6710   -4.9983   52.7367 H   0  0  0  0  0  0  0  0  0  0  0  0
  -10.4462   -0.0683   54.9153 O   0  0  0  0  0  0  0  0  0  0  0  0
  -14.9292   -1.9713   57.6631 O   0  0  0  0  0  0  0  0  0  0  0  0
  -13.8713   -1.7303   56.7255 C   0  0  0  0  0  0  0  0  0  0  0  0
  -13.9666   -0.3100   56.1717 C   0  0  0  0  0  0  0  0  0  0  0  0
  -15.2773   -0.0865   55.6413 O   0  0  0  0  0  0  0  0  0  0  0  0
  -12.8628   -0.1300   55.1227 C   0  0  0  0  0  0  0  0  0  0  0  0
  -12.9598    1.1354   54.4396 O   0  0  0  0  0  0  0  0  0  0  0  0
  -12.5863   -1.8770   57.3419 O   0  0  0  0  0  0  0  0  0  0  0  0
  -11.4843   -1.7088   56.4357 C   0  0  0  0  0  0  0  0  0  0  0  0
  -11.5202   -0.2966   55.8347 C   0  0  0  0  0  0  0  0  0  0  0  0
  -14.8570   -2.8756   58.0066 H   0  0  0  0  0  0  0  0  0  0  0  0
  -15.4550   -0.7293   54.9369 H   0  0  0  0  0  0  0  0  0  0  0  0
  -12.8735    1.8570   55.0820 H   0  0  0  0  0  0  0  0  0  0  0  0
  -10.1934   -2.0280   57.2003 C   0  0  0  0  0  0  0  0  0  0  0  0
   -9.5956   -3.2055   56.6422 O   0  0  0  0  0  0  0  0  0  0  0  0
  -10.2141   -3.9490   56.7178 H   0  0  0  0  0  0  0  0  0  0  0  0
   -6.4217   -1.9175   50.1296 C   0  0  0  0  0  0  0  0  0  0  0  0
   -5.5687   -3.0052   49.4816 C   0  0  0  0  0  0  0  0  0  0  0  0
   -5.0793   -3.8489   50.5228 O   0  0  0  0  0  0  0  0  0  0  0  0
   -4.4173   -2.4237   48.6662 C   0  0  0  0  0  0  0  0  0  0  0  0
   -3.7584   -3.4520   47.9090 O   0  0  0  0  0  0  0  0  0  0  0  0
   -6.8496   -1.0926   49.0495 O   0  0  0  0  0  0  0  0  0  0  0  0
   -5.7589   -0.3561   48.4676 C   0  0  0  0  0  0  0  0  0  0  0  0
   -4.8176   -1.2985   47.7053 C   0  0  0  0  0  0  0  0  0  0  0  0
   -4.5397   -3.3258   51.1361 H   0  0  0  0  0  0  0  0  0  0  0  0
   -4.3758   -3.8196   47.2575 H   0  0  0  0  0  0  0  0  0  0  0  0
   -6.3587    0.7643   47.6313 C   0  0  0  0  0  0  0  0  0  0  0  0
   -5.3996    1.8430   47.5911 O   0  0  0  0  0  0  0  0  0  0  0  0
   -5.2137    2.1441   48.4942 H   0  0  0  0  0  0  0  0  0  0  0  0
   -3.5843   -0.6708   47.2869 O   0  0  0  0  0  0  0  0  0  0  0  0
   -3.0293   -0.7794   45.9326 C   0  0  0  0  0  0  0  0  0  0  0  0
   -3.9494   -1.6721   45.0258 C   0  0  0  0  0  0  0  0  0  0  0  0
   -3.2993   -2.8573   44.5234 O   0  0  0  0  0  0  0  0  0  0  0  0
   -4.4891   -1.0106   43.7649 C   0  0  0  0  0  0  0  0  0  0  0  0
   -5.6277   -1.7492   43.2548 O   0  0  0  0  0  0  0  0  0  0  0  0
   -4.8114    0.4264   44.1257 C   0  0  0  0  0  0  0  0  0  0  0  0
   -5.5588    1.0522   43.0795 O   0  0  0  0  0  0  0  0  0  0  0  0
   -2.7088    0.5288   45.4077 O   0  0  0  0  0  0  0  0  0  0  0  0
   -3.4723    1.1202   44.3468 C   0  0  0  0  0  0  0  0  0  0  0  0
   -2.5974   -2.6031   43.9039 H   0  0  0  0  0  0  0  0  0  0  0  0
   -6.3208   -1.7835   43.9326 H   0  0  0  0  0  0  0  0  0  0  0  0
   -5.0477    1.0241   42.2556 H   0  0  0  0  0  0  0  0  0  0  0  0
   -3.6293    2.6007   44.6901 C   0  0  0  0  0  0  0  0  0  0  0  0
   -2.5342    3.3599   44.1441 O   0  0  0  0  0  0  0  0  0  0  0  0
   -1.6995    3.0399   44.5207 H   0  0  0  0  0  0  0  0  0  0  0  0
 16 17  1  0  0  0
 17 22  1  0  0  0
 17 18  1  0  0  0
 19 18  1  0  0  0
 18 20  1  0  0  0
 20 24  1  0  0  0
 20 21  1  0  0  0
 22 23  1  0  0  0
 23 24  1  0  0  0
 23 28  1  0  0  0
 29 28  1  0  0  0
 24 15  1  0  0  0
 15  2  1  0  0  0
  2  3  1  0  0  0
  2  7  1  0  0  0
  4  3  1  0  0  0
  3  5  1  0  0  0
  5  6  1  0  0  0
  5  9  1  0  0  0
  7  8  1  0  0  0
  8 12  1  0  0  0
  8  9  1  0  0  0
 13 12  1  0  0  0
  9  1  1  0  0  0
  1 31  1  0  0  0
 31 36  1  0  0  0
 31 32  1  0  0  0
 33 32  1  0  0  0
 32 34  1  0  0  0
 34 38  1  0  0  0
 34 35  1  0  0  0
 36 37  1  0  0  0
 41 37  1  0  0  0
 37 38  1  0  0  0
 42 41  1  0  0  0
 38 44  1  0  0  0
 44 45  1  0  0  0
 45 52  1  0  0  0
 45 46  1  0  0  0
 46 47  1  0  0  0
 46 48  1  0  0  0
 50 48  1  0  0  0
 48 49  1  0  0  0
 53 50  1  0  0  0
 50 51  1  0  0  0
 52 53  1  0  0  0
 57 53  1  0  0  0
 58 57  1  0  0  0
 16 25  1  0  0  0
 19 26  1  0  0  0
 21 27  1  0  0  0
 29 30  1  0  0  0
  4 10  1  0  0  0
  6 11  1  0  0  0
 13 14  1  0  0  0
 33 39  1  0  0  0
 35 40  1  0  0  0
 42 43  1  0  0  0
 47 54  1  0  0  0
 49 55  1  0  0  0
 51 56  1  0  0  0
 58 59  1  0  0  0
M  END
> <minimizedAffinity>
-9.41448

$$$$
