3BL1_BL1_A_300


 27 29  0  0  0  0  0  0  0  0999 V2000
   -4.1304    4.5783   11.8905 C   0  0  0  0  0  0  0  0  0  0  0  0
   -3.3645    3.7162   11.4600 O   0  0  0  0  0  0  0  0  0  0  0  0
   -4.3731    5.4997   10.9399 N   0  0  0  0  0  0  0  0  0  0  0  0
   -3.8825    5.2580   10.1212 H   0  0  0  0  0  0  0  0  0  0  0  0
   -5.0941    6.6994   10.7153 N   0  0  0  0  0  0  0  0  0  0  0  0
   -4.8500    7.8480   11.5935 C   0  0  0  0  0  0  0  0  0  0  0  0
   -3.4104    8.3355   11.4778 C   0  0  0  0  0  0  0  0  0  0  0  0
   -6.0123    6.9977    9.7004 C   0  0  0  0  0  0  0  0  0  0  0  0
   -6.4551    8.2840    9.8620 C   0  0  0  0  0  0  0  0  0  0  0  0
   -5.8120    8.9338   11.0683 C   0  0  0  0  0  0  0  0  0  0  0  0
   -6.4614    6.2053    8.6385 C   0  0  0  0  0  0  0  0  0  0  0  0
   -7.3908    6.7552    7.7406 C   0  0  0  0  0  0  0  0  0  0  0  0
   -7.8427    8.0774    7.9224 C   0  0  0  0  0  0  0  0  0  0  0  0
   -7.3826    8.8666    8.9922 C   0  0  0  0  0  0  0  0  0  0  0  0
   -5.0171    2.6730   15.1567 C   0  0  0  0  0  0  0  0  0  0  0  0
   -4.5499    3.0411   13.8757 C   0  0  0  0  0  0  0  0  0  0  0  0
   -5.6382    3.6876   15.8628 C   0  0  0  0  0  0  0  0  0  0  0  0
   -6.2793    3.3068   17.4727 Cl  0  0  0  0  0  0  0  0  0  0  0  0
   -5.7905    4.9766   15.3324 C   0  0  0  0  0  0  0  0  0  0  0  0
   -5.2979    5.3107   14.0702 C   0  0  0  0  0  0  0  0  0  0  0  0
   -4.6520    4.3422   13.3139 C   0  0  0  0  0  0  0  0  0  0  0  0
   -4.5469    0.2169   14.7245 O   0  0  0  0  0  0  0  0  0  0  0  0
   -4.8611    1.1484   15.7688 S   0  0  0  0  0  0  0  0  0  0  0  0
   -3.7370    1.2029   16.6703 N   0  0  0  0  0  0  0  0  0  0  0  0
   -6.1165    0.5261   16.5110 O   0  0  0  0  0  0  0  0  0  0  0  0
   -2.9330    1.6038   16.1873 H   0  0  0  0  0  0  0  0  0  0  0  0
   -3.5085    0.2603   16.9862 H   0  0  0  0  0  0  0  0  0  0  0  0
  7  6  1  0  0  0
 10  6  1  0  0  0
 10  9  1  0  0  0
  6  5  1  0  0  0
  9 14  2  0  0  0
  9  8  1  0  0  0
 14 13  1  0  0  0
  5  8  1  0  0  0
  5  3  1  0  0  0
  8 11  2  0  0  0
  3  1  1  0  0  0
 13 12  2  0  0  0
 11 12  1  0  0  0
  2  1  2  0  0  0
  1 21  1  0  0  0
 21 20  2  0  0  0
 21 16  1  0  0  0
 20 19  1  0  0  0
 16 15  2  0  0  0
 19 17  2  0  0  0
 15 17  1  0  0  0
 15 23  1  0  0  0
 17 18  1  0  0  0
 24 23  1  0  0  0
 23 22  2  0  0  0
 23 25  2  0  0  0
 24 26  1  0  0  0
 24 27  1  0  0  0
  3  4  1  0  0  0
M  END
> <minimizedAffinity>
-9.43401

$$$$
3BL1_BL1_A_300


 27 29  0  0  0  0  0  0  0  0999 V2000
   -5.6789    5.6933   13.5535 C   0  0  0  0  0  0  0  0  0  0  0  0
   -6.6853    6.3482   13.2825 O   0  0  0  0  0  0  0  0  0  0  0  0
   -4.7154    5.9253   12.6428 N   0  0  0  0  0  0  0  0  0  0  0  0
   -5.0462    6.5722   11.9784 H   0  0  0  0  0  0  0  0  0  0  0  0
   -3.3869    5.5560   12.3140 N   0  0  0  0  0  0  0  0  0  0  0  0
   -3.1484    4.2528   11.6854 C   0  0  0  0  0  0  0  0  0  0  0  0
   -3.8317    4.1622   10.3258 C   0  0  0  0  0  0  0  0  0  0  0  0
   -2.2073    6.2989   12.4505 C   0  0  0  0  0  0  0  0  0  0  0  0
   -1.1535    5.5531   11.9921 C   0  0  0  0  0  0  0  0  0  0  0  0
   -1.6173    4.1974   11.5043 C   0  0  0  0  0  0  0  0  0  0  0  0
   -2.0182    7.5964   12.9383 C   0  0  0  0  0  0  0  0  0  0  0  0
   -0.7150    8.1194   12.9590 C   0  0  0  0  0  0  0  0  0  0  0  0
    0.3606    7.3390   12.4904 C   0  0  0  0  0  0  0  0  0  0  0  0
    0.1590    6.0362   11.9995 C   0  0  0  0  0  0  0  0  0  0  0  0
   -5.3381    2.6612   15.9567 C   0  0  0  0  0  0  0  0  0  0  0  0
   -5.2973    3.5345   14.8474 C   0  0  0  0  0  0  0  0  0  0  0  0
   -5.9014    3.1993   17.0999 C   0  0  0  0  0  0  0  0  0  0  0  0
   -6.0169    2.1630   18.5354 Cl  0  0  0  0  0  0  0  0  0  0  0  0
   -6.3957    4.5109   17.1381 C   0  0  0  0  0  0  0  0  0  0  0  0
   -6.3203    5.3532   16.0281 C   0  0  0  0  0  0  0  0  0  0  0  0
   -5.7543    4.8798   14.8522 C   0  0  0  0  0  0  0  0  0  0  0  0
   -3.5781    0.9792   16.6733 O   0  0  0  0  0  0  0  0  0  0  0  0
   -4.7805    1.1089   15.9023 S   0  0  0  0  0  0  0  0  0  0  0  0
   -5.8006    0.3056   16.5293 N   0  0  0  0  0  0  0  0  0  0  0  0
   -4.4229    0.5096   14.4785 O   0  0  0  0  0  0  0  0  0  0  0  0
   -6.0263    0.6960   17.4442 H   0  0  0  0  0  0  0  0  0  0  0  0
   -5.4602   -0.6493   16.6416 H   0  0  0  0  0  0  0  0  0  0  0  0
  7  6  1  0  0  0
 10  6  1  0  0  0
 10  9  1  0  0  0
  6  5  1  0  0  0
  9 14  2  0  0  0
  9  8  1  0  0  0
 14 13  1  0  0  0
  5  8  1  0  0  0
  5  3  1  0  0  0
  8 11  2  0  0  0
  3  1  1  0  0  0
 13 12  2  0  0  0
 11 12  1  0  0  0
  2  1  2  0  0  0
  1 21  1  0  0  0
 21 20  2  0  0  0
 21 16  1  0  0  0
 20 19  1  0  0  0
 16 15  2  0  0  0
 19 17  2  0  0  0
 15 17  1  0  0  0
 15 23  1  0  0  0
 17 18  1  0  0  0
 24 23  1  0  0  0
 23 22  2  0  0  0
 23 25  2  0  0  0
 24 26  1  0  0  0
 24 27  1  0  0  0
  3  4  1  0  0  0
M  END
> <minimizedAffinity>
-9.40933

$$$$
3BL1_BL1_A_300


 27 29  0  0  0  0  0  0  0  0999 V2000
   -5.6689    5.8351   13.7177 C   0  0  0  0  0  0  0  0  0  0  0  0
   -6.7393    6.3275   13.3614 O   0  0  0  0  0  0  0  0  0  0  0  0
   -4.6740    6.2587   12.9164 N   0  0  0  0  0  0  0  0  0  0  0  0
   -5.0419    6.8697   12.2378 H   0  0  0  0  0  0  0  0  0  0  0  0
   -3.2769    6.1251   12.7163 N   0  0  0  0  0  0  0  0  0  0  0  0
   -2.4205    7.3030   12.8877 C   0  0  0  0  0  0  0  0  0  0  0  0
   -2.4715    7.8190   14.3211 C   0  0  0  0  0  0  0  0  0  0  0  0
   -2.5364    4.9741   12.4182 C   0  0  0  0  0  0  0  0  0  0  0  0
   -1.2107    5.3068   12.3254 C   0  0  0  0  0  0  0  0  0  0  0  0
   -1.0021    6.7858   12.5698 C   0  0  0  0  0  0  0  0  0  0  0  0
   -2.9657    3.6541   12.2434 C   0  0  0  0  0  0  0  0  0  0  0  0
   -2.0045    2.6708   11.9576 C   0  0  0  0  0  0  0  0  0  0  0  0
   -0.6450    3.0280   11.8586 C   0  0  0  0  0  0  0  0  0  0  0  0
   -0.2237    4.3581   12.0389 C   0  0  0  0  0  0  0  0  0  0  0  0
   -5.3099    2.7035   15.9869 C   0  0  0  0  0  0  0  0  0  0  0  0
   -5.2784    3.6230   14.9153 C   0  0  0  0  0  0  0  0  0  0  0  0
   -5.8615    3.1933   17.1572 C   0  0  0  0  0  0  0  0  0  0  0  0
   -5.9649    2.0973   18.5486 Cl  0  0  0  0  0  0  0  0  0  0  0  0
   -6.3534    4.5027   17.2557 C   0  0  0  0  0  0  0  0  0  0  0  0
   -6.2872    5.3912   16.1816 C   0  0  0  0  0  0  0  0  0  0  0  0
   -5.7332    4.9675   14.9815 C   0  0  0  0  0  0  0  0  0  0  0  0
   -3.5578    0.9849   16.6324 O   0  0  0  0  0  0  0  0  0  0  0  0
   -4.7553    1.1543   15.8614 S   0  0  0  0  0  0  0  0  0  0  0  0
   -5.7809    0.3243   16.4432 N   0  0  0  0  0  0  0  0  0  0  0  0
   -4.3904    0.6231   14.4127 O   0  0  0  0  0  0  0  0  0  0  0  0
   -6.0111    0.6709   17.3744 H   0  0  0  0  0  0  0  0  0  0  0  0
   -5.4431   -0.6357   16.5116 H   0  0  0  0  0  0  0  0  0  0  0  0
  7  6  1  0  0  0
 10  6  1  0  0  0
 10  9  1  0  0  0
  6  5  1  0  0  0
  9 14  2  0  0  0
  9  8  1  0  0  0
 14 13  1  0  0  0
  5  8  1  0  0  0
  5  3  1  0  0  0
  8 11  2  0  0  0
  3  1  1  0  0  0
 13 12  2  0  0  0
 11 12  1  0  0  0
  2  1  2  0  0  0
  1 21  1  0  0  0
 21 20  2  0  0  0
 21 16  1  0  0  0
 20 19  1  0  0  0
 16 15  2  0  0  0
 19 17  2  0  0  0
 15 17  1  0  0  0
 15 23  1  0  0  0
 17 18  1  0  0  0
 24 23  1  0  0  0
 23 22  2  0  0  0
 23 25  2  0  0  0
 24 26  1  0  0  0
 24 27  1  0  0  0
  3  4  1  0  0  0
M  END
> <minimizedAffinity>
-9.33510

$$$$
3BL1_BL1_A_300


 27 29  0  0  0  0  0  0  0  0999 V2000
   -4.1044    4.1427   12.5016 C   0  0  0  0  0  0  0  0  0  0  0  0
   -3.8684    3.0086   12.0852 O   0  0  0  0  0  0  0  0  0  0  0  0
   -3.8081    5.0545   11.5570 N   0  0  0  0  0  0  0  0  0  0  0  0
   -3.4783    4.5927   10.7525 H   0  0  0  0  0  0  0  0  0  0  0  0
   -3.8089    6.4531   11.3254 N   0  0  0  0  0  0  0  0  0  0  0  0
   -2.5376    7.1245   11.0369 C   0  0  0  0  0  0  0  0  0  0  0  0
   -1.9198    6.6053    9.7438 C   0  0  0  0  0  0  0  0  0  0  0  0
   -4.8952    7.3358   11.2709 C   0  0  0  0  0  0  0  0  0  0  0  0
   -4.4328    8.5981   11.0073 C   0  0  0  0  0  0  0  0  0  0  0  0
   -2.9255    8.6084   10.8704 C   0  0  0  0  0  0  0  0  0  0  0  0
   -6.2626    7.0824   11.4229 C   0  0  0  0  0  0  0  0  0  0  0  0
   -7.1584    8.1582   11.3100 C   0  0  0  0  0  0  0  0  0  0  0  0
   -6.6686    9.4527   11.0451 C   0  0  0  0  0  0  0  0  0  0  0  0
   -5.2916    9.6960   10.8914 C   0  0  0  0  0  0  0  0  0  0  0  0
   -5.3070    2.9512   15.9971 C   0  0  0  0  0  0  0  0  0  0  0  0
   -4.7394    3.0413   14.7070 C   0  0  0  0  0  0  0  0  0  0  0  0
   -5.9079    4.1119   16.4503 C   0  0  0  0  0  0  0  0  0  0  0  0
   -6.6700    4.0814   18.0522 Cl  0  0  0  0  0  0  0  0  0  0  0  0
   -5.9484    5.2794   15.6748 C   0  0  0  0  0  0  0  0  0  0  0  0
   -5.3586    5.3386   14.4113 C   0  0  0  0  0  0  0  0  0  0  0  0
   -4.7271    4.2121   13.9021 C   0  0  0  0  0  0  0  0  0  0  0  0
   -6.3634    0.7042   16.5218 O   0  0  0  0  0  0  0  0  0  0  0  0
   -5.2823    1.5685   16.8977 S   0  0  0  0  0  0  0  0  0  0  0  0
   -4.0458    0.9067   16.5630 N   0  0  0  0  0  0  0  0  0  0  0  0
   -5.4038    1.7184   18.4715 O   0  0  0  0  0  0  0  0  0  0  0  0
   -3.9735    0.8133   15.5499 H   0  0  0  0  0  0  0  0  0  0  0  0
   -4.0285   -0.0186   16.9919 H   0  0  0  0  0  0  0  0  0  0  0  0
  7  6  1  0  0  0
 10  6  1  0  0  0
 10  9  1  0  0  0
  6  5  1  0  0  0
  9 14  2  0  0  0
  9  8  1  0  0  0
 14 13  1  0  0  0
  5  8  1  0  0  0
  5  3  1  0  0  0
  8 11  2  0  0  0
  3  1  1  0  0  0
 13 12  2  0  0  0
 11 12  1  0  0  0
  2  1  2  0  0  0
  1 21  1  0  0  0
 21 20  2  0  0  0
 21 16  1  0  0  0
 20 19  1  0  0  0
 16 15  2  0  0  0
 19 17  2  0  0  0
 15 17  1  0  0  0
 15 23  1  0  0  0
 17 18  1  0  0  0
 24 23  1  0  0  0
 23 22  2  0  0  0
 23 25  2  0  0  0
 24 26  1  0  0  0
 24 27  1  0  0  0
  3  4  1  0  0  0
M  END
> <minimizedAffinity>
-9.03617

$$$$
3BL1_BL1_A_300


 27 29  0  0  0  0  0  0  0  0999 V2000
   -4.1568    4.1155   12.4580 C   0  0  0  0  0  0  0  0  0  0  0  0
   -4.1595    3.0004   11.9365 O   0  0  0  0  0  0  0  0  0  0  0  0
   -3.6756    5.0297   11.5954 N   0  0  0  0  0  0  0  0  0  0  0  0
   -3.4464    4.5860   10.7469 H   0  0  0  0  0  0  0  0  0  0  0  0
   -3.3864    6.4136   11.4917 N   0  0  0  0  0  0  0  0  0  0  0  0
   -3.9157    7.1648   10.3490 C   0  0  0  0  0  0  0  0  0  0  0  0
   -5.4400    7.1751   10.3533 C   0  0  0  0  0  0  0  0  0  0  0  0
   -2.6836    7.2351   12.3824 C   0  0  0  0  0  0  0  0  0  0  0  0
   -2.6573    8.5121   11.8871 C   0  0  0  0  0  0  0  0  0  0  0  0
   -3.3840    8.5973   10.5621 C   0  0  0  0  0  0  0  0  0  0  0  0
   -2.0854    6.9211   13.6075 C   0  0  0  0  0  0  0  0  0  0  0  0
   -1.4428    7.9468   14.3199 C   0  0  0  0  0  0  0  0  0  0  0  0
   -1.4177    9.2544   13.7956 C   0  0  0  0  0  0  0  0  0  0  0  0
   -2.0247    9.5599   12.5639 C   0  0  0  0  0  0  0  0  0  0  0  0
   -5.2914    2.9196   15.9747 C   0  0  0  0  0  0  0  0  0  0  0  0
   -4.7469    3.0120   14.6748 C   0  0  0  0  0  0  0  0  0  0  0  0
   -5.8911    4.0772   16.4375 C   0  0  0  0  0  0  0  0  0  0  0  0
   -6.6250    4.0435   18.0525 Cl  0  0  0  0  0  0  0  0  0  0  0  0
   -5.9518    5.2438   15.6621 C   0  0  0  0  0  0  0  0  0  0  0  0
   -5.3845    5.3055   14.3885 C   0  0  0  0  0  0  0  0  0  0  0  0
   -4.7554    4.1823   13.8691 C   0  0  0  0  0  0  0  0  0  0  0  0
   -6.2984    0.6474   16.4875 O   0  0  0  0  0  0  0  0  0  0  0  0
   -5.2432    1.5378   16.8756 S   0  0  0  0  0  0  0  0  0  0  0  0
   -3.9871    0.9065   16.5550 N   0  0  0  0  0  0  0  0  0  0  0  0
   -5.3860    1.6843   18.4479 O   0  0  0  0  0  0  0  0  0  0  0  0
   -3.9011    0.8151   15.5427 H   0  0  0  0  0  0  0  0  0  0  0  0
   -3.9520   -0.0182   16.9840 H   0  0  0  0  0  0  0  0  0  0  0  0
  7  6  1  0  0  0
 10  6  1  0  0  0
 10  9  1  0  0  0
  6  5  1  0  0  0
  9 14  2  0  0  0
  9  8  1  0  0  0
 14 13  1  0  0  0
  5  8  1  0  0  0
  5  3  1  0  0  0
  8 11  2  0  0  0
  3  1  1  0  0  0
 13 12  2  0  0  0
 11 12  1  0  0  0
  2  1  2  0  0  0
  1 21  1  0  0  0
 21 20  2  0  0  0
 21 16  1  0  0  0
 20 19  1  0  0  0
 16 15  2  0  0  0
 19 17  2  0  0  0
 15 17  1  0  0  0
 15 23  1  0  0  0
 17 18  1  0  0  0
 24 23  1  0  0  0
 23 22  2  0  0  0
 23 25  2  0  0  0
 24 26  1  0  0  0
 24 27  1  0  0  0
  3  4  1  0  0  0
M  END
> <minimizedAffinity>
-8.84749

$$$$
3BL1_BL1_A_300


 27 29  0  0  0  0  0  0  0  0999 V2000
   -4.1585    3.9727   11.5152 C   0  0  0  0  0  0  0  0  0  0  0  0
   -4.9412    3.4927   10.6953 O   0  0  0  0  0  0  0  0  0  0  0  0
   -3.0918    4.4987   10.8853 N   0  0  0  0  0  0  0  0  0  0  0  0
   -3.1971    4.3789    9.9138 H   0  0  0  0  0  0  0  0  0  0  0  0
   -1.8682    5.1664   11.1436 N   0  0  0  0  0  0  0  0  0  0  0  0
   -0.6513    4.7018   10.4701 C   0  0  0  0  0  0  0  0  0  0  0  0
   -0.7645    4.8545    8.9577 C   0  0  0  0  0  0  0  0  0  0  0  0
   -1.6319    6.2942   11.9399 C   0  0  0  0  0  0  0  0  0  0  0  0
   -0.2986    6.6050   11.8907 C   0  0  0  0  0  0  0  0  0  0  0  0
    0.4546    5.6340   11.0070 C   0  0  0  0  0  0  0  0  0  0  0  0
   -2.5283    7.0664   12.6866 C   0  0  0  0  0  0  0  0  0  0  0  0
   -2.0286    8.1686   13.3992 C   0  0  0  0  0  0  0  0  0  0  0  0
   -0.6539    8.4730   13.3449 C   0  0  0  0  0  0  0  0  0  0  0  0
    0.2386    7.6915   12.5887 C   0  0  0  0  0  0  0  0  0  0  0  0
   -4.9861    2.4842   15.0058 C   0  0  0  0  0  0  0  0  0  0  0  0
   -4.5614    2.6851   13.6739 C   0  0  0  0  0  0  0  0  0  0  0  0
   -5.5216    3.6020   15.6202 C   0  0  0  0  0  0  0  0  0  0  0  0
   -6.1050    3.4338   17.2873 Cl  0  0  0  0  0  0  0  0  0  0  0  0
   -5.6336    4.8324   14.9571 C   0  0  0  0  0  0  0  0  0  0  0  0
   -5.1844    5.0001   13.6465 C   0  0  0  0  0  0  0  0  0  0  0  0
   -4.6242    3.9213   12.9762 C   0  0  0  0  0  0  0  0  0  0  0  0
   -4.6242   -0.0217   14.8330 O   0  0  0  0  0  0  0  0  0  0  0  0
   -4.8785    1.0286   15.7760 S   0  0  0  0  0  0  0  0  0  0  0  0
   -3.7343    1.1317   16.6473 N   0  0  0  0  0  0  0  0  0  0  0  0
   -6.1419    0.5429   16.6019 O   0  0  0  0  0  0  0  0  0  0  0  0
   -2.9252    1.4444   16.1105 H   0  0  0  0  0  0  0  0  0  0  0  0
   -3.5372    0.2196   17.0591 H   0  0  0  0  0  0  0  0  0  0  0  0
  7  6  1  0  0  0
 10  6  1  0  0  0
 10  9  1  0  0  0
  6  5  1  0  0  0
  9 14  2  0  0  0
  9  8  1  0  0  0
 14 13  1  0  0  0
  5  8  1  0  0  0
  5  3  1  0  0  0
  8 11  2  0  0  0
  3  1  1  0  0  0
 13 12  2  0  0  0
 11 12  1  0  0  0
  2  1  2  0  0  0
  1 21  1  0  0  0
 21 20  2  0  0  0
 21 16  1  0  0  0
 20 19  1  0  0  0
 16 15  2  0  0  0
 19 17  2  0  0  0
 15 17  1  0  0  0
 15 23  1  0  0  0
 17 18  1  0  0  0
 24 23  1  0  0  0
 23 22  2  0  0  0
 23 25  2  0  0  0
 24 26  1  0  0  0
 24 27  1  0  0  0
  3  4  1  0  0  0
M  END
> <minimizedAffinity>
-8.73469

$$$$
3BL1_BL1_A_300


 27 29  0  0  0  0  0  0  0  0999 V2000
   -3.4781    2.4982   12.8183 C   0  0  0  0  0  0  0  0  0  0  0  0
   -3.2724    1.4116   12.2778 O   0  0  0  0  0  0  0  0  0  0  0  0
   -4.2504    2.3351   13.9085 N   0  0  0  0  0  0  0  0  0  0  0  0
   -4.4610    1.3795   14.0167 H   0  0  0  0  0  0  0  0  0  0  0  0
   -4.8639    3.0699   14.9541 N   0  0  0  0  0  0  0  0  0  0  0  0
   -5.1623    4.4899   14.7420 C   0  0  0  0  0  0  0  0  0  0  0  0
   -6.1659    4.6804   13.6107 C   0  0  0  0  0  0  0  0  0  0  0  0
   -5.3046    2.6200   16.2052 C   0  0  0  0  0  0  0  0  0  0  0  0
   -5.8502    3.6722   16.8921 C   0  0  0  0  0  0  0  0  0  0  0  0
   -5.7880    4.9457   16.0765 C   0  0  0  0  0  0  0  0  0  0  0  0
   -5.2659    1.3358   16.7589 C   0  0  0  0  0  0  0  0  0  0  0  0
   -5.7917    1.1473   18.0476 C   0  0  0  0  0  0  0  0  0  0  0  0
   -6.3440    2.2398   18.7454 C   0  0  0  0  0  0  0  0  0  0  0  0
   -6.3803    3.5266   18.1782 C   0  0  0  0  0  0  0  0  0  0  0  0
   -2.2378    4.9288   10.0545 C   0  0  0  0  0  0  0  0  0  0  0  0
   -2.8694    3.8931   10.7777 C   0  0  0  0  0  0  0  0  0  0  0  0
   -1.4431    5.7679   10.8149 C   0  0  0  0  0  0  0  0  0  0  0  0
   -0.5902    7.0827    9.9831 Cl  0  0  0  0  0  0  0  0  0  0  0  0
   -1.2815    5.5883   12.1961 C   0  0  0  0  0  0  0  0  0  0  0  0
   -1.9378    4.5655   12.8821 C   0  0  0  0  0  0  0  0  0  0  0  0
   -2.7612    3.6955   12.1806 C   0  0  0  0  0  0  0  0  0  0  0  0
   -1.1687    4.8518    7.7542 O   0  0  0  0  0  0  0  0  0  0  0  0
   -2.4074    5.1227    8.4245 S   0  0  0  0  0  0  0  0  0  0  0  0
   -3.3649    4.1272    8.0106 N   0  0  0  0  0  0  0  0  0  0  0  0
   -2.8550    6.5506    7.9004 O   0  0  0  0  0  0  0  0  0  0  0  0
   -3.0717    3.2113    8.3505 H   0  0  0  0  0  0  0  0  0  0  0  0
   -3.4192    4.1104    6.9922 H   0  0  0  0  0  0  0  0  0  0  0  0
  7  6  1  0  0  0
 10  6  1  0  0  0
 10  9  1  0  0  0
  6  5  1  0  0  0
  9 14  2  0  0  0
  9  8  1  0  0  0
 14 13  1  0  0  0
  5  8  1  0  0  0
  5  3  1  0  0  0
  8 11  2  0  0  0
  3  1  1  0  0  0
 13 12  2  0  0  0
 11 12  1  0  0  0
  2  1  2  0  0  0
  1 21  1  0  0  0
 21 20  2  0  0  0
 21 16  1  0  0  0
 20 19  1  0  0  0
 16 15  2  0  0  0
 19 17  2  0  0  0
 15 17  1  0  0  0
 15 23  1  0  0  0
 17 18  1  0  0  0
 24 23  1  0  0  0
 23 22  2  0  0  0
 23 25  2  0  0  0
 24 26  1  0  0  0
 24 27  1  0  0  0
  3  4  1  0  0  0
M  END
> <minimizedAffinity>
-8.49561

$$$$
3BL1_BL1_A_300


 27 29  0  0  0  0  0  0  0  0999 V2000
   -4.0256    4.2348   11.6771 C   0  0  0  0  0  0  0  0  0  0  0  0
   -4.6950    3.7062   10.7896 O   0  0  0  0  0  0  0  0  0  0  0  0
   -2.9786    4.8888   11.1411 N   0  0  0  0  0  0  0  0  0  0  0  0
   -3.0031    4.7928   10.1616 H   0  0  0  0  0  0  0  0  0  0  0  0
   -1.8524    5.6687   11.5059 N   0  0  0  0  0  0  0  0  0  0  0  0
   -2.0684    7.0008   12.0793 C   0  0  0  0  0  0  0  0  0  0  0  0
   -2.8185    6.9170   13.4037 C   0  0  0  0  0  0  0  0  0  0  0  0
   -0.4939    5.3312   11.4544 C   0  0  0  0  0  0  0  0  0  0  0  0
    0.2468    6.3858   11.9188 C   0  0  0  0  0  0  0  0  0  0  0  0
   -0.6438    7.5419   12.3203 C   0  0  0  0  0  0  0  0  0  0  0  0
    0.1181    4.1437   11.0387 C   0  0  0  0  0  0  0  0  0  0  0  0
    1.5187    4.0576   11.0971 C   0  0  0  0  0  0  0  0  0  0  0  0
    2.2687    5.1523   11.5709 C   0  0  0  0  0  0  0  0  0  0  0  0
    1.6430    6.3410   11.9889 C   0  0  0  0  0  0  0  0  0  0  0  0
   -4.9860    2.5331   15.0337 C   0  0  0  0  0  0  0  0  0  0  0  0
   -4.4872    2.8232   13.7447 C   0  0  0  0  0  0  0  0  0  0  0  0
   -5.6331    3.5850   15.6570 C   0  0  0  0  0  0  0  0  0  0  0  0
   -6.3145    3.3017   17.2706 Cl  0  0  0  0  0  0  0  0  0  0  0  0
   -5.7806    4.8362   15.0416 C   0  0  0  0  0  0  0  0  0  0  0  0
   -5.2566    5.0938   13.7741 C   0  0  0  0  0  0  0  0  0  0  0  0
   -4.5837    4.0850   13.0985 C   0  0  0  0  0  0  0  0  0  0  0  0
   -4.5211    0.0527   14.7662 O   0  0  0  0  0  0  0  0  0  0  0  0
   -4.8355    1.0520   15.7458 S   0  0  0  0  0  0  0  0  0  0  0  0
   -3.7135    1.1633   16.6446 N   0  0  0  0  0  0  0  0  0  0  0  0
   -6.0944    0.4833   16.5242 O   0  0  0  0  0  0  0  0  0  0  0  0
   -2.9073    1.5295   16.1383 H   0  0  0  0  0  0  0  0  0  0  0  0
   -3.4883    0.2432   17.0228 H   0  0  0  0  0  0  0  0  0  0  0  0
  7  6  1  0  0  0
 10  6  1  0  0  0
 10  9  1  0  0  0
  6  5  1  0  0  0
  9 14  2  0  0  0
  9  8  1  0  0  0
 14 13  1  0  0  0
  5  8  1  0  0  0
  5  3  1  0  0  0
  8 11  2  0  0  0
  3  1  1  0  0  0
 13 12  2  0  0  0
 11 12  1  0  0  0
  2  1  2  0  0  0
  1 21  1  0  0  0
 21 20  2  0  0  0
 21 16  1  0  0  0
 20 19  1  0  0  0
 16 15  2  0  0  0
 19 17  2  0  0  0
 15 17  1  0  0  0
 15 23  1  0  0  0
 17 18  1  0  0  0
 24 23  1  0  0  0
 23 22  2  0  0  0
 23 25  2  0  0  0
 24 26  1  0  0  0
 24 27  1  0  0  0
  3  4  1  0  0  0
M  END
> <minimizedAffinity>
-8.34774

$$$$
3BL1_BL1_A_300


 27 29  0  0  0  0  0  0  0  0999 V2000
   -4.1519    7.2166   11.9467 C   0  0  0  0  0  0  0  0  0  0  0  0
   -3.3179    8.1217   11.9724 O   0  0  0  0  0  0  0  0  0  0  0  0
   -3.7941    6.2322   12.7918 N   0  0  0  0  0  0  0  0  0  0  0  0
   -2.9499    6.4765   13.2356 H   0  0  0  0  0  0  0  0  0  0  0  0
   -4.2181    4.9634   13.2610 N   0  0  0  0  0  0  0  0  0  0  0  0
   -3.7984    3.7619   12.5327 C   0  0  0  0  0  0  0  0  0  0  0  0
   -2.2828    3.6016   12.5588 C   0  0  0  0  0  0  0  0  0  0  0  0
   -4.9693    4.6527   14.4017 C   0  0  0  0  0  0  0  0  0  0  0  0
   -5.1333    3.2945   14.4728 C   0  0  0  0  0  0  0  0  0  0  0  0
   -4.4588    2.6028   13.3078 C   0  0  0  0  0  0  0  0  0  0  0  0
   -5.4971    5.4983   15.3834 C   0  0  0  0  0  0  0  0  0  0  0  0
   -6.2135    4.9236   16.4459 C   0  0  0  0  0  0  0  0  0  0  0  0
   -6.3802    3.5255   16.5032 C   0  0  0  0  0  0  0  0  0  0  0  0
   -5.8430    2.6841   15.5121 C   0  0  0  0  0  0  0  0  0  0  0  0
   -6.2827    7.5107    8.7129 C   0  0  0  0  0  0  0  0  0  0  0  0
   -5.2544    7.2801    9.6532 C   0  0  0  0  0  0  0  0  0  0  0  0
   -7.4649    7.9884    9.2497 C   0  0  0  0  0  0  0  0  0  0  0  0
   -8.8035    8.3308    8.1367 Cl  0  0  0  0  0  0  0  0  0  0  0  0
   -7.6145    8.2265   10.6234 C   0  0  0  0  0  0  0  0  0  0  0  0
   -6.5829    7.9676   11.5268 C   0  0  0  0  0  0  0  0  0  0  0  0
   -5.3739    7.4744   11.0556 C   0  0  0  0  0  0  0  0  0  0  0  0
   -4.7077    7.1180    6.7623 O   0  0  0  0  0  0  0  0  0  0  0  0
   -6.0964    7.2557    7.0932 S   0  0  0  0  0  0  0  0  0  0  0  0
   -6.7466    5.9983    6.8187 N   0  0  0  0  0  0  0  0  0  0  0  0
   -6.6451    8.3713    6.1091 O   0  0  0  0  0  0  0  0  0  0  0  0
   -6.3896    5.2850    7.4546 H   0  0  0  0  0  0  0  0  0  0  0  0
   -6.5572    5.7207    5.8557 H   0  0  0  0  0  0  0  0  0  0  0  0
  7  6  1  0  0  0
 10  6  1  0  0  0
 10  9  1  0  0  0
  6  5  1  0  0  0
  9 14  2  0  0  0
  9  8  1  0  0  0
 14 13  1  0  0  0
  5  8  1  0  0  0
  5  3  1  0  0  0
  8 11  2  0  0  0
  3  1  1  0  0  0
 13 12  2  0  0  0
 11 12  1  0  0  0
  2  1  2  0  0  0
  1 21  1  0  0  0
 21 20  2  0  0  0
 21 16  1  0  0  0
 20 19  1  0  0  0
 16 15  2  0  0  0
 19 17  2  0  0  0
 15 17  1  0  0  0
 15 23  1  0  0  0
 17 18  1  0  0  0
 24 23  1  0  0  0
 23 22  2  0  0  0
 23 25  2  0  0  0
 24 26  1  0  0  0
 24 27  1  0  0  0
  3  4  1  0  0  0
M  END
> <minimizedAffinity>
-8.29215

$$$$
3BL1_BL1_A_300


 27 29  0  0  0  0  0  0  0  0999 V2000
   -4.2944    3.1271   12.4000 C   0  0  0  0  0  0  0  0  0  0  0  0
   -4.5634    2.2980   11.5309 O   0  0  0  0  0  0  0  0  0  0  0  0
   -5.1585    3.0202   13.4264 N   0  0  0  0  0  0  0  0  0  0  0  0
   -5.7979    2.2958   13.2379 H   0  0  0  0  0  0  0  0  0  0  0  0
   -5.4619    3.5950   14.6862 N   0  0  0  0  0  0  0  0  0  0  0  0
   -5.5763    5.0532   14.7909 C   0  0  0  0  0  0  0  0  0  0  0  0
   -6.7226    5.5801   13.9354 C   0  0  0  0  0  0  0  0  0  0  0  0
   -5.7390    2.9561   15.9015 C   0  0  0  0  0  0  0  0  0  0  0  0
   -5.9915    3.9040   16.8577 C   0  0  0  0  0  0  0  0  0  0  0  0
   -5.8829    5.2999   16.2827 C   0  0  0  0  0  0  0  0  0  0  0  0
   -5.7970    1.5909   16.2020 C   0  0  0  0  0  0  0  0  0  0  0  0
   -6.1110    1.2086   17.5164 C   0  0  0  0  0  0  0  0  0  0  0  0
   -6.3622    2.1942   18.4916 C   0  0  0  0  0  0  0  0  0  0  0  0
   -6.3038    3.5643   18.1781 C   0  0  0  0  0  0  0  0  0  0  0  0
   -1.4437    4.8562   10.4080 C   0  0  0  0  0  0  0  0  0  0  0  0
   -2.5936    4.1336   10.7955 C   0  0  0  0  0  0  0  0  0  0  0  0
   -0.7236    5.4072   11.4529 C   0  0  0  0  0  0  0  0  0  0  0  0
    0.7515    6.3109   11.0590 Cl  0  0  0  0  0  0  0  0  0  0  0  0
   -1.1141    5.2472   12.7900 C   0  0  0  0  0  0  0  0  0  0  0  0
   -2.2686    4.5434   13.1353 C   0  0  0  0  0  0  0  0  0  0  0  0
   -3.0445    3.9761   12.1337 C   0  0  0  0  0  0  0  0  0  0  0  0
   -1.8110    4.2418    7.9733 O   0  0  0  0  0  0  0  0  0  0  0  0
   -0.9705    5.0208    8.8356 S   0  0  0  0  0  0  0  0  0  0  0  0
   -1.1679    6.4120    8.5122 N   0  0  0  0  0  0  0  0  0  0  0  0
    0.5099    4.5876    8.4680 O   0  0  0  0  0  0  0  0  0  0  0  0
   -2.1214    6.6846    8.7507 H   0  0  0  0  0  0  0  0  0  0  0  0
   -1.0132    6.5543    7.5141 H   0  0  0  0  0  0  0  0  0  0  0  0
  7  6  1  0  0  0
 10  6  1  0  0  0
 10  9  1  0  0  0
  6  5  1  0  0  0
  9 14  2  0  0  0
  9  8  1  0  0  0
 14 13  1  0  0  0
  5  8  1  0  0  0
  5  3  1  0  0  0
  8 11  2  0  0  0
  3  1  1  0  0  0
 13 12  2  0  0  0
 11 12  1  0  0  0
  2  1  2  0  0  0
  1 21  1  0  0  0
 21 20  2  0  0  0
 21 16  1  0  0  0
 20 19  1  0  0  0
 16 15  2  0  0  0
 19 17  2  0  0  0
 15 17  1  0  0  0
 15 23  1  0  0  0
 17 18  1  0  0  0
 24 23  1  0  0  0
 23 22  2  0  0  0
 23 25  2  0  0  0
 24 26  1  0  0  0
 24 27  1  0  0  0
  3  4  1  0  0  0
M  END
> <minimizedAffinity>
-8.25324

$$$$
