1HI5_ADP_A_999
  RCSB PDB12061702433D
Coordinates from PDB:1HI5:A:999 Model:1 without hydrogens
 27 29  0  0  0  0            999 V2000
   14.5960   14.3740    9.6300   P 0  0  0  0  0  0  0  0  0  0  0  0
   14.6160   15.7120   10.3480   O 0  0  0  0  0  0  0  0  0  0  0  0
   15.9180   13.6710    9.8600   O 0  0  0  0  0  0  0  0  0  0  0  0
   13.4440   13.5430   10.1630   O 0  0  0  0  0  0  0  0  0  0  0  0
   14.0640   13.7200    6.9350   P 0  0  0  0  0  0  0  0  0  0  0  0
   14.3700   12.2490    7.1720   O 0  0  0  0  0  0  0  0  0  0  0  0
   14.7240   14.2520    5.6760   O 0  0  0  0  0  0  0  0  0  0  0  0
   14.3660   14.6040    8.1450   O 0  0  0  0  0  0  0  0  0  0  0  0
   12.4560   13.8060    6.6750   O 0  0  0  0  0  0  0  0  0  0  0  0
   11.7700   15.0780    6.6220   C 0  0  0  0  0  0  0  0  0  0  0  0
   10.8650   15.1420    5.4060   C 0  0  0  0  0  0  0  0  0  0  0  0
   11.6710   15.0110    4.2000   O 0  0  0  0  0  0  0  0  0  0  0  0
    9.7830   14.0650    5.3210   C 0  0  0  0  0  0  0  0  0  0  0  0
    8.5770   14.5770    4.7480   O 0  0  0  0  0  0  0  0  0  0  0  0
   10.4100   13.0240    4.4010   C 0  0  0  0  0  0  0  0  0  0  0  0
    9.4310   12.2580    3.7220   O 0  0  0  0  0  0  0  0  0  0  0  0
   11.2220   13.9010    3.4400   C 0  0  0  0  0  0  0  0  0  0  0  0
   12.4050   13.2350    2.8770   N 0  0  0  0  0  0  0  0  0  0  0  0
   13.2570   12.3640    3.5270   C 0  0  0  0  0  0  0  0  0  0  0  0
   14.2390   11.9160    2.7740   N 0  0  0  0  0  0  0  0  0  0  0  0
   14.0280   12.5310    1.5490   C 0  0  0  0  0  0  0  0  0  0  0  0
   14.7330   12.4720    0.3190   C 0  0  0  0  0  0  0  0  0  0  0  0
   15.8320   11.7350    0.1370   N 0  0  0  0  0  0  0  0  0  0  0  0
   14.2580   13.2090   -0.7250   N 0  0  0  0  0  0  0  0  0  0  0  0
   13.1460   13.9570   -0.5360   C 0  0  0  0  0  0  0  0  0  0  0  0
   12.3970   14.0920    0.5780   N 0  0  0  0  0  0  0  0  0  0  0  0
   12.8960   13.3480    1.5930   C 0  0  0  0  0  0  0  0  0  0  0  0
  1  2  2  0  0  0  0
  1  3  1  0  0  0  0
  1  4  1  0  0  0  0
  1  8  1  0  0  0  0
  5  6  2  0  0  0  0
  5  7  1  0  0  0  0
  5  8  1  0  0  0  0
  5  9  1  0  0  0  0
  9 10  1  0  0  0  0
 10 11  1  0  0  0  0
 11 12  1  0  0  0  0
 11 13  1  0  0  0  0
 12 17  1  0  0  0  0
 13 14  1  0  0  0  0
 13 15  1  0  0  0  0
 15 16  1  0  0  0  0
 15 17  1  0  0  0  0
 17 18  1  0  0  0  0
 18 19  1  0  0  0  0
 18 27  1  0  0  0  0
 19 20  2  0  0  0  0
 20 21  1  0  0  0  0
 21 22  1  0  0  0  0
 21 27  2  0  0  0  0
 22 23  1  0  0  0  0
 22 24  2  0  0  0  0
 24 25  1  0  0  0  0
 25 26  2  0  0  0  0
 26 27  1  0  0  0  0
A    1
PB
A    2
O1B
A    3
O2B
A    4
O3B
A    5
PA
A    6
O1A
A    7
O2A
A    8
O3A
A    9
O5'
A   10
C5'
A   11
C4'
A   12
O4'
A   13
C3'
A   14
O3'
A   15
C2'
A   16
O2'
A   17
C1'
A   18
N9
A   19
C8
A   20
N7
A   21
C5
A   22
C6
A   23
N6
A   24
N1
A   25
C2
A   26
N3
A   27
C4
M  END
>  <InstanceId>
1HI5_ADP_A_999

>  <ChemCompId>
ADP

>  <PdbId>
1HI5

>  <ChainId>
A

>  <ResidueNumber>
999

>  <InsertionCode>


>  <Model>
1

>  <AltIds>


>  <MissingHeavyAtoms>
0

>  <ObservedFormula>
C10 N5 O10 P2

>  <Name>
ADENOSINE-5'-DIPHOSPHATE

>  <SystematicName>
[(2R,3S,4R,5R)-5-(6-aminopurin-9-yl)-3,4-dihydroxy-oxolan-2-yl]methyl phosphono hydrogen phosphate

>  <Synonyms>


>  <Type>
NON-POLYMER

>  <Formula>
C10 H15 N5 O10 P2

>  <MolecularWeight>
427.201

>  <ModifiedDate>
2011-06-04

>  <Parent>
A

>  <OneLetterCode>


>  <SubcomponentList>


>  <AmbiguousFlag>
N

>  <InChI>
InChI=1S/C10H15N5O10P2/c11-8-5-9(13-2-12-8)15(3-14-5)10-7(17)6(16)4(24-10)1-23-27(21,22)25-26(18,19)20/h2-4,6-7,10,16-17H,1H2,(H,21,22)(H2,11,12,13)(H2,18,19,20)/t4-,6-,7-,10-/m1/s1

>  <InChIKey>
XTWYTFMLZFPYCI-KQYNXXCUSA-N

>  <SMILES>
c1nc(c2c(n1)n(cn2)[C@H]3[C@@H]([C@@H]([C@H](O3)CO[P@](=O)(O)OP(=O)(O)O)O)O)N

$$$$
