5OH2_BAQ_A_202


  7  7  0  0  0  0  0  0  0  0999 V2000
   21.5597   16.2257   -7.6318 O   0  0  0  0  0  0  0  0  0  0  0  0
   22.5617   16.9308   -7.6812 C   0  0  0  0  0  0  0  0  0  0  0  0
   22.8130   18.1165   -6.7858 C   0  0  0  0  0  0  0  0  0  0  0  0
   24.2876   18.4454   -7.0610 C   0  0  0  0  0  0  0  0  0  0  0  0
   24.7339   17.6243   -8.2748 C   0  0  0  0  0  0  0  0  0  0  0  0
   23.6036   16.7430   -8.4815 N   0  0  0  0  0  0  0  0  0  0  0  0
   23.6078   16.0449   -9.1756 H   0  0  0  0  0  0  0  0  0  0  0  0
  3  4  1  0  0  0
  3  2  1  0  0  0
  4  5  1  0  0  0
  5  6  1  0  0  0
  2  1  2  0  0  0
  2  6  1  0  0  0
  6  7  1  0  0  0
M  END
> <minimizedAffinity>
-5.04546

$$$$
5OH2_BAQ_A_202


  7  7  0  0  0  0  0  0  0  0999 V2000
   22.1984   17.6692   -6.6941 O   0  0  0  0  0  0  0  0  0  0  0  0
   23.2456   17.7996   -7.3187 C   0  0  0  0  0  0  0  0  0  0  0  0
   24.1565   18.9953   -7.2125 C   0  0  0  0  0  0  0  0  0  0  0  0
   25.4193   18.5289   -7.9517 C   0  0  0  0  0  0  0  0  0  0  0  0
   25.0868   17.2163   -8.6682 C   0  0  0  0  0  0  0  0  0  0  0  0
   23.7750   16.9027   -8.1412 N   0  0  0  0  0  0  0  0  0  0  0  0
   23.3032   16.0721   -8.3792 H   0  0  0  0  0  0  0  0  0  0  0  0
  3  4  1  0  0  0
  3  2  1  0  0  0
  4  5  1  0  0  0
  5  6  1  0  0  0
  2  1  2  0  0  0
  2  6  1  0  0  0
  6  7  1  0  0  0
M  END
> <minimizedAffinity>
-4.51066

$$$$
5OH2_BAQ_A_202


  7  7  0  0  0  0  0  0  0  0999 V2000
   25.7509   18.7770   -9.5982 O   0  0  0  0  0  0  0  0  0  0  0  0
   24.9287   18.3598   -8.7898 C   0  0  0  0  0  0  0  0  0  0  0  0
   24.6155   19.0248   -7.4743 C   0  0  0  0  0  0  0  0  0  0  0  0
   23.3541   18.2828   -7.0087 C   0  0  0  0  0  0  0  0  0  0  0  0
   23.1577   17.0696   -7.9233 C   0  0  0  0  0  0  0  0  0  0  0  0
   24.1482   17.2992   -8.9545 N   0  0  0  0  0  0  0  0  0  0  0  0
   24.2375   16.7028   -9.7327 H   0  0  0  0  0  0  0  0  0  0  0  0
  3  4  1  0  0  0
  3  2  1  0  0  0
  4  5  1  0  0  0
  5  6  1  0  0  0
  2  1  2  0  0  0
  2  6  1  0  0  0
  6  7  1  0  0  0
M  END
> <minimizedAffinity>
-4.47889

$$$$
5OH2_BAQ_A_202


  7  7  0  0  0  0  0  0  0  0999 V2000
   24.8387   20.3784   -7.0368 O   0  0  0  0  0  0  0  0  0  0  0  0
   24.7001   19.2183   -7.4092 C   0  0  0  0  0  0  0  0  0  0  0  0
   23.4951   18.3657   -7.1065 C   0  0  0  0  0  0  0  0  0  0  0  0
   23.6985   17.1500   -8.0226 C   0  0  0  0  0  0  0  0  0  0  0  0
   25.1158   17.2275   -8.5989 C   0  0  0  0  0  0  0  0  0  0  0  0
   25.5482   18.5427   -8.1743 N   0  0  0  0  0  0  0  0  0  0  0  0
   26.4210   18.9142   -8.4380 H   0  0  0  0  0  0  0  0  0  0  0  0
  3  4  1  0  0  0
  3  2  1  0  0  0
  4  5  1  0  0  0
  5  6  1  0  0  0
  2  1  2  0  0  0
  2  6  1  0  0  0
  6  7  1  0  0  0
M  END
> <minimizedAffinity>
-4.31900

$$$$
5OH2_BAQ_A_202


  7  7  0  0  0  0  0  0  0  0999 V2000
   22.3447   18.0184   -6.3914 O   0  0  0  0  0  0  0  0  0  0  0  0
   23.3189   18.1181   -7.1294 C   0  0  0  0  0  0  0  0  0  0  0  0
   23.7194   17.0882   -8.1539 C   0  0  0  0  0  0  0  0  0  0  0  0
   24.7940   17.8200   -8.9713 C   0  0  0  0  0  0  0  0  0  0  0  0
   25.1496   19.1126   -8.2299 C   0  0  0  0  0  0  0  0  0  0  0  0
   24.1435   19.1562   -7.1894 N   0  0  0  0  0  0  0  0  0  0  0  0
   24.0751   19.9124   -6.5626 H   0  0  0  0  0  0  0  0  0  0  0  0
  3  4  1  0  0  0
  3  2  1  0  0  0
  4  5  1  0  0  0
  5  6  1  0  0  0
  2  1  2  0  0  0
  2  6  1  0  0  0
  6  7  1  0  0  0
M  END
> <minimizedAffinity>
-4.29954

$$$$
5OH2_BAQ_A_202


  7  7  0  0  0  0  0  0  0  0999 V2000
   26.0314   16.5094   -9.0367 O   0  0  0  0  0  0  0  0  0  0  0  0
   25.3311   17.3635   -8.5040 C   0  0  0  0  0  0  0  0  0  0  0  0
   23.9151   17.1358   -8.0416 C   0  0  0  0  0  0  0  0  0  0  0  0
   23.6202   18.3947   -7.2130 C   0  0  0  0  0  0  0  0  0  0  0  0
   24.7572   19.3929   -7.4534 C   0  0  0  0  0  0  0  0  0  0  0  0
   25.7104   18.5982   -8.1996 N   0  0  0  0  0  0  0  0  0  0  0  0
   26.5891   18.9535   -8.4658 H   0  0  0  0  0  0  0  0  0  0  0  0
  3  4  1  0  0  0
  3  2  1  0  0  0
  4  5  1  0  0  0
  5  6  1  0  0  0
  2  1  2  0  0  0
  2  6  1  0  0  0
  6  7  1  0  0  0
M  END
> <minimizedAffinity>
-4.07881

$$$$
5OH2_BAQ_A_202


  7  7  0  0  0  0  0  0  0  0999 V2000
   26.1917   16.3097   -9.1423 O   0  0  0  0  0  0  0  0  0  0  0  0
   25.3803   16.9569   -8.4892 C   0  0  0  0  0  0  0  0  0  0  0  0
   25.6946   18.2502   -7.7826 C   0  0  0  0  0  0  0  0  0  0  0  0
   24.3047   18.7670   -7.3828 C   0  0  0  0  0  0  0  0  0  0  0  0
   23.2952   17.6421   -7.6323 C   0  0  0  0  0  0  0  0  0  0  0  0
   24.0950   16.6631   -8.3386 N   0  0  0  0  0  0  0  0  0  0  0  0
   23.7075   15.8278   -8.6869 H   0  0  0  0  0  0  0  0  0  0  0  0
  3  4  1  0  0  0
  3  2  1  0  0  0
  4  5  1  0  0  0
  5  6  1  0  0  0
  2  1  2  0  0  0
  2  6  1  0  0  0
  6  7  1  0  0  0
M  END
> <minimizedAffinity>
-4.02934

$$$$
5OH2_BAQ_A_202


  7  7  0  0  0  0  0  0  0  0999 V2000
   24.1004   17.9230   -9.3724 O   0  0  0  0  0  0  0  0  0  0  0  0
   24.9092   18.4492   -8.6156 C   0  0  0  0  0  0  0  0  0  0  0  0
   24.7361   18.5503   -7.1220 C   0  0  0  0  0  0  0  0  0  0  0  0
   26.1209   19.0164   -6.6490 C   0  0  0  0  0  0  0  0  0  0  0  0
   26.9311   19.4145   -7.8866 C   0  0  0  0  0  0  0  0  0  0  0  0
   26.0804   18.9640   -8.9684 N   0  0  0  0  0  0  0  0  0  0  0  0
   26.3550   19.0354   -9.9111 H   0  0  0  0  0  0  0  0  0  0  0  0
  3  4  1  0  0  0
  3  2  1  0  0  0
  4  5  1  0  0  0
  5  6  1  0  0  0
  2  1  2  0  0  0
  2  6  1  0  0  0
  6  7  1  0  0  0
M  END
> <minimizedAffinity>
-3.48628

$$$$
5OH2_BAQ_A_202


  7  7  0  0  0  0  0  0  0  0999 V2000
   26.9710   19.4780   -7.9114 O   0  0  0  0  0  0  0  0  0  0  0  0
   25.8899   18.8997   -7.9325 C   0  0  0  0  0  0  0  0  0  0  0  0
   25.6546   17.5585   -8.5781 C   0  0  0  0  0  0  0  0  0  0  0  0
   24.2540   17.1789   -8.0754 C   0  0  0  0  0  0  0  0  0  0  0  0
   23.6479   18.4115   -7.3970 C   0  0  0  0  0  0  0  0  0  0  0  0
   24.7726   19.3226   -7.3545 N   0  0  0  0  0  0  0  0  0  0  0  0
   24.7120   20.2048   -6.9218 H   0  0  0  0  0  0  0  0  0  0  0  0
  3  4  1  0  0  0
  3  2  1  0  0  0
  4  5  1  0  0  0
  5  6  1  0  0  0
  2  1  2  0  0  0
  2  6  1  0  0  0
  6  7  1  0  0  0
M  END
> <minimizedAffinity>
-3.45383

$$$$
5OH2_BAQ_A_202


  7  7  0  0  0  0  0  0  0  0999 V2000
   23.6094   17.0444   -7.9128 O   0  0  0  0  0  0  0  0  0  0  0  0
   24.5217   17.8460   -8.0823 C   0  0  0  0  0  0  0  0  0  0  0  0
   24.5830   19.2120   -7.4490 C   0  0  0  0  0  0  0  0  0  0  0  0
   26.0204   19.6624   -7.7478 C   0  0  0  0  0  0  0  0  0  0  0  0
   26.6242   18.6737   -8.7502 C   0  0  0  0  0  0  0  0  0  0  0  0
   25.6190   17.6324   -8.7975 N   0  0  0  0  0  0  0  0  0  0  0  0
   25.7425   16.8132   -9.3295 H   0  0  0  0  0  0  0  0  0  0  0  0
  3  4  1  0  0  0
  3  2  1  0  0  0
  4  5  1  0  0  0
  5  6  1  0  0  0
  2  1  2  0  0  0
  2  6  1  0  0  0
  6  7  1  0  0  0
M  END
> <minimizedAffinity>
-3.38896

$$$$
