3RLP_3RP_A_901


 20 21  0  0  0  0  0  0  0  0999 V2000
   13.8350   -1.2830   51.7670 C   0  0  0  0  0  0  0  0  0  0  0  0
   12.5783   -1.1858   51.0811 C   0  0  0  0  0  0  0  0  0  0  0  0
   11.3598   -1.1802   51.8139 C   0  0  0  0  0  0  0  0  0  0  0  0
   12.6055   -1.3418   53.9581 C   0  0  0  0  0  0  0  0  0  0  0  0
   13.8241   -1.3547   53.2020 C   0  0  0  0  0  0  0  0  0  0  0  0
   11.3715   -1.2610   53.2372 C   0  0  0  0  0  0  0  0  0  0  0  0
   12.4817   -1.0795   49.3383 Cl  0  0  0  0  0  0  0  0  0  0  0  0
    9.8420   -1.2615   54.0565 Cl  0  0  0  0  0  0  0  0  0  0  0  0
   17.4886   -1.3720   49.6632 N   0  0  0  0  0  0  0  0  0  0  0  0
   17.3711    0.9866   49.4174 N   0  0  0  0  0  0  0  0  0  0  0  0
   16.9422   -2.5319   50.1380 C   0  0  0  0  0  0  0  0  0  0  0  0
   17.6794   -3.8160   49.8729 C   0  0  0  0  0  0  0  0  0  0  0  0
   15.7490   -2.5629   50.8413 C   0  0  0  0  0  0  0  0  0  0  0  0
   15.1165   -1.3259   51.0480 C   0  0  0  0  0  0  0  0  0  0  0  0
   16.8191   -0.1944   49.8997 C   0  0  0  0  0  0  0  0  0  0  0  0
   15.6325   -0.1402   50.5876 N   0  0  0  0  0  0  0  0  0  0  0  0
   18.2216    0.9661   48.9219 H   0  0  0  0  0  0  0  0  0  0  0  0
   16.9117    1.8436   49.5713 H   0  0  0  0  0  0  0  0  0  0  0  0
   13.6485   -1.0614   56.1553 C   0  0  0  0  0  0  0  0  0  0  0  0
   12.5137   -1.4054   55.3464 O   0  0  0  0  0  0  0  0  0  0  0  0
  9 15  2  0  0  0
  9 11  1  0  0  0
 10 15  1  0  0  0
 12 11  1  0  0  0
 11 13  2  0  0  0
  2  1  2  0  0  0
 14  1  1  0  0  0
  1  5  1  0  0  0
  7  2  1  0  0  0
  2  3  1  0  0  0
  3  6  2  0  0  0
  6  4  1  0  0  0
  5  4  2  0  0  0
  4 20  1  0  0  0
 13 14  1  0  0  0
  6  8  1  0  0  0
 16 14  2  0  0  0
 15 16  1  0  0  0
 20 19  1  0  0  0
 10 17  1  0  0  0
 10 18  1  0  0  0
M  END
> <minimizedAffinity>
-7.72108

$$$$
3RLP_3RP_A_901


 20 21  0  0  0  0  0  0  0  0999 V2000
   13.7198   -1.0525   51.7257 C   0  0  0  0  0  0  0  0  0  0  0  0
   12.3959   -1.1162   51.1758 C   0  0  0  0  0  0  0  0  0  0  0  0
   11.2758   -1.3287   52.0254 C   0  0  0  0  0  0  0  0  0  0  0  0
   12.7554   -1.3963   54.0209 C   0  0  0  0  0  0  0  0  0  0  0  0
   13.8742   -1.1899   53.1475 C   0  0  0  0  0  0  0  0  0  0  0  0
   11.4524   -1.4711   53.4329 C   0  0  0  0  0  0  0  0  0  0  0  0
   12.0976   -0.9470   49.4610 Cl  0  0  0  0  0  0  0  0  0  0  0  0
   10.0367   -1.7408   54.3992 Cl  0  0  0  0  0  0  0  0  0  0  0  0
   17.1622   -0.5526   49.3418 N   0  0  0  0  0  0  0  0  0  0  0  0
   17.6278   -2.8686   49.5796 N   0  0  0  0  0  0  0  0  0  0  0  0
   16.3567    0.5176   49.6162 C   0  0  0  0  0  0  0  0  0  0  0  0
   16.7496    1.8556   49.0525 C   0  0  0  0  0  0  0  0  0  0  0  0
   15.2104    0.4120   50.3871 C   0  0  0  0  0  0  0  0  0  0  0  0
   14.9088   -0.8679   50.8812 C   0  0  0  0  0  0  0  0  0  0  0  0
   16.8105   -1.7787   49.8557 C   0  0  0  0  0  0  0  0  0  0  0  0
   15.6916   -1.9666   50.6281 N   0  0  0  0  0  0  0  0  0  0  0  0
   18.4343   -2.7517   49.0272 H   0  0  0  0  0  0  0  0  0  0  0  0
   17.4001   -3.7574   49.9364 H   0  0  0  0  0  0  0  0  0  0  0  0
   13.4704   -0.5267   56.1949 C   0  0  0  0  0  0  0  0  0  0  0  0
   12.8240   -1.5359   55.4049 O   0  0  0  0  0  0  0  0  0  0  0  0
  9 15  2  0  0  0
  9 11  1  0  0  0
 10 15  1  0  0  0
 12 11  1  0  0  0
 11 13  2  0  0  0
  2  1  2  0  0  0
 14  1  1  0  0  0
  1  5  1  0  0  0
  7  2  1  0  0  0
  2  3  1  0  0  0
  3  6  2  0  0  0
  6  4  1  0  0  0
  5  4  2  0  0  0
  4 20  1  0  0  0
 13 14  1  0  0  0
  6  8  1  0  0  0
 16 14  2  0  0  0
 15 16  1  0  0  0
 20 19  1  0  0  0
 10 17  1  0  0  0
 10 18  1  0  0  0
M  END
> <minimizedAffinity>
-7.20987

$$$$
3RLP_3RP_A_901


 20 21  0  0  0  0  0  0  0  0999 V2000
   16.8888   -2.3214   51.9750 C   0  0  0  0  0  0  0  0  0  0  0  0
   17.4274   -3.5900   51.5755 C   0  0  0  0  0  0  0  0  0  0  0  0
   18.0462   -4.4401   52.5327 C   0  0  0  0  0  0  0  0  0  0  0  0
   17.5895   -2.7977   54.3410 C   0  0  0  0  0  0  0  0  0  0  0  0
   16.9767   -1.9497   53.3601 C   0  0  0  0  0  0  0  0  0  0  0  0
   18.1304   -4.0478   53.9008 C   0  0  0  0  0  0  0  0  0  0  0  0
   17.3593   -4.1430   49.9180 Cl  0  0  0  0  0  0  0  0  0  0  0  0
   18.9122   -5.1353   55.0039 Cl  0  0  0  0  0  0  0  0  0  0  0  0
   15.1364    0.3752   49.2473 N   0  0  0  0  0  0  0  0  0  0  0  0
   17.1897    1.5631   49.1473 N   0  0  0  0  0  0  0  0  0  0  0  0
   14.4055   -0.6665   49.7472 C   0  0  0  0  0  0  0  0  0  0  0  0
   12.9753   -0.7996   49.3007 C   0  0  0  0  0  0  0  0  0  0  0  0
   14.9299   -1.5869   50.6402 C   0  0  0  0  0  0  0  0  0  0  0  0
   16.2707   -1.3970   51.0135 C   0  0  0  0  0  0  0  0  0  0  0  0
   16.4440    0.5046   49.6528 C   0  0  0  0  0  0  0  0  0  0  0  0
   17.0374   -0.3644   50.5340 N   0  0  0  0  0  0  0  0  0  0  0  0
   16.7798    2.1959   48.5142 H   0  0  0  0  0  0  0  0  0  0  0  0
   18.1277    1.6801   49.4223 H   0  0  0  0  0  0  0  0  0  0  0  0
   16.7723   -1.6243   56.3283 C   0  0  0  0  0  0  0  0  0  0  0  0
   17.7105   -2.5092   55.6982 O   0  0  0  0  0  0  0  0  0  0  0  0
  9 15  2  0  0  0
  9 11  1  0  0  0
 10 15  1  0  0  0
 12 11  1  0  0  0
 11 13  2  0  0  0
  2  1  2  0  0  0
 14  1  1  0  0  0
  1  5  1  0  0  0
  7  2  1  0  0  0
  2  3  1  0  0  0
  3  6  2  0  0  0
  6  4  1  0  0  0
  5  4  2  0  0  0
  4 20  1  0  0  0
 13 14  1  0  0  0
  6  8  1  0  0  0
 16 14  2  0  0  0
 15 16  1  0  0  0
 20 19  1  0  0  0
 10 17  1  0  0  0
 10 18  1  0  0  0
M  END
> <minimizedAffinity>
-7.18240

$$$$
3RLP_3RP_A_901


 20 21  0  0  0  0  0  0  0  0999 V2000
   14.2826   -2.3332   52.6391 C   0  0  0  0  0  0  0  0  0  0  0  0
   14.7160   -3.6815   52.8703 C   0  0  0  0  0  0  0  0  0  0  0  0
   15.7219   -4.2622   52.0501 C   0  0  0  0  0  0  0  0  0  0  0  0
   15.9252   -2.1571   50.7452 C   0  0  0  0  0  0  0  0  0  0  0  0
   14.9033   -1.5908   51.5770 C   0  0  0  0  0  0  0  0  0  0  0  0
   16.3185   -3.5104   50.9960 C   0  0  0  0  0  0  0  0  0  0  0  0
   14.0354   -4.6659   54.1453 Cl  0  0  0  0  0  0  0  0  0  0  0  0
   17.5293   -4.2952   50.0322 Cl  0  0  0  0  0  0  0  0  0  0  0  0
   11.2672   -0.5508   54.9870 N   0  0  0  0  0  0  0  0  0  0  0  0
   12.9427    0.3174   56.4279 N   0  0  0  0  0  0  0  0  0  0  0  0
   10.9333   -1.2762   53.8773 C   0  0  0  0  0  0  0  0  0  0  0  0
    9.4735   -1.4181   53.5435 C   0  0  0  0  0  0  0  0  0  0  0  0
   11.8806   -1.8782   53.0650 C   0  0  0  0  0  0  0  0  0  0  0  0
   13.2228   -1.7046   53.4408 C   0  0  0  0  0  0  0  0  0  0  0  0
   12.5997   -0.4186   55.2998 C   0  0  0  0  0  0  0  0  0  0  0  0
   13.5986   -0.9839   54.5469 N   0  0  0  0  0  0  0  0  0  0  0  0
   12.2390    0.7297   56.9793 H   0  0  0  0  0  0  0  0  0  0  0  0
   13.8893    0.4263   56.6756 H   0  0  0  0  0  0  0  0  0  0  0  0
   17.3389   -0.3169   49.9648 C   0  0  0  0  0  0  0  0  0  0  0  0
   16.5739   -1.5024   49.7010 O   0  0  0  0  0  0  0  0  0  0  0  0
  9 15  2  0  0  0
  9 11  1  0  0  0
 10 15  1  0  0  0
 12 11  1  0  0  0
 11 13  2  0  0  0
  2  1  2  0  0  0
 14  1  1  0  0  0
  1  5  1  0  0  0
  7  2  1  0  0  0
  2  3  1  0  0  0
  3  6  2  0  0  0
  6  4  1  0  0  0
  5  4  2  0  0  0
  4 20  1  0  0  0
 13 14  1  0  0  0
  6  8  1  0  0  0
 16 14  2  0  0  0
 15 16  1  0  0  0
 20 19  1  0  0  0
 10 17  1  0  0  0
 10 18  1  0  0  0
M  END
> <minimizedAffinity>
-6.94287

$$$$
3RLP_3RP_A_901


 20 21  0  0  0  0  0  0  0  0999 V2000
   14.2615   -2.2413   52.4576 C   0  0  0  0  0  0  0  0  0  0  0  0
   14.7745   -1.5634   51.3016 C   0  0  0  0  0  0  0  0  0  0  0  0
   15.8144   -2.1495   50.5290 C   0  0  0  0  0  0  0  0  0  0  0  0
   15.8553   -4.1351   52.0228 C   0  0  0  0  0  0  0  0  0  0  0  0
   14.8123   -3.5247   52.7951 C   0  0  0  0  0  0  0  0  0  0  0  0
   16.3527   -3.4202   50.8867 C   0  0  0  0  0  0  0  0  0  0  0  0
   14.1638   -0.0045   50.7966 Cl  0  0  0  0  0  0  0  0  0  0  0  0
   17.6284   -4.0611   49.9006 Cl  0  0  0  0  0  0  0  0  0  0  0  0
   11.2732   -0.5888   54.9318 N   0  0  0  0  0  0  0  0  0  0  0  0
   12.9669    0.2423   56.3732 N   0  0  0  0  0  0  0  0  0  0  0  0
   10.9256   -1.2742   53.8010 C   0  0  0  0  0  0  0  0  0  0  0  0
    9.4611   -1.4205   53.4901 C   0  0  0  0  0  0  0  0  0  0  0  0
   11.8633   -1.8324   52.9474 C   0  0  0  0  0  0  0  0  0  0  0  0
   13.2107   -1.6574   53.3037 C   0  0  0  0  0  0  0  0  0  0  0  0
   12.6100   -0.4530   55.2237 C   0  0  0  0  0  0  0  0  0  0  0  0
   13.6001   -0.9762   54.4300 N   0  0  0  0  0  0  0  0  0  0  0  0
   12.2697    0.6241   56.9539 H   0  0  0  0  0  0  0  0  0  0  0  0
   13.9169    0.3529   56.6066 H   0  0  0  0  0  0  0  0  0  0  0  0
   15.6543   -6.4216   52.8746 C   0  0  0  0  0  0  0  0  0  0  0  0
   16.4370   -5.3733   52.2842 O   0  0  0  0  0  0  0  0  0  0  0  0
  9 15  2  0  0  0
  9 11  1  0  0  0
 10 15  1  0  0  0
 12 11  1  0  0  0
 11 13  2  0  0  0
  2  1  2  0  0  0
 14  1  1  0  0  0
  1  5  1  0  0  0
  7  2  1  0  0  0
  2  3  1  0  0  0
  3  6  2  0  0  0
  6  4  1  0  0  0
  5  4  2  0  0  0
  4 20  1  0  0  0
 13 14  1  0  0  0
  6  8  1  0  0  0
 16 14  2  0  0  0
 15 16  1  0  0  0
 20 19  1  0  0  0
 10 17  1  0  0  0
 10 18  1  0  0  0
M  END
> <minimizedAffinity>
-6.82305

$$$$
3RLP_3RP_A_901


 20 21  0  0  0  0  0  0  0  0999 V2000
   16.5826   -3.0801   52.1560 C   0  0  0  0  0  0  0  0  0  0  0  0
   16.8866   -2.8296   53.5358 C   0  0  0  0  0  0  0  0  0  0  0  0
   17.3286   -3.8877   54.3765 C   0  0  0  0  0  0  0  0  0  0  0  0
   17.2078   -5.4923   52.4827 C   0  0  0  0  0  0  0  0  0  0  0  0
   16.7549   -4.4145   51.6519 C   0  0  0  0  0  0  0  0  0  0  0  0
   17.4845   -5.2064   53.8578 C   0  0  0  0  0  0  0  0  0  0  0  0
   16.7241   -1.2393   54.2447 Cl  0  0  0  0  0  0  0  0  0  0  0  0
   18.0155   -6.4446   54.9513 Cl  0  0  0  0  0  0  0  0  0  0  0  0
   15.2009   -0.0100   49.6168 N   0  0  0  0  0  0  0  0  0  0  0  0
   17.4091    0.8557   49.5098 N   0  0  0  0  0  0  0  0  0  0  0  0
   14.3308   -0.9532   50.0888 C   0  0  0  0  0  0  0  0  0  0  0  0
   12.8870   -0.8439   49.6812 C   0  0  0  0  0  0  0  0  0  0  0  0
   14.7287   -1.9878   50.9198 C   0  0  0  0  0  0  0  0  0  0  0  0
   16.0911   -2.0237   51.2597 C   0  0  0  0  0  0  0  0  0  0  0  0
   16.5220   -0.1021   49.9870 C   0  0  0  0  0  0  0  0  0  0  0  0
   16.9957   -1.0960   50.8066 N   0  0  0  0  0  0  0  0  0  0  0  0
   17.0863    1.5756   48.9209 H   0  0  0  0  0  0  0  0  0  0  0  0
   18.3602    0.8142   49.7607 H   0  0  0  0  0  0  0  0  0  0  0  0
   16.3601   -7.7779   52.2569 C   0  0  0  0  0  0  0  0  0  0  0  0
   17.4010   -6.8078   52.0680 O   0  0  0  0  0  0  0  0  0  0  0  0
  9 15  2  0  0  0
  9 11  1  0  0  0
 10 15  1  0  0  0
 12 11  1  0  0  0
 11 13  2  0  0  0
  2  1  2  0  0  0
 14  1  1  0  0  0
  1  5  1  0  0  0
  7  2  1  0  0  0
  2  3  1  0  0  0
  3  6  2  0  0  0
  6  4  1  0  0  0
  5  4  2  0  0  0
  4 20  1  0  0  0
 13 14  1  0  0  0
  6  8  1  0  0  0
 16 14  2  0  0  0
 15 16  1  0  0  0
 20 19  1  0  0  0
 10 17  1  0  0  0
 10 18  1  0  0  0
M  END
> <minimizedAffinity>
-6.51937

$$$$
3RLP_3RP_A_901


 20 21  0  0  0  0  0  0  0  0999 V2000
   13.1855   -1.3682   53.1228 C   0  0  0  0  0  0  0  0  0  0  0  0
   11.9229   -1.3117   52.4434 C   0  0  0  0  0  0  0  0  0  0  0  0
   11.8722   -1.0760   51.0421 C   0  0  0  0  0  0  0  0  0  0  0  0
   14.3527   -0.9697   50.9330 C   0  0  0  0  0  0  0  0  0  0  0  0
   14.3840   -1.1997   52.3483 C   0  0  0  0  0  0  0  0  0  0  0  0
   13.0734   -0.9030   50.2940 C   0  0  0  0  0  0  0  0  0  0  0  0
   10.4069   -1.5179   53.2904 Cl  0  0  0  0  0  0  0  0  0  0  0  0
   12.9260   -0.6065   48.5908 Cl  0  0  0  0  0  0  0  0  0  0  0  0
   13.5136   -1.9318   57.2890 N   0  0  0  0  0  0  0  0  0  0  0  0
   13.8416    0.4051   57.5501 N   0  0  0  0  0  0  0  0  0  0  0  0
   13.2921   -3.0021   56.4675 C   0  0  0  0  0  0  0  0  0  0  0  0
   13.1845   -4.3628   57.0996 C   0  0  0  0  0  0  0  0  0  0  0  0
   13.1689   -2.8766   55.0932 C   0  0  0  0  0  0  0  0  0  0  0  0
   13.2832   -1.5761   54.5747 C   0  0  0  0  0  0  0  0  0  0  0  0
   13.6154   -0.6851   56.7180 C   0  0  0  0  0  0  0  0  0  0  0  0
   13.5053   -0.4766   55.3658 N   0  0  0  0  0  0  0  0  0  0  0  0
   13.9232    0.2736   58.5224 H   0  0  0  0  0  0  0  0  0  0  0  0
   13.9202    1.3086   57.1672 H   0  0  0  0  0  0  0  0  0  0  0  0
   16.2939   -1.9268   49.7886 C   0  0  0  0  0  0  0  0  0  0  0  0
   15.4676   -0.7996   50.1158 O   0  0  0  0  0  0  0  0  0  0  0  0
  9 15  2  0  0  0
  9 11  1  0  0  0
 10 15  1  0  0  0
 12 11  1  0  0  0
 11 13  2  0  0  0
  2  1  2  0  0  0
 14  1  1  0  0  0
  1  5  1  0  0  0
  7  2  1  0  0  0
  2  3  1  0  0  0
  3  6  2  0  0  0
  6  4  1  0  0  0
  5  4  2  0  0  0
  4 20  1  0  0  0
 13 14  1  0  0  0
  6  8  1  0  0  0
 16 14  2  0  0  0
 15 16  1  0  0  0
 20 19  1  0  0  0
 10 17  1  0  0  0
 10 18  1  0  0  0
M  END
> <minimizedAffinity>
-6.51527

$$$$
3RLP_3RP_A_901


 20 21  0  0  0  0  0  0  0  0999 V2000
   15.5616   -1.7416   52.2160 C   0  0  0  0  0  0  0  0  0  0  0  0
   14.2176   -2.2246   52.0770 C   0  0  0  0  0  0  0  0  0  0  0  0
   13.4147   -1.8061   50.9807 C   0  0  0  0  0  0  0  0  0  0  0  0
   15.2788   -0.4206   50.0968 C   0  0  0  0  0  0  0  0  0  0  0  0
   16.0710   -0.8468   51.2138 C   0  0  0  0  0  0  0  0  0  0  0  0
   13.9372   -0.9106   50.0021 C   0  0  0  0  0  0  0  0  0  0  0  0
   13.5069   -3.3274   53.2332 Cl  0  0  0  0  0  0  0  0  0  0  0  0
   12.8897   -0.4376   48.7022 Cl  0  0  0  0  0  0  0  0  0  0  0  0
   18.0211   -2.7757   55.4815 N   0  0  0  0  0  0  0  0  0  0  0  0
   16.9037   -1.1488   56.8011 N   0  0  0  0  0  0  0  0  0  0  0  0
   18.1671   -3.4171   54.2829 C   0  0  0  0  0  0  0  0  0  0  0  0
   19.2288   -4.4775   54.1780 C   0  0  0  0  0  0  0  0  0  0  0  0
   17.3836   -3.1245   53.1784 C   0  0  0  0  0  0  0  0  0  0  0  0
   16.4153   -2.1217   53.3508 C   0  0  0  0  0  0  0  0  0  0  0  0
   17.0541   -1.8036   55.5843 C   0  0  0  0  0  0  0  0  0  0  0  0
   16.2376   -1.4550   54.5374 N   0  0  0  0  0  0  0  0  0  0  0  0
   17.4808   -1.3862   57.5625 H   0  0  0  0  0  0  0  0  0  0  0  0
   16.2200   -0.4475   56.9015 H   0  0  0  0  0  0  0  0  0  0  0  0
   16.4056    1.6452   49.4211 C   0  0  0  0  0  0  0  0  0  0  0  0
   15.7011    0.4402   49.0866 O   0  0  0  0  0  0  0  0  0  0  0  0
  9 15  2  0  0  0
  9 11  1  0  0  0
 10 15  1  0  0  0
 12 11  1  0  0  0
 11 13  2  0  0  0
  2  1  2  0  0  0
 14  1  1  0  0  0
  1  5  1  0  0  0
  7  2  1  0  0  0
  2  3  1  0  0  0
  3  6  2  0  0  0
  6  4  1  0  0  0
  5  4  2  0  0  0
  4 20  1  0  0  0
 13 14  1  0  0  0
  6  8  1  0  0  0
 16 14  2  0  0  0
 15 16  1  0  0  0
 20 19  1  0  0  0
 10 17  1  0  0  0
 10 18  1  0  0  0
M  END
> <minimizedAffinity>
-6.39028

$$$$
3RLP_3RP_A_901


 20 21  0  0  0  0  0  0  0  0999 V2000
   16.7256   -2.3439   52.0093 C   0  0  0  0  0  0  0  0  0  0  0  0
   17.3419   -3.5593   51.5597 C   0  0  0  0  0  0  0  0  0  0  0  0
   18.0893   -4.3619   52.4647 C   0  0  0  0  0  0  0  0  0  0  0  0
   17.6128   -2.7787   54.3201 C   0  0  0  0  0  0  0  0  0  0  0  0
   16.8700   -1.9774   53.3910 C   0  0  0  0  0  0  0  0  0  0  0  0
   18.2272   -3.9752   53.8299 C   0  0  0  0  0  0  0  0  0  0  0  0
   17.2151   -4.1026   49.9024 Cl  0  0  0  0  0  0  0  0  0  0  0  0
   19.1659   -5.0018   54.8671 Cl  0  0  0  0  0  0  0  0  0  0  0  0
   14.5440    0.1243   49.3765 N   0  0  0  0  0  0  0  0  0  0  0  0
   12.6224   -1.2171   49.7575 N   0  0  0  0  0  0  0  0  0  0  0  0
   15.8627    0.3849   49.6266 C   0  0  0  0  0  0  0  0  0  0  0  0
   16.4919    1.5588   48.9275 C   0  0  0  0  0  0  0  0  0  0  0  0
   16.6270   -0.3867   50.4867 C   0  0  0  0  0  0  0  0  0  0  0  0
   15.9724   -1.4672   51.1010 C   0  0  0  0  0  0  0  0  0  0  0  0
   13.9626   -0.9486   50.0103 C   0  0  0  0  0  0  0  0  0  0  0  0
   14.6507   -1.7615   50.8761 N   0  0  0  0  0  0  0  0  0  0  0  0
   12.1138   -0.6442   49.1392 H   0  0  0  0  0  0  0  0  0  0  0  0
   12.1819   -1.9801   50.1968 H   0  0  0  0  0  0  0  0  0  0  0  0
   16.7635   -2.8118   56.6160 C   0  0  0  0  0  0  0  0  0  0  0  0
   17.7953   -2.4922   55.6708 O   0  0  0  0  0  0  0  0  0  0  0  0
  9 15  2  0  0  0
  9 11  1  0  0  0
 10 15  1  0  0  0
 12 11  1  0  0  0
 11 13  2  0  0  0
  2  1  2  0  0  0
 14  1  1  0  0  0
  1  5  1  0  0  0
  7  2  1  0  0  0
  2  3  1  0  0  0
  3  6  2  0  0  0
  6  4  1  0  0  0
  5  4  2  0  0  0
  4 20  1  0  0  0
 13 14  1  0  0  0
  6  8  1  0  0  0
 16 14  2  0  0  0
 15 16  1  0  0  0
 20 19  1  0  0  0
 10 17  1  0  0  0
 10 18  1  0  0  0
M  END
> <minimizedAffinity>
-6.30235

$$$$
3RLP_3RP_A_901


 20 21  0  0  0  0  0  0  0  0999 V2000
   15.9174   -3.1418   51.6685 C   0  0  0  0  0  0  0  0  0  0  0  0
   14.5092   -3.0885   51.9394 C   0  0  0  0  0  0  0  0  0  0  0  0
   13.6999   -2.0880   51.3345 C   0  0  0  0  0  0  0  0  0  0  0  0
   15.6718   -1.1645   50.1369 C   0  0  0  0  0  0  0  0  0  0  0  0
   16.4740   -2.1753   50.7628 C   0  0  0  0  0  0  0  0  0  0  0  0
   14.2743   -1.1331   50.4453 C   0  0  0  0  0  0  0  0  0  0  0  0
   13.7306   -4.2262   53.0151 Cl  0  0  0  0  0  0  0  0  0  0  0  0
   13.2218    0.0633   49.7587 Cl  0  0  0  0  0  0  0  0  0  0  0  0
   18.3952   -6.0338   53.4795 N   0  0  0  0  0  0  0  0  0  0  0  0
   17.4353   -7.6921   52.0774 N   0  0  0  0  0  0  0  0  0  0  0  0
   18.4646   -4.7269   53.8749 C   0  0  0  0  0  0  0  0  0  0  0  0
   19.4344   -4.3743   54.9693 C   0  0  0  0  0  0  0  0  0  0  0  0
   17.6807   -3.7330   53.3116 C   0  0  0  0  0  0  0  0  0  0  0  0
   16.7970   -4.1376   52.2975 C   0  0  0  0  0  0  0  0  0  0  0  0
   17.5092   -6.3641   52.4810 C   0  0  0  0  0  0  0  0  0  0  0  0
   16.6979   -5.4391   51.8726 N   0  0  0  0  0  0  0  0  0  0  0  0
   18.0100   -8.3687   52.5031 H   0  0  0  0  0  0  0  0  0  0  0  0
   16.8083   -7.9561   51.3657 H   0  0  0  0  0  0  0  0  0  0  0  0
   16.9368    0.8921   49.7316 C   0  0  0  0  0  0  0  0  0  0  0  0
   16.1364   -0.1973   49.2489 O   0  0  0  0  0  0  0  0  0  0  0  0
  9 15  2  0  0  0
  9 11  1  0  0  0
 10 15  1  0  0  0
 12 11  1  0  0  0
 11 13  2  0  0  0
  2  1  2  0  0  0
 14  1  1  0  0  0
  1  5  1  0  0  0
  7  2  1  0  0  0
  2  3  1  0  0  0
  3  6  2  0  0  0
  6  4  1  0  0  0
  5  4  2  0  0  0
  4 20  1  0  0  0
 13 14  1  0  0  0
  6  8  1  0  0  0
 16 14  2  0  0  0
 15 16  1  0  0  0
 20 19  1  0  0  0
 10 17  1  0  0  0
 10 18  1  0  0  0
M  END
> <minimizedAffinity>
-6.21158

$$$$
