5LVL_537_A_401
  RCSB PDB12061718533D
Coordinates from PDB:5LVL:A:401 Model:1 without hydrogens
 17 20  0  0  0  0            999 V2000
  -14.3780   -7.9830   -9.3630   C 0  0  0  0  0  0  0  0  0  0  0  0
  -13.5780   -7.0370   -8.7460   C 0  0  0  0  0  0  0  0  0  0  0  0
  -14.0670   -5.7800   -8.5110   C 0  0  0  0  0  0  0  0  0  0  0  0
  -15.4450   -5.4050   -8.8990   C 0  0  0  0  0  0  0  0  0  0  0  0
  -16.1990   -6.3990   -9.5040   C 0  0  0  0  0  0  0  0  0  0  0  0
  -15.6570   -7.6470   -9.7260   C 0  0  0  0  0  0  0  0  0  0  0  0
  -13.8610   -3.4650   -7.6460   C 0  0  0  0  0  0  0  0  0  0  0  0
  -12.9290   -2.6010   -6.9800   C 0  0  0  0  0  0  0  0  0  0  0  0
  -13.2890   -1.2950   -6.6390   C 0  0  0  0  0  0  0  0  0  0  0  0
  -14.6000   -0.9150   -7.0180   C 0  0  0  0  0  0  0  0  0  0  0  0
  -15.4890   -1.7720   -7.6640   C 0  0  0  0  0  0  0  0  0  0  0  0
  -15.1300   -3.0600   -7.9880   C 0  0  0  0  0  0  0  0  0  0  0  0
  -15.9830   -4.0480   -8.6390   C 0  0  0  0  0  0  0  0  0  0  0  0
  -13.3340   -4.7720   -7.8970   C 0  0  0  0  0  0  0  0  0  0  0  0
  -17.1520   -3.7150   -8.9890   O 0  0  0  0  0  0  0  0  0  0  0  0
  -12.0770   -4.7310   -7.3930   N 0  0  0  0  0  0  0  0  0  0  0  0
  -11.8700   -3.4420   -6.8150   N 0  0  0  0  0  0  0  0  0  0  0  0
  1  2  2  0  0  0  0
  1  6  1  0  0  0  0
  2  3  1  0  0  0  0
  3  4  2  0  0  0  0
  3 14  1  0  0  0  0
  4  5  1  0  0  0  0
  4 13  1  0  0  0  0
  5  6  2  0  0  0  0
  7  8  2  0  0  0  0
  7 12  1  0  0  0  0
  7 14  1  0  0  0  0
  8  9  1  0  0  0  0
  8 17  1  0  0  0  0
  9 10  2  0  0  0  0
 10 11  1  0  0  0  0
 11 12  2  0  0  0  0
 12 13  1  0  0  0  0
 13 15  2  0  0  0  0
 14 16  2  0  0  0  0
 16 17  1  0  0  0  0
A    1
C1
A    2
C2
A    3
C3
A    4
C4
A    5
C5
A    6
C6
A    7
C11
A    8
C12
A    9
C13
A   10
C14
A   11
C15
A   12
C16
A   13
C20
A   14
C21
A   15
O22
A   16
N23
A   17
N24
M  END
>  <InstanceId>
5LVL_537_A_401

>  <ChemCompId>
537

>  <PdbId>
5LVL

>  <ChainId>
A

>  <ResidueNumber>
401

>  <InsertionCode>


>  <Model>
1

>  <AltIds>


>  <MissingHeavyAtoms>
0

>  <ObservedFormula>
C14 N2 O

>  <Name>
2,6-DIHYDROANTHRA/1,9-CD/PYRAZOL-6-ONE

>  <SystematicName>


>  <Synonyms>


>  <Type>
NON-POLYMER

>  <Formula>
C14 H8 N2 O

>  <MolecularWeight>
220.226

>  <ModifiedDate>
2011-06-04

>  <Parent>


>  <OneLetterCode>


>  <SubcomponentList>


>  <AmbiguousFlag>
N

>  <InChI>
InChI=1S/C14H8N2O/c17-14-9-5-2-1-4-8(9)13-12-10(14)6-3-7-11(12)15-16-13/h1-7H,(H,15,16)

>  <InChIKey>
ACPOUJIDANTYHO-UHFFFAOYSA-N

>  <SMILES>
c1ccc2c(c1)-c3c4c(cccc4[nH]n3)C2=O

$$$$
