5G61_FNY_A_544


 73 77  0  0  0  0  0  0  0  0999 V2000
  147.5407   -8.0361  130.0332 C   0  0  0  0  0  0  0  0  0  0  0  0
  146.9717   -8.3618  131.4156 C   0  0  0  0  0  0  0  0  0  0  0  0
  146.8585   -7.2473  131.9989 C   0  0  0  0  0  0  0  0  0  0  0  0
  146.4042   -6.3625  130.7782 C   0  0  0  0  0  0  0  0  0  0  0  0
  147.1463   -6.6430  129.8165 O   0  0  0  0  0  0  0  0  0  0  0  0
  145.8534   -7.2358  132.9716 O   0  0  0  0  0  0  0  0  0  0  0  0
  147.7618   -9.2560  132.0766 O   0  0  0  0  0  0  0  0  0  0  0  0
  145.0114   -7.5009  132.5697 H   0  0  0  0  0  0  0  0  0  0  0  0
  148.6567   -8.8925  132.1659 H   0  0  0  0  0  0  0  0  0  0  0  0
  146.3512   -4.8876  131.1144 C   0  0  0  0  0  0  0  0  0  0  0  0
  146.7257   -4.1919  129.9681 O   0  0  0  0  0  0  0  0  0  0  0  0
  147.6180   -4.4637  129.7020 H   0  0  0  0  0  0  0  0  0  0  0  0
  147.0966   -8.8483  128.9275 C   0  0  0  0  0  0  0  0  0  0  0  0
  146.2886   -9.9618  129.3273 O   0  0  0  0  0  0  0  0  0  0  0  0
  146.4072  -11.2498  128.6642 C   0  0  0  0  0  0  0  0  0  0  0  0
  146.4359  -12.3707  129.8051 C   0  0  0  0  0  0  0  0  0  0  0  0
  144.9653  -12.6505  130.0114 C   0  0  0  0  0  0  0  0  0  0  0  0
  144.5522  -12.6705  128.7620 C   0  0  0  0  0  0  0  0  0  0  0  0
  145.4123  -11.5751  127.9569 O   0  0  0  0  0  0  0  0  0  0  0  0
  144.6630  -13.8039  130.7341 O   0  0  0  0  0  0  0  0  0  0  0  0
  147.0021  -11.8829  130.9428 O   0  0  0  0  0  0  0  0  0  0  0  0
  145.0450  -14.5752  130.2867 H   0  0  0  0  0  0  0  0  0  0  0  0
  146.5234  -11.0887  131.2274 H   0  0  0  0  0  0  0  0  0  0  0  0
  143.0764  -12.3098  128.7011 C   0  0  0  0  0  0  0  0  0  0  0  0
  142.6890  -12.5674  127.4094 O   0  0  0  0  0  0  0  0  0  0  0  0
  143.2305  -12.0431  126.7988 H   0  0  0  0  0  0  0  0  0  0  0  0
  147.6442  -11.2913  127.7667 C   0  0  0  0  0  0  0  0  0  0  0  0
  147.9956  -12.6644  127.4757 O   0  0  0  0  0  0  0  0  0  0  0  0
  148.1126  -12.9581  126.0383 C   0  0  0  0  0  0  0  0  0  0  0  0
  148.4303  -14.5088  125.8377 C   0  0  0  0  0  0  0  0  0  0  0  0
  147.0783  -15.1067  125.9397 C   0  0  0  0  0  0  0  0  0  0  0  0
  146.3624  -14.2574  125.1684 C   0  0  0  0  0  0  0  0  0  0  0  0
  147.0424  -12.8264  125.3892 O   0  0  0  0  0  0  0  0  0  0  0  0
  147.1455  -16.3872  125.4058 O   0  0  0  0  0  0  0  0  0  0  0  0
  149.3557  -14.9886  126.7488 O   0  0  0  0  0  0  0  0  0  0  0  0
  147.5164  -16.3451  124.5105 H   0  0  0  0  0  0  0  0  0  0  0  0
  149.0344  -14.8295  127.6501 H   0  0  0  0  0  0  0  0  0  0  0  0
  149.1520  -12.0726  125.4199 C   0  0  0  0  0  0  0  0  0  0  0  0
  150.4429  -12.2686  125.8747 O   0  0  0  0  0  0  0  0  0  0  0  0
  150.4873  -12.0608  126.8211 H   0  0  0  0  0  0  0  0  0  0  0  0
  144.9104  -14.2243  125.5152 C   0  0  0  0  0  0  0  0  0  0  0  0
  144.3790  -15.5049  125.6017 O   0  0  0  0  0  0  0  0  0  0  0  0
  144.4674  -15.9503  124.7446 H   0  0  0  0  0  0  0  0  0  0  0  0
  148.9704   -8.0819  130.0181 O   0  0  0  0  0  0  0  0  0  0  0  0
  149.3961   -8.0434  128.6450 C   0  0  0  0  0  0  0  0  0  0  0  0
  150.7555   -8.6961  128.3966 C   0  0  0  0  0  0  0  0  0  0  0  0
  151.5581   -7.8094  128.1444 C   0  0  0  0  0  0  0  0  0  0  0  0
  151.0211   -7.4219  126.7992 C   0  0  0  0  0  0  0  0  0  0  0  0
  150.6795   -8.7344  126.1029 C   0  0  0  0  0  0  0  0  0  0  0  0
  150.7628   -9.5588  127.0572 O   0  0  0  0  0  0  0  0  0  0  0  0
  151.9601   -6.6770  126.0960 O   0  0  0  0  0  0  0  0  0  0  0  0
  151.2888   -6.7730  129.0198 O   0  0  0  0  0  0  0  0  0  0  0  0
  152.7754   -7.1934  125.9987 H   0  0  0  0  0  0  0  0  0  0  0  0
  150.3457   -6.5503  128.9769 H   0  0  0  0  0  0  0  0  0  0  0  0
  151.7389   -9.0171  125.0372 C   0  0  0  0  0  0  0  0  0  0  0  0
  152.8897   -9.6617  125.5507 O   0  0  0  0  0  0  0  0  0  0  0  0
  153.3154   -9.0886  126.2073 H   0  0  0  0  0  0  0  0  0  0  0  0
  151.0394   -9.4896  129.5297 O   0  0  0  0  0  0  0  0  0  0  0  0
  152.9578  -12.5558  129.2315 C   0  0  0  0  0  0  0  0  0  0  0  0
  152.9129  -12.4585  130.7016 C   0  0  0  0  0  0  0  0  0  0  0  0
  151.5085  -12.3747  131.1304 C   0  0  0  0  0  0  0  0  0  0  0  0
  150.6014  -11.6664  130.2219 C   0  0  0  0  0  0  0  0  0  0  0  0
  151.2185  -10.8855  129.1235 C   0  0  0  0  0  0  0  0  0  0  0  0
  152.6099  -11.2270  128.7676 O   0  0  0  0  0  0  0  0  0  0  0  0
  149.7650  -10.7771  130.9454 O   0  0  0  0  0  0  0  0  0  0  0  0
  151.3435  -11.9344  132.4312 O   0  0  0  0  0  0  0  0  0  0  0  0
  153.4847  -11.2403  130.8944 O   0  0  0  0  0  0  0  0  0  0  0  0
  150.3050  -10.0752  131.3411 H   0  0  0  0  0  0  0  0  0  0  0  0
  151.6089  -11.0035  132.4936 H   0  0  0  0  0  0  0  0  0  0  0  0
  152.9986  -10.5711  130.3876 H   0  0  0  0  0  0  0  0  0  0  0  0
  154.3805  -12.9141  128.7948 C   0  0  0  0  0  0  0  0  0  0  0  0
  155.0275  -11.7017  128.3624 O   0  0  0  0  0  0  0  0  0  0  0  0
  154.5277  -11.3127  127.6277 H   0  0  0  0  0  0  0  0  0  0  0  0
 71 59  1  0  0  0
 71 72  1  0  0  0
 59 60  1  0  0  0
 59 64  1  0  0  0
 60 61  1  0  0  0
 60 67  1  0  0  0
 61 62  1  0  0  0
 61 66  1  0  0  0
 62 63  1  0  0  0
 62 65  1  0  0  0
 63 64  1  0  0  0
 63 58  1  0  0  0
 58 46  1  0  0  0
 46 47  1  0  0  0
 46 50  1  0  0  0
 46 45  1  0  0  0
 47 48  1  0  0  0
 47 52  1  0  0  0
 48 49  1  0  0  0
 48 51  1  0  0  0
 49 50  1  0  0  0
 49 55  1  0  0  0
 55 56  1  0  0  0
 45 44  1  0  0  0
 44  1  1  0  0  0
  1  2  1  0  0  0
  1  5  1  0  0  0
  1 13  1  0  0  0
  2  3  1  0  0  0
  2  7  1  0  0  0
  3  4  1  0  0  0
  3  6  1  0  0  0
  4  5  1  0  0  0
  4 10  1  0  0  0
 10 11  1  0  0  0
 13 14  1  0  0  0
 14 15  1  0  0  0
 15 16  1  0  0  0
 15 19  1  0  0  0
 15 27  1  0  0  0
 16 17  1  0  0  0
 16 21  1  0  0  0
 17 18  1  0  0  0
 17 20  1  0  0  0
 18 19  1  0  0  0
 18 24  1  0  0  0
 24 25  1  0  0  0
 27 28  1  0  0  0
 28 29  1  0  0  0
 29 30  1  0  0  0
 29 33  1  0  0  0
 29 38  1  0  0  0
 30 31  1  0  0  0
 30 35  1  0  0  0
 31 32  1  0  0  0
 31 34  1  0  0  0
 32 33  1  0  0  0
 32 41  1  0  0  0
 41 42  1  0  0  0
 38 39  1  0  0  0
 56 57  1  0  0  0
 51 53  1  0  0  0
 52 54  1  0  0  0
 11 12  1  0  0  0
  6  8  1  0  0  0
  7  9  1  0  0  0
 25 26  1  0  0  0
 20 22  1  0  0  0
 21 23  1  0  0  0
 42 43  1  0  0  0
 34 36  1  0  0  0
 35 37  1  0  0  0
 39 40  1  0  0  0
 65 68  1  0  0  0
 66 69  1  0  0  0
 67 70  1  0  0  0
 72 73  1  0  0  0
M  END
> <minimizedAffinity>
-9.41734

$$$$
5G61_FNY_A_544


 73 77  0  0  0  0  0  0  0  0999 V2000
  149.6658  -11.0014  131.5116 C   0  0  0  0  0  0  0  0  0  0  0  0
  148.3146  -10.8565  132.2144 C   0  0  0  0  0  0  0  0  0  0  0  0
  148.5043  -10.0031  133.1260 C   0  0  0  0  0  0  0  0  0  0  0  0
  149.4857   -9.0317  132.3692 C   0  0  0  0  0  0  0  0  0  0  0  0
  150.3424   -9.7354  131.7991 O   0  0  0  0  0  0  0  0  0  0  0  0
  147.3444   -9.3027  133.4732 O   0  0  0  0  0  0  0  0  0  0  0  0
  147.8622  -12.0609  132.6677 O   0  0  0  0  0  0  0  0  0  0  0  0
  146.9706   -8.8839  132.6821 H   0  0  0  0  0  0  0  0  0  0  0  0
  148.5124  -12.4413  133.2789 H   0  0  0  0  0  0  0  0  0  0  0  0
  150.0598   -7.9619  133.2731 C   0  0  0  0  0  0  0  0  0  0  0  0
  150.1574   -8.5115  134.5485 O   0  0  0  0  0  0  0  0  0  0  0  0
  149.2788   -8.7946  134.8467 H   0  0  0  0  0  0  0  0  0  0  0  0
  149.6490  -11.2355  130.0888 C   0  0  0  0  0  0  0  0  0  0  0  0
  148.3375  -11.4824  129.5677 O   0  0  0  0  0  0  0  0  0  0  0  0
  147.8227  -10.7201  128.4423 C   0  0  0  0  0  0  0  0  0  0  0  0
  146.2267  -10.7345  128.5489 C   0  0  0  0  0  0  0  0  0  0  0  0
  145.9577   -9.5415  129.4364 C   0  0  0  0  0  0  0  0  0  0  0  0
  146.8021   -8.6718  128.9237 C   0  0  0  0  0  0  0  0  0  0  0  0
  148.1080   -9.4896  128.4612 O   0  0  0  0  0  0  0  0  0  0  0  0
  144.6352   -9.1017  129.4768 O   0  0  0  0  0  0  0  0  0  0  0  0
  145.7955  -11.8843  129.1362 O   0  0  0  0  0  0  0  0  0  0  0  0
  144.3446   -8.8683  128.5812 H   0  0  0  0  0  0  0  0  0  0  0  0
  146.2173  -11.9818  130.0042 H   0  0  0  0  0  0  0  0  0  0  0  0
  147.1864   -7.6443  129.9764 C   0  0  0  0  0  0  0  0  0  0  0  0
  146.2846   -6.6188  129.8342 O   0  0  0  0  0  0  0  0  0  0  0  0
  146.3329   -6.2688  128.9308 H   0  0  0  0  0  0  0  0  0  0  0  0
  148.3296  -11.2905  127.1174 C   0  0  0  0  0  0  0  0  0  0  0  0
  148.0479  -12.7082  127.0519 O   0  0  0  0  0  0  0  0  0  0  0  0
  147.9858  -13.2410  125.6813 C   0  0  0  0  0  0  0  0  0  0  0  0
  148.1339  -14.8292  125.7222 C   0  0  0  0  0  0  0  0  0  0  0  0
  146.7498  -15.2504  126.0430 C   0  0  0  0  0  0  0  0  0  0  0  0
  146.0400  -14.4631  125.2033 C   0  0  0  0  0  0  0  0  0  0  0  0
  146.8706  -13.0988  125.1154 O   0  0  0  0  0  0  0  0  0  0  0  0
  146.6403  -16.5997  125.7324 O   0  0  0  0  0  0  0  0  0  0  0  0
  149.1003  -15.2545  126.6175 O   0  0  0  0  0  0  0  0  0  0  0  0
  146.9178  -16.7437  124.8142 H   0  0  0  0  0  0  0  0  0  0  0  0
  148.8915  -14.9178  127.5029 H   0  0  0  0  0  0  0  0  0  0  0  0
  149.0332  -12.5867  124.8319 C   0  0  0  0  0  0  0  0  0  0  0  0
  150.3404  -12.8427  125.2025 O   0  0  0  0  0  0  0  0  0  0  0  0
  150.5001  -12.4875  126.0910 H   0  0  0  0  0  0  0  0  0  0  0  0
  144.6418  -14.2149  125.6649 C   0  0  0  0  0  0  0  0  0  0  0  0
  144.5817  -13.1497  126.5546 O   0  0  0  0  0  0  0  0  0  0  0  0
  145.1191  -13.3509  127.3367 H   0  0  0  0  0  0  0  0  0  0  0  0
  150.4572  -12.0473  132.0827 O   0  0  0  0  0  0  0  0  0  0  0  0
  151.5599  -12.2980  131.1944 C   0  0  0  0  0  0  0  0  0  0  0  0
  152.9258  -12.2876  131.8799 C   0  0  0  0  0  0  0  0  0  0  0  0
  153.6791  -11.5990  131.2073 C   0  0  0  0  0  0  0  0  0  0  0  0
  153.8022  -12.5184  130.0293 C   0  0  0  0  0  0  0  0  0  0  0  0
  153.9317  -13.9192  130.6172 C   0  0  0  0  0  0  0  0  0  0  0  0
  153.6264  -13.7175  131.8269 O   0  0  0  0  0  0  0  0  0  0  0  0
  154.8975  -12.1670  129.2495 O   0  0  0  0  0  0  0  0  0  0  0  0
  152.9501  -10.4946  130.8049 O   0  0  0  0  0  0  0  0  0  0  0  0
  155.7026  -12.1994  129.7895 H   0  0  0  0  0  0  0  0  0  0  0  0
  152.1214  -10.7864  130.3938 H   0  0  0  0  0  0  0  0  0  0  0  0
  155.3848  -14.3765  130.4851 C   0  0  0  0  0  0  0  0  0  0  0  0
  156.2261  -13.8649  131.5019 O   0  0  0  0  0  0  0  0  0  0  0  0
  156.2435  -12.8965  131.4503 H   0  0  0  0  0  0  0  0  0  0  0  0
  152.7113  -11.8608  133.2088 O   0  0  0  0  0  0  0  0  0  0  0  0
  154.3435   -9.2394  135.1155 C   0  0  0  0  0  0  0  0  0  0  0  0
  153.7070   -9.9667  136.2285 C   0  0  0  0  0  0  0  0  0  0  0  0
  154.1332  -11.3736  136.1831 C   0  0  0  0  0  0  0  0  0  0  0  0
  154.3609  -11.9325  134.8469 C   0  0  0  0  0  0  0  0  0  0  0  0
  153.8883  -11.1341  133.6907 C   0  0  0  0  0  0  0  0  0  0  0  0
  153.6427   -9.6986  133.9322 O   0  0  0  0  0  0  0  0  0  0  0  0
  153.7678  -13.2168  134.7355 O   0  0  0  0  0  0  0  0  0  0  0  0
  153.3498  -12.2228  136.9437 O   0  0  0  0  0  0  0  0  0  0  0  0
  152.4008   -9.9109  135.8561 O   0  0  0  0  0  0  0  0  0  0  0  0
  152.8034  -13.1343  134.8003 H   0  0  0  0  0  0  0  0  0  0  0  0
  152.4659  -12.2874  136.5493 H   0  0  0  0  0  0  0  0  0  0  0  0
  152.3023  -10.2827  134.9656 H   0  0  0  0  0  0  0  0  0  0  0  0
  154.1283   -7.7363  135.3090 C   0  0  0  0  0  0  0  0  0  0  0  0
  153.0215   -7.3386  134.4770 O   0  0  0  0  0  0  0  0  0  0  0  0
  153.2237   -7.5427  133.5505 H   0  0  0  0  0  0  0  0  0  0  0  0
 71 59  1  0  0  0
 71 72  1  0  0  0
 59 60  1  0  0  0
 59 64  1  0  0  0
 60 61  1  0  0  0
 60 67  1  0  0  0
 61 62  1  0  0  0
 61 66  1  0  0  0
 62 63  1  0  0  0
 62 65  1  0  0  0
 63 64  1  0  0  0
 63 58  1  0  0  0
 58 46  1  0  0  0
 46 47  1  0  0  0
 46 50  1  0  0  0
 46 45  1  0  0  0
 47 48  1  0  0  0
 47 52  1  0  0  0
 48 49  1  0  0  0
 48 51  1  0  0  0
 49 50  1  0  0  0
 49 55  1  0  0  0
 55 56  1  0  0  0
 45 44  1  0  0  0
 44  1  1  0  0  0
  1  2  1  0  0  0
  1  5  1  0  0  0
  1 13  1  0  0  0
  2  3  1  0  0  0
  2  7  1  0  0  0
  3  4  1  0  0  0
  3  6  1  0  0  0
  4  5  1  0  0  0
  4 10  1  0  0  0
 10 11  1  0  0  0
 13 14  1  0  0  0
 14 15  1  0  0  0
 15 16  1  0  0  0
 15 19  1  0  0  0
 15 27  1  0  0  0
 16 17  1  0  0  0
 16 21  1  0  0  0
 17 18  1  0  0  0
 17 20  1  0  0  0
 18 19  1  0  0  0
 18 24  1  0  0  0
 24 25  1  0  0  0
 27 28  1  0  0  0
 28 29  1  0  0  0
 29 30  1  0  0  0
 29 33  1  0  0  0
 29 38  1  0  0  0
 30 31  1  0  0  0
 30 35  1  0  0  0
 31 32  1  0  0  0
 31 34  1  0  0  0
 32 33  1  0  0  0
 32 41  1  0  0  0
 41 42  1  0  0  0
 38 39  1  0  0  0
 56 57  1  0  0  0
 51 53  1  0  0  0
 52 54  1  0  0  0
 11 12  1  0  0  0
  6  8  1  0  0  0
  7  9  1  0  0  0
 25 26  1  0  0  0
 20 22  1  0  0  0
 21 23  1  0  0  0
 42 43  1  0  0  0
 34 36  1  0  0  0
 35 37  1  0  0  0
 39 40  1  0  0  0
 65 68  1  0  0  0
 66 69  1  0  0  0
 67 70  1  0  0  0
 72 73  1  0  0  0
M  END
> <minimizedAffinity>
-9.04845

$$$$
5G61_FNY_A_544


 73 77  0  0  0  0  0  0  0  0999 V2000
  149.3403   -9.0376  128.2778 C   0  0  0  0  0  0  0  0  0  0  0  0
  149.3452   -7.5830  127.8034 C   0  0  0  0  0  0  0  0  0  0  0  0
  150.2975   -7.5066  126.9773 C   0  0  0  0  0  0  0  0  0  0  0  0
  150.1508   -8.9128  126.2841 C   0  0  0  0  0  0  0  0  0  0  0  0
  149.9953   -9.7596  127.1857 O   0  0  0  0  0  0  0  0  0  0  0  0
  150.1153   -6.5031  126.0200 O   0  0  0  0  0  0  0  0  0  0  0  0
  149.4528   -6.7210  128.8551 O   0  0  0  0  0  0  0  0  0  0  0  0
  149.2722   -6.6432  125.5612 H   0  0  0  0  0  0  0  0  0  0  0  0
  150.2676   -6.9102  129.3462 H   0  0  0  0  0  0  0  0  0  0  0  0
  151.2893   -9.2165  125.3341 C   0  0  0  0  0  0  0  0  0  0  0  0
  150.9748   -8.6239  124.1142 O   0  0  0  0  0  0  0  0  0  0  0  0
  150.1346   -8.9823  123.7877 H   0  0  0  0  0  0  0  0  0  0  0  0
  148.0592   -9.6360  128.5614 C   0  0  0  0  0  0  0  0  0  0  0  0
  147.0572   -8.6842  128.9391 O   0  0  0  0  0  0  0  0  0  0  0  0
  146.1637   -8.9407  130.0566 C   0  0  0  0  0  0  0  0  0  0  0  0
  146.6534   -8.0280  131.2756 C   0  0  0  0  0  0  0  0  0  0  0  0
  145.9111   -6.7364  131.0225 C   0  0  0  0  0  0  0  0  0  0  0  0
  144.7279   -7.2067  130.6893 C   0  0  0  0  0  0  0  0  0  0  0  0
  144.9689   -8.5728  129.8748 O   0  0  0  0  0  0  0  0  0  0  0  0
  145.8906   -5.8310  132.0827 O   0  0  0  0  0  0  0  0  0  0  0  0
  147.9995   -7.8341  131.2192 O   0  0  0  0  0  0  0  0  0  0  0  0
  145.4867   -6.2505  132.8584 H   0  0  0  0  0  0  0  0  0  0  0  0
  148.2349   -7.4485  130.3608 H   0  0  0  0  0  0  0  0  0  0  0  0
  144.0047   -6.2031  129.8051 C   0  0  0  0  0  0  0  0  0  0  0  0
  144.9931   -5.4514  129.2195 O   0  0  0  0  0  0  0  0  0  0  0  0
  145.5291   -5.0287  129.9086 H   0  0  0  0  0  0  0  0  0  0  0  0
  146.1396  -10.4286  130.4075 C   0  0  0  0  0  0  0  0  0  0  0  0
  145.2336  -11.1285  129.5227 O   0  0  0  0  0  0  0  0  0  0  0  0
  145.5314  -12.5625  129.3772 C   0  0  0  0  0  0  0  0  0  0  0  0
  144.5536  -13.1997  128.2891 C   0  0  0  0  0  0  0  0  0  0  0  0
  145.2376  -12.8392  127.0250 C   0  0  0  0  0  0  0  0  0  0  0  0
  146.5192  -13.1447  127.3294 C   0  0  0  0  0  0  0  0  0  0  0  0
  146.6634  -12.8141  128.8879 O   0  0  0  0  0  0  0  0  0  0  0  0
  144.7181  -13.6482  126.0225 O   0  0  0  0  0  0  0  0  0  0  0  0
  143.2522  -12.7421  128.4047 O   0  0  0  0  0  0  0  0  0  0  0  0
  144.7930  -14.5786  126.2866 H   0  0  0  0  0  0  0  0  0  0  0  0
  143.2421  -11.7748  128.3340 H   0  0  0  0  0  0  0  0  0  0  0  0
  145.4312  -13.2419  130.7096 C   0  0  0  0  0  0  0  0  0  0  0  0
  144.6924  -14.4105  130.7237 O   0  0  0  0  0  0  0  0  0  0  0  0
  143.7722  -14.2141  130.4882 H   0  0  0  0  0  0  0  0  0  0  0  0
  147.5173  -12.3826  126.5215 C   0  0  0  0  0  0  0  0  0  0  0  0
  148.8038  -12.5419  127.0208 O   0  0  0  0  0  0  0  0  0  0  0  0
  148.8418  -12.2057  127.9299 H   0  0  0  0  0  0  0  0  0  0  0  0
  150.1391   -9.2212  129.4502 O   0  0  0  0  0  0  0  0  0  0  0  0
  149.5660  -10.3016  130.2068 C   0  0  0  0  0  0  0  0  0  0  0  0
  150.5923  -11.1455  130.9618 C   0  0  0  0  0  0  0  0  0  0  0  0
  149.9850  -11.8856  131.7218 C   0  0  0  0  0  0  0  0  0  0  0  0
  149.5029  -10.8418  132.6843 C   0  0  0  0  0  0  0  0  0  0  0  0
  150.6824   -9.8970  132.8857 C   0  0  0  0  0  0  0  0  0  0  0  0
  151.4637  -10.2637  131.9625 O   0  0  0  0  0  0  0  0  0  0  0  0
  149.0856  -11.4302  133.8721 O   0  0  0  0  0  0  0  0  0  0  0  0
  148.8867  -12.3532  131.0230 O   0  0  0  0  0  0  0  0  0  0  0  0
  149.8190  -11.9338  134.2586 H   0  0  0  0  0  0  0  0  0  0  0  0
  148.4019  -11.6037  130.6434 H   0  0  0  0  0  0  0  0  0  0  0  0
  151.2948  -10.1599  134.2619 C   0  0  0  0  0  0  0  0  0  0  0  0
  152.2637  -11.1917  134.2544 O   0  0  0  0  0  0  0  0  0  0  0  0
  151.8473  -12.0243  133.9822 H   0  0  0  0  0  0  0  0  0  0  0  0
  151.3963  -11.7769  129.9876 O   0  0  0  0  0  0  0  0  0  0  0  0
  154.4099  -13.7375  130.4830 C   0  0  0  0  0  0  0  0  0  0  0  0
  154.4621  -13.6081  129.0156 C   0  0  0  0  0  0  0  0  0  0  0  0
  154.4270  -12.1809  128.6620 C   0  0  0  0  0  0  0  0  0  0  0  0
  153.6336  -11.3203  129.5450 C   0  0  0  0  0  0  0  0  0  0  0  0
  152.7432  -11.9917  130.5217 C   0  0  0  0  0  0  0  0  0  0  0  0
  153.0420  -13.4042  130.8296 O   0  0  0  0  0  0  0  0  0  0  0  0
  152.8250  -10.4360  128.7848 O   0  0  0  0  0  0  0  0  0  0  0  0
  154.1214  -11.9382  127.3350 O   0  0  0  0  0  0  0  0  0  0  0  0
  153.2677  -14.1567  128.6683 O   0  0  0  0  0  0  0  0  0  0  0  0
  152.1649  -10.9461  128.2898 H   0  0  0  0  0  0  0  0  0  0  0  0
  153.2007  -12.1909  127.1638 H   0  0  0  0  0  0  0  0  0  0  0  0
  152.5524  -13.6940  129.1320 H   0  0  0  0  0  0  0  0  0  0  0  0
  154.7171  -15.1859  130.8711 C   0  0  0  0  0  0  0  0  0  0  0  0
  153.4763  -15.8146  131.2463 O   0  0  0  0  0  0  0  0  0  0  0  0
  153.0820  -15.3332  131.9904 H   0  0  0  0  0  0  0  0  0  0  0  0
 71 59  1  0  0  0
 71 72  1  0  0  0
 59 60  1  0  0  0
 59 64  1  0  0  0
 60 61  1  0  0  0
 60 67  1  0  0  0
 61 62  1  0  0  0
 61 66  1  0  0  0
 62 63  1  0  0  0
 62 65  1  0  0  0
 63 64  1  0  0  0
 63 58  1  0  0  0
 58 46  1  0  0  0
 46 47  1  0  0  0
 46 50  1  0  0  0
 46 45  1  0  0  0
 47 48  1  0  0  0
 47 52  1  0  0  0
 48 49  1  0  0  0
 48 51  1  0  0  0
 49 50  1  0  0  0
 49 55  1  0  0  0
 55 56  1  0  0  0
 45 44  1  0  0  0
 44  1  1  0  0  0
  1  2  1  0  0  0
  1  5  1  0  0  0
  1 13  1  0  0  0
  2  3  1  0  0  0
  2  7  1  0  0  0
  3  4  1  0  0  0
  3  6  1  0  0  0
  4  5  1  0  0  0
  4 10  1  0  0  0
 10 11  1  0  0  0
 13 14  1  0  0  0
 14 15  1  0  0  0
 15 16  1  0  0  0
 15 19  1  0  0  0
 15 27  1  0  0  0
 16 17  1  0  0  0
 16 21  1  0  0  0
 17 18  1  0  0  0
 17 20  1  0  0  0
 18 19  1  0  0  0
 18 24  1  0  0  0
 24 25  1  0  0  0
 27 28  1  0  0  0
 28 29  1  0  0  0
 29 30  1  0  0  0
 29 33  1  0  0  0
 29 38  1  0  0  0
 30 31  1  0  0  0
 30 35  1  0  0  0
 31 32  1  0  0  0
 31 34  1  0  0  0
 32 33  1  0  0  0
 32 41  1  0  0  0
 41 42  1  0  0  0
 38 39  1  0  0  0
 56 57  1  0  0  0
 51 53  1  0  0  0
 52 54  1  0  0  0
 11 12  1  0  0  0
  6  8  1  0  0  0
  7  9  1  0  0  0
 25 26  1  0  0  0
 20 22  1  0  0  0
 21 23  1  0  0  0
 42 43  1  0  0  0
 34 36  1  0  0  0
 35 37  1  0  0  0
 39 40  1  0  0  0
 65 68  1  0  0  0
 66 69  1  0  0  0
 67 70  1  0  0  0
 72 73  1  0  0  0
M  END
> <minimizedAffinity>
-9.04285

$$$$
5G61_FNY_A_544


 73 77  0  0  0  0  0  0  0  0999 V2000
  151.9758  -11.4874  130.2446 C   0  0  0  0  0  0  0  0  0  0  0  0
  152.3025  -12.1778  131.5703 C   0  0  0  0  0  0  0  0  0  0  0  0
  152.9875  -13.1915  131.2566 C   0  0  0  0  0  0  0  0  0  0  0  0
  153.8267  -12.5793  130.0732 C   0  0  0  0  0  0  0  0  0  0  0  0
  153.0389  -11.9421  129.3468 O   0  0  0  0  0  0  0  0  0  0  0  0
  153.8587  -13.6015  132.2712 O   0  0  0  0  0  0  0  0  0  0  0  0
  151.1673  -12.4698  132.2679 O   0  0  0  0  0  0  0  0  0  0  0  0
  154.4338  -12.8618  132.5221 H   0  0  0  0  0  0  0  0  0  0  0  0
  150.5958  -13.0409  131.7311 H   0  0  0  0  0  0  0  0  0  0  0  0
  154.6467  -13.6193  129.3404 C   0  0  0  0  0  0  0  0  0  0  0  0
  153.9647  -14.8284  129.4461 O   0  0  0  0  0  0  0  0  0  0  0  0
  153.8555  -15.0572  130.3824 H   0  0  0  0  0  0  0  0  0  0  0  0
  151.9192  -10.0464  130.2462 C   0  0  0  0  0  0  0  0  0  0  0  0
  150.5842   -9.5290  130.2974 O   0  0  0  0  0  0  0  0  0  0  0  0
  149.9849   -9.1257  131.5587 C   0  0  0  0  0  0  0  0  0  0  0  0
  148.5987   -8.4041  131.2169 C   0  0  0  0  0  0  0  0  0  0  0  0
  147.6377   -9.5694  131.1718 C   0  0  0  0  0  0  0  0  0  0  0  0
  148.0448  -10.2508  132.2216 C   0  0  0  0  0  0  0  0  0  0  0  0
  149.6420  -10.0805  132.3115 O   0  0  0  0  0  0  0  0  0  0  0  0
  146.2832   -9.2393  131.1923 O   0  0  0  0  0  0  0  0  0  0  0  0
  148.6666   -7.7830  130.0076 O   0  0  0  0  0  0  0  0  0  0  0  0
  146.0861   -8.7318  131.9950 H   0  0  0  0  0  0  0  0  0  0  0  0
  148.9171   -8.4271  129.3269 H   0  0  0  0  0  0  0  0  0  0  0  0
  147.6945  -11.7203  132.0499 C   0  0  0  0  0  0  0  0  0  0  0  0
  147.8606  -11.9829  130.7126 O   0  0  0  0  0  0  0  0  0  0  0  0
  147.2880  -11.3961  130.1942 H   0  0  0  0  0  0  0  0  0  0  0  0
  150.9347   -8.2298  132.3540 C   0  0  0  0  0  0  0  0  0  0  0  0
  151.8198   -9.0430  133.1595 O   0  0  0  0  0  0  0  0  0  0  0  0
  151.7681   -8.7353  134.5979 C   0  0  0  0  0  0  0  0  0  0  0  0
  151.4972  -10.0769  135.4180 C   0  0  0  0  0  0  0  0  0  0  0  0
  152.8584  -10.6566  135.5011 C   0  0  0  0  0  0  0  0  0  0  0  0
  153.5836   -9.5645  135.8327 C   0  0  0  0  0  0  0  0  0  0  0  0
  152.8601   -8.3470  135.0888 O   0  0  0  0  0  0  0  0  0  0  0  0
  152.8446  -11.6153  136.5061 O   0  0  0  0  0  0  0  0  0  0  0  0
  150.5481  -10.8882  134.8202 O   0  0  0  0  0  0  0  0  0  0  0  0
  152.5091  -11.2196  137.3257 H   0  0  0  0  0  0  0  0  0  0  0  0
  150.8287  -11.1025  133.9167 H   0  0  0  0  0  0  0  0  0  0  0  0
  150.7329   -7.6828  134.8573 C   0  0  0  0  0  0  0  0  0  0  0  0
  149.7266   -8.0459  135.7332 O   0  0  0  0  0  0  0  0  0  0  0  0
  149.2234   -8.7858  135.3587 H   0  0  0  0  0  0  0  0  0  0  0  0
  155.0192   -9.6639  135.4341 C   0  0  0  0  0  0  0  0  0  0  0  0
  155.7823  -10.2640  136.4278 O   0  0  0  0  0  0  0  0  0  0  0  0
  155.7371   -9.7305  137.2367 H   0  0  0  0  0  0  0  0  0  0  0  0
  150.7334  -11.9388  129.6977 O   0  0  0  0  0  0  0  0  0  0  0  0
  150.9475  -12.2321  128.3062 C   0  0  0  0  0  0  0  0  0  0  0  0
  149.7900  -11.8185  127.3979 C   0  0  0  0  0  0  0  0  0  0  0  0
  149.9111  -12.4160  126.3385 C   0  0  0  0  0  0  0  0  0  0  0  0
  151.1253  -11.6957  125.8334 C   0  0  0  0  0  0  0  0  0  0  0  0
  150.8975  -10.2264  126.1704 C   0  0  0  0  0  0  0  0  0  0  0  0
  149.9043  -10.2942  126.9491 O   0  0  0  0  0  0  0  0  0  0  0  0
  151.2857  -11.9085  124.4695 O   0  0  0  0  0  0  0  0  0  0  0  0
  150.2895  -13.7081  126.6553 O   0  0  0  0  0  0  0  0  0  0  0  0
  150.4930  -11.6057  123.9996 H   0  0  0  0  0  0  0  0  0  0  0  0
  151.0574  -13.6841  127.2475 H   0  0  0  0  0  0  0  0  0  0  0  0
  150.5404   -9.4761  124.8869 C   0  0  0  0  0  0  0  0  0  0  0  0
  151.6650   -8.9128  124.2377 O   0  0  0  0  0  0  0  0  0  0  0  0
  152.0830   -8.2613  124.8223 H   0  0  0  0  0  0  0  0  0  0  0  0
  148.6001  -12.0624  128.1181 O   0  0  0  0  0  0  0  0  0  0  0  0
  145.7711  -14.0645  127.0413 C   0  0  0  0  0  0  0  0  0  0  0  0
  145.2069  -13.5299  128.2938 C   0  0  0  0  0  0  0  0  0  0  0  0
  145.2704  -12.0610  128.2554 C   0  0  0  0  0  0  0  0  0  0  0  0
  146.4197  -11.4865  127.5491 C   0  0  0  0  0  0  0  0  0  0  0  0
  147.5222  -12.4096  127.1890 C   0  0  0  0  0  0  0  0  0  0  0  0
  147.1997  -13.8500  127.1645 O   0  0  0  0  0  0  0  0  0  0  0  0
  146.9919  -10.4299  128.3041 O   0  0  0  0  0  0  0  0  0  0  0  0
  145.1008  -11.4588  129.4890 O   0  0  0  0  0  0  0  0  0  0  0  0
  146.1262  -13.9669  129.1949 O   0  0  0  0  0  0  0  0  0  0  0  0
  147.3674  -10.7855  129.1247 H   0  0  0  0  0  0  0  0  0  0  0  0
  145.8632  -11.6594  130.0542 H   0  0  0  0  0  0  0  0  0  0  0  0
  147.0074  -13.6567  128.9341 H   0  0  0  0  0  0  0  0  0  0  0  0
  145.4658  -15.5618  126.9515 C   0  0  0  0  0  0  0  0  0  0  0  0
  144.9272  -15.9789  128.2209 O   0  0  0  0  0  0  0  0  0  0  0  0
  145.5738  -15.7991  128.9213 H   0  0  0  0  0  0  0  0  0  0  0  0
 71 59  1  0  0  0
 71 72  1  0  0  0
 59 60  1  0  0  0
 59 64  1  0  0  0
 60 61  1  0  0  0
 60 67  1  0  0  0
 61 62  1  0  0  0
 61 66  1  0  0  0
 62 63  1  0  0  0
 62 65  1  0  0  0
 63 64  1  0  0  0
 63 58  1  0  0  0
 58 46  1  0  0  0
 46 47  1  0  0  0
 46 50  1  0  0  0
 46 45  1  0  0  0
 47 48  1  0  0  0
 47 52  1  0  0  0
 48 49  1  0  0  0
 48 51  1  0  0  0
 49 50  1  0  0  0
 49 55  1  0  0  0
 55 56  1  0  0  0
 45 44  1  0  0  0
 44  1  1  0  0  0
  1  2  1  0  0  0
  1  5  1  0  0  0
  1 13  1  0  0  0
  2  3  1  0  0  0
  2  7  1  0  0  0
  3  4  1  0  0  0
  3  6  1  0  0  0
  4  5  1  0  0  0
  4 10  1  0  0  0
 10 11  1  0  0  0
 13 14  1  0  0  0
 14 15  1  0  0  0
 15 16  1  0  0  0
 15 19  1  0  0  0
 15 27  1  0  0  0
 16 17  1  0  0  0
 16 21  1  0  0  0
 17 18  1  0  0  0
 17 20  1  0  0  0
 18 19  1  0  0  0
 18 24  1  0  0  0
 24 25  1  0  0  0
 27 28  1  0  0  0
 28 29  1  0  0  0
 29 30  1  0  0  0
 29 33  1  0  0  0
 29 38  1  0  0  0
 30 31  1  0  0  0
 30 35  1  0  0  0
 31 32  1  0  0  0
 31 34  1  0  0  0
 32 33  1  0  0  0
 32 41  1  0  0  0
 41 42  1  0  0  0
 38 39  1  0  0  0
 56 57  1  0  0  0
 51 53  1  0  0  0
 52 54  1  0  0  0
 11 12  1  0  0  0
  6  8  1  0  0  0
  7  9  1  0  0  0
 25 26  1  0  0  0
 20 22  1  0  0  0
 21 23  1  0  0  0
 42 43  1  0  0  0
 34 36  1  0  0  0
 35 37  1  0  0  0
 39 40  1  0  0  0
 65 68  1  0  0  0
 66 69  1  0  0  0
 67 70  1  0  0  0
 72 73  1  0  0  0
M  END
> <minimizedAffinity>
-8.90356

$$$$
5G61_FNY_A_544


 73 77  0  0  0  0  0  0  0  0999 V2000
  148.2400  -11.2104  127.7296 C   0  0  0  0  0  0  0  0  0  0  0  0
  148.3772  -11.8345  126.3394 C   0  0  0  0  0  0  0  0  0  0  0  0
  147.7241  -12.9141  126.3943 C   0  0  0  0  0  0  0  0  0  0  0  0
  146.5250  -12.4441  127.3002 C   0  0  0  0  0  0  0  0  0  0  0  0
  147.0063  -11.7998  128.2528 O   0  0  0  0  0  0  0  0  0  0  0  0
  147.2271  -13.3196  125.1513 O   0  0  0  0  0  0  0  0  0  0  0  0
  149.6879  -11.9960  125.9979 O   0  0  0  0  0  0  0  0  0  0  0  0
  146.6864  -12.6092  124.7719 H   0  0  0  0  0  0  0  0  0  0  0  0
  150.1267  -12.5576  126.6560 H   0  0  0  0  0  0  0  0  0  0  0  0
  145.6234  -13.5873  127.7140 C   0  0  0  0  0  0  0  0  0  0  0  0
  146.3680  -14.7583  127.6014 O   0  0  0  0  0  0  0  0  0  0  0  0
  146.6738  -14.8603  126.6866 H   0  0  0  0  0  0  0  0  0  0  0  0
  148.1654   -9.7722  127.8039 C   0  0  0  0  0  0  0  0  0  0  0  0
  149.0149   -9.1084  126.8603 O   0  0  0  0  0  0  0  0  0  0  0  0
  150.0062   -8.1392  127.2972 C   0  0  0  0  0  0  0  0  0  0  0  0
  151.4447   -8.7270  126.9180 C   0  0  0  0  0  0  0  0  0  0  0  0
  151.6285   -8.2271  125.5039 C   0  0  0  0  0  0  0  0  0  0  0  0
  151.1815   -6.9957  125.6299 C   0  0  0  0  0  0  0  0  0  0  0  0
  149.9701   -7.0332  126.6877 O   0  0  0  0  0  0  0  0  0  0  0  0
  152.9223   -8.3181  124.9919 O   0  0  0  0  0  0  0  0  0  0  0  0
  151.4317  -10.0877  126.9546 O   0  0  0  0  0  0  0  0  0  0  0  0
  153.5300   -7.8170  125.5580 H   0  0  0  0  0  0  0  0  0  0  0  0
  150.7375  -10.4205  126.3644 H   0  0  0  0  0  0  0  0  0  0  0  0
  150.6752   -6.4913  124.2879 C   0  0  0  0  0  0  0  0  0  0  0  0
  150.8836   -7.5228  123.4062 O   0  0  0  0  0  0  0  0  0  0  0  0
  151.8265   -7.7503  123.3917 H   0  0  0  0  0  0  0  0  0  0  0  0
  149.8645   -7.8471  128.7912 C   0  0  0  0  0  0  0  0  0  0  0  0
  149.1734   -6.5907  128.9839 O   0  0  0  0  0  0  0  0  0  0  0  0
  148.9413   -6.2484  130.3964 C   0  0  0  0  0  0  0  0  0  0  0  0
  148.0435   -4.9321  130.4828 C   0  0  0  0  0  0  0  0  0  0  0  0
  146.6814   -5.4869  130.3020 C   0  0  0  0  0  0  0  0  0  0  0  0
  146.7309   -6.5627  131.1198 C   0  0  0  0  0  0  0  0  0  0  0  0
  148.2411   -7.0821  131.0279 O   0  0  0  0  0  0  0  0  0  0  0  0
  145.7771   -4.5260  130.7357 O   0  0  0  0  0  0  0  0  0  0  0  0
  148.4137   -3.9693  129.5596 O   0  0  0  0  0  0  0  0  0  0  0  0
  146.0008   -4.2563  131.6402 H   0  0  0  0  0  0  0  0  0  0  0  0
  148.3684   -4.3439  128.6660 H   0  0  0  0  0  0  0  0  0  0  0  0
  150.2527   -6.0987  131.1069 C   0  0  0  0  0  0  0  0  0  0  0  0
  151.0069   -5.0023  130.7320 O   0  0  0  0  0  0  0  0  0  0  0  0
  151.2520   -5.0828  129.7970 H   0  0  0  0  0  0  0  0  0  0  0  0
  145.7664   -7.6382  130.7419 C   0  0  0  0  0  0  0  0  0  0  0  0
  144.5260   -7.4402  131.3353 O   0  0  0  0  0  0  0  0  0  0  0  0
  144.6229   -7.4567  132.3003 H   0  0  0  0  0  0  0  0  0  0  0  0
  149.3039  -11.6043  128.6009 O   0  0  0  0  0  0  0  0  0  0  0  0
  149.1862  -10.8372  129.8116 C   0  0  0  0  0  0  0  0  0  0  0  0
  149.9009  -11.4564  131.0123 C   0  0  0  0  0  0  0  0  0  0  0  0
  149.0489  -11.8773  131.7811 C   0  0  0  0  0  0  0  0  0  0  0  0
  148.5146  -10.5540  132.2411 C   0  0  0  0  0  0  0  0  0  0  0  0
  149.7386   -9.6671  132.4408 C   0  0  0  0  0  0  0  0  0  0  0  0
  150.6449  -10.3556  131.8914 O   0  0  0  0  0  0  0  0  0  0  0  0
  147.7740  -10.7064  133.4070 O   0  0  0  0  0  0  0  0  0  0  0  0
  148.0758  -12.4763  131.0019 O   0  0  0  0  0  0  0  0  0  0  0  0
  148.3313  -11.1035  134.0945 H   0  0  0  0  0  0  0  0  0  0  0  0
  147.7905  -11.8594  130.3099 H   0  0  0  0  0  0  0  0  0  0  0  0
  149.9964   -9.5136  133.9401 C   0  0  0  0  0  0  0  0  0  0  0  0
  150.6469  -10.6328  134.5126 O   0  0  0  0  0  0  0  0  0  0  0  0
  150.0854  -11.4177  134.4155 H   0  0  0  0  0  0  0  0  0  0  0  0
  150.8045  -12.4128  130.4996 O   0  0  0  0  0  0  0  0  0  0  0  0
  154.2611  -12.5462  131.5973 C   0  0  0  0  0  0  0  0  0  0  0  0
  154.2335  -13.7760  130.7850 C   0  0  0  0  0  0  0  0  0  0  0  0
  153.7877  -13.4379  129.4248 C   0  0  0  0  0  0  0  0  0  0  0  0
  152.8091  -12.3510  129.3217 C   0  0  0  0  0  0  0  0  0  0  0  0
  152.1719  -11.8936  130.5795 C   0  0  0  0  0  0  0  0  0  0  0  0
  152.8652  -12.2364  131.8369 O   0  0  0  0  0  0  0  0  0  0  0  0
  151.7630  -12.7045  128.4303 O   0  0  0  0  0  0  0  0  0  0  0  0
  153.3888  -14.5307  128.6765 O   0  0  0  0  0  0  0  0  0  0  0  0
  153.2328  -14.4634  131.3967 O   0  0  0  0  0  0  0  0  0  0  0  0
  151.2598  -13.4466  128.8004 H   0  0  0  0  0  0  0  0  0  0  0  0
  152.5722  -14.8976  129.0499 H   0  0  0  0  0  0  0  0  0  0  0  0
  152.4294  -13.9201  131.4115 H   0  0  0  0  0  0  0  0  0  0  0  0
  154.9749  -12.8339  132.9205 C   0  0  0  0  0  0  0  0  0  0  0  0
  153.9751  -13.2041  133.8895 O   0  0  0  0  0  0  0  0  0  0  0  0
  153.3384  -12.4792  133.9902 H   0  0  0  0  0  0  0  0  0  0  0  0
 71 59  1  0  0  0
 71 72  1  0  0  0
 59 60  1  0  0  0
 59 64  1  0  0  0
 60 61  1  0  0  0
 60 67  1  0  0  0
 61 62  1  0  0  0
 61 66  1  0  0  0
 62 63  1  0  0  0
 62 65  1  0  0  0
 63 64  1  0  0  0
 63 58  1  0  0  0
 58 46  1  0  0  0
 46 47  1  0  0  0
 46 50  1  0  0  0
 46 45  1  0  0  0
 47 48  1  0  0  0
 47 52  1  0  0  0
 48 49  1  0  0  0
 48 51  1  0  0  0
 49 50  1  0  0  0
 49 55  1  0  0  0
 55 56  1  0  0  0
 45 44  1  0  0  0
 44  1  1  0  0  0
  1  2  1  0  0  0
  1  5  1  0  0  0
  1 13  1  0  0  0
  2  3  1  0  0  0
  2  7  1  0  0  0
  3  4  1  0  0  0
  3  6  1  0  0  0
  4  5  1  0  0  0
  4 10  1  0  0  0
 10 11  1  0  0  0
 13 14  1  0  0  0
 14 15  1  0  0  0
 15 16  1  0  0  0
 15 19  1  0  0  0
 15 27  1  0  0  0
 16 17  1  0  0  0
 16 21  1  0  0  0
 17 18  1  0  0  0
 17 20  1  0  0  0
 18 19  1  0  0  0
 18 24  1  0  0  0
 24 25  1  0  0  0
 27 28  1  0  0  0
 28 29  1  0  0  0
 29 30  1  0  0  0
 29 33  1  0  0  0
 29 38  1  0  0  0
 30 31  1  0  0  0
 30 35  1  0  0  0
 31 32  1  0  0  0
 31 34  1  0  0  0
 32 33  1  0  0  0
 32 41  1  0  0  0
 41 42  1  0  0  0
 38 39  1  0  0  0
 56 57  1  0  0  0
 51 53  1  0  0  0
 52 54  1  0  0  0
 11 12  1  0  0  0
  6  8  1  0  0  0
  7  9  1  0  0  0
 25 26  1  0  0  0
 20 22  1  0  0  0
 21 23  1  0  0  0
 42 43  1  0  0  0
 34 36  1  0  0  0
 35 37  1  0  0  0
 39 40  1  0  0  0
 65 68  1  0  0  0
 66 69  1  0  0  0
 67 70  1  0  0  0
 72 73  1  0  0  0
M  END
> <minimizedAffinity>
-8.81221

$$$$
5G61_FNY_A_544


 73 77  0  0  0  0  0  0  0  0999 V2000
  150.9608  -10.4720  128.7719 C   0  0  0  0  0  0  0  0  0  0  0  0
  151.1209  -11.9466  129.1472 C   0  0  0  0  0  0  0  0  0  0  0  0
  152.3222  -12.0661  129.5184 C   0  0  0  0  0  0  0  0  0  0  0  0
  152.4986  -10.6918  130.2667 C   0  0  0  0  0  0  0  0  0  0  0  0
  152.0151   -9.8041  129.5369 O   0  0  0  0  0  0  0  0  0  0  0  0
  152.5148  -13.1107  130.4284 O   0  0  0  0  0  0  0  0  0  0  0  0
  150.7780  -12.7607  128.1079 O   0  0  0  0  0  0  0  0  0  0  0  0
  151.9295  -12.9866  131.1919 H   0  0  0  0  0  0  0  0  0  0  0  0
  151.3323  -12.5543  127.3391 H   0  0  0  0  0  0  0  0  0  0  0  0
  153.9291  -10.4383  130.6915 C   0  0  0  0  0  0  0  0  0  0  0  0
  154.7445  -11.2070  129.8654 O   0  0  0  0  0  0  0  0  0  0  0  0
  154.5073  -12.1431  129.9574 H   0  0  0  0  0  0  0  0  0  0  0  0
  149.6879   -9.8537  129.0495 C   0  0  0  0  0  0  0  0  0  0  0  0
  148.6128  -10.7930  129.1700 O   0  0  0  0  0  0  0  0  0  0  0  0
  147.5211  -10.8092  128.2104 C   0  0  0  0  0  0  0  0  0  0  0  0
  146.3534  -11.7070  128.8343 C   0  0  0  0  0  0  0  0  0  0  0  0
  145.5780  -10.6974  129.6484 C   0  0  0  0  0  0  0  0  0  0  0  0
  145.5617   -9.6825  128.8106 C   0  0  0  0  0  0  0  0  0  0  0  0
  146.9643   -9.6909  128.0227 O   0  0  0  0  0  0  0  0  0  0  0  0
  144.3164  -11.1060  130.0791 O   0  0  0  0  0  0  0  0  0  0  0  0
  146.8712  -12.6804  129.6327 O   0  0  0  0  0  0  0  0  0  0  0  0
  143.7721  -11.3386  129.3106 H   0  0  0  0  0  0  0  0  0  0  0  0
  147.4231  -12.2754  130.3199 H   0  0  0  0  0  0  0  0  0  0  0  0
  145.4140   -8.3802  129.5812 C   0  0  0  0  0  0  0  0  0  0  0  0
  146.4685   -7.5966  129.1824 O   0  0  0  0  0  0  0  0  0  0  0  0
  147.3020   -8.0547  129.3731 H   0  0  0  0  0  0  0  0  0  0  0  0
  147.9955  -11.3220  126.8505 C   0  0  0  0  0  0  0  0  0  0  0  0
  148.0201  -12.7687  126.8511 O   0  0  0  0  0  0  0  0  0  0  0  0
  147.9311  -13.3671  125.5094 C   0  0  0  0  0  0  0  0  0  0  0  0
  148.0392  -14.9546  125.6282 C   0  0  0  0  0  0  0  0  0  0  0  0
  146.6482  -15.3235  125.9813 C   0  0  0  0  0  0  0  0  0  0  0  0
  145.9503  -14.5608  125.1096 C   0  0  0  0  0  0  0  0  0  0  0  0
  146.8143  -13.2244  124.9467 O   0  0  0  0  0  0  0  0  0  0  0  0
  146.5014  -16.6833  125.7394 O   0  0  0  0  0  0  0  0  0  0  0  0
  149.0033  -15.3598  126.5353 O   0  0  0  0  0  0  0  0  0  0  0  0
  146.7662  -16.8798  124.8272 H   0  0  0  0  0  0  0  0  0  0  0  0
  148.8118  -14.9742  127.4045 H   0  0  0  0  0  0  0  0  0  0  0  0
  148.9863  -12.7829  124.6195 C   0  0  0  0  0  0  0  0  0  0  0  0
  150.2722  -12.8153  125.1265 O   0  0  0  0  0  0  0  0  0  0  0  0
  150.3161  -12.2759  125.9315 H   0  0  0  0  0  0  0  0  0  0  0  0
  144.5635  -14.2540  125.5702 C   0  0  0  0  0  0  0  0  0  0  0  0
  143.8367  -13.5915  124.5890 O   0  0  0  0  0  0  0  0  0  0  0  0
  144.2704  -12.7499  124.3782 H   0  0  0  0  0  0  0  0  0  0  0  0
  151.2275  -10.2402  127.3857 O   0  0  0  0  0  0  0  0  0  0  0  0
  150.9370   -8.8595  127.1079 C   0  0  0  0  0  0  0  0  0  0  0  0
  152.0250   -8.1434  126.3085 C   0  0  0  0  0  0  0  0  0  0  0  0
  151.8260   -6.9405  126.3960 C   0  0  0  0  0  0  0  0  0  0  0  0
  150.5785   -6.8772  125.5666 C   0  0  0  0  0  0  0  0  0  0  0  0
  150.8316   -7.7985  124.3785 C   0  0  0  0  0  0  0  0  0  0  0  0
  151.8791   -8.4040  124.7436 O   0  0  0  0  0  0  0  0  0  0  0  0
  150.3183   -5.5688  125.1773 O   0  0  0  0  0  0  0  0  0  0  0  0
  151.4709   -6.6940  127.7099 O   0  0  0  0  0  0  0  0  0  0  0  0
  151.0746   -5.2236  124.6775 H   0  0  0  0  0  0  0  0  0  0  0  0
  150.7486   -7.2884  127.9665 H   0  0  0  0  0  0  0  0  0  0  0  0
  151.0941   -6.9429  123.1387 C   0  0  0  0  0  0  0  0  0  0  0  0
  152.1670   -7.4195  122.3480 O   0  0  0  0  0  0  0  0  0  0  0  0
  152.9859   -7.3981  122.8674 H   0  0  0  0  0  0  0  0  0  0  0  0
  153.2644   -8.6072  126.8013 O   0  0  0  0  0  0  0  0  0  0  0  0
  156.4348   -8.0707  125.1184 C   0  0  0  0  0  0  0  0  0  0  0  0
  156.9300   -8.7711  126.3172 C   0  0  0  0  0  0  0  0  0  0  0  0
  156.2388  -10.0642  126.4325 C   0  0  0  0  0  0  0  0  0  0  0  0
  154.8485  -10.0924  125.9678 C   0  0  0  0  0  0  0  0  0  0  0  0
  154.2018   -8.7877  125.6903 C   0  0  0  0  0  0  0  0  0  0  0  0
  155.0991   -7.6351  125.4768 O   0  0  0  0  0  0  0  0  0  0  0  0
  154.0246  -10.7747  126.9003 O   0  0  0  0  0  0  0  0  0  0  0  0
  156.3521  -10.6526  127.6792 O   0  0  0  0  0  0  0  0  0  0  0  0
  156.4634   -7.9559  127.3000 O   0  0  0  0  0  0  0  0  0  0  0  0
  153.9906  -10.2728  127.7296 H   0  0  0  0  0  0  0  0  0  0  0  0
  155.8633  -10.1261  128.3309 H   0  0  0  0  0  0  0  0  0  0  0  0
  155.5032   -7.8543  127.2072 H   0  0  0  0  0  0  0  0  0  0  0  0
  157.3294   -6.8609  124.8377 C   0  0  0  0  0  0  0  0  0  0  0  0
  156.6758   -5.6949  125.3752 O   0  0  0  0  0  0  0  0  0  0  0  0
  155.8080   -5.5883  124.9552 H   0  0  0  0  0  0  0  0  0  0  0  0
 71 59  1  0  0  0
 71 72  1  0  0  0
 59 60  1  0  0  0
 59 64  1  0  0  0
 60 61  1  0  0  0
 60 67  1  0  0  0
 61 62  1  0  0  0
 61 66  1  0  0  0
 62 63  1  0  0  0
 62 65  1  0  0  0
 63 64  1  0  0  0
 63 58  1  0  0  0
 58 46  1  0  0  0
 46 47  1  0  0  0
 46 50  1  0  0  0
 46 45  1  0  0  0
 47 48  1  0  0  0
 47 52  1  0  0  0
 48 49  1  0  0  0
 48 51  1  0  0  0
 49 50  1  0  0  0
 49 55  1  0  0  0
 55 56  1  0  0  0
 45 44  1  0  0  0
 44  1  1  0  0  0
  1  2  1  0  0  0
  1  5  1  0  0  0
  1 13  1  0  0  0
  2  3  1  0  0  0
  2  7  1  0  0  0
  3  4  1  0  0  0
  3  6  1  0  0  0
  4  5  1  0  0  0
  4 10  1  0  0  0
 10 11  1  0  0  0
 13 14  1  0  0  0
 14 15  1  0  0  0
 15 16  1  0  0  0
 15 19  1  0  0  0
 15 27  1  0  0  0
 16 17  1  0  0  0
 16 21  1  0  0  0
 17 18  1  0  0  0
 17 20  1  0  0  0
 18 19  1  0  0  0
 18 24  1  0  0  0
 24 25  1  0  0  0
 27 28  1  0  0  0
 28 29  1  0  0  0
 29 30  1  0  0  0
 29 33  1  0  0  0
 29 38  1  0  0  0
 30 31  1  0  0  0
 30 35  1  0  0  0
 31 32  1  0  0  0
 31 34  1  0  0  0
 32 33  1  0  0  0
 32 41  1  0  0  0
 41 42  1  0  0  0
 38 39  1  0  0  0
 56 57  1  0  0  0
 51 53  1  0  0  0
 52 54  1  0  0  0
 11 12  1  0  0  0
  6  8  1  0  0  0
  7  9  1  0  0  0
 25 26  1  0  0  0
 20 22  1  0  0  0
 21 23  1  0  0  0
 42 43  1  0  0  0
 34 36  1  0  0  0
 35 37  1  0  0  0
 39 40  1  0  0  0
 65 68  1  0  0  0
 66 69  1  0  0  0
 67 70  1  0  0  0
 72 73  1  0  0  0
M  END
> <minimizedAffinity>
-8.77474

$$$$
5G61_FNY_A_544


 73 77  0  0  0  0  0  0  0  0999 V2000
  150.7331  -10.5076  126.3795 C   0  0  0  0  0  0  0  0  0  0  0  0
  150.9157  -11.9854  126.7315 C   0  0  0  0  0  0  0  0  0  0  0  0
  152.0692  -12.0654  127.2396 C   0  0  0  0  0  0  0  0  0  0  0  0
  152.0929  -10.7097  128.0402 C   0  0  0  0  0  0  0  0  0  0  0  0
  151.6582   -9.8204  127.2822 O   0  0  0  0  0  0  0  0  0  0  0  0
  152.2015  -13.1296  128.1376 O   0  0  0  0  0  0  0  0  0  0  0  0
  150.7353  -12.7795  125.6372 O   0  0  0  0  0  0  0  0  0  0  0  0
  151.5253  -13.0551  128.8291 H   0  0  0  0  0  0  0  0  0  0  0  0
  151.3661  -12.5251  124.9456 H   0  0  0  0  0  0  0  0  0  0  0  0
  153.4503  -10.4092  128.6387 C   0  0  0  0  0  0  0  0  0  0  0  0
  154.4023  -11.0042  127.8153 O   0  0  0  0  0  0  0  0  0  0  0  0
  154.2382  -11.9591  127.7687 H   0  0  0  0  0  0  0  0  0  0  0  0
  149.4093   -9.9534  126.5203 C   0  0  0  0  0  0  0  0  0  0  0  0
  148.5491  -10.7383  127.3549 O   0  0  0  0  0  0  0  0  0  0  0  0
  147.7341  -10.1167  128.3856 C   0  0  0  0  0  0  0  0  0  0  0  0
  148.4040  -10.4655  129.7957 C   0  0  0  0  0  0  0  0  0  0  0  0
  149.4038   -9.3441  129.9575 C   0  0  0  0  0  0  0  0  0  0  0  0
  148.6798   -8.3230  129.5507 C   0  0  0  0  0  0  0  0  0  0  0  0
  147.7288   -8.8535  128.3665 O   0  0  0  0  0  0  0  0  0  0  0  0
  149.9432   -9.1922  131.2342 O   0  0  0  0  0  0  0  0  0  0  0  0
  149.0315  -11.6723  129.7433 O   0  0  0  0  0  0  0  0  0  0  0  0
  149.2281   -9.0373  131.8711 H   0  0  0  0  0  0  0  0  0  0  0  0
  149.6827  -11.6672  129.0244 H   0  0  0  0  0  0  0  0  0  0  0  0
  149.5889   -7.2235  129.0248 C   0  0  0  0  0  0  0  0  0  0  0  0
  150.8433   -7.7792  128.9716 O   0  0  0  0  0  0  0  0  0  0  0  0
  151.0978   -8.0880  129.8552 H   0  0  0  0  0  0  0  0  0  0  0  0
  146.2819  -10.5853  128.2915 C   0  0  0  0  0  0  0  0  0  0  0  0
  146.1703  -11.6506  127.3188 O   0  0  0  0  0  0  0  0  0  0  0  0
  145.8792  -12.9677  127.9078 C   0  0  0  0  0  0  0  0  0  0  0  0
  144.6256  -13.6163  127.1637 C   0  0  0  0  0  0  0  0  0  0  0  0
  145.2615  -14.1978  125.9582 C   0  0  0  0  0  0  0  0  0  0  0  0
  146.3522  -14.7852  126.5004 C   0  0  0  0  0  0  0  0  0  0  0  0
  146.7716  -13.8344  127.7165 O   0  0  0  0  0  0  0  0  0  0  0  0
  144.3715  -15.1171  125.4177 O   0  0  0  0  0  0  0  0  0  0  0  0
  143.6182  -12.7004  126.9133 O   0  0  0  0  0  0  0  0  0  0  0  0
  144.1110  -15.7549  126.1005 H   0  0  0  0  0  0  0  0  0  0  0  0
  143.9723  -11.9658  126.3880 H   0  0  0  0  0  0  0  0  0  0  0  0
  145.6640  -12.8294  129.3848 C   0  0  0  0  0  0  0  0  0  0  0  0
  144.9867  -13.8751  129.9844 O   0  0  0  0  0  0  0  0  0  0  0  0
  144.0901  -13.9315  129.6187 H   0  0  0  0  0  0  0  0  0  0  0  0
  147.4772  -14.9518  125.5328 C   0  0  0  0  0  0  0  0  0  0  0  0
  148.7096  -14.8963  126.1715 O   0  0  0  0  0  0  0  0  0  0  0  0
  148.8137  -14.0317  126.5988 H   0  0  0  0  0  0  0  0  0  0  0  0
  151.1500  -10.2203  125.0417 O   0  0  0  0  0  0  0  0  0  0  0  0
  150.8328   -8.8443  124.7692 C   0  0  0  0  0  0  0  0  0  0  0  0
  152.0165   -8.0217  124.2615 C   0  0  0  0  0  0  0  0  0  0  0  0
  151.9961   -6.9411  124.8326 C   0  0  0  0  0  0  0  0  0  0  0  0
  150.7739   -6.3805  124.1692 C   0  0  0  0  0  0  0  0  0  0  0  0
  150.8922   -6.7703  122.7001 C   0  0  0  0  0  0  0  0  0  0  0  0
  151.8384   -7.6075  122.7335 O   0  0  0  0  0  0  0  0  0  0  0  0
  150.7098   -5.0041  124.3495 O   0  0  0  0  0  0  0  0  0  0  0  0
  151.6774   -7.1990  126.1535 O   0  0  0  0  0  0  0  0  0  0  0  0
  151.5100   -4.5929  123.9869 H   0  0  0  0  0  0  0  0  0  0  0  0
  150.8748   -7.7425  126.1923 H   0  0  0  0  0  0  0  0  0  0  0  0
  151.2811   -5.5321  121.8916 C   0  0  0  0  0  0  0  0  0  0  0  0
  150.8659   -5.5943  120.5399 O   0  0  0  0  0  0  0  0  0  0  0  0
  151.2966   -6.3461  120.1037 H   0  0  0  0  0  0  0  0  0  0  0  0
  153.1728   -8.8081  124.4575 O   0  0  0  0  0  0  0  0  0  0  0  0
  156.2769   -8.1065  126.2022 C   0  0  0  0  0  0  0  0  0  0  0  0
  156.7438   -9.2098  125.3434 C   0  0  0  0  0  0  0  0  0  0  0  0
  156.4643   -8.8713  123.9397 C   0  0  0  0  0  0  0  0  0  0  0  0
  155.2496   -8.0865  123.6983 C   0  0  0  0  0  0  0  0  0  0  0  0
  154.2991   -7.9476  124.8273 C   0  0  0  0  0  0  0  0  0  0  0  0
  154.8311   -8.2132  126.1785 O   0  0  0  0  0  0  0  0  0  0  0  0
  154.5202   -8.6199  122.6041 O   0  0  0  0  0  0  0  0  0  0  0  0
  156.5311   -9.9508  123.0774 O   0  0  0  0  0  0  0  0  0  0  0  0
  155.8906  -10.2009  125.7147 O   0  0  0  0  0  0  0  0  0  0  0  0
  154.1935   -9.5040  122.8335 H   0  0  0  0  0  0  0  0  0  0  0  0
  155.8013  -10.5612  123.2664 H   0  0  0  0  0  0  0  0  0  0  0  0
  154.9757   -9.9006  125.5977 H   0  0  0  0  0  0  0  0  0  0  0  0
  156.8009   -8.3203  127.6244 C   0  0  0  0  0  0  0  0  0  0  0  0
  158.2396   -8.2613  127.5778 O   0  0  0  0  0  0  0  0  0  0  0  0
  158.5721   -8.9486  126.9796 H   0  0  0  0  0  0  0  0  0  0  0  0
 71 59  1  0  0  0
 71 72  1  0  0  0
 59 60  1  0  0  0
 59 64  1  0  0  0
 60 61  1  0  0  0
 60 67  1  0  0  0
 61 62  1  0  0  0
 61 66  1  0  0  0
 62 63  1  0  0  0
 62 65  1  0  0  0
 63 64  1  0  0  0
 63 58  1  0  0  0
 58 46  1  0  0  0
 46 47  1  0  0  0
 46 50  1  0  0  0
 46 45  1  0  0  0
 47 48  1  0  0  0
 47 52  1  0  0  0
 48 49  1  0  0  0
 48 51  1  0  0  0
 49 50  1  0  0  0
 49 55  1  0  0  0
 55 56  1  0  0  0
 45 44  1  0  0  0
 44  1  1  0  0  0
  1  2  1  0  0  0
  1  5  1  0  0  0
  1 13  1  0  0  0
  2  3  1  0  0  0
  2  7  1  0  0  0
  3  4  1  0  0  0
  3  6  1  0  0  0
  4  5  1  0  0  0
  4 10  1  0  0  0
 10 11  1  0  0  0
 13 14  1  0  0  0
 14 15  1  0  0  0
 15 16  1  0  0  0
 15 19  1  0  0  0
 15 27  1  0  0  0
 16 17  1  0  0  0
 16 21  1  0  0  0
 17 18  1  0  0  0
 17 20  1  0  0  0
 18 19  1  0  0  0
 18 24  1  0  0  0
 24 25  1  0  0  0
 27 28  1  0  0  0
 28 29  1  0  0  0
 29 30  1  0  0  0
 29 33  1  0  0  0
 29 38  1  0  0  0
 30 31  1  0  0  0
 30 35  1  0  0  0
 31 32  1  0  0  0
 31 34  1  0  0  0
 32 33  1  0  0  0
 32 41  1  0  0  0
 41 42  1  0  0  0
 38 39  1  0  0  0
 56 57  1  0  0  0
 51 53  1  0  0  0
 52 54  1  0  0  0
 11 12  1  0  0  0
  6  8  1  0  0  0
  7  9  1  0  0  0
 25 26  1  0  0  0
 20 22  1  0  0  0
 21 23  1  0  0  0
 42 43  1  0  0  0
 34 36  1  0  0  0
 35 37  1  0  0  0
 39 40  1  0  0  0
 65 68  1  0  0  0
 66 69  1  0  0  0
 67 70  1  0  0  0
 72 73  1  0  0  0
M  END
> <minimizedAffinity>
-8.59197

$$$$
5G61_FNY_A_544


 73 77  0  0  0  0  0  0  0  0999 V2000
  149.2407  -10.9345  131.8323 C   0  0  0  0  0  0  0  0  0  0  0  0
  147.9259  -10.6868  132.5745 C   0  0  0  0  0  0  0  0  0  0  0  0
  148.1269   -9.6512  133.2690 C   0  0  0  0  0  0  0  0  0  0  0  0
  149.0178   -8.8334  132.2605 C   0  0  0  0  0  0  0  0  0  0  0  0
  149.8728   -9.6145  131.7989 O   0  0  0  0  0  0  0  0  0  0  0  0
  146.9571   -8.9315  133.5337 O   0  0  0  0  0  0  0  0  0  0  0  0
  147.5563  -11.7796  133.3023 O   0  0  0  0  0  0  0  0  0  0  0  0
  146.5202   -8.7057  132.6977 H   0  0  0  0  0  0  0  0  0  0  0  0
  148.2569  -11.9975  133.9369 H   0  0  0  0  0  0  0  0  0  0  0  0
  149.5915   -7.5755  132.8765 C   0  0  0  0  0  0  0  0  0  0  0  0
  150.7762   -7.9343  133.5137 O   0  0  0  0  0  0  0  0  0  0  0  0
  150.5901   -8.6068  134.1875 H   0  0  0  0  0  0  0  0  0  0  0  0
  149.1546  -11.4701  130.4961 C   0  0  0  0  0  0  0  0  0  0  0  0
  148.3916  -10.6507  129.6022 O   0  0  0  0  0  0  0  0  0  0  0  0
  147.7760  -11.2131  128.4116 C   0  0  0  0  0  0  0  0  0  0  0  0
  147.9918  -10.1632  127.2241 C   0  0  0  0  0  0  0  0  0  0  0  0
  149.3402  -10.5736  126.6796 C   0  0  0  0  0  0  0  0  0  0  0  0
  149.2092  -11.8832  126.6894 C   0  0  0  0  0  0  0  0  0  0  0  0
  148.3249  -12.2650  127.9779 O   0  0  0  0  0  0  0  0  0  0  0  0
  149.6801  -10.0405  125.4368 O   0  0  0  0  0  0  0  0  0  0  0  0
  148.0299   -8.8918  127.7089 O   0  0  0  0  0  0  0  0  0  0  0  0
  149.0125  -10.2968  124.7815 H   0  0  0  0  0  0  0  0  0  0  0  0
  148.7239   -8.8235  128.3832 H   0  0  0  0  0  0  0  0  0  0  0  0
  150.5776  -12.5374  126.7942 C   0  0  0  0  0  0  0  0  0  0  0  0
  150.3362  -13.8885  126.8305 O   0  0  0  0  0  0  0  0  0  0  0  0
  149.7616  -14.0942  127.5844 H   0  0  0  0  0  0  0  0  0  0  0  0
  146.3005  -11.5302  128.6563 C   0  0  0  0  0  0  0  0  0  0  0  0
  146.1584  -12.9000  129.1003 O   0  0  0  0  0  0  0  0  0  0  0  0
  145.0036  -13.5997  128.5147 C   0  0  0  0  0  0  0  0  0  0  0  0
  145.5154  -14.8509  127.6670 C   0  0  0  0  0  0  0  0  0  0  0  0
  145.7084  -15.8702  128.7251 C   0  0  0  0  0  0  0  0  0  0  0  0
  144.5752  -15.7111  129.4456 C   0  0  0  0  0  0  0  0  0  0  0  0
  144.2442  -14.1487  129.3550 O   0  0  0  0  0  0  0  0  0  0  0  0
  145.7780  -17.1105  128.1038 O   0  0  0  0  0  0  0  0  0  0  0  0
  146.6414  -14.5640  126.9145 O   0  0  0  0  0  0  0  0  0  0  0  0
  144.9969  -17.2351  127.5423 H   0  0  0  0  0  0  0  0  0  0  0  0
  147.3483  -14.2471  127.4982 H   0  0  0  0  0  0  0  0  0  0  0  0
  144.1894  -12.6437  127.6962 C   0  0  0  0  0  0  0  0  0  0  0  0
  142.8351  -12.6315  127.9741 O   0  0  0  0  0  0  0  0  0  0  0  0
  142.4554  -13.5006  127.7704 H   0  0  0  0  0  0  0  0  0  0  0  0
  144.7099  -16.1527  130.8657 C   0  0  0  0  0  0  0  0  0  0  0  0
  143.5879  -16.8543  131.2886 O   0  0  0  0  0  0  0  0  0  0  0  0
  142.8074  -16.2811  131.2308 H   0  0  0  0  0  0  0  0  0  0  0  0
  150.1107  -11.8058  132.5603 O   0  0  0  0  0  0  0  0  0  0  0  0
  151.2675  -12.0541  131.7428 C   0  0  0  0  0  0  0  0  0  0  0  0
  152.5677  -11.4934  132.3179 C   0  0  0  0  0  0  0  0  0  0  0  0
  153.2310  -11.0543  131.3898 C   0  0  0  0  0  0  0  0  0  0  0  0
  153.5803  -12.3638  130.7485 C   0  0  0  0  0  0  0  0  0  0  0  0
  153.9122  -13.3062  131.9001 C   0  0  0  0  0  0  0  0  0  0  0  0
  153.5047  -12.6446  132.8968 O   0  0  0  0  0  0  0  0  0  0  0  0
  154.6441  -12.2067  129.8682 O   0  0  0  0  0  0  0  0  0  0  0  0
  152.3492  -10.3968  130.5512 O   0  0  0  0  0  0  0  0  0  0  0  0
  155.4089  -11.8493  130.3458 H   0  0  0  0  0  0  0  0  0  0  0  0
  151.6089  -10.9852  130.3350 H   0  0  0  0  0  0  0  0  0  0  0  0
  155.4274  -13.5046  131.9533 C   0  0  0  0  0  0  0  0  0  0  0  0
  156.1169  -12.3974  132.5029 O   0  0  0  0  0  0  0  0  0  0  0  0
  155.9676  -11.6158  131.9482 H   0  0  0  0  0  0  0  0  0  0  0  0
  152.2038  -10.5649  133.3175 O   0  0  0  0  0  0  0  0  0  0  0  0
  154.6752   -9.3125  135.6616 C   0  0  0  0  0  0  0  0  0  0  0  0
  153.5679   -8.3961  135.9884 C   0  0  0  0  0  0  0  0  0  0  0  0
  152.3833   -9.1902  136.3481 C   0  0  0  0  0  0  0  0  0  0  0  0
  152.2266  -10.4652  135.6412 C   0  0  0  0  0  0  0  0  0  0  0  0
  153.1012  -10.6993  134.4674 C   0  0  0  0  0  0  0  0  0  0  0  0
  154.3184   -9.8696  134.3715 O   0  0  0  0  0  0  0  0  0  0  0  0
  150.8875  -10.6304  135.2014 O   0  0  0  0  0  0  0  0  0  0  0  0
  151.2008   -8.4727  136.3351 O   0  0  0  0  0  0  0  0  0  0  0  0
  153.3403   -7.8277  134.7747 O   0  0  0  0  0  0  0  0  0  0  0  0
  150.6814   -9.9583  134.5331 H   0  0  0  0  0  0  0  0  0  0  0  0
  150.9834   -8.2242  135.4230 H   0  0  0  0  0  0  0  0  0  0  0  0
  153.1667   -8.5221  134.1200 H   0  0  0  0  0  0  0  0  0  0  0  0
  155.9749   -8.5113  135.5518 C   0  0  0  0  0  0  0  0  0  0  0  0
  156.3133   -8.4092  134.1552 O   0  0  0  0  0  0  0  0  0  0  0  0
  156.4225   -9.2983  133.7831 H   0  0  0  0  0  0  0  0  0  0  0  0
 71 59  1  0  0  0
 71 72  1  0  0  0
 59 60  1  0  0  0
 59 64  1  0  0  0
 60 61  1  0  0  0
 60 67  1  0  0  0
 61 62  1  0  0  0
 61 66  1  0  0  0
 62 63  1  0  0  0
 62 65  1  0  0  0
 63 64  1  0  0  0
 63 58  1  0  0  0
 58 46  1  0  0  0
 46 47  1  0  0  0
 46 50  1  0  0  0
 46 45  1  0  0  0
 47 48  1  0  0  0
 47 52  1  0  0  0
 48 49  1  0  0  0
 48 51  1  0  0  0
 49 50  1  0  0  0
 49 55  1  0  0  0
 55 56  1  0  0  0
 45 44  1  0  0  0
 44  1  1  0  0  0
  1  2  1  0  0  0
  1  5  1  0  0  0
  1 13  1  0  0  0
  2  3  1  0  0  0
  2  7  1  0  0  0
  3  4  1  0  0  0
  3  6  1  0  0  0
  4  5  1  0  0  0
  4 10  1  0  0  0
 10 11  1  0  0  0
 13 14  1  0  0  0
 14 15  1  0  0  0
 15 16  1  0  0  0
 15 19  1  0  0  0
 15 27  1  0  0  0
 16 17  1  0  0  0
 16 21  1  0  0  0
 17 18  1  0  0  0
 17 20  1  0  0  0
 18 19  1  0  0  0
 18 24  1  0  0  0
 24 25  1  0  0  0
 27 28  1  0  0  0
 28 29  1  0  0  0
 29 30  1  0  0  0
 29 33  1  0  0  0
 29 38  1  0  0  0
 30 31  1  0  0  0
 30 35  1  0  0  0
 31 32  1  0  0  0
 31 34  1  0  0  0
 32 33  1  0  0  0
 32 41  1  0  0  0
 41 42  1  0  0  0
 38 39  1  0  0  0
 56 57  1  0  0  0
 51 53  1  0  0  0
 52 54  1  0  0  0
 11 12  1  0  0  0
  6  8  1  0  0  0
  7  9  1  0  0  0
 25 26  1  0  0  0
 20 22  1  0  0  0
 21 23  1  0  0  0
 42 43  1  0  0  0
 34 36  1  0  0  0
 35 37  1  0  0  0
 39 40  1  0  0  0
 65 68  1  0  0  0
 66 69  1  0  0  0
 67 70  1  0  0  0
 72 73  1  0  0  0
M  END
> <minimizedAffinity>
-8.52011

$$$$
5G61_FNY_A_544


 73 77  0  0  0  0  0  0  0  0999 V2000
  151.8505  -11.6318  130.0171 C   0  0  0  0  0  0  0  0  0  0  0  0
  152.0733  -12.3792  131.3333 C   0  0  0  0  0  0  0  0  0  0  0  0
  152.8672  -13.3199  131.0506 C   0  0  0  0  0  0  0  0  0  0  0  0
  153.7884  -12.5764  130.0122 C   0  0  0  0  0  0  0  0  0  0  0  0
  153.0433  -11.9523  129.2313 O   0  0  0  0  0  0  0  0  0  0  0  0
  153.6434  -13.7300  132.1395 O   0  0  0  0  0  0  0  0  0  0  0  0
  150.8907  -12.7945  131.8716 O   0  0  0  0  0  0  0  0  0  0  0  0
  154.1258  -12.9685  132.4977 H   0  0  0  0  0  0  0  0  0  0  0  0
  150.4321  -13.3698  131.2395 H   0  0  0  0  0  0  0  0  0  0  0  0
  154.7669  -13.5073  129.3290 C   0  0  0  0  0  0  0  0  0  0  0  0
  154.2046  -14.7807  129.3501 O   0  0  0  0  0  0  0  0  0  0  0  0
  154.0426  -15.0475  130.2685 H   0  0  0  0  0  0  0  0  0  0  0  0
  151.6818  -10.2014  130.0896 C   0  0  0  0  0  0  0  0  0  0  0  0
  150.6447   -9.7953  130.9907 O   0  0  0  0  0  0  0  0  0  0  0  0
  150.8883   -8.7847  132.0067 C   0  0  0  0  0  0  0  0  0  0  0  0
  150.1744   -9.2796  133.3499 C   0  0  0  0  0  0  0  0  0  0  0  0
  151.2498  -10.1295  133.9857 C   0  0  0  0  0  0  0  0  0  0  0  0
  152.3049   -9.3723  133.7722 C   0  0  0  0  0  0  0  0  0  0  0  0
  152.0983   -8.6562  132.3466 O   0  0  0  0  0  0  0  0  0  0  0  0
  151.0458  -10.4649  135.3237 O   0  0  0  0  0  0  0  0  0  0  0  0
  149.0729  -10.0254  133.0610 O   0  0  0  0  0  0  0  0  0  0  0  0
  150.9663   -9.6550  135.8515 H   0  0  0  0  0  0  0  0  0  0  0  0
  149.3258  -10.7680  132.4906 H   0  0  0  0  0  0  0  0  0  0  0  0
  153.5582  -10.2324  133.7374 C   0  0  0  0  0  0  0  0  0  0  0  0
  154.2056   -9.8901  132.5760 O   0  0  0  0  0  0  0  0  0  0  0  0
  153.6188  -10.0485  131.8200 H   0  0  0  0  0  0  0  0  0  0  0  0
  150.3909   -7.4145  131.5458 C   0  0  0  0  0  0  0  0  0  0  0  0
  148.9824   -7.2754  131.8462 O   0  0  0  0  0  0  0  0  0  0  0  0
  148.1482   -6.9802  130.6701 C   0  0  0  0  0  0  0  0  0  0  0  0
  146.7859   -6.2978  131.1437 C   0  0  0  0  0  0  0  0  0  0  0  0
  147.2019   -4.8857  131.3131 C   0  0  0  0  0  0  0  0  0  0  0  0
  147.9267   -4.6940  130.1877 C   0  0  0  0  0  0  0  0  0  0  0  0
  148.6224   -6.1054  129.8994 O   0  0  0  0  0  0  0  0  0  0  0  0
  146.0495   -4.1109  131.3459 O   0  0  0  0  0  0  0  0  0  0  0  0
  146.2527   -6.8933  132.2740 O   0  0  0  0  0  0  0  0  0  0  0  0
  145.5129   -4.2961  130.5594 H   0  0  0  0  0  0  0  0  0  0  0  0
  146.9046   -6.8661  132.9918 H   0  0  0  0  0  0  0  0  0  0  0  0
  147.9203   -8.2329  129.8792 C   0  0  0  0  0  0  0  0  0  0  0  0
  147.6041   -9.3538  130.6243 O   0  0  0  0  0  0  0  0  0  0  0  0
  148.3469   -9.5741  131.2080 H   0  0  0  0  0  0  0  0  0  0  0  0
  148.9430   -3.6076  130.3162 C   0  0  0  0  0  0  0  0  0  0  0  0
  148.3438   -2.3756  130.5464 O   0  0  0  0  0  0  0  0  0  0  0  0
  147.7663   -2.1524  129.7998 H   0  0  0  0  0  0  0  0  0  0  0  0
  150.7195  -12.1350  129.3002 O   0  0  0  0  0  0  0  0  0  0  0  0
  150.9611  -11.9273  127.8979 C   0  0  0  0  0  0  0  0  0  0  0  0
  149.7030  -11.6101  127.0901 C   0  0  0  0  0  0  0  0  0  0  0  0
  150.0240  -11.5192  125.9142 C   0  0  0  0  0  0  0  0  0  0  0  0
  150.8002  -10.2401  126.0108 C   0  0  0  0  0  0  0  0  0  0  0  0
  149.9867   -9.3380  126.9321 C   0  0  0  0  0  0  0  0  0  0  0  0
  149.1459  -10.1520  127.4091 O   0  0  0  0  0  0  0  0  0  0  0  0
  150.9826   -9.6846  124.7500 O   0  0  0  0  0  0  0  0  0  0  0  0
  150.9243  -12.5407  125.6710 O   0  0  0  0  0  0  0  0  0  0  0  0
  150.1186   -9.5257  124.3387 H   0  0  0  0  0  0  0  0  0  0  0  0
  151.6325  -12.5119  126.3331 H   0  0  0  0  0  0  0  0  0  0  0  0
  149.2970   -8.2655  126.0883 C   0  0  0  0  0  0  0  0  0  0  0  0
  149.9542   -7.0126  126.1312 O   0  0  0  0  0  0  0  0  0  0  0  0
  149.9547   -6.6787  127.0420 H   0  0  0  0  0  0  0  0  0  0  0  0
  148.7561  -12.6102  127.4019 O   0  0  0  0  0  0  0  0  0  0  0  0
  145.4365  -13.2418  126.0780 C   0  0  0  0  0  0  0  0  0  0  0  0
  145.3264  -13.9998  127.3374 C   0  0  0  0  0  0  0  0  0  0  0  0
  145.6350  -13.1028  128.4613 C   0  0  0  0  0  0  0  0  0  0  0  0
  146.6395  -12.0674  128.1990 C   0  0  0  0  0  0  0  0  0  0  0  0
  147.4274  -12.1911  126.9495 C   0  0  0  0  0  0  0  0  0  0  0  0
  146.8615  -13.0508  125.8912 O   0  0  0  0  0  0  0  0  0  0  0  0
  147.5676  -11.9900  129.2697 O   0  0  0  0  0  0  0  0  0  0  0  0
  145.9061  -13.7608  129.6474 O   0  0  0  0  0  0  0  0  0  0  0  0
  146.3592  -14.8732  127.2008 O   0  0  0  0  0  0  0  0  0  0  0  0
  148.0778  -12.8137  129.3155 H   0  0  0  0  0  0  0  0  0  0  0  0
  146.7431  -14.2442  129.5650 H   0  0  0  0  0  0  0  0  0  0  0  0
  147.1806  -14.3809  127.0464 H   0  0  0  0  0  0  0  0  0  0  0  0
  144.8597  -14.0803  124.9347 C   0  0  0  0  0  0  0  0  0  0  0  0
  144.1026  -15.1588  125.5172 O   0  0  0  0  0  0  0  0  0  0  0  0
  144.6833  -15.6943  126.0802 H   0  0  0  0  0  0  0  0  0  0  0  0
 71 59  1  0  0  0
 71 72  1  0  0  0
 59 60  1  0  0  0
 59 64  1  0  0  0
 60 61  1  0  0  0
 60 67  1  0  0  0
 61 62  1  0  0  0
 61 66  1  0  0  0
 62 63  1  0  0  0
 62 65  1  0  0  0
 63 64  1  0  0  0
 63 58  1  0  0  0
 58 46  1  0  0  0
 46 47  1  0  0  0
 46 50  1  0  0  0
 46 45  1  0  0  0
 47 48  1  0  0  0
 47 52  1  0  0  0
 48 49  1  0  0  0
 48 51  1  0  0  0
 49 50  1  0  0  0
 49 55  1  0  0  0
 55 56  1  0  0  0
 45 44  1  0  0  0
 44  1  1  0  0  0
  1  2  1  0  0  0
  1  5  1  0  0  0
  1 13  1  0  0  0
  2  3  1  0  0  0
  2  7  1  0  0  0
  3  4  1  0  0  0
  3  6  1  0  0  0
  4  5  1  0  0  0
  4 10  1  0  0  0
 10 11  1  0  0  0
 13 14  1  0  0  0
 14 15  1  0  0  0
 15 16  1  0  0  0
 15 19  1  0  0  0
 15 27  1  0  0  0
 16 17  1  0  0  0
 16 21  1  0  0  0
 17 18  1  0  0  0
 17 20  1  0  0  0
 18 19  1  0  0  0
 18 24  1  0  0  0
 24 25  1  0  0  0
 27 28  1  0  0  0
 28 29  1  0  0  0
 29 30  1  0  0  0
 29 33  1  0  0  0
 29 38  1  0  0  0
 30 31  1  0  0  0
 30 35  1  0  0  0
 31 32  1  0  0  0
 31 34  1  0  0  0
 32 33  1  0  0  0
 32 41  1  0  0  0
 41 42  1  0  0  0
 38 39  1  0  0  0
 56 57  1  0  0  0
 51 53  1  0  0  0
 52 54  1  0  0  0
 11 12  1  0  0  0
  6  8  1  0  0  0
  7  9  1  0  0  0
 25 26  1  0  0  0
 20 22  1  0  0  0
 21 23  1  0  0  0
 42 43  1  0  0  0
 34 36  1  0  0  0
 35 37  1  0  0  0
 39 40  1  0  0  0
 65 68  1  0  0  0
 66 69  1  0  0  0
 67 70  1  0  0  0
 72 73  1  0  0  0
M  END
> <minimizedAffinity>
-8.51467

$$$$
5G61_FNY_A_544


 73 77  0  0  0  0  0  0  0  0999 V2000
  148.1154   -7.4335  130.2116 C   0  0  0  0  0  0  0  0  0  0  0  0
  147.8957   -6.2900  131.2041 C   0  0  0  0  0  0  0  0  0  0  0  0
  146.8064   -5.7536  130.8566 C   0  0  0  0  0  0  0  0  0  0  0  0
  146.0070   -7.0432  130.4352 C   0  0  0  0  0  0  0  0  0  0  0  0
  146.7660   -7.7411  129.7344 O   0  0  0  0  0  0  0  0  0  0  0  0
  146.1399   -5.1275  131.9150 O   0  0  0  0  0  0  0  0  0  0  0  0
  148.9574   -5.4336  131.2135 O   0  0  0  0  0  0  0  0  0  0  0  0
  145.9959   -5.7670  132.6299 H   0  0  0  0  0  0  0  0  0  0  0  0
  149.0916   -5.0752  130.3222 H   0  0  0  0  0  0  0  0  0  0  0  0
  144.6797   -6.7198  129.7835 C   0  0  0  0  0  0  0  0  0  0  0  0
  144.8151   -5.4763  129.1722 O   0  0  0  0  0  0  0  0  0  0  0  0
  145.0548   -4.8130  129.8382 H   0  0  0  0  0  0  0  0  0  0  0  0
  148.7426   -8.6317  130.7122 C   0  0  0  0  0  0  0  0  0  0  0  0
  148.0359   -9.8300  130.3700 O   0  0  0  0  0  0  0  0  0  0  0  0
  147.9240  -10.9293  131.3143 C   0  0  0  0  0  0  0  0  0  0  0  0
  149.1506  -11.9186  131.0394 C   0  0  0  0  0  0  0  0  0  0  0  0
  150.2358  -11.3270  131.9087 C   0  0  0  0  0  0  0  0  0  0  0  0
  149.5447  -11.0557  132.9954 C   0  0  0  0  0  0  0  0  0  0  0  0
  148.0738  -10.6042  132.5258 O   0  0  0  0  0  0  0  0  0  0  0  0
  151.3493  -12.1379  132.1246 O   0  0  0  0  0  0  0  0  0  0  0  0
  149.5080  -11.8863  129.7263 O   0  0  0  0  0  0  0  0  0  0  0  0
  151.0685  -12.9697  132.5371 H   0  0  0  0  0  0  0  0  0  0  0  0
  149.7142  -10.9738  129.4697 H   0  0  0  0  0  0  0  0  0  0  0  0
  150.2098   -9.9218  133.7595 C   0  0  0  0  0  0  0  0  0  0  0  0
  150.8428  -10.5177  134.8222 O   0  0  0  0  0  0  0  0  0  0  0  0
  150.1930  -11.0013  135.3558 H   0  0  0  0  0  0  0  0  0  0  0  0
  146.5677  -11.6235  131.1876 C   0  0  0  0  0  0  0  0  0  0  0  0
  146.6136  -12.6034  130.1240 O   0  0  0  0  0  0  0  0  0  0  0  0
  145.5106  -12.4856  129.1567 C   0  0  0  0  0  0  0  0  0  0  0  0
  146.0722  -11.9079  127.7794 C   0  0  0  0  0  0  0  0  0  0  0  0
  146.6171  -13.1300  127.1427 C   0  0  0  0  0  0  0  0  0  0  0  0
  145.6165  -14.0094  127.3749 C   0  0  0  0  0  0  0  0  0  0  0  0
  145.0139  -13.5838  128.7943 O   0  0  0  0  0  0  0  0  0  0  0  0
  146.7874  -12.8575  125.7914 O   0  0  0  0  0  0  0  0  0  0  0  0
  146.9844  -10.8825  127.9605 O   0  0  0  0  0  0  0  0  0  0  0  0
  145.9533  -12.5303  125.4199 H   0  0  0  0  0  0  0  0  0  0  0  0
  147.7178  -11.1958  128.5126 H   0  0  0  0  0  0  0  0  0  0  0  0
  144.4157  -11.6391  129.7325 C   0  0  0  0  0  0  0  0  0  0  0  0
  143.1431  -11.9256  129.2740 O   0  0  0  0  0  0  0  0  0  0  0  0
  143.0972  -11.7556  128.3202 H   0  0  0  0  0  0  0  0  0  0  0  0
  146.0697  -15.4321  127.3857 C   0  0  0  0  0  0  0  0  0  0  0  0
  147.3813  -15.5513  126.9435 O   0  0  0  0  0  0  0  0  0  0  0  0
  147.4454  -15.2283  126.0311 H   0  0  0  0  0  0  0  0  0  0  0  0
  148.8844   -7.0192  129.0788 O   0  0  0  0  0  0  0  0  0  0  0  0
  149.5918   -8.1695  128.5843 C   0  0  0  0  0  0  0  0  0  0  0  0
  150.0323   -8.0495  127.1258 C   0  0  0  0  0  0  0  0  0  0  0  0
  149.2897   -8.7465  126.4500 C   0  0  0  0  0  0  0  0  0  0  0  0
  149.7692  -10.0837  126.9296 C   0  0  0  0  0  0  0  0  0  0  0  0
  151.2872   -9.9678  127.0100 C   0  0  0  0  0  0  0  0  0  0  0  0
  151.4554   -8.7220  126.8793 O   0  0  0  0  0  0  0  0  0  0  0  0
  149.3591  -11.0883  126.0614 O   0  0  0  0  0  0  0  0  0  0  0  0
  148.0119   -8.5555  126.9437 O   0  0  0  0  0  0  0  0  0  0  0  0
  149.7000  -10.9059  125.1718 H   0  0  0  0  0  0  0  0  0  0  0  0
  148.0113   -8.6980  127.9032 H   0  0  0  0  0  0  0  0  0  0  0  0
  151.9026  -10.7323  125.8375 C   0  0  0  0  0  0  0  0  0  0  0  0
  152.0592   -9.9404  124.6748 O   0  0  0  0  0  0  0  0  0  0  0  0
  151.1895   -9.6368  124.3708 H   0  0  0  0  0  0  0  0  0  0  0  0
  150.0459   -6.6717  126.8167 O   0  0  0  0  0  0  0  0  0  0  0  0
  152.4524   -5.6637  124.2940 C   0  0  0  0  0  0  0  0  0  0  0  0
  151.5300   -4.5179  124.1981 C   0  0  0  0  0  0  0  0  0  0  0  0
  151.3897   -3.9073  125.5288 C   0  0  0  0  0  0  0  0  0  0  0  0
  151.4563   -4.8282  126.6678 C   0  0  0  0  0  0  0  0  0  0  0  0
  151.3842   -6.2785  126.3696 C   0  0  0  0  0  0  0  0  0  0  0  0
  151.6919   -6.6868  124.9847 O   0  0  0  0  0  0  0  0  0  0  0  0
  150.4252   -4.5438  127.6003 O   0  0  0  0  0  0  0  0  0  0  0  0
  150.3035   -3.0590  125.6459 O   0  0  0  0  0  0  0  0  0  0  0  0
  150.3648   -5.1524  123.9017 O   0  0  0  0  0  0  0  0  0  0  0  0
  149.5631   -4.7255  127.1945 H   0  0  0  0  0  0  0  0  0  0  0  0
  149.4835   -3.5746  125.5947 H   0  0  0  0  0  0  0  0  0  0  0  0
  150.1784   -5.8199  124.5804 H   0  0  0  0  0  0  0  0  0  0  0  0
  152.8164   -6.1352  122.8839 C   0  0  0  0  0  0  0  0  0  0  0  0
  151.9911   -7.2743  122.5730 O   0  0  0  0  0  0  0  0  0  0  0  0
  152.1496   -7.9757  123.2240 H   0  0  0  0  0  0  0  0  0  0  0  0
 71 59  1  0  0  0
 71 72  1  0  0  0
 59 60  1  0  0  0
 59 64  1  0  0  0
 60 61  1  0  0  0
 60 67  1  0  0  0
 61 62  1  0  0  0
 61 66  1  0  0  0
 62 63  1  0  0  0
 62 65  1  0  0  0
 63 64  1  0  0  0
 63 58  1  0  0  0
 58 46  1  0  0  0
 46 47  1  0  0  0
 46 50  1  0  0  0
 46 45  1  0  0  0
 47 48  1  0  0  0
 47 52  1  0  0  0
 48 49  1  0  0  0
 48 51  1  0  0  0
 49 50  1  0  0  0
 49 55  1  0  0  0
 55 56  1  0  0  0
 45 44  1  0  0  0
 44  1  1  0  0  0
  1  2  1  0  0  0
  1  5  1  0  0  0
  1 13  1  0  0  0
  2  3  1  0  0  0
  2  7  1  0  0  0
  3  4  1  0  0  0
  3  6  1  0  0  0
  4  5  1  0  0  0
  4 10  1  0  0  0
 10 11  1  0  0  0
 13 14  1  0  0  0
 14 15  1  0  0  0
 15 16  1  0  0  0
 15 19  1  0  0  0
 15 27  1  0  0  0
 16 17  1  0  0  0
 16 21  1  0  0  0
 17 18  1  0  0  0
 17 20  1  0  0  0
 18 19  1  0  0  0
 18 24  1  0  0  0
 24 25  1  0  0  0
 27 28  1  0  0  0
 28 29  1  0  0  0
 29 30  1  0  0  0
 29 33  1  0  0  0
 29 38  1  0  0  0
 30 31  1  0  0  0
 30 35  1  0  0  0
 31 32  1  0  0  0
 31 34  1  0  0  0
 32 33  1  0  0  0
 32 41  1  0  0  0
 41 42  1  0  0  0
 38 39  1  0  0  0
 56 57  1  0  0  0
 51 53  1  0  0  0
 52 54  1  0  0  0
 11 12  1  0  0  0
  6  8  1  0  0  0
  7  9  1  0  0  0
 25 26  1  0  0  0
 20 22  1  0  0  0
 21 23  1  0  0  0
 42 43  1  0  0  0
 34 36  1  0  0  0
 35 37  1  0  0  0
 39 40  1  0  0  0
 65 68  1  0  0  0
 66 69  1  0  0  0
 67 70  1  0  0  0
 72 73  1  0  0  0
M  END
> <minimizedAffinity>
-8.46893

$$$$
