5G61_FNY_A_544
  RCSB PDB12061717483D
Coordinates from PDB:5G61:A:544 Model:1 without hydrogens
 56 60  0  0  0  0            999 V2000
  154.7620   -5.0910  132.8010   C 0  0  0  0  0  0  0  0  0  0  0  0
  155.1600   -6.4440  132.2060   C 0  0  0  0  0  0  0  0  0  0  0  0
  154.8900   -7.5050  133.1930   C 0  0  0  0  0  0  0  0  0  0  0  0
  155.5080   -8.7560  132.7280   C 0  0  0  0  0  0  0  0  0  0  0  0
  155.5340   -8.9580  131.2760   C 0  0  0  0  0  0  0  0  0  0  0  0
  154.7130   -8.0400  130.4510   C 0  0  0  0  0  0  0  0  0  0  0  0
  154.3060   -6.7680  131.0800   O 0  0  0  0  0  0  0  0  0  0  0  0
  153.5870   -8.8650  130.0070   O 0  0  0  0  0  0  0  0  0  0  0  0
  152.3840   -8.1360  130.1310   C 0  0  0  0  0  0  0  0  0  0  0  0
  152.1810   -7.6110  131.2160   C 0  0  0  0  0  0  0  0  0  0  0  0
  150.9920   -6.7850  130.8260   C 0  0  0  0  0  0  0  0  0  0  0  0
  151.3230   -6.2180  129.4500   C 0  0  0  0  0  0  0  0  0  0  0  0
  152.3430   -6.8940  129.1340   O 0  0  0  0  0  0  0  0  0  0  0  0
  151.6690   -4.7360  129.5980   C 0  0  0  0  0  0  0  0  0  0  0  0
  151.7330   -4.0510  128.3610   O 0  0  0  0  0  0  0  0  0  0  0  0
  150.7600   -5.7900  131.7680   O 0  0  0  0  0  0  0  0  0  0  0  0
  151.7390   -8.6120  132.0620   O 0  0  0  0  0  0  0  0  0  0  0  0
  151.2440   -9.1180  129.8630   C 0  0  0  0  0  0  0  0  0  0  0  0
  151.3310  -10.3370  130.6210   O 0  0  0  0  0  0  0  0  0  0  0  0
  150.0110  -10.8770  130.7320   C 0  0  0  0  0  0  0  0  0  0  0  0
  149.9630  -12.0840  131.6710   C 0  0  0  0  0  0  0  0  0  0  0  0
  149.6960  -11.6080  132.8100   C 0  0  0  0  0  0  0  0  0  0  0  0
  148.6880  -10.4750  132.3860   C 0  0  0  0  0  0  0  0  0  0  0  0
  149.1860   -9.8770  131.4120   O 0  0  0  0  0  0  0  0  0  0  0  0
  148.3040   -9.5740  133.5400   C 0  0  0  0  0  0  0  0  0  0  0  0
  149.3800   -8.7210  133.7700   O 0  0  0  0  0  0  0  0  0  0  0  0
  149.0380  -12.5170  133.6450   O 0  0  0  0  0  0  0  0  0  0  0  0
  151.1280  -12.7920  131.6250   O 0  0  0  0  0  0  0  0  0  0  0  0
  149.5360  -11.0690  129.3840   C 0  0  0  0  0  0  0  0  0  0  0  0
  148.2390  -11.6740  129.3180   O 0  0  0  0  0  0  0  0  0  0  0  0
  147.2580  -11.2380  128.3380   C 0  0  0  0  0  0  0  0  0  0  0  0
  145.8920  -12.0060  128.6590   C 0  0  0  0  0  0  0  0  0  0  0  0
  145.2420  -11.0880  129.6680   C 0  0  0  0  0  0  0  0  0  0  0  0
  145.4910   -9.9190  129.1170   C 0  0  0  0  0  0  0  0  0  0  0  0
  146.9360  -10.0190  128.4170   O 0  0  0  0  0  0  0  0  0  0  0  0
  145.5130   -8.8390  130.1870   C 0  0  0  0  0  0  0  0  0  0  0  0
  146.0230   -7.7230  129.5710   O 0  0  0  0  0  0  0  0  0  0  0  0
  143.8920  -11.3260  129.9230   O 0  0  0  0  0  0  0  0  0  0  0  0
  146.1450  -13.2270  129.2050   O 0  0  0  0  0  0  0  0  0  0  0  0
  147.7560  -11.4920  126.9150   C 0  0  0  0  0  0  0  0  0  0  0  0
  148.1530  -12.8760  126.7720   O 0  0  0  0  0  0  0  0  0  0  0  0
  148.0130  -13.3980  125.4030   C 0  0  0  0  0  0  0  0  0  0  0  0
  148.0400  -14.9930  125.4380   C 0  0  0  0  0  0  0  0  0  0  0  0
  146.6370  -15.3080  125.7960   C 0  0  0  0  0  0  0  0  0  0  0  0
  145.9670  -14.4660  124.9770   C 0  0  0  0  0  0  0  0  0  0  0  0
  146.8970  -13.1690  124.8680   O 0  0  0  0  0  0  0  0  0  0  0  0
  144.6050  -14.1130  125.4770   C 0  0  0  0  0  0  0  0  0  0  0  0
  143.9630  -13.2270  124.6210   O 0  0  0  0  0  0  0  0  0  0  0  0
  146.4160  -16.6440  125.4870   O 0  0  0  0  0  0  0  0  0  0  0  0
  148.9950  -15.4940  126.3060   O 0  0  0  0  0  0  0  0  0  0  0  0
  149.0840  -12.8230  124.5260   C 0  0  0  0  0  0  0  0  0  0  0  0
  150.3810  -13.0940  124.9210   O 0  0  0  0  0  0  0  0  0  0  0  0
  155.1350  -10.2800  130.9490   O 0  0  0  0  0  0  0  0  0  0  0  0
  155.0410   -9.8870  133.3730   O 0  0  0  0  0  0  0  0  0  0  0  0
  153.5420   -7.6310  133.0700   O 0  0  0  0  0  0  0  0  0  0  0  0
  154.6810   -4.1410  131.7210   O 0  0  0  0  0  0  0  0  0  0  0  0
  1  2  1  0  0  0  0
  1 56  1  0  0  0  0
  2  3  1  0  0  0  0
  2  7  1  0  0  0  0
  3  4  1  0  0  0  0
  3 55  1  0  0  0  0
  4  5  1  0  0  0  0
  4 54  1  0  0  0  0
  5  6  1  0  0  0  0
  5 53  1  0  0  0  0
  6  7  1  0  0  0  0
  6  8  1  0  0  0  0
  8  9  1  0  0  0  0
  9 10  1  0  0  0  0
  9 13  1  0  0  0  0
  9 18  1  0  0  0  0
 10 11  1  0  0  0  0
 10 17  1  0  0  0  0
 11 12  1  0  0  0  0
 11 16  1  0  0  0  0
 12 13  1  0  0  0  0
 12 14  1  0  0  0  0
 14 15  1  0  0  0  0
 18 19  1  0  0  0  0
 19 20  1  0  0  0  0
 20 21  1  0  0  0  0
 20 24  1  0  0  0  0
 20 29  1  0  0  0  0
 21 22  1  0  0  0  0
 21 28  1  0  0  0  0
 22 23  1  0  0  0  0
 22 27  1  0  0  0  0
 23 24  1  0  0  0  0
 23 25  1  0  0  0  0
 25 26  1  0  0  0  0
 29 30  1  0  0  0  0
 30 31  1  0  0  0  0
 31 32  1  0  0  0  0
 31 35  1  0  0  0  0
 31 40  1  0  0  0  0
 32 33  1  0  0  0  0
 32 39  1  0  0  0  0
 33 34  1  0  0  0  0
 33 38  1  0  0  0  0
 34 35  1  0  0  0  0
 34 36  1  0  0  0  0
 36 37  1  0  0  0  0
 40 41  1  0  0  0  0
 41 42  1  0  0  0  0
 42 43  1  0  0  0  0
 42 46  1  0  0  0  0
 42 51  1  0  0  0  0
 43 44  1  0  0  0  0
 43 50  1  0  0  0  0
 44 45  1  0  0  0  0
 44 49  1  0  0  0  0
 45 46  1  0  0  0  0
 45 47  1  0  0  0  0
 47 48  1  0  0  0  0
 51 52  1  0  0  0  0
A    1
C01
A    2
C02
A    3
C03
A    4
C04
A    5
C05
A    6
C06
A    7
O07
A    8
O08
A    9
C09
A   10
C10
A   11
C11
A   12
C12
A   13
O13
A   14
C14
A   15
O15
A   16
O16
A   17
O17
A   18
C18
A   19
O19
A   20
C20
A   21
C21
A   22
C22
A   23
C23
A   24
O24
A   25
C25
A   26
O26
A   27
O27
A   28
O28
A   29
C29
A   30
O30
A   31
C31
A   32
C32
A   33
C33
A   34
C34
A   35
O35
A   36
C36
A   37
O37
A   38
O38
A   39
O39
A   40
C40
A   41
O41
A   42
C42
A   43
C43
A   44
C44
A   45
C45
A   46
O46
A   47
C47
A   48
O48
A   49
O49
A   50
O50
A   51
C51
A   52
O52
A   53
O53
A   54
O54
A   55
O55
A   56
O56
M  END
>  <InstanceId>
5G61_FNY_A_544

>  <ChemCompId>
FNY

>  <PdbId>
5G61

>  <ChainId>
A

>  <ResidueNumber>
544

>  <InsertionCode>


>  <Model>
1

>  <AltIds>


>  <MissingHeavyAtoms>
0

>  <ObservedFormula>
C30 O26

>  <Name>
1-FRUCTOFURANOSYL-D-NYSTOSE

>  <SystematicName>
(2R,3R,4R,5S,6S)-2-[(2S,3R,4R,5R)-2-[[(2R,3S,4S,5R)-2-[[(2R,3S,4S,5R)-2-[[(2R,3S,4S,5R)-2,5-bis(hydroxymethyl)-3,4-bis(oxidanyl)oxolan-2-yl]oxymethyl]-5-(hydroxymethyl)-3,4-bis(oxidanyl)oxolan-2-yl]oxymethyl]-5-(hydroxymethyl)-3,4-bis(oxidanyl)oxolan-2-yl]oxymethyl]-5-(hydroxymethyl)-3,4-bis(oxidanyl)oxolan-2-yl]oxy-6-(hydroxymethyl)oxane-3,4,5-triol

>  <Synonyms>


>  <Type>
non-polymer

>  <Formula>
C30 H52 O26

>  <MolecularWeight>
828.718

>  <ModifiedDate>
2017-01-13

>  <Parent>


>  <OneLetterCode>


>  <SubcomponentList>


>  <AmbiguousFlag>
N

>  <InChI>
InChI=1S/C30H52O26/c31-1-10-15(37)20(42)21(43)26(51-10)56-30(25(47)19(41)14(5-35)55-30)9-50-29(24(46)18(40)13(4-34)54-29)8-49-28(23(45)17(39)12(3-33)53-28)7-48-27(6-36)22(44)16(38)11(2-32)52-27/h10-26,31-47H,1-9H2/t10-,11+,12+,13+,14+,15+,16+,17+,18+,19-,20+,21+,22-,23-,24-,25+,26+,27+,28+,29+,30-/m0/s1

>  <InChIKey>
QNTKVQQLMHZOKP-OZEFEZCKSA-N

>  <SMILES>
C([C@H]1[C@H]([C@H]([C@H]([C@H](O1)O[C@]2([C@@H]([C@H]([C@H](O2)CO)O)O)CO[C@]3([C@H]([C@@H]([C@H](O3)CO)O)O)CO[C@]4([C@H]([C@@H]([C@H](O4)CO)O)O)CO[C@]5([C@H]([C@@H]([C@H](O5)CO)O)O)CO)O)O)O)O

$$$$
