4DV8_0LX_A_802


 32 33  0  0  0  0  0  0  0  0999 V2000
   21.3596   20.8911   25.6018 C   0  0  0  0  0  0  0  0  0  0  0  0
   21.2818   18.9308   24.3494 O   0  0  0  0  0  0  0  0  0  0  0  0
   21.1181   20.1283   24.3434 C   0  0  0  0  0  0  0  0  0  0  0  0
   20.8118   20.8078   23.1367 N   0  0  0  0  0  0  0  0  0  0  0  0
   20.5373   20.1102   22.0359 O   0  0  0  0  0  0  0  0  0  0  0  0
   20.8021   21.7920   23.1129 H   0  0  0  0  0  0  0  0  0  0  0  0
   20.5904   19.1618   22.2326 H   0  0  0  0  0  0  0  0  0  0  0  0
   20.3999   20.5122   26.6563 C   0  0  0  0  0  0  0  0  0  0  0  0
   18.9648   20.4827   26.1046 C   0  0  0  0  0  0  0  0  0  0  0  0
   18.1425   19.3962   26.7537 C   0  0  0  0  0  0  0  0  0  0  0  0
   18.2697   18.0401   26.0323 C   0  0  0  0  0  0  0  0  0  0  0  0
   18.1056   16.9050   26.9851 N   0  0  0  0  0  0  0  0  0  0  0  0
   17.4009   16.2644   26.6198 H   0  0  0  0  0  0  0  0  0  0  0  0
   19.3425   16.1873   27.1671 C   0  0  0  0  0  0  0  0  0  0  0  0
   20.3030   16.8995   28.0357 C   0  0  0  0  0  0  0  0  0  0  0  0
   21.5702   17.2963   27.5604 C   0  0  0  0  0  0  0  0  0  0  0  0
   22.4722   17.9757   28.4115 C   0  0  0  0  0  0  0  0  0  0  0  0
   22.0983   18.2550   29.7269 C   0  0  0  0  0  0  0  0  0  0  0  0
   20.8304   17.8623   30.2041 C   0  0  0  0  0  0  0  0  0  0  0  0
   19.9348   17.1920   29.3544 C   0  0  0  0  0  0  0  0  0  0  0  0
   22.9219   18.8776   30.5529 F   0  0  0  0  0  0  0  0  0  0  0  0
   22.8390   20.6411   26.0347 C   0  0  0  0  0  0  0  0  0  0  0  0
   23.7688   21.7314   25.5512 C   0  0  0  0  0  0  0  0  0  0  0  0
   23.8524   22.8069   26.6155 C   0  0  0  0  0  0  0  0  0  0  0  0
   23.0787   23.9544   26.4669 C   0  0  0  0  0  0  0  0  0  0  0  0
   23.1515   24.9755   27.3901 C   0  0  0  0  0  0  0  0  0  0  0  0
   24.0262   24.8582   28.4867 C   0  0  0  0  0  0  0  0  0  0  0  0
   24.7999   23.7179   28.6518 C   0  0  0  0  0  0  0  0  0  0  0  0
   24.7278   22.6823   27.7107 C   0  0  0  0  0  0  0  0  0  0  0  0
   24.0927   25.8634   29.3602 F   0  0  0  0  0  0  0  0  0  0  0  0
   23.3516   22.3333   24.3875 O   0  0  0  0  0  0  0  0  0  0  0  0
   24.2081   22.3535   23.2957 C   0  0  0  0  0  0  0  0  0  0  0  0
 19 20  2  0  0  0
 19 18  1  0  0  0
 21 18  1  0  0  0
 20 15  1  0  0  0
 18 17  2  0  0  0
 11 10  1  0  0  0
 11 12  1  0  0  0
  9 10  1  0  0  0
  9  8  1  0  0  0
 15 14  1  0  0  0
 15 16  2  0  0  0
 17 16  1  0  0  0
  8  1  1  0  0  0
 14 12  1  0  0  0
  1 22  1  0  0  0
  1  3  1  0  0  0
 22 23  1  0  0  0
 31 32  1  0  0  0
 31 23  1  0  0  0
 29 28  2  0  0  0
 29 24  1  0  0  0
  3  4  1  0  0  0
  3  2  2  0  0  0
 23 24  1  0  0  0
  4  5  1  0  0  0
 28 27  1  0  0  0
 24 25  2  0  0  0
 27 30  1  0  0  0
 27 26  2  0  0  0
 25 26  1  0  0  0
  4  6  1  0  0  0
  5  7  1  0  0  0
 12 13  1  0  0  0
M  END
> <minimizedAffinity>
-8.68470

$$$$
4DV8_0LX_A_802


 32 33  0  0  0  0  0  0  0  0999 V2000
   20.6654   18.5855   28.9643 C   0  0  0  0  0  0  0  0  0  0  0  0
   20.8398   16.8841   30.5430 O   0  0  0  0  0  0  0  0  0  0  0  0
   21.3562   17.8726   30.0772 C   0  0  0  0  0  0  0  0  0  0  0  0
   22.5375   18.4076   30.6516 N   0  0  0  0  0  0  0  0  0  0  0  0
   23.1773   17.7282   31.6019 O   0  0  0  0  0  0  0  0  0  0  0  0
   22.8834   19.2782   30.3489 H   0  0  0  0  0  0  0  0  0  0  0  0
   22.7064   16.8989   31.7792 H   0  0  0  0  0  0  0  0  0  0  0  0
   21.5092   18.6471   27.7557 C   0  0  0  0  0  0  0  0  0  0  0  0
   21.9731   20.0881   27.4854 C   0  0  0  0  0  0  0  0  0  0  0  0
   21.0179   20.8170   26.5722 C   0  0  0  0  0  0  0  0  0  0  0  0
   21.5797   21.0060   25.1494 C   0  0  0  0  0  0  0  0  0  0  0  0
   23.0665   20.8939   25.1375 N   0  0  0  0  0  0  0  0  0  0  0  0
   23.3432   20.2265   24.4174 H   0  0  0  0  0  0  0  0  0  0  0  0
   23.6882   22.1651   24.8625 C   0  0  0  0  0  0  0  0  0  0  0  0
   23.8387   23.0088   26.0666 C   0  0  0  0  0  0  0  0  0  0  0  0
   24.7007   22.6399   27.1201 C   0  0  0  0  0  0  0  0  0  0  0  0
   24.8266   23.4638   28.2624 C   0  0  0  0  0  0  0  0  0  0  0  0
   24.0935   24.6489   28.3394 C   0  0  0  0  0  0  0  0  0  0  0  0
   23.2330   25.0221   27.2859 C   0  0  0  0  0  0  0  0  0  0  0  0
   23.1141   24.2040   26.1502 C   0  0  0  0  0  0  0  0  0  0  0  0
   24.1782   25.4362   29.3983 F   0  0  0  0  0  0  0  0  0  0  0  0
   19.3099   17.8566   28.6995 C   0  0  0  0  0  0  0  0  0  0  0  0
   18.9605   17.8147   27.2287 C   0  0  0  0  0  0  0  0  0  0  0  0
   17.7525   18.6980   26.9904 C   0  0  0  0  0  0  0  0  0  0  0  0
   16.6059   18.4794   27.7486 C   0  0  0  0  0  0  0  0  0  0  0  0
   15.4707   19.2331   27.5396 C   0  0  0  0  0  0  0  0  0  0  0  0
   15.4709   20.2251   26.5409 C   0  0  0  0  0  0  0  0  0  0  0  0
   16.6081   20.4589   25.7804 C   0  0  0  0  0  0  0  0  0  0  0  0
   17.7601   19.6896   25.9914 C   0  0  0  0  0  0  0  0  0  0  0  0
   14.3581   20.9328   26.3444 F   0  0  0  0  0  0  0  0  0  0  0  0
   18.6477   16.5554   26.7739 O   0  0  0  0  0  0  0  0  0  0  0  0
   19.0463   15.4532   27.5171 C   0  0  0  0  0  0  0  0  0  0  0  0
 19 20  2  0  0  0
 19 18  1  0  0  0
 21 18  1  0  0  0
 20 15  1  0  0  0
 18 17  2  0  0  0
 11 10  1  0  0  0
 11 12  1  0  0  0
  9 10  1  0  0  0
  9  8  1  0  0  0
 15 14  1  0  0  0
 15 16  2  0  0  0
 17 16  1  0  0  0
  8  1  1  0  0  0
 14 12  1  0  0  0
  1 22  1  0  0  0
  1  3  1  0  0  0
 22 23  1  0  0  0
 31 32  1  0  0  0
 31 23  1  0  0  0
 29 28  2  0  0  0
 29 24  1  0  0  0
  3  4  1  0  0  0
  3  2  2  0  0  0
 23 24  1  0  0  0
  4  5  1  0  0  0
 28 27  1  0  0  0
 24 25  2  0  0  0
 27 30  1  0  0  0
 27 26  2  0  0  0
 25 26  1  0  0  0
  4  6  1  0  0  0
  5  7  1  0  0  0
 12 13  1  0  0  0
M  END
> <minimizedAffinity>
-8.57123

$$$$
4DV8_0LX_A_802


 32 33  0  0  0  0  0  0  0  0999 V2000
   18.9090   18.1313   25.9968 C   0  0  0  0  0  0  0  0  0  0  0  0
   17.6370   19.7463   27.0883 O   0  0  0  0  0  0  0  0  0  0  0  0
   17.7540   18.5711   26.8314 C   0  0  0  0  0  0  0  0  0  0  0  0
   16.8751   17.6169   27.4048 N   0  0  0  0  0  0  0  0  0  0  0  0
   15.8127   18.0272   28.0954 O   0  0  0  0  0  0  0  0  0  0  0  0
   17.0497   16.6545   27.2926 H   0  0  0  0  0  0  0  0  0  0  0  0
   15.7903   18.9968   28.1085 H   0  0  0  0  0  0  0  0  0  0  0  0
   19.5068   19.2625   25.2623 C   0  0  0  0  0  0  0  0  0  0  0  0
   20.6719   18.7863   24.3789 C   0  0  0  0  0  0  0  0  0  0  0  0
   21.1336   19.8709   23.4363 C   0  0  0  0  0  0  0  0  0  0  0  0
   21.6852   21.1069   24.1735 C   0  0  0  0  0  0  0  0  0  0  0  0
   23.1723   21.0574   24.2709 N   0  0  0  0  0  0  0  0  0  0  0  0
   23.5341   20.4633   23.5249 H   0  0  0  0  0  0  0  0  0  0  0  0
   23.7521   22.3714   24.1467 C   0  0  0  0  0  0  0  0  0  0  0  0
   23.8775   23.0739   25.4409 C   0  0  0  0  0  0  0  0  0  0  0  0
   22.8955   23.9856   25.8810 C   0  0  0  0  0  0  0  0  0  0  0  0
   23.0388   24.6461   27.1231 C   0  0  0  0  0  0  0  0  0  0  0  0
   24.1589   24.3868   27.9144 C   0  0  0  0  0  0  0  0  0  0  0  0
   25.1411   23.4731   27.4784 C   0  0  0  0  0  0  0  0  0  0  0  0
   24.9931   22.8148   26.2462 C   0  0  0  0  0  0  0  0  0  0  0  0
   24.3303   24.9961   29.0752 F   0  0  0  0  0  0  0  0  0  0  0  0
   19.9389   17.4308   26.9388 C   0  0  0  0  0  0  0  0  0  0  0  0
   19.9842   18.0662   28.3104 C   0  0  0  0  0  0  0  0  0  0  0  0
   21.3393   18.7173   28.5004 C   0  0  0  0  0  0  0  0  0  0  0  0
   21.6682   19.8160   27.7116 C   0  0  0  0  0  0  0  0  0  0  0  0
   22.9041   20.4163   27.8229 C   0  0  0  0  0  0  0  0  0  0  0  0
   23.8446   19.9036   28.7361 C   0  0  0  0  0  0  0  0  0  0  0  0
   23.5296   18.8122   29.5336 C   0  0  0  0  0  0  0  0  0  0  0  0
   22.2743   18.2007   29.4169 C   0  0  0  0  0  0  0  0  0  0  0  0
   25.0396   20.4893   28.8178 F   0  0  0  0  0  0  0  0  0  0  0  0
   19.8091   17.1691   29.3376 O   0  0  0  0  0  0  0  0  0  0  0  0
   19.4347   15.8669   29.0374 C   0  0  0  0  0  0  0  0  0  0  0  0
 19 20  2  0  0  0
 19 18  1  0  0  0
 21 18  1  0  0  0
 20 15  1  0  0  0
 18 17  2  0  0  0
 11 10  1  0  0  0
 11 12  1  0  0  0
  9 10  1  0  0  0
  9  8  1  0  0  0
 15 14  1  0  0  0
 15 16  2  0  0  0
 17 16  1  0  0  0
  8  1  1  0  0  0
 14 12  1  0  0  0
  1 22  1  0  0  0
  1  3  1  0  0  0
 22 23  1  0  0  0
 31 32  1  0  0  0
 31 23  1  0  0  0
 29 28  2  0  0  0
 29 24  1  0  0  0
  3  4  1  0  0  0
  3  2  2  0  0  0
 23 24  1  0  0  0
  4  5  1  0  0  0
 28 27  1  0  0  0
 24 25  2  0  0  0
 27 30  1  0  0  0
 27 26  2  0  0  0
 25 26  1  0  0  0
  4  6  1  0  0  0
  5  7  1  0  0  0
 12 13  1  0  0  0
M  END
> <minimizedAffinity>
-8.56508

$$$$
4DV8_0LX_A_802


 32 33  0  0  0  0  0  0  0  0999 V2000
   17.0558   19.7843   26.1600 C   0  0  0  0  0  0  0  0  0  0  0  0
   16.8383   19.5464   28.4651 O   0  0  0  0  0  0  0  0  0  0  0  0
   16.3616   19.2910   27.3842 C   0  0  0  0  0  0  0  0  0  0  0  0
   15.2283   18.4449   27.2779 N   0  0  0  0  0  0  0  0  0  0  0  0
   14.5819   18.0635   28.3782 O   0  0  0  0  0  0  0  0  0  0  0  0
   14.9203   18.1406   26.3937 H   0  0  0  0  0  0  0  0  0  0  0  0
   15.0131   18.4496   29.1566 H   0  0  0  0  0  0  0  0  0  0  0  0
   16.5775   21.1246   25.7705 C   0  0  0  0  0  0  0  0  0  0  0  0
   15.3521   21.0209   24.8472 C   0  0  0  0  0  0  0  0  0  0  0  0
   14.2663   21.9865   25.2549 C   0  0  0  0  0  0  0  0  0  0  0  0
   13.8024   21.7828   26.7105 C   0  0  0  0  0  0  0  0  0  0  0  0
   12.3297   21.5605   26.7810 N   0  0  0  0  0  0  0  0  0  0  0  0
   11.9948   21.8451   27.7015 H   0  0  0  0  0  0  0  0  0  0  0  0
   11.6336   22.3208   25.7732 C   0  0  0  0  0  0  0  0  0  0  0  0
   10.5478   21.5598   25.1205 C   0  0  0  0  0  0  0  0  0  0  0  0
   10.3220   21.6453   23.7310 C   0  0  0  0  0  0  0  0  0  0  0  0
    9.2758   20.9080   23.1300 C   0  0  0  0  0  0  0  0  0  0  0  0
    8.4683   20.0902   23.9219 C   0  0  0  0  0  0  0  0  0  0  0  0
    8.6936   20.0000   25.3114 C   0  0  0  0  0  0  0  0  0  0  0  0
    9.7371   20.7299   25.9044 C   0  0  0  0  0  0  0  0  0  0  0  0
    7.4737   19.3968   23.3944 F   0  0  0  0  0  0  0  0  0  0  0  0
   18.5915   19.7663   26.4424 C   0  0  0  0  0  0  0  0  0  0  0  0
   19.1481   18.3610   26.4905 C   0  0  0  0  0  0  0  0  0  0  0  0
   19.9969   18.2164   27.7374 C   0  0  0  0  0  0  0  0  0  0  0  0
   21.1961   18.9191   27.8136 C   0  0  0  0  0  0  0  0  0  0  0  0
   22.0189   18.7881   28.9119 C   0  0  0  0  0  0  0  0  0  0  0  0
   21.6451   17.9257   29.9597 C   0  0  0  0  0  0  0  0  0  0  0  0
   20.4499   17.2226   29.9011 C   0  0  0  0  0  0  0  0  0  0  0  0
   19.6163   17.3538   28.7825 C   0  0  0  0  0  0  0  0  0  0  0  0
   22.4621   17.8017   31.0062 F   0  0  0  0  0  0  0  0  0  0  0  0
   19.9410   18.0469   25.4121 O   0  0  0  0  0  0  0  0  0  0  0  0
   20.2591   19.0416   24.4981 C   0  0  0  0  0  0  0  0  0  0  0  0
 19 20  2  0  0  0
 19 18  1  0  0  0
 21 18  1  0  0  0
 20 15  1  0  0  0
 18 17  2  0  0  0
 11 10  1  0  0  0
 11 12  1  0  0  0
  9 10  1  0  0  0
  9  8  1  0  0  0
 15 14  1  0  0  0
 15 16  2  0  0  0
 17 16  1  0  0  0
  8  1  1  0  0  0
 14 12  1  0  0  0
  1 22  1  0  0  0
  1  3  1  0  0  0
 22 23  1  0  0  0
 31 32  1  0  0  0
 31 23  1  0  0  0
 29 28  2  0  0  0
 29 24  1  0  0  0
  3  4  1  0  0  0
  3  2  2  0  0  0
 23 24  1  0  0  0
  4  5  1  0  0  0
 28 27  1  0  0  0
 24 25  2  0  0  0
 27 30  1  0  0  0
 27 26  2  0  0  0
 25 26  1  0  0  0
  4  6  1  0  0  0
  5  7  1  0  0  0
 12 13  1  0  0  0
M  END
> <minimizedAffinity>
-8.56268

$$$$
4DV8_0LX_A_802


 32 33  0  0  0  0  0  0  0  0999 V2000
   23.1781   20.7650   24.5801 C   0  0  0  0  0  0  0  0  0  0  0  0
   23.8495   20.7548   22.3515 O   0  0  0  0  0  0  0  0  0  0  0  0
   23.0018   21.1047   23.1388 C   0  0  0  0  0  0  0  0  0  0  0  0
   21.9190   21.9183   22.7179 N   0  0  0  0  0  0  0  0  0  0  0  0
   21.7393   22.1613   21.4207 O   0  0  0  0  0  0  0  0  0  0  0  0
   21.3022   22.3022   23.3823 H   0  0  0  0  0  0  0  0  0  0  0  0
   22.4296   21.7113   20.9088 H   0  0  0  0  0  0  0  0  0  0  0  0
   22.5217   21.7566   25.4534 C   0  0  0  0  0  0  0  0  0  0  0  0
   23.4919   22.8933   25.8157 C   0  0  0  0  0  0  0  0  0  0  0  0
   23.6396   23.0423   27.3102 C   0  0  0  0  0  0  0  0  0  0  0  0
   24.9903   22.5140   27.8319 C   0  0  0  0  0  0  0  0  0  0  0  0
   24.7967   21.3667   28.7644 N   0  0  0  0  0  0  0  0  0  0  0  0
   24.0608   21.6012   29.4305 H   0  0  0  0  0  0  0  0  0  0  0  0
   24.4227   20.1689   28.0548 C   0  0  0  0  0  0  0  0  0  0  0  0
   23.3700   19.3928   28.7431 C   0  0  0  0  0  0  0  0  0  0  0  0
   22.0935   19.2158   28.1704 C   0  0  0  0  0  0  0  0  0  0  0  0
   21.1026   18.4697   28.8493 C   0  0  0  0  0  0  0  0  0  0  0  0
   21.3976   17.9050   30.0911 C   0  0  0  0  0  0  0  0  0  0  0  0
   22.6745   18.0776   30.6650 C   0  0  0  0  0  0  0  0  0  0  0  0
   23.6582   18.8151   29.9856 C   0  0  0  0  0  0  0  0  0  0  0  0
   20.4908   17.2120   30.7585 F   0  0  0  0  0  0  0  0  0  0  0  0
   22.6195   19.3237   24.8023 C   0  0  0  0  0  0  0  0  0  0  0  0
   21.3528   19.0732   24.0151 C   0  0  0  0  0  0  0  0  0  0  0  0
   20.1787   19.0631   24.9730 C   0  0  0  0  0  0  0  0  0  0  0  0
   19.7679   17.8475   25.5123 C   0  0  0  0  0  0  0  0  0  0  0  0
   18.6808   17.7851   26.3577 C   0  0  0  0  0  0  0  0  0  0  0  0
   17.9746   18.9627   26.6676 C   0  0  0  0  0  0  0  0  0  0  0  0
   18.3753   20.1833   26.1423 C   0  0  0  0  0  0  0  0  0  0  0  0
   19.4782   20.2447   25.2802 C   0  0  0  0  0  0  0  0  0  0  0  0
   16.9171   18.8787   27.4753 F   0  0  0  0  0  0  0  0  0  0  0  0
   21.3503   17.8722   23.3457 O   0  0  0  0  0  0  0  0  0  0  0  0
   22.3551   17.6133   22.4240 C   0  0  0  0  0  0  0  0  0  0  0  0
 19 20  2  0  0  0
 19 18  1  0  0  0
 21 18  1  0  0  0
 20 15  1  0  0  0
 18 17  2  0  0  0
 11 10  1  0  0  0
 11 12  1  0  0  0
  9 10  1  0  0  0
  9  8  1  0  0  0
 15 14  1  0  0  0
 15 16  2  0  0  0
 17 16  1  0  0  0
  8  1  1  0  0  0
 14 12  1  0  0  0
  1 22  1  0  0  0
  1  3  1  0  0  0
 22 23  1  0  0  0
 31 32  1  0  0  0
 31 23  1  0  0  0
 29 28  2  0  0  0
 29 24  1  0  0  0
  3  4  1  0  0  0
  3  2  2  0  0  0
 23 24  1  0  0  0
  4  5  1  0  0  0
 28 27  1  0  0  0
 24 25  2  0  0  0
 27 30  1  0  0  0
 27 26  2  0  0  0
 25 26  1  0  0  0
  4  6  1  0  0  0
  5  7  1  0  0  0
 12 13  1  0  0  0
M  END
> <minimizedAffinity>
-8.45575

$$$$
4DV8_0LX_A_802


 32 33  0  0  0  0  0  0  0  0999 V2000
   13.9035   22.9400   25.2797 C   0  0  0  0  0  0  0  0  0  0  0  0
   14.2618   25.1251   25.9968 O   0  0  0  0  0  0  0  0  0  0  0  0
   14.4229   23.9528   26.2431 C   0  0  0  0  0  0  0  0  0  0  0  0
   15.1882   23.5511   27.3677 N   0  0  0  0  0  0  0  0  0  0  0  0
   15.5919   24.4612   28.2524 O   0  0  0  0  0  0  0  0  0  0  0  0
   15.4203   22.6027   27.4938 H   0  0  0  0  0  0  0  0  0  0  0  0
   15.2799   25.3382   27.9794 H   0  0  0  0  0  0  0  0  0  0  0  0
   14.2546   21.5687   25.6955 C   0  0  0  0  0  0  0  0  0  0  0  0
   15.4897   21.0646   24.9306 C   0  0  0  0  0  0  0  0  0  0  0  0
   16.4379   20.3183   25.8370 C   0  0  0  0  0  0  0  0  0  0  0  0
   15.7406   19.7405   27.0842 C   0  0  0  0  0  0  0  0  0  0  0  0
   16.7335   19.3624   28.1305 N   0  0  0  0  0  0  0  0  0  0  0  0
   16.2354   19.0978   28.9803 H   0  0  0  0  0  0  0  0  0  0  0  0
   17.5529   18.2559   27.7034 C   0  0  0  0  0  0  0  0  0  0  0  0
   18.9844   18.4382   28.0227 C   0  0  0  0  0  0  0  0  0  0  0  0
   19.6031   17.7170   29.0648 C   0  0  0  0  0  0  0  0  0  0  0  0
   20.9743   17.9099   29.3516 C   0  0  0  0  0  0  0  0  0  0  0  0
   21.7142   18.8179   28.5927 C   0  0  0  0  0  0  0  0  0  0  0  0
   21.0989   19.5383   27.5477 C   0  0  0  0  0  0  0  0  0  0  0  0
   19.7378   19.3405   27.2621 C   0  0  0  0  0  0  0  0  0  0  0  0
   22.9950   19.0315   28.8419 F   0  0  0  0  0  0  0  0  0  0  0  0
   12.3596   23.1422   25.1611 C   0  0  0  0  0  0  0  0  0  0  0  0
   11.5901   22.2325   26.0924 C   0  0  0  0  0  0  0  0  0  0  0  0
   10.5069   21.5288   25.3000 C   0  0  0  0  0  0  0  0  0  0  0  0
    9.6334   20.6790   25.9726 C   0  0  0  0  0  0  0  0  0  0  0  0
    8.6573   19.9883   25.2867 C   0  0  0  0  0  0  0  0  0  0  0  0
    8.5528   20.1374   23.8909 C   0  0  0  0  0  0  0  0  0  0  0  0
    9.4127   20.9854   23.2068 C   0  0  0  0  0  0  0  0  0  0  0  0
   10.4068   21.6840   23.9047 C   0  0  0  0  0  0  0  0  0  0  0  0
    7.6116   19.4491   23.2443 F   0  0  0  0  0  0  0  0  0  0  0  0
   10.9781   22.8975   27.1286 O   0  0  0  0  0  0  0  0  0  0  0  0
   10.6801   24.2449   26.9809 C   0  0  0  0  0  0  0  0  0  0  0  0
 19 20  2  0  0  0
 19 18  1  0  0  0
 21 18  1  0  0  0
 20 15  1  0  0  0
 18 17  2  0  0  0
 11 10  1  0  0  0
 11 12  1  0  0  0
  9 10  1  0  0  0
  9  8  1  0  0  0
 15 14  1  0  0  0
 15 16  2  0  0  0
 17 16  1  0  0  0
  8  1  1  0  0  0
 14 12  1  0  0  0
  1 22  1  0  0  0
  1  3  1  0  0  0
 22 23  1  0  0  0
 31 32  1  0  0  0
 31 23  1  0  0  0
 29 28  2  0  0  0
 29 24  1  0  0  0
  3  4  1  0  0  0
  3  2  2  0  0  0
 23 24  1  0  0  0
  4  5  1  0  0  0
 28 27  1  0  0  0
 24 25  2  0  0  0
 27 30  1  0  0  0
 27 26  2  0  0  0
 25 26  1  0  0  0
  4  6  1  0  0  0
  5  7  1  0  0  0
 12 13  1  0  0  0
M  END
> <minimizedAffinity>
-8.43802

$$$$
4DV8_0LX_A_802


 32 33  0  0  0  0  0  0  0  0999 V2000
   19.4057   17.3413   28.1397 C   0  0  0  0  0  0  0  0  0  0  0  0
   19.4283   15.3929   29.4129 O   0  0  0  0  0  0  0  0  0  0  0  0
   19.1103   15.8964   28.3612 C   0  0  0  0  0  0  0  0  0  0  0  0
   18.5695   15.1036   27.3168 N   0  0  0  0  0  0  0  0  0  0  0  0
   18.2529   13.8308   27.5486 O   0  0  0  0  0  0  0  0  0  0  0  0
   18.4286   15.4928   26.4236 H   0  0  0  0  0  0  0  0  0  0  0  0
   18.4534   13.6107   28.4718 H   0  0  0  0  0  0  0  0  0  0  0  0
   20.8403   17.6336   28.3216 C   0  0  0  0  0  0  0  0  0  0  0  0
   21.1148   18.1654   29.7381 C   0  0  0  0  0  0  0  0  0  0  0  0
   22.5856   18.4201   29.9604 C   0  0  0  0  0  0  0  0  0  0  0  0
   23.4722   17.7870   28.8702 C   0  0  0  0  0  0  0  0  0  0  0  0
   24.1939   18.8315   28.0882 N   0  0  0  0  0  0  0  0  0  0  0  0
   23.7398   18.9399   27.1813 H   0  0  0  0  0  0  0  0  0  0  0  0
   24.1852   20.1007   28.7717 C   0  0  0  0  0  0  0  0  0  0  0  0
   23.7525   21.2201   27.9091 C   0  0  0  0  0  0  0  0  0  0  0  0
   24.4552   22.4426   27.8829 C   0  0  0  0  0  0  0  0  0  0  0  0
   24.0206   23.4992   27.0497 C   0  0  0  0  0  0  0  0  0  0  0  0
   22.8912   23.3231   26.2488 C   0  0  0  0  0  0  0  0  0  0  0  0
   22.1882   22.1004   26.2704 C   0  0  0  0  0  0  0  0  0  0  0  0
   22.6257   21.0510   27.0954 C   0  0  0  0  0  0  0  0  0  0  0  0
   22.4504   24.2943   25.4674 F   0  0  0  0  0  0  0  0  0  0  0  0
   18.9050   17.7167   26.7090 C   0  0  0  0  0  0  0  0  0  0  0  0
   18.8953   19.2116   26.4801 C   0  0  0  0  0  0  0  0  0  0  0  0
   17.4596   19.6962   26.4910 C   0  0  0  0  0  0  0  0  0  0  0  0
   17.0939   20.7189   25.6206 C   0  0  0  0  0  0  0  0  0  0  0  0
   15.8088   21.2177   25.6228 C   0  0  0  0  0  0  0  0  0  0  0  0
   14.8626   20.6931   26.5233 C   0  0  0  0  0  0  0  0  0  0  0  0
   15.2104   19.6694   27.3935 C   0  0  0  0  0  0  0  0  0  0  0  0
   16.5180   19.1658   27.3928 C   0  0  0  0  0  0  0  0  0  0  0  0
   13.6292   21.1996   26.5198 F   0  0  0  0  0  0  0  0  0  0  0  0
   19.4490   19.5870   25.2789 O   0  0  0  0  0  0  0  0  0  0  0  0
   20.5145   18.8568   24.7714 C   0  0  0  0  0  0  0  0  0  0  0  0
 19 20  2  0  0  0
 19 18  1  0  0  0
 21 18  1  0  0  0
 20 15  1  0  0  0
 18 17  2  0  0  0
 11 10  1  0  0  0
 11 12  1  0  0  0
  9 10  1  0  0  0
  9  8  1  0  0  0
 15 14  1  0  0  0
 15 16  2  0  0  0
 17 16  1  0  0  0
  8  1  1  0  0  0
 14 12  1  0  0  0
  1 22  1  0  0  0
  1  3  1  0  0  0
 22 23  1  0  0  0
 31 32  1  0  0  0
 31 23  1  0  0  0
 29 28  2  0  0  0
 29 24  1  0  0  0
  3  4  1  0  0  0
  3  2  2  0  0  0
 23 24  1  0  0  0
  4  5  1  0  0  0
 28 27  1  0  0  0
 24 25  2  0  0  0
 27 30  1  0  0  0
 27 26  2  0  0  0
 25 26  1  0  0  0
  4  6  1  0  0  0
  5  7  1  0  0  0
 12 13  1  0  0  0
M  END
> <minimizedAffinity>
-8.38822

$$$$
4DV8_0LX_A_802


 32 33  0  0  0  0  0  0  0  0999 V2000
   19.8682   17.8871   27.5246 C   0  0  0  0  0  0  0  0  0  0  0  0
   18.2369   16.3625   26.8671 O   0  0  0  0  0  0  0  0  0  0  0  0
   18.4601   17.4035   27.4394 C   0  0  0  0  0  0  0  0  0  0  0  0
   17.3931   18.2041   27.9214 N   0  0  0  0  0  0  0  0  0  0  0  0
   16.1479   17.7323   27.8953 O   0  0  0  0  0  0  0  0  0  0  0  0
   17.5724   19.1056   28.2740 H   0  0  0  0  0  0  0  0  0  0  0  0
   16.1489   16.8376   27.5207 H   0  0  0  0  0  0  0  0  0  0  0  0
   20.6244   17.1680   28.5675 C   0  0  0  0  0  0  0  0  0  0  0  0
   20.8626   18.0698   29.7901 C   0  0  0  0  0  0  0  0  0  0  0  0
   22.2797   18.5873   29.8308 C   0  0  0  0  0  0  0  0  0  0  0  0
   23.2241   17.8156   28.8883 C   0  0  0  0  0  0  0  0  0  0  0  0
   24.0078   18.7481   28.0283 N   0  0  0  0  0  0  0  0  0  0  0  0
   23.4951   18.9101   27.1615 H   0  0  0  0  0  0  0  0  0  0  0  0
   24.2279   20.0118   28.6862 C   0  0  0  0  0  0  0  0  0  0  0  0
   23.8173   21.1709   27.8662 C   0  0  0  0  0  0  0  0  0  0  0  0
   22.6876   21.1126   27.0239 C   0  0  0  0  0  0  0  0  0  0  0  0
   22.3158   22.2349   26.2482 C   0  0  0  0  0  0  0  0  0  0  0  0
   23.0734   23.4046   26.3243 C   0  0  0  0  0  0  0  0  0  0  0  0
   24.2018   23.4669   27.1682 C   0  0  0  0  0  0  0  0  0  0  0  0
   24.5655   22.3519   27.9413 C   0  0  0  0  0  0  0  0  0  0  0  0
   22.7610   24.4682   25.6035 F   0  0  0  0  0  0  0  0  0  0  0  0
   20.5142   17.7259   26.1121 C   0  0  0  0  0  0  0  0  0  0  0  0
   20.1198   18.8426   25.1716 C   0  0  0  0  0  0  0  0  0  0  0  0
   21.2926   19.1503   24.2627 C   0  0  0  0  0  0  0  0  0  0  0  0
   21.1923   20.2257   23.3848 C   0  0  0  0  0  0  0  0  0  0  0  0
   22.2189   20.5192   22.5127 C   0  0  0  0  0  0  0  0  0  0  0  0
   23.3738   19.7145   22.5049 C   0  0  0  0  0  0  0  0  0  0  0  0
   23.4912   18.6421   23.3781 C   0  0  0  0  0  0  0  0  0  0  0  0
   22.4454   18.3427   24.2614 C   0  0  0  0  0  0  0  0  0  0  0  0
   24.3488   20.0062   21.6435 F   0  0  0  0  0  0  0  0  0  0  0  0
   19.7790   20.0086   25.8155 O   0  0  0  0  0  0  0  0  0  0  0  0
   18.5150   20.5447   25.6130 C   0  0  0  0  0  0  0  0  0  0  0  0
 19 20  2  0  0  0
 19 18  1  0  0  0
 21 18  1  0  0  0
 20 15  1  0  0  0
 18 17  2  0  0  0
 11 10  1  0  0  0
 11 12  1  0  0  0
  9 10  1  0  0  0
  9  8  1  0  0  0
 15 14  1  0  0  0
 15 16  2  0  0  0
 17 16  1  0  0  0
  8  1  1  0  0  0
 14 12  1  0  0  0
  1 22  1  0  0  0
  1  3  1  0  0  0
 22 23  1  0  0  0
 31 32  1  0  0  0
 31 23  1  0  0  0
 29 28  2  0  0  0
 29 24  1  0  0  0
  3  4  1  0  0  0
  3  2  2  0  0  0
 23 24  1  0  0  0
  4  5  1  0  0  0
 28 27  1  0  0  0
 24 25  2  0  0  0
 27 30  1  0  0  0
 27 26  2  0  0  0
 25 26  1  0  0  0
  4  6  1  0  0  0
  5  7  1  0  0  0
 12 13  1  0  0  0
M  END
> <minimizedAffinity>
-8.31602

$$$$
4DV8_0LX_A_802


 32 33  0  0  0  0  0  0  0  0999 V2000
   21.5545   20.8088   26.3045 C   0  0  0  0  0  0  0  0  0  0  0  0
   20.4213   19.6041   24.6667 O   0  0  0  0  0  0  0  0  0  0  0  0
   20.3281   20.4275   25.5466 C   0  0  0  0  0  0  0  0  0  0  0  0
   19.1004   21.0990   25.7782 N   0  0  0  0  0  0  0  0  0  0  0  0
   18.0002   20.7054   25.1390 O   0  0  0  0  0  0  0  0  0  0  0  0
   19.0616   21.8536   26.4094 H   0  0  0  0  0  0  0  0  0  0  0  0
   18.2129   19.9563   24.5606 H   0  0  0  0  0  0  0  0  0  0  0  0
   21.6007   20.1510   27.6242 C   0  0  0  0  0  0  0  0  0  0  0  0
   22.8596   19.2778   27.7562 C   0  0  0  0  0  0  0  0  0  0  0  0
   23.4667   19.3832   29.1339 C   0  0  0  0  0  0  0  0  0  0  0  0
   23.1377   18.1697   30.0254 C   0  0  0  0  0  0  0  0  0  0  0  0
   21.8063   18.3257   30.6784 N   0  0  0  0  0  0  0  0  0  0  0  0
   21.3480   19.1561   30.3032 H   0  0  0  0  0  0  0  0  0  0  0  0
   20.9659   17.1787   30.4411 C   0  0  0  0  0  0  0  0  0  0  0  0
   20.1940   17.2763   29.1845 C   0  0  0  0  0  0  0  0  0  0  0  0
   20.4876   16.4562   28.0754 C   0  0  0  0  0  0  0  0  0  0  0  0
   19.7351   16.5693   26.8836 C   0  0  0  0  0  0  0  0  0  0  0  0
   18.6951   17.4974   26.8127 C   0  0  0  0  0  0  0  0  0  0  0  0
   18.3969   18.3168   27.9215 C   0  0  0  0  0  0  0  0  0  0  0  0
   19.1432   18.1983   29.1057 C   0  0  0  0  0  0  0  0  0  0  0  0
   17.9795   17.6377   25.7098 F   0  0  0  0  0  0  0  0  0  0  0  0
   22.7917   20.4474   25.4228 C   0  0  0  0  0  0  0  0  0  0  0  0
   23.4741   21.6756   24.8633 C   0  0  0  0  0  0  0  0  0  0  0  0
   23.7130   22.6566   25.9932 C   0  0  0  0  0  0  0  0  0  0  0  0
   24.6122   22.3112   26.9980 C   0  0  0  0  0  0  0  0  0  0  0  0
   24.8320   23.1557   28.0652 C   0  0  0  0  0  0  0  0  0  0  0  0
   24.1301   24.3733   28.1423 C   0  0  0  0  0  0  0  0  0  0  0  0
   23.2344   24.7345   27.1455 C   0  0  0  0  0  0  0  0  0  0  0  0
   23.0091   23.8736   26.0631 C   0  0  0  0  0  0  0  0  0  0  0  0
   24.3460   25.1690   29.1902 F   0  0  0  0  0  0  0  0  0  0  0  0
   22.7356   22.3244   23.9019 O   0  0  0  0  0  0  0  0  0  0  0  0
   22.3589   21.6306   22.7605 C   0  0  0  0  0  0  0  0  0  0  0  0
 19 20  2  0  0  0
 19 18  1  0  0  0
 21 18  1  0  0  0
 20 15  1  0  0  0
 18 17  2  0  0  0
 11 10  1  0  0  0
 11 12  1  0  0  0
  9 10  1  0  0  0
  9  8  1  0  0  0
 15 14  1  0  0  0
 15 16  2  0  0  0
 17 16  1  0  0  0
  8  1  1  0  0  0
 14 12  1  0  0  0
  1 22  1  0  0  0
  1  3  1  0  0  0
 22 23  1  0  0  0
 31 32  1  0  0  0
 31 23  1  0  0  0
 29 28  2  0  0  0
 29 24  1  0  0  0
  3  4  1  0  0  0
  3  2  2  0  0  0
 23 24  1  0  0  0
  4  5  1  0  0  0
 28 27  1  0  0  0
 24 25  2  0  0  0
 27 30  1  0  0  0
 27 26  2  0  0  0
 25 26  1  0  0  0
  4  6  1  0  0  0
  5  7  1  0  0  0
 12 13  1  0  0  0
M  END
> <minimizedAffinity>
-8.22736

$$$$
4DV8_0LX_A_802


 32 33  0  0  0  0  0  0  0  0999 V2000
   22.7912   22.2321   26.0023 C   0  0  0  0  0  0  0  0  0  0  0  0
   22.3723   24.5217   26.0153 O   0  0  0  0  0  0  0  0  0  0  0  0
   23.2092   23.6590   25.8876 C   0  0  0  0  0  0  0  0  0  0  0  0
   24.5391   23.9929   25.5250 N   0  0  0  0  0  0  0  0  0  0  0  0
   24.9137   25.2705   25.4877 O   0  0  0  0  0  0  0  0  0  0  0  0
   25.1832   23.2827   25.3015 H   0  0  0  0  0  0  0  0  0  0  0  0
   24.1638   25.8346   25.7334 H   0  0  0  0  0  0  0  0  0  0  0  0
   23.5197   21.3770   25.0459 C   0  0  0  0  0  0  0  0  0  0  0  0
   22.8697   21.4369   23.6536 C   0  0  0  0  0  0  0  0  0  0  0  0
   23.4446   20.3937   22.7268 C   0  0  0  0  0  0  0  0  0  0  0  0
   23.1468   18.9543   23.1907 C   0  0  0  0  0  0  0  0  0  0  0  0
   21.6795   18.7222   23.3199 N   0  0  0  0  0  0  0  0  0  0  0  0
   21.3653   18.1439   22.5407 H   0  0  0  0  0  0  0  0  0  0  0  0
   21.3588   18.0561   24.5574 C   0  0  0  0  0  0  0  0  0  0  0  0
   20.1302   18.5759   25.1935 C   0  0  0  0  0  0  0  0  0  0  0  0
   19.8220   19.9521   25.1824 C   0  0  0  0  0  0  0  0  0  0  0  0
   18.6406   20.4250   25.7989 C   0  0  0  0  0  0  0  0  0  0  0  0
   17.7775   19.5189   26.4168 C   0  0  0  0  0  0  0  0  0  0  0  0
   18.0814   18.1415   26.4267 C   0  0  0  0  0  0  0  0  0  0  0  0
   19.2533   17.6744   25.8089 C   0  0  0  0  0  0  0  0  0  0  0  0
   16.6708   19.9284   27.0132 F   0  0  0  0  0  0  0  0  0  0  0  0
   23.0173   21.7861   27.4816 C   0  0  0  0  0  0  0  0  0  0  0  0
   23.7247   20.4528   27.5756 C   0  0  0  0  0  0  0  0  0  0  0  0
   22.9277   19.5424   28.4878 C   0  0  0  0  0  0  0  0  0  0  0  0
   23.5234   19.0842   29.6594 C   0  0  0  0  0  0  0  0  0  0  0  0
   22.8503   18.2236   30.5001 C   0  0  0  0  0  0  0  0  0  0  0  0
   21.5522   17.7971   30.1616 C   0  0  0  0  0  0  0  0  0  0  0  0
   20.9426   18.2496   28.9998 C   0  0  0  0  0  0  0  0  0  0  0  0
   21.6293   19.1214   28.1443 C   0  0  0  0  0  0  0  0  0  0  0  0
   20.9242   16.9529   30.9805 F   0  0  0  0  0  0  0  0  0  0  0  0
   24.9972   20.5409   28.0889 O   0  0  0  0  0  0  0  0  0  0  0  0
   25.5851   21.7913   28.2197 C   0  0  0  0  0  0  0  0  0  0  0  0
 19 20  2  0  0  0
 19 18  1  0  0  0
 21 18  1  0  0  0
 20 15  1  0  0  0
 18 17  2  0  0  0
 11 10  1  0  0  0
 11 12  1  0  0  0
  9 10  1  0  0  0
  9  8  1  0  0  0
 15 14  1  0  0  0
 15 16  2  0  0  0
 17 16  1  0  0  0
  8  1  1  0  0  0
 14 12  1  0  0  0
  1 22  1  0  0  0
  1  3  1  0  0  0
 22 23  1  0  0  0
 31 32  1  0  0  0
 31 23  1  0  0  0
 29 28  2  0  0  0
 29 24  1  0  0  0
  3  4  1  0  0  0
  3  2  2  0  0  0
 23 24  1  0  0  0
  4  5  1  0  0  0
 28 27  1  0  0  0
 24 25  2  0  0  0
 27 30  1  0  0  0
 27 26  2  0  0  0
 25 26  1  0  0  0
  4  6  1  0  0  0
  5  7  1  0  0  0
 12 13  1  0  0  0
M  END
> <minimizedAffinity>
-8.01889

$$$$
