5OH3_9V2_A_202
  RCSB PDB10131806123D
Coordinates from PDB:5OH3:A:202 Model:1 without hydrogens
 10 10  0  0  0  0            999 V2000
   26.2120   15.9610   -8.4570   O 0  0  0  0  0  0  0  0  0  0  0  0
   25.1320   16.4410   -8.1520   C 0  0  0  0  0  0  0  0  0  0  0  0
   23.9450   15.8230   -8.2660   N 0  0  0  0  0  0  0  0  0  0  0  0
   24.9490   17.8230   -7.5730   C 0  0  0  0  0  0  0  0  0  0  0  0
   24.9600   18.8750   -8.6840   C 0  0  0  0  0  0  0  0  0  0  0  0
   26.2330   18.9310   -9.5140   C 0  0  0  0  0  0  0  0  0  0  0  0
   26.0170   18.1730   -6.5640   C 0  0  0  0  0  0  0  0  0  0  0  0
   23.5430   17.6740   -6.9670   C 0  0  0  0  0  0  0  0  0  0  0  0
   23.0440   16.3600   -7.5630   C 0  0  0  0  0  0  0  0  0  0  0  0
   21.9230   15.8820   -7.3760   O 0  0  0  0  0  0  0  0  0  0  0  0
  6  5  1  0  0  0  0
  5  4  1  0  0  0  0
  1  2  2  0  0  0  0
  3  2  1  0  0  0  0
  3  9  1  0  0  0  0
  2  4  1  0  0  0  0
  4  8  1  0  0  0  0
  4  7  1  0  0  0  0
  9 10  2  0  0  0  0
  9  8  1  0  0  0  0
A    1
O1
A    2
C4
A    3
N
A    4
C1
A    5
C3
A    6
C7
A    7
C5
A    8
C2
A    9
C6
A   10
O2
M  END
>  <InstanceId>
5OH3_9V2_A_202

>  <ChemCompId>
9V2

>  <PdbId>
5OH3

>  <ChainId>
A

>  <ResidueNumber>
202

>  <InsertionCode>


>  <Model>
1

>  <AltIds>


>  <MissingHeavyAtoms>
0

>  <ObservedFormula>
C7 N O2

>  <Name>
(3~{S})-3-ethyl-3-methyl-pyrrolidine-2,5-dione

>  <SystematicName>
(3~{S})-3-ethyl-3-methyl-pyrrolidine-2,5-dione

>  <Synonyms>


>  <Type>
NON-POLYMER

>  <Formula>
C7 H11 N O2

>  <MolecularWeight>
141.168

>  <ModifiedDate>
2018-10-05

>  <Parent>


>  <OneLetterCode>


>  <SubcomponentList>


>  <AmbiguousFlag>
N

>  <InChI>
InChI=1S/C7H11NO2/c1-3-7(2)4-5(9)8-6(7)10/h3-4H2,1-2H3,(H,8,9,10)/t7-/m0/s1

>  <InChIKey>
HAPOVYFOVVWLRS-ZETCQYMHSA-N

>  <SMILES>
CC[C@]1(CC(=O)NC1=O)C

$$$$
