6CPA_ZAF_A_309


 37 38  0  0  0  0  0  0  0  0999 V2000
   45.2639   20.0048   38.4400 C   0  0  0  0  0  0  0  0  0  0  0  0
   46.1762   19.6808   39.6476 C   0  0  0  0  0  0  0  0  0  0  0  0
   45.2741   21.6413   37.8648 P   0  0  0  0  0  0  0  0  0  0  0  0
   43.8162   22.1700   37.8277 O   0  0  0  0  0  0  0  0  0  0  0  0
   46.2546   22.3897   38.7946 O   0  0  0  0  0  0  0  0  0  0  0  0
   46.3084   23.3202   38.5261 H   0  0  0  0  0  0  0  0  0  0  0  0
   45.9177   21.6243   36.2960 O   0  0  0  0  0  0  0  0  0  0  0  0
   45.3520   22.4887   35.2803 C   0  0  0  0  0  0  0  0  0  0  0  0
   44.5406   21.5546   34.5448 C   0  0  0  0  0  0  0  0  0  0  0  0
   44.8701   20.2921   34.6556 O   0  0  0  0  0  0  0  0  0  0  0  0
   43.6218   21.8901   33.8675 O   0  0  0  0  0  0  0  0  0  0  0  0
   43.3978   22.7973   33.7977 H   0  0  0  0  0  0  0  0  0  0  0  0
   46.4020   23.0870   34.3369 C   0  0  0  0  0  0  0  0  0  0  0  0
   46.0138   23.9693   33.2778 C   0  0  0  0  0  0  0  0  0  0  0  0
   46.0668   23.5728   31.9842 C   0  0  0  0  0  0  0  0  0  0  0  0
   45.7112   24.4289   31.0015 C   0  0  0  0  0  0  0  0  0  0  0  0
   45.2491   25.6615   31.3010 C   0  0  0  0  0  0  0  0  0  0  0  0
   45.1640   26.0474   32.5941 C   0  0  0  0  0  0  0  0  0  0  0  0
   45.5637   25.2077   33.5746 C   0  0  0  0  0  0  0  0  0  0  0  0
   45.7227   19.1493   37.4007 N   0  0  0  0  0  0  0  0  0  0  0  0
   45.3758   17.8632   37.2680 C   0  0  0  0  0  0  0  0  0  0  0  0
   44.4450   17.4155   37.8647 O   0  0  0  0  0  0  0  0  0  0  0  0
   46.3380   19.5292   36.7326 H   0  0  0  0  0  0  0  0  0  0  0  0
   46.2038   17.1003   36.3794 C   0  0  0  0  0  0  0  0  0  0  0  0
   47.6453   17.1324   36.9269 C   0  0  0  0  0  0  0  0  0  0  0  0
   46.1532   17.5005   35.0146 N   0  0  0  0  0  0  0  0  0  0  0  0
   46.4019   16.7538   33.9366 C   0  0  0  0  0  0  0  0  0  0  0  0
   46.2783   17.2825   32.8685 O   0  0  0  0  0  0  0  0  0  0  0  0
   45.9056   18.4383   34.8457 H   0  0  0  0  0  0  0  0  0  0  0  0
   46.7880   15.4955   34.0952 O   0  0  0  0  0  0  0  0  0  0  0  0
   48.1682   15.2332   34.0501 C   0  0  0  0  0  0  0  0  0  0  0  0
   48.8977   15.5919   32.8670 C   0  0  0  0  0  0  0  0  0  0  0  0
   49.7524   16.6343   32.9115 C   0  0  0  0  0  0  0  0  0  0  0  0
   50.4462   16.9896   31.8120 C   0  0  0  0  0  0  0  0  0  0  0  0
   50.2553   16.3289   30.6544 C   0  0  0  0  0  0  0  0  0  0  0  0
   49.4007   15.2900   30.6091 C   0  0  0  0  0  0  0  0  0  0  0  0
   48.7073   14.9267   31.7073 C   0  0  0  0  0  0  0  0  0  0  0  0
  9 10  2  0  0  0
  9 11  1  0  0  0
  9  8  1  0  0  0
 13  8  1  0  0  0
 13 14  1  0  0  0
  8  7  1  0  0  0
 14 15  2  0  0  0
 14 19  1  0  0  0
 15 16  1  0  0  0
 16 17  2  0  0  0
 17 18  1  0  0  0
 18 19  2  0  0  0
  7  3  1  0  0  0
  3  4  2  0  0  0
  3  5  1  0  0  0
  3  1  1  0  0  0
  1  2  1  0  0  0
  1 20  1  0  0  0
 20 21  1  0  0  0
 21 22  2  0  0  0
 21 24  1  0  0  0
 24 25  1  0  0  0
 24 26  1  0  0  0
 26 27  1  0  0  0
 27 28  2  0  0  0
 27 30  1  0  0  0
 30 31  1  0  0  0
 31 32  1  0  0  0
 32 33  2  0  0  0
 32 37  1  0  0  0
 33 34  1  0  0  0
 34 35  2  0  0  0
 35 36  1  0  0  0
 36 37  2  0  0  0
 11 12  1  0  0  0
  5  6  1  0  0  0
 20 23  1  0  0  0
 26 29  1  0  0  0
M  END
> <minimizedAffinity>
-9.81734

$$$$
6CPA_ZAF_A_309


 37 38  0  0  0  0  0  0  0  0999 V2000
   47.7031   20.5461   38.5359 C   0  0  0  0  0  0  0  0  0  0  0  0
   49.2290   20.7976   38.4721 C   0  0  0  0  0  0  0  0  0  0  0  0
   46.6702   21.8648   38.0847 P   0  0  0  0  0  0  0  0  0  0  0  0
   45.3064   21.7044   38.8064 O   0  0  0  0  0  0  0  0  0  0  0  0
   47.4774   23.1401   38.4132 O   0  0  0  0  0  0  0  0  0  0  0  0
   46.9529   23.9229   38.1829 H   0  0  0  0  0  0  0  0  0  0  0  0
   46.4438   21.7813   36.4062 O   0  0  0  0  0  0  0  0  0  0  0  0
   45.1507   22.1080   35.8408 C   0  0  0  0  0  0  0  0  0  0  0  0
   44.4180   20.8993   36.1132 C   0  0  0  0  0  0  0  0  0  0  0  0
   44.9369   19.7921   35.6449 O   0  0  0  0  0  0  0  0  0  0  0  0
   43.3969   20.8862   36.7239 O   0  0  0  0  0  0  0  0  0  0  0  0
   43.0375   21.6866   37.0530 H   0  0  0  0  0  0  0  0  0  0  0  0
   45.1893   22.3360   34.3252 C   0  0  0  0  0  0  0  0  0  0  0  0
   45.2727   23.6609   33.7880 C   0  0  0  0  0  0  0  0  0  0  0  0
   44.1845   24.4655   33.7430 C   0  0  0  0  0  0  0  0  0  0  0  0
   44.2842   25.7055   33.2161 C   0  0  0  0  0  0  0  0  0  0  0  0
   45.4749   26.1721   32.7835 C   0  0  0  0  0  0  0  0  0  0  0  0
   46.5695   25.3819   32.8584 C   0  0  0  0  0  0  0  0  0  0  0  0
   46.4602   24.1249   33.3424 C   0  0  0  0  0  0  0  0  0  0  0  0
   47.4782   19.4604   37.6452 N   0  0  0  0  0  0  0  0  0  0  0  0
   46.8621   18.3199   37.9795 C   0  0  0  0  0  0  0  0  0  0  0  0
   46.2213   18.2415   38.9826 O   0  0  0  0  0  0  0  0  0  0  0  0
   47.7977   19.5541   36.7187 H   0  0  0  0  0  0  0  0  0  0  0  0
   47.0451   17.2384   37.0555 C   0  0  0  0  0  0  0  0  0  0  0  0
   48.5588   17.0726   36.8107 C   0  0  0  0  0  0  0  0  0  0  0  0
   46.3275   17.3613   35.8326 N   0  0  0  0  0  0  0  0  0  0  0  0
   46.4547   16.6136   34.7343 C   0  0  0  0  0  0  0  0  0  0  0  0
   45.7314   16.8709   33.8144 O   0  0  0  0  0  0  0  0  0  0  0  0
   45.6587   18.0827   35.7920 H   0  0  0  0  0  0  0  0  0  0  0  0
   47.3714   15.6563   34.7050 O   0  0  0  0  0  0  0  0  0  0  0  0
   47.7237   15.1383   33.4466 C   0  0  0  0  0  0  0  0  0  0  0  0
   48.8357   15.7207   32.7505 C   0  0  0  0  0  0  0  0  0  0  0  0
   49.8729   16.2105   33.4601 C   0  0  0  0  0  0  0  0  0  0  0  0
   50.9266   16.7634   32.8271 C   0  0  0  0  0  0  0  0  0  0  0  0
   50.9261   16.8651   31.4844 C   0  0  0  0  0  0  0  0  0  0  0  0
   49.8900   16.3784   30.7761 C   0  0  0  0  0  0  0  0  0  0  0  0
   48.8352   15.8198   31.4037 C   0  0  0  0  0  0  0  0  0  0  0  0
  9 10  2  0  0  0
  9 11  1  0  0  0
  9  8  1  0  0  0
 13  8  1  0  0  0
 13 14  1  0  0  0
  8  7  1  0  0  0
 14 15  2  0  0  0
 14 19  1  0  0  0
 15 16  1  0  0  0
 16 17  2  0  0  0
 17 18  1  0  0  0
 18 19  2  0  0  0
  7  3  1  0  0  0
  3  4  2  0  0  0
  3  5  1  0  0  0
  3  1  1  0  0  0
  1  2  1  0  0  0
  1 20  1  0  0  0
 20 21  1  0  0  0
 21 22  2  0  0  0
 21 24  1  0  0  0
 24 25  1  0  0  0
 24 26  1  0  0  0
 26 27  1  0  0  0
 27 28  2  0  0  0
 27 30  1  0  0  0
 30 31  1  0  0  0
 31 32  1  0  0  0
 32 33  2  0  0  0
 32 37  1  0  0  0
 33 34  1  0  0  0
 34 35  2  0  0  0
 35 36  1  0  0  0
 36 37  2  0  0  0
 11 12  1  0  0  0
  5  6  1  0  0  0
 20 23  1  0  0  0
 26 29  1  0  0  0
M  END
> <minimizedAffinity>
-9.24440

$$$$
6CPA_ZAF_A_309


 37 38  0  0  0  0  0  0  0  0999 V2000
   46.4056   21.7997   38.3539 C   0  0  0  0  0  0  0  0  0  0  0  0
   47.6741   22.6658   38.1634 C   0  0  0  0  0  0  0  0  0  0  0  0
   45.4125   21.5430   36.9549 P   0  0  0  0  0  0  0  0  0  0  0  0
   45.2676   20.0173   36.7147 O   0  0  0  0  0  0  0  0  0  0  0  0
   44.1092   22.3226   37.2368 O   0  0  0  0  0  0  0  0  0  0  0  0
   43.5028   22.2208   36.4866 H   0  0  0  0  0  0  0  0  0  0  0  0
   46.2001   22.2588   35.6347 O   0  0  0  0  0  0  0  0  0  0  0  0
   45.4359   23.0351   34.6797 C   0  0  0  0  0  0  0  0  0  0  0  0
   44.8111   21.9897   33.9124 C   0  0  0  0  0  0  0  0  0  0  0  0
   43.5611   22.1887   33.5769 O   0  0  0  0  0  0  0  0  0  0  0  0
   45.3791   20.9939   33.5941 O   0  0  0  0  0  0  0  0  0  0  0  0
   46.2737   20.8653   33.8415 H   0  0  0  0  0  0  0  0  0  0  0  0
   46.3089   23.8832   33.7474 C   0  0  0  0  0  0  0  0  0  0  0  0
   45.7305   24.5770   32.6361 C   0  0  0  0  0  0  0  0  0  0  0  0
   45.8185   24.0790   31.3799 C   0  0  0  0  0  0  0  0  0  0  0  0
   45.2794   24.7603   30.3454 C   0  0  0  0  0  0  0  0  0  0  0  0
   44.6032   25.9088   30.5597 C   0  0  0  0  0  0  0  0  0  0  0  0
   44.4857   26.3904   31.8177 C   0  0  0  0  0  0  0  0  0  0  0  0
   45.0649   25.7332   32.8467 C   0  0  0  0  0  0  0  0  0  0  0  0
   46.8911   20.5431   38.8098 N   0  0  0  0  0  0  0  0  0  0  0  0
   46.6741   20.0443   40.0330 C   0  0  0  0  0  0  0  0  0  0  0  0
   45.8312   20.5040   40.7408 O   0  0  0  0  0  0  0  0  0  0  0  0
   47.4237   20.0026   38.1824 H   0  0  0  0  0  0  0  0  0  0  0  0
   47.5250   18.9501   40.4015 C   0  0  0  0  0  0  0  0  0  0  0  0
   48.7898   19.0134   39.5211 C   0  0  0  0  0  0  0  0  0  0  0  0
   46.9139   17.6659   40.3483 N   0  0  0  0  0  0  0  0  0  0  0  0
   46.5963   16.9589   39.2617 C   0  0  0  0  0  0  0  0  0  0  0  0
   46.1062   15.8799   39.4389 O   0  0  0  0  0  0  0  0  0  0  0  0
   46.7005   17.2501   41.2148 H   0  0  0  0  0  0  0  0  0  0  0  0
   46.8122   17.4817   38.0627 O   0  0  0  0  0  0  0  0  0  0  0  0
   46.3665   16.7488   36.9491 C   0  0  0  0  0  0  0  0  0  0  0  0
   47.2577   16.5784   35.8369 C   0  0  0  0  0  0  0  0  0  0  0  0
   48.5714   16.3811   36.0705 C   0  0  0  0  0  0  0  0  0  0  0  0
   49.4264   16.2205   35.0411 C   0  0  0  0  0  0  0  0  0  0  0  0
   48.9756   16.2987   33.7746 C   0  0  0  0  0  0  0  0  0  0  0  0
   47.6650   16.4980   33.5413 C   0  0  0  0  0  0  0  0  0  0  0  0
   46.8039   16.6545   34.5673 C   0  0  0  0  0  0  0  0  0  0  0  0
  9 10  2  0  0  0
  9 11  1  0  0  0
  9  8  1  0  0  0
 13  8  1  0  0  0
 13 14  1  0  0  0
  8  7  1  0  0  0
 14 15  2  0  0  0
 14 19  1  0  0  0
 15 16  1  0  0  0
 16 17  2  0  0  0
 17 18  1  0  0  0
 18 19  2  0  0  0
  7  3  1  0  0  0
  3  4  2  0  0  0
  3  5  1  0  0  0
  3  1  1  0  0  0
  1  2  1  0  0  0
  1 20  1  0  0  0
 20 21  1  0  0  0
 21 22  2  0  0  0
 21 24  1  0  0  0
 24 25  1  0  0  0
 24 26  1  0  0  0
 26 27  1  0  0  0
 27 28  2  0  0  0
 27 30  1  0  0  0
 30 31  1  0  0  0
 31 32  1  0  0  0
 32 33  2  0  0  0
 32 37  1  0  0  0
 33 34  1  0  0  0
 34 35  2  0  0  0
 35 36  1  0  0  0
 36 37  2  0  0  0
 11 12  1  0  0  0
  5  6  1  0  0  0
 20 23  1  0  0  0
 26 29  1  0  0  0
M  END
> <minimizedAffinity>
-9.15867

$$$$
6CPA_ZAF_A_309


 37 38  0  0  0  0  0  0  0  0999 V2000
   46.9050   18.1726   38.3956 C   0  0  0  0  0  0  0  0  0  0  0  0
   45.3835   17.9870   38.1809 C   0  0  0  0  0  0  0  0  0  0  0  0
   47.9443   16.9381   37.7591 P   0  0  0  0  0  0  0  0  0  0  0  0
   49.2699   17.5914   37.2873 O   0  0  0  0  0  0  0  0  0  0  0  0
   48.0573   15.8862   38.8844 O   0  0  0  0  0  0  0  0  0  0  0  0
   48.6305   15.1603   38.5921 H   0  0  0  0  0  0  0  0  0  0  0  0
   47.1486   16.2365   36.4362 O   0  0  0  0  0  0  0  0  0  0  0  0
   47.4231   16.7178   35.0977 C   0  0  0  0  0  0  0  0  0  0  0  0
   46.0901   16.8252   34.5651 C   0  0  0  0  0  0  0  0  0  0  0  0
   45.9663   17.5055   33.4531 O   0  0  0  0  0  0  0  0  0  0  0  0
   45.1425   16.3344   35.0910 O   0  0  0  0  0  0  0  0  0  0  0  0
   45.2465   15.8503   35.8866 H   0  0  0  0  0  0  0  0  0  0  0  0
   48.2212   15.7242   34.2455 C   0  0  0  0  0  0  0  0  0  0  0  0
   49.3228   16.1685   33.4454 C   0  0  0  0  0  0  0  0  0  0  0  0
   50.5999   16.0106   33.8668 C   0  0  0  0  0  0  0  0  0  0  0  0
   51.6218   16.4532   33.1019 C   0  0  0  0  0  0  0  0  0  0  0  0
   51.3836   17.0029   31.8921 C   0  0  0  0  0  0  0  0  0  0  0  0
   50.1104   17.1310   31.4552 C   0  0  0  0  0  0  0  0  0  0  0  0
   49.0860   16.7309   32.2405 C   0  0  0  0  0  0  0  0  0  0  0  0
   47.2121   19.4061   37.7576 N   0  0  0  0  0  0  0  0  0  0  0  0
   47.1297   20.6057   38.3460 C   0  0  0  0  0  0  0  0  0  0  0  0
   47.0464   20.7014   39.5321 O   0  0  0  0  0  0  0  0  0  0  0  0
   47.5055   19.3756   36.8183 H   0  0  0  0  0  0  0  0  0  0  0  0
   47.1427   21.7238   37.4478 C   0  0  0  0  0  0  0  0  0  0  0  0
   47.8884   22.8824   38.1409 C   0  0  0  0  0  0  0  0  0  0  0  0
   45.8642   22.1329   36.9749 N   0  0  0  0  0  0  0  0  0  0  0  0
   45.5440   22.5484   35.7475 C   0  0  0  0  0  0  0  0  0  0  0  0
   44.3952   22.8258   35.5497 O   0  0  0  0  0  0  0  0  0  0  0  0
   45.1297   22.1062   37.6299 H   0  0  0  0  0  0  0  0  0  0  0  0
   46.4956   22.6544   34.8306 O   0  0  0  0  0  0  0  0  0  0  0  0
   46.8491   23.9495   34.4138 C   0  0  0  0  0  0  0  0  0  0  0  0
   46.1997   24.5009   33.2586 C   0  0  0  0  0  0  0  0  0  0  0  0
   46.2190   23.8102   32.1003 C   0  0  0  0  0  0  0  0  0  0  0  0
   45.6171   24.3099   31.0028 C   0  0  0  0  0  0  0  0  0  0  0  0
   45.0306   25.5211   31.0507 C   0  0  0  0  0  0  0  0  0  0  0  0
   45.0132   26.2116   32.2060 C   0  0  0  0  0  0  0  0  0  0  0  0
   45.6095   25.7145   33.3087 C   0  0  0  0  0  0  0  0  0  0  0  0
  9 10  2  0  0  0
  9 11  1  0  0  0
  9  8  1  0  0  0
 13  8  1  0  0  0
 13 14  1  0  0  0
  8  7  1  0  0  0
 14 15  2  0  0  0
 14 19  1  0  0  0
 15 16  1  0  0  0
 16 17  2  0  0  0
 17 18  1  0  0  0
 18 19  2  0  0  0
  7  3  1  0  0  0
  3  4  2  0  0  0
  3  5  1  0  0  0
  3  1  1  0  0  0
  1  2  1  0  0  0
  1 20  1  0  0  0
 20 21  1  0  0  0
 21 22  2  0  0  0
 21 24  1  0  0  0
 24 25  1  0  0  0
 24 26  1  0  0  0
 26 27  1  0  0  0
 27 28  2  0  0  0
 27 30  1  0  0  0
 30 31  1  0  0  0
 31 32  1  0  0  0
 32 33  2  0  0  0
 32 37  1  0  0  0
 33 34  1  0  0  0
 34 35  2  0  0  0
 35 36  1  0  0  0
 36 37  2  0  0  0
 11 12  1  0  0  0
  5  6  1  0  0  0
 20 23  1  0  0  0
 26 29  1  0  0  0
M  END
> <minimizedAffinity>
-9.10326

$$$$
6CPA_ZAF_A_309


 37 38  0  0  0  0  0  0  0  0999 V2000
   45.9097   21.2760   38.7551 C   0  0  0  0  0  0  0  0  0  0  0  0
   47.1531   22.1812   38.5812 C   0  0  0  0  0  0  0  0  0  0  0  0
   44.8230   21.1669   37.4073 P   0  0  0  0  0  0  0  0  0  0  0  0
   44.3411   19.6990   37.2681 O   0  0  0  0  0  0  0  0  0  0  0  0
   43.7331   22.2266   37.6811 O   0  0  0  0  0  0  0  0  0  0  0  0
   43.0860   22.2190   36.9585 H   0  0  0  0  0  0  0  0  0  0  0  0
   45.6869   21.6205   36.0204 O   0  0  0  0  0  0  0  0  0  0  0  0
   45.0922   22.5448   35.0766 C   0  0  0  0  0  0  0  0  0  0  0  0
   44.5139   21.6326   34.1251 C   0  0  0  0  0  0  0  0  0  0  0  0
   43.3688   21.9935   33.6024 O   0  0  0  0  0  0  0  0  0  0  0  0
   45.0289   20.6043   33.8201 O   0  0  0  0  0  0  0  0  0  0  0  0
   45.8485   20.3593   34.2025 H   0  0  0  0  0  0  0  0  0  0  0  0
   46.1203   23.4272   34.3590 C   0  0  0  0  0  0  0  0  0  0  0  0
   45.7362   24.2326   33.2389 C   0  0  0  0  0  0  0  0  0  0  0  0
   45.0844   25.4065   33.4141 C   0  0  0  0  0  0  0  0  0  0  0  0
   44.7175   26.1406   32.3410 C   0  0  0  0  0  0  0  0  0  0  0  0
   45.0446   25.7412   31.0936 C   0  0  0  0  0  0  0  0  0  0  0  0
   45.7248   24.5857   30.9187 C   0  0  0  0  0  0  0  0  0  0  0  0
   46.0508   23.8282   31.9893 C   0  0  0  0  0  0  0  0  0  0  0  0
   46.4385   19.9836   39.0251 N   0  0  0  0  0  0  0  0  0  0  0  0
   47.4686   19.4335   38.3707 C   0  0  0  0  0  0  0  0  0  0  0  0
   48.1870   20.0991   37.6896 O   0  0  0  0  0  0  0  0  0  0  0  0
   46.0178   19.4572   39.7428 H   0  0  0  0  0  0  0  0  0  0  0  0
   47.6169   18.0186   38.5529 C   0  0  0  0  0  0  0  0  0  0  0  0
   47.0745   17.6595   39.9513 C   0  0  0  0  0  0  0  0  0  0  0  0
   48.9357   17.5200   38.3591 N   0  0  0  0  0  0  0  0  0  0  0  0
   49.4118   16.8656   37.2976 C   0  0  0  0  0  0  0  0  0  0  0  0
   50.5677   16.5516   37.3258 O   0  0  0  0  0  0  0  0  0  0  0  0
   49.5716   17.6762   39.0943 H   0  0  0  0  0  0  0  0  0  0  0  0
   48.5952   16.5796   36.2932 O   0  0  0  0  0  0  0  0  0  0  0  0
   49.0729   15.7048   35.3020 C   0  0  0  0  0  0  0  0  0  0  0  0
   49.2867   16.2170   33.9783 C   0  0  0  0  0  0  0  0  0  0  0  0
   48.2216   16.5611   33.2256 C   0  0  0  0  0  0  0  0  0  0  0  0
   48.3992   17.0425   31.9794 C   0  0  0  0  0  0  0  0  0  0  0  0
   49.6409   17.1416   31.4679 C   0  0  0  0  0  0  0  0  0  0  0  0
   50.7039   16.7962   32.2180 C   0  0  0  0  0  0  0  0  0  0  0  0
   50.5327   16.3184   33.4674 C   0  0  0  0  0  0  0  0  0  0  0  0
  9 10  2  0  0  0
  9 11  1  0  0  0
  9  8  1  0  0  0
 13  8  1  0  0  0
 13 14  1  0  0  0
  8  7  1  0  0  0
 14 15  2  0  0  0
 14 19  1  0  0  0
 15 16  1  0  0  0
 16 17  2  0  0  0
 17 18  1  0  0  0
 18 19  2  0  0  0
  7  3  1  0  0  0
  3  4  2  0  0  0
  3  5  1  0  0  0
  3  1  1  0  0  0
  1  2  1  0  0  0
  1 20  1  0  0  0
 20 21  1  0  0  0
 21 22  2  0  0  0
 21 24  1  0  0  0
 24 25  1  0  0  0
 24 26  1  0  0  0
 26 27  1  0  0  0
 27 28  2  0  0  0
 27 30  1  0  0  0
 30 31  1  0  0  0
 31 32  1  0  0  0
 32 33  2  0  0  0
 32 37  1  0  0  0
 33 34  1  0  0  0
 34 35  2  0  0  0
 35 36  1  0  0  0
 36 37  2  0  0  0
 11 12  1  0  0  0
  5  6  1  0  0  0
 20 23  1  0  0  0
 26 29  1  0  0  0
M  END
> <minimizedAffinity>
-8.91914

$$$$
6CPA_ZAF_A_309


 37 38  0  0  0  0  0  0  0  0999 V2000
   45.1349   20.0761   38.1183 C   0  0  0  0  0  0  0  0  0  0  0  0
   45.6062   20.5901   39.5001 C   0  0  0  0  0  0  0  0  0  0  0  0
   44.7202   21.2742   36.9343 P   0  0  0  0  0  0  0  0  0  0  0  0
   44.8302   20.6433   35.5214 O   0  0  0  0  0  0  0  0  0  0  0  0
   43.3249   21.7883   37.3522 O   0  0  0  0  0  0  0  0  0  0  0  0
   43.0298   22.4679   36.7261 H   0  0  0  0  0  0  0  0  0  0  0  0
   45.8350   22.5432   37.0838 O   0  0  0  0  0  0  0  0  0  0  0  0
   47.0325   22.5444   36.2685 C   0  0  0  0  0  0  0  0  0  0  0  0
   48.0508   22.3962   37.2750 C   0  0  0  0  0  0  0  0  0  0  0  0
   48.3209   23.4635   37.9839 O   0  0  0  0  0  0  0  0  0  0  0  0
   48.6273   21.3729   37.4654 O   0  0  0  0  0  0  0  0  0  0  0  0
   48.4232   20.6173   36.9502 H   0  0  0  0  0  0  0  0  0  0  0  0
   47.2588   23.8641   35.5217 C   0  0  0  0  0  0  0  0  0  0  0  0
   46.7135   24.0652   34.2129 C   0  0  0  0  0  0  0  0  0  0  0  0
   46.2825   25.2862   33.8164 C   0  0  0  0  0  0  0  0  0  0  0  0
   45.7563   25.4475   32.5826 C   0  0  0  0  0  0  0  0  0  0  0  0
   45.7070   24.4116   31.7182 C   0  0  0  0  0  0  0  0  0  0  0  0
   46.1676   23.1993   32.1009 C   0  0  0  0  0  0  0  0  0  0  0  0
   46.6510   23.0271   33.3511 C   0  0  0  0  0  0  0  0  0  0  0  0
   46.2246   19.3041   37.6290 N   0  0  0  0  0  0  0  0  0  0  0  0
   46.1880   17.9808   37.4300 C   0  0  0  0  0  0  0  0  0  0  0  0
   45.1494   17.3949   37.3990 O   0  0  0  0  0  0  0  0  0  0  0  0
   47.0639   19.7755   37.4224 H   0  0  0  0  0  0  0  0  0  0  0  0
   47.4691   17.3558   37.2714 C   0  0  0  0  0  0  0  0  0  0  0  0
   47.3413   16.2808   36.1728 C   0  0  0  0  0  0  0  0  0  0  0  0
   48.0315   16.8208   38.4643 N   0  0  0  0  0  0  0  0  0  0  0  0
   48.7174   17.4728   39.4056 C   0  0  0  0  0  0  0  0  0  0  0  0
   49.0857   16.8347   40.3504 O   0  0  0  0  0  0  0  0  0  0  0  0
   47.8991   15.8566   38.6126 H   0  0  0  0  0  0  0  0  0  0  0  0
   48.9733   18.7635   39.2437 O   0  0  0  0  0  0  0  0  0  0  0  0
   49.0287   19.5607   40.4001 C   0  0  0  0  0  0  0  0  0  0  0  0
   50.2781   20.1723   40.7541 C   0  0  0  0  0  0  0  0  0  0  0  0
   51.0609   20.6812   39.7807 C   0  0  0  0  0  0  0  0  0  0  0  0
   52.2388   21.2584   40.0902 C   0  0  0  0  0  0  0  0  0  0  0  0
   52.6556   21.2904   41.3703 C   0  0  0  0  0  0  0  0  0  0  0  0
   51.8757   20.7804   42.3416 C   0  0  0  0  0  0  0  0  0  0  0  0
   50.6938   20.2060   42.0385 C   0  0  0  0  0  0  0  0  0  0  0  0
  9 10  2  0  0  0
  9 11  1  0  0  0
  9  8  1  0  0  0
 13  8  1  0  0  0
 13 14  1  0  0  0
  8  7  1  0  0  0
 14 15  2  0  0  0
 14 19  1  0  0  0
 15 16  1  0  0  0
 16 17  2  0  0  0
 17 18  1  0  0  0
 18 19  2  0  0  0
  7  3  1  0  0  0
  3  4  2  0  0  0
  3  5  1  0  0  0
  3  1  1  0  0  0
  1  2  1  0  0  0
  1 20  1  0  0  0
 20 21  1  0  0  0
 21 22  2  0  0  0
 21 24  1  0  0  0
 24 25  1  0  0  0
 24 26  1  0  0  0
 26 27  1  0  0  0
 27 28  2  0  0  0
 27 30  1  0  0  0
 30 31  1  0  0  0
 31 32  1  0  0  0
 32 33  2  0  0  0
 32 37  1  0  0  0
 33 34  1  0  0  0
 34 35  2  0  0  0
 35 36  1  0  0  0
 36 37  2  0  0  0
 11 12  1  0  0  0
  5  6  1  0  0  0
 20 23  1  0  0  0
 26 29  1  0  0  0
M  END
> <minimizedAffinity>
-8.63927

$$$$
6CPA_ZAF_A_309


 37 38  0  0  0  0  0  0  0  0999 V2000
   45.7314   19.7050   37.7511 C   0  0  0  0  0  0  0  0  0  0  0  0
   44.8964   18.5046   38.2585 C   0  0  0  0  0  0  0  0  0  0  0  0
   44.8528   21.0823   37.1680 P   0  0  0  0  0  0  0  0  0  0  0  0
   43.5124   20.6000   36.5538 O   0  0  0  0  0  0  0  0  0  0  0  0
   44.7518   22.0380   38.3772 O   0  0  0  0  0  0  0  0  0  0  0  0
   44.2669   22.8372   38.1181 H   0  0  0  0  0  0  0  0  0  0  0  0
   45.8001   21.8190   35.9698 O   0  0  0  0  0  0  0  0  0  0  0  0
   45.1739   22.6913   34.9973 C   0  0  0  0  0  0  0  0  0  0  0  0
   44.6208   21.7292   34.0806 C   0  0  0  0  0  0  0  0  0  0  0  0
   43.4594   22.0324   33.5573 O   0  0  0  0  0  0  0  0  0  0  0  0
   45.1697   20.7106   33.8036 O   0  0  0  0  0  0  0  0  0  0  0  0
   46.0006   20.5071   34.1860 H   0  0  0  0  0  0  0  0  0  0  0  0
   46.1717   23.5795   34.2451 C   0  0  0  0  0  0  0  0  0  0  0  0
   45.7506   24.3613   33.1215 C   0  0  0  0  0  0  0  0  0  0  0  0
   45.1680   25.5716   33.2923 C   0  0  0  0  0  0  0  0  0  0  0  0
   44.7640   26.2831   32.2172 C   0  0  0  0  0  0  0  0  0  0  0  0
   44.9867   25.8224   30.9680 C   0  0  0  0  0  0  0  0  0  0  0  0
   45.5984   24.6290   30.7949 C   0  0  0  0  0  0  0  0  0  0  0  0
   45.9604   23.8961   31.8709 C   0  0  0  0  0  0  0  0  0  0  0  0
   46.5144   20.0996   38.8710 N   0  0  0  0  0  0  0  0  0  0  0  0
   47.8264   20.3614   38.8250 C   0  0  0  0  0  0  0  0  0  0  0  0
   48.3791   20.5389   37.7829 O   0  0  0  0  0  0  0  0  0  0  0  0
   46.0600   20.1862   39.7401 H   0  0  0  0  0  0  0  0  0  0  0  0
   48.4823   20.3992   40.1000 C   0  0  0  0  0  0  0  0  0  0  0  0
   49.9926   20.5899   39.8526 C   0  0  0  0  0  0  0  0  0  0  0  0
   48.2270   19.2816   40.9434 N   0  0  0  0  0  0  0  0  0  0  0  0
   48.4337   17.9913   40.6714 C   0  0  0  0  0  0  0  0  0  0  0  0
   48.1715   17.2044   41.5361 O   0  0  0  0  0  0  0  0  0  0  0  0
   47.8540   19.4840   41.8317 H   0  0  0  0  0  0  0  0  0  0  0  0
   48.8884   17.6462   39.4749 O   0  0  0  0  0  0  0  0  0  0  0  0
   48.1631   16.6740   38.7645 C   0  0  0  0  0  0  0  0  0  0  0  0
   48.4350   16.4994   37.3659 C   0  0  0  0  0  0  0  0  0  0  0  0
   47.4181   16.5760   36.4832 C   0  0  0  0  0  0  0  0  0  0  0  0
   47.6504   16.4135   35.1655 C   0  0  0  0  0  0  0  0  0  0  0  0
   48.8939   16.1324   34.7321 C   0  0  0  0  0  0  0  0  0  0  0  0
   49.9085   16.0536   35.6131 C   0  0  0  0  0  0  0  0  0  0  0  0
   49.6831   16.2202   36.9323 C   0  0  0  0  0  0  0  0  0  0  0  0
  9 10  2  0  0  0
  9 11  1  0  0  0
  9  8  1  0  0  0
 13  8  1  0  0  0
 13 14  1  0  0  0
  8  7  1  0  0  0
 14 15  2  0  0  0
 14 19  1  0  0  0
 15 16  1  0  0  0
 16 17  2  0  0  0
 17 18  1  0  0  0
 18 19  2  0  0  0
  7  3  1  0  0  0
  3  4  2  0  0  0
  3  5  1  0  0  0
  3  1  1  0  0  0
  1  2  1  0  0  0
  1 20  1  0  0  0
 20 21  1  0  0  0
 21 22  2  0  0  0
 21 24  1  0  0  0
 24 25  1  0  0  0
 24 26  1  0  0  0
 26 27  1  0  0  0
 27 28  2  0  0  0
 27 30  1  0  0  0
 30 31  1  0  0  0
 31 32  1  0  0  0
 32 33  2  0  0  0
 32 37  1  0  0  0
 33 34  1  0  0  0
 34 35  2  0  0  0
 35 36  1  0  0  0
 36 37  2  0  0  0
 11 12  1  0  0  0
  5  6  1  0  0  0
 20 23  1  0  0  0
 26 29  1  0  0  0
M  END
> <minimizedAffinity>
-8.54129

$$$$
6CPA_ZAF_A_309


 37 38  0  0  0  0  0  0  0  0999 V2000
   46.0802   21.1217   38.5598 C   0  0  0  0  0  0  0  0  0  0  0  0
   47.2495   22.1282   38.4357 C   0  0  0  0  0  0  0  0  0  0  0  0
   44.8994   21.1292   37.2890 P   0  0  0  0  0  0  0  0  0  0  0  0
   44.3419   19.6923   37.1128 O   0  0  0  0  0  0  0  0  0  0  0  0
   43.8808   22.2185   37.6912 O   0  0  0  0  0  0  0  0  0  0  0  0
   43.1859   22.2761   37.0169 H   0  0  0  0  0  0  0  0  0  0  0  0
   45.6855   21.6172   35.8680 O   0  0  0  0  0  0  0  0  0  0  0  0
   45.0690   22.6116   35.0137 C   0  0  0  0  0  0  0  0  0  0  0  0
   44.4058   21.7732   34.0498 C   0  0  0  0  0  0  0  0  0  0  0  0
   45.0260   20.6670   33.7238 O   0  0  0  0  0  0  0  0  0  0  0  0
   43.3564   22.0526   33.5637 O   0  0  0  0  0  0  0  0  0  0  0  0
   42.9243   22.8477   33.8068 H   0  0  0  0  0  0  0  0  0  0  0  0
   46.0832   23.5014   34.2856 C   0  0  0  0  0  0  0  0  0  0  0  0
   45.6866   24.2872   33.1560 C   0  0  0  0  0  0  0  0  0  0  0  0
   45.0305   25.4606   33.3177 C   0  0  0  0  0  0  0  0  0  0  0  0
   44.6518   26.1760   32.2361 C   0  0  0  0  0  0  0  0  0  0  0  0
   44.9714   25.7585   30.9927 C   0  0  0  0  0  0  0  0  0  0  0  0
   45.6558   24.6037   30.8307 C   0  0  0  0  0  0  0  0  0  0  0  0
   45.9937   23.8646   31.9104 C   0  0  0  0  0  0  0  0  0  0  0  0
   46.7052   19.8448   38.5992 N   0  0  0  0  0  0  0  0  0  0  0  0
   47.0205   19.1887   39.7227 C   0  0  0  0  0  0  0  0  0  0  0  0
   46.5568   19.5143   40.7724 O   0  0  0  0  0  0  0  0  0  0  0  0
   46.9208   19.4135   37.7408 H   0  0  0  0  0  0  0  0  0  0  0  0
   47.9410   18.1021   39.5524 C   0  0  0  0  0  0  0  0  0  0  0  0
   47.5565   17.3506   38.2616 C   0  0  0  0  0  0  0  0  0  0  0  0
   48.0424   17.2174   40.6626 N   0  0  0  0  0  0  0  0  0  0  0  0
   49.0792   17.0622   41.4889 C   0  0  0  0  0  0  0  0  0  0  0  0
   48.9494   16.2743   42.3822 O   0  0  0  0  0  0  0  0  0  0  0  0
   47.2555   16.6538   40.8423 H   0  0  0  0  0  0  0  0  0  0  0  0
   50.1885   17.7554   41.2736 O   0  0  0  0  0  0  0  0  0  0  0  0
   50.3332   18.9723   41.9621 C   0  0  0  0  0  0  0  0  0  0  0  0
   51.0968   20.0220   41.3495 C   0  0  0  0  0  0  0  0  0  0  0  0
   50.9430   20.2648   40.0317 C   0  0  0  0  0  0  0  0  0  0  0  0
   51.6512   21.2444   39.4356 C   0  0  0  0  0  0  0  0  0  0  0  0
   52.5457   21.9557   40.1478 C   0  0  0  0  0  0  0  0  0  0  0  0
   52.7010   21.7120   41.4625 C   0  0  0  0  0  0  0  0  0  0  0  0
   51.9916   20.7364   42.0655 C   0  0  0  0  0  0  0  0  0  0  0  0
  9 10  2  0  0  0
  9 11  1  0  0  0
  9  8  1  0  0  0
 13  8  1  0  0  0
 13 14  1  0  0  0
  8  7  1  0  0  0
 14 15  2  0  0  0
 14 19  1  0  0  0
 15 16  1  0  0  0
 16 17  2  0  0  0
 17 18  1  0  0  0
 18 19  2  0  0  0
  7  3  1  0  0  0
  3  4  2  0  0  0
  3  5  1  0  0  0
  3  1  1  0  0  0
  1  2  1  0  0  0
  1 20  1  0  0  0
 20 21  1  0  0  0
 21 22  2  0  0  0
 21 24  1  0  0  0
 24 25  1  0  0  0
 24 26  1  0  0  0
 26 27  1  0  0  0
 27 28  2  0  0  0
 27 30  1  0  0  0
 30 31  1  0  0  0
 31 32  1  0  0  0
 32 33  2  0  0  0
 32 37  1  0  0  0
 33 34  1  0  0  0
 34 35  2  0  0  0
 35 36  1  0  0  0
 36 37  2  0  0  0
 11 12  1  0  0  0
  5  6  1  0  0  0
 20 23  1  0  0  0
 26 29  1  0  0  0
M  END
> <minimizedAffinity>
-8.48731

$$$$
6CPA_ZAF_A_309


 37 38  0  0  0  0  0  0  0  0999 V2000
   48.6373   19.1401   39.0184 C   0  0  0  0  0  0  0  0  0  0  0  0
   50.1189   19.3045   39.4348 C   0  0  0  0  0  0  0  0  0  0  0  0
   47.4492   19.2685   40.2757 P   0  0  0  0  0  0  0  0  0  0  0  0
   47.4707   17.9685   41.1220 O   0  0  0  0  0  0  0  0  0  0  0  0
   47.7882   20.5796   41.0187 O   0  0  0  0  0  0  0  0  0  0  0  0
   47.1560   20.7141   41.7420 H   0  0  0  0  0  0  0  0  0  0  0  0
   45.9364   19.4415   39.5294 O   0  0  0  0  0  0  0  0  0  0  0  0
   45.7619   19.0133   38.1565 C   0  0  0  0  0  0  0  0  0  0  0  0
   44.3640   19.2922   37.9568 C   0  0  0  0  0  0  0  0  0  0  0  0
   43.5330   18.3307   38.2728 O   0  0  0  0  0  0  0  0  0  0  0  0
   43.9664   20.3284   37.5280 O   0  0  0  0  0  0  0  0  0  0  0  0
   44.5730   21.0073   37.3062 H   0  0  0  0  0  0  0  0  0  0  0  0
   46.0047   17.5135   37.9514 C   0  0  0  0  0  0  0  0  0  0  0  0
   46.5627   17.0249   36.7262 C   0  0  0  0  0  0  0  0  0  0  0  0
   45.8466   17.0430   35.5771 C   0  0  0  0  0  0  0  0  0  0  0  0
   46.3888   16.5610   34.4373 C   0  0  0  0  0  0  0  0  0  0  0  0
   47.6615   16.1113   34.4210 C   0  0  0  0  0  0  0  0  0  0  0  0
   48.3893   16.1235   35.5606 C   0  0  0  0  0  0  0  0  0  0  0  0
   47.8315   16.5622   36.7106 C   0  0  0  0  0  0  0  0  0  0  0  0
   48.4128   20.1727   38.0665 N   0  0  0  0  0  0  0  0  0  0  0  0
   48.7918   21.4467   38.2256 C   0  0  0  0  0  0  0  0  0  0  0  0
   49.5824   21.7499   39.0658 O   0  0  0  0  0  0  0  0  0  0  0  0
   47.9464   19.9341   37.2330 H   0  0  0  0  0  0  0  0  0  0  0  0
   48.1741   22.3798   37.3285 C   0  0  0  0  0  0  0  0  0  0  0  0
   48.2496   23.7796   37.9715 C   0  0  0  0  0  0  0  0  0  0  0  0
   46.8445   22.0534   36.9396 N   0  0  0  0  0  0  0  0  0  0  0  0
   46.1311   22.5888   35.9467 C   0  0  0  0  0  0  0  0  0  0  0  0
   45.0298   22.1508   35.7706 O   0  0  0  0  0  0  0  0  0  0  0  0
   46.3986   21.3501   37.4648 H   0  0  0  0  0  0  0  0  0  0  0  0
   46.6545   23.5748   35.2315 O   0  0  0  0  0  0  0  0  0  0  0  0
   46.8230   23.3538   33.8536 C   0  0  0  0  0  0  0  0  0  0  0  0
   46.1766   24.2431   32.9308 C   0  0  0  0  0  0  0  0  0  0  0  0
   45.7647   25.4531   33.3616 C   0  0  0  0  0  0  0  0  0  0  0  0
   45.1540   26.3033   32.5127 C   0  0  0  0  0  0  0  0  0  0  0  0
   44.9164   25.9284   31.2414 C   0  0  0  0  0  0  0  0  0  0  0  0
   45.3253   24.7200   30.8118 C   0  0  0  0  0  0  0  0  0  0  0  0
   45.9413   23.8670   31.6553 C   0  0  0  0  0  0  0  0  0  0  0  0
  9 10  2  0  0  0
  9 11  1  0  0  0
  9  8  1  0  0  0
 13  8  1  0  0  0
 13 14  1  0  0  0
  8  7  1  0  0  0
 14 15  2  0  0  0
 14 19  1  0  0  0
 15 16  1  0  0  0
 16 17  2  0  0  0
 17 18  1  0  0  0
 18 19  2  0  0  0
  7  3  1  0  0  0
  3  4  2  0  0  0
  3  5  1  0  0  0
  3  1  1  0  0  0
  1  2  1  0  0  0
  1 20  1  0  0  0
 20 21  1  0  0  0
 21 22  2  0  0  0
 21 24  1  0  0  0
 24 25  1  0  0  0
 24 26  1  0  0  0
 26 27  1  0  0  0
 27 28  2  0  0  0
 27 30  1  0  0  0
 30 31  1  0  0  0
 31 32  1  0  0  0
 32 33  2  0  0  0
 32 37  1  0  0  0
 33 34  1  0  0  0
 34 35  2  0  0  0
 35 36  1  0  0  0
 36 37  2  0  0  0
 11 12  1  0  0  0
  5  6  1  0  0  0
 20 23  1  0  0  0
 26 29  1  0  0  0
M  END
> <minimizedAffinity>
-8.32769

$$$$
6CPA_ZAF_A_309


 37 38  0  0  0  0  0  0  0  0999 V2000
   46.0557   20.2066   38.6141 C   0  0  0  0  0  0  0  0  0  0  0  0
   45.7254   20.3568   40.1188 C   0  0  0  0  0  0  0  0  0  0  0  0
   44.9797   20.9777   37.4931 P   0  0  0  0  0  0  0  0  0  0  0  0
   43.9890   19.9203   36.9391 O   0  0  0  0  0  0  0  0  0  0  0  0
   44.3614   22.1581   38.2742 O   0  0  0  0  0  0  0  0  0  0  0  0
   43.7434   22.6373   37.7003 H   0  0  0  0  0  0  0  0  0  0  0  0
   45.9233   21.5974   36.2277 O   0  0  0  0  0  0  0  0  0  0  0  0
   45.3399   22.5386   35.2936 C   0  0  0  0  0  0  0  0  0  0  0  0
   44.6448   21.6471   34.4026 C   0  0  0  0  0  0  0  0  0  0  0  0
   43.5166   22.0904   33.9073 O   0  0  0  0  0  0  0  0  0  0  0  0
   45.0533   20.5653   34.1221 O   0  0  0  0  0  0  0  0  0  0  0  0
   45.8623   20.2616   34.4843 H   0  0  0  0  0  0  0  0  0  0  0  0
   46.3829   23.3283   34.4943 C   0  0  0  0  0  0  0  0  0  0  0  0
   45.9905   24.1316   33.3755 C   0  0  0  0  0  0  0  0  0  0  0  0
   45.4940   25.3790   33.5517 C   0  0  0  0  0  0  0  0  0  0  0  0
   45.1150   26.1112   32.4815 C   0  0  0  0  0  0  0  0  0  0  0  0
   45.2789   25.6311   31.2304 C   0  0  0  0  0  0  0  0  0  0  0  0
   45.8055   24.3987   31.0512 C   0  0  0  0  0  0  0  0  0  0  0  0
   46.1412   23.6479   32.1234 C   0  0  0  0  0  0  0  0  0  0  0  0
   47.3524   20.7730   38.4706 N   0  0  0  0  0  0  0  0  0  0  0  0
   48.4648   20.0694   38.2267 C   0  0  0  0  0  0  0  0  0  0  0  0
   48.4041   18.9397   37.8486 O   0  0  0  0  0  0  0  0  0  0  0  0
   47.4377   21.7500   38.5564 H   0  0  0  0  0  0  0  0  0  0  0  0
   49.6917   20.7739   38.4620 C   0  0  0  0  0  0  0  0  0  0  0  0
   50.8498   19.9020   37.9353 C   0  0  0  0  0  0  0  0  0  0  0  0
   49.9090   21.1738   39.8105 N   0  0  0  0  0  0  0  0  0  0  0  0
   50.1677   20.3918   40.8608 C   0  0  0  0  0  0  0  0  0  0  0  0
   50.3434   20.9359   41.9138 O   0  0  0  0  0  0  0  0  0  0  0  0
   49.8631   22.1408   39.9897 H   0  0  0  0  0  0  0  0  0  0  0  0
   50.1949   19.0764   40.6980 O   0  0  0  0  0  0  0  0  0  0  0  0
   49.2842   18.3139   41.4498 C   0  0  0  0  0  0  0  0  0  0  0  0
   48.6755   17.1682   40.8355 C   0  0  0  0  0  0  0  0  0  0  0  0
   47.3309   17.1027   40.7521 C   0  0  0  0  0  0  0  0  0  0  0  0
   46.7382   16.0355   40.1809 C   0  0  0  0  0  0  0  0  0  0  0  0
   47.4880   15.0122   39.7294 C   0  0  0  0  0  0  0  0  0  0  0  0
   48.8298   15.0763   39.8146 C   0  0  0  0  0  0  0  0  0  0  0  0
   49.4287   16.1438   40.3807 C   0  0  0  0  0  0  0  0  0  0  0  0
  9 10  2  0  0  0
  9 11  1  0  0  0
  9  8  1  0  0  0
 13  8  1  0  0  0
 13 14  1  0  0  0
  8  7  1  0  0  0
 14 15  2  0  0  0
 14 19  1  0  0  0
 15 16  1  0  0  0
 16 17  2  0  0  0
 17 18  1  0  0  0
 18 19  2  0  0  0
  7  3  1  0  0  0
  3  4  2  0  0  0
  3  5  1  0  0  0
  3  1  1  0  0  0
  1  2  1  0  0  0
  1 20  1  0  0  0
 20 21  1  0  0  0
 21 22  2  0  0  0
 21 24  1  0  0  0
 24 25  1  0  0  0
 24 26  1  0  0  0
 26 27  1  0  0  0
 27 28  2  0  0  0
 27 30  1  0  0  0
 30 31  1  0  0  0
 31 32  1  0  0  0
 32 33  2  0  0  0
 32 37  1  0  0  0
 33 34  1  0  0  0
 34 35  2  0  0  0
 35 36  1  0  0  0
 36 37  2  0  0  0
 11 12  1  0  0  0
  5  6  1  0  0  0
 20 23  1  0  0  0
 26 29  1  0  0  0
M  END
> <minimizedAffinity>
-8.25268

$$$$
