3LP7_HAR_A_906
  RCSB PDB12061709383D
Coordinates from PDB:3LP7:A:906 Model:1 without hydrogens
 13 12  0  0  0  0            999 V2000
   21.1510  -17.7340    5.3370   N 0  0  0  0  0  0  0  0  0  0  0  0
   21.0810  -17.6770    6.6990   C 0  0  0  0  0  0  0  0  0  0  0  0
   20.2330  -16.4650    7.0950   C 0  0  0  0  0  0  0  0  0  0  0  0
   20.1580  -16.4040    8.4140   O 0  0  0  0  0  0  0  0  0  0  0  0
   22.4620  -17.5820    7.2700   C 0  0  0  0  0  0  0  0  0  0  0  0
   23.3370  -16.3610    7.5430   C 0  0  0  0  0  0  0  0  0  0  0  0
   23.7150  -14.9760    7.1440   C 0  0  0  0  0  0  0  0  0  0  0  0
   24.6740  -14.5320    7.9950   N 0  0  0  0  0  0  0  0  0  0  0  0
   25.8200  -13.9850    7.6280   C 0  0  0  0  0  0  0  0  0  0  0  0
   26.1350  -13.8150    6.3450   N 0  0  0  0  0  0  0  0  0  0  0  0
   26.6760  -13.5970    8.5670   N 0  0  0  0  0  0  0  0  0  0  0  0
   27.3100  -13.2580    6.0980   O 0  0  0  0  0  0  0  0  0  0  0  0
   19.6630  -15.6190    6.2580   O 0  0  0  0  0  0  0  0  0  0  0  0
  1  2  1  0  0  0  0
  2  3  1  0  0  0  0
  2  5  1  0  0  0  0
  3  4  2  0  0  0  0
  3 13  1  0  0  0  0
  5  6  1  0  0  0  0
  6  7  1  0  0  0  0
  7  8  1  0  0  0  0
  8  9  1  0  0  0  0
  9 10  1  0  0  0  0
  9 11  2  0  0  0  0
 10 12  1  0  0  0  0
A    1
N
A    2
CA
A    3
C
A    4
O
A    5
CB
A    6
CG
A    7
CD
A    8
NE
A    9
CZ
A   10
NH1
A   11
NH2
A   12
OH1
A   13
OXT
M  END
>  <InstanceId>
3LP7_HAR_A_906

>  <ChemCompId>
HAR

>  <PdbId>
3LP7

>  <ChainId>
A

>  <ResidueNumber>
906

>  <InsertionCode>


>  <Model>
1

>  <AltIds>


>  <MissingHeavyAtoms>
0

>  <ObservedFormula>
C6 N4 O3

>  <Name>
N-OMEGA-HYDROXY-L-ARGININE

>  <SystematicName>
(2S)-2-amino-5-[(N-hydroxycarbamimidoyl)amino]pentanoic acid

>  <Synonyms>


>  <Type>
L-PEPTIDE LINKING

>  <Formula>
C6 H14 N4 O3

>  <MolecularWeight>
190.2

>  <ModifiedDate>
2011-06-04

>  <Parent>
ARG

>  <OneLetterCode>
R

>  <SubcomponentList>


>  <AmbiguousFlag>
N

>  <InChI>
InChI=1S/C6H14N4O3/c7-4(5(11)12)2-1-3-9-6(8)10-13/h4,13H,1-3,7H2,(H,11,12)(H3,8,9,10)/t4-/m0/s1

>  <InChIKey>
FQWRAVYMZULPNK-BYPYZUCNSA-N

>  <SMILES>
C(C[C@@H](C(=O)O)N)CNC(=N)NO

$$$$
