3LP7_HAR_A_906


 20 19  0  0  0  0  0  0  0  0999 V2000
   23.3349  -15.0454    7.2609 C   0  0  0  0  0  0  0  0  0  0  0  0
   22.0401  -15.8452    7.1386 C   0  0  0  0  0  0  0  0  0  0  0  0
   20.2215  -16.9973    6.2201 N   0  0  0  0  0  0  0  0  0  0  0  0
   21.0670  -15.9475    6.0052 C   0  0  0  0  0  0  0  0  0  0  0  0
   19.5598  -17.0648    5.4468 H   0  0  0  0  0  0  0  0  0  0  0  0
   19.7122  -16.8508    7.0916 H   0  0  0  0  0  0  0  0  0  0  0  0
   21.7893  -16.1659    4.6727 C   0  0  0  0  0  0  0  0  0  0  0  0
   22.1674  -17.4305    4.5897 O   0  0  0  0  0  0  0  0  0  0  0  0
   22.0060  -15.2425    3.7553 O   0  0  0  0  0  0  0  0  0  0  0  0
   21.7040  -14.3662    3.8921 H   0  0  0  0  0  0  0  0  0  0  0  0
   24.7680  -15.0360    7.6687 C   0  0  0  0  0  0  0  0  0  0  0  0
   25.4522  -14.2386    6.8102 N   0  0  0  0  0  0  0  0  0  0  0  0
   25.3083  -14.3795    5.8465 H   0  0  0  0  0  0  0  0  0  0  0  0
   26.2971  -13.2871    7.1680 C   0  0  0  0  0  0  0  0  0  0  0  0
   26.0369  -12.0324    6.8176 N   0  0  0  0  0  0  0  0  0  0  0  0
   25.2259  -11.8240    6.2997 H   0  0  0  0  0  0  0  0  0  0  0  0
   27.3976  -13.5559    7.8686 N   0  0  0  0  0  0  0  0  0  0  0  0
   27.3822  -13.2027    9.1441 O   0  0  0  0  0  0  0  0  0  0  0  0
   28.1795  -13.9932    7.4602 H   0  0  0  0  0  0  0  0  0  0  0  0
   26.5302  -12.7898    9.3550 H   0  0  0  0  0  0  0  0  0  0  0  0
  3  4  1  0  0  0
  4  7  1  0  0  0
  4  2  1  0  0  0
  7  8  2  0  0  0
  7  9  1  0  0  0
  2  1  1  0  0  0
  1 11  1  0  0  0
 11 12  1  0  0  0
 12 14  1  0  0  0
 14 17  1  0  0  0
 14 15  2  0  0  0
 17 18  1  0  0  0
  3  5  1  0  0  0
  3  6  1  0  0  0
 12 13  1  0  0  0
 17 19  1  0  0  0
 15 16  1  0  0  0
 18 20  1  0  0  0
  9 10  1  0  0  0
M  END
> <minimizedAffinity>
-7.75701

$$$$
3LP7_HAR_A_906


 20 19  0  0  0  0  0  0  0  0999 V2000
   23.3656  -16.2338    7.4317 C   0  0  0  0  0  0  0  0  0  0  0  0
   23.0603  -17.4335    6.5381 C   0  0  0  0  0  0  0  0  0  0  0  0
   22.4723  -18.5396    4.5609 N   0  0  0  0  0  0  0  0  0  0  0  0
   22.0424  -17.5995    5.4524 C   0  0  0  0  0  0  0  0  0  0  0  0
   21.7774  -18.6508    3.8226 H   0  0  0  0  0  0  0  0  0  0  0  0
   22.6028  -19.4296    5.0419 H   0  0  0  0  0  0  0  0  0  0  0  0
   21.8118  -16.2841    4.7031 C   0  0  0  0  0  0  0  0  0  0  0  0
   20.6732  -15.7495    5.1115 O   0  0  0  0  0  0  0  0  0  0  0  0
   22.6146  -15.7672    3.7923 O   0  0  0  0  0  0  0  0  0  0  0  0
   23.4059  -16.2113    3.5590 H   0  0  0  0  0  0  0  0  0  0  0  0
   23.8641  -14.8324    7.5207 C   0  0  0  0  0  0  0  0  0  0  0  0
   25.2205  -14.8610    7.5426 N   0  0  0  0  0  0  0  0  0  0  0  0
   25.6538  -15.7271    7.7198 H   0  0  0  0  0  0  0  0  0  0  0  0
   26.0048  -13.8157    7.3444 C   0  0  0  0  0  0  0  0  0  0  0  0
   27.2963  -13.9170    7.6391 N   0  0  0  0  0  0  0  0  0  0  0  0
   27.6543  -14.7605    7.9990 H   0  0  0  0  0  0  0  0  0  0  0  0
   25.5327  -12.6690    6.8580 N   0  0  0  0  0  0  0  0  0  0  0  0
   26.4202  -11.7084    6.6542 O   0  0  0  0  0  0  0  0  0  0  0  0
   24.5764  -12.5429    6.6611 H   0  0  0  0  0  0  0  0  0  0  0  0
   27.3019  -12.0238    6.9072 H   0  0  0  0  0  0  0  0  0  0  0  0
  3  4  1  0  0  0
  4  7  1  0  0  0
  4  2  1  0  0  0
  7  8  2  0  0  0
  7  9  1  0  0  0
  2  1  1  0  0  0
  1 11  1  0  0  0
 11 12  1  0  0  0
 12 14  1  0  0  0
 14 17  1  0  0  0
 14 15  2  0  0  0
 17 18  1  0  0  0
  3  5  1  0  0  0
  3  6  1  0  0  0
 12 13  1  0  0  0
 17 19  1  0  0  0
 15 16  1  0  0  0
 18 20  1  0  0  0
  9 10  1  0  0  0
M  END
> <minimizedAffinity>
-7.67612

$$$$
3LP7_HAR_A_906


 20 19  0  0  0  0  0  0  0  0999 V2000
   23.6001  -15.5745    7.2431 C   0  0  0  0  0  0  0  0  0  0  0  0
   22.5082  -15.5325    6.1769 C   0  0  0  0  0  0  0  0  0  0  0  0
   21.3428  -15.7323    4.1569 N   0  0  0  0  0  0  0  0  0  0  0  0
   22.4473  -16.1750    4.8257 C   0  0  0  0  0  0  0  0  0  0  0  0
   21.3036  -16.1713    3.2371 H   0  0  0  0  0  0  0  0  0  0  0  0
   21.3943  -14.7194    4.0484 H   0  0  0  0  0  0  0  0  0  0  0  0
   22.3714  -17.7001    4.9401 C   0  0  0  0  0  0  0  0  0  0  0  0
   21.7513  -18.0175    6.0643 O   0  0  0  0  0  0  0  0  0  0  0  0
   22.8510  -18.5617    4.0633 O   0  0  0  0  0  0  0  0  0  0  0  0
   23.2786  -18.2530    3.2887 H   0  0  0  0  0  0  0  0  0  0  0  0
   24.9671  -15.1468    7.6541 C   0  0  0  0  0  0  0  0  0  0  0  0
   25.3374  -14.0955    6.8805 N   0  0  0  0  0  0  0  0  0  0  0  0
   24.8664  -13.9728    6.0248 H   0  0  0  0  0  0  0  0  0  0  0  0
   26.2820  -13.2232    7.1874 C   0  0  0  0  0  0  0  0  0  0  0  0
   26.1070  -11.9468    6.8631 N   0  0  0  0  0  0  0  0  0  0  0  0
   25.2844  -11.6644    6.4018 H   0  0  0  0  0  0  0  0  0  0  0  0
   27.3994  -13.5924    7.8113 N   0  0  0  0  0  0  0  0  0  0  0  0
   27.5054  -13.2403    9.0828 O   0  0  0  0  0  0  0  0  0  0  0  0
   28.1075  -14.0993    7.3520 H   0  0  0  0  0  0  0  0  0  0  0  0
   26.7116  -12.7511    9.3500 H   0  0  0  0  0  0  0  0  0  0  0  0
  3  4  1  0  0  0
  4  7  1  0  0  0
  4  2  1  0  0  0
  7  8  2  0  0  0
  7  9  1  0  0  0
  2  1  1  0  0  0
  1 11  1  0  0  0
 11 12  1  0  0  0
 12 14  1  0  0  0
 14 17  1  0  0  0
 14 15  2  0  0  0
 17 18  1  0  0  0
  3  5  1  0  0  0
  3  6  1  0  0  0
 12 13  1  0  0  0
 17 19  1  0  0  0
 15 16  1  0  0  0
 18 20  1  0  0  0
  9 10  1  0  0  0
M  END
> <minimizedAffinity>
-7.51210

$$$$
3LP7_HAR_A_906


 20 19  0  0  0  0  0  0  0  0999 V2000
   23.7800  -15.7792    7.0054 C   0  0  0  0  0  0  0  0  0  0  0  0
   22.4826  -15.6234    6.2159 C   0  0  0  0  0  0  0  0  0  0  0  0
   21.2216  -16.8707    4.6887 N   0  0  0  0  0  0  0  0  0  0  0  0
   21.3481  -16.5801    6.0164 C   0  0  0  0  0  0  0  0  0  0  0  0
   20.4483  -17.5224    4.5555 H   0  0  0  0  0  0  0  0  0  0  0  0
   22.0853  -17.2940    4.3494 H   0  0  0  0  0  0  0  0  0  0  0  0
   20.0279  -15.9860    6.5152 C   0  0  0  0  0  0  0  0  0  0  0  0
   19.6906  -16.5771    7.6492 O   0  0  0  0  0  0  0  0  0  0  0  0
   19.3333  -15.0407    5.9110 O   0  0  0  0  0  0  0  0  0  0  0  0
   19.6434  -14.6728    5.1070 H   0  0  0  0  0  0  0  0  0  0  0  0
   24.9336  -15.1056    7.6657 C   0  0  0  0  0  0  0  0  0  0  0  0
   25.2311  -13.9820    6.9657 N   0  0  0  0  0  0  0  0  0  0  0  0
   24.6394  -13.7440    6.2157 H   0  0  0  0  0  0  0  0  0  0  0  0
   26.2542  -13.1825    7.2131 C   0  0  0  0  0  0  0  0  0  0  0  0
   26.1704  -11.9046    6.8595 N   0  0  0  0  0  0  0  0  0  0  0  0
   25.3561  -11.5676    6.4207 H   0  0  0  0  0  0  0  0  0  0  0  0
   27.3613  -13.6260    7.8061 N   0  0  0  0  0  0  0  0  0  0  0  0
   27.5386  -13.2613    9.0661 O   0  0  0  0  0  0  0  0  0  0  0  0
   28.0120  -14.1937    7.3333 H   0  0  0  0  0  0  0  0  0  0  0  0
   26.7944  -12.7079    9.3503 H   0  0  0  0  0  0  0  0  0  0  0  0
  3  4  1  0  0  0
  4  7  1  0  0  0
  4  2  1  0  0  0
  7  8  2  0  0  0
  7  9  1  0  0  0
  2  1  1  0  0  0
  1 11  1  0  0  0
 11 12  1  0  0  0
 12 14  1  0  0  0
 14 17  1  0  0  0
 14 15  2  0  0  0
 17 18  1  0  0  0
  3  5  1  0  0  0
  3  6  1  0  0  0
 12 13  1  0  0  0
 17 19  1  0  0  0
 15 16  1  0  0  0
 18 20  1  0  0  0
  9 10  1  0  0  0
M  END
> <minimizedAffinity>
-7.50815

$$$$
3LP7_HAR_A_906


 20 19  0  0  0  0  0  0  0  0999 V2000
   23.2474  -15.5991    6.3437 C   0  0  0  0  0  0  0  0  0  0  0  0
   21.7960  -16.0603    6.2345 C   0  0  0  0  0  0  0  0  0  0  0  0
   19.5103  -15.8743    6.7026 N   0  0  0  0  0  0  0  0  0  0  0  0
   20.7217  -16.1354    7.2749 C   0  0  0  0  0  0  0  0  0  0  0  0
   18.7804  -15.9260    7.4132 H   0  0  0  0  0  0  0  0  0  0  0  0
   19.3237  -16.5620    5.9729 H   0  0  0  0  0  0  0  0  0  0  0  0
   20.9629  -15.1193    8.3949 C   0  0  0  0  0  0  0  0  0  0  0  0
   20.3430  -13.9905    8.0935 O   0  0  0  0  0  0  0  0  0  0  0  0
   21.6777  -15.3305    9.4837 O   0  0  0  0  0  0  0  0  0  0  0  0
   22.0860  -16.1624    9.6221 H   0  0  0  0  0  0  0  0  0  0  0  0
   24.3676  -15.1878    7.2360 C   0  0  0  0  0  0  0  0  0  0  0  0
   24.6405  -13.8789    7.0049 N   0  0  0  0  0  0  0  0  0  0  0  0
   23.9141  -13.3198    6.6458 H   0  0  0  0  0  0  0  0  0  0  0  0
   25.8067  -13.2967    7.2246 C   0  0  0  0  0  0  0  0  0  0  0  0
   26.0042  -12.0637    6.7710 N   0  0  0  0  0  0  0  0  0  0  0  0
   25.2883  -11.5991    6.2802 H   0  0  0  0  0  0  0  0  0  0  0  0
   26.7833  -13.9143    7.8872 N   0  0  0  0  0  0  0  0  0  0  0  0
   27.9860  -13.3683    7.8032 O   0  0  0  0  0  0  0  0  0  0  0  0
   26.6195  -14.7319    8.4105 H   0  0  0  0  0  0  0  0  0  0  0  0
   27.9429  -12.5751    7.2464 H   0  0  0  0  0  0  0  0  0  0  0  0
  3  4  1  0  0  0
  4  7  1  0  0  0
  4  2  1  0  0  0
  7  8  2  0  0  0
  7  9  1  0  0  0
  2  1  1  0  0  0
  1 11  1  0  0  0
 11 12  1  0  0  0
 12 14  1  0  0  0
 14 17  1  0  0  0
 14 15  2  0  0  0
 17 18  1  0  0  0
  3  5  1  0  0  0
  3  6  1  0  0  0
 12 13  1  0  0  0
 17 19  1  0  0  0
 15 16  1  0  0  0
 18 20  1  0  0  0
  9 10  1  0  0  0
M  END
> <minimizedAffinity>
-7.20167

$$$$
3LP7_HAR_A_906


 20 19  0  0  0  0  0  0  0  0999 V2000
   23.7209  -16.4059    7.8108 C   0  0  0  0  0  0  0  0  0  0  0  0
   24.9827  -15.5535    7.6995 C   0  0  0  0  0  0  0  0  0  0  0  0
   24.1850  -13.5225    6.8528 N   0  0  0  0  0  0  0  0  0  0  0  0
   25.1469  -14.0658    7.6545 C   0  0  0  0  0  0  0  0  0  0  0  0
   24.2990  -12.5093    6.8238 H   0  0  0  0  0  0  0  0  0  0  0  0
   23.2632  -13.7504    7.2254 H   0  0  0  0  0  0  0  0  0  0  0  0
   26.5212  -13.6765    7.1025 C   0  0  0  0  0  0  0  0  0  0  0  0
   27.3197  -13.3702    8.1113 O   0  0  0  0  0  0  0  0  0  0  0  0
   26.8565  -13.6451    5.8267 O   0  0  0  0  0  0  0  0  0  0  0  0
   26.2286  -13.8780    5.1714 H   0  0  0  0  0  0  0  0  0  0  0  0
   22.2862  -16.5740    7.4452 C   0  0  0  0  0  0  0  0  0  0  0  0
   22.0190  -15.7752    6.3815 N   0  0  0  0  0  0  0  0  0  0  0  0
   21.9166  -14.8109    6.5519 H   0  0  0  0  0  0  0  0  0  0  0  0
   21.8856  -16.1918    5.1342 C   0  0  0  0  0  0  0  0  0  0  0  0
   21.2119  -17.3128    4.9004 N   0  0  0  0  0  0  0  0  0  0  0  0
   20.8222  -17.8183    5.6499 H   0  0  0  0  0  0  0  0  0  0  0  0
   22.4080  -15.5171    4.1115 N   0  0  0  0  0  0  0  0  0  0  0  0
   23.1012  -16.2252    3.2340 O   0  0  0  0  0  0  0  0  0  0  0  0
   22.2852  -14.5452    4.0136 H   0  0  0  0  0  0  0  0  0  0  0  0
   23.1073  -17.1571    3.5032 H   0  0  0  0  0  0  0  0  0  0  0  0
  3  4  1  0  0  0
  4  7  1  0  0  0
  4  2  1  0  0  0
  7  8  2  0  0  0
  7  9  1  0  0  0
  2  1  1  0  0  0
  1 11  1  0  0  0
 11 12  1  0  0  0
 12 14  1  0  0  0
 14 17  1  0  0  0
 14 15  2  0  0  0
 17 18  1  0  0  0
  3  5  1  0  0  0
  3  6  1  0  0  0
 12 13  1  0  0  0
 17 19  1  0  0  0
 15 16  1  0  0  0
 18 20  1  0  0  0
  9 10  1  0  0  0
M  END
> <minimizedAffinity>
-7.12992

$$$$
3LP7_HAR_A_906


 20 19  0  0  0  0  0  0  0  0999 V2000
   23.4663  -17.2937    7.9922 C   0  0  0  0  0  0  0  0  0  0  0  0
   23.8917  -15.8496    8.2463 C   0  0  0  0  0  0  0  0  0  0  0  0
   23.5310  -15.0425    6.0791 N   0  0  0  0  0  0  0  0  0  0  0  0
   23.8383  -14.6511    7.3502 C   0  0  0  0  0  0  0  0  0  0  0  0
   23.4952  -14.2245    5.4708 H   0  0  0  0  0  0  0  0  0  0  0  0
   22.6233  -15.5079    6.0768 H   0  0  0  0  0  0  0  0  0  0  0  0
   25.1824  -13.9178    7.3248 C   0  0  0  0  0  0  0  0  0  0  0  0
   26.1275  -14.7352    7.7582 O   0  0  0  0  0  0  0  0  0  0  0  0
   25.3703  -12.6701    6.9387 O   0  0  0  0  0  0  0  0  0  0  0  0
   24.6441  -12.1565    6.6440 H   0  0  0  0  0  0  0  0  0  0  0  0
   22.3818  -18.2247    7.5711 C   0  0  0  0  0  0  0  0  0  0  0  0
   22.2337  -18.1289    6.2258 N   0  0  0  0  0  0  0  0  0  0  0  0
   22.7822  -18.7237    5.6648 H   0  0  0  0  0  0  0  0  0  0  0  0
   21.4098  -17.2985    5.6103 C   0  0  0  0  0  0  0  0  0  0  0  0
   20.2569  -16.9885    6.1931 N   0  0  0  0  0  0  0  0  0  0  0  0
   20.0282  -17.3759    7.0688 H   0  0  0  0  0  0  0  0  0  0  0  0
   21.7074  -16.7676    4.4255 N   0  0  0  0  0  0  0  0  0  0  0  0
   21.1520  -15.5982    4.1501 O   0  0  0  0  0  0  0  0  0  0  0  0
   22.3074  -17.2202    3.7895 H   0  0  0  0  0  0  0  0  0  0  0  0
   20.5985  -15.3194    4.8964 H   0  0  0  0  0  0  0  0  0  0  0  0
  3  4  1  0  0  0
  4  7  1  0  0  0
  4  2  1  0  0  0
  7  8  2  0  0  0
  7  9  1  0  0  0
  2  1  1  0  0  0
  1 11  1  0  0  0
 11 12  1  0  0  0
 12 14  1  0  0  0
 14 17  1  0  0  0
 14 15  2  0  0  0
 17 18  1  0  0  0
  3  5  1  0  0  0
  3  6  1  0  0  0
 12 13  1  0  0  0
 17 19  1  0  0  0
 15 16  1  0  0  0
 18 20  1  0  0  0
  9 10  1  0  0  0
M  END
> <minimizedAffinity>
-6.40380

$$$$
3LP7_HAR_A_906


 20 19  0  0  0  0  0  0  0  0999 V2000
   21.2028  -17.6861    8.3882 C   0  0  0  0  0  0  0  0  0  0  0  0
   21.0454  -16.2075    8.0417 C   0  0  0  0  0  0  0  0  0  0  0  0
   19.4185  -15.6209    6.4646 N   0  0  0  0  0  0  0  0  0  0  0  0
   20.7550  -15.5444    6.7310 C   0  0  0  0  0  0  0  0  0  0  0  0
   19.2233  -15.1686    5.5715 H   0  0  0  0  0  0  0  0  0  0  0  0
   18.8969  -15.1512    7.2047 H   0  0  0  0  0  0  0  0  0  0  0  0
   21.5209  -16.2168    5.5881 C   0  0  0  0  0  0  0  0  0  0  0  0
   22.7699  -15.7818    5.5918 O   0  0  0  0  0  0  0  0  0  0  0  0
   21.0178  -17.0861    4.7323 O   0  0  0  0  0  0  0  0  0  0  0  0
   20.1191  -17.3428    4.7990 H   0  0  0  0  0  0  0  0  0  0  0  0
   20.7213  -19.0804    8.1775 C   0  0  0  0  0  0  0  0  0  0  0  0
   20.9413  -19.4181    6.8819 N   0  0  0  0  0  0  0  0  0  0  0  0
   20.2714  -19.1348    6.2185 H   0  0  0  0  0  0  0  0  0  0  0  0
   21.9858  -20.0982    6.4419 C   0  0  0  0  0  0  0  0  0  0  0  0
   22.2879  -21.2559    7.0195 N   0  0  0  0  0  0  0  0  0  0  0  0
   21.7374  -21.5936    7.7626 H   0  0  0  0  0  0  0  0  0  0  0  0
   22.7385  -19.6522    5.4375 N   0  0  0  0  0  0  0  0  0  0  0  0
   22.2208  -19.7584    4.2240 O   0  0  0  0  0  0  0  0  0  0  0  0
   23.6308  -19.2650    5.5894 H   0  0  0  0  0  0  0  0  0  0  0  0
   21.3408  -20.1622    4.2822 H   0  0  0  0  0  0  0  0  0  0  0  0
  3  4  1  0  0  0
  4  7  1  0  0  0
  4  2  1  0  0  0
  7  8  2  0  0  0
  7  9  1  0  0  0
  2  1  1  0  0  0
  1 11  1  0  0  0
 11 12  1  0  0  0
 12 14  1  0  0  0
 14 17  1  0  0  0
 14 15  2  0  0  0
 17 18  1  0  0  0
  3  5  1  0  0  0
  3  6  1  0  0  0
 12 13  1  0  0  0
 17 19  1  0  0  0
 15 16  1  0  0  0
 18 20  1  0  0  0
  9 10  1  0  0  0
M  END
> <minimizedAffinity>
-6.17152

$$$$
3LP7_HAR_A_906


 20 19  0  0  0  0  0  0  0  0999 V2000
   23.1479  -16.8288    7.4303 C   0  0  0  0  0  0  0  0  0  0  0  0
   22.2970  -18.0841    7.2535 C   0  0  0  0  0  0  0  0  0  0  0  0
   22.0757  -18.9342    5.0841 N   0  0  0  0  0  0  0  0  0  0  0  0
   22.4816  -19.2606    6.3458 C   0  0  0  0  0  0  0  0  0  0  0  0
   22.2024  -19.7371    4.4678 H   0  0  0  0  0  0  0  0  0  0  0  0
   22.6310  -18.1507    4.7403 H   0  0  0  0  0  0  0  0  0  0  0  0
   21.6661  -20.4644    6.8260 C   0  0  0  0  0  0  0  0  0  0  0  0
   20.5636  -20.0312    7.4140 O   0  0  0  0  0  0  0  0  0  0  0  0
   22.0078  -21.7309    6.6829 O   0  0  0  0  0  0  0  0  0  0  0  0
   22.8095  -21.9541    6.2522 H   0  0  0  0  0  0  0  0  0  0  0  0
   23.8230  -15.8957    8.3757 C   0  0  0  0  0  0  0  0  0  0  0  0
   25.0048  -15.5136    7.8294 N   0  0  0  0  0  0  0  0  0  0  0  0
   25.7017  -16.2015    7.7275 H   0  0  0  0  0  0  0  0  0  0  0  0
   25.2925  -14.2890    7.4235 C   0  0  0  0  0  0  0  0  0  0  0  0
   24.2974  -13.4644    7.1156 N   0  0  0  0  0  0  0  0  0  0  0  0
   23.3643  -13.7690    7.1912 H   0  0  0  0  0  0  0  0  0  0  0  0
   26.5506  -13.8647    7.3170 N   0  0  0  0  0  0  0  0  0  0  0  0
   26.9142  -13.3980    6.1330 O   0  0  0  0  0  0  0  0  0  0  0  0
   27.1755  -13.8964    8.0770 H   0  0  0  0  0  0  0  0  0  0  0  0
   26.1637  -13.4496    5.5207 H   0  0  0  0  0  0  0  0  0  0  0  0
  3  4  1  0  0  0
  4  7  1  0  0  0
  4  2  1  0  0  0
  7  8  2  0  0  0
  7  9  1  0  0  0
  2  1  1  0  0  0
  1 11  1  0  0  0
 11 12  1  0  0  0
 12 14  1  0  0  0
 14 17  1  0  0  0
 14 15  2  0  0  0
 17 18  1  0  0  0
  3  5  1  0  0  0
  3  6  1  0  0  0
 12 13  1  0  0  0
 17 19  1  0  0  0
 15 16  1  0  0  0
 18 20  1  0  0  0
  9 10  1  0  0  0
M  END
> <minimizedAffinity>
-6.00258

$$$$
3LP7_HAR_A_906


 20 19  0  0  0  0  0  0  0  0999 V2000
   20.9400  -16.7173    7.5189 C   0  0  0  0  0  0  0  0  0  0  0  0
   21.4641  -17.7747    8.4875 C   0  0  0  0  0  0  0  0  0  0  0  0
   23.3271  -18.8630    7.5802 N   0  0  0  0  0  0  0  0  0  0  0  0
   22.1420  -19.0830    8.2208 C   0  0  0  0  0  0  0  0  0  0  0  0
   23.7868  -19.7555    7.3997 H   0  0  0  0  0  0  0  0  0  0  0  0
   23.9279  -18.2834    8.1663 H   0  0  0  0  0  0  0  0  0  0  0  0
   21.2728  -19.9890    7.3441 C   0  0  0  0  0  0  0  0  0  0  0  0
   22.0529  -20.6685    6.5202 O   0  0  0  0  0  0  0  0  0  0  0  0
   19.9571  -20.0762    7.3958 O   0  0  0  0  0  0  0  0  0  0  0  0
   19.4771  -19.5580    8.0114 H   0  0  0  0  0  0  0  0  0  0  0  0
   20.9606  -16.1660    6.1347 C   0  0  0  0  0  0  0  0  0  0  0  0
   21.2251  -17.1808    5.2736 N   0  0  0  0  0  0  0  0  0  0  0  0
   20.5764  -17.9200    5.2297 H   0  0  0  0  0  0  0  0  0  0  0  0
   22.2865  -17.2532    4.4892 C   0  0  0  0  0  0  0  0  0  0  0  0
   22.7082  -16.1524    3.8764 N   0  0  0  0  0  0  0  0  0  0  0  0
   22.2316  -15.3014    4.0099 H   0  0  0  0  0  0  0  0  0  0  0  0
   22.9401  -18.3983    4.3003 N   0  0  0  0  0  0  0  0  0  0  0  0
   22.2004  -19.4531    3.9968 O   0  0  0  0  0  0  0  0  0  0  0  0
   23.9195  -18.4570    4.3820 H   0  0  0  0  0  0  0  0  0  0  0  0
   21.2662  -19.1941    3.9636 H   0  0  0  0  0  0  0  0  0  0  0  0
  3  4  1  0  0  0
  4  7  1  0  0  0
  4  2  1  0  0  0
  7  8  2  0  0  0
  7  9  1  0  0  0
  2  1  1  0  0  0
  1 11  1  0  0  0
 11 12  1  0  0  0
 12 14  1  0  0  0
 14 17  1  0  0  0
 14 15  2  0  0  0
 17 18  1  0  0  0
  3  5  1  0  0  0
  3  6  1  0  0  0
 12 13  1  0  0  0
 17 19  1  0  0  0
 15 16  1  0  0  0
 18 20  1  0  0  0
  9 10  1  0  0  0
M  END
> <minimizedAffinity>
-5.98977

$$$$
