1NQ7_ARL_A_800


 26 26  0  0  0  0  0  0  0  0999 V2000
   24.4934   29.4870    7.4569 C   0  0  0  0  0  0  0  0  0  0  0  0
   24.7778   30.9201    7.5184 C   0  0  0  0  0  0  0  0  0  0  0  0
   23.7349   31.9667    7.4416 C   0  0  0  0  0  0  0  0  0  0  0  0
   22.3611   31.4911    7.3061 C   0  0  0  0  0  0  0  0  0  0  0  0
   21.9826   30.0790    7.2363 C   0  0  0  0  0  0  0  0  0  0  0  0
   23.0846   29.1109    7.3189 C   0  0  0  0  0  0  0  0  0  0  0  0
   20.4791   29.5837    7.0844 C   0  0  0  0  0  0  0  0  0  0  0  0
   20.0620   28.3921    8.0012 C   0  0  0  0  0  0  0  0  0  0  0  0
   20.2073   29.1391    5.6421 C   0  0  0  0  0  0  0  0  0  0  0  0
   19.5043   30.7306    7.4557 C   0  0  0  0  0  0  0  0  0  0  0  0
   24.0919   33.5144    7.5102 C   0  0  0  0  0  0  0  0  0  0  0  0
   22.9859   34.4243    8.0844 C   0  0  0  0  0  0  0  0  0  0  0  0
   24.3927   34.0661    6.1076 C   0  0  0  0  0  0  0  0  0  0  0  0
   25.3436   33.7592    8.3413 C   0  0  0  0  0  0  0  0  0  0  0  0
   25.9032   27.7622    8.7152 C   0  0  0  0  0  0  0  0  0  0  0  0
   25.6032   28.4172    7.5241 C   0  0  0  0  0  0  0  0  0  0  0  0
   26.4041   28.1050    6.2192 C   0  0  0  0  0  0  0  0  0  0  0  0
   26.7982   25.6031    9.6573 C   0  0  0  0  0  0  0  0  0  0  0  0
   26.9304   26.7474    8.9696 C   0  0  0  0  0  0  0  0  0  0  0  0
   29.3161   25.0949   10.0163 C   0  0  0  0  0  0  0  0  0  0  0  0
   27.8517   24.5760    9.9275 C   0  0  0  0  0  0  0  0  0  0  0  0
   27.4465   23.2735   10.0723 C   0  0  0  0  0  0  0  0  0  0  0  0
   28.2482   22.0301   10.3516 C   0  0  0  0  0  0  0  0  0  0  0  0
   28.9703   21.8831   11.2892 O   0  0  0  0  0  0  0  0  0  0  0  0
   28.1454   21.1275    9.5498 O   0  0  0  0  0  0  0  0  0  0  0  0
   29.0637   22.5690   11.9206 H   0  0  0  0  0  0  0  0  0  0  0  0
 20 21  1  0  0  0
 21 18  1  0  0  0
 21 22  2  0  0  0
 18 19  2  0  0  0
 19 15  1  0  0  0
 15 16  2  0  0  0
 16 17  1  0  0  0
 16  1  1  0  0  0
  1  2  2  0  0  0
  1  6  1  0  0  0
  2  3  1  0  0  0
  3  4  2  0  0  0
  3 11  1  0  0  0
  4  5  1  0  0  0
  5  6  2  0  0  0
  5  7  1  0  0  0
  7  8  1  0  0  0
  7  9  1  0  0  0
  7 10  1  0  0  0
 11 12  1  0  0  0
 11 13  1  0  0  0
 11 14  1  0  0  0
 22 23  1  0  0  0
 23 24  1  0  0  0
 23 25  2  0  0  0
 24 26  1  0  0  0
M  END
> <minimizedAffinity>
-10.57563

$$$$
1NQ7_ARL_A_800


 26 26  0  0  0  0  0  0  0  0999 V2000
   24.4174   29.4437    7.4420 C   0  0  0  0  0  0  0  0  0  0  0  0
   23.0068   29.0820    7.3082 C   0  0  0  0  0  0  0  0  0  0  0  0
   21.9085   30.0718    7.2533 C   0  0  0  0  0  0  0  0  0  0  0  0
   22.3076   31.4741    7.3321 C   0  0  0  0  0  0  0  0  0  0  0  0
   23.6921   31.9290    7.4669 C   0  0  0  0  0  0  0  0  0  0  0  0
   24.7154   30.8759    7.5148 C   0  0  0  0  0  0  0  0  0  0  0  0
   24.1035   33.4626    7.5551 C   0  0  0  0  0  0  0  0  0  0  0  0
   24.3009   34.1912    6.1896 C   0  0  0  0  0  0  0  0  0  0  0  0
   25.4202   33.6180    8.3257 C   0  0  0  0  0  0  0  0  0  0  0  0
   22.9929   34.2674    8.2778 C   0  0  0  0  0  0  0  0  0  0  0  0
   20.3876   29.6314    7.1098 C   0  0  0  0  0  0  0  0  0  0  0  0
   19.9531   28.4504    8.0026 C   0  0  0  0  0  0  0  0  0  0  0  0
   20.0818   29.1930    5.6687 C   0  0  0  0  0  0  0  0  0  0  0  0
   19.4440   30.7870    7.4125 C   0  0  0  0  0  0  0  0  0  0  0  0
   25.8470   27.7381    8.7040 C   0  0  0  0  0  0  0  0  0  0  0  0
   25.5413   28.3890    7.5121 C   0  0  0  0  0  0  0  0  0  0  0  0
   26.3498   28.0877    6.2094 C   0  0  0  0  0  0  0  0  0  0  0  0
   26.8160   25.6729    9.7747 C   0  0  0  0  0  0  0  0  0  0  0  0
   26.8872   26.7373    8.9612 C   0  0  0  0  0  0  0  0  0  0  0  0
   29.3374   25.2045   10.1621 C   0  0  0  0  0  0  0  0  0  0  0  0
   27.8839   24.6611   10.0462 C   0  0  0  0  0  0  0  0  0  0  0  0
   27.5000   23.3499   10.1685 C   0  0  0  0  0  0  0  0  0  0  0  0
   28.3197   22.1172   10.4428 C   0  0  0  0  0  0  0  0  0  0  0  0
   29.0782   21.9942   11.3547 O   0  0  0  0  0  0  0  0  0  0  0  0
   28.1920   21.1972    9.6646 O   0  0  0  0  0  0  0  0  0  0  0  0
   29.1914   22.6939   11.9675 H   0  0  0  0  0  0  0  0  0  0  0  0
 20 21  1  0  0  0
 21 18  1  0  0  0
 21 22  2  0  0  0
 18 19  2  0  0  0
 19 15  1  0  0  0
 15 16  2  0  0  0
 16 17  1  0  0  0
 16  1  1  0  0  0
  1  2  2  0  0  0
  1  6  1  0  0  0
  2  3  1  0  0  0
  3  4  2  0  0  0
  3 11  1  0  0  0
  4  5  1  0  0  0
  5  6  2  0  0  0
  5  7  1  0  0  0
  7  8  1  0  0  0
  7  9  1  0  0  0
  7 10  1  0  0  0
 11 12  1  0  0  0
 11 13  1  0  0  0
 11 14  1  0  0  0
 22 23  1  0  0  0
 23 24  1  0  0  0
 23 25  2  0  0  0
 24 26  1  0  0  0
M  END
> <minimizedAffinity>
-10.51635

$$$$
1NQ7_ARL_A_800


 26 26  0  0  0  0  0  0  0  0999 V2000
   24.7495   28.8916    7.1751 C   0  0  0  0  0  0  0  0  0  0  0  0
   25.0626   30.1874    6.5741 C   0  0  0  0  0  0  0  0  0  0  0  0
   24.0373   31.1848    6.1960 C   0  0  0  0  0  0  0  0  0  0  0  0
   22.6519   30.8108    6.4661 C   0  0  0  0  0  0  0  0  0  0  0  0
   22.2450   29.5382    7.0635 C   0  0  0  0  0  0  0  0  0  0  0  0
   23.3308   28.6093    7.4049 C   0  0  0  0  0  0  0  0  0  0  0  0
   20.7287   29.1502    7.3450 C   0  0  0  0  0  0  0  0  0  0  0  0
   19.9564   30.0951    8.3173 C   0  0  0  0  0  0  0  0  0  0  0  0
   20.6413   27.7420    7.9458 C   0  0  0  0  0  0  0  0  0  0  0  0
   19.9182   29.1912    6.0241 C   0  0  0  0  0  0  0  0  0  0  0  0
   24.4250   32.5811    5.5422 C   0  0  0  0  0  0  0  0  0  0  0  0
   24.3901   33.7922    6.4976 C   0  0  0  0  0  0  0  0  0  0  0  0
   23.4618   32.9317    4.3969 C   0  0  0  0  0  0  0  0  0  0  0  0
   25.8178   32.5395    4.9293 C   0  0  0  0  0  0  0  0  0  0  0  0
   25.9908   27.4126    8.8536 C   0  0  0  0  0  0  0  0  0  0  0  0
   25.8390   27.8638    7.5455 C   0  0  0  0  0  0  0  0  0  0  0  0
   26.7901   27.3594    6.4130 C   0  0  0  0  0  0  0  0  0  0  0  0
   26.7549   25.2264    9.8472 C   0  0  0  0  0  0  0  0  0  0  0  0
   26.9760   26.4677    9.3887 C   0  0  0  0  0  0  0  0  0  0  0  0
   27.6692   22.7999    9.9022 C   0  0  0  0  0  0  0  0  0  0  0  0
   27.7598   24.2694   10.4059 C   0  0  0  0  0  0  0  0  0  0  0  0
   28.6696   24.7589   11.3083 C   0  0  0  0  0  0  0  0  0  0  0  0
   29.7914   24.0646   12.0335 C   0  0  0  0  0  0  0  0  0  0  0  0
   30.3652   23.0990   11.6327 O   0  0  0  0  0  0  0  0  0  0  0  0
   30.1149   24.5304   13.1042 O   0  0  0  0  0  0  0  0  0  0  0  0
   30.1301   22.7234   10.8071 H   0  0  0  0  0  0  0  0  0  0  0  0
 20 21  1  0  0  0
 21 18  1  0  0  0
 21 22  2  0  0  0
 18 19  2  0  0  0
 19 15  1  0  0  0
 15 16  2  0  0  0
 16 17  1  0  0  0
 16  1  1  0  0  0
  1  2  2  0  0  0
  1  6  1  0  0  0
  2  3  1  0  0  0
  3  4  2  0  0  0
  3 11  1  0  0  0
  4  5  1  0  0  0
  5  6  2  0  0  0
  5  7  1  0  0  0
  7  8  1  0  0  0
  7  9  1  0  0  0
  7 10  1  0  0  0
 11 12  1  0  0  0
 11 13  1  0  0  0
 11 14  1  0  0  0
 22 23  1  0  0  0
 23 24  1  0  0  0
 23 25  2  0  0  0
 24 26  1  0  0  0
M  END
> <minimizedAffinity>
-10.48445

$$$$
1NQ7_ARL_A_800


 26 26  0  0  0  0  0  0  0  0999 V2000
   24.7742   28.8949    7.4575 C   0  0  0  0  0  0  0  0  0  0  0  0
   23.3473   28.5776    7.5022 C   0  0  0  0  0  0  0  0  0  0  0  0
   22.2788   29.5702    7.2539 C   0  0  0  0  0  0  0  0  0  0  0  0
   22.7250   30.9252    6.9428 C   0  0  0  0  0  0  0  0  0  0  0  0
   24.1288   31.3339    6.8763 C   0  0  0  0  0  0  0  0  0  0  0  0
   25.1202   30.2819    7.1385 C   0  0  0  0  0  0  0  0  0  0  0  0
   24.5920   32.8175    6.5394 C   0  0  0  0  0  0  0  0  0  0  0  0
   25.1342   33.6483    7.7437 C   0  0  0  0  0  0  0  0  0  0  0  0
   23.4261   33.6188    5.9477 C   0  0  0  0  0  0  0  0  0  0  0  0
   25.7591   32.7884    5.5194 C   0  0  0  0  0  0  0  0  0  0  0  0
   20.7389   29.1795    7.3159 C   0  0  0  0  0  0  0  0  0  0  0  0
   19.8662   30.0690    8.2258 C   0  0  0  0  0  0  0  0  0  0  0  0
   20.5617   27.7479    7.8463 C   0  0  0  0  0  0  0  0  0  0  0  0
   20.1042   29.2025    5.9324 C   0  0  0  0  0  0  0  0  0  0  0  0
   26.0989   27.3652    9.0230 C   0  0  0  0  0  0  0  0  0  0  0  0
   25.8674   27.8423    7.7359 C   0  0  0  0  0  0  0  0  0  0  0  0
   26.7306   27.3424    6.5333 C   0  0  0  0  0  0  0  0  0  0  0  0
   26.8846   25.1770    9.9950 C   0  0  0  0  0  0  0  0  0  0  0  0
   27.1007   26.3943    9.4742 C   0  0  0  0  0  0  0  0  0  0  0  0
   27.9487   22.8272    9.7249 C   0  0  0  0  0  0  0  0  0  0  0  0
   27.9083   24.1939   10.4678 C   0  0  0  0  0  0  0  0  0  0  0  0
   28.7192   24.5720   11.5076 C   0  0  0  0  0  0  0  0  0  0  0  0
   29.8305   23.8255   12.1963 C   0  0  0  0  0  0  0  0  0  0  0  0
   30.1614   22.7092   11.9386 O   0  0  0  0  0  0  0  0  0  0  0  0
   30.4138   24.4156   13.0794 O   0  0  0  0  0  0  0  0  0  0  0  0
   29.7230   22.2357   11.2592 H   0  0  0  0  0  0  0  0  0  0  0  0
 20 21  1  0  0  0
 21 18  1  0  0  0
 21 22  2  0  0  0
 18 19  2  0  0  0
 19 15  1  0  0  0
 15 16  2  0  0  0
 16 17  1  0  0  0
 16  1  1  0  0  0
  1  2  2  0  0  0
  1  6  1  0  0  0
  2  3  1  0  0  0
  3  4  2  0  0  0
  3 11  1  0  0  0
  4  5  1  0  0  0
  5  6  2  0  0  0
  5  7  1  0  0  0
  7  8  1  0  0  0
  7  9  1  0  0  0
  7 10  1  0  0  0
 11 12  1  0  0  0
 11 13  1  0  0  0
 11 14  1  0  0  0
 22 23  1  0  0  0
 23 24  1  0  0  0
 23 25  2  0  0  0
 24 26  1  0  0  0
M  END
> <minimizedAffinity>
-10.36762

$$$$
1NQ7_ARL_A_800


 26 26  0  0  0  0  0  0  0  0999 V2000
   24.7164   29.4352    7.4999 C   0  0  0  0  0  0  0  0  0  0  0  0
   23.3243   29.0278    7.6855 C   0  0  0  0  0  0  0  0  0  0  0  0
   22.1756   29.7325    7.0749 C   0  0  0  0  0  0  0  0  0  0  0  0
   22.5031   30.8868    6.2428 C   0  0  0  0  0  0  0  0  0  0  0  0
   23.8644   31.3666    6.0009 C   0  0  0  0  0  0  0  0  0  0  0  0
   24.9413   30.6060    6.6490 C   0  0  0  0  0  0  0  0  0  0  0  0
   24.1976   32.6295    5.0937 C   0  0  0  0  0  0  0  0  0  0  0  0
   24.1866   34.0093    5.8221 C   0  0  0  0  0  0  0  0  0  0  0  0
   23.1922   32.7380    3.9408 C   0  0  0  0  0  0  0  0  0  0  0  0
   25.6282   32.4995    4.5108 C   0  0  0  0  0  0  0  0  0  0  0  0
   20.6773   29.2543    7.3071 C   0  0  0  0  0  0  0  0  0  0  0  0
   20.5153   27.8050    7.8111 C   0  0  0  0  0  0  0  0  0  0  0  0
   19.8737   29.3281    5.9990 C   0  0  0  0  0  0  0  0  0  0  0  0
   19.9555   30.1530    8.3014 C   0  0  0  0  0  0  0  0  0  0  0  0
   25.9555   27.2996    8.1701 C   0  0  0  0  0  0  0  0  0  0  0  0
   25.8943   28.6902    8.1618 C   0  0  0  0  0  0  0  0  0  0  0  0
   27.0098   29.5413    8.8494 C   0  0  0  0  0  0  0  0  0  0  0  0
   27.4612   26.4784   10.0165 C   0  0  0  0  0  0  0  0  0  0  0  0
   26.9744   26.4306    8.7672 C   0  0  0  0  0  0  0  0  0  0  0  0
   29.9025   26.2523   10.8626 C   0  0  0  0  0  0  0  0  0  0  0  0
   28.5111   25.5994   10.6190 C   0  0  0  0  0  0  0  0  0  0  0  0
   28.1668   24.3026   10.9039 C   0  0  0  0  0  0  0  0  0  0  0  0
   28.9808   23.1898   11.5088 C   0  0  0  0  0  0  0  0  0  0  0  0
   29.6575   23.2957   12.4849 O   0  0  0  0  0  0  0  0  0  0  0  0
   28.9389   22.1188   10.9437 O   0  0  0  0  0  0  0  0  0  0  0  0
   29.7035   24.1154   12.9364 H   0  0  0  0  0  0  0  0  0  0  0  0
 20 21  1  0  0  0
 21 18  1  0  0  0
 21 22  2  0  0  0
 18 19  2  0  0  0
 19 15  1  0  0  0
 15 16  2  0  0  0
 16 17  1  0  0  0
 16  1  1  0  0  0
  1  2  2  0  0  0
  1  6  1  0  0  0
  2  3  1  0  0  0
  3  4  2  0  0  0
  3 11  1  0  0  0
  4  5  1  0  0  0
  5  6  2  0  0  0
  5  7  1  0  0  0
  7  8  1  0  0  0
  7  9  1  0  0  0
  7 10  1  0  0  0
 11 12  1  0  0  0
 11 13  1  0  0  0
 11 14  1  0  0  0
 22 23  1  0  0  0
 23 24  1  0  0  0
 23 25  2  0  0  0
 24 26  1  0  0  0
M  END
> <minimizedAffinity>
-9.52687

$$$$
1NQ7_ARL_A_800


 26 26  0  0  0  0  0  0  0  0999 V2000
   24.6696   29.0735    7.3629 C   0  0  0  0  0  0  0  0  0  0  0  0
   25.1961   30.4057    7.6570 C   0  0  0  0  0  0  0  0  0  0  0  0
   24.3889   31.6427    7.5740 C   0  0  0  0  0  0  0  0  0  0  0  0
   22.9934   31.4699    7.1808 C   0  0  0  0  0  0  0  0  0  0  0  0
   22.3809   30.1780    6.8679 C   0  0  0  0  0  0  0  0  0  0  0  0
   23.2587   29.0049    6.9757 C   0  0  0  0  0  0  0  0  0  0  0  0
   20.8588   30.0138    6.4375 C   0  0  0  0  0  0  0  0  0  0  0  0
   20.5598   28.8601    5.4305 C   0  0  0  0  0  0  0  0  0  0  0  0
   20.3469   31.3040    5.7856 C   0  0  0  0  0  0  0  0  0  0  0  0
   19.9895   29.6918    7.6801 C   0  0  0  0  0  0  0  0  0  0  0  0
   25.0055   33.0712    7.9009 C   0  0  0  0  0  0  0  0  0  0  0  0
   26.4980   33.2443    7.5502 C   0  0  0  0  0  0  0  0  0  0  0  0
   24.8963   33.3801    9.4026 C   0  0  0  0  0  0  0  0  0  0  0  0
   24.2495   34.1800    7.1822 C   0  0  0  0  0  0  0  0  0  0  0  0
   26.0817   27.3729    8.6511 C   0  0  0  0  0  0  0  0  0  0  0  0
   25.5390   27.8013    7.4430 C   0  0  0  0  0  0  0  0  0  0  0  0
   25.8180   27.0165    6.1210 C   0  0  0  0  0  0  0  0  0  0  0  0
   26.9793   25.4512   10.0120 C   0  0  0  0  0  0  0  0  0  0  0  0
   26.9431   26.2148    8.9096 C   0  0  0  0  0  0  0  0  0  0  0  0
   29.1969   24.5765   11.0337 C   0  0  0  0  0  0  0  0  0  0  0  0
   27.8691   24.2787   10.2789 C   0  0  0  0  0  0  0  0  0  0  0  0
   27.4479   23.0491    9.8405 C   0  0  0  0  0  0  0  0  0  0  0  0
   28.1013   21.6978    9.9574 C   0  0  0  0  0  0  0  0  0  0  0  0
   28.4381   21.1921   10.9835 O   0  0  0  0  0  0  0  0  0  0  0  0
   28.2985   21.0997    8.9222 O   0  0  0  0  0  0  0  0  0  0  0  0
   28.2946   21.6381   11.7949 H   0  0  0  0  0  0  0  0  0  0  0  0
 20 21  1  0  0  0
 21 18  1  0  0  0
 21 22  2  0  0  0
 18 19  2  0  0  0
 19 15  1  0  0  0
 15 16  2  0  0  0
 16 17  1  0  0  0
 16  1  1  0  0  0
  1  2  2  0  0  0
  1  6  1  0  0  0
  2  3  1  0  0  0
  3  4  2  0  0  0
  3 11  1  0  0  0
  4  5  1  0  0  0
  5  6  2  0  0  0
  5  7  1  0  0  0
  7  8  1  0  0  0
  7  9  1  0  0  0
  7 10  1  0  0  0
 11 12  1  0  0  0
 11 13  1  0  0  0
 11 14  1  0  0  0
 22 23  1  0  0  0
 23 24  1  0  0  0
 23 25  2  0  0  0
 24 26  1  0  0  0
M  END
> <minimizedAffinity>
-9.30179

$$$$
1NQ7_ARL_A_800


 26 26  0  0  0  0  0  0  0  0999 V2000
   24.2895   30.4252    7.4045 C   0  0  0  0  0  0  0  0  0  0  0  0
   24.3364   31.8304    7.0024 C   0  0  0  0  0  0  0  0  0  0  0  0
   23.1450   32.6059    6.5925 C   0  0  0  0  0  0  0  0  0  0  0  0
   21.8749   31.8860    6.6160 C   0  0  0  0  0  0  0  0  0  0  0  0
   21.7324   30.4819    7.0034 C   0  0  0  0  0  0  0  0  0  0  0  0
   22.9691   29.7915    7.3936 C   0  0  0  0  0  0  0  0  0  0  0  0
   20.3385   29.7164    7.0176 C   0  0  0  0  0  0  0  0  0  0  0  0
   19.8694   29.1369    5.6469 C   0  0  0  0  0  0  0  0  0  0  0  0
   19.2221   30.6504    7.5001 C   0  0  0  0  0  0  0  0  0  0  0  0
   20.4187   28.4890    7.9612 C   0  0  0  0  0  0  0  0  0  0  0  0
   23.2447   34.1326    6.1604 C   0  0  0  0  0  0  0  0  0  0  0  0
   23.8232   35.0862    7.2266 C   0  0  0  0  0  0  0  0  0  0  0  0
   21.8552   34.6927    5.8169 C   0  0  0  0  0  0  0  0  0  0  0  0
   24.0931   34.3009    4.9077 C   0  0  0  0  0  0  0  0  0  0  0  0
   26.8203   30.1974    7.7024 C   0  0  0  0  0  0  0  0  0  0  0  0
   25.5512   29.6364    7.8127 C   0  0  0  0  0  0  0  0  0  0  0  0
   25.3685   28.1738    8.3313 C   0  0  0  0  0  0  0  0  0  0  0  0
   28.8918   28.8495    7.2098 C   0  0  0  0  0  0  0  0  0  0  0  0
   28.1195   29.5941    8.0154 C   0  0  0  0  0  0  0  0  0  0  0  0
   30.1699   26.9613    8.4460 C   0  0  0  0  0  0  0  0  0  0  0  0
   30.2105   28.2232    7.5363 C   0  0  0  0  0  0  0  0  0  0  0  0
   31.3370   28.8061    7.0141 C   0  0  0  0  0  0  0  0  0  0  0  0
   32.7856   28.4189    7.1500 C   0  0  0  0  0  0  0  0  0  0  0  0
   33.5834   28.9963    7.8222 O   0  0  0  0  0  0  0  0  0  0  0  0
   33.1500   27.4526    6.5161 O   0  0  0  0  0  0  0  0  0  0  0  0
   33.3218   29.7458    8.3200 H   0  0  0  0  0  0  0  0  0  0  0  0
 20 21  1  0  0  0
 21 18  1  0  0  0
 21 22  2  0  0  0
 18 19  2  0  0  0
 19 15  1  0  0  0
 15 16  2  0  0  0
 16 17  1  0  0  0
 16  1  1  0  0  0
  1  2  2  0  0  0
  1  6  1  0  0  0
  2  3  1  0  0  0
  3  4  2  0  0  0
  3 11  1  0  0  0
  4  5  1  0  0  0
  5  6  2  0  0  0
  5  7  1  0  0  0
  7  8  1  0  0  0
  7  9  1  0  0  0
  7 10  1  0  0  0
 11 12  1  0  0  0
 11 13  1  0  0  0
 11 14  1  0  0  0
 22 23  1  0  0  0
 23 24  1  0  0  0
 23 25  2  0  0  0
 24 26  1  0  0  0
M  END
> <minimizedAffinity>
-8.87162

$$$$
