5BTX_CMP_A_201
  RCSB PDB12061716593D
Coordinates from PDB:5BTX:A:201 Model:1 without hydrogens
 22 25  0  0  0  0            999 V2000
   31.1000   19.0970   47.1380   P 0  0  0  0  0  0  0  0  0  0  0  0
   31.7970   19.4400   45.8470   O 0  0  0  0  0  0  0  0  0  0  0  0
   31.5100   19.8150   48.4170   O 0  0  0  0  0  0  0  0  0  0  0  0
   31.1850   17.5190   47.4010   O 0  0  0  0  0  0  0  0  0  0  0  0
   30.2360   16.8940   48.2860   C 0  0  0  0  0  0  0  0  0  0  0  0
   28.8490   17.2500   47.7740   C 0  0  0  0  0  0  0  0  0  0  0  0
   27.7330   16.8060   48.5340   O 0  0  0  0  0  0  0  0  0  0  0  0
   28.6210   18.7500   47.7640   C 0  0  0  0  0  0  0  0  0  0  0  0
   29.5400   19.3780   46.8740   O 0  0  0  0  0  0  0  0  0  0  0  0
   27.1400   18.8420   47.4670   C 0  0  0  0  0  0  0  0  0  0  0  0
   26.8170   18.4810   46.1240   O 0  0  0  0  0  0  0  0  0  0  0  0
   26.6400   17.6980   48.3210   C 0  0  0  0  0  0  0  0  0  0  0  0
   26.1340   18.2890   49.5710   N 0  0  0  0  0  0  0  0  0  0  0  0
   26.7620   18.2630   50.7900   C 0  0  0  0  0  0  0  0  0  0  0  0
   26.0290   18.9100   51.7020   N 0  0  0  0  0  0  0  0  0  0  0  0
   24.9170   19.3920   51.0580   C 0  0  0  0  0  0  0  0  0  0  0  0
   23.7230   20.1680   51.4440   C 0  0  0  0  0  0  0  0  0  0  0  0
   23.5300   20.6200   52.7420   N 0  0  0  0  0  0  0  0  0  0  0  0
   22.8220   20.4130   50.4680   N 0  0  0  0  0  0  0  0  0  0  0  0
   22.9610   20.0000   49.1970   C 0  0  0  0  0  0  0  0  0  0  0  0
   24.0280   19.3000   48.7840   N 0  0  0  0  0  0  0  0  0  0  0  0
   25.0100   18.9790   49.6560   C 0  0  0  0  0  0  0  0  0  0  0  0
  1  2  2  0  0  0  0
  1  3  1  0  0  0  0
  1  4  1  0  0  0  0
  1  9  1  0  0  0  0
  4  5  1  0  0  0  0
  5  6  1  0  0  0  0
  6  7  1  0  0  0  0
  6  8  1  0  0  0  0
  7 12  1  0  0  0  0
  8  9  1  0  0  0  0
  8 10  1  0  0  0  0
 10 11  1  0  0  0  0
 10 12  1  0  0  0  0
 12 13  1  0  0  0  0
 13 14  1  0  0  0  0
 13 22  1  0  0  0  0
 14 15  2  0  0  0  0
 15 16  1  0  0  0  0
 16 17  1  0  0  0  0
 16 22  2  0  0  0  0
 17 18  1  0  0  0  0
 17 19  2  0  0  0  0
 19 20  1  0  0  0  0
 20 21  2  0  0  0  0
 21 22  1  0  0  0  0
A    1
P
A    2
O1P
A    3
O2P
A    4
O5'
A    5
C5'
A    6
C4'
A    7
O4'
A    8
C3'
A    9
O3'
A   10
C2'
A   11
O2'
A   12
C1'
A   13
N9
A   14
C8
A   15
N7
A   16
C5
A   17
C6
A   18
N6
A   19
N1
A   20
C2
A   21
N3
A   22
C4
M  END
>  <InstanceId>
5BTX_CMP_A_201

>  <ChemCompId>
CMP

>  <PdbId>
5BTX

>  <ChainId>
A

>  <ResidueNumber>
201

>  <InsertionCode>


>  <Model>
1

>  <AltIds>


>  <MissingHeavyAtoms>
0

>  <ObservedFormula>
C10 N5 O6 P

>  <Name>
ADENOSINE-3',5'-CYCLIC-MONOPHOSPHATE

>  <SystematicName>
(1R,4R,6S,7R,8R)-8-(6-aminopurin-9-yl)-4-hydroxy-4-oxo-3,5,9-trioxa-4$l^{5}-phosphabicyclo[4.3.0]nonan-7-ol

>  <Synonyms>
CYCLIC AMP; CAMP

>  <Type>
NON-POLYMER

>  <Formula>
C10 H12 N5 O6 P

>  <MolecularWeight>
329.206

>  <ModifiedDate>
2011-06-04

>  <Parent>


>  <OneLetterCode>


>  <SubcomponentList>


>  <AmbiguousFlag>
N

>  <InChI>
InChI=1S/C10H12N5O6P/c11-8-5-9(13-2-12-8)15(3-14-5)10-6(16)7-4(20-10)1-19-22(17,18)21-7/h2-4,6-7,10,16H,1H2,(H,17,18)(H2,11,12,13)/t4-,6-,7-,10-/m1/s1

>  <InChIKey>
IVOMOUWHDPKRLL-KQYNXXCUSA-N

>  <SMILES>
c1nc(c2c(n1)n(cn2)[C@H]3[C@@H]([C@H]4[C@H](O3)CO[P@](=O)(O4)O)O)N

$$$$
