2AVO_MK1_B_902
  RCSB PDB12061705033D
Coordinates from PDB:2AVO:B:902 Model:1 without hydrogens
 45 49  0  0  0  0            999 V2000
   22.5250   34.9020   16.3580   N 0  0  0  0  0  0  0  0  0  0  0  0
   21.1430   34.7970   15.6910   C 0  0  0  0  0  0  0  0  0  0  0  0
   20.3570   33.6320   16.2770   C 0  0  0  0  0  0  0  0  0  0  0  0
   19.0190   33.6030   15.5830   C 0  0  0  0  0  0  0  0  0  0  0  0
   18.9240   33.2450   14.3990   O 0  0  0  0  0  0  0  0  0  0  0  0
   18.0010   34.0240   16.3140   N 0  0  0  0  0  0  0  0  0  0  0  0
   16.5970   34.0720   15.8760   C 0  0  0  0  0  0  0  0  0  0  0  0
   15.8010   34.6960   17.0450   C 0  0  0  0  0  0  0  0  0  0  0  0
   16.1210   32.7130   15.5550   C 0  0  0  0  0  0  0  0  0  0  0  0
   16.4740   34.9770   14.6930   C 0  0  0  0  0  0  0  0  0  0  0  0
   21.1430   32.3680   16.0110   N 0  0  0  0  0  0  0  0  0  0  0  0
   22.4640   32.4830   16.6060   C 0  0  0  0  0  0  0  0  0  0  0  0
   23.2100   33.6840   16.0630   C 0  0  0  0  0  0  0  0  0  0  0  0
   20.4760   31.2050   16.5680   C 0  0  0  0  0  0  0  0  0  0  0  0
   20.6520   29.9560   15.6700   C 0  0  0  0  0  0  0  0  0  0  0  0
   20.6020   28.7860   16.4750   O 0  0  0  0  0  0  0  0  0  0  0  0
   19.5260   29.9070   14.6500   C 0  0  0  0  0  0  0  0  0  0  0  0
   19.5970   28.7020   13.6700   C 0  0  0  0  0  0  0  0  0  0  0  0
   18.2770   28.6450   12.8690   C 0  0  0  0  0  0  0  0  0  0  0  0
   18.2670   27.6110   11.7790   C 0  0  0  0  0  0  0  0  0  0  0  0
   18.3770   26.2530   12.0960   C 0  0  0  0  0  0  0  0  0  0  0  0
   18.4040   25.3120   11.0670   C 0  0  0  0  0  0  0  0  0  0  0  0
   18.2990   25.6990    9.7610   C 0  0  0  0  0  0  0  0  0  0  0  0
   18.1340   27.0410    9.4500   C 0  0  0  0  0  0  0  0  0  0  0  0
   18.1150   27.9830   10.4700   C 0  0  0  0  0  0  0  0  0  0  0  0
   20.7260   28.8310   12.6810   C 0  0  0  0  0  0  0  0  0  0  0  0
   20.9940   29.9020   12.0950   O 0  0  0  0  0  0  0  0  0  0  0  0
   21.4030   27.7200   12.4420   N 0  0  0  0  0  0  0  0  0  0  0  0
   22.3540   27.6380   11.3570   C 0  0  0  0  0  0  0  0  0  0  0  0
   22.2660   26.2860   10.6130   C 0  0  0  0  0  0  0  0  0  0  0  0
   22.1710   25.2290   11.6020   O 0  0  0  0  0  0  0  0  0  0  0  0
   23.6440   26.1880    9.9430   C 0  0  0  0  0  0  0  0  0  0  0  0
   24.6190   26.9040   10.8570   C 0  0  0  0  0  0  0  0  0  0  0  0
   25.9810   26.8900   10.9960   C 0  0  0  0  0  0  0  0  0  0  0  0
   26.5430   27.6770   11.9590   C 0  0  0  0  0  0  0  0  0  0  0  0
   25.8200   28.5330   12.7630   C 0  0  0  0  0  0  0  0  0  0  0  0
   24.4560   28.5560   12.6350   C 0  0  0  0  0  0  0  0  0  0  0  0
   23.8140   27.7860   11.7220   C 0  0  0  0  0  0  0  0  0  0  0  0
   23.2250   36.0350   15.7360   C 0  0  0  0  0  0  0  0  0  0  0  0
   22.6540   37.3850   16.1160   C 0  0  0  0  0  0  0  0  0  0  0  0
   22.5910   37.7530   17.4880   C 0  0  0  0  0  0  0  0  0  0  0  0
   22.0950   39.0100   17.8650   N 0  0  0  0  0  0  0  0  0  0  0  0
   21.6760   39.8080   16.8410   C 0  0  0  0  0  0  0  0  0  0  0  0
   21.6790   39.4910   15.5000   C 0  0  0  0  0  0  0  0  0  0  0  0
   22.1360   38.2430   15.1600   C 0  0  0  0  0  0  0  0  0  0  0  0
  1  2  1  0  0  0  0
  1 13  1  0  0  0  0
  1 39  1  0  0  0  0
  2  3  1  0  0  0  0
  3  4  1  0  0  0  0
  3 11  1  0  0  0  0
  4  5  2  0  0  0  0
  4  6  1  0  0  0  0
  6  7  1  0  0  0  0
  7  8  1  0  0  0  0
  7  9  1  0  0  0  0
  7 10  1  0  0  0  0
 11 12  1  0  0  0  0
 11 14  1  0  0  0  0
 12 13  1  0  0  0  0
 14 15  1  0  0  0  0
 15 16  1  0  0  0  0
 15 17  1  0  0  0  0
 17 18  1  0  0  0  0
 18 19  1  0  0  0  0
 18 26  1  0  0  0  0
 19 20  1  0  0  0  0
 20 21  2  0  0  0  0
 20 25  1  0  0  0  0
 21 22  1  0  0  0  0
 22 23  2  0  0  0  0
 23 24  1  0  0  0  0
 24 25  2  0  0  0  0
 26 27  2  0  0  0  0
 26 28  1  0  0  0  0
 28 29  1  0  0  0  0
 29 30  1  0  0  0  0
 29 38  1  0  0  0  0
 30 31  1  0  0  0  0
 30 32  1  0  0  0  0
 32 33  1  0  0  0  0
 33 34  2  0  0  0  0
 33 38  1  0  0  0  0
 34 35  1  0  0  0  0
 35 36  2  0  0  0  0
 36 37  1  0  0  0  0
 37 38  2  0  0  0  0
 39 40  1  0  0  0  0
 40 41  1  0  0  0  0
 40 45  2  0  0  0  0
 41 42  2  0  0  0  0
 42 43  1  0  0  0  0
 43 44  2  0  0  0  0
 44 45  1  0  0  0  0
A    1
N1
A    2
C1
A    3
C2
A    4
C3
A    5
O1
A    6
N2
A    7
C4
A    8
C5
A    9
C6
A   10
C7
A   11
N3
A   12
C8
A   13
C9
A   14
C10
A   15
C11
A   16
O2
A   17
C12
A   18
C13
A   19
C14
A   20
C15
A   21
C16
A   22
C17
A   23
C18
A   24
C19
A   25
C20
A   26
C21
A   27
O3
A   28
N4
A   29
C22
A   30
C23
A   31
O4
A   32
C24
A   33
C25
A   34
C26
A   35
C27
A   36
C28
A   37
C29
A   38
C30
A   39
C31
A   40
C32
A   41
C33
A   42
N5
A   43
C34
A   44
C35
A   45
C36
M  END
>  <InstanceId>
2AVO_MK1_B_902

>  <ChemCompId>
MK1

>  <PdbId>
2AVO

>  <ChainId>
B

>  <ResidueNumber>
902

>  <InsertionCode>


>  <Model>
1

>  <AltIds>


>  <MissingHeavyAtoms>
0

>  <ObservedFormula>
C36 N5 O4

>  <Name>
N-[2(R)-HYDROXY-1(S)-INDANYL]-5-[(2(S)-TERTIARY BUTYLAMINOCARBONYL)-4(3-PYRIDYLMETHYL)PIPERAZINO]-4(S)-HYDROXY-2(R)-PHENYLMETHYLPENTANAMIDE

>  <SystematicName>
(1S,2S,4R)-N-tert-butyl-1-[(2S,4R)-2-hydroxy-5-[[(1S,2R)-2-hydroxy-2,3-dihydro-1H-inden-1-yl]amino]-5-oxo-4-(phenylmethyl)pentyl]-4-(pyridin-3-ylmethyl)piperazine-2-carboxamide

>  <Synonyms>
INDINAVIR

>  <Type>
NON-POLYMER

>  <Formula>
C36 H47 N5 O4

>  <MolecularWeight>
613.789

>  <ModifiedDate>
2011-06-04

>  <Parent>


>  <OneLetterCode>


>  <SubcomponentList>


>  <AmbiguousFlag>
N

>  <InChI>
InChI=1S/C36H47N5O4/c1-36(2,3)39-35(45)31-24-40(22-26-12-9-15-37-21-26)16-17-41(31)23-29(42)19-28(18-25-10-5-4-6-11-25)34(44)38-33-30-14-8-7-13-27(30)20-32(33)43/h4-15,21,28-29,31-33,42-43H,16-20,22-24H2,1-3H3,(H,38,44)(H,39,45)/t28-,29+,31+,32-,33+/m1/s1

>  <InChIKey>
CBVCZFGXHXORBI-PXQQMZJSSA-N

>  <SMILES>
CC(C)(C)NC(=O)[C@@H]1C[N@@](CC[N@]1C[C@H](C[C@@H](Cc2ccccc2)C(=O)N[C@H]3c4ccccc4C[C@H]3O)O)Cc5cccnc5

$$$$
