2AVO_MK1_B_902


 49 53  0  0  0  0  0  0  0  0999 V2000
   20.6606   30.1866   15.5638 C   0  0  0  0  0  0  0  0  0  0  0  0
   20.7885   28.9701   16.2871 O   0  0  0  0  0  0  0  0  0  0  0  0
   19.9760   28.8066   16.7911 H   0  0  0  0  0  0  0  0  0  0  0  0
   20.4201   31.3509   16.5557 C   0  0  0  0  0  0  0  0  0  0  0  0
   22.3174   35.1327   16.6465 N   0  0  0  0  0  0  0  0  0  0  0  0
   20.9258   35.0321   15.9990 C   0  0  0  0  0  0  0  0  0  0  0  0
   20.1996   33.7874   16.4906 C   0  0  0  0  0  0  0  0  0  0  0  0
   21.0283   32.5861   16.0950 N   0  0  0  0  0  0  0  0  0  0  0  0
   22.3569   32.7008   16.6729 C   0  0  0  0  0  0  0  0  0  0  0  0
   23.0428   33.9757   16.2282 C   0  0  0  0  0  0  0  0  0  0  0  0
   18.8484   33.7665   15.8224 C   0  0  0  0  0  0  0  0  0  0  0  0
   18.7454   33.5733   14.6013 O   0  0  0  0  0  0  0  0  0  0  0  0
   17.8251   34.0110   16.6230 N   0  0  0  0  0  0  0  0  0  0  0  0
   18.0269   34.1990   17.5681 H   0  0  0  0  0  0  0  0  0  0  0  0
   16.4098   34.0258   16.2202 C   0  0  0  0  0  0  0  0  0  0  0  0
   15.6232   34.5865   17.4270 C   0  0  0  0  0  0  0  0  0  0  0  0
   15.9705   32.6623   15.8677 C   0  0  0  0  0  0  0  0  0  0  0  0
   16.2282   34.9623   15.0698 C   0  0  0  0  0  0  0  0  0  0  0  0
   22.9582   36.3453   16.1178 C   0  0  0  0  0  0  0  0  0  0  0  0
   23.0333   37.4790   17.1188 C   0  0  0  0  0  0  0  0  0  0  0  0
   21.8788   37.8152   17.8777 C   0  0  0  0  0  0  0  0  0  0  0  0
   21.9300   38.8408   18.8336 N   0  0  0  0  0  0  0  0  0  0  0  0
   23.1318   39.4755   18.9512 C   0  0  0  0  0  0  0  0  0  0  0  0
   24.2705   39.2179   18.2191 C   0  0  0  0  0  0  0  0  0  0  0  0
   24.1848   38.2344   17.2667 C   0  0  0  0  0  0  0  0  0  0  0  0
   19.4767   30.0802   14.6163 C   0  0  0  0  0  0  0  0  0  0  0  0
   19.4849   28.8130   13.7154 C   0  0  0  0  0  0  0  0  0  0  0  0
   20.5806   28.8491   12.6823 C   0  0  0  0  0  0  0  0  0  0  0  0
   20.7998   29.8468   11.9620 O   0  0  0  0  0  0  0  0  0  0  0  0
   21.2831   27.7351   12.5585 N   0  0  0  0  0  0  0  0  0  0  0  0
   21.1761   27.0207   13.2274 H   0  0  0  0  0  0  0  0  0  0  0  0
   22.2046   27.5455   11.4616 C   0  0  0  0  0  0  0  0  0  0  0  0
   22.0921   26.1298   10.8512 C   0  0  0  0  0  0  0  0  0  0  0  0
   22.0200   25.1714   11.9378 O   0  0  0  0  0  0  0  0  0  0  0  0
   23.4514   25.9609   10.1575 C   0  0  0  0  0  0  0  0  0  0  0  0
   24.4529   26.7542   10.9739 C   0  0  0  0  0  0  0  0  0  0  0  0
   25.8181   26.7453   11.0778 C   0  0  0  0  0  0  0  0  0  0  0  0
   26.4082   27.6164   11.9470 C   0  0  0  0  0  0  0  0  0  0  0  0
   25.7099   28.5487   12.6853 C   0  0  0  0  0  0  0  0  0  0  0  0
   24.3430   28.5675   12.5915 C   0  0  0  0  0  0  0  0  0  0  0  0
   23.6743   27.7186   11.7725 C   0  0  0  0  0  0  0  0  0  0  0  0
   22.7835   25.2896   12.5244 H   0  0  0  0  0  0  0  0  0  0  0  0
   18.1362   28.7379   12.9652 C   0  0  0  0  0  0  0  0  0  0  0  0
   18.0583   27.6272   11.9565 C   0  0  0  0  0  0  0  0  0  0  0  0
   18.1800   26.2950   12.3655 C   0  0  0  0  0  0  0  0  0  0  0  0
   18.1430   25.2812   11.4086 C   0  0  0  0  0  0  0  0  0  0  0  0
   17.9644   25.5726   10.0859 C   0  0  0  0  0  0  0  0  0  0  0  0
   17.7881   26.8897    9.6871 C   0  0  0  0  0  0  0  0  0  0  0  0
   17.8326   27.9039   10.6346 C   0  0  0  0  0  0  0  0  0  0  0  0
  5  6  1  0  0  0
  5 10  1  0  0  0
  5 19  1  0  0  0
  6  7  1  0  0  0
  7 11  1  0  0  0
  7  8  1  0  0  0
 11 12  2  0  0  0
 11 13  1  0  0  0
 13 15  1  0  0  0
 15 16  1  0  0  0
 15 17  1  0  0  0
 15 18  1  0  0  0
  8  9  1  0  0  0
  8  4  1  0  0  0
  9 10  1  0  0  0
  4  1  1  0  0  0
  1  2  1  0  0  0
  1 26  1  0  0  0
 26 27  1  0  0  0
 27 43  1  0  0  0
 27 28  1  0  0  0
 43 44  1  0  0  0
 44 45  2  0  0  0
 44 49  1  0  0  0
 45 46  1  0  0  0
 46 47  2  0  0  0
 47 48  1  0  0  0
 48 49  2  0  0  0
 28 29  2  0  0  0
 28 30  1  0  0  0
 30 32  1  0  0  0
 32 33  1  0  0  0
 32 41  1  0  0  0
 33 34  1  0  0  0
 33 35  1  0  0  0
 35 36  1  0  0  0
 36 37  2  0  0  0
 36 41  1  0  0  0
 37 38  1  0  0  0
 38 39  2  0  0  0
 39 40  1  0  0  0
 40 41  2  0  0  0
 19 20  1  0  0  0
 20 21  1  0  0  0
 20 25  2  0  0  0
 21 22  2  0  0  0
 22 23  1  0  0  0
 23 24  2  0  0  0
 24 25  1  0  0  0
 13 14  1  0  0  0
  2  3  1  0  0  0
 30 31  1  0  0  0
 34 42  1  0  0  0
M  END
> <minimizedAffinity>
-12.11460

$$$$
2AVO_MK1_B_902


 49 53  0  0  0  0  0  0  0  0999 V2000
   20.0113   30.3623   15.0217 C   0  0  0  0  0  0  0  0  0  0  0  0
   18.5907   30.3304   15.0038 O   0  0  0  0  0  0  0  0  0  0  0  0
   18.2489   31.2272   14.8633 H   0  0  0  0  0  0  0  0  0  0  0  0
   20.4897   31.2872   16.1675 C   0  0  0  0  0  0  0  0  0  0  0  0
   22.5247   34.9974   16.1036 N   0  0  0  0  0  0  0  0  0  0  0  0
   21.0709   34.9560   15.6030 C   0  0  0  0  0  0  0  0  0  0  0  0
   20.3538   33.7307   16.1532 C   0  0  0  0  0  0  0  0  0  0  0  0
   21.0922   32.5068   15.6602 N   0  0  0  0  0  0  0  0  0  0  0  0
   22.4767   32.5654   16.0983 C   0  0  0  0  0  0  0  0  0  0  0  0
   23.1597   33.8217   15.5993 C   0  0  0  0  0  0  0  0  0  0  0  0
   18.9409   33.7680   15.6286 C   0  0  0  0  0  0  0  0  0  0  0  0
   18.7054   33.5992   14.4224 O   0  0  0  0  0  0  0  0  0  0  0  0
   18.0153   34.0343   16.5343 N   0  0  0  0  0  0  0  0  0  0  0  0
   18.3203   34.1991   17.4558 H   0  0  0  0  0  0  0  0  0  0  0  0
   16.5675   34.1049   16.2808 C   0  0  0  0  0  0  0  0  0  0  0  0
   16.1139   32.6618   15.9625 C   0  0  0  0  0  0  0  0  0  0  0  0
   16.2951   35.0232   15.1588 C   0  0  0  0  0  0  0  0  0  0  0  0
   15.8648   34.5511   17.5221 C   0  0  0  0  0  0  0  0  0  0  0  0
   23.1518   36.1942   15.5249 C   0  0  0  0  0  0  0  0  0  0  0  0
   22.5621   37.4941   16.0304 C   0  0  0  0  0  0  0  0  0  0  0  0
   22.3017   37.6466   17.4199 C   0  0  0  0  0  0  0  0  0  0  0  0
   21.7845   38.8517   17.9184 N   0  0  0  0  0  0  0  0  0  0  0  0
   21.5437   39.8183   16.9864 C   0  0  0  0  0  0  0  0  0  0  0  0
   21.7413   39.7141   15.6267 C   0  0  0  0  0  0  0  0  0  0  0  0
   22.2147   38.5141   15.1601 C   0  0  0  0  0  0  0  0  0  0  0  0
   20.5138   30.9052   13.6938 C   0  0  0  0  0  0  0  0  0  0  0  0
   20.8861   29.8134   12.6513 C   0  0  0  0  0  0  0  0  0  0  0  0
   19.6720   29.1769   12.0267 C   0  0  0  0  0  0  0  0  0  0  0  0
   18.6075   29.8008   11.8268 O   0  0  0  0  0  0  0  0  0  0  0  0
   19.7911   27.8932   11.7306 N   0  0  0  0  0  0  0  0  0  0  0  0
   20.6781   27.4685   11.7744 H   0  0  0  0  0  0  0  0  0  0  0  0
   18.6455   27.1016   11.3440 C   0  0  0  0  0  0  0  0  0  0  0  0
   18.6740   25.6944   11.9828 C   0  0  0  0  0  0  0  0  0  0  0  0
   20.0198   25.1671   11.8597 O   0  0  0  0  0  0  0  0  0  0  0  0
   17.7603   24.8892   11.0477 C   0  0  0  0  0  0  0  0  0  0  0  0
   17.9131   25.4979    9.6675 C   0  0  0  0  0  0  0  0  0  0  0  0
   17.6430   25.0614    8.3982 C   0  0  0  0  0  0  0  0  0  0  0  0
   17.9230   25.8929    7.3529 C   0  0  0  0  0  0  0  0  0  0  0  0
   18.4087   27.1745    7.5061 C   0  0  0  0  0  0  0  0  0  0  0  0
   18.6844   27.6234    8.7709 C   0  0  0  0  0  0  0  0  0  0  0  0
   18.4615   26.8524    9.8639 C   0  0  0  0  0  0  0  0  0  0  0  0
   20.2897   25.1839   10.9282 H   0  0  0  0  0  0  0  0  0  0  0  0
   21.6801   28.7006   13.3714 C   0  0  0  0  0  0  0  0  0  0  0  0
   23.0863   28.5303   12.8705 C   0  0  0  0  0  0  0  0  0  0  0  0
   23.3752   27.5680   11.8973 C   0  0  0  0  0  0  0  0  0  0  0  0
   24.6934   27.4001   11.4737 C   0  0  0  0  0  0  0  0  0  0  0  0
   25.6958   28.1792   11.9782 C   0  0  0  0  0  0  0  0  0  0  0  0
   25.4005   29.1710   12.9023 C   0  0  0  0  0  0  0  0  0  0  0  0
   24.0912   29.3369   13.3339 C   0  0  0  0  0  0  0  0  0  0  0  0
  5  6  1  0  0  0
  5 10  1  0  0  0
  5 19  1  0  0  0
  6  7  1  0  0  0
  7 11  1  0  0  0
  7  8  1  0  0  0
 11 12  2  0  0  0
 11 13  1  0  0  0
 13 15  1  0  0  0
 15 16  1  0  0  0
 15 17  1  0  0  0
 15 18  1  0  0  0
  8  9  1  0  0  0
  8  4  1  0  0  0
  9 10  1  0  0  0
  4  1  1  0  0  0
  1  2  1  0  0  0
  1 26  1  0  0  0
 26 27  1  0  0  0
 27 43  1  0  0  0
 27 28  1  0  0  0
 43 44  1  0  0  0
 44 45  2  0  0  0
 44 49  1  0  0  0
 45 46  1  0  0  0
 46 47  2  0  0  0
 47 48  1  0  0  0
 48 49  2  0  0  0
 28 29  2  0  0  0
 28 30  1  0  0  0
 30 32  1  0  0  0
 32 33  1  0  0  0
 32 41  1  0  0  0
 33 34  1  0  0  0
 33 35  1  0  0  0
 35 36  1  0  0  0
 36 37  2  0  0  0
 36 41  1  0  0  0
 37 38  1  0  0  0
 38 39  2  0  0  0
 39 40  1  0  0  0
 40 41  2  0  0  0
 19 20  1  0  0  0
 20 21  1  0  0  0
 20 25  2  0  0  0
 21 22  2  0  0  0
 22 23  1  0  0  0
 23 24  2  0  0  0
 24 25  1  0  0  0
 13 14  1  0  0  0
  2  3  1  0  0  0
 30 31  1  0  0  0
 34 42  1  0  0  0
M  END
> <minimizedAffinity>
-10.85551

$$$$
2AVO_MK1_B_902


 49 53  0  0  0  0  0  0  0  0999 V2000
   20.4500   30.5866   15.8456 C   0  0  0  0  0  0  0  0  0  0  0  0
   20.7808   30.2630   17.1891 O   0  0  0  0  0  0  0  0  0  0  0  0
   21.7340   30.0962   17.2562 H   0  0  0  0  0  0  0  0  0  0  0  0
   20.8382   29.4057   14.9225 C   0  0  0  0  0  0  0  0  0  0  0  0
   18.4906   28.1822   11.6206 N   0  0  0  0  0  0  0  0  0  0  0  0
   19.9393   28.6274   11.3584 C   0  0  0  0  0  0  0  0  0  0  0  0
   20.7628   28.5369   12.6358 C   0  0  0  0  0  0  0  0  0  0  0  0
   20.1295   29.4554   13.6563 N   0  0  0  0  0  0  0  0  0  0  0  0
   18.7479   29.0606   13.8743 C   0  0  0  0  0  0  0  0  0  0  0  0
   17.9561   29.0914   12.5836 C   0  0  0  0  0  0  0  0  0  0  0  0
   22.1638   28.9772   12.2952 C   0  0  0  0  0  0  0  0  0  0  0  0
   22.4267   30.1752   12.1091 O   0  0  0  0  0  0  0  0  0  0  0  0
   23.0432   27.9976   12.1722 N   0  0  0  0  0  0  0  0  0  0  0  0
   22.7138   27.0780   12.2947 H   0  0  0  0  0  0  0  0  0  0  0  0
   24.4729   28.1664   11.8676 C   0  0  0  0  0  0  0  0  0  0  0  0
   25.0812   26.7454   11.8486 C   0  0  0  0  0  0  0  0  0  0  0  0
   25.1099   29.0197   12.8888 C   0  0  0  0  0  0  0  0  0  0  0  0
   24.6261   28.7571   10.5033 C   0  0  0  0  0  0  0  0  0  0  0  0
   17.7589   28.3072   10.3519 C   0  0  0  0  0  0  0  0  0  0  0  0
   18.0391   27.1843    9.3754 C   0  0  0  0  0  0  0  0  0  0  0  0
   17.7986   25.8403    9.7725 C   0  0  0  0  0  0  0  0  0  0  0  0
   18.0206   24.7837    8.8767 N   0  0  0  0  0  0  0  0  0  0  0  0
   18.4886   25.1438    7.6470 C   0  0  0  0  0  0  0  0  0  0  0  0
   18.7740   26.4226    7.2202 C   0  0  0  0  0  0  0  0  0  0  0  0
   18.5819   27.4348    8.1260 C   0  0  0  0  0  0  0  0  0  0  0  0
   21.2228   31.8271   15.4275 C   0  0  0  0  0  0  0  0  0  0  0  0
   20.4503   33.1625   15.6206 C   0  0  0  0  0  0  0  0  0  0  0  0
   21.2503   34.1841   16.3858 C   0  0  0  0  0  0  0  0  0  0  0  0
   22.0408   33.8762   17.3037 O   0  0  0  0  0  0  0  0  0  0  0  0
   21.0372   35.4447   16.0462 N   0  0  0  0  0  0  0  0  0  0  0  0
   20.5154   35.6441   15.2355 H   0  0  0  0  0  0  0  0  0  0  0  0
   21.5547   36.5350   16.8409 C   0  0  0  0  0  0  0  0  0  0  0  0
   20.6192   36.8844   18.0208 C   0  0  0  0  0  0  0  0  0  0  0  0
   19.2550   36.9036   17.5280 O   0  0  0  0  0  0  0  0  0  0  0  0
   21.0269   38.3279   18.3486 C   0  0  0  0  0  0  0  0  0  0  0  0
   21.4677   38.9580   17.0420 C   0  0  0  0  0  0  0  0  0  0  0  0
   21.6247   40.2482   16.6112 C   0  0  0  0  0  0  0  0  0  0  0  0
   22.0416   40.4578   15.3287 C   0  0  0  0  0  0  0  0  0  0  0  0
   22.3719   39.4408   14.4577 C   0  0  0  0  0  0  0  0  0  0  0  0
   22.2183   38.1450   14.8757 C   0  0  0  0  0  0  0  0  0  0  0  0
   21.7835   37.8473   16.1251 C   0  0  0  0  0  0  0  0  0  0  0  0
   19.1907   37.5153   16.7780 H   0  0  0  0  0  0  0  0  0  0  0  0
   19.1662   32.8718   16.4293 C   0  0  0  0  0  0  0  0  0  0  0  0
   17.8956   33.2070   15.7011 C   0  0  0  0  0  0  0  0  0  0  0  0
   17.7926   34.3998   14.9776 C   0  0  0  0  0  0  0  0  0  0  0  0
   16.5914   34.7100   14.3403 C   0  0  0  0  0  0  0  0  0  0  0  0
   15.5286   33.8534   14.3939 C   0  0  0  0  0  0  0  0  0  0  0  0
   15.6492   32.6449   15.0648 C   0  0  0  0  0  0  0  0  0  0  0  0
   16.8400   32.3349   15.7083 C   0  0  0  0  0  0  0  0  0  0  0  0
  5  6  1  0  0  0
  5 10  1  0  0  0
  5 19  1  0  0  0
  6  7  1  0  0  0
  7 11  1  0  0  0
  7  8  1  0  0  0
 11 12  2  0  0  0
 11 13  1  0  0  0
 13 15  1  0  0  0
 15 16  1  0  0  0
 15 17  1  0  0  0
 15 18  1  0  0  0
  8  9  1  0  0  0
  8  4  1  0  0  0
  9 10  1  0  0  0
  4  1  1  0  0  0
  1  2  1  0  0  0
  1 26  1  0  0  0
 26 27  1  0  0  0
 27 43  1  0  0  0
 27 28  1  0  0  0
 43 44  1  0  0  0
 44 45  2  0  0  0
 44 49  1  0  0  0
 45 46  1  0  0  0
 46 47  2  0  0  0
 47 48  1  0  0  0
 48 49  2  0  0  0
 28 29  2  0  0  0
 28 30  1  0  0  0
 30 32  1  0  0  0
 32 33  1  0  0  0
 32 41  1  0  0  0
 33 34  1  0  0  0
 33 35  1  0  0  0
 35 36  1  0  0  0
 36 37  2  0  0  0
 36 41  1  0  0  0
 37 38  1  0  0  0
 38 39  2  0  0  0
 39 40  1  0  0  0
 40 41  2  0  0  0
 19 20  1  0  0  0
 20 21  1  0  0  0
 20 25  2  0  0  0
 21 22  2  0  0  0
 22 23  1  0  0  0
 23 24  2  0  0  0
 24 25  1  0  0  0
 13 14  1  0  0  0
  2  3  1  0  0  0
 30 31  1  0  0  0
 34 42  1  0  0  0
M  END
> <minimizedAffinity>
-10.84734

$$$$
2AVO_MK1_B_902


 49 53  0  0  0  0  0  0  0  0999 V2000
   18.4626   31.1907   15.1352 C   0  0  0  0  0  0  0  0  0  0  0  0
   17.4160   30.6551   15.9333 O   0  0  0  0  0  0  0  0  0  0  0  0
   16.5801   30.7005   15.4433 H   0  0  0  0  0  0  0  0  0  0  0  0
   18.1413   32.6654   14.7893 C   0  0  0  0  0  0  0  0  0  0  0  0
   17.6409   36.0775   17.2422 N   0  0  0  0  0  0  0  0  0  0  0  0
   18.9791   35.3224   17.3102 C   0  0  0  0  0  0  0  0  0  0  0  0
   19.1806   34.4836   16.0555 C   0  0  0  0  0  0  0  0  0  0  0  0
   18.0436   33.4897   15.9804 N   0  0  0  0  0  0  0  0  0  0  0  0
   16.7767   34.2015   15.9575 C   0  0  0  0  0  0  0  0  0  0  0  0
   16.6180   35.0828   17.1789 C   0  0  0  0  0  0  0  0  0  0  0  0
   20.5105   33.7872   16.1936 C   0  0  0  0  0  0  0  0  0  0  0  0
   20.6699   32.8788   17.0232 O   0  0  0  0  0  0  0  0  0  0  0  0
   21.4682   34.2507   15.4087 N   0  0  0  0  0  0  0  0  0  0  0  0
   21.2430   35.0083   14.8217 H   0  0  0  0  0  0  0  0  0  0  0  0
   22.8424   33.7292   15.3387 C   0  0  0  0  0  0  0  0  0  0  0  0
   22.7902   32.4981   14.4052 C   0  0  0  0  0  0  0  0  0  0  0  0
   23.3164   33.3710   16.6891 C   0  0  0  0  0  0  0  0  0  0  0  0
   23.7330   34.7523   14.7112 C   0  0  0  0  0  0  0  0  0  0  0  0
   17.5125   36.8512   18.4854 C   0  0  0  0  0  0  0  0  0  0  0  0
   17.5970   38.3492   18.2806 C   0  0  0  0  0  0  0  0  0  0  0  0
   18.0881   38.8565   17.0464 C   0  0  0  0  0  0  0  0  0  0  0  0
   18.1478   40.2396   16.8194 N   0  0  0  0  0  0  0  0  0  0  0  0
   17.7292   41.0238   17.8542 C   0  0  0  0  0  0  0  0  0  0  0  0
   17.2796   40.5901   19.0824 C   0  0  0  0  0  0  0  0  0  0  0  0
   17.2637   39.2345   19.2923 C   0  0  0  0  0  0  0  0  0  0  0  0
   18.5715   30.3850   13.8508 C   0  0  0  0  0  0  0  0  0  0  0  0
   19.4787   29.1265   13.9553 C   0  0  0  0  0  0  0  0  0  0  0  0
   20.5425   29.0945   12.8891 C   0  0  0  0  0  0  0  0  0  0  0  0
   20.7781   30.0655   12.1381 O   0  0  0  0  0  0  0  0  0  0  0  0
   21.1966   27.9508   12.7719 N   0  0  0  0  0  0  0  0  0  0  0  0
   21.0825   27.2572   13.4612 H   0  0  0  0  0  0  0  0  0  0  0  0
   22.0754   27.6988   11.6527 C   0  0  0  0  0  0  0  0  0  0  0  0
   21.8995   26.2696   11.0908 C   0  0  0  0  0  0  0  0  0  0  0  0
   21.8332   25.3474   12.2086 O   0  0  0  0  0  0  0  0  0  0  0  0
   23.2295   26.0366   10.3600 C   0  0  0  0  0  0  0  0  0  0  0  0
   24.2811   26.8218   11.1191 C   0  0  0  0  0  0  0  0  0  0  0  0
   25.6480   26.7726   11.1799 C   0  0  0  0  0  0  0  0  0  0  0  0
   26.2929   27.6502   12.0024 C   0  0  0  0  0  0  0  0  0  0  0  0
   25.6482   28.6262   12.7328 C   0  0  0  0  0  0  0  0  0  0  0  0
   24.2802   28.6858   12.6819 C   0  0  0  0  0  0  0  0  0  0  0  0
   23.5592   27.8343   11.9114 C   0  0  0  0  0  0  0  0  0  0  0  0
   22.6187   25.4587   12.7666 H   0  0  0  0  0  0  0  0  0  0  0  0
   18.5961   27.8714   13.7740 C   0  0  0  0  0  0  0  0  0  0  0  0
   18.2066   27.5980   12.3489 C   0  0  0  0  0  0  0  0  0  0  0  0
   18.3616   26.3163   11.8103 C   0  0  0  0  0  0  0  0  0  0  0  0
   18.0298   26.0927   10.4743 C   0  0  0  0  0  0  0  0  0  0  0  0
   17.5336   27.1012    9.6976 C   0  0  0  0  0  0  0  0  0  0  0  0
   17.3277   28.3583   10.2474 C   0  0  0  0  0  0  0  0  0  0  0  0
   17.6643   28.5887   11.5747 C   0  0  0  0  0  0  0  0  0  0  0  0
  5  6  1  0  0  0
  5 10  1  0  0  0
  5 19  1  0  0  0
  6  7  1  0  0  0
  7 11  1  0  0  0
  7  8  1  0  0  0
 11 12  2  0  0  0
 11 13  1  0  0  0
 13 15  1  0  0  0
 15 16  1  0  0  0
 15 17  1  0  0  0
 15 18  1  0  0  0
  8  9  1  0  0  0
  8  4  1  0  0  0
  9 10  1  0  0  0
  4  1  1  0  0  0
  1  2  1  0  0  0
  1 26  1  0  0  0
 26 27  1  0  0  0
 27 43  1  0  0  0
 27 28  1  0  0  0
 43 44  1  0  0  0
 44 45  2  0  0  0
 44 49  1  0  0  0
 45 46  1  0  0  0
 46 47  2  0  0  0
 47 48  1  0  0  0
 48 49  2  0  0  0
 28 29  2  0  0  0
 28 30  1  0  0  0
 30 32  1  0  0  0
 32 33  1  0  0  0
 32 41  1  0  0  0
 33 34  1  0  0  0
 33 35  1  0  0  0
 35 36  1  0  0  0
 36 37  2  0  0  0
 36 41  1  0  0  0
 37 38  1  0  0  0
 38 39  2  0  0  0
 39 40  1  0  0  0
 40 41  2  0  0  0
 19 20  1  0  0  0
 20 21  1  0  0  0
 20 25  2  0  0  0
 21 22  2  0  0  0
 22 23  1  0  0  0
 23 24  2  0  0  0
 24 25  1  0  0  0
 13 14  1  0  0  0
  2  3  1  0  0  0
 30 31  1  0  0  0
 34 42  1  0  0  0
M  END
> <minimizedAffinity>
-10.82049

$$$$
2AVO_MK1_B_902


 49 53  0  0  0  0  0  0  0  0999 V2000
   21.3371   31.4305   15.7534 C   0  0  0  0  0  0  0  0  0  0  0  0
   20.0141   31.1858   15.2961 O   0  0  0  0  0  0  0  0  0  0  0  0
   19.5902   32.0277   15.0672 H   0  0  0  0  0  0  0  0  0  0  0  0
   21.2880   32.3450   17.0018 C   0  0  0  0  0  0  0  0  0  0  0  0
   22.0528   36.4806   17.4733 N   0  0  0  0  0  0  0  0  0  0  0  0
   20.8058   36.0571   16.6786 C   0  0  0  0  0  0  0  0  0  0  0  0
   20.4106   34.6294   17.0307 C   0  0  0  0  0  0  0  0  0  0  0  0
   21.5700   33.7294   16.6675 N   0  0  0  0  0  0  0  0  0  0  0  0
   22.7591   34.1546   17.3871 C   0  0  0  0  0  0  0  0  0  0  0  0
   23.1032   35.5969   17.0788 C   0  0  0  0  0  0  0  0  0  0  0  0
   19.1820   34.2951   16.2235 C   0  0  0  0  0  0  0  0  0  0  0  0
   19.2672   34.0336   15.0138 O   0  0  0  0  0  0  0  0  0  0  0  0
   18.0424   34.3505   16.8914 N   0  0  0  0  0  0  0  0  0  0  0  0
   18.0871   34.6162   17.8383 H   0  0  0  0  0  0  0  0  0  0  0  0
   16.7126   34.0484   16.3383 C   0  0  0  0  0  0  0  0  0  0  0  0
   15.7008   34.3157   17.4759 C   0  0  0  0  0  0  0  0  0  0  0  0
   16.6622   32.6468   15.8806 C   0  0  0  0  0  0  0  0  0  0  0  0
   16.4128   34.9901   15.2171 C   0  0  0  0  0  0  0  0  0  0  0  0
   22.3784   37.8572   17.0738 C   0  0  0  0  0  0  0  0  0  0  0  0
   21.2364   38.8325   17.2674 C   0  0  0  0  0  0  0  0  0  0  0  0
   20.8393   39.6635   16.1840 C   0  0  0  0  0  0  0  0  0  0  0  0
   19.7645   40.5537   16.3274 N   0  0  0  0  0  0  0  0  0  0  0  0
   19.1710   40.5658   17.5557 C   0  0  0  0  0  0  0  0  0  0  0  0
   19.5353   39.8122   18.6502 C   0  0  0  0  0  0  0  0  0  0  0  0
   20.6111   38.9752   18.4950 C   0  0  0  0  0  0  0  0  0  0  0  0
   22.1241   32.1233   14.6527 C   0  0  0  0  0  0  0  0  0  0  0  0
   22.3911   31.2423   13.3998 C   0  0  0  0  0  0  0  0  0  0  0  0
   21.1187   30.8112   12.7182 C   0  0  0  0  0  0  0  0  0  0  0  0
   20.3704   31.6092   12.1137 O   0  0  0  0  0  0  0  0  0  0  0  0
   20.8205   29.5273   12.8291 N   0  0  0  0  0  0  0  0  0  0  0  0
   21.4923   28.9057   13.1918 H   0  0  0  0  0  0  0  0  0  0  0  0
   19.5286   29.0184   12.4286 C   0  0  0  0  0  0  0  0  0  0  0  0
   18.5800   28.8370   13.6354 C   0  0  0  0  0  0  0  0  0  0  0  0
   19.3270   28.2108   14.7098 O   0  0  0  0  0  0  0  0  0  0  0  0
   17.5632   27.8160   13.1051 C   0  0  0  0  0  0  0  0  0  0  0  0
   18.3101   26.9349   12.1230 C   0  0  0  0  0  0  0  0  0  0  0  0
   18.0775   25.6976   11.5849 C   0  0  0  0  0  0  0  0  0  0  0  0
   18.9942   25.1869   10.7123 C   0  0  0  0  0  0  0  0  0  0  0  0
   20.1152   25.8730   10.2947 C   0  0  0  0  0  0  0  0  0  0  0  0
   20.3605   27.1118   10.8263 C   0  0  0  0  0  0  0  0  0  0  0  0
   19.5156   27.6824   11.7202 C   0  0  0  0  0  0  0  0  0  0  0  0
   19.7223   27.3848   14.3900 H   0  0  0  0  0  0  0  0  0  0  0  0
   23.1369   29.9661   13.8497 C   0  0  0  0  0  0  0  0  0  0  0  0
   24.0079   29.3596   12.7863 C   0  0  0  0  0  0  0  0  0  0  0  0
   23.5646   29.3033   11.4607 C   0  0  0  0  0  0  0  0  0  0  0  0
   24.3724   28.7020   10.4959 C   0  0  0  0  0  0  0  0  0  0  0  0
   25.5966   28.1929   10.8256 C   0  0  0  0  0  0  0  0  0  0  0  0
   26.0596   28.2986   12.1291 C   0  0  0  0  0  0  0  0  0  0  0  0
   25.2560   28.8887   13.0956 C   0  0  0  0  0  0  0  0  0  0  0  0
  5  6  1  0  0  0
  5 10  1  0  0  0
  5 19  1  0  0  0
  6  7  1  0  0  0
  7 11  1  0  0  0
  7  8  1  0  0  0
 11 12  2  0  0  0
 11 13  1  0  0  0
 13 15  1  0  0  0
 15 16  1  0  0  0
 15 17  1  0  0  0
 15 18  1  0  0  0
  8  9  1  0  0  0
  8  4  1  0  0  0
  9 10  1  0  0  0
  4  1  1  0  0  0
  1  2  1  0  0  0
  1 26  1  0  0  0
 26 27  1  0  0  0
 27 43  1  0  0  0
 27 28  1  0  0  0
 43 44  1  0  0  0
 44 45  2  0  0  0
 44 49  1  0  0  0
 45 46  1  0  0  0
 46 47  2  0  0  0
 47 48  1  0  0  0
 48 49  2  0  0  0
 28 29  2  0  0  0
 28 30  1  0  0  0
 30 32  1  0  0  0
 32 33  1  0  0  0
 32 41  1  0  0  0
 33 34  1  0  0  0
 33 35  1  0  0  0
 35 36  1  0  0  0
 36 37  2  0  0  0
 36 41  1  0  0  0
 37 38  1  0  0  0
 38 39  2  0  0  0
 39 40  1  0  0  0
 40 41  2  0  0  0
 19 20  1  0  0  0
 20 21  1  0  0  0
 20 25  2  0  0  0
 21 22  2  0  0  0
 22 23  1  0  0  0
 23 24  2  0  0  0
 24 25  1  0  0  0
 13 14  1  0  0  0
  2  3  1  0  0  0
 30 31  1  0  0  0
 34 42  1  0  0  0
M  END
> <minimizedAffinity>
-10.45484

$$$$
2AVO_MK1_B_902


 49 53  0  0  0  0  0  0  0  0999 V2000
   19.0011   28.5674   13.8437 C   0  0  0  0  0  0  0  0  0  0  0  0
   18.5735   27.4664   14.6338 O   0  0  0  0  0  0  0  0  0  0  0  0
   19.2826   27.2121   15.2448 H   0  0  0  0  0  0  0  0  0  0  0  0
   20.2613   28.1638   13.0397 C   0  0  0  0  0  0  0  0  0  0  0  0
   18.5446   26.9076    9.3811 N   0  0  0  0  0  0  0  0  0  0  0  0
   20.0599   26.7272    9.5739 C   0  0  0  0  0  0  0  0  0  0  0  0
   20.4127   26.7400   11.0551 C   0  0  0  0  0  0  0  0  0  0  0  0
   19.9884   28.0783   11.6164 N   0  0  0  0  0  0  0  0  0  0  0  0
   18.5641   28.2674   11.3979 C   0  0  0  0  0  0  0  0  0  0  0  0
   18.2171   28.1866    9.9259 C   0  0  0  0  0  0  0  0  0  0  0  0
   21.9043   26.5484   11.1597 C   0  0  0  0  0  0  0  0  0  0  0  0
   22.3797   25.5504   11.7228 O   0  0  0  0  0  0  0  0  0  0  0  0
   22.6308   27.5309   10.6548 N   0  0  0  0  0  0  0  0  0  0  0  0
   22.1474   28.2994   10.2740 H   0  0  0  0  0  0  0  0  0  0  0  0
   24.1011   27.5723   10.6142 C   0  0  0  0  0  0  0  0  0  0  0  0
   24.5418   26.3928    9.7174 C   0  0  0  0  0  0  0  0  0  0  0  0
   24.6480   27.4545   11.9793 C   0  0  0  0  0  0  0  0  0  0  0  0
   24.5468   28.8427    9.9653 C   0  0  0  0  0  0  0  0  0  0  0  0
   18.2842   26.8964    7.9345 C   0  0  0  0  0  0  0  0  0  0  0  0
   18.2375   25.5062    7.3360 C   0  0  0  0  0  0  0  0  0  0  0  0
   17.3340   24.5477    7.8716 C   0  0  0  0  0  0  0  0  0  0  0  0
   17.2490   23.2624    7.3158 N   0  0  0  0  0  0  0  0  0  0  0  0
   18.0910   23.0168    6.2709 C   0  0  0  0  0  0  0  0  0  0  0  0
   19.0104   23.8922    5.7351 C   0  0  0  0  0  0  0  0  0  0  0  0
   19.0989   25.1307    6.3186 C   0  0  0  0  0  0  0  0  0  0  0  0
   19.3395   29.7342   14.7574 C   0  0  0  0  0  0  0  0  0  0  0  0
   18.5296   31.0306   14.4732 C   0  0  0  0  0  0  0  0  0  0  0  0
   19.4099   32.1770   14.0488 C   0  0  0  0  0  0  0  0  0  0  0  0
   19.3107   32.7298   12.9322 O   0  0  0  0  0  0  0  0  0  0  0  0
   20.3279   32.5451   14.9272 N   0  0  0  0  0  0  0  0  0  0  0  0
   20.2921   32.1838   15.8423 H   0  0  0  0  0  0  0  0  0  0  0  0
   21.3822   33.4669   14.5709 C   0  0  0  0  0  0  0  0  0  0  0  0
   22.7544   32.7628   14.4677 C   0  0  0  0  0  0  0  0  0  0  0  0
   22.8949   31.8736   15.6053 O   0  0  0  0  0  0  0  0  0  0  0  0
   23.7375   33.9279   14.6504 C   0  0  0  0  0  0  0  0  0  0  0  0
   23.0555   34.9274   15.5639 C   0  0  0  0  0  0  0  0  0  0  0  0
   23.4974   35.9649   16.3404 C   0  0  0  0  0  0  0  0  0  0  0  0
   22.5801   36.6702   17.0641 C   0  0  0  0  0  0  0  0  0  0  0  0
   21.2222   36.4347   17.0118 C   0  0  0  0  0  0  0  0  0  0  0  0
   20.7667   35.3986   16.2395 C   0  0  0  0  0  0  0  0  0  0  0  0
   21.6123   34.6300   15.5095 C   0  0  0  0  0  0  0  0  0  0  0  0
   22.7690   32.3757   16.4256 H   0  0  0  0  0  0  0  0  0  0  0  0
   17.8076   31.4507   15.7730 C   0  0  0  0  0  0  0  0  0  0  0  0
   17.0776   32.7599   15.6715 C   0  0  0  0  0  0  0  0  0  0  0  0
   16.0803   32.9369   14.7067 C   0  0  0  0  0  0  0  0  0  0  0  0
   15.4413   34.1723   14.6043 C   0  0  0  0  0  0  0  0  0  0  0  0
   15.7599   35.1978   15.4488 C   0  0  0  0  0  0  0  0  0  0  0  0
   16.7096   35.0046   16.4416 C   0  0  0  0  0  0  0  0  0  0  0  0
   17.3550   33.7793   16.5427 C   0  0  0  0  0  0  0  0  0  0  0  0
  5  6  1  0  0  0
  5 10  1  0  0  0
  5 19  1  0  0  0
  6  7  1  0  0  0
  7 11  1  0  0  0
  7  8  1  0  0  0
 11 12  2  0  0  0
 11 13  1  0  0  0
 13 15  1  0  0  0
 15 16  1  0  0  0
 15 17  1  0  0  0
 15 18  1  0  0  0
  8  9  1  0  0  0
  8  4  1  0  0  0
  9 10  1  0  0  0
  4  1  1  0  0  0
  1  2  1  0  0  0
  1 26  1  0  0  0
 26 27  1  0  0  0
 27 43  1  0  0  0
 27 28  1  0  0  0
 43 44  1  0  0  0
 44 45  2  0  0  0
 44 49  1  0  0  0
 45 46  1  0  0  0
 46 47  2  0  0  0
 47 48  1  0  0  0
 48 49  2  0  0  0
 28 29  2  0  0  0
 28 30  1  0  0  0
 30 32  1  0  0  0
 32 33  1  0  0  0
 32 41  1  0  0  0
 33 34  1  0  0  0
 33 35  1  0  0  0
 35 36  1  0  0  0
 36 37  2  0  0  0
 36 41  1  0  0  0
 37 38  1  0  0  0
 38 39  2  0  0  0
 39 40  1  0  0  0
 40 41  2  0  0  0
 19 20  1  0  0  0
 20 21  1  0  0  0
 20 25  2  0  0  0
 21 22  2  0  0  0
 22 23  1  0  0  0
 23 24  2  0  0  0
 24 25  1  0  0  0
 13 14  1  0  0  0
  2  3  1  0  0  0
 30 31  1  0  0  0
 34 42  1  0  0  0
M  END
> <minimizedAffinity>
-10.16470

$$$$
2AVO_MK1_B_902


 49 53  0  0  0  0  0  0  0  0999 V2000
   22.4107   32.6280   15.1857 C   0  0  0  0  0  0  0  0  0  0  0  0
   21.8810   33.2216   14.0082 O   0  0  0  0  0  0  0  0  0  0  0  0
   20.9121   33.2221   14.0540 H   0  0  0  0  0  0  0  0  0  0  0  0
   21.8944   31.1731   15.3041 C   0  0  0  0  0  0  0  0  0  0  0  0
   18.7431   29.2032   13.2794 N   0  0  0  0  0  0  0  0  0  0  0  0
   20.1048   29.3146   12.5728 C   0  0  0  0  0  0  0  0  0  0  0  0
   21.2112   29.5679   13.5877 C   0  0  0  0  0  0  0  0  0  0  0  0
   20.8997   30.8697   14.2910 N   0  0  0  0  0  0  0  0  0  0  0  0
   19.5948   30.7795   14.9246 C   0  0  0  0  0  0  0  0  0  0  0  0
   18.5126   30.4618   13.9138 C   0  0  0  0  0  0  0  0  0  0  0  0
   22.5072   29.6537   12.8223 C   0  0  0  0  0  0  0  0  0  0  0  0
   22.9108   30.7378   12.3740 O   0  0  0  0  0  0  0  0  0  0  0  0
   23.1263   28.4998   12.6405 N   0  0  0  0  0  0  0  0  0  0  0  0
   22.6906   27.6929   12.9987 H   0  0  0  0  0  0  0  0  0  0  0  0
   24.4121   28.3202   11.9476 C   0  0  0  0  0  0  0  0  0  0  0  0
   25.4881   28.9441   12.8654 C   0  0  0  0  0  0  0  0  0  0  0  0
   24.3713   28.9784   10.6279 C   0  0  0  0  0  0  0  0  0  0  0  0
   24.7055   26.8611   11.8107 C   0  0  0  0  0  0  0  0  0  0  0  0
   17.7297   28.9718   12.2402 C   0  0  0  0  0  0  0  0  0  0  0  0
   17.9475   27.6974   11.4518 C   0  0  0  0  0  0  0  0  0  0  0  0
   17.9640   27.7520   10.0310 C   0  0  0  0  0  0  0  0  0  0  0  0
   18.1944   26.5913    9.2775 N   0  0  0  0  0  0  0  0  0  0  0  0
   18.3735   25.4476    9.9992 C   0  0  0  0  0  0  0  0  0  0  0  0
   18.3314   25.3286   11.3714 C   0  0  0  0  0  0  0  0  0  0  0  0
   18.0698   26.4712   12.0841 C   0  0  0  0  0  0  0  0  0  0  0  0
   21.9505   33.4252   16.3954 C   0  0  0  0  0  0  0  0  0  0  0  0
   20.8552   34.4854   16.0891 C   0  0  0  0  0  0  0  0  0  0  0  0
   21.3520   35.8954   16.2745 C   0  0  0  0  0  0  0  0  0  0  0  0
   22.4894   36.2659   15.9122 O   0  0  0  0  0  0  0  0  0  0  0  0
   20.5140   36.7188   16.8824 N   0  0  0  0  0  0  0  0  0  0  0  0
   19.5831   36.4355   17.0321 H   0  0  0  0  0  0  0  0  0  0  0  0
   20.9372   38.0257   17.3312 C   0  0  0  0  0  0  0  0  0  0  0  0
   21.6702   37.9601   18.6904 C   0  0  0  0  0  0  0  0  0  0  0  0
   20.9237   37.0770   19.5665 O   0  0  0  0  0  0  0  0  0  0  0  0
   21.5167   39.3940   19.2174 C   0  0  0  0  0  0  0  0  0  0  0  0
   20.1978   39.9120   18.6780 C   0  0  0  0  0  0  0  0  0  0  0  0
   19.3625   40.9390   19.0277 C   0  0  0  0  0  0  0  0  0  0  0  0
   18.2168   41.1172   18.3078 C   0  0  0  0  0  0  0  0  0  0  0  0
   17.8805   40.3565   17.2078 C   0  0  0  0  0  0  0  0  0  0  0  0
   18.7071   39.3247   16.8477 C   0  0  0  0  0  0  0  0  0  0  0  0
   19.8518   39.0607   17.5249 C   0  0  0  0  0  0  0  0  0  0  0  0
   20.0051   37.3825   19.6271 H   0  0  0  0  0  0  0  0  0  0  0  0
   19.6796   34.2705   17.0684 C   0  0  0  0  0  0  0  0  0  0  0  0
   18.3256   34.3209   16.4192 C   0  0  0  0  0  0  0  0  0  0  0  0
   18.1905   34.0596   15.0517 C   0  0  0  0  0  0  0  0  0  0  0  0
   16.9303   34.1489   14.4610 C   0  0  0  0  0  0  0  0  0  0  0  0
   15.8284   34.4623   15.2054 C   0  0  0  0  0  0  0  0  0  0  0  0
   15.9541   34.6668   16.5719 C   0  0  0  0  0  0  0  0  0  0  0  0
   17.2077   34.5875   17.1637 C   0  0  0  0  0  0  0  0  0  0  0  0
  5  6  1  0  0  0
  5 10  1  0  0  0
  5 19  1  0  0  0
  6  7  1  0  0  0
  7 11  1  0  0  0
  7  8  1  0  0  0
 11 12  2  0  0  0
 11 13  1  0  0  0
 13 15  1  0  0  0
 15 16  1  0  0  0
 15 17  1  0  0  0
 15 18  1  0  0  0
  8  9  1  0  0  0
  8  4  1  0  0  0
  9 10  1  0  0  0
  4  1  1  0  0  0
  1  2  1  0  0  0
  1 26  1  0  0  0
 26 27  1  0  0  0
 27 43  1  0  0  0
 27 28  1  0  0  0
 43 44  1  0  0  0
 44 45  2  0  0  0
 44 49  1  0  0  0
 45 46  1  0  0  0
 46 47  2  0  0  0
 47 48  1  0  0  0
 48 49  2  0  0  0
 28 29  2  0  0  0
 28 30  1  0  0  0
 30 32  1  0  0  0
 32 33  1  0  0  0
 32 41  1  0  0  0
 33 34  1  0  0  0
 33 35  1  0  0  0
 35 36  1  0  0  0
 36 37  2  0  0  0
 36 41  1  0  0  0
 37 38  1  0  0  0
 38 39  2  0  0  0
 39 40  1  0  0  0
 40 41  2  0  0  0
 19 20  1  0  0  0
 20 21  1  0  0  0
 20 25  2  0  0  0
 21 22  2  0  0  0
 22 23  1  0  0  0
 23 24  2  0  0  0
 24 25  1  0  0  0
 13 14  1  0  0  0
  2  3  1  0  0  0
 30 31  1  0  0  0
 34 42  1  0  0  0
M  END
> <minimizedAffinity>
-9.98449

$$$$
2AVO_MK1_B_902


 49 53  0  0  0  0  0  0  0  0999 V2000
   18.8064   29.2459   13.3320 C   0  0  0  0  0  0  0  0  0  0  0  0
   18.5570   28.9219   14.6930 O   0  0  0  0  0  0  0  0  0  0  0  0
   19.3641   29.0631   15.2122 H   0  0  0  0  0  0  0  0  0  0  0  0
   19.9399   28.3420   12.7884 C   0  0  0  0  0  0  0  0  0  0  0  0
   18.6380   26.6730    9.1238 N   0  0  0  0  0  0  0  0  0  0  0  0
   20.1337   26.5869    9.4720 C   0  0  0  0  0  0  0  0  0  0  0  0
   20.3408   26.7524   10.9714 C   0  0  0  0  0  0  0  0  0  0  0  0
   19.8097   28.1135   11.3607 N   0  0  0  0  0  0  0  0  0  0  0  0
   18.4065   28.2104   10.9945 C   0  0  0  0  0  0  0  0  0  0  0  0
   18.2071   27.9784    9.5112 C   0  0  0  0  0  0  0  0  0  0  0  0
   21.8220   26.6460   11.2312 C   0  0  0  0  0  0  0  0  0  0  0  0
   22.2927   25.6741   11.8419 O   0  0  0  0  0  0  0  0  0  0  0  0
   22.5395   27.6709   10.8037 N   0  0  0  0  0  0  0  0  0  0  0  0
   22.0550   28.4123   10.3738 H   0  0  0  0  0  0  0  0  0  0  0  0
   24.0013   27.7965   10.9166 C   0  0  0  0  0  0  0  0  0  0  0  0
   24.4094   28.9523    9.9746 C   0  0  0  0  0  0  0  0  0  0  0  0
   24.6485   26.5268   10.5354 C   0  0  0  0  0  0  0  0  0  0  0  0
   24.3624   28.1846   12.3139 C   0  0  0  0  0  0  0  0  0  0  0  0
   18.5192   26.5169    7.6670 C   0  0  0  0  0  0  0  0  0  0  0  0
   18.0444   25.1441    7.2395 C   0  0  0  0  0  0  0  0  0  0  0  0
   18.9812   24.2202    6.7003 C   0  0  0  0  0  0  0  0  0  0  0  0
   18.5734   22.9313    6.3251 N   0  0  0  0  0  0  0  0  0  0  0  0
   17.2474   22.6608    6.4972 C   0  0  0  0  0  0  0  0  0  0  0  0
   16.2895   23.5262    6.9790 C   0  0  0  0  0  0  0  0  0  0  0  0
   16.7066   24.7915    7.3059 C   0  0  0  0  0  0  0  0  0  0  0  0
   19.2343   30.7014   13.2371 C   0  0  0  0  0  0  0  0  0  0  0  0
   20.0864   31.2016   14.4377 C   0  0  0  0  0  0  0  0  0  0  0  0
   19.2408   31.7869   15.5385 C   0  0  0  0  0  0  0  0  0  0  0  0
   19.2264   31.3250   16.6998 O   0  0  0  0  0  0  0  0  0  0  0  0
   18.4796   32.8105   15.1884 N   0  0  0  0  0  0  0  0  0  0  0  0
   18.6137   33.2327   14.3091 H   0  0  0  0  0  0  0  0  0  0  0  0
   17.4552   33.3217   16.0703 C   0  0  0  0  0  0  0  0  0  0  0  0
   16.2177   33.8203   15.2899 C   0  0  0  0  0  0  0  0  0  0  0  0
   16.6793   34.5970   14.1550 O   0  0  0  0  0  0  0  0  0  0  0  0
   15.5629   34.7833   16.2905 C   0  0  0  0  0  0  0  0  0  0  0  0
   16.6883   35.3829   17.1106 C   0  0  0  0  0  0  0  0  0  0  0  0
   16.8045   36.4960   17.8994 C   0  0  0  0  0  0  0  0  0  0  0  0
   18.0053   36.7441   18.4985 C   0  0  0  0  0  0  0  0  0  0  0  0
   19.0944   35.9035   18.4023 C   0  0  0  0  0  0  0  0  0  0  0  0
   18.9920   34.7867   17.6151 C   0  0  0  0  0  0  0  0  0  0  0  0
   17.8439   34.4792   16.9624 C   0  0  0  0  0  0  0  0  0  0  0  0
   17.2635   35.3066   14.4649 H   0  0  0  0  0  0  0  0  0  0  0  0
   21.0349   32.3126   13.9346 C   0  0  0  0  0  0  0  0  0  0  0  0
   21.7625   33.0385   15.0305 C   0  0  0  0  0  0  0  0  0  0  0  0
   21.6747   34.4309   15.1316 C   0  0  0  0  0  0  0  0  0  0  0  0
   22.3884   35.0888   16.1330 C   0  0  0  0  0  0  0  0  0  0  0  0
   23.1478   34.3888   17.0272 C   0  0  0  0  0  0  0  0  0  0  0  0
   23.1903   33.0036   16.9610 C   0  0  0  0  0  0  0  0  0  0  0  0
   22.4886   32.3439   15.9608 C   0  0  0  0  0  0  0  0  0  0  0  0
  5  6  1  0  0  0
  5 10  1  0  0  0
  5 19  1  0  0  0
  6  7  1  0  0  0
  7 11  1  0  0  0
  7  8  1  0  0  0
 11 12  2  0  0  0
 11 13  1  0  0  0
 13 15  1  0  0  0
 15 16  1  0  0  0
 15 17  1  0  0  0
 15 18  1  0  0  0
  8  9  1  0  0  0
  8  4  1  0  0  0
  9 10  1  0  0  0
  4  1  1  0  0  0
  1  2  1  0  0  0
  1 26  1  0  0  0
 26 27  1  0  0  0
 27 43  1  0  0  0
 27 28  1  0  0  0
 43 44  1  0  0  0
 44 45  2  0  0  0
 44 49  1  0  0  0
 45 46  1  0  0  0
 46 47  2  0  0  0
 47 48  1  0  0  0
 48 49  2  0  0  0
 28 29  2  0  0  0
 28 30  1  0  0  0
 30 32  1  0  0  0
 32 33  1  0  0  0
 32 41  1  0  0  0
 33 34  1  0  0  0
 33 35  1  0  0  0
 35 36  1  0  0  0
 36 37  2  0  0  0
 36 41  1  0  0  0
 37 38  1  0  0  0
 38 39  2  0  0  0
 39 40  1  0  0  0
 40 41  2  0  0  0
 19 20  1  0  0  0
 20 21  1  0  0  0
 20 25  2  0  0  0
 21 22  2  0  0  0
 22 23  1  0  0  0
 23 24  2  0  0  0
 24 25  1  0  0  0
 13 14  1  0  0  0
  2  3  1  0  0  0
 30 31  1  0  0  0
 34 42  1  0  0  0
M  END
> <minimizedAffinity>
-9.94906

$$$$
2AVO_MK1_B_902


 49 53  0  0  0  0  0  0  0  0999 V2000
   22.6464   32.3211   15.0512 C   0  0  0  0  0  0  0  0  0  0  0  0
   22.8644   32.6752   13.6923 O   0  0  0  0  0  0  0  0  0  0  0  0
   22.0247   32.6328   13.2085 H   0  0  0  0  0  0  0  0  0  0  0  0
   22.0768   30.8830   15.1221 C   0  0  0  0  0  0  0  0  0  0  0  0
   18.8570   29.0969   13.0357 N   0  0  0  0  0  0  0  0  0  0  0  0
   20.2212   29.1851   12.3309 C   0  0  0  0  0  0  0  0  0  0  0  0
   21.3366   29.3638   13.3519 C   0  0  0  0  0  0  0  0  0  0  0  0
   21.0714   30.6503   14.1009 N   0  0  0  0  0  0  0  0  0  0  0  0
   19.7646   30.5838   14.7334 C   0  0  0  0  0  0  0  0  0  0  0  0
   18.6712   30.3398   13.7142 C   0  0  0  0  0  0  0  0  0  0  0  0
   22.6342   29.4308   12.5875 C   0  0  0  0  0  0  0  0  0  0  0  0
   23.0086   30.4899   12.0611 O   0  0  0  0  0  0  0  0  0  0  0  0
   23.2881   28.2855   12.4950 N   0  0  0  0  0  0  0  0  0  0  0  0
   22.8740   27.4950   12.9108 H   0  0  0  0  0  0  0  0  0  0  0  0
   24.5829   28.0930   11.8228 C   0  0  0  0  0  0  0  0  0  0  0  0
   24.7550   26.5670   11.6457 C   0  0  0  0  0  0  0  0  0  0  0  0
   25.6668   28.6740   12.6377 C   0  0  0  0  0  0  0  0  0  0  0  0
   24.5382   28.7174   10.4657 C   0  0  0  0  0  0  0  0  0  0  0  0
   17.8353   28.9376   11.9910 C   0  0  0  0  0  0  0  0  0  0  0  0
   17.9412   27.6320   11.2313 C   0  0  0  0  0  0  0  0  0  0  0  0
   18.1830   26.4276   11.9473 C   0  0  0  0  0  0  0  0  0  0  0  0
   18.2548   25.2005   11.2711 N   0  0  0  0  0  0  0  0  0  0  0  0
   18.0990   25.2652    9.9174 C   0  0  0  0  0  0  0  0  0  0  0  0
   17.8997   26.4044    9.1682 C   0  0  0  0  0  0  0  0  0  0  0  0
   17.8683   27.5952    9.8487 C   0  0  0  0  0  0  0  0  0  0  0  0
   21.6470   33.2888   15.6638 C   0  0  0  0  0  0  0  0  0  0  0  0
   22.2877   34.5331   16.3411 C   0  0  0  0  0  0  0  0  0  0  0  0
   21.4010   35.1305   17.4023 C   0  0  0  0  0  0  0  0  0  0  0  0
   21.7567   35.2481   18.5947 O   0  0  0  0  0  0  0  0  0  0  0  0
   20.1959   35.4960   16.9975 N   0  0  0  0  0  0  0  0  0  0  0  0
   19.9963   35.5156   16.0337 H   0  0  0  0  0  0  0  0  0  0  0  0
   19.1664   35.8670   17.9414 C   0  0  0  0  0  0  0  0  0  0  0  0
   17.7652   35.4077   17.4776 C   0  0  0  0  0  0  0  0  0  0  0  0
   17.6297   35.7178   16.0670 O   0  0  0  0  0  0  0  0  0  0  0  0
   16.8349   36.3440   18.2620 C   0  0  0  0  0  0  0  0  0  0  0  0
   17.5863   37.6490   18.4381 C   0  0  0  0  0  0  0  0  0  0  0  0
   17.2121   38.9310   18.7398 C   0  0  0  0  0  0  0  0  0  0  0  0
   18.1805   39.8901   18.8100 C   0  0  0  0  0  0  0  0  0  0  0  0
   19.5256   39.6295   18.6524 C   0  0  0  0  0  0  0  0  0  0  0  0
   19.9136   38.3509   18.3491 C   0  0  0  0  0  0  0  0  0  0  0  0
   19.0141   37.3428   18.2338 C   0  0  0  0  0  0  0  0  0  0  0  0
   17.8033   36.6616   15.9254 H   0  0  0  0  0  0  0  0  0  0  0  0
   22.5181   35.6134   15.2607 C   0  0  0  0  0  0  0  0  0  0  0  0
   22.8264   36.9758   15.8138 C   0  0  0  0  0  0  0  0  0  0  0  0
   22.1624   38.1032   15.3190 C   0  0  0  0  0  0  0  0  0  0  0  0
   22.4907   39.3630   15.8193 C   0  0  0  0  0  0  0  0  0  0  0  0
   23.4309   39.5037   16.8005 C   0  0  0  0  0  0  0  0  0  0  0  0
   24.0492   38.3803   17.3301 C   0  0  0  0  0  0  0  0  0  0  0  0
   23.7323   37.1243   16.8298 C   0  0  0  0  0  0  0  0  0  0  0  0
  5  6  1  0  0  0
  5 10  1  0  0  0
  5 19  1  0  0  0
  6  7  1  0  0  0
  7 11  1  0  0  0
  7  8  1  0  0  0
 11 12  2  0  0  0
 11 13  1  0  0  0
 13 15  1  0  0  0
 15 16  1  0  0  0
 15 17  1  0  0  0
 15 18  1  0  0  0
  8  9  1  0  0  0
  8  4  1  0  0  0
  9 10  1  0  0  0
  4  1  1  0  0  0
  1  2  1  0  0  0
  1 26  1  0  0  0
 26 27  1  0  0  0
 27 43  1  0  0  0
 27 28  1  0  0  0
 43 44  1  0  0  0
 44 45  2  0  0  0
 44 49  1  0  0  0
 45 46  1  0  0  0
 46 47  2  0  0  0
 47 48  1  0  0  0
 48 49  2  0  0  0
 28 29  2  0  0  0
 28 30  1  0  0  0
 30 32  1  0  0  0
 32 33  1  0  0  0
 32 41  1  0  0  0
 33 34  1  0  0  0
 33 35  1  0  0  0
 35 36  1  0  0  0
 36 37  2  0  0  0
 36 41  1  0  0  0
 37 38  1  0  0  0
 38 39  2  0  0  0
 39 40  1  0  0  0
 40 41  2  0  0  0
 19 20  1  0  0  0
 20 21  1  0  0  0
 20 25  2  0  0  0
 21 22  2  0  0  0
 22 23  1  0  0  0
 23 24  2  0  0  0
 24 25  1  0  0  0
 13 14  1  0  0  0
  2  3  1  0  0  0
 30 31  1  0  0  0
 34 42  1  0  0  0
M  END
> <minimizedAffinity>
-9.88231

$$$$
2AVO_MK1_B_902


 49 53  0  0  0  0  0  0  0  0999 V2000
   18.8781   28.7194   13.7654 C   0  0  0  0  0  0  0  0  0  0  0  0
   18.3396   27.6004   14.4563 O   0  0  0  0  0  0  0  0  0  0  0  0
   17.3896   27.7350   14.5990 H   0  0  0  0  0  0  0  0  0  0  0  0
   18.6544   29.9991   14.6078 C   0  0  0  0  0  0  0  0  0  0  0  0
   22.0754   32.2651   15.6432 N   0  0  0  0  0  0  0  0  0  0  0  0
   20.8021   33.0196   15.2245 C   0  0  0  0  0  0  0  0  0  0  0  0
   19.5786   32.1277   15.3851 C   0  0  0  0  0  0  0  0  0  0  0  0
   19.7682   30.9230   14.4912 N   0  0  0  0  0  0  0  0  0  0  0  0
   20.9929   30.2326   14.8595 C   0  0  0  0  0  0  0  0  0  0  0  0
   22.1939   31.1499   14.7588 C   0  0  0  0  0  0  0  0  0  0  0  0
   18.3781   32.9382   14.9672 C   0  0  0  0  0  0  0  0  0  0  0  0
   18.2849   33.3896   13.8155 O   0  0  0  0  0  0  0  0  0  0  0  0
   17.4894   33.1538   15.9220 N   0  0  0  0  0  0  0  0  0  0  0  0
   17.6885   32.7883   16.8142 H   0  0  0  0  0  0  0  0  0  0  0  0
   16.2276   33.8941   15.7632 C   0  0  0  0  0  0  0  0  0  0  0  0
   15.5606   33.9149   17.1575 C   0  0  0  0  0  0  0  0  0  0  0  0
   15.3747   33.2295   14.7595 C   0  0  0  0  0  0  0  0  0  0  0  0
   16.5231   35.3045   15.3669 C   0  0  0  0  0  0  0  0  0  0  0  0
   23.2088   33.1811   15.4507 C   0  0  0  0  0  0  0  0  0  0  0  0
   22.9438   34.5880   15.9438 C   0  0  0  0  0  0  0  0  0  0  0  0
   22.6732   34.8029   17.3230 C   0  0  0  0  0  0  0  0  0  0  0  0
   22.4547   36.0999   17.8111 N   0  0  0  0  0  0  0  0  0  0  0  0
   22.5025   37.0948   16.8790 C   0  0  0  0  0  0  0  0  0  0  0  0
   22.7234   36.9425   15.5274 C   0  0  0  0  0  0  0  0  0  0  0  0
   22.8993   35.6613   15.0694 C   0  0  0  0  0  0  0  0  0  0  0  0
   18.1700   28.8669   12.4284 C   0  0  0  0  0  0  0  0  0  0  0  0
   18.3374   27.6513   11.4736 C   0  0  0  0  0  0  0  0  0  0  0  0
   19.6831   26.9893   11.6162 C   0  0  0  0  0  0  0  0  0  0  0  0
   19.8160   25.7809   11.9066 O   0  0  0  0  0  0  0  0  0  0  0  0
   20.7283   27.7822   11.4469 N   0  0  0  0  0  0  0  0  0  0  0  0
   20.5925   28.6891   11.0888 H   0  0  0  0  0  0  0  0  0  0  0  0
   22.0652   27.3442   11.7770 C   0  0  0  0  0  0  0  0  0  0  0  0
   22.9524   28.5131   12.2627 C   0  0  0  0  0  0  0  0  0  0  0  0
   22.7353   29.6444   11.3810 O   0  0  0  0  0  0  0  0  0  0  0  0
   24.3694   27.9785   12.0105 C   0  0  0  0  0  0  0  0  0  0  0  0
   24.2771   27.0673   10.8023 C   0  0  0  0  0  0  0  0  0  0  0  0
   25.1904   26.5691    9.9123 C   0  0  0  0  0  0  0  0  0  0  0  0
   24.7433   25.7601    8.9082 C   0  0  0  0  0  0  0  0  0  0  0  0
   23.4284   25.3666    8.7734 C   0  0  0  0  0  0  0  0  0  0  0  0
   22.5039   25.8588    9.6567 C   0  0  0  0  0  0  0  0  0  0  0  0
   22.8580   26.6900   10.6678 C   0  0  0  0  0  0  0  0  0  0  0  0
   22.9021   29.3762   10.4639 H   0  0  0  0  0  0  0  0  0  0  0  0
   18.2143   28.1530   10.0174 C   0  0  0  0  0  0  0  0  0  0  0  0
   18.2222   27.0569    8.9899 C   0  0  0  0  0  0  0  0  0  0  0  0
   17.4677   25.8966    9.1927 C   0  0  0  0  0  0  0  0  0  0  0  0
   17.5188   24.8749    8.2448 C   0  0  0  0  0  0  0  0  0  0  0  0
   18.2742   25.0057    7.1140 C   0  0  0  0  0  0  0  0  0  0  0  0
   18.9785   26.1792    6.8865 C   0  0  0  0  0  0  0  0  0  0  0  0
   18.9380   27.1962    7.8310 C   0  0  0  0  0  0  0  0  0  0  0  0
  5  6  1  0  0  0
  5 10  1  0  0  0
  5 19  1  0  0  0
  6  7  1  0  0  0
  7 11  1  0  0  0
  7  8  1  0  0  0
 11 12  2  0  0  0
 11 13  1  0  0  0
 13 15  1  0  0  0
 15 16  1  0  0  0
 15 17  1  0  0  0
 15 18  1  0  0  0
  8  9  1  0  0  0
  8  4  1  0  0  0
  9 10  1  0  0  0
  4  1  1  0  0  0
  1  2  1  0  0  0
  1 26  1  0  0  0
 26 27  1  0  0  0
 27 43  1  0  0  0
 27 28  1  0  0  0
 43 44  1  0  0  0
 44 45  2  0  0  0
 44 49  1  0  0  0
 45 46  1  0  0  0
 46 47  2  0  0  0
 47 48  1  0  0  0
 48 49  2  0  0  0
 28 29  2  0  0  0
 28 30  1  0  0  0
 30 32  1  0  0  0
 32 33  1  0  0  0
 32 41  1  0  0  0
 33 34  1  0  0  0
 33 35  1  0  0  0
 35 36  1  0  0  0
 36 37  2  0  0  0
 36 41  1  0  0  0
 37 38  1  0  0  0
 38 39  2  0  0  0
 39 40  1  0  0  0
 40 41  2  0  0  0
 19 20  1  0  0  0
 20 21  1  0  0  0
 20 25  2  0  0  0
 21 22  2  0  0  0
 22 23  1  0  0  0
 23 24  2  0  0  0
 24 25  1  0  0  0
 13 14  1  0  0  0
  2  3  1  0  0  0
 30 31  1  0  0  0
 34 42  1  0  0  0
M  END
> <minimizedAffinity>
-9.79705

$$$$
