1Z95_198_A_501


 31 32  0  0  0  0  0  0  0  0999 V2000
   28.3743    1.3120    4.2513 C   0  0  0  0  0  0  0  0  0  0  0  0
   27.4974    1.0275    3.4359 O   0  0  0  0  0  0  0  0  0  0  0  0
   28.3620    2.3798    5.0456 N   0  0  0  0  0  0  0  0  0  0  0  0
   29.0671    2.4347    5.7305 H   0  0  0  0  0  0  0  0  0  0  0  0
   27.4836    3.3822    5.0004 C   0  0  0  0  0  0  0  0  0  0  0  0
   26.1036    3.1929    5.0258 C   0  0  0  0  0  0  0  0  0  0  0  0
   27.9809    4.6661    4.8057 C   0  0  0  0  0  0  0  0  0  0  0  0
   27.1000    5.7315    4.6512 C   0  0  0  0  0  0  0  0  0  0  0  0
   25.7236    5.5267    4.6803 C   0  0  0  0  0  0  0  0  0  0  0  0
   25.1976    4.2429    4.8602 C   0  0  0  0  0  0  0  0  0  0  0  0
   23.6880    3.9338    4.8712 C   0  0  0  0  0  0  0  0  0  0  0  0
   23.2313    3.9944    6.1183 F   0  0  0  0  0  0  0  0  0  0  0  0
   22.9511    4.7609    4.1347 F   0  0  0  0  0  0  0  0  0  0  0  0
   23.4215    2.7179    4.4003 F   0  0  0  0  0  0  0  0  0  0  0  0
   24.9091    6.6960    4.5410 C   0  0  0  0  0  0  0  0  0  0  0  0
   24.2664    7.6304    4.4459 N   0  0  0  0  0  0  0  0  0  0  0  0
   29.5334    0.3483    4.5191 C   0  0  0  0  0  0  0  0  0  0  0  0
   30.7619    1.0343    4.2648 O   0  0  0  0  0  0  0  0  0  0  0  0
   29.4063   -0.8515    3.5781 C   0  0  0  0  0  0  0  0  0  0  0  0
   31.5069    0.4356    4.4304 H   0  0  0  0  0  0  0  0  0  0  0  0
   29.5092   -0.1163    5.9778 C   0  0  0  0  0  0  0  0  0  0  0  0
   30.6425    0.7922    7.0925 S   0  0  0  0  0  0  0  0  0  0  0  0
   30.6704    2.2466    6.7245 O   0  0  0  0  0  0  0  0  0  0  0  0
   32.0220    0.2159    6.9801 O   0  0  0  0  0  0  0  0  0  0  0  0
   29.2564    1.6107    9.2969 C   0  0  0  0  0  0  0  0  0  0  0  0
   28.7914    1.4678   10.6012 C   0  0  0  0  0  0  0  0  0  0  0  0
   29.1446    0.3450   11.3437 C   0  0  0  0  0  0  0  0  0  0  0  0
   28.6981    0.1985   12.6069 F   0  0  0  0  0  0  0  0  0  0  0  0
   29.9619   -0.6328   10.7852 C   0  0  0  0  0  0  0  0  0  0  0  0
   30.4279   -0.4883    9.4821 C   0  0  0  0  0  0  0  0  0  0  0  0
   30.0746    0.6325    8.7383 C   0  0  0  0  0  0  0  0  0  0  0  0
 25 26  2  0  0  0
 25 31  1  0  0  0
 26 27  1  0  0  0
 27 28  1  0  0  0
 27 29  2  0  0  0
 29 30  1  0  0  0
 30 31  2  0  0  0
 31 22  1  0  0  0
 22 23  2  0  0  0
 22 24  2  0  0  0
 22 21  1  0  0  0
 21 17  1  0  0  0
 17 18  1  0  0  0
 17 19  1  0  0  0
 17  1  1  0  0  0
  1  2  2  0  0  0
  1  3  1  0  0  0
  3  5  1  0  0  0
  5  6  2  0  0  0
  5  7  1  0  0  0
  6 10  1  0  0  0
  7  8  2  0  0  0
  8  9  1  0  0  0
  9 15  1  0  0  0
  9 10  2  0  0  0
 15 16  3  0  0  0
 10 11  1  0  0  0
 11 12  1  0  0  0
 11 13  1  0  0  0
 11 14  1  0  0  0
 18 20  1  0  0  0
  3  4  1  0  0  0
M  END
> <minimizedAffinity>
-10.61589

$$$$
1Z95_198_A_501


 31 32  0  0  0  0  0  0  0  0999 V2000
   28.4368    0.7182    4.3354 C   0  0  0  0  0  0  0  0  0  0  0  0
   28.0085    0.4817    3.2061 O   0  0  0  0  0  0  0  0  0  0  0  0
   27.8096    1.4506    5.2528 N   0  0  0  0  0  0  0  0  0  0  0  0
   28.2060    1.4726    6.1537 H   0  0  0  0  0  0  0  0  0  0  0  0
   26.6944    2.1575    5.0655 C   0  0  0  0  0  0  0  0  0  0  0  0
   26.6798    3.5443    4.9329 C   0  0  0  0  0  0  0  0  0  0  0  0
   25.4833    1.4762    5.1188 C   0  0  0  0  0  0  0  0  0  0  0  0
   24.2889    2.1835    5.0297 C   0  0  0  0  0  0  0  0  0  0  0  0
   24.2905    3.5690    4.8961 C   0  0  0  0  0  0  0  0  0  0  0  0
   25.4949    4.2796    4.8545 C   0  0  0  0  0  0  0  0  0  0  0  0
   25.5759    5.8142    4.7409 C   0  0  0  0  0  0  0  0  0  0  0  0
   26.8178    6.2136    4.9975 F   0  0  0  0  0  0  0  0  0  0  0  0
   25.2390    6.2967    3.5480 F   0  0  0  0  0  0  0  0  0  0  0  0
   24.7672    6.4245    5.6038 F   0  0  0  0  0  0  0  0  0  0  0  0
   23.0069    4.1931    4.7833 C   0  0  0  0  0  0  0  0  0  0  0  0
   21.9792    4.6740    4.6960 N   0  0  0  0  0  0  0  0  0  0  0  0
   29.7192    0.0510    4.8395 C   0  0  0  0  0  0  0  0  0  0  0  0
   30.8153    0.9383    4.6035 O   0  0  0  0  0  0  0  0  0  0  0  0
   29.9338   -1.2532    4.0687 C   0  0  0  0  0  0  0  0  0  0  0  0
   31.6364    0.5287    4.9182 H   0  0  0  0  0  0  0  0  0  0  0  0
   29.6142   -0.2309    6.3408 C   0  0  0  0  0  0  0  0  0  0  0  0
   30.5414    0.9329    7.4077 S   0  0  0  0  0  0  0  0  0  0  0  0
   30.2655    2.3470    6.9887 O   0  0  0  0  0  0  0  0  0  0  0  0
   32.0096    0.6504    7.2972 O   0  0  0  0  0  0  0  0  0  0  0  0
   29.0741    1.5692    9.6197 C   0  0  0  0  0  0  0  0  0  0  0  0
   28.6554    1.3823   10.9341 C   0  0  0  0  0  0  0  0  0  0  0  0
   29.1912    0.3447   11.6911 C   0  0  0  0  0  0  0  0  0  0  0  0
   28.7907    0.1563   12.9642 F   0  0  0  0  0  0  0  0  0  0  0  0
   30.1445   -0.5039   11.1371 C   0  0  0  0  0  0  0  0  0  0  0  0
   30.5639   -0.3153    9.8239 C   0  0  0  0  0  0  0  0  0  0  0  0
   30.0284    0.7203    9.0656 C   0  0  0  0  0  0  0  0  0  0  0  0
 25 26  2  0  0  0
 25 31  1  0  0  0
 26 27  1  0  0  0
 27 28  1  0  0  0
 27 29  2  0  0  0
 29 30  1  0  0  0
 30 31  2  0  0  0
 31 22  1  0  0  0
 22 23  2  0  0  0
 22 24  2  0  0  0
 22 21  1  0  0  0
 21 17  1  0  0  0
 17 18  1  0  0  0
 17 19  1  0  0  0
 17  1  1  0  0  0
  1  2  2  0  0  0
  1  3  1  0  0  0
  3  5  1  0  0  0
  5  6  2  0  0  0
  5  7  1  0  0  0
  6 10  1  0  0  0
  7  8  2  0  0  0
  8  9  1  0  0  0
  9 15  1  0  0  0
  9 10  2  0  0  0
 15 16  3  0  0  0
 10 11  1  0  0  0
 11 12  1  0  0  0
 11 13  1  0  0  0
 11 14  1  0  0  0
 18 20  1  0  0  0
  3  4  1  0  0  0
M  END
> <minimizedAffinity>
-9.56346

$$$$
1Z95_198_A_501


 31 32  0  0  0  0  0  0  0  0999 V2000
   29.1471    1.9785    6.1581 C   0  0  0  0  0  0  0  0  0  0  0  0
   28.6573    2.0821    7.2824 O   0  0  0  0  0  0  0  0  0  0  0  0
   28.8531    2.7595    5.1213 N   0  0  0  0  0  0  0  0  0  0  0  0
   29.3947    2.6437    4.3075 H   0  0  0  0  0  0  0  0  0  0  0  0
   27.8931    3.6844    5.0822 C   0  0  0  0  0  0  0  0  0  0  0  0
   26.5439    3.3965    5.2764 C   0  0  0  0  0  0  0  0  0  0  0  0
   28.2574    4.9761    4.7183 C   0  0  0  0  0  0  0  0  0  0  0  0
   27.2785    5.9524    4.5655 C   0  0  0  0  0  0  0  0  0  0  0  0
   25.9345    5.6497    4.7643 C   0  0  0  0  0  0  0  0  0  0  0  0
   25.5401    4.3545    5.1167 C   0  0  0  0  0  0  0  0  0  0  0  0
   24.0712    3.9366    5.3218 C   0  0  0  0  0  0  0  0  0  0  0  0
   24.0240    2.8121    6.0294 F   0  0  0  0  0  0  0  0  0  0  0  0
   23.3251    4.8385    5.9537 F   0  0  0  0  0  0  0  0  0  0  0  0
   23.4466    3.7160    4.1675 F   0  0  0  0  0  0  0  0  0  0  0  0
   25.0142    6.7355    4.6100 C   0  0  0  0  0  0  0  0  0  0  0  0
   24.2699    7.5875    4.4855 N   0  0  0  0  0  0  0  0  0  0  0  0
   30.2784    0.9829    5.8883 C   0  0  0  0  0  0  0  0  0  0  0  0
   29.9540   -0.2559    6.5244 O   0  0  0  0  0  0  0  0  0  0  0  0
   31.5777    1.5404    6.4731 C   0  0  0  0  0  0  0  0  0  0  0  0
   30.6628   -0.8980    6.3621 H   0  0  0  0  0  0  0  0  0  0  0  0
   30.4309    0.7505    4.3826 C   0  0  0  0  0  0  0  0  0  0  0  0
   29.3806   -0.5855    3.7011 S   0  0  0  0  0  0  0  0  0  0  0  0
   29.5334   -1.8310    4.5237 O   0  0  0  0  0  0  0  0  0  0  0  0
   29.7831   -0.8635    2.2838 O   0  0  0  0  0  0  0  0  0  0  0  0
   27.2013    0.7541    2.7489 C   0  0  0  0  0  0  0  0  0  0  0  0
   25.8641    1.1400    2.7787 C   0  0  0  0  0  0  0  0  0  0  0  0
   25.0364    0.6924    3.8039 C   0  0  0  0  0  0  0  0  0  0  0  0
   23.7403    1.0606    3.8397 F   0  0  0  0  0  0  0  0  0  0  0  0
   25.5434   -0.1378    4.7987 C   0  0  0  0  0  0  0  0  0  0  0  0
   26.8805   -0.5214    4.7695 C   0  0  0  0  0  0  0  0  0  0  0  0
   27.7086   -0.0762    3.7447 C   0  0  0  0  0  0  0  0  0  0  0  0
 25 26  2  0  0  0
 25 31  1  0  0  0
 26 27  1  0  0  0
 27 28  1  0  0  0
 27 29  2  0  0  0
 29 30  1  0  0  0
 30 31  2  0  0  0
 31 22  1  0  0  0
 22 23  2  0  0  0
 22 24  2  0  0  0
 22 21  1  0  0  0
 21 17  1  0  0  0
 17 18  1  0  0  0
 17 19  1  0  0  0
 17  1  1  0  0  0
  1  2  2  0  0  0
  1  3  1  0  0  0
  3  5  1  0  0  0
  5  6  2  0  0  0
  5  7  1  0  0  0
  6 10  1  0  0  0
  7  8  2  0  0  0
  8  9  1  0  0  0
  9 15  1  0  0  0
  9 10  2  0  0  0
 15 16  3  0  0  0
 10 11  1  0  0  0
 11 12  1  0  0  0
 11 13  1  0  0  0
 11 14  1  0  0  0
 18 20  1  0  0  0
  3  4  1  0  0  0
M  END
> <minimizedAffinity>
-9.15753

$$$$
1Z95_198_A_501


 31 32  0  0  0  0  0  0  0  0999 V2000
   29.2251   -0.3664    4.9318 C   0  0  0  0  0  0  0  0  0  0  0  0
   29.9018   -1.3942    4.9516 O   0  0  0  0  0  0  0  0  0  0  0  0
   29.2346    0.5733    5.8742 N   0  0  0  0  0  0  0  0  0  0  0  0
   28.7314    1.3985    5.6869 H   0  0  0  0  0  0  0  0  0  0  0  0
   29.8623    0.5014    7.0487 C   0  0  0  0  0  0  0  0  0  0  0  0
   29.2163    0.6582    8.2731 C   0  0  0  0  0  0  0  0  0  0  0  0
   31.2469    0.3746    7.0325 C   0  0  0  0  0  0  0  0  0  0  0  0
   31.9562    0.3963    8.2289 C   0  0  0  0  0  0  0  0  0  0  0  0
   31.2965    0.5523    9.4445 C   0  0  0  0  0  0  0  0  0  0  0  0
   29.9056    0.6964    9.4873 C   0  0  0  0  0  0  0  0  0  0  0  0
   29.1097    0.9054   10.7902 C   0  0  0  0  0  0  0  0  0  0  0  0
   28.7386   -0.2743   11.2779 F   0  0  0  0  0  0  0  0  0  0  0  0
   29.7784    1.5418   11.7479 F   0  0  0  0  0  0  0  0  0  0  0  0
   28.0093    1.6280   10.5954 F   0  0  0  0  0  0  0  0  0  0  0  0
   32.1195    0.5308   10.6158 C   0  0  0  0  0  0  0  0  0  0  0  0
   32.7794    0.4984   11.5425 N   0  0  0  0  0  0  0  0  0  0  0  0
   28.3811   -0.0112    3.7049 C   0  0  0  0  0  0  0  0  0  0  0  0
   27.2500   -0.8849    3.6638 O   0  0  0  0  0  0  0  0  0  0  0  0
   29.2308   -0.2049    2.4473 C   0  0  0  0  0  0  0  0  0  0  0  0
   26.7047   -0.6717    2.8904 H   0  0  0  0  0  0  0  0  0  0  0  0
   27.8945    1.4376    3.7987 C   0  0  0  0  0  0  0  0  0  0  0  0
   26.0746    1.6371    3.8190 S   0  0  0  0  0  0  0  0  0  0  0  0
   25.4750    0.7831    4.8972 O   0  0  0  0  0  0  0  0  0  0  0  0
   25.5134    1.2377    2.4873 O   0  0  0  0  0  0  0  0  0  0  0  0
   26.6046    4.3146    3.8366 C   0  0  0  0  0  0  0  0  0  0  0  0
   26.2822    5.6478    4.0747 C   0  0  0  0  0  0  0  0  0  0  0  0
   25.0410    5.9751    4.6123 C   0  0  0  0  0  0  0  0  0  0  0  0
   24.7206    7.2635    4.8452 F   0  0  0  0  0  0  0  0  0  0  0  0
   24.1240    4.9729    4.9131 C   0  0  0  0  0  0  0  0  0  0  0  0
   24.4477    3.6405    4.6767 C   0  0  0  0  0  0  0  0  0  0  0  0
   25.6871    3.3118    4.1381 C   0  0  0  0  0  0  0  0  0  0  0  0
 25 26  2  0  0  0
 25 31  1  0  0  0
 26 27  1  0  0  0
 27 28  1  0  0  0
 27 29  2  0  0  0
 29 30  1  0  0  0
 30 31  2  0  0  0
 31 22  1  0  0  0
 22 23  2  0  0  0
 22 24  2  0  0  0
 22 21  1  0  0  0
 21 17  1  0  0  0
 17 18  1  0  0  0
 17 19  1  0  0  0
 17  1  1  0  0  0
  1  2  2  0  0  0
  1  3  1  0  0  0
  3  5  1  0  0  0
  5  6  2  0  0  0
  5  7  1  0  0  0
  6 10  1  0  0  0
  7  8  2  0  0  0
  8  9  1  0  0  0
  9 15  1  0  0  0
  9 10  2  0  0  0
 15 16  3  0  0  0
 10 11  1  0  0  0
 11 12  1  0  0  0
 11 13  1  0  0  0
 11 14  1  0  0  0
 18 20  1  0  0  0
  3  4  1  0  0  0
M  END
> <minimizedAffinity>
-7.97222

$$$$
