6MA4_JA7_A_1101


 47 50  0  0  0  0  0  0  0  0999 V2000
   -0.9141  -43.2579   15.1496 C   0  0  0  0  0  0  0  0  0  0  0  0
   -1.2016  -45.6449   16.2627 C   0  0  0  0  0  0  0  0  0  0  0  0
   -1.1502  -46.4512   17.4130 C   0  0  0  0  0  0  0  0  0  0  0  0
   -0.4662  -44.5659   18.8140 C   0  0  0  0  0  0  0  0  0  0  0  0
   -0.8723  -44.2341   16.3768 C   0  0  0  0  0  0  0  0  0  0  0  0
   -0.7855  -45.9301   18.6735 C   0  0  0  0  0  0  0  0  0  0  0  0
   -0.5132  -43.7392   17.6634 C   0  0  0  0  0  0  0  0  0  0  0  0
   -1.5544  -46.1618   15.0163 O   0  0  0  0  0  0  0  0  0  0  0  0
   -2.8677  -46.7780   14.7628 C   0  0  0  0  0  0  0  0  0  0  0  0
   -2.8244  -48.0719   13.8258 C   0  0  0  0  0  0  0  0  0  0  0  0
   -2.9533  -47.7977   12.2649 C   0  0  0  0  0  0  0  0  0  0  0  0
   -1.5968  -47.6234   11.5333 C   0  0  0  0  0  0  0  0  0  0  0  0
   -0.9820  -46.1640   11.5343 C   0  0  0  0  0  0  0  0  0  0  0  0
   -1.7460  -45.1496   11.6476 O   0  0  0  0  0  0  0  0  0  0  0  0
    0.2732  -46.0378   11.4227 O   0  0  0  0  0  0  0  0  0  0  0  0
    0.8151  -46.7979   11.3406 H   0  0  0  0  0  0  0  0  0  0  0  0
   -2.4081  -42.6311   14.8544 C   0  0  0  0  0  0  0  0  0  0  0  0
   -2.8169  -41.3322   15.2065 N   0  0  0  0  0  0  0  0  0  0  0  0
   -3.1485  -43.4545   14.2838 O   0  0  0  0  0  0  0  0  0  0  0  0
   -4.2053  -40.8430   14.8915 C   0  0  0  0  0  0  0  0  0  0  0  0
   -4.5115  -40.4750   13.3772 C   0  0  0  0  0  0  0  0  0  0  0  0
   -5.4501  -41.1226   12.8214 O   0  0  0  0  0  0  0  0  0  0  0  0
   -3.8338  -39.5840   12.7977 O   0  0  0  0  0  0  0  0  0  0  0  0
   -5.9192  -41.7745   13.3040 H   0  0  0  0  0  0  0  0  0  0  0  0
   -1.8904  -40.3458   15.8935 C   0  0  0  0  0  0  0  0  0  0  0  0
   -2.5219  -39.0485   16.5204 C   0  0  0  0  0  0  0  0  0  0  0  0
   -2.6338  -37.7515   16.0636 C   0  0  0  0  0  0  0  0  0  0  0  0
   -3.3253  -36.7999   16.9820 C   0  0  0  0  0  0  0  0  0  0  0  0
   -3.7482  -37.3749   18.1485 C   0  0  0  0  0  0  0  0  0  0  0  0
   -3.2913  -39.0610   18.1181 S   0  0  0  0  0  0  0  0  0  0  0  0
   -0.2321  -43.8326   13.8972 N   0  0  0  0  0  0  0  0  0  0  0  0
   -0.1645  -44.8403   14.0401 H   0  0  0  0  0  0  0  0  0  0  0  0
    1.3130  -43.3065   13.4247 S   0  0  0  0  0  0  0  0  0  0  0  0
    1.6385  -42.0125   13.9168 O   0  0  0  0  0  0  0  0  0  0  0  0
    1.4797  -43.3784   12.0160 O   0  0  0  0  0  0  0  0  0  0  0  0
    2.5498  -44.6111   14.2236 C   0  0  0  0  0  0  0  0  0  0  0  0
    6.5515  -48.1834   17.8994 O   0  0  0  0  0  0  0  0  0  0  0  0
    5.7533  -47.3528   17.4379 C   0  0  0  0  0  0  0  0  0  0  0  0
    5.3791  -47.4457   16.0647 N   0  0  0  0  0  0  0  0  0  0  0  0
    5.1722  -46.2602   18.2552 C   0  0  0  0  0  0  0  0  0  0  0  0
    4.2873  -45.3620   17.6779 C   0  0  0  0  0  0  0  0  0  0  0  0
    3.8851  -45.4550   16.2347 C   0  0  0  0  0  0  0  0  0  0  0  0
    4.4458  -46.5041   15.4546 C   0  0  0  0  0  0  0  0  0  0  0  0
    4.0519  -46.5944   14.0556 C   0  0  0  0  0  0  0  0  0  0  0  0
    3.1471  -45.6691   13.4706 C   0  0  0  0  0  0  0  0  0  0  0  0
    2.9557  -44.5416   15.5794 C   0  0  0  0  0  0  0  0  0  0  0  0
    5.7613  -48.1656   15.5126 H   0  0  0  0  0  0  0  0  0  0  0  0
 37 38  2  0  0  0
 38 40  1  0  0  0
 38 39  1  0  0  0
 40 41  2  0  0  0
 39 43  1  0  0  0
 41 42  1  0  0  0
 43 42  2  0  0  0
 43 44  1  0  0  0
 42 46  1  0  0  0
 44 45  2  0  0  0
 46 36  2  0  0  0
 29 28  2  0  0  0
 29 30  1  0  0  0
 14 13  2  0  0  0
 45 36  1  0  0  0
 36 33  1  0  0  0
 28 27  1  0  0  0
 30 26  1  0  0  0
 34 33  2  0  0  0
 13 15  1  0  0  0
 13 12  1  0  0  0
 35 33  2  0  0  0
 33 31  1  0  0  0
 27 26  2  0  0  0
 26 25  1  0  0  0
 12 11  1  0  0  0
 20 18  1  0  0  0
 20 21  1  0  0  0
 31  1  1  0  0  0
 19 17  2  0  0  0
 18 17  1  0  0  0
 18 25  1  0  0  0
 17  1  1  0  0  0
 11 10  1  0  0  0
 23 21  2  0  0  0
  1  5  1  0  0  0
 21 22  1  0  0  0
 10  9  1  0  0  0
  8  9  1  0  0  0
  8  2  1  0  0  0
  5  2  2  0  0  0
  5  7  1  0  0  0
  2  3  1  0  0  0
  7  4  2  0  0  0
  3  6  2  0  0  0
  4  6  1  0  0  0
 31 32  1  0  0  0
 39 47  1  0  0  0
 15 16  1  0  0  0
 22 24  1  0  0  0
M  END
> <minimizedAffinity>
-8.91834

$$$$
6MA4_JA7_A_1101


 47 50  0  0  0  0  0  0  0  0999 V2000
   -2.8301  -42.4193   15.6414 C   0  0  0  0  0  0  0  0  0  0  0  0
   -2.1175  -44.0200   13.6541 C   0  0  0  0  0  0  0  0  0  0  0  0
   -1.1889  -44.3588   12.6547 C   0  0  0  0  0  0  0  0  0  0  0  0
    0.2684  -42.4851   13.2469 C   0  0  0  0  0  0  0  0  0  0  0  0
   -1.8561  -42.8640   14.4951 C   0  0  0  0  0  0  0  0  0  0  0  0
   -0.0126  -43.6071   12.4437 C   0  0  0  0  0  0  0  0  0  0  0  0
   -0.6582  -42.1300   14.2593 C   0  0  0  0  0  0  0  0  0  0  0  0
   -3.2832  -44.7584   13.8570 O   0  0  0  0  0  0  0  0  0  0  0  0
   -3.7377  -45.7885   12.9079 C   0  0  0  0  0  0  0  0  0  0  0  0
   -3.4063  -47.2889   13.3473 C   0  0  0  0  0  0  0  0  0  0  0  0
   -2.6239  -48.1646   12.2753 C   0  0  0  0  0  0  0  0  0  0  0  0
   -1.6032  -47.3672   11.4221 C   0  0  0  0  0  0  0  0  0  0  0  0
   -0.3484  -48.1756   10.8930 C   0  0  0  0  0  0  0  0  0  0  0  0
   -0.4792  -48.9960    9.9259 O   0  0  0  0  0  0  0  0  0  0  0  0
    0.7723  -47.9834   11.4508 O   0  0  0  0  0  0  0  0  0  0  0  0
    0.8445  -47.3754   12.1600 H   0  0  0  0  0  0  0  0  0  0  0  0
   -3.4854  -40.9263   15.4097 C   0  0  0  0  0  0  0  0  0  0  0  0
   -2.8862  -39.7171   15.8058 N   0  0  0  0  0  0  0  0  0  0  0  0
   -4.5931  -40.9923   14.8437 O   0  0  0  0  0  0  0  0  0  0  0  0
   -3.5596  -38.3956   15.5476 C   0  0  0  0  0  0  0  0  0  0  0  0
   -4.6856  -37.9497   16.5750 C   0  0  0  0  0  0  0  0  0  0  0  0
   -4.3540  -37.0645   17.4210 O   0  0  0  0  0  0  0  0  0  0  0  0
   -5.8307  -38.4736   16.5187 O   0  0  0  0  0  0  0  0  0  0  0  0
   -3.4862  -36.7114   17.4139 H   0  0  0  0  0  0  0  0  0  0  0  0
   -1.5304  -39.6653   16.4860 C   0  0  0  0  0  0  0  0  0  0  0  0
   -1.4420  -39.0126   17.9146 C   0  0  0  0  0  0  0  0  0  0  0  0
   -0.6881  -37.9735   18.4200 C   0  0  0  0  0  0  0  0  0  0  0  0
   -0.9116  -37.6535   19.8604 C   0  0  0  0  0  0  0  0  0  0  0  0
   -1.8461  -38.4521   20.4597 C   0  0  0  0  0  0  0  0  0  0  0  0
   -2.4331  -39.5872   19.2683 S   0  0  0  0  0  0  0  0  0  0  0  0
   -2.2394  -42.6179   17.0470 N   0  0  0  0  0  0  0  0  0  0  0  0
   -1.2723  -42.2966   17.0034 H   0  0  0  0  0  0  0  0  0  0  0  0
   -2.2061  -44.1546   17.7715 S   0  0  0  0  0  0  0  0  0  0  0  0
   -3.4596  -44.8245   17.7208 O   0  0  0  0  0  0  0  0  0  0  0  0
   -1.7085  -44.0935   19.1004 O   0  0  0  0  0  0  0  0  0  0  0  0
   -0.9042  -45.1782   16.7099 C   0  0  0  0  0  0  0  0  0  0  0  0
    4.1181  -47.5130   13.3021 O   0  0  0  0  0  0  0  0  0  0  0  0
    3.3323  -46.8448   13.9921 C   0  0  0  0  0  0  0  0  0  0  0  0
    2.0374  -47.3744   14.2699 N   0  0  0  0  0  0  0  0  0  0  0  0
    3.6816  -45.5115   14.5396 C   0  0  0  0  0  0  0  0  0  0  0  0
    2.7564  -44.8141   15.3017 C   0  0  0  0  0  0  0  0  0  0  0  0
    1.3931  -45.3659   15.6020 C   0  0  0  0  0  0  0  0  0  0  0  0
    1.0623  -46.6447   15.0740 C   0  0  0  0  0  0  0  0  0  0  0  0
   -0.2596  -47.1795   15.3691 C   0  0  0  0  0  0  0  0  0  0  0  0
   -1.2029  -46.4582   16.1481 C   0  0  0  0  0  0  0  0  0  0  0  0
    0.3853  -44.6781   16.4013 C   0  0  0  0  0  0  0  0  0  0  0  0
    1.7944  -48.2574   13.9088 H   0  0  0  0  0  0  0  0  0  0  0  0
 37 38  2  0  0  0
 38 40  1  0  0  0
 38 39  1  0  0  0
 40 41  2  0  0  0
 39 43  1  0  0  0
 41 42  1  0  0  0
 43 42  2  0  0  0
 43 44  1  0  0  0
 42 46  1  0  0  0
 44 45  2  0  0  0
 46 36  2  0  0  0
 29 28  2  0  0  0
 29 30  1  0  0  0
 14 13  2  0  0  0
 45 36  1  0  0  0
 36 33  1  0  0  0
 28 27  1  0  0  0
 30 26  1  0  0  0
 34 33  2  0  0  0
 13 15  1  0  0  0
 13 12  1  0  0  0
 35 33  2  0  0  0
 33 31  1  0  0  0
 27 26  2  0  0  0
 26 25  1  0  0  0
 12 11  1  0  0  0
 20 18  1  0  0  0
 20 21  1  0  0  0
 31  1  1  0  0  0
 19 17  2  0  0  0
 18 17  1  0  0  0
 18 25  1  0  0  0
 17  1  1  0  0  0
 11 10  1  0  0  0
 23 21  2  0  0  0
  1  5  1  0  0  0
 21 22  1  0  0  0
 10  9  1  0  0  0
  8  9  1  0  0  0
  8  2  1  0  0  0
  5  2  2  0  0  0
  5  7  1  0  0  0
  2  3  1  0  0  0
  7  4  2  0  0  0
  3  6  2  0  0  0
  4  6  1  0  0  0
 31 32  1  0  0  0
 39 47  1  0  0  0
 15 16  1  0  0  0
 22 24  1  0  0  0
M  END
> <minimizedAffinity>
-8.55244

$$$$
6MA4_JA7_A_1101


 47 50  0  0  0  0  0  0  0  0999 V2000
   -2.8126  -41.7114   18.2635 C   0  0  0  0  0  0  0  0  0  0  0  0
   -1.7853  -39.9476   19.9526 C   0  0  0  0  0  0  0  0  0  0  0  0
   -1.7551  -39.3932   21.2440 C   0  0  0  0  0  0  0  0  0  0  0  0
   -3.5162  -40.8986   22.0296 C   0  0  0  0  0  0  0  0  0  0  0  0
   -2.7181  -41.0259   19.6712 C   0  0  0  0  0  0  0  0  0  0  0  0
   -2.6061  -39.8520   22.2728 C   0  0  0  0  0  0  0  0  0  0  0  0
   -3.5592  -41.4685   20.7323 C   0  0  0  0  0  0  0  0  0  0  0  0
   -0.9497  -39.4888   18.9345 O   0  0  0  0  0  0  0  0  0  0  0  0
   -0.4156  -38.1166   18.9130 C   0  0  0  0  0  0  0  0  0  0  0  0
   -0.4077  -37.4295   17.4702 C   0  0  0  0  0  0  0  0  0  0  0  0
   -1.2214  -36.0688   17.3498 C   0  0  0  0  0  0  0  0  0  0  0  0
   -2.6730  -36.2369   16.8300 C   0  0  0  0  0  0  0  0  0  0  0  0
   -3.7813  -36.5215   17.9247 C   0  0  0  0  0  0  0  0  0  0  0  0
   -4.9421  -36.9128   17.5711 O   0  0  0  0  0  0  0  0  0  0  0  0
   -3.4828  -36.3525   19.1439 O   0  0  0  0  0  0  0  0  0  0  0  0
   -2.6231  -36.0643   19.3801 H   0  0  0  0  0  0  0  0  0  0  0  0
   -3.4358  -40.7344   17.0933 C   0  0  0  0  0  0  0  0  0  0  0  0
   -2.7321  -40.2926   15.9585 N   0  0  0  0  0  0  0  0  0  0  0  0
   -4.6162  -40.4193   17.3369 O   0  0  0  0  0  0  0  0  0  0  0  0
   -3.3871  -39.4020   14.9367 C   0  0  0  0  0  0  0  0  0  0  0  0
   -4.2613  -40.1135   13.8179 C   0  0  0  0  0  0  0  0  0  0  0  0
   -4.9808  -41.0851   14.2019 O   0  0  0  0  0  0  0  0  0  0  0  0
   -4.2112  -39.7045   12.6266 O   0  0  0  0  0  0  0  0  0  0  0  0
   -4.9765  -41.3440   15.1025 H   0  0  0  0  0  0  0  0  0  0  0  0
   -1.2965  -40.6999   15.6818 C   0  0  0  0  0  0  0  0  0  0  0  0
   -1.0408  -41.8649   14.6560 C   0  0  0  0  0  0  0  0  0  0  0  0
   -1.8896  -42.7308   13.9980 C   0  0  0  0  0  0  0  0  0  0  0  0
   -1.2326  -43.7091   13.0824 C   0  0  0  0  0  0  0  0  0  0  0  0
    0.1289  -43.5877   13.0377 C   0  0  0  0  0  0  0  0  0  0  0  0
    0.5930  -42.2937   14.1160 S   0  0  0  0  0  0  0  0  0  0  0  0
   -3.4650  -43.1028   18.3118 N   0  0  0  0  0  0  0  0  0  0  0  0
   -4.2606  -43.0285   18.9458 H   0  0  0  0  0  0  0  0  0  0  0  0
   -2.5792  -44.4663   18.8053 S   0  0  0  0  0  0  0  0  0  0  0  0
   -3.3450  -45.3813   19.5792 O   0  0  0  0  0  0  0  0  0  0  0  0
   -1.3850  -44.0960   19.4792 O   0  0  0  0  0  0  0  0  0  0  0  0
   -2.0506  -45.3507   17.1295 C   0  0  0  0  0  0  0  0  0  0  0  0
   -1.5583  -48.4253   11.4207 O   0  0  0  0  0  0  0  0  0  0  0  0
   -1.9313  -47.8538   12.4571 C   0  0  0  0  0  0  0  0  0  0  0  0
   -0.9493  -47.4135   13.3931 N   0  0  0  0  0  0  0  0  0  0  0  0
   -3.3610  -47.6114   12.7681 C   0  0  0  0  0  0  0  0  0  0  0  0
   -3.7121  -46.9691   13.9459 C   0  0  0  0  0  0  0  0  0  0  0  0
   -2.6847  -46.4991   14.9343 C   0  0  0  0  0  0  0  0  0  0  0  0
   -1.3148  -46.7347   14.6322 C   0  0  0  0  0  0  0  0  0  0  0  0
   -0.3197  -46.2751   15.5908 C   0  0  0  0  0  0  0  0  0  0  0  0
   -0.6869  -45.6205   16.7965 C   0  0  0  0  0  0  0  0  0  0  0  0
   -2.9982  -45.8147   16.1837 C   0  0  0  0  0  0  0  0  0  0  0  0
    0.0025  -47.5721   13.1976 H   0  0  0  0  0  0  0  0  0  0  0  0
 37 38  2  0  0  0
 38 40  1  0  0  0
 38 39  1  0  0  0
 40 41  2  0  0  0
 39 43  1  0  0  0
 41 42  1  0  0  0
 43 42  2  0  0  0
 43 44  1  0  0  0
 42 46  1  0  0  0
 44 45  2  0  0  0
 46 36  2  0  0  0
 29 28  2  0  0  0
 29 30  1  0  0  0
 14 13  2  0  0  0
 45 36  1  0  0  0
 36 33  1  0  0  0
 28 27  1  0  0  0
 30 26  1  0  0  0
 34 33  2  0  0  0
 13 15  1  0  0  0
 13 12  1  0  0  0
 35 33  2  0  0  0
 33 31  1  0  0  0
 27 26  2  0  0  0
 26 25  1  0  0  0
 12 11  1  0  0  0
 20 18  1  0  0  0
 20 21  1  0  0  0
 31  1  1  0  0  0
 19 17  2  0  0  0
 18 17  1  0  0  0
 18 25  1  0  0  0
 17  1  1  0  0  0
 11 10  1  0  0  0
 23 21  2  0  0  0
  1  5  1  0  0  0
 21 22  1  0  0  0
 10  9  1  0  0  0
  8  9  1  0  0  0
  8  2  1  0  0  0
  5  2  2  0  0  0
  5  7  1  0  0  0
  2  3  1  0  0  0
  7  4  2  0  0  0
  3  6  2  0  0  0
  4  6  1  0  0  0
 31 32  1  0  0  0
 39 47  1  0  0  0
 15 16  1  0  0  0
 22 24  1  0  0  0
M  END
> <minimizedAffinity>
-8.52468

$$$$
6MA4_JA7_A_1101


 47 50  0  0  0  0  0  0  0  0999 V2000
   -1.5237  -42.0891   16.7778 C   0  0  0  0  0  0  0  0  0  0  0  0
   -2.5703  -43.4376   18.8041 C   0  0  0  0  0  0  0  0  0  0  0  0
   -2.7686  -43.5675   20.1896 C   0  0  0  0  0  0  0  0  0  0  0  0
   -1.4670  -41.5495   20.6566 C   0  0  0  0  0  0  0  0  0  0  0  0
   -1.7864  -42.3193   18.3070 C   0  0  0  0  0  0  0  0  0  0  0  0
   -2.2263  -42.6450   21.1105 C   0  0  0  0  0  0  0  0  0  0  0  0
   -1.2575  -41.4043   19.2621 C   0  0  0  0  0  0  0  0  0  0  0  0
   -3.0997  -44.3536   17.8953 O   0  0  0  0  0  0  0  0  0  0  0  0
   -2.7932  -45.7926   17.9590 C   0  0  0  0  0  0  0  0  0  0  0  0
   -2.1526  -46.3948   16.6245 C   0  0  0  0  0  0  0  0  0  0  0  0
   -3.0599  -46.3035   15.3219 C   0  0  0  0  0  0  0  0  0  0  0  0
   -2.8182  -47.4403   14.2948 C   0  0  0  0  0  0  0  0  0  0  0  0
   -3.3148  -47.1665   12.8161 C   0  0  0  0  0  0  0  0  0  0  0  0
   -4.1526  -47.9558   12.2678 O   0  0  0  0  0  0  0  0  0  0  0  0
   -2.8620  -46.1537   12.2052 O   0  0  0  0  0  0  0  0  0  0  0  0
   -2.2468  -45.5876   12.6284 H   0  0  0  0  0  0  0  0  0  0  0  0
   -2.7811  -41.3728   15.9918 C   0  0  0  0  0  0  0  0  0  0  0  0
   -2.9283  -39.9858   15.8108 N   0  0  0  0  0  0  0  0  0  0  0  0
   -3.6038  -42.2118   15.5782 O   0  0  0  0  0  0  0  0  0  0  0  0
   -4.1125  -39.4204   15.0730 C   0  0  0  0  0  0  0  0  0  0  0  0
   -4.4183  -40.0225   13.6355 C   0  0  0  0  0  0  0  0  0  0  0  0
   -5.2232  -41.0022   13.5976 O   0  0  0  0  0  0  0  0  0  0  0  0
   -3.8686  -39.5252   12.6160 O   0  0  0  0  0  0  0  0  0  0  0  0
   -5.6012  -41.3290   14.3903 H   0  0  0  0  0  0  0  0  0  0  0  0
   -1.9051  -38.9859   16.3175 C   0  0  0  0  0  0  0  0  0  0  0  0
   -2.4141  -37.5662   16.7648 C   0  0  0  0  0  0  0  0  0  0  0  0
   -2.1954  -36.2980   16.2676 C   0  0  0  0  0  0  0  0  0  0  0  0
   -2.8848  -35.1912   16.9935 C   0  0  0  0  0  0  0  0  0  0  0  0
   -3.6392  -35.6172   18.0516 C   0  0  0  0  0  0  0  0  0  0  0  0
   -3.4927  -37.3551   18.1566 S   0  0  0  0  0  0  0  0  0  0  0  0
   -0.9859  -43.3393   16.0624 N   0  0  0  0  0  0  0  0  0  0  0  0
   -0.1624  -43.6402   16.5836 H   0  0  0  0  0  0  0  0  0  0  0  0
   -0.5287  -43.2812   14.4269 S   0  0  0  0  0  0  0  0  0  0  0  0
    0.0831  -42.0508   14.0602 O   0  0  0  0  0  0  0  0  0  0  0  0
   -1.6184  -43.5897   13.5699 O   0  0  0  0  0  0  0  0  0  0  0  0
    0.7940  -44.7236   14.2275 C   0  0  0  0  0  0  0  0  0  0  0  0
    5.9825  -48.6396   14.0527 O   0  0  0  0  0  0  0  0  0  0  0  0
    5.1724  -47.7137   14.2150 C   0  0  0  0  0  0  0  0  0  0  0  0
    3.8362  -47.8764   13.7434 N   0  0  0  0  0  0  0  0  0  0  0  0
    5.5363  -46.4378   14.8776 C   0  0  0  0  0  0  0  0  0  0  0  0
    4.5841  -45.4405   15.0255 C   0  0  0  0  0  0  0  0  0  0  0  0
    3.1747  -45.6051   14.5356 C   0  0  0  0  0  0  0  0  0  0  0  0
    2.8307  -46.8303   13.8999 C   0  0  0  0  0  0  0  0  0  0  0  0
    1.4621  -46.9892   13.4283 C   0  0  0  0  0  0  0  0  0  0  0  0
    0.4931  -45.9623   13.5808 C   0  0  0  0  0  0  0  0  0  0  0  0
    2.1338  -44.5923   14.6700 C   0  0  0  0  0  0  0  0  0  0  0  0
    3.5850  -48.7185   13.2995 H   0  0  0  0  0  0  0  0  0  0  0  0
 37 38  2  0  0  0
 38 40  1  0  0  0
 38 39  1  0  0  0
 40 41  2  0  0  0
 39 43  1  0  0  0
 41 42  1  0  0  0
 43 42  2  0  0  0
 43 44  1  0  0  0
 42 46  1  0  0  0
 44 45  2  0  0  0
 46 36  2  0  0  0
 29 28  2  0  0  0
 29 30  1  0  0  0
 14 13  2  0  0  0
 45 36  1  0  0  0
 36 33  1  0  0  0
 28 27  1  0  0  0
 30 26  1  0  0  0
 34 33  2  0  0  0
 13 15  1  0  0  0
 13 12  1  0  0  0
 35 33  2  0  0  0
 33 31  1  0  0  0
 27 26  2  0  0  0
 26 25  1  0  0  0
 12 11  1  0  0  0
 20 18  1  0  0  0
 20 21  1  0  0  0
 31  1  1  0  0  0
 19 17  2  0  0  0
 18 17  1  0  0  0
 18 25  1  0  0  0
 17  1  1  0  0  0
 11 10  1  0  0  0
 23 21  2  0  0  0
  1  5  1  0  0  0
 21 22  1  0  0  0
 10  9  1  0  0  0
  8  9  1  0  0  0
  8  2  1  0  0  0
  5  2  2  0  0  0
  5  7  1  0  0  0
  2  3  1  0  0  0
  7  4  2  0  0  0
  3  6  2  0  0  0
  4  6  1  0  0  0
 31 32  1  0  0  0
 39 47  1  0  0  0
 15 16  1  0  0  0
 22 24  1  0  0  0
M  END
> <minimizedAffinity>
-8.16953

$$$$
6MA4_JA7_A_1101


 47 50  0  0  0  0  0  0  0  0999 V2000
   -2.6139  -42.6110   17.7944 C   0  0  0  0  0  0  0  0  0  0  0  0
   -2.4033  -41.4710   20.1768 C   0  0  0  0  0  0  0  0  0  0  0  0
   -2.8132  -41.4032   21.5197 C   0  0  0  0  0  0  0  0  0  0  0  0
   -4.4130  -43.2293   21.2179 C   0  0  0  0  0  0  0  0  0  0  0  0
   -3.0171  -42.4563   19.3024 C   0  0  0  0  0  0  0  0  0  0  0  0
   -3.8048  -42.2622   22.0411 C   0  0  0  0  0  0  0  0  0  0  0  0
   -4.0108  -43.3106   19.8610 C   0  0  0  0  0  0  0  0  0  0  0  0
   -1.4291  -40.6170   19.6602 O   0  0  0  0  0  0  0  0  0  0  0  0
   -1.5420  -39.1512   19.7454 C   0  0  0  0  0  0  0  0  0  0  0  0
   -2.4604  -38.4892   18.6175 C   0  0  0  0  0  0  0  0  0  0  0  0
   -2.5274  -36.9006   18.6274 C   0  0  0  0  0  0  0  0  0  0  0  0
   -1.6159  -36.2167   17.5752 C   0  0  0  0  0  0  0  0  0  0  0  0
   -0.1042  -35.9979   17.9934 C   0  0  0  0  0  0  0  0  0  0  0  0
    0.7390  -36.9446   17.8577 O   0  0  0  0  0  0  0  0  0  0  0  0
    0.2362  -34.8701   18.4582 O   0  0  0  0  0  0  0  0  0  0  0  0
   -0.4009  -34.1891   18.5490 H   0  0  0  0  0  0  0  0  0  0  0  0
   -3.2020  -41.4150   16.8271 C   0  0  0  0  0  0  0  0  0  0  0  0
   -2.4826  -40.7968   15.7886 N   0  0  0  0  0  0  0  0  0  0  0  0
   -4.3707  -41.1095   17.1312 O   0  0  0  0  0  0  0  0  0  0  0  0
   -3.1055  -39.7118   14.9513 C   0  0  0  0  0  0  0  0  0  0  0  0
   -4.1488  -40.1677   13.8441 C   0  0  0  0  0  0  0  0  0  0  0  0
   -4.9617  -41.0810   14.1818 O   0  0  0  0  0  0  0  0  0  0  0  0
   -4.1333  -39.6269   12.7056 O   0  0  0  0  0  0  0  0  0  0  0  0
   -4.9250  -41.4455   15.0443 H   0  0  0  0  0  0  0  0  0  0  0  0
   -1.0619  -41.1955   15.4334 C   0  0  0  0  0  0  0  0  0  0  0  0
   -0.8457  -42.1517   14.2031 C   0  0  0  0  0  0  0  0  0  0  0  0
    0.2461  -42.4028   13.3979 C   0  0  0  0  0  0  0  0  0  0  0  0
    0.0347  -43.4107   12.3178 C   0  0  0  0  0  0  0  0  0  0  0  0
   -1.2276  -43.9365   12.2995 C   0  0  0  0  0  0  0  0  0  0  0  0
   -2.1433  -43.1922   13.5879 S   0  0  0  0  0  0  0  0  0  0  0  0
   -2.8659  -44.0243   17.2438 N   0  0  0  0  0  0  0  0  0  0  0  0
   -3.7031  -44.3727   17.7109 H   0  0  0  0  0  0  0  0  0  0  0  0
   -1.6890  -45.2413   17.3893 S   0  0  0  0  0  0  0  0  0  0  0  0
   -1.9769  -46.1780   18.4199 O   0  0  0  0  0  0  0  0  0  0  0  0
   -0.3879  -44.6925   17.5413 O   0  0  0  0  0  0  0  0  0  0  0  0
   -1.7257  -46.1794   15.6605 C   0  0  0  0  0  0  0  0  0  0  0  0
   -0.6256  -48.9218    9.8678 O   0  0  0  0  0  0  0  0  0  0  0  0
   -0.5572  -48.3408   10.9622 C   0  0  0  0  0  0  0  0  0  0  0  0
   -1.7435  -48.1948   11.7405 N   0  0  0  0  0  0  0  0  0  0  0  0
    0.7099  -47.7854   11.4966 C   0  0  0  0  0  0  0  0  0  0  0  0
    0.7184  -47.1443   12.7262 C   0  0  0  0  0  0  0  0  0  0  0  0
   -0.5247  -46.9899   13.5533 C   0  0  0  0  0  0  0  0  0  0  0  0
   -1.7378  -47.5234   13.0362 C   0  0  0  0  0  0  0  0  0  0  0  0
   -2.9420  -47.3753   13.8416 C   0  0  0  0  0  0  0  0  0  0  0  0
   -2.9261  -46.7150   15.0988 C   0  0  0  0  0  0  0  0  0  0  0  0
   -0.5709  -46.3304   14.8535 C   0  0  0  0  0  0  0  0  0  0  0  0
   -2.5906  -48.5574   11.3936 H   0  0  0  0  0  0  0  0  0  0  0  0
 37 38  2  0  0  0
 38 40  1  0  0  0
 38 39  1  0  0  0
 40 41  2  0  0  0
 39 43  1  0  0  0
 41 42  1  0  0  0
 43 42  2  0  0  0
 43 44  1  0  0  0
 42 46  1  0  0  0
 44 45  2  0  0  0
 46 36  2  0  0  0
 29 28  2  0  0  0
 29 30  1  0  0  0
 14 13  2  0  0  0
 45 36  1  0  0  0
 36 33  1  0  0  0
 28 27  1  0  0  0
 30 26  1  0  0  0
 34 33  2  0  0  0
 13 15  1  0  0  0
 13 12  1  0  0  0
 35 33  2  0  0  0
 33 31  1  0  0  0
 27 26  2  0  0  0
 26 25  1  0  0  0
 12 11  1  0  0  0
 20 18  1  0  0  0
 20 21  1  0  0  0
 31  1  1  0  0  0
 19 17  2  0  0  0
 18 17  1  0  0  0
 18 25  1  0  0  0
 17  1  1  0  0  0
 11 10  1  0  0  0
 23 21  2  0  0  0
  1  5  1  0  0  0
 21 22  1  0  0  0
 10  9  1  0  0  0
  8  9  1  0  0  0
  8  2  1  0  0  0
  5  2  2  0  0  0
  5  7  1  0  0  0
  2  3  1  0  0  0
  7  4  2  0  0  0
  3  6  2  0  0  0
  4  6  1  0  0  0
 31 32  1  0  0  0
 39 47  1  0  0  0
 15 16  1  0  0  0
 22 24  1  0  0  0
M  END
> <minimizedAffinity>
-8.12605

$$$$
6MA4_JA7_A_1101


 47 50  0  0  0  0  0  0  0  0999 V2000
   -2.0049  -44.9392   15.0329 C   0  0  0  0  0  0  0  0  0  0  0  0
   -1.5421  -46.7268   13.1328 C   0  0  0  0  0  0  0  0  0  0  0  0
   -2.0370  -47.7086   12.2570 C   0  0  0  0  0  0  0  0  0  0  0  0
   -4.3220  -47.4228   13.0830 C   0  0  0  0  0  0  0  0  0  0  0  0
   -2.4660  -46.0545   14.0309 C   0  0  0  0  0  0  0  0  0  0  0  0
   -3.4037  -48.0612   12.2274 C   0  0  0  0  0  0  0  0  0  0  0  0
   -3.8388  -46.4303   13.9725 C   0  0  0  0  0  0  0  0  0  0  0  0
   -0.1906  -46.3842   13.1671 O   0  0  0  0  0  0  0  0  0  0  0  0
    0.5816  -46.1039   11.9450 C   0  0  0  0  0  0  0  0  0  0  0  0
    2.1673  -46.1790   12.1294 C   0  0  0  0  0  0  0  0  0  0  0  0
    2.6839  -46.2572   13.6311 C   0  0  0  0  0  0  0  0  0  0  0  0
    3.4919  -45.0166   14.0936 C   0  0  0  0  0  0  0  0  0  0  0  0
    2.6589  -43.6956   14.3566 C   0  0  0  0  0  0  0  0  0  0  0  0
    1.3895  -43.7517   14.4611 O   0  0  0  0  0  0  0  0  0  0  0  0
    3.2836  -42.5988   14.4602 O   0  0  0  0  0  0  0  0  0  0  0  0
    4.2170  -42.5818   14.3799 H   0  0  0  0  0  0  0  0  0  0  0  0
   -2.1207  -43.4139   14.4229 C   0  0  0  0  0  0  0  0  0  0  0  0
   -2.4832  -42.2774   15.1679 N   0  0  0  0  0  0  0  0  0  0  0  0
   -1.8558  -43.3832   13.2060 O   0  0  0  0  0  0  0  0  0  0  0  0
   -2.5589  -40.9186   14.5243 C   0  0  0  0  0  0  0  0  0  0  0  0
   -3.9256  -40.5358   13.8118 C   0  0  0  0  0  0  0  0  0  0  0  0
   -4.9670  -41.1131   14.2492 O   0  0  0  0  0  0  0  0  0  0  0  0
   -3.9295  -39.7016   12.8668 O   0  0  0  0  0  0  0  0  0  0  0  0
   -4.9016  -41.7253   14.9556 H   0  0  0  0  0  0  0  0  0  0  0  0
   -2.7920  -42.3422   16.6525 C   0  0  0  0  0  0  0  0  0  0  0  0
   -2.6951  -41.0133   17.4887 C   0  0  0  0  0  0  0  0  0  0  0  0
   -1.6357  -40.3643   18.0886 C   0  0  0  0  0  0  0  0  0  0  0  0
   -1.9727  -39.0949   18.7972 C   0  0  0  0  0  0  0  0  0  0  0  0
   -3.2996  -38.7693   18.7355 C   0  0  0  0  0  0  0  0  0  0  0  0
   -4.1212  -40.0147   17.8263 S   0  0  0  0  0  0  0  0  0  0  0  0
   -0.6443  -45.2373   15.6839 N   0  0  0  0  0  0  0  0  0  0  0  0
   -0.0657  -45.6683   14.9629 H   0  0  0  0  0  0  0  0  0  0  0  0
   -0.5316  -46.2349   17.0549 S   0  0  0  0  0  0  0  0  0  0  0  0
    0.7858  -46.3104   17.5853 O   0  0  0  0  0  0  0  0  0  0  0  0
   -1.0598  -47.5289   16.8025 O   0  0  0  0  0  0  0  0  0  0  0  0
   -1.6976  -45.3814   18.3897 C   0  0  0  0  0  0  0  0  0  0  0  0
   -6.4790  -43.2271   22.2346 O   0  0  0  0  0  0  0  0  0  0  0  0
   -5.7720  -43.8024   21.3925 C   0  0  0  0  0  0  0  0  0  0  0  0
   -4.3921  -43.4545   21.2976 N   0  0  0  0  0  0  0  0  0  0  0  0
   -6.3033  -44.8381   20.4735 C   0  0  0  0  0  0  0  0  0  0  0  0
   -5.4605  -45.4417   19.5523 C   0  0  0  0  0  0  0  0  0  0  0  0
   -4.0063  -45.0842   19.4485 C   0  0  0  0  0  0  0  0  0  0  0  0
   -3.5016  -44.0896   20.3315 C   0  0  0  0  0  0  0  0  0  0  0  0
   -2.0898  -43.7465   20.2313 C   0  0  0  0  0  0  0  0  0  0  0  0
   -1.2334  -44.3670   19.2834 C   0  0  0  0  0  0  0  0  0  0  0  0
   -3.0757  -45.6906   18.5032 C   0  0  0  0  0  0  0  0  0  0  0  0
   -4.0299  -42.7661   21.9011 H   0  0  0  0  0  0  0  0  0  0  0  0
 37 38  2  0  0  0
 38 40  1  0  0  0
 38 39  1  0  0  0
 40 41  2  0  0  0
 39 43  1  0  0  0
 41 42  1  0  0  0
 43 42  2  0  0  0
 43 44  1  0  0  0
 42 46  1  0  0  0
 44 45  2  0  0  0
 46 36  2  0  0  0
 29 28  2  0  0  0
 29 30  1  0  0  0
 14 13  2  0  0  0
 45 36  1  0  0  0
 36 33  1  0  0  0
 28 27  1  0  0  0
 30 26  1  0  0  0
 34 33  2  0  0  0
 13 15  1  0  0  0
 13 12  1  0  0  0
 35 33  2  0  0  0
 33 31  1  0  0  0
 27 26  2  0  0  0
 26 25  1  0  0  0
 12 11  1  0  0  0
 20 18  1  0  0  0
 20 21  1  0  0  0
 31  1  1  0  0  0
 19 17  2  0  0  0
 18 17  1  0  0  0
 18 25  1  0  0  0
 17  1  1  0  0  0
 11 10  1  0  0  0
 23 21  2  0  0  0
  1  5  1  0  0  0
 21 22  1  0  0  0
 10  9  1  0  0  0
  8  9  1  0  0  0
  8  2  1  0  0  0
  5  2  2  0  0  0
  5  7  1  0  0  0
  2  3  1  0  0  0
  7  4  2  0  0  0
  3  6  2  0  0  0
  4  6  1  0  0  0
 31 32  1  0  0  0
 39 47  1  0  0  0
 15 16  1  0  0  0
 22 24  1  0  0  0
M  END
> <minimizedAffinity>
-8.02653

$$$$
6MA4_JA7_A_1101


 47 50  0  0  0  0  0  0  0  0999 V2000
   -1.6278  -42.6738   15.4825 C   0  0  0  0  0  0  0  0  0  0  0  0
   -1.7263  -45.0836   16.5792 C   0  0  0  0  0  0  0  0  0  0  0  0
   -2.1449  -45.9087   17.6374 C   0  0  0  0  0  0  0  0  0  0  0  0
   -3.1883  -44.0312   18.8084 C   0  0  0  0  0  0  0  0  0  0  0  0
   -2.0444  -43.6663   16.6235 C   0  0  0  0  0  0  0  0  0  0  0  0
   -2.8623  -45.3994   18.7416 C   0  0  0  0  0  0  0  0  0  0  0  0
   -2.7732  -43.1855   17.7491 C   0  0  0  0  0  0  0  0  0  0  0  0
   -1.0110  -45.5859   15.4923 O   0  0  0  0  0  0  0  0  0  0  0  0
   -0.4141  -46.9321   15.4972 C   0  0  0  0  0  0  0  0  0  0  0  0
   -1.0613  -47.9493   14.4481 C   0  0  0  0  0  0  0  0  0  0  0  0
   -2.6382  -47.8476   14.2718 C   0  0  0  0  0  0  0  0  0  0  0  0
   -3.0940  -47.3659   12.8698 C   0  0  0  0  0  0  0  0  0  0  0  0
   -3.2966  -45.8048   12.6964 C   0  0  0  0  0  0  0  0  0  0  0  0
   -2.3399  -45.0812   12.2641 O   0  0  0  0  0  0  0  0  0  0  0  0
   -4.4217  -45.3054   12.9941 O   0  0  0  0  0  0  0  0  0  0  0  0
   -5.1102  -45.8569   13.3100 H   0  0  0  0  0  0  0  0  0  0  0  0
   -2.7453  -41.5011   15.1861 C   0  0  0  0  0  0  0  0  0  0  0  0
   -2.6444  -40.1680   15.6230 N   0  0  0  0  0  0  0  0  0  0  0  0
   -3.7090  -41.9387   14.5290 O   0  0  0  0  0  0  0  0  0  0  0  0
   -3.7163  -39.1616   15.2998 C   0  0  0  0  0  0  0  0  0  0  0  0
   -5.0250  -39.1915   16.1990 C   0  0  0  0  0  0  0  0  0  0  0  0
   -5.3674  -40.3253   16.6535 O   0  0  0  0  0  0  0  0  0  0  0  0
   -5.6589  -38.1250   16.4217 O   0  0  0  0  0  0  0  0  0  0  0  0
   -4.8555  -41.0842   16.4536 H   0  0  0  0  0  0  0  0  0  0  0  0
   -1.4538  -39.6593   16.4148 C   0  0  0  0  0  0  0  0  0  0  0  0
   -1.6294  -39.4468   17.9637 C   0  0  0  0  0  0  0  0  0  0  0  0
   -1.3080  -40.2281   19.0543 C   0  0  0  0  0  0  0  0  0  0  0  0
   -1.6417  -39.6461   20.3874 C   0  0  0  0  0  0  0  0  0  0  0  0
   -2.2196  -38.4088   20.3151 C   0  0  0  0  0  0  0  0  0  0  0  0
   -2.3589  -37.9736   18.6288 S   0  0  0  0  0  0  0  0  0  0  0  0
   -1.1353  -43.3864   14.2122 N   0  0  0  0  0  0  0  0  0  0  0  0
   -0.9847  -44.3625   14.4668 H   0  0  0  0  0  0  0  0  0  0  0  0
    0.2731  -42.8725   13.4124 S   0  0  0  0  0  0  0  0  0  0  0  0
    0.9354  -41.8035   14.0766 O   0  0  0  0  0  0  0  0  0  0  0  0
    0.0131  -42.5517   12.0535 O   0  0  0  0  0  0  0  0  0  0  0  0
    1.4543  -44.4455   13.4226 C   0  0  0  0  0  0  0  0  0  0  0  0
    6.0902  -48.9351   14.2222 O   0  0  0  0  0  0  0  0  0  0  0  0
    5.3598  -47.9324   14.2588 C   0  0  0  0  0  0  0  0  0  0  0  0
    4.1938  -47.8986   13.4381 N   0  0  0  0  0  0  0  0  0  0  0  0
    5.6505  -46.7607   15.1202 C   0  0  0  0  0  0  0  0  0  0  0  0
    4.7950  -45.6693   15.1129 C   0  0  0  0  0  0  0  0  0  0  0  0
    3.5638  -45.6272   14.2552 C   0  0  0  0  0  0  0  0  0  0  0  0
    3.2897  -46.7531   13.4300 C   0  0  0  0  0  0  0  0  0  0  0  0
    2.0931  -46.7116   12.6011 C   0  0  0  0  0  0  0  0  0  0  0  0
    1.2231  -45.5892   12.5968 C   0  0  0  0  0  0  0  0  0  0  0  0
    2.6286  -44.5087   14.2131 C   0  0  0  0  0  0  0  0  0  0  0  0
    3.9932  -48.6702   12.8605 H   0  0  0  0  0  0  0  0  0  0  0  0
 37 38  2  0  0  0
 38 40  1  0  0  0
 38 39  1  0  0  0
 40 41  2  0  0  0
 39 43  1  0  0  0
 41 42  1  0  0  0
 43 42  2  0  0  0
 43 44  1  0  0  0
 42 46  1  0  0  0
 44 45  2  0  0  0
 46 36  2  0  0  0
 29 28  2  0  0  0
 29 30  1  0  0  0
 14 13  2  0  0  0
 45 36  1  0  0  0
 36 33  1  0  0  0
 28 27  1  0  0  0
 30 26  1  0  0  0
 34 33  2  0  0  0
 13 15  1  0  0  0
 13 12  1  0  0  0
 35 33  2  0  0  0
 33 31  1  0  0  0
 27 26  2  0  0  0
 26 25  1  0  0  0
 12 11  1  0  0  0
 20 18  1  0  0  0
 20 21  1  0  0  0
 31  1  1  0  0  0
 19 17  2  0  0  0
 18 17  1  0  0  0
 18 25  1  0  0  0
 17  1  1  0  0  0
 11 10  1  0  0  0
 23 21  2  0  0  0
  1  5  1  0  0  0
 21 22  1  0  0  0
 10  9  1  0  0  0
  8  9  1  0  0  0
  8  2  1  0  0  0
  5  2  2  0  0  0
  5  7  1  0  0  0
  2  3  1  0  0  0
  7  4  2  0  0  0
  3  6  2  0  0  0
  4  6  1  0  0  0
 31 32  1  0  0  0
 39 47  1  0  0  0
 15 16  1  0  0  0
 22 24  1  0  0  0
M  END
> <minimizedAffinity>
-7.93225

$$$$
6MA4_JA7_A_1101


 47 50  0  0  0  0  0  0  0  0999 V2000
   -1.2729  -43.9753   13.8977 C   0  0  0  0  0  0  0  0  0  0  0  0
   -1.2905  -46.0905   15.4930 C   0  0  0  0  0  0  0  0  0  0  0  0
   -1.4896  -47.4721   15.6587 C   0  0  0  0  0  0  0  0  0  0  0  0
   -2.0636  -47.7641   13.2985 C   0  0  0  0  0  0  0  0  0  0  0  0
   -1.4838  -45.5043   14.1773 C   0  0  0  0  0  0  0  0  0  0  0  0
   -1.8740  -48.3044   14.5850 C   0  0  0  0  0  0  0  0  0  0  0  0
   -1.8669  -46.3723   13.1148 C   0  0  0  0  0  0  0  0  0  0  0  0
   -0.9183  -45.2675   16.5557 O   0  0  0  0  0  0  0  0  0  0  0  0
   -1.8626  -44.8744   17.6151 C   0  0  0  0  0  0  0  0  0  0  0  0
   -2.4157  -46.0880   18.4956 C   0  0  0  0  0  0  0  0  0  0  0  0
   -3.2753  -45.6801   19.7695 C   0  0  0  0  0  0  0  0  0  0  0  0
   -4.7127  -45.1981   19.4420 C   0  0  0  0  0  0  0  0  0  0  0  0
   -5.1979  -43.8854   20.1831 C   0  0  0  0  0  0  0  0  0  0  0  0
   -5.0727  -43.7831   21.4478 O   0  0  0  0  0  0  0  0  0  0  0  0
   -5.7049  -42.9538   19.4909 O   0  0  0  0  0  0  0  0  0  0  0  0
   -5.7869  -43.0513   18.5626 H   0  0  0  0  0  0  0  0  0  0  0  0
   -2.6547  -43.0864   14.0095 C   0  0  0  0  0  0  0  0  0  0  0  0
   -2.7496  -41.8255   14.6254 N   0  0  0  0  0  0  0  0  0  0  0  0
   -3.6223  -43.6715   13.4869 O   0  0  0  0  0  0  0  0  0  0  0  0
   -4.0580  -41.0826   14.6762 C   0  0  0  0  0  0  0  0  0  0  0  0
   -4.6409  -40.5580   13.2952 C   0  0  0  0  0  0  0  0  0  0  0  0
   -5.6142  -41.2128   12.8123 O   0  0  0  0  0  0  0  0  0  0  0  0
   -4.1333  -39.5449   12.7431 O   0  0  0  0  0  0  0  0  0  0  0  0
   -5.9495  -41.9591   13.2692 H   0  0  0  0  0  0  0  0  0  0  0  0
   -1.5516  -41.1311   15.2466 C   0  0  0  0  0  0  0  0  0  0  0  0
   -1.7381  -40.4436   16.6493 C   0  0  0  0  0  0  0  0  0  0  0  0
   -1.7561  -40.9404   17.9362 C   0  0  0  0  0  0  0  0  0  0  0  0
   -1.9574  -39.9306   19.0164 C   0  0  0  0  0  0  0  0  0  0  0  0
   -2.0908  -38.6513   18.5515 C   0  0  0  0  0  0  0  0  0  0  0  0
   -1.9801  -38.6940   16.8084 S   0  0  0  0  0  0  0  0  0  0  0  0
   -0.4696  -43.7009   12.6157 N   0  0  0  0  0  0  0  0  0  0  0  0
   -0.5083  -44.5557   12.0604 H   0  0  0  0  0  0  0  0  0  0  0  0
    1.1660  -43.2463   12.6901 S   0  0  0  0  0  0  0  0  0  0  0  0
    1.4400  -42.3093   13.7242 O   0  0  0  0  0  0  0  0  0  0  0  0
    1.6341  -42.7777   11.4337 O   0  0  0  0  0  0  0  0  0  0  0  0
    2.1299  -44.9153   13.0838 C   0  0  0  0  0  0  0  0  0  0  0  0
    6.1774  -49.6607   14.9238 O   0  0  0  0  0  0  0  0  0  0  0  0
    5.5878  -48.5891   14.7140 C   0  0  0  0  0  0  0  0  0  0  0  0
    4.3908  -48.6013   13.9385 N   0  0  0  0  0  0  0  0  0  0  0  0
    6.0784  -47.2896   15.2338 C   0  0  0  0  0  0  0  0  0  0  0  0
    5.3739  -46.1267   14.9611 C   0  0  0  0  0  0  0  0  0  0  0  0
    4.1114  -46.1313   14.1492 C   0  0  0  0  0  0  0  0  0  0  0  0
    3.6453  -47.3799   13.6520 C   0  0  0  0  0  0  0  0  0  0  0  0
    2.4185  -47.3826   12.8673 C   0  0  0  0  0  0  0  0  0  0  0  0
    1.7039  -46.1871   12.5897 C   0  0  0  0  0  0  0  0  0  0  0  0
    3.3295  -44.9400   13.8377 C   0  0  0  0  0  0  0  0  0  0  0  0
    4.0580  -49.4583   13.5863 H   0  0  0  0  0  0  0  0  0  0  0  0
 37 38  2  0  0  0
 38 40  1  0  0  0
 38 39  1  0  0  0
 40 41  2  0  0  0
 39 43  1  0  0  0
 41 42  1  0  0  0
 43 42  2  0  0  0
 43 44  1  0  0  0
 42 46  1  0  0  0
 44 45  2  0  0  0
 46 36  2  0  0  0
 29 28  2  0  0  0
 29 30  1  0  0  0
 14 13  2  0  0  0
 45 36  1  0  0  0
 36 33  1  0  0  0
 28 27  1  0  0  0
 30 26  1  0  0  0
 34 33  2  0  0  0
 13 15  1  0  0  0
 13 12  1  0  0  0
 35 33  2  0  0  0
 33 31  1  0  0  0
 27 26  2  0  0  0
 26 25  1  0  0  0
 12 11  1  0  0  0
 20 18  1  0  0  0
 20 21  1  0  0  0
 31  1  1  0  0  0
 19 17  2  0  0  0
 18 17  1  0  0  0
 18 25  1  0  0  0
 17  1  1  0  0  0
 11 10  1  0  0  0
 23 21  2  0  0  0
  1  5  1  0  0  0
 21 22  1  0  0  0
 10  9  1  0  0  0
  8  9  1  0  0  0
  8  2  1  0  0  0
  5  2  2  0  0  0
  5  7  1  0  0  0
  2  3  1  0  0  0
  7  4  2  0  0  0
  3  6  2  0  0  0
  4  6  1  0  0  0
 31 32  1  0  0  0
 39 47  1  0  0  0
 15 16  1  0  0  0
 22 24  1  0  0  0
M  END
> <minimizedAffinity>
-7.88102

$$$$
6MA4_JA7_A_1101


 47 50  0  0  0  0  0  0  0  0999 V2000
   -2.1119  -42.3412   17.5869 C   0  0  0  0  0  0  0  0  0  0  0  0
   -0.3293  -44.2792   17.8803 C   0  0  0  0  0  0  0  0  0  0  0  0
    0.3560  -45.1666   18.7281 C   0  0  0  0  0  0  0  0  0  0  0  0
   -0.7956  -44.3072   20.7080 C   0  0  0  0  0  0  0  0  0  0  0  0
   -1.2935  -43.3576   18.4574 C   0  0  0  0  0  0  0  0  0  0  0  0
    0.1362  -45.1857   20.1226 C   0  0  0  0  0  0  0  0  0  0  0  0
   -1.4951  -43.4058   19.8667 C   0  0  0  0  0  0  0  0  0  0  0  0
   -0.1061  -44.2554   16.5038 O   0  0  0  0  0  0  0  0  0  0  0  0
    0.9231  -45.0881   15.8588 C   0  0  0  0  0  0  0  0  0  0  0  0
    2.1000  -44.2649   15.1578 C   0  0  0  0  0  0  0  0  0  0  0  0
    3.4618  -45.0568   14.9418 C   0  0  0  0  0  0  0  0  0  0  0  0
    3.5202  -45.8796   13.6283 C   0  0  0  0  0  0  0  0  0  0  0  0
    3.0790  -47.3971   13.7314 C   0  0  0  0  0  0  0  0  0  0  0  0
    3.7156  -48.1965   14.4938 O   0  0  0  0  0  0  0  0  0  0  0  0
    2.0882  -47.7855   13.0447 O   0  0  0  0  0  0  0  0  0  0  0  0
    1.6355  -47.1799   12.4912 H   0  0  0  0  0  0  0  0  0  0  0  0
   -3.1619  -41.4199   18.4591 C   0  0  0  0  0  0  0  0  0  0  0  0
   -2.8950  -40.1181   18.9198 N   0  0  0  0  0  0  0  0  0  0  0  0
   -4.2316  -42.0205   18.6753 O   0  0  0  0  0  0  0  0  0  0  0  0
   -3.9202  -39.3481   19.7088 C   0  0  0  0  0  0  0  0  0  0  0  0
   -3.4150  -38.6208   21.0271 C   0  0  0  0  0  0  0  0  0  0  0  0
   -3.7546  -37.4060   21.1626 O   0  0  0  0  0  0  0  0  0  0  0  0
   -2.7162  -39.2523   21.8647 O   0  0  0  0  0  0  0  0  0  0  0  0
   -4.2761  -36.9892   20.5051 H   0  0  0  0  0  0  0  0  0  0  0  0
   -1.5855  -39.4062   18.6337 C   0  0  0  0  0  0  0  0  0  0  0  0
   -1.6395  -38.0359   17.8629 C   0  0  0  0  0  0  0  0  0  0  0  0
   -2.1315  -37.6820   16.6235 C   0  0  0  0  0  0  0  0  0  0  0  0
   -1.9915  -36.2415   16.2596 C   0  0  0  0  0  0  0  0  0  0  0  0
   -1.3907  -35.4878   17.2298 C   0  0  0  0  0  0  0  0  0  0  0  0
   -0.9951  -36.5410   18.5665 S   0  0  0  0  0  0  0  0  0  0  0  0
   -2.7481  -42.9855   16.3443 N   0  0  0  0  0  0  0  0  0  0  0  0
   -2.3204  -43.9060   16.2435 H   0  0  0  0  0  0  0  0  0  0  0  0
   -2.6466  -42.2359   14.8227 S   0  0  0  0  0  0  0  0  0  0  0  0
   -1.8215  -41.0777   14.8232 O   0  0  0  0  0  0  0  0  0  0  0  0
   -3.9342  -41.9503   14.2957 O   0  0  0  0  0  0  0  0  0  0  0  0
   -1.8274  -43.5896   13.6538 C   0  0  0  0  0  0  0  0  0  0  0  0
   -0.0390  -48.8257   10.2375 O   0  0  0  0  0  0  0  0  0  0  0  0
   -0.5971  -47.9927   10.9687 C   0  0  0  0  0  0  0  0  0  0  0  0
   -0.0074  -46.7028   11.1192 N   0  0  0  0  0  0  0  0  0  0  0  0
   -1.8545  -48.2832   11.6995 C   0  0  0  0  0  0  0  0  0  0  0  0
   -2.4265  -47.3089   12.5036 C   0  0  0  0  0  0  0  0  0  0  0  0
   -1.8145  -45.9476   12.6643 C   0  0  0  0  0  0  0  0  0  0  0  0
   -0.6081  -45.6741   11.9621 C   0  0  0  0  0  0  0  0  0  0  0  0
   -0.0177  -44.3519   12.1169 C   0  0  0  0  0  0  0  0  0  0  0  0
   -0.6078  -43.3600   12.9444 C   0  0  0  0  0  0  0  0  0  0  0  0
   -2.3763  -44.8858   13.4917 C   0  0  0  0  0  0  0  0  0  0  0  0
    0.8289  -46.5007   10.6406 H   0  0  0  0  0  0  0  0  0  0  0  0
 37 38  2  0  0  0
 38 40  1  0  0  0
 38 39  1  0  0  0
 40 41  2  0  0  0
 39 43  1  0  0  0
 41 42  1  0  0  0
 43 42  2  0  0  0
 43 44  1  0  0  0
 42 46  1  0  0  0
 44 45  2  0  0  0
 46 36  2  0  0  0
 29 28  2  0  0  0
 29 30  1  0  0  0
 14 13  2  0  0  0
 45 36  1  0  0  0
 36 33  1  0  0  0
 28 27  1  0  0  0
 30 26  1  0  0  0
 34 33  2  0  0  0
 13 15  1  0  0  0
 13 12  1  0  0  0
 35 33  2  0  0  0
 33 31  1  0  0  0
 27 26  2  0  0  0
 26 25  1  0  0  0
 12 11  1  0  0  0
 20 18  1  0  0  0
 20 21  1  0  0  0
 31  1  1  0  0  0
 19 17  2  0  0  0
 18 17  1  0  0  0
 18 25  1  0  0  0
 17  1  1  0  0  0
 11 10  1  0  0  0
 23 21  2  0  0  0
  1  5  1  0  0  0
 21 22  1  0  0  0
 10  9  1  0  0  0
  8  9  1  0  0  0
  8  2  1  0  0  0
  5  2  2  0  0  0
  5  7  1  0  0  0
  2  3  1  0  0  0
  7  4  2  0  0  0
  3  6  2  0  0  0
  4  6  1  0  0  0
 31 32  1  0  0  0
 39 47  1  0  0  0
 15 16  1  0  0  0
 22 24  1  0  0  0
M  END
> <minimizedAffinity>
-7.81753

$$$$
6MA4_JA7_A_1101


 47 50  0  0  0  0  0  0  0  0999 V2000
   -2.9647  -40.8774   17.8460 C   0  0  0  0  0  0  0  0  0  0  0  0
   -3.4513  -38.6948   19.2669 C   0  0  0  0  0  0  0  0  0  0  0  0
   -3.1630  -37.8999   20.3898 C   0  0  0  0  0  0  0  0  0  0  0  0
   -1.4546  -39.4662   21.1728 C   0  0  0  0  0  0  0  0  0  0  0  0
   -2.7176  -39.9345   19.0750 C   0  0  0  0  0  0  0  0  0  0  0  0
   -2.1840  -38.2729   21.3363 C   0  0  0  0  0  0  0  0  0  0  0  0
   -1.7336  -40.2793   20.0456 C   0  0  0  0  0  0  0  0  0  0  0  0
   -4.4239  -38.3297   18.3363 O   0  0  0  0  0  0  0  0  0  0  0  0
   -4.1547  -37.3709   17.2514 C   0  0  0  0  0  0  0  0  0  0  0  0
   -3.6612  -35.9327   17.7434 C   0  0  0  0  0  0  0  0  0  0  0  0
   -2.2526  -35.4570   17.1798 C   0  0  0  0  0  0  0  0  0  0  0  0
   -1.0492  -35.8018   18.0956 C   0  0  0  0  0  0  0  0  0  0  0  0
   -0.3685  -37.2118   17.8577 C   0  0  0  0  0  0  0  0  0  0  0  0
   -0.6976  -37.9172   16.8479 O   0  0  0  0  0  0  0  0  0  0  0  0
    0.5010  -37.6100   18.6880 O   0  0  0  0  0  0  0  0  0  0  0  0
    0.7270  -37.0744   19.4229 H   0  0  0  0  0  0  0  0  0  0  0  0
   -2.4581  -42.4255   18.0885 C   0  0  0  0  0  0  0  0  0  0  0  0
   -3.1077  -43.3622   18.9123 N   0  0  0  0  0  0  0  0  0  0  0  0
   -1.4131  -42.6724   17.4570 O   0  0  0  0  0  0  0  0  0  0  0  0
   -2.5723  -44.7603   19.0706 C   0  0  0  0  0  0  0  0  0  0  0  0
   -1.0238  -44.9049   19.3925 C   0  0  0  0  0  0  0  0  0  0  0  0
   -0.2945  -45.3459   18.4530 O   0  0  0  0  0  0  0  0  0  0  0  0
   -0.5868  -44.5894   20.5320 O   0  0  0  0  0  0  0  0  0  0  0  0
   -0.6770  -45.5640   17.6259 H   0  0  0  0  0  0  0  0  0  0  0  0
   -4.3857  -43.0370   19.6636 C   0  0  0  0  0  0  0  0  0  0  0  0
   -4.2620  -42.3723   21.0841 C   0  0  0  0  0  0  0  0  0  0  0  0
   -4.8857  -41.2863   21.6629 C   0  0  0  0  0  0  0  0  0  0  0  0
   -4.4824  -40.9816   23.0670 C   0  0  0  0  0  0  0  0  0  0  0  0
   -3.5456  -41.8437   23.5665 C   0  0  0  0  0  0  0  0  0  0  0  0
   -3.1601  -43.0062   22.3205 S   0  0  0  0  0  0  0  0  0  0  0  0
   -2.4814  -40.2756   16.5162 N   0  0  0  0  0  0  0  0  0  0  0  0
   -2.3961  -39.2703   16.6666 H   0  0  0  0  0  0  0  0  0  0  0  0
   -3.3806  -40.4763   15.0885 S   0  0  0  0  0  0  0  0  0  0  0  0
   -3.2806  -39.3675   14.2035 O   0  0  0  0  0  0  0  0  0  0  0  0
   -4.7372  -40.7918   15.3670 O   0  0  0  0  0  0  0  0  0  0  0  0
   -2.5854  -42.0497   14.2156 C   0  0  0  0  0  0  0  0  0  0  0  0
   -1.0445  -47.8281   11.6618 O   0  0  0  0  0  0  0  0  0  0  0  0
   -1.5884  -46.8514   12.2005 C   0  0  0  0  0  0  0  0  0  0  0  0
   -0.8457  -45.6425   12.3464 N   0  0  0  0  0  0  0  0  0  0  0  0
   -2.9825  -46.8882   12.7052 C   0  0  0  0  0  0  0  0  0  0  0  0
   -3.5312  -45.7622   13.3003 C   0  0  0  0  0  0  0  0  0  0  0  0
   -2.7578  -44.4849   13.4542 C   0  0  0  0  0  0  0  0  0  0  0  0
   -1.4208  -44.4548   12.9695 C   0  0  0  0  0  0  0  0  0  0  0  0
   -0.6734  -43.2137   13.1168 C   0  0  0  0  0  0  0  0  0  0  0  0
   -1.2411  -42.0654   13.7301 C   0  0  0  0  0  0  0  0  0  0  0  0
   -3.2874  -43.2715   14.0665 C   0  0  0  0  0  0  0  0  0  0  0  0
    0.0815  -45.6084   12.0172 H   0  0  0  0  0  0  0  0  0  0  0  0
 37 38  2  0  0  0
 38 40  1  0  0  0
 38 39  1  0  0  0
 40 41  2  0  0  0
 39 43  1  0  0  0
 41 42  1  0  0  0
 43 42  2  0  0  0
 43 44  1  0  0  0
 42 46  1  0  0  0
 44 45  2  0  0  0
 46 36  2  0  0  0
 29 28  2  0  0  0
 29 30  1  0  0  0
 14 13  2  0  0  0
 45 36  1  0  0  0
 36 33  1  0  0  0
 28 27  1  0  0  0
 30 26  1  0  0  0
 34 33  2  0  0  0
 13 15  1  0  0  0
 13 12  1  0  0  0
 35 33  2  0  0  0
 33 31  1  0  0  0
 27 26  2  0  0  0
 26 25  1  0  0  0
 12 11  1  0  0  0
 20 18  1  0  0  0
 20 21  1  0  0  0
 31  1  1  0  0  0
 19 17  2  0  0  0
 18 17  1  0  0  0
 18 25  1  0  0  0
 17  1  1  0  0  0
 11 10  1  0  0  0
 23 21  2  0  0  0
  1  5  1  0  0  0
 21 22  1  0  0  0
 10  9  1  0  0  0
  8  9  1  0  0  0
  8  2  1  0  0  0
  5  2  2  0  0  0
  5  7  1  0  0  0
  2  3  1  0  0  0
  7  4  2  0  0  0
  3  6  2  0  0  0
  4  6  1  0  0  0
 31 32  1  0  0  0
 39 47  1  0  0  0
 15 16  1  0  0  0
 22 24  1  0  0  0
M  END
> <minimizedAffinity>
-7.75639

$$$$
