3TMK_T5A_A_217


 66 70  0  0  0  0  0  0  0  0999 V2000
    0.9857   -1.8926  150.6080 P   0  0  0  0  0  0  0  0  0  0  0  0
    1.7873   -3.0114  151.1179 O   0  0  0  0  0  0  0  0  0  0  0  0
    1.5028   -0.4897  150.6088 O   0  0  0  0  0  0  0  0  0  0  0  0
    2.3446   -0.4551  150.1280 H   0  0  0  0  0  0  0  0  0  0  0  0
    0.1148   -2.3268  149.3917 O   0  0  0  0  0  0  0  0  0  0  0  0
    0.2081   -3.1613  148.0844 P   0  0  0  0  0  0  0  0  0  0  0  0
    1.6358   -3.4295  147.7860 O   0  0  0  0  0  0  0  0  0  0  0  0
   -0.7185   -4.3339  148.1482 O   0  0  0  0  0  0  0  0  0  0  0  0
   -0.6500   -4.8452  147.3268 H   0  0  0  0  0  0  0  0  0  0  0  0
   -0.4842   -2.2520  146.8966 O   0  0  0  0  0  0  0  0  0  0  0  0
   -0.9018   -2.5421  145.4015 P   0  0  0  0  0  0  0  0  0  0  0  0
   -1.5653   -3.8859  145.3387 O   0  0  0  0  0  0  0  0  0  0  0  0
   -1.7128   -1.3903  144.9145 O   0  0  0  0  0  0  0  0  0  0  0  0
   -1.8265   -4.0751  144.4239 H   0  0  0  0  0  0  0  0  0  0  0  0
    0.5398   -2.4672  144.7194 O   0  0  0  0  0  0  0  0  0  0  0  0
    0.8870   -1.4730  143.7622 C   0  0  0  0  0  0  0  0  0  0  0  0
    1.2100   -2.1272  142.4766 C   0  0  0  0  0  0  0  0  0  0  0  0
    2.2101   -1.2750  141.8970 O   0  0  0  0  0  0  0  0  0  0  0  0
    2.8752   -2.1957  141.0153 C   0  0  0  0  0  0  0  0  0  0  0  0
    3.1639   -3.3706  141.9931 C   0  0  0  0  0  0  0  0  0  0  0  0
    1.8578   -3.4771  142.7386 C   0  0  0  0  0  0  0  0  0  0  0  0
    1.1796   -4.5515  142.1676 O   0  0  0  0  0  0  0  0  0  0  0  0
    1.1174   -4.4216  141.2084 H   0  0  0  0  0  0  0  0  0  0  0  0
    4.0674   -1.5574  140.4665 N   0  0  0  0  0  0  0  0  0  0  0  0
    4.4776   -0.3345  140.9260 C   0  0  0  0  0  0  0  0  0  0  0  0
    4.6905   -2.1890  139.3789 C   0  0  0  0  0  0  0  0  0  0  0  0
    4.3942   -3.3059  138.9766 O   0  0  0  0  0  0  0  0  0  0  0  0
    5.6756   -1.4789  138.7723 N   0  0  0  0  0  0  0  0  0  0  0  0
    6.0826   -0.1934  139.0606 C   0  0  0  0  0  0  0  0  0  0  0  0
    6.9136    0.3824  138.3260 O   0  0  0  0  0  0  0  0  0  0  0  0
    5.4443    0.3615  140.2989 C   0  0  0  0  0  0  0  0  0  0  0  0
    5.8495    1.7349  140.8298 C   0  0  0  0  0  0  0  0  0  0  0  0
    6.1545   -1.9340  138.0425 H   0  0  0  0  0  0  0  0  0  0  0  0
   -0.4528   -1.8112  151.4597 O   0  0  0  0  0  0  0  0  0  0  0  0
   -0.9959   -1.0821  152.7414 P   0  0  0  0  0  0  0  0  0  0  0  0
   -2.4346   -0.6799  152.5822 O   0  0  0  0  0  0  0  0  0  0  0  0
    0.0364   -0.1350  153.1108 O   0  0  0  0  0  0  0  0  0  0  0  0
   -2.4992    0.0408  151.9362 H   0  0  0  0  0  0  0  0  0  0  0  0
   -1.0584   -2.3198  153.8756 O   0  0  0  0  0  0  0  0  0  0  0  0
   -1.9275   -2.6032  155.1816 P   0  0  0  0  0  0  0  0  0  0  0  0
   -2.7541   -1.3867  155.4151 O   0  0  0  0  0  0  0  0  0  0  0  0
   -2.7247   -3.8477  155.0815 O   0  0  0  0  0  0  0  0  0  0  0  0
   -3.4726   -1.3542  154.7643 H   0  0  0  0  0  0  0  0  0  0  0  0
   -0.7049   -2.7680  156.1977 O   0  0  0  0  0  0  0  0  0  0  0  0
   -0.3706   -3.7542  157.1056 C   0  0  0  0  0  0  0  0  0  0  0  0
    0.4980   -3.1527  158.2313 C   0  0  0  0  0  0  0  0  0  0  0  0
    0.2207   -3.6814  159.5233 O   0  0  0  0  0  0  0  0  0  0  0  0
    1.4084   -4.3113  160.0370 C   0  0  0  0  0  0  0  0  0  0  0  0
    2.3309   -4.5042  158.7890 C   0  0  0  0  0  0  0  0  0  0  0  0
    3.7702   -4.5619  159.0270 O   0  0  0  0  0  0  0  0  0  0  0  0
    1.9945   -3.2859  157.9740 C   0  0  0  0  0  0  0  0  0  0  0  0
    2.5561   -2.1515  158.6662 O   0  0  0  0  0  0  0  0  0  0  0  0
    4.0632   -3.7343  159.4394 H   0  0  0  0  0  0  0  0  0  0  0  0
    2.2420   -2.1447  159.5839 H   0  0  0  0  0  0  0  0  0  0  0  0
    1.0625   -5.6239  160.7742 N   0  0  0  0  0  0  0  0  0  0  0  0
    1.4669   -6.9115  160.4911 C   0  0  0  0  0  0  0  0  0  0  0  0
    2.2862   -7.3157  159.4775 N   0  0  0  0  0  0  0  0  0  0  0  0
    2.4862   -8.6503  159.5420 C   0  0  0  0  0  0  0  0  0  0  0  0
    1.9455   -9.5363  160.4091 N   0  0  0  0  0  0  0  0  0  0  0  0
    1.0085   -9.1220  161.2989 C   0  0  0  0  0  0  0  0  0  0  0  0
    0.3338   -9.9831  162.0868 N   0  0  0  0  0  0  0  0  0  0  0  0
    0.8100   -7.7320  161.3770 C   0  0  0  0  0  0  0  0  0  0  0  0
    0.0195   -6.9987  162.2190 N   0  0  0  0  0  0  0  0  0  0  0  0
    0.2490   -5.7618  161.8572 C   0  0  0  0  0  0  0  0  0  0  0  0
    0.4946  -10.9512  162.0087 H   0  0  0  0  0  0  0  0  0  0  0  0
   -0.3197   -9.6437  162.7402 H   0  0  0  0  0  0  0  0  0  0  0  0
 24 25  1  0  0  0
 24 26  1  0  0  0
 24 19  1  0  0  0
 25 31  2  0  0  0
 26 27  2  0  0  0
 26 28  1  0  0  0
 28 29  1  0  0  0
 29 30  2  0  0  0
 29 31  1  0  0  0
 31 32  1  0  0  0
 16 17  1  0  0  0
 16 15  1  0  0  0
 17 18  1  0  0  0
 17 21  1  0  0  0
 18 19  1  0  0  0
 19 20  1  0  0  0
 20 21  1  0  0  0
 21 22  1  0  0  0
 11 12  1  0  0  0
 11 13  2  0  0  0
 11 15  1  0  0  0
 11 10  1  0  0  0
 10  6  1  0  0  0
  6  7  2  0  0  0
  6  8  1  0  0  0
  6  5  1  0  0  0
  5  1  1  0  0  0
  1  2  2  0  0  0
  1  3  1  0  0  0
  1 34  1  0  0  0
 34 35  1  0  0  0
 35 36  1  0  0  0
 35 37  2  0  0  0
 35 39  1  0  0  0
 39 40  1  0  0  0
 40 41  1  0  0  0
 40 42  2  0  0  0
 40 44  1  0  0  0
 44 45  1  0  0  0
 45 46  1  0  0  0
 46 47  1  0  0  0
 46 51  1  0  0  0
 47 48  1  0  0  0
 48 49  1  0  0  0
 48 55  1  0  0  0
 49 50  1  0  0  0
 49 51  1  0  0  0
 51 52  1  0  0  0
 55 56  1  0  0  0
 55 64  1  0  0  0
 56 57  1  0  0  0
 56 62  2  0  0  0
 57 58  2  0  0  0
 58 59  1  0  0  0
 59 60  2  0  0  0
 60 61  1  0  0  0
 60 62  1  0  0  0
 62 63  1  0  0  0
 63 64  2  0  0  0
 28 33  1  0  0  0
 22 23  1  0  0  0
 12 14  1  0  0  0
  8  9  1  0  0  0
  3  4  1  0  0  0
 36 38  1  0  0  0
 41 43  1  0  0  0
 50 53  1  0  0  0
 52 54  1  0  0  0
 61 65  1  0  0  0
 61 66  1  0  0  0
M  END
> <minimizedAffinity>
-12.94097

$$$$
3TMK_T5A_A_217


 66 70  0  0  0  0  0  0  0  0999 V2000
    1.2462   -1.3994  150.2034 P   0  0  0  0  0  0  0  0  0  0  0  0
    1.9639   -2.3145  151.0987 O   0  0  0  0  0  0  0  0  0  0  0  0
    1.8991   -0.1794  149.6372 O   0  0  0  0  0  0  0  0  0  0  0  0
    2.7071   -0.4347  149.1651 H   0  0  0  0  0  0  0  0  0  0  0  0
    0.2591   -2.1702  149.2771 O   0  0  0  0  0  0  0  0  0  0  0  0
    0.2508   -3.0401  147.9897 P   0  0  0  0  0  0  0  0  0  0  0  0
    1.6499   -3.3626  147.6184 O   0  0  0  0  0  0  0  0  0  0  0  0
   -0.7069   -4.1796  148.1378 O   0  0  0  0  0  0  0  0  0  0  0  0
   -0.7018   -4.7135  147.3279 H   0  0  0  0  0  0  0  0  0  0  0  0
   -0.4797   -2.1389  146.8188 O   0  0  0  0  0  0  0  0  0  0  0  0
   -1.0366   -2.4644  145.3774 P   0  0  0  0  0  0  0  0  0  0  0  0
   -1.8557   -3.7189  145.4493 O   0  0  0  0  0  0  0  0  0  0  0  0
   -1.7404   -1.2536  144.8675 O   0  0  0  0  0  0  0  0  0  0  0  0
   -2.2034   -3.9290  144.5685 H   0  0  0  0  0  0  0  0  0  0  0  0
    0.3502   -2.6060  144.5989 O   0  0  0  0  0  0  0  0  0  0  0  0
    0.8377   -1.6085  143.7086 C   0  0  0  0  0  0  0  0  0  0  0  0
    1.1808   -2.2366  142.4152 C   0  0  0  0  0  0  0  0  0  0  0  0
    2.1834   -1.3683  141.8646 O   0  0  0  0  0  0  0  0  0  0  0  0
    2.8648   -2.2685  140.9744 C   0  0  0  0  0  0  0  0  0  0  0  0
    3.1477   -3.4601  141.9335 C   0  0  0  0  0  0  0  0  0  0  0  0
    1.8328   -3.5877  142.6601 C   0  0  0  0  0  0  0  0  0  0  0  0
    1.1680   -4.6548  142.0603 O   0  0  0  0  0  0  0  0  0  0  0  0
    1.1173   -4.5071  141.1030 H   0  0  0  0  0  0  0  0  0  0  0  0
    4.0602   -1.6135  140.4530 N   0  0  0  0  0  0  0  0  0  0  0  0
    4.4606   -0.3998  140.9443 C   0  0  0  0  0  0  0  0  0  0  0  0
    4.6975   -2.2180  139.3582 C   0  0  0  0  0  0  0  0  0  0  0  0
    4.4099   -3.3266  138.9277 O   0  0  0  0  0  0  0  0  0  0  0  0
    5.6861   -1.4907  138.7784 N   0  0  0  0  0  0  0  0  0  0  0  0
    6.0849   -0.2105  139.1000 C   0  0  0  0  0  0  0  0  0  0  0  0
    6.9214    0.3848  138.3876 O   0  0  0  0  0  0  0  0  0  0  0  0
    5.4312    0.3139  140.3436 C   0  0  0  0  0  0  0  0  0  0  0  0
    5.8252    1.6764  140.9097 C   0  0  0  0  0  0  0  0  0  0  0  0
    6.1747   -1.9274  138.0437 H   0  0  0  0  0  0  0  0  0  0  0  0
   -0.1187   -0.8231  150.9821 O   0  0  0  0  0  0  0  0  0  0  0  0
   -0.8356   -1.0356  152.3642 P   0  0  0  0  0  0  0  0  0  0  0  0
   -0.2927   -0.1123  153.4177 O   0  0  0  0  0  0  0  0  0  0  0  0
   -0.8948   -2.4714  152.5491 O   0  0  0  0  0  0  0  0  0  0  0  0
    0.6094   -0.3823  153.6505 H   0  0  0  0  0  0  0  0  0  0  0  0
   -2.3798   -0.4391  152.0786 O   0  0  0  0  0  0  0  0  0  0  0  0
   -3.6069   -0.0112  153.0018 P   0  0  0  0  0  0  0  0  0  0  0  0
   -3.3767    1.4096  153.3840 O   0  0  0  0  0  0  0  0  0  0  0  0
   -4.9194   -0.2429  152.3555 O   0  0  0  0  0  0  0  0  0  0  0  0
   -3.5583    1.9827  152.6227 H   0  0  0  0  0  0  0  0  0  0  0  0
   -3.3387   -1.0570  154.1802 O   0  0  0  0  0  0  0  0  0  0  0  0
   -3.7942   -1.1351  155.4821 C   0  0  0  0  0  0  0  0  0  0  0  0
   -3.9676   -2.6153  155.8850 C   0  0  0  0  0  0  0  0  0  0  0  0
   -2.7482   -3.3469  155.9447 O   0  0  0  0  0  0  0  0  0  0  0  0
   -2.5597   -3.8358  157.2851 C   0  0  0  0  0  0  0  0  0  0  0  0
   -3.5471   -2.9959  158.1600 C   0  0  0  0  0  0  0  0  0  0  0  0
   -4.0233   -3.6052  159.3984 O   0  0  0  0  0  0  0  0  0  0  0  0
   -4.6968   -2.7973  157.2111 C   0  0  0  0  0  0  0  0  0  0  0  0
   -5.3443   -4.0782  157.0648 O   0  0  0  0  0  0  0  0  0  0  0  0
   -4.4951   -4.4275  159.1935 H   0  0  0  0  0  0  0  0  0  0  0  0
   -4.6895   -4.7432  156.8004 H   0  0  0  0  0  0  0  0  0  0  0  0
   -1.0803   -3.7167  157.7134 N   0  0  0  0  0  0  0  0  0  0  0  0
   -0.3365   -4.5607  158.5107 C   0  0  0  0  0  0  0  0  0  0  0  0
   -0.7531   -5.7169  159.1038 N   0  0  0  0  0  0  0  0  0  0  0  0
    0.2678   -6.2912  159.7771 C   0  0  0  0  0  0  0  0  0  0  0  0
    1.5273   -5.8270  159.9419 N   0  0  0  0  0  0  0  0  0  0  0  0
    1.8580   -4.5960  159.4764 C   0  0  0  0  0  0  0  0  0  0  0  0
    3.0511   -4.0249  159.7362 N   0  0  0  0  0  0  0  0  0  0  0  0
    0.8921   -3.9656  158.6718 C   0  0  0  0  0  0  0  0  0  0  0  0
    0.9491   -2.7829  157.9864 N   0  0  0  0  0  0  0  0  0  0  0  0
   -0.2169   -2.7131  157.3957 C   0  0  0  0  0  0  0  0  0  0  0  0
    3.7070   -4.4912  160.3033 H   0  0  0  0  0  0  0  0  0  0  0  0
    3.2666   -3.1415  159.3588 H   0  0  0  0  0  0  0  0  0  0  0  0
 24 25  1  0  0  0
 24 26  1  0  0  0
 24 19  1  0  0  0
 25 31  2  0  0  0
 26 27  2  0  0  0
 26 28  1  0  0  0
 28 29  1  0  0  0
 29 30  2  0  0  0
 29 31  1  0  0  0
 31 32  1  0  0  0
 16 17  1  0  0  0
 16 15  1  0  0  0
 17 18  1  0  0  0
 17 21  1  0  0  0
 18 19  1  0  0  0
 19 20  1  0  0  0
 20 21  1  0  0  0
 21 22  1  0  0  0
 11 12  1  0  0  0
 11 13  2  0  0  0
 11 15  1  0  0  0
 11 10  1  0  0  0
 10  6  1  0  0  0
  6  7  2  0  0  0
  6  8  1  0  0  0
  6  5  1  0  0  0
  5  1  1  0  0  0
  1  2  2  0  0  0
  1  3  1  0  0  0
  1 34  1  0  0  0
 34 35  1  0  0  0
 35 36  1  0  0  0
 35 37  2  0  0  0
 35 39  1  0  0  0
 39 40  1  0  0  0
 40 41  1  0  0  0
 40 42  2  0  0  0
 40 44  1  0  0  0
 44 45  1  0  0  0
 45 46  1  0  0  0
 46 47  1  0  0  0
 46 51  1  0  0  0
 47 48  1  0  0  0
 48 49  1  0  0  0
 48 55  1  0  0  0
 49 50  1  0  0  0
 49 51  1  0  0  0
 51 52  1  0  0  0
 55 56  1  0  0  0
 55 64  1  0  0  0
 56 57  1  0  0  0
 56 62  2  0  0  0
 57 58  2  0  0  0
 58 59  1  0  0  0
 59 60  2  0  0  0
 60 61  1  0  0  0
 60 62  1  0  0  0
 62 63  1  0  0  0
 63 64  2  0  0  0
 28 33  1  0  0  0
 22 23  1  0  0  0
 12 14  1  0  0  0
  8  9  1  0  0  0
  3  4  1  0  0  0
 36 38  1  0  0  0
 41 43  1  0  0  0
 50 53  1  0  0  0
 52 54  1  0  0  0
 61 65  1  0  0  0
 61 66  1  0  0  0
M  END
> <minimizedAffinity>
-12.87406

$$$$
3TMK_T5A_A_217


 66 70  0  0  0  0  0  0  0  0999 V2000
    0.2424   -3.3553  148.1463 P   0  0  0  0  0  0  0  0  0  0  0  0
    1.5250   -3.0279  147.5123 O   0  0  0  0  0  0  0  0  0  0  0  0
   -0.6036   -4.4919  147.6691 O   0  0  0  0  0  0  0  0  0  0  0  0
   -0.0832   -5.3104  147.6828 H   0  0  0  0  0  0  0  0  0  0  0  0
    0.2878   -3.1011  149.6824 O   0  0  0  0  0  0  0  0  0  0  0  0
    1.0041   -2.2061  150.7313 P   0  0  0  0  0  0  0  0  0  0  0  0
    2.3211   -2.8058  151.0558 O   0  0  0  0  0  0  0  0  0  0  0  0
    0.9829   -0.7752  150.2958 O   0  0  0  0  0  0  0  0  0  0  0  0
    1.4328   -0.2287  150.9590 H   0  0  0  0  0  0  0  0  0  0  0  0
    0.0284   -2.1664  152.0592 O   0  0  0  0  0  0  0  0  0  0  0  0
   -0.9120   -1.0667  152.6917 P   0  0  0  0  0  0  0  0  0  0  0  0
   -0.0616   -0.0585  153.4061 O   0  0  0  0  0  0  0  0  0  0  0  0
   -1.7913   -0.5321  151.6136 O   0  0  0  0  0  0  0  0  0  0  0  0
   -0.6292    0.6229  153.7992 H   0  0  0  0  0  0  0  0  0  0  0  0
   -1.7907   -2.0035  153.6401 O   0  0  0  0  0  0  0  0  0  0  0  0
   -2.9066   -1.5197  154.3789 C   0  0  0  0  0  0  0  0  0  0  0  0
   -3.0925   -2.3565  155.5831 C   0  0  0  0  0  0  0  0  0  0  0  0
   -1.7617   -2.7792  155.9189 O   0  0  0  0  0  0  0  0  0  0  0  0
   -1.9101   -3.0589  157.3214 C   0  0  0  0  0  0  0  0  0  0  0  0
   -2.5748   -1.7392  157.8077 C   0  0  0  0  0  0  0  0  0  0  0  0
   -3.6003   -1.4970  156.7294 C   0  0  0  0  0  0  0  0  0  0  0  0
   -4.8172   -1.9200  157.2590 O   0  0  0  0  0  0  0  0  0  0  0  0
   -4.7327   -2.8335  157.5740 H   0  0  0  0  0  0  0  0  0  0  0  0
   -0.5962   -3.3240  157.8988 N   0  0  0  0  0  0  0  0  0  0  0  0
    0.3743   -2.3581  157.8963 C   0  0  0  0  0  0  0  0  0  0  0  0
   -0.3399   -4.6327  158.3369 C   0  0  0  0  0  0  0  0  0  0  0  0
   -1.1927   -5.5069  158.4116 O   0  0  0  0  0  0  0  0  0  0  0  0
    0.9447   -4.8935  158.6895 N   0  0  0  0  0  0  0  0  0  0  0  0
    2.0274   -4.0442  158.6031 C   0  0  0  0  0  0  0  0  0  0  0  0
    3.1792   -4.4683  158.8380 O   0  0  0  0  0  0  0  0  0  0  0  0
    1.6465   -2.6419  158.2324 C   0  0  0  0  0  0  0  0  0  0  0  0
    2.7021   -1.5393  158.1870 C   0  0  0  0  0  0  0  0  0  0  0  0
    1.1239   -5.7926  159.0482 H   0  0  0  0  0  0  0  0  0  0  0  0
   -0.7655   -2.0211  148.0735 O   0  0  0  0  0  0  0  0  0  0  0  0
   -1.4450   -1.1470  146.9583 P   0  0  0  0  0  0  0  0  0  0  0  0
   -1.8099    0.2176  147.4697 O   0  0  0  0  0  0  0  0  0  0  0  0
   -2.4113   -2.0193  146.3224 O   0  0  0  0  0  0  0  0  0  0  0  0
   -2.5451    0.1416  148.0978 H   0  0  0  0  0  0  0  0  0  0  0  0
   -0.1768   -0.8424  145.8995 O   0  0  0  0  0  0  0  0  0  0  0  0
    0.0502    0.1549  144.6767 P   0  0  0  0  0  0  0  0  0  0  0  0
   -1.0911    1.1113  144.6900 O   0  0  0  0  0  0  0  0  0  0  0  0
    1.3748    0.8168  144.7144 O   0  0  0  0  0  0  0  0  0  0  0  0
   -0.9760    1.7421  145.4178 H   0  0  0  0  0  0  0  0  0  0  0  0
   -0.0274   -0.9398  143.5149 O   0  0  0  0  0  0  0  0  0  0  0  0
    0.3773   -0.9310  142.1940 C   0  0  0  0  0  0  0  0  0  0  0  0
    0.6135   -2.3787  141.7124 C   0  0  0  0  0  0  0  0  0  0  0  0
    1.3728   -2.4742  140.5123 O   0  0  0  0  0  0  0  0  0  0  0  0
    2.5773   -3.2160  140.7772 C   0  0  0  0  0  0  0  0  0  0  0  0
    2.7136   -3.2149  142.3351 C   0  0  0  0  0  0  0  0  0  0  0  0
    3.4506   -4.3205  142.9402 O   0  0  0  0  0  0  0  0  0  0  0  0
    1.2730   -3.2634  142.7641 C   0  0  0  0  0  0  0  0  0  0  0  0
    0.7859   -4.5834  142.4453 O   0  0  0  0  0  0  0  0  0  0  0  0
    3.0149   -5.1586  142.7196 H   0  0  0  0  0  0  0  0  0  0  0  0
    0.9535   -4.7724  141.5088 H   0  0  0  0  0  0  0  0  0  0  0  0
    3.7828   -2.5938  140.0384 N   0  0  0  0  0  0  0  0  0  0  0  0
    4.3738   -1.3619  140.2245 C   0  0  0  0  0  0  0  0  0  0  0  0
    4.0183   -0.4035  141.1285 N   0  0  0  0  0  0  0  0  0  0  0  0
    4.8538    0.6547  141.0411 C   0  0  0  0  0  0  0  0  0  0  0  0
    5.8752    0.8446  140.1752 N   0  0  0  0  0  0  0  0  0  0  0  0
    6.0950   -0.0562  139.1844 C   0  0  0  0  0  0  0  0  0  0  0  0
    7.0033    0.1526  138.2104 N   0  0  0  0  0  0  0  0  0  0  0  0
    5.3423   -1.2420  139.2566 C   0  0  0  0  0  0  0  0  0  0  0  0
    5.3902   -2.3670  138.4795 N   0  0  0  0  0  0  0  0  0  0  0  0
    4.4910   -3.1513  139.0180 C   0  0  0  0  0  0  0  0  0  0  0  0
    7.5149    0.9934  138.1864 H   0  0  0  0  0  0  0  0  0  0  0  0
    7.1550   -0.5357  137.5230 H   0  0  0  0  0  0  0  0  0  0  0  0
 24 25  1  0  0  0
 24 26  1  0  0  0
 24 19  1  0  0  0
 25 31  2  0  0  0
 26 27  2  0  0  0
 26 28  1  0  0  0
 28 29  1  0  0  0
 29 30  2  0  0  0
 29 31  1  0  0  0
 31 32  1  0  0  0
 16 17  1  0  0  0
 16 15  1  0  0  0
 17 18  1  0  0  0
 17 21  1  0  0  0
 18 19  1  0  0  0
 19 20  1  0  0  0
 20 21  1  0  0  0
 21 22  1  0  0  0
 11 12  1  0  0  0
 11 13  2  0  0  0
 11 15  1  0  0  0
 11 10  1  0  0  0
 10  6  1  0  0  0
  6  7  2  0  0  0
  6  8  1  0  0  0
  6  5  1  0  0  0
  5  1  1  0  0  0
  1  2  2  0  0  0
  1  3  1  0  0  0
  1 34  1  0  0  0
 34 35  1  0  0  0
 35 36  1  0  0  0
 35 37  2  0  0  0
 35 39  1  0  0  0
 39 40  1  0  0  0
 40 41  1  0  0  0
 40 42  2  0  0  0
 40 44  1  0  0  0
 44 45  1  0  0  0
 45 46  1  0  0  0
 46 47  1  0  0  0
 46 51  1  0  0  0
 47 48  1  0  0  0
 48 49  1  0  0  0
 48 55  1  0  0  0
 49 50  1  0  0  0
 49 51  1  0  0  0
 51 52  1  0  0  0
 55 56  1  0  0  0
 55 64  1  0  0  0
 56 57  1  0  0  0
 56 62  2  0  0  0
 57 58  2  0  0  0
 58 59  1  0  0  0
 59 60  2  0  0  0
 60 61  1  0  0  0
 60 62  1  0  0  0
 62 63  1  0  0  0
 63 64  2  0  0  0
 28 33  1  0  0  0
 22 23  1  0  0  0
 12 14  1  0  0  0
  8  9  1  0  0  0
  3  4  1  0  0  0
 36 38  1  0  0  0
 41 43  1  0  0  0
 50 53  1  0  0  0
 52 54  1  0  0  0
 61 65  1  0  0  0
 61 66  1  0  0  0
M  END
> <minimizedAffinity>
-12.65854

$$$$
3TMK_T5A_A_217


 66 70  0  0  0  0  0  0  0  0999 V2000
    0.4962   -1.3546  145.2739 P   0  0  0  0  0  0  0  0  0  0  0  0
   -0.1841   -0.1935  144.6880 O   0  0  0  0  0  0  0  0  0  0  0  0
    1.0928   -2.4291  144.4225 O   0  0  0  0  0  0  0  0  0  0  0  0
    1.7251   -2.0355  143.8010 H   0  0  0  0  0  0  0  0  0  0  0  0
    1.2687   -0.9652  146.5693 O   0  0  0  0  0  0  0  0  0  0  0  0
    1.0120   -0.6065  148.0591 P   0  0  0  0  0  0  0  0  0  0  0  0
    1.9562    0.4623  148.4659 O   0  0  0  0  0  0  0  0  0  0  0  0
   -0.4462   -0.3688  148.2934 O   0  0  0  0  0  0  0  0  0  0  0  0
   -0.5917   -0.1462  149.2262 H   0  0  0  0  0  0  0  0  0  0  0  0
    1.2697   -1.9851  148.9251 O   0  0  0  0  0  0  0  0  0  0  0  0
    0.7325   -2.5226  150.3094 P   0  0  0  0  0  0  0  0  0  0  0  0
   -0.2006   -3.6685  150.0519 O   0  0  0  0  0  0  0  0  0  0  0  0
    1.9060   -2.8191  151.1791 O   0  0  0  0  0  0  0  0  0  0  0  0
   -0.5374   -4.0072  150.8962 H   0  0  0  0  0  0  0  0  0  0  0  0
    0.0348   -1.1891  150.8424 O   0  0  0  0  0  0  0  0  0  0  0  0
   -0.1942   -0.9406  152.2248 C   0  0  0  0  0  0  0  0  0  0  0  0
   -1.4602   -1.5861  152.6319 C   0  0  0  0  0  0  0  0  0  0  0  0
   -1.0825   -2.4201  153.7383 O   0  0  0  0  0  0  0  0  0  0  0  0
   -2.3384   -2.5444  154.4273 C   0  0  0  0  0  0  0  0  0  0  0  0
   -2.7526   -1.0492  154.5395 C   0  0  0  0  0  0  0  0  0  0  0  0
   -2.4226   -0.5353  153.1611 C   0  0  0  0  0  0  0  0  0  0  0  0
   -3.6337   -0.4794  152.4753 O   0  0  0  0  0  0  0  0  0  0  0  0
   -4.0698   -1.3448  152.5181 H   0  0  0  0  0  0  0  0  0  0  0  0
   -2.1189   -3.2100  155.7074 N   0  0  0  0  0  0  0  0  0  0  0  0
   -0.9853   -2.9651  156.4353 C   0  0  0  0  0  0  0  0  0  0  0  0
   -3.0498   -4.1885  156.0899 C   0  0  0  0  0  0  0  0  0  0  0  0
   -4.1024   -4.3963  155.5018 O   0  0  0  0  0  0  0  0  0  0  0  0
   -2.7178   -4.9196  157.1843 N   0  0  0  0  0  0  0  0  0  0  0  0
   -1.5503   -4.8538  157.9149 C   0  0  0  0  0  0  0  0  0  0  0  0
   -1.3271   -5.6865  158.8196 O   0  0  0  0  0  0  0  0  0  0  0  0
   -0.6653   -3.7138  157.5073 C   0  0  0  0  0  0  0  0  0  0  0  0
    0.6243   -3.4232  158.2719 C   0  0  0  0  0  0  0  0  0  0  0  0
   -3.3879   -5.5720  157.4920 H   0  0  0  0  0  0  0  0  0  0  0  0
   -0.5631   -2.1610  146.2882 O   0  0  0  0  0  0  0  0  0  0  0  0
   -1.5577   -3.3736  146.1903 P   0  0  0  0  0  0  0  0  0  0  0  0
   -1.4676   -4.2629  147.3978 O   0  0  0  0  0  0  0  0  0  0  0  0
   -1.4113   -3.8823  144.8416 O   0  0  0  0  0  0  0  0  0  0  0  0
   -0.6208   -4.7361  147.3884 H   0  0  0  0  0  0  0  0  0  0  0  0
   -3.0590   -2.6385  146.3564 O   0  0  0  0  0  0  0  0  0  0  0  0
   -3.6307   -1.1768  146.0775 P   0  0  0  0  0  0  0  0  0  0  0  0
   -2.9873   -0.2717  147.0697 O   0  0  0  0  0  0  0  0  0  0  0  0
   -3.4397   -0.7441  144.6737 O   0  0  0  0  0  0  0  0  0  0  0  0
   -2.0633   -0.1192  146.8167 H   0  0  0  0  0  0  0  0  0  0  0  0
   -5.1638   -1.5040  146.3887 O   0  0  0  0  0  0  0  0  0  0  0  0
   -6.1247   -2.2203  145.7015 C   0  0  0  0  0  0  0  0  0  0  0  0
   -7.2969   -1.2892  145.3239 C   0  0  0  0  0  0  0  0  0  0  0  0
   -7.3249   -0.0670  146.0526 O   0  0  0  0  0  0  0  0  0  0  0  0
   -7.2054    1.0316  145.1307 C   0  0  0  0  0  0  0  0  0  0  0  0
   -6.6765    0.3878  143.8072 C   0  0  0  0  0  0  0  0  0  0  0  0
   -6.9939    1.0750  142.5588 O   0  0  0  0  0  0  0  0  0  0  0  0
   -7.3479   -0.9576  143.8369 C   0  0  0  0  0  0  0  0  0  0  0  0
   -8.7514   -0.7301  143.5920 O   0  0  0  0  0  0  0  0  0  0  0  0
   -7.9569    1.1269  142.4540 H   0  0  0  0  0  0  0  0  0  0  0  0
   -9.0883   -0.0768  144.2248 H   0  0  0  0  0  0  0  0  0  0  0  0
   -6.2905    2.1365  145.7038 N   0  0  0  0  0  0  0  0  0  0  0  0
   -5.9294    3.3429  145.1421 C   0  0  0  0  0  0  0  0  0  0  0  0
   -6.3164    3.8389  143.9312 N   0  0  0  0  0  0  0  0  0  0  0  0
   -5.7897    5.0683  143.7395 C   0  0  0  0  0  0  0  0  0  0  0  0
   -4.9464    5.7520  144.5460 N   0  0  0  0  0  0  0  0  0  0  0  0
   -4.4537    5.1596  145.6630 C   0  0  0  0  0  0  0  0  0  0  0  0
   -3.5029    5.7373  146.4244 N   0  0  0  0  0  0  0  0  0  0  0  0
   -5.0240    3.9193  146.0009 C   0  0  0  0  0  0  0  0  0  0  0  0
   -4.8186    3.1209  147.0928 N   0  0  0  0  0  0  0  0  0  0  0  0
   -5.6297    2.1130  146.8940 C   0  0  0  0  0  0  0  0  0  0  0  0
   -3.1227    6.6065  146.1615 H   0  0  0  0  0  0  0  0  0  0  0  0
   -3.1889    5.2899  147.2432 H   0  0  0  0  0  0  0  0  0  0  0  0
 24 25  1  0  0  0
 24 26  1  0  0  0
 24 19  1  0  0  0
 25 31  2  0  0  0
 26 27  2  0  0  0
 26 28  1  0  0  0
 28 29  1  0  0  0
 29 30  2  0  0  0
 29 31  1  0  0  0
 31 32  1  0  0  0
 16 17  1  0  0  0
 16 15  1  0  0  0
 17 18  1  0  0  0
 17 21  1  0  0  0
 18 19  1  0  0  0
 19 20  1  0  0  0
 20 21  1  0  0  0
 21 22  1  0  0  0
 11 12  1  0  0  0
 11 13  2  0  0  0
 11 15  1  0  0  0
 11 10  1  0  0  0
 10  6  1  0  0  0
  6  7  2  0  0  0
  6  8  1  0  0  0
  6  5  1  0  0  0
  5  1  1  0  0  0
  1  2  2  0  0  0
  1  3  1  0  0  0
  1 34  1  0  0  0
 34 35  1  0  0  0
 35 36  1  0  0  0
 35 37  2  0  0  0
 35 39  1  0  0  0
 39 40  1  0  0  0
 40 41  1  0  0  0
 40 42  2  0  0  0
 40 44  1  0  0  0
 44 45  1  0  0  0
 45 46  1  0  0  0
 46 47  1  0  0  0
 46 51  1  0  0  0
 47 48  1  0  0  0
 48 49  1  0  0  0
 48 55  1  0  0  0
 49 50  1  0  0  0
 49 51  1  0  0  0
 51 52  1  0  0  0
 55 56  1  0  0  0
 55 64  1  0  0  0
 56 57  1  0  0  0
 56 62  2  0  0  0
 57 58  2  0  0  0
 58 59  1  0  0  0
 59 60  2  0  0  0
 60 61  1  0  0  0
 60 62  1  0  0  0
 62 63  1  0  0  0
 63 64  2  0  0  0
 28 33  1  0  0  0
 22 23  1  0  0  0
 12 14  1  0  0  0
  8  9  1  0  0  0
  3  4  1  0  0  0
 36 38  1  0  0  0
 41 43  1  0  0  0
 50 53  1  0  0  0
 52 54  1  0  0  0
 61 65  1  0  0  0
 61 66  1  0  0  0
M  END
> <minimizedAffinity>
-11.83714

$$$$
3TMK_T5A_A_217


 66 70  0  0  0  0  0  0  0  0999 V2000
   -3.2293    0.3040  153.7188 P   0  0  0  0  0  0  0  0  0  0  0  0
   -4.5519    0.4955  153.1121 O   0  0  0  0  0  0  0  0  0  0  0  0
   -2.3973    1.4602  154.1733 O   0  0  0  0  0  0  0  0  0  0  0  0
   -2.9045    1.9954  154.8035 H   0  0  0  0  0  0  0  0  0  0  0  0
   -3.1865   -0.9865  154.5901 O   0  0  0  0  0  0  0  0  0  0  0  0
   -4.0167   -2.2671  154.8818 P   0  0  0  0  0  0  0  0  0  0  0  0
   -5.4553   -1.9089  154.9203 O   0  0  0  0  0  0  0  0  0  0  0  0
   -3.6029   -3.3754  153.9664 O   0  0  0  0  0  0  0  0  0  0  0  0
   -4.1286   -4.1674  154.1594 H   0  0  0  0  0  0  0  0  0  0  0  0
   -3.5084   -2.8332  156.3440 O   0  0  0  0  0  0  0  0  0  0  0  0
   -2.1103   -2.8647  157.0776 P   0  0  0  0  0  0  0  0  0  0  0  0
   -1.0623   -2.3428  156.1398 O   0  0  0  0  0  0  0  0  0  0  0  0
   -2.2487   -2.1380  158.3715 O   0  0  0  0  0  0  0  0  0  0  0  0
   -0.1981   -2.3575  156.5802 H   0  0  0  0  0  0  0  0  0  0  0  0
   -2.0238   -4.4290  157.3853 O   0  0  0  0  0  0  0  0  0  0  0  0
   -2.8003   -5.0575  158.3988 C   0  0  0  0  0  0  0  0  0  0  0  0
   -1.8967   -5.7138  159.3672 C   0  0  0  0  0  0  0  0  0  0  0  0
   -0.5957   -5.5743  158.7751 O   0  0  0  0  0  0  0  0  0  0  0  0
    0.2449   -5.6741  159.9373 C   0  0  0  0  0  0  0  0  0  0  0  0
   -0.4274   -4.6245  160.8680 C   0  0  0  0  0  0  0  0  0  0  0  0
   -1.8901   -4.9323  160.6709 C   0  0  0  0  0  0  0  0  0  0  0  0
   -2.2752   -5.6796  161.7815 O   0  0  0  0  0  0  0  0  0  0  0  0
   -1.6848   -6.4431  161.8780 H   0  0  0  0  0  0  0  0  0  0  0  0
    1.6198   -5.3592  159.5627 N   0  0  0  0  0  0  0  0  0  0  0  0
    2.0063   -4.0620  159.3554 C   0  0  0  0  0  0  0  0  0  0  0  0
    2.4794   -6.4394  159.3088 C   0  0  0  0  0  0  0  0  0  0  0  0
    2.1943   -7.6071  159.5375 O   0  0  0  0  0  0  0  0  0  0  0  0
    3.6877   -6.1176  158.7806 N   0  0  0  0  0  0  0  0  0  0  0  0
    4.1344   -4.8675  158.4078 C   0  0  0  0  0  0  0  0  0  0  0  0
    5.2232   -4.7424  157.8074 O   0  0  0  0  0  0  0  0  0  0  0  0
    3.2023   -3.7651  158.8136 C   0  0  0  0  0  0  0  0  0  0  0  0
    3.5793   -2.3049  158.5733 C   0  0  0  0  0  0  0  0  0  0  0  0
    4.3176   -6.8625  158.6484 H   0  0  0  0  0  0  0  0  0  0  0  0
   -2.2464   -0.5266  152.6486 O   0  0  0  0  0  0  0  0  0  0  0  0
   -0.8019   -1.1452  152.6500 P   0  0  0  0  0  0  0  0  0  0  0  0
   -0.8091   -2.5682  153.1319 O   0  0  0  0  0  0  0  0  0  0  0  0
    0.0490   -0.1322  153.2407 O   0  0  0  0  0  0  0  0  0  0  0  0
   -1.0031   -2.5868  154.0821 H   0  0  0  0  0  0  0  0  0  0  0  0
   -0.4561   -1.2880  151.0123 O   0  0  0  0  0  0  0  0  0  0  0  0
    0.7096   -1.9707  150.1660 P   0  0  0  0  0  0  0  0  0  0  0  0
    1.9478   -1.1902  150.4404 O   0  0  0  0  0  0  0  0  0  0  0  0
    0.8505   -3.4182  150.4469 O   0  0  0  0  0  0  0  0  0  0  0  0
    2.2708   -1.3988  151.3310 H   0  0  0  0  0  0  0  0  0  0  0  0
    0.0796   -1.7106  148.7205 O   0  0  0  0  0  0  0  0  0  0  0  0
   -0.4016   -0.5730  148.1016 C   0  0  0  0  0  0  0  0  0  0  0  0
   -1.4799   -0.9600  147.0667 C   0  0  0  0  0  0  0  0  0  0  0  0
   -1.1821   -0.5485  145.7372 O   0  0  0  0  0  0  0  0  0  0  0  0
   -1.0970   -1.7118  144.8941 C   0  0  0  0  0  0  0  0  0  0  0  0
   -0.9483   -2.9134  145.8839 C   0  0  0  0  0  0  0  0  0  0  0  0
   -1.4121   -4.2184  145.4220 O   0  0  0  0  0  0  0  0  0  0  0  0
   -1.7858   -2.4532  147.0452 C   0  0  0  0  0  0  0  0  0  0  0  0
   -3.1620   -2.5074  146.6157 O   0  0  0  0  0  0  0  0  0  0  0  0
   -2.3584   -4.1703  145.2144 H   0  0  0  0  0  0  0  0  0  0  0  0
   -3.2648   -2.0010  145.7949 H   0  0  0  0  0  0  0  0  0  0  0  0
    0.0650   -1.5787  143.8850 N   0  0  0  0  0  0  0  0  0  0  0  0
    0.5410   -2.5052  142.9816 C   0  0  0  0  0  0  0  0  0  0  0  0
    0.0736   -3.7700  142.7720 N   0  0  0  0  0  0  0  0  0  0  0  0
    0.7682   -4.3666  141.7784 C   0  0  0  0  0  0  0  0  0  0  0  0
    1.8225   -3.8793  141.0855 N   0  0  0  0  0  0  0  0  0  0  0  0
    2.3630   -2.6842  141.4332 C   0  0  0  0  0  0  0  0  0  0  0  0
    3.4975   -2.2176  140.8743 N   0  0  0  0  0  0  0  0  0  0  0  0
    1.6451   -1.9417  142.3876 C   0  0  0  0  0  0  0  0  0  0  0  0
    1.8670   -0.6834  142.8769 N   0  0  0  0  0  0  0  0  0  0  0  0
    0.8765   -0.4991  143.7126 C   0  0  0  0  0  0  0  0  0  0  0  0
    3.9780   -2.7610  140.2086 H   0  0  0  0  0  0  0  0  0  0  0  0
    3.8457   -1.3335  141.1318 H   0  0  0  0  0  0  0  0  0  0  0  0
 24 25  1  0  0  0
 24 26  1  0  0  0
 24 19  1  0  0  0
 25 31  2  0  0  0
 26 27  2  0  0  0
 26 28  1  0  0  0
 28 29  1  0  0  0
 29 30  2  0  0  0
 29 31  1  0  0  0
 31 32  1  0  0  0
 16 17  1  0  0  0
 16 15  1  0  0  0
 17 18  1  0  0  0
 17 21  1  0  0  0
 18 19  1  0  0  0
 19 20  1  0  0  0
 20 21  1  0  0  0
 21 22  1  0  0  0
 11 12  1  0  0  0
 11 13  2  0  0  0
 11 15  1  0  0  0
 11 10  1  0  0  0
 10  6  1  0  0  0
  6  7  2  0  0  0
  6  8  1  0  0  0
  6  5  1  0  0  0
  5  1  1  0  0  0
  1  2  2  0  0  0
  1  3  1  0  0  0
  1 34  1  0  0  0
 34 35  1  0  0  0
 35 36  1  0  0  0
 35 37  2  0  0  0
 35 39  1  0  0  0
 39 40  1  0  0  0
 40 41  1  0  0  0
 40 42  2  0  0  0
 40 44  1  0  0  0
 44 45  1  0  0  0
 45 46  1  0  0  0
 46 47  1  0  0  0
 46 51  1  0  0  0
 47 48  1  0  0  0
 48 49  1  0  0  0
 48 55  1  0  0  0
 49 50  1  0  0  0
 49 51  1  0  0  0
 51 52  1  0  0  0
 55 56  1  0  0  0
 55 64  1  0  0  0
 56 57  1  0  0  0
 56 62  2  0  0  0
 57 58  2  0  0  0
 58 59  1  0  0  0
 59 60  2  0  0  0
 60 61  1  0  0  0
 60 62  1  0  0  0
 62 63  1  0  0  0
 63 64  2  0  0  0
 28 33  1  0  0  0
 22 23  1  0  0  0
 12 14  1  0  0  0
  8  9  1  0  0  0
  3  4  1  0  0  0
 36 38  1  0  0  0
 41 43  1  0  0  0
 50 53  1  0  0  0
 52 54  1  0  0  0
 61 65  1  0  0  0
 61 66  1  0  0  0
M  END
> <minimizedAffinity>
-11.82671

$$$$
3TMK_T5A_A_217


 66 70  0  0  0  0  0  0  0  0999 V2000
   -1.6065   -2.8872  156.1014 P   0  0  0  0  0  0  0  0  0  0  0  0
   -2.1293   -1.5528  156.4182 O   0  0  0  0  0  0  0  0  0  0  0  0
   -0.5253   -3.5222  156.9158 O   0  0  0  0  0  0  0  0  0  0  0  0
   -0.7992   -3.5574  157.8456 H   0  0  0  0  0  0  0  0  0  0  0  0
   -2.7285   -3.8221  155.5599 O   0  0  0  0  0  0  0  0  0  0  0  0
   -4.2302   -4.1518  155.7850 P   0  0  0  0  0  0  0  0  0  0  0  0
   -5.0525   -3.0465  155.2360 O   0  0  0  0  0  0  0  0  0  0  0  0
   -4.5341   -5.5397  155.3173 O   0  0  0  0  0  0  0  0  0  0  0  0
   -5.4736   -5.7318  155.4636 H   0  0  0  0  0  0  0  0  0  0  0  0
   -4.4407   -4.2937  157.4136 O   0  0  0  0  0  0  0  0  0  0  0  0
   -4.9522   -3.3112  158.5391 P   0  0  0  0  0  0  0  0  0  0  0  0
   -4.7113   -1.8997  158.0924 O   0  0  0  0  0  0  0  0  0  0  0  0
   -6.3654   -3.6635  158.8555 O   0  0  0  0  0  0  0  0  0  0  0  0
   -5.0220   -1.2864  158.7767 H   0  0  0  0  0  0  0  0  0  0  0  0
   -4.0281   -3.8064  159.7432 O   0  0  0  0  0  0  0  0  0  0  0  0
   -2.6522   -3.4589  159.8499 C   0  0  0  0  0  0  0  0  0  0  0  0
   -1.8740   -4.6606  160.2177 C   0  0  0  0  0  0  0  0  0  0  0  0
   -0.6594   -4.5302  159.4626 O   0  0  0  0  0  0  0  0  0  0  0  0
    0.2385   -5.3310  160.2499 C   0  0  0  0  0  0  0  0  0  0  0  0
   -0.0015   -4.7253  161.6624 C   0  0  0  0  0  0  0  0  0  0  0  0
   -1.5036   -4.5987  161.6906 C   0  0  0  0  0  0  0  0  0  0  0  0
   -1.9633   -5.6815  162.4365 O   0  0  0  0  0  0  0  0  0  0  0  0
   -1.6085   -6.5042  162.0648 H   0  0  0  0  0  0  0  0  0  0  0  0
    1.5971   -5.1664  159.7430 N   0  0  0  0  0  0  0  0  0  0  0  0
    2.0968   -3.9190  159.4800 C   0  0  0  0  0  0  0  0  0  0  0  0
    2.3099   -6.3335  159.4266 C   0  0  0  0  0  0  0  0  0  0  0  0
    1.9262   -7.4628  159.6994 O   0  0  0  0  0  0  0  0  0  0  0  0
    3.4897   -6.1452  158.7824 N   0  0  0  0  0  0  0  0  0  0  0  0
    4.0284   -4.9519  158.3497 C   0  0  0  0  0  0  0  0  0  0  0  0
    5.0624   -4.9469  157.6479 O   0  0  0  0  0  0  0  0  0  0  0  0
    3.2605   -3.7541  158.8237 C   0  0  0  0  0  0  0  0  0  0  0  0
    3.7650   -2.3438  158.5263 C   0  0  0  0  0  0  0  0  0  0  0  0
    4.0221   -6.9537  158.6034 H   0  0  0  0  0  0  0  0  0  0  0  0
   -1.0114   -2.8895  154.5371 O   0  0  0  0  0  0  0  0  0  0  0  0
   -1.0391   -1.9339  153.2900 P   0  0  0  0  0  0  0  0  0  0  0  0
   -0.3369   -0.6358  153.5711 O   0  0  0  0  0  0  0  0  0  0  0  0
   -2.4001   -1.9866  152.7960 O   0  0  0  0  0  0  0  0  0  0  0  0
   -0.8617   -0.1134  154.1975 H   0  0  0  0  0  0  0  0  0  0  0  0
   -0.0147   -2.7066  152.2057 O   0  0  0  0  0  0  0  0  0  0  0  0
    0.8946   -2.2308  150.9859 P   0  0  0  0  0  0  0  0  0  0  0  0
    0.6943   -0.7611  150.8536 O   0  0  0  0  0  0  0  0  0  0  0  0
    2.3150   -2.6207  151.1426 O   0  0  0  0  0  0  0  0  0  0  0  0
    1.1608   -0.3053  151.5716 H   0  0  0  0  0  0  0  0  0  0  0  0
    0.1693   -3.0941  149.8532 O   0  0  0  0  0  0  0  0  0  0  0  0
    0.3873   -3.2260  148.4954 C   0  0  0  0  0  0  0  0  0  0  0  0
   -0.8926   -2.8406  147.7229 C   0  0  0  0  0  0  0  0  0  0  0  0
   -0.7034   -1.8019  146.7684 O   0  0  0  0  0  0  0  0  0  0  0  0
   -1.0259   -2.3040  145.4587 C   0  0  0  0  0  0  0  0  0  0  0  0
   -1.0270   -3.8600  145.6157 C   0  0  0  0  0  0  0  0  0  0  0  0
   -1.8542   -4.6229  144.6855 O   0  0  0  0  0  0  0  0  0  0  0  0
   -1.5488   -4.0215  147.0169 C   0  0  0  0  0  0  0  0  0  0  0  0
   -2.9453   -3.6607  146.9872 O   0  0  0  0  0  0  0  0  0  0  0  0
   -2.7810   -4.3529  144.7808 H   0  0  0  0  0  0  0  0  0  0  0  0
   -3.0427   -2.7765  146.6004 H   0  0  0  0  0  0  0  0  0  0  0  0
   -0.0275   -1.7774  144.4042 N   0  0  0  0  0  0  0  0  0  0  0  0
    0.4614   -2.4085  143.2799 C   0  0  0  0  0  0  0  0  0  0  0  0
    0.1572   -3.6636  142.8393 N   0  0  0  0  0  0  0  0  0  0  0  0
    0.8026   -3.9217  141.6807 C   0  0  0  0  0  0  0  0  0  0  0  0
    1.6835   -3.1357  141.0208 N   0  0  0  0  0  0  0  0  0  0  0  0
    2.0865   -1.9638  141.5737 C   0  0  0  0  0  0  0  0  0  0  0  0
    3.0656   -1.2118  141.0324 N   0  0  0  0  0  0  0  0  0  0  0  0
    1.3925   -1.5608  142.7286 C   0  0  0  0  0  0  0  0  0  0  0  0
    1.4909   -0.4096  143.4614 N   0  0  0  0  0  0  0  0  0  0  0  0
    0.5943   -0.5662  144.4022 C   0  0  0  0  0  0  0  0  0  0  0  0
    3.5333   -1.5209  140.2232 H   0  0  0  0  0  0  0  0  0  0  0  0
    3.3128   -0.3534  141.4463 H   0  0  0  0  0  0  0  0  0  0  0  0
 24 25  1  0  0  0
 24 26  1  0  0  0
 24 19  1  0  0  0
 25 31  2  0  0  0
 26 27  2  0  0  0
 26 28  1  0  0  0
 28 29  1  0  0  0
 29 30  2  0  0  0
 29 31  1  0  0  0
 31 32  1  0  0  0
 16 17  1  0  0  0
 16 15  1  0  0  0
 17 18  1  0  0  0
 17 21  1  0  0  0
 18 19  1  0  0  0
 19 20  1  0  0  0
 20 21  1  0  0  0
 21 22  1  0  0  0
 11 12  1  0  0  0
 11 13  2  0  0  0
 11 15  1  0  0  0
 11 10  1  0  0  0
 10  6  1  0  0  0
  6  7  2  0  0  0
  6  8  1  0  0  0
  6  5  1  0  0  0
  5  1  1  0  0  0
  1  2  2  0  0  0
  1  3  1  0  0  0
  1 34  1  0  0  0
 34 35  1  0  0  0
 35 36  1  0  0  0
 35 37  2  0  0  0
 35 39  1  0  0  0
 39 40  1  0  0  0
 40 41  1  0  0  0
 40 42  2  0  0  0
 40 44  1  0  0  0
 44 45  1  0  0  0
 45 46  1  0  0  0
 46 47  1  0  0  0
 46 51  1  0  0  0
 47 48  1  0  0  0
 48 49  1  0  0  0
 48 55  1  0  0  0
 49 50  1  0  0  0
 49 51  1  0  0  0
 51 52  1  0  0  0
 55 56  1  0  0  0
 55 64  1  0  0  0
 56 57  1  0  0  0
 56 62  2  0  0  0
 57 58  2  0  0  0
 58 59  1  0  0  0
 59 60  2  0  0  0
 60 61  1  0  0  0
 60 62  1  0  0  0
 62 63  1  0  0  0
 63 64  2  0  0  0
 28 33  1  0  0  0
 22 23  1  0  0  0
 12 14  1  0  0  0
  8  9  1  0  0  0
  3  4  1  0  0  0
 36 38  1  0  0  0
 41 43  1  0  0  0
 50 53  1  0  0  0
 52 54  1  0  0  0
 61 65  1  0  0  0
 61 66  1  0  0  0
M  END
> <minimizedAffinity>
-11.74928

$$$$
3TMK_T5A_A_217


 66 70  0  0  0  0  0  0  0  0999 V2000
   -2.4377   -2.6319  154.4599 P   0  0  0  0  0  0  0  0  0  0  0  0
   -1.1091   -3.0730  154.9008 O   0  0  0  0  0  0  0  0  0  0  0  0
   -3.5370   -3.6057  154.1794 O   0  0  0  0  0  0  0  0  0  0  0  0
   -3.6861   -4.1592  154.9620 H   0  0  0  0  0  0  0  0  0  0  0  0
   -2.8384   -1.2834  155.1286 O   0  0  0  0  0  0  0  0  0  0  0  0
   -3.8113   -0.7155  156.1988 P   0  0  0  0  0  0  0  0  0  0  0  0
   -3.2068    0.4963  156.8034 O   0  0  0  0  0  0  0  0  0  0  0  0
   -5.1915   -0.5936  155.6351 O   0  0  0  0  0  0  0  0  0  0  0  0
   -5.7874   -0.2384  156.3130 H   0  0  0  0  0  0  0  0  0  0  0  0
   -4.0135   -1.9012  157.3258 O   0  0  0  0  0  0  0  0  0  0  0  0
   -5.1430   -2.9714  157.5955 P   0  0  0  0  0  0  0  0  0  0  0  0
   -6.1579   -2.3766  158.5262 O   0  0  0  0  0  0  0  0  0  0  0  0
   -5.6608   -3.4413  156.2792 O   0  0  0  0  0  0  0  0  0  0  0  0
   -6.8576   -3.0258  158.6993 H   0  0  0  0  0  0  0  0  0  0  0  0
   -4.2446   -4.1307  158.2262 O   0  0  0  0  0  0  0  0  0  0  0  0
   -2.9647   -4.4787  157.7103 C   0  0  0  0  0  0  0  0  0  0  0  0
   -2.2058   -5.2115  158.7456 C   0  0  0  0  0  0  0  0  0  0  0  0
   -0.8430   -5.1257  158.3007 O   0  0  0  0  0  0  0  0  0  0  0  0
   -0.1391   -5.3055  159.5414 C   0  0  0  0  0  0  0  0  0  0  0  0
   -0.8537   -4.2488  160.4317 C   0  0  0  0  0  0  0  0  0  0  0  0
   -2.3003   -4.4704  160.0694 C   0  0  0  0  0  0  0  0  0  0  0  0
   -2.8409   -5.2281  161.1057 O   0  0  0  0  0  0  0  0  0  0  0  0
   -2.3041   -6.0252  161.2375 H   0  0  0  0  0  0  0  0  0  0  0  0
    1.2825   -5.0550  159.3266 N   0  0  0  0  0  0  0  0  0  0  0  0
    1.7319   -3.7953  159.0330 C   0  0  0  0  0  0  0  0  0  0  0  0
    2.1357   -6.1695  159.3133 C   0  0  0  0  0  0  0  0  0  0  0  0
    1.7876   -7.2995  159.6275 O   0  0  0  0  0  0  0  0  0  0  0  0
    3.4132   -5.9270  158.9236 N   0  0  0  0  0  0  0  0  0  0  0  0
    3.9432   -4.7336  158.4806 C   0  0  0  0  0  0  0  0  0  0  0  0
    5.1062   -4.6931  158.0251 O   0  0  0  0  0  0  0  0  0  0  0  0
    2.9983   -3.5789  158.6310 C   0  0  0  0  0  0  0  0  0  0  0  0
    3.4477   -2.1609  158.2859 C   0  0  0  0  0  0  0  0  0  0  0  0
    4.0327   -6.6912  158.9617 H   0  0  0  0  0  0  0  0  0  0  0  0
   -2.2853   -1.7505  153.0453 O   0  0  0  0  0  0  0  0  0  0  0  0
   -1.1879   -0.8688  152.3471 P   0  0  0  0  0  0  0  0  0  0  0  0
   -0.2260   -0.2887  153.3447 O   0  0  0  0  0  0  0  0  0  0  0  0
   -1.9054   -0.0459  151.3946 O   0  0  0  0  0  0  0  0  0  0  0  0
   -0.6773    0.3881  153.8732 H   0  0  0  0  0  0  0  0  0  0  0  0
   -0.2629   -2.0058  151.5265 O   0  0  0  0  0  0  0  0  0  0  0  0
    1.0457   -1.9448  150.6181 P   0  0  0  0  0  0  0  0  0  0  0  0
    1.5853   -0.5623  150.7416 O   0  0  0  0  0  0  0  0  0  0  0  0
    2.0317   -2.9956  150.9607 O   0  0  0  0  0  0  0  0  0  0  0  0
    2.0038   -0.4550  151.6100 H   0  0  0  0  0  0  0  0  0  0  0  0
    0.3282   -2.2443  149.2217 O   0  0  0  0  0  0  0  0  0  0  0  0
   -0.0042   -3.4188  148.5747 C   0  0  0  0  0  0  0  0  0  0  0  0
    0.0490   -3.2044  147.0467 C   0  0  0  0  0  0  0  0  0  0  0  0
   -1.1578   -3.5412  146.3714 O   0  0  0  0  0  0  0  0  0  0  0  0
   -1.6695   -2.3684  145.7125 C   0  0  0  0  0  0  0  0  0  0  0  0
   -0.9117   -1.1729  146.3777 C   0  0  0  0  0  0  0  0  0  0  0  0
   -0.7552    0.0417  145.5828 O   0  0  0  0  0  0  0  0  0  0  0  0
    0.4351   -1.7840  146.6508 C   0  0  0  0  0  0  0  0  0  0  0  0
    1.0830   -1.9562  145.3734 O   0  0  0  0  0  0  0  0  0  0  0  0
   -0.2580   -0.1622  144.7753 H   0  0  0  0  0  0  0  0  0  0  0  0
    0.5031   -2.4612  144.7822 H   0  0  0  0  0  0  0  0  0  0  0  0
   -3.2069   -2.2897  145.8404 N   0  0  0  0  0  0  0  0  0  0  0  0
   -4.0406   -1.2094  145.6425 C   0  0  0  0  0  0  0  0  0  0  0  0
   -3.6812    0.0547  145.2749 N   0  0  0  0  0  0  0  0  0  0  0  0
   -4.7779    0.8327  145.1425 C   0  0  0  0  0  0  0  0  0  0  0  0
   -6.0688    0.5061  145.3793 N   0  0  0  0  0  0  0  0  0  0  0  0
   -6.3714   -0.7095  145.9009 C   0  0  0  0  0  0  0  0  0  0  0  0
   -7.6205   -1.0351  146.2896 N   0  0  0  0  0  0  0  0  0  0  0  0
   -5.3073   -1.6259  145.9765 C   0  0  0  0  0  0  0  0  0  0  0  0
   -5.2980   -2.9388  146.3610 N   0  0  0  0  0  0  0  0  0  0  0  0
   -4.0478   -3.2953  146.2086 C   0  0  0  0  0  0  0  0  0  0  0  0
   -8.3449   -0.3717  146.2246 H   0  0  0  0  0  0  0  0  0  0  0  0
   -7.8083   -1.9364  146.6384 H   0  0  0  0  0  0  0  0  0  0  0  0
 24 25  1  0  0  0
 24 26  1  0  0  0
 24 19  1  0  0  0
 25 31  2  0  0  0
 26 27  2  0  0  0
 26 28  1  0  0  0
 28 29  1  0  0  0
 29 30  2  0  0  0
 29 31  1  0  0  0
 31 32  1  0  0  0
 16 17  1  0  0  0
 16 15  1  0  0  0
 17 18  1  0  0  0
 17 21  1  0  0  0
 18 19  1  0  0  0
 19 20  1  0  0  0
 20 21  1  0  0  0
 21 22  1  0  0  0
 11 12  1  0  0  0
 11 13  2  0  0  0
 11 15  1  0  0  0
 11 10  1  0  0  0
 10  6  1  0  0  0
  6  7  2  0  0  0
  6  8  1  0  0  0
  6  5  1  0  0  0
  5  1  1  0  0  0
  1  2  2  0  0  0
  1  3  1  0  0  0
  1 34  1  0  0  0
 34 35  1  0  0  0
 35 36  1  0  0  0
 35 37  2  0  0  0
 35 39  1  0  0  0
 39 40  1  0  0  0
 40 41  1  0  0  0
 40 42  2  0  0  0
 40 44  1  0  0  0
 44 45  1  0  0  0
 45 46  1  0  0  0
 46 47  1  0  0  0
 46 51  1  0  0  0
 47 48  1  0  0  0
 48 49  1  0  0  0
 48 55  1  0  0  0
 49 50  1  0  0  0
 49 51  1  0  0  0
 51 52  1  0  0  0
 55 56  1  0  0  0
 55 64  1  0  0  0
 56 57  1  0  0  0
 56 62  2  0  0  0
 57 58  2  0  0  0
 58 59  1  0  0  0
 59 60  2  0  0  0
 60 61  1  0  0  0
 60 62  1  0  0  0
 62 63  1  0  0  0
 63 64  2  0  0  0
 28 33  1  0  0  0
 22 23  1  0  0  0
 12 14  1  0  0  0
  8  9  1  0  0  0
  3  4  1  0  0  0
 36 38  1  0  0  0
 41 43  1  0  0  0
 50 53  1  0  0  0
 52 54  1  0  0  0
 61 65  1  0  0  0
 61 66  1  0  0  0
M  END
> <minimizedAffinity>
-11.70778

$$$$
3TMK_T5A_A_217


 66 70  0  0  0  0  0  0  0  0999 V2000
   -3.4126    0.0720  153.1093 P   0  0  0  0  0  0  0  0  0  0  0  0
   -4.4053    0.5754  152.1525 O   0  0  0  0  0  0  0  0  0  0  0  0
   -2.9068    0.9156  154.2353 O   0  0  0  0  0  0  0  0  0  0  0  0
   -3.6555    1.2272  154.7675 H   0  0  0  0  0  0  0  0  0  0  0  0
   -3.6209   -1.4446  153.3973 O   0  0  0  0  0  0  0  0  0  0  0  0
   -3.7484   -2.4348  154.5879 P   0  0  0  0  0  0  0  0  0  0  0  0
   -5.1529   -2.4359  155.0640 O   0  0  0  0  0  0  0  0  0  0  0  0
   -3.1349   -3.7531  154.2364 O   0  0  0  0  0  0  0  0  0  0  0  0
   -3.2216   -4.3606  154.9876 H   0  0  0  0  0  0  0  0  0  0  0  0
   -2.7259   -1.8922  155.7614 O   0  0  0  0  0  0  0  0  0  0  0  0
   -2.4797   -2.2955  157.2683 P   0  0  0  0  0  0  0  0  0  0  0  0
   -3.3627   -1.4551  158.1424 O   0  0  0  0  0  0  0  0  0  0  0  0
   -2.6557   -3.7706  157.3885 O   0  0  0  0  0  0  0  0  0  0  0  0
   -3.2199   -1.6943  159.0715 H   0  0  0  0  0  0  0  0  0  0  0  0
   -0.9207   -1.9647  157.3647 O   0  0  0  0  0  0  0  0  0  0  0  0
    0.0882   -2.9448  157.1488 C   0  0  0  0  0  0  0  0  0  0  0  0
    0.8837   -3.1046  158.3844 C   0  0  0  0  0  0  0  0  0  0  0  0
    0.7459   -4.4973  158.7063 O   0  0  0  0  0  0  0  0  0  0  0  0
    1.9278   -4.7129  159.4962 C   0  0  0  0  0  0  0  0  0  0  0  0
    3.0140   -4.1198  158.5538 C   0  0  0  0  0  0  0  0  0  0  0  0
    2.3517   -2.8496  158.0837 C   0  0  0  0  0  0  0  0  0  0  0  0
    2.9151   -1.8239  158.8394 O   0  0  0  0  0  0  0  0  0  0  0  0
    2.8261   -2.0310  159.7828 H   0  0  0  0  0  0  0  0  0  0  0  0
    2.0717   -6.1404  159.7637 N   0  0  0  0  0  0  0  0  0  0  0  0
    3.0078   -6.8839  159.0961 C   0  0  0  0  0  0  0  0  0  0  0  0
    1.1381   -6.7280  160.6317 C   0  0  0  0  0  0  0  0  0  0  0  0
    0.3264   -6.0939  161.2919 O   0  0  0  0  0  0  0  0  0  0  0  0
    1.1801   -8.0825  160.7102 N   0  0  0  0  0  0  0  0  0  0  0  0
    1.9843   -8.9403  159.9900 C   0  0  0  0  0  0  0  0  0  0  0  0
    1.8163  -10.1760  160.0709 O   0  0  0  0  0  0  0  0  0  0  0  0
    3.0208   -8.2278  159.1734 C   0  0  0  0  0  0  0  0  0  0  0  0
    4.0654   -9.0179  158.3883 C   0  0  0  0  0  0  0  0  0  0  0  0
    0.5654   -8.5006  161.3557 H   0  0  0  0  0  0  0  0  0  0  0  0
   -2.0350   -0.3942  152.2811 O   0  0  0  0  0  0  0  0  0  0  0  0
   -0.6587   -1.0729  152.6195 P   0  0  0  0  0  0  0  0  0  0  0  0
   -0.7540   -2.5715  152.5741 O   0  0  0  0  0  0  0  0  0  0  0  0
   -0.1558   -0.3640  153.7786 O   0  0  0  0  0  0  0  0  0  0  0  0
   -1.2865   -2.8844  153.3220 H   0  0  0  0  0  0  0  0  0  0  0  0
    0.2808   -0.6993  151.2779 O   0  0  0  0  0  0  0  0  0  0  0  0
    1.2463   -1.5276  150.3172 P   0  0  0  0  0  0  0  0  0  0  0  0
    1.9536   -0.5328  149.4641 O   0  0  0  0  0  0  0  0  0  0  0  0
    2.1617   -2.4253  151.0589 O   0  0  0  0  0  0  0  0  0  0  0  0
    2.6273   -0.0757  149.9914 H   0  0  0  0  0  0  0  0  0  0  0  0
    0.1062   -2.3490  149.5556 O   0  0  0  0  0  0  0  0  0  0  0  0
    0.1284   -3.1645  148.4406 C   0  0  0  0  0  0  0  0  0  0  0  0
   -1.1050   -2.8738  147.5587 C   0  0  0  0  0  0  0  0  0  0  0  0
   -0.9022   -1.8419  146.5997 O   0  0  0  0  0  0  0  0  0  0  0  0
   -1.0845   -2.3858  145.2798 C   0  0  0  0  0  0  0  0  0  0  0  0
   -1.0029   -3.9358  145.4708 C   0  0  0  0  0  0  0  0  0  0  0  0
   -1.7025   -4.7652  144.4940 O   0  0  0  0  0  0  0  0  0  0  0  0
   -1.6272   -4.1057  146.8285 C   0  0  0  0  0  0  0  0  0  0  0  0
   -3.0361   -3.8342  146.6778 O   0  0  0  0  0  0  0  0  0  0  0  0
   -2.6488   -4.5526  144.5079 H   0  0  0  0  0  0  0  0  0  0  0  0
   -3.1554   -2.9647  146.2648 H   0  0  0  0  0  0  0  0  0  0  0  0
   -0.0371   -1.8156  144.2980 N   0  0  0  0  0  0  0  0  0  0  0  0
    0.4907   -2.3901  143.1610 C   0  0  0  0  0  0  0  0  0  0  0  0
    0.1904   -3.6145  142.6388 N   0  0  0  0  0  0  0  0  0  0  0  0
    0.8803   -3.8170  141.4949 C   0  0  0  0  0  0  0  0  0  0  0  0
    1.7969   -3.0080  140.9166 N   0  0  0  0  0  0  0  0  0  0  0  0
    2.1903   -1.8743  141.5502 C   0  0  0  0  0  0  0  0  0  0  0  0
    3.1997   -1.1072  141.0922 N   0  0  0  0  0  0  0  0  0  0  0  0
    1.4537   -1.5262  142.6965 C   0  0  0  0  0  0  0  0  0  0  0  0
    1.5351   -0.4190  143.4960 N   0  0  0  0  0  0  0  0  0  0  0  0
    0.5984   -0.6149  144.3892 C   0  0  0  0  0  0  0  0  0  0  0  0
    3.6970   -1.3775  140.2867 H   0  0  0  0  0  0  0  0  0  0  0  0
    3.4396   -0.2767  141.5633 H   0  0  0  0  0  0  0  0  0  0  0  0
 24 25  1  0  0  0
 24 26  1  0  0  0
 24 19  1  0  0  0
 25 31  2  0  0  0
 26 27  2  0  0  0
 26 28  1  0  0  0
 28 29  1  0  0  0
 29 30  2  0  0  0
 29 31  1  0  0  0
 31 32  1  0  0  0
 16 17  1  0  0  0
 16 15  1  0  0  0
 17 18  1  0  0  0
 17 21  1  0  0  0
 18 19  1  0  0  0
 19 20  1  0  0  0
 20 21  1  0  0  0
 21 22  1  0  0  0
 11 12  1  0  0  0
 11 13  2  0  0  0
 11 15  1  0  0  0
 11 10  1  0  0  0
 10  6  1  0  0  0
  6  7  2  0  0  0
  6  8  1  0  0  0
  6  5  1  0  0  0
  5  1  1  0  0  0
  1  2  2  0  0  0
  1  3  1  0  0  0
  1 34  1  0  0  0
 34 35  1  0  0  0
 35 36  1  0  0  0
 35 37  2  0  0  0
 35 39  1  0  0  0
 39 40  1  0  0  0
 40 41  1  0  0  0
 40 42  2  0  0  0
 40 44  1  0  0  0
 44 45  1  0  0  0
 45 46  1  0  0  0
 46 47  1  0  0  0
 46 51  1  0  0  0
 47 48  1  0  0  0
 48 49  1  0  0  0
 48 55  1  0  0  0
 49 50  1  0  0  0
 49 51  1  0  0  0
 51 52  1  0  0  0
 55 56  1  0  0  0
 55 64  1  0  0  0
 56 57  1  0  0  0
 56 62  2  0  0  0
 57 58  2  0  0  0
 58 59  1  0  0  0
 59 60  2  0  0  0
 60 61  1  0  0  0
 60 62  1  0  0  0
 62 63  1  0  0  0
 63 64  2  0  0  0
 28 33  1  0  0  0
 22 23  1  0  0  0
 12 14  1  0  0  0
  8  9  1  0  0  0
  3  4  1  0  0  0
 36 38  1  0  0  0
 41 43  1  0  0  0
 50 53  1  0  0  0
 52 54  1  0  0  0
 61 65  1  0  0  0
 61 66  1  0  0  0
M  END
> <minimizedAffinity>
-11.65705

$$$$
3TMK_T5A_A_217


 66 70  0  0  0  0  0  0  0  0999 V2000
    0.5980   -1.9626  147.6992 P   0  0  0  0  0  0  0  0  0  0  0  0
    0.7166   -0.5068  147.5551 O   0  0  0  0  0  0  0  0  0  0  0  0
    1.3764   -2.9045  146.8376 O   0  0  0  0  0  0  0  0  0  0  0  0
    2.3227   -2.7055  146.9139 H   0  0  0  0  0  0  0  0  0  0  0  0
    0.3910   -2.3701  149.1883 O   0  0  0  0  0  0  0  0  0  0  0  0
    0.9323   -2.0472  150.6085 P   0  0  0  0  0  0  0  0  0  0  0  0
    1.9667   -3.0473  150.9677 O   0  0  0  0  0  0  0  0  0  0  0  0
    1.3024   -0.6013  150.7081 O   0  0  0  0  0  0  0  0  0  0  0  0
    1.6382   -0.4141  151.5987 H   0  0  0  0  0  0  0  0  0  0  0  0
   -0.3561   -2.1342  151.6330 O   0  0  0  0  0  0  0  0  0  0  0  0
   -0.9894   -1.1356  152.6796 P   0  0  0  0  0  0  0  0  0  0  0  0
    0.0752   -0.1872  153.1458 O   0  0  0  0  0  0  0  0  0  0  0  0
   -2.1919   -0.5124  152.0575 O   0  0  0  0  0  0  0  0  0  0  0  0
   -0.3027    0.4318  153.7899 H   0  0  0  0  0  0  0  0  0  0  0  0
   -1.4780   -2.1932  153.7713 O   0  0  0  0  0  0  0  0  0  0  0  0
   -2.8284   -2.6322  153.8663 C   0  0  0  0  0  0  0  0  0  0  0  0
   -3.0860   -3.1200  155.2377 C   0  0  0  0  0  0  0  0  0  0  0  0
   -1.7858   -3.4893  155.7229 O   0  0  0  0  0  0  0  0  0  0  0  0
   -1.9863   -3.3893  157.1432 C   0  0  0  0  0  0  0  0  0  0  0  0
   -2.6038   -1.9653  157.2456 C   0  0  0  0  0  0  0  0  0  0  0  0
   -3.5865   -1.9743  156.1022 C   0  0  0  0  0  0  0  0  0  0  0  0
   -4.8358   -2.2004  156.6751 O   0  0  0  0  0  0  0  0  0  0  0  0
   -4.8017   -3.0032  157.2186 H   0  0  0  0  0  0  0  0  0  0  0  0
   -0.7026   -3.5431  157.8204 N   0  0  0  0  0  0  0  0  0  0  0  0
    0.2269   -2.5382  157.7891 C   0  0  0  0  0  0  0  0  0  0  0  0
   -0.4232   -4.7954  158.3895 C   0  0  0  0  0  0  0  0  0  0  0  0
   -1.2436   -5.6974  158.4913 O   0  0  0  0  0  0  0  0  0  0  0  0
    0.8455   -4.9659  158.8410 N   0  0  0  0  0  0  0  0  0  0  0  0
    1.8970   -4.0792  158.7438 C   0  0  0  0  0  0  0  0  0  0  0  0
    3.0473   -4.4286  159.0850 O   0  0  0  0  0  0  0  0  0  0  0  0
    1.4853   -2.7336  158.2256 C   0  0  0  0  0  0  0  0  0  0  0  0
    2.4970   -1.5926  158.1445 C   0  0  0  0  0  0  0  0  0  0  0  0
    1.0370   -5.8211  159.2896 H   0  0  0  0  0  0  0  0  0  0  0  0
   -0.9991   -2.4109  147.4764 O   0  0  0  0  0  0  0  0  0  0  0  0
   -1.8934   -2.9518  146.3030 P   0  0  0  0  0  0  0  0  0  0  0  0
   -2.9783   -3.8606  146.8070 O   0  0  0  0  0  0  0  0  0  0  0  0
   -0.9645   -3.3555  145.2671 O   0  0  0  0  0  0  0  0  0  0  0  0
   -2.5857   -4.6911  147.1185 H   0  0  0  0  0  0  0  0  0  0  0  0
   -2.7290   -1.5808  145.8089 O   0  0  0  0  0  0  0  0  0  0  0  0
   -2.4662   -0.0112  145.9019 P   0  0  0  0  0  0  0  0  0  0  0  0
   -2.3814    0.3210  147.3510 O   0  0  0  0  0  0  0  0  0  0  0  0
   -1.2788    0.4187  145.1277 O   0  0  0  0  0  0  0  0  0  0  0  0
   -1.5342    0.0087  147.7053 H   0  0  0  0  0  0  0  0  0  0  0  0
   -3.8251    0.4560  145.2023 O   0  0  0  0  0  0  0  0  0  0  0  0
   -4.7047    1.4885  145.4652 C   0  0  0  0  0  0  0  0  0  0  0  0
   -5.8694    0.9708  146.3363 C   0  0  0  0  0  0  0  0  0  0  0  0
   -5.5254    0.7650  147.7020 O   0  0  0  0  0  0  0  0  0  0  0  0
   -6.3444    1.6152  148.5252 C   0  0  0  0  0  0  0  0  0  0  0  0
   -6.9349    2.6772  147.5407 C   0  0  0  0  0  0  0  0  0  0  0  0
   -8.2065    3.2928  147.9091 O   0  0  0  0  0  0  0  0  0  0  0  0
   -7.1029    1.8650  146.2861 C   0  0  0  0  0  0  0  0  0  0  0  0
   -8.1914    0.9486  146.5239 O   0  0  0  0  0  0  0  0  0  0  0  0
   -8.8873    2.6064  147.9875 H   0  0  0  0  0  0  0  0  0  0  0  0
   -8.0176    0.4430  147.3333 H   0  0  0  0  0  0  0  0  0  0  0  0
   -5.5220    2.2192  149.6850 N   0  0  0  0  0  0  0  0  0  0  0  0
   -5.3208    1.7249  150.9564 C   0  0  0  0  0  0  0  0  0  0  0  0
   -5.8106    0.5629  151.4778 N   0  0  0  0  0  0  0  0  0  0  0  0
   -5.3688    0.3955  152.7436 C   0  0  0  0  0  0  0  0  0  0  0  0
   -4.6048    1.2336  153.4806 N   0  0  0  0  0  0  0  0  0  0  0  0
   -4.2738    2.4534  152.9868 C   0  0  0  0  0  0  0  0  0  0  0  0
   -3.6385    3.3821  153.7292 N   0  0  0  0  0  0  0  0  0  0  0  0
   -4.6005    2.6773  151.6374 C   0  0  0  0  0  0  0  0  0  0  0  0
   -4.3279    3.7463  150.8283 N   0  0  0  0  0  0  0  0  0  0  0  0
   -4.8439    3.3998  149.6763 C   0  0  0  0  0  0  0  0  0  0  0  0
   -3.4231    3.1959  154.6716 H   0  0  0  0  0  0  0  0  0  0  0  0
   -3.3899    4.2465  153.3289 H   0  0  0  0  0  0  0  0  0  0  0  0
 24 25  1  0  0  0
 24 26  1  0  0  0
 24 19  1  0  0  0
 25 31  2  0  0  0
 26 27  2  0  0  0
 26 28  1  0  0  0
 28 29  1  0  0  0
 29 30  2  0  0  0
 29 31  1  0  0  0
 31 32  1  0  0  0
 16 17  1  0  0  0
 16 15  1  0  0  0
 17 18  1  0  0  0
 17 21  1  0  0  0
 18 19  1  0  0  0
 19 20  1  0  0  0
 20 21  1  0  0  0
 21 22  1  0  0  0
 11 12  1  0  0  0
 11 13  2  0  0  0
 11 15  1  0  0  0
 11 10  1  0  0  0
 10  6  1  0  0  0
  6  7  2  0  0  0
  6  8  1  0  0  0
  6  5  1  0  0  0
  5  1  1  0  0  0
  1  2  2  0  0  0
  1  3  1  0  0  0
  1 34  1  0  0  0
 34 35  1  0  0  0
 35 36  1  0  0  0
 35 37  2  0  0  0
 35 39  1  0  0  0
 39 40  1  0  0  0
 40 41  1  0  0  0
 40 42  2  0  0  0
 40 44  1  0  0  0
 44 45  1  0  0  0
 45 46  1  0  0  0
 46 47  1  0  0  0
 46 51  1  0  0  0
 47 48  1  0  0  0
 48 49  1  0  0  0
 48 55  1  0  0  0
 49 50  1  0  0  0
 49 51  1  0  0  0
 51 52  1  0  0  0
 55 56  1  0  0  0
 55 64  1  0  0  0
 56 57  1  0  0  0
 56 62  2  0  0  0
 57 58  2  0  0  0
 58 59  1  0  0  0
 59 60  2  0  0  0
 60 61  1  0  0  0
 60 62  1  0  0  0
 62 63  1  0  0  0
 63 64  2  0  0  0
 28 33  1  0  0  0
 22 23  1  0  0  0
 12 14  1  0  0  0
  8  9  1  0  0  0
  3  4  1  0  0  0
 36 38  1  0  0  0
 41 43  1  0  0  0
 50 53  1  0  0  0
 52 54  1  0  0  0
 61 65  1  0  0  0
 61 66  1  0  0  0
M  END
> <minimizedAffinity>
-11.47367

$$$$
3TMK_T5A_A_217


 66 70  0  0  0  0  0  0  0  0999 V2000
   -2.6468   -2.1551  154.0696 P   0  0  0  0  0  0  0  0  0  0  0  0
   -3.3706   -3.4318  154.0875 O   0  0  0  0  0  0  0  0  0  0  0  0
   -1.8326   -1.6959  155.2364 O   0  0  0  0  0  0  0  0  0  0  0  0
   -1.1736   -2.3726  155.4572 H   0  0  0  0  0  0  0  0  0  0  0  0
   -2.0925   -1.8373  152.6490 O   0  0  0  0  0  0  0  0  0  0  0  0
   -0.9429   -1.0553  151.9553 P   0  0  0  0  0  0  0  0  0  0  0  0
   -1.5202   -0.1874  150.9004 O   0  0  0  0  0  0  0  0  0  0  0  0
   -0.0613   -0.4105  152.9773 O   0  0  0  0  0  0  0  0  0  0  0  0
    0.6509    0.0735  152.5308 H   0  0  0  0  0  0  0  0  0  0  0  0
    0.0676   -2.1840  151.3058 O   0  0  0  0  0  0  0  0  0  0  0  0
    1.3570   -2.1029  150.3976 P   0  0  0  0  0  0  0  0  0  0  0  0
    1.4628   -0.7169  149.8338 O   0  0  0  0  0  0  0  0  0  0  0  0
    2.5212   -2.5710  151.2019 O   0  0  0  0  0  0  0  0  0  0  0  0
    2.2522   -0.6552  149.2735 H   0  0  0  0  0  0  0  0  0  0  0  0
    0.9884   -3.2381  149.3371 O   0  0  0  0  0  0  0  0  0  0  0  0
   -0.1156   -3.1286  148.4458 C   0  0  0  0  0  0  0  0  0  0  0  0
    0.0374   -1.9056  147.6299 C   0  0  0  0  0  0  0  0  0  0  0  0
    0.5665   -2.3853  146.3840 O   0  0  0  0  0  0  0  0  0  0  0  0
    0.1577   -1.3348  145.4915 C   0  0  0  0  0  0  0  0  0  0  0  0
   -1.3556   -1.2374  145.8380 C   0  0  0  0  0  0  0  0  0  0  0  0
   -1.3305   -1.3076  147.3438 C   0  0  0  0  0  0  0  0  0  0  0  0
   -1.4800    0.0038  147.7889 O   0  0  0  0  0  0  0  0  0  0  0  0
   -0.8065    0.5650  147.3737 H   0  0  0  0  0  0  0  0  0  0  0  0
    0.4399   -1.7366  144.1171 N   0  0  0  0  0  0  0  0  0  0  0  0
    0.0330   -2.9578  143.6503 C   0  0  0  0  0  0  0  0  0  0  0  0
    1.2418   -0.8779  143.3491 C   0  0  0  0  0  0  0  0  0  0  0  0
    1.5759    0.2441  143.7048 O   0  0  0  0  0  0  0  0  0  0  0  0
    1.6427   -1.3660  142.1476 N   0  0  0  0  0  0  0  0  0  0  0  0
    1.4076   -2.6230  141.6320 C   0  0  0  0  0  0  0  0  0  0  0  0
    1.9564   -2.9781  140.5668 O   0  0  0  0  0  0  0  0  0  0  0  0
    0.4567   -3.4312  142.4635 C   0  0  0  0  0  0  0  0  0  0  0  0
    0.0002   -4.8115  141.9960 C   0  0  0  0  0  0  0  0  0  0  0  0
    2.1609   -0.7518  141.5789 H   0  0  0  0  0  0  0  0  0  0  0  0
   -3.7313   -0.9098  153.7971 O   0  0  0  0  0  0  0  0  0  0  0  0
   -3.8425    0.6198  154.1396 P   0  0  0  0  0  0  0  0  0  0  0  0
   -4.7465    1.3384  153.1787 O   0  0  0  0  0  0  0  0  0  0  0  0
   -2.4850    1.0550  154.3982 O   0  0  0  0  0  0  0  0  0  0  0  0
   -4.3193    1.3893  152.3094 H   0  0  0  0  0  0  0  0  0  0  0  0
   -4.7175    0.6179  155.5737 O   0  0  0  0  0  0  0  0  0  0  0  0
   -4.3365    0.6169  157.1216 P   0  0  0  0  0  0  0  0  0  0  0  0
   -2.9630    0.0502  157.2215 O   0  0  0  0  0  0  0  0  0  0  0  0
   -4.4700    1.9532  157.7464 O   0  0  0  0  0  0  0  0  0  0  0  0
   -2.3192    0.7064  156.9118 H   0  0  0  0  0  0  0  0  0  0  0  0
   -5.4906   -0.3769  157.6062 O   0  0  0  0  0  0  0  0  0  0  0  0
   -5.4631   -1.6457  158.1523 C   0  0  0  0  0  0  0  0  0  0  0  0
   -4.9988   -2.6612  157.0862 C   0  0  0  0  0  0  0  0  0  0  0  0
   -3.6189   -2.9998  157.1696 O   0  0  0  0  0  0  0  0  0  0  0  0
   -3.4966   -4.4128  157.4143 C   0  0  0  0  0  0  0  0  0  0  0  0
   -4.9155   -4.8596  157.8970 C   0  0  0  0  0  0  0  0  0  0  0  0
   -5.2879   -6.2531  157.6709 O   0  0  0  0  0  0  0  0  0  0  0  0
   -5.8069   -3.9537  157.0930 C   0  0  0  0  0  0  0  0  0  0  0  0
   -5.7335   -4.4024  155.7239 O   0  0  0  0  0  0  0  0  0  0  0  0
   -5.2668   -6.4432  156.7199 H   0  0  0  0  0  0  0  0  0  0  0  0
   -4.8053   -4.4371  155.4443 H   0  0  0  0  0  0  0  0  0  0  0  0
   -2.3662   -4.7022  158.4264 N   0  0  0  0  0  0  0  0  0  0  0  0
   -1.0407   -4.3251  158.3792 C   0  0  0  0  0  0  0  0  0  0  0  0
   -0.4252   -3.5904  157.4079 N   0  0  0  0  0  0  0  0  0  0  0  0
    0.8726   -3.3894  157.7254 C   0  0  0  0  0  0  0  0  0  0  0  0
    1.5553   -3.8615  158.7932 N   0  0  0  0  0  0  0  0  0  0  0  0
    0.9528   -4.7234  159.6507 C   0  0  0  0  0  0  0  0  0  0  0  0
    1.6246   -5.3353  160.6465 N   0  0  0  0  0  0  0  0  0  0  0  0
   -0.4280   -4.9113  159.4610 C   0  0  0  0  0  0  0  0  0  0  0  0
   -1.3306   -5.6303  160.1960 N   0  0  0  0  0  0  0  0  0  0  0  0
   -2.4647   -5.4271  159.5747 C   0  0  0  0  0  0  0  0  0  0  0  0
    2.5914   -5.1838  160.7537 H   0  0  0  0  0  0  0  0  0  0  0  0
    1.1483   -5.9337  161.2665 H   0  0  0  0  0  0  0  0  0  0  0  0
 24 25  1  0  0  0
 24 26  1  0  0  0
 24 19  1  0  0  0
 25 31  2  0  0  0
 26 27  2  0  0  0
 26 28  1  0  0  0
 28 29  1  0  0  0
 29 30  2  0  0  0
 29 31  1  0  0  0
 31 32  1  0  0  0
 16 17  1  0  0  0
 16 15  1  0  0  0
 17 18  1  0  0  0
 17 21  1  0  0  0
 18 19  1  0  0  0
 19 20  1  0  0  0
 20 21  1  0  0  0
 21 22  1  0  0  0
 11 12  1  0  0  0
 11 13  2  0  0  0
 11 15  1  0  0  0
 11 10  1  0  0  0
 10  6  1  0  0  0
  6  7  2  0  0  0
  6  8  1  0  0  0
  6  5  1  0  0  0
  5  1  1  0  0  0
  1  2  2  0  0  0
  1  3  1  0  0  0
  1 34  1  0  0  0
 34 35  1  0  0  0
 35 36  1  0  0  0
 35 37  2  0  0  0
 35 39  1  0  0  0
 39 40  1  0  0  0
 40 41  1  0  0  0
 40 42  2  0  0  0
 40 44  1  0  0  0
 44 45  1  0  0  0
 45 46  1  0  0  0
 46 47  1  0  0  0
 46 51  1  0  0  0
 47 48  1  0  0  0
 48 49  1  0  0  0
 48 55  1  0  0  0
 49 50  1  0  0  0
 49 51  1  0  0  0
 51 52  1  0  0  0
 55 56  1  0  0  0
 55 64  1  0  0  0
 56 57  1  0  0  0
 56 62  2  0  0  0
 57 58  2  0  0  0
 58 59  1  0  0  0
 59 60  2  0  0  0
 60 61  1  0  0  0
 60 62  1  0  0  0
 62 63  1  0  0  0
 63 64  2  0  0  0
 28 33  1  0  0  0
 22 23  1  0  0  0
 12 14  1  0  0  0
  8  9  1  0  0  0
  3  4  1  0  0  0
 36 38  1  0  0  0
 41 43  1  0  0  0
 50 53  1  0  0  0
 52 54  1  0  0  0
 61 65  1  0  0  0
 61 66  1  0  0  0
M  END
> <minimizedAffinity>
-11.44649

$$$$
