3TMK_T5A_A_217
  RCSB PDB12061710543D
Coordinates from PDB:3TMK:A:217 Model:1 without hydrogens
 55 59  0  0  0  0            999 V2000
    4.2900   -1.7260  139.9840   N 0  0  0  0  0  0  0  0  0  0  0  0
    4.5280   -0.4690  140.4720   C 0  0  0  0  0  0  0  0  0  0  0  0
    5.0070   -2.2480  138.8960   C 0  0  0  0  0  0  0  0  0  0  0  0
    4.8670   -3.3860  138.4690   O 0  0  0  0  0  0  0  0  0  0  0  0
    5.8980   -1.4020  138.3190   N 0  0  0  0  0  0  0  0  0  0  0  0
    6.1270   -0.0800  138.6370   C 0  0  0  0  0  0  0  0  0  0  0  0
    6.8850    0.6150  137.9270   O 0  0  0  0  0  0  0  0  0  0  0  0
    5.4030    0.3610  139.8740   C 0  0  0  0  0  0  0  0  0  0  0  0
    5.6150    1.7650  140.4360   C 0  0  0  0  0  0  0  0  0  0  0  0
    0.3640   -1.7110  142.3440   C 0  0  0  0  0  0  0  0  0  0  0  0
    1.2010   -2.5780  141.4880   C 0  0  0  0  0  0  0  0  0  0  0  0
    2.0850   -1.6600  140.8260   O 0  0  0  0  0  0  0  0  0  0  0  0
    3.1850   -2.5270  140.5010   C 0  0  0  0  0  0  0  0  0  0  0  0
    3.4540   -3.1800  141.8870   C 0  0  0  0  0  0  0  0  0  0  0  0
    2.0550   -3.4850  142.3590   C 0  0  0  0  0  0  0  0  0  0  0  0
    1.8610   -4.8440  142.1230   O 0  0  0  0  0  0  0  0  0  0  0  0
    0.5740   -0.2150  144.5230   P 0  0  0  0  0  0  0  0  0  0  0  0
   -0.4000    0.8180  144.0390   O 0  0  0  0  0  0  0  0  0  0  0  0
    1.7070    0.2920  145.3480   O 0  0  0  0  0  0  0  0  0  0  0  0
    1.1650   -1.1710  143.3890   O 0  0  0  0  0  0  0  0  0  0  0  0
   -0.2090   -1.2920  145.3720   O 0  0  0  0  0  0  0  0  0  0  0  0
   -1.3500   -1.2000  146.5580   P 0  0  0  0  0  0  0  0  0  0  0  0
   -2.6630   -1.6900  146.0730   O 0  0  0  0  0  0  0  0  0  0  0  0
   -1.2530    0.2370  146.9620   O 0  0  0  0  0  0  0  0  0  0  0  0
   -0.8640   -2.1200  147.7120   O 0  0  0  0  0  0  0  0  0  0  0  0
    0.3250   -3.0530  148.0890   P 0  0  0  0  0  0  0  0  0  0  0  0
   -0.0620   -4.4670  148.0180   O 0  0  0  0  0  0  0  0  0  0  0  0
    1.6970   -2.5930  147.7130   O 0  0  0  0  0  0  0  0  0  0  0  0
    0.1100   -2.5000  149.6540   O 0  0  0  0  0  0  0  0  0  0  0  0
    0.9870   -1.8290  150.7720   P 0  0  0  0  0  0  0  0  0  0  0  0
    1.1030   -0.3450  150.5690   O 0  0  0  0  0  0  0  0  0  0  0  0
    2.1480   -2.6840  150.9140   O 0  0  0  0  0  0  0  0  0  0  0  0
    0.0170   -1.9630  152.1370   O 0  0  0  0  0  0  0  0  0  0  0  0
   -0.8840   -0.9520  152.9780   P 0  0  0  0  0  0  0  0  0  0  0  0
    0.0520   -0.0940  153.7560   O 0  0  0  0  0  0  0  0  0  0  0  0
   -1.8250   -0.1820  152.1320   O 0  0  0  0  0  0  0  0  0  0  0  0
   -1.6450   -2.0510  153.8540   O 0  0  0  0  0  0  0  0  0  0  0  0
   -2.5910   -3.0070  153.5380   C 0  0  0  0  0  0  0  0  0  0  0  0
   -3.3330   -3.4480  154.8180   C 0  0  0  0  0  0  0  0  0  0  0  0
   -2.5140   -4.1400  155.7540   O 0  0  0  0  0  0  0  0  0  0  0  0
   -2.4840   -3.4000  156.9880   C 0  0  0  0  0  0  0  0  0  0  0  0
   -3.0080   -1.9750  156.6130   C 0  0  0  0  0  0  0  0  0  0  0  0
   -3.6380   -1.1960  157.6750   O 0  0  0  0  0  0  0  0  0  0  0  0
   -4.0170   -2.2960  155.5450   C 0  0  0  0  0  0  0  0  0  0  0  0
   -5.1340   -2.9300  156.2020   O 0  0  0  0  0  0  0  0  0  0  0  0
   -1.0670   -3.4090  157.6030   N 0  0  0  0  0  0  0  0  0  0  0  0
   -0.5260   -4.2800  158.5250   C 0  0  0  0  0  0  0  0  0  0  0  0
   -1.1370   -5.3540  159.1040   N 0  0  0  0  0  0  0  0  0  0  0  0
   -0.2780   -5.9920  159.9290   C 0  0  0  0  0  0  0  0  0  0  0  0
    0.9930   -5.6500  160.2400   N 0  0  0  0  0  0  0  0  0  0  0  0
    1.5110   -4.4860  159.7730   C 0  0  0  0  0  0  0  0  0  0  0  0
    2.7160   -4.0260  160.1650   N 0  0  0  0  0  0  0  0  0  0  0  0
    0.7290   -3.8050  158.8230   C 0  0  0  0  0  0  0  0  0  0  0  0
    1.0000   -2.6730  158.1040   N 0  0  0  0  0  0  0  0  0  0  0  0
   -0.0670   -2.5170  157.3620   C 0  0  0  0  0  0  0  0  0  0  0  0
  1  2  1  0  0  0  0
  1  3  1  0  0  0  0
  1 13  1  0  0  0  0
  2  8  2  0  0  0  0
  3  4  2  0  0  0  0
  3  5  1  0  0  0  0
  5  6  1  0  0  0  0
  6  7  2  0  0  0  0
  6  8  1  0  0  0  0
  8  9  1  0  0  0  0
 10 11  1  0  0  0  0
 10 20  1  0  0  0  0
 11 12  1  0  0  0  0
 11 15  1  0  0  0  0
 12 13  1  0  0  0  0
 13 14  1  0  0  0  0
 14 15  1  0  0  0  0
 15 16  1  0  0  0  0
 17 18  1  0  0  0  0
 17 19  2  0  0  0  0
 17 20  1  0  0  0  0
 17 21  1  0  0  0  0
 21 22  1  0  0  0  0
 22 23  2  0  0  0  0
 22 24  1  0  0  0  0
 22 25  1  0  0  0  0
 25 26  1  0  0  0  0
 26 27  2  0  0  0  0
 26 28  1  0  0  0  0
 26 29  1  0  0  0  0
 29 30  1  0  0  0  0
 30 31  1  0  0  0  0
 30 32  2  0  0  0  0
 30 33  1  0  0  0  0
 33 34  1  0  0  0  0
 34 35  1  0  0  0  0
 34 36  2  0  0  0  0
 34 37  1  0  0  0  0
 37 38  1  0  0  0  0
 38 39  1  0  0  0  0
 39 40  1  0  0  0  0
 39 44  1  0  0  0  0
 40 41  1  0  0  0  0
 41 42  1  0  0  0  0
 41 46  1  0  0  0  0
 42 43  1  0  0  0  0
 42 44  1  0  0  0  0
 44 45  1  0  0  0  0
 46 47  1  0  0  0  0
 46 55  1  0  0  0  0
 47 48  1  0  0  0  0
 47 53  2  0  0  0  0
 48 49  2  0  0  0  0
 49 50  1  0  0  0  0
 50 51  2  0  0  0  0
 51 52  1  0  0  0  0
 51 53  1  0  0  0  0
 53 54  1  0  0  0  0
 54 55  2  0  0  0  0
A    1
N1B
A    2
C6B
A    3
C2B
A    4
O2B
A    5
N3B
A    6
C4B
A    7
O4B
A    8
C5B
A    9
C7B
A   10
C5E
A   11
C4E
A   12
O4E
A   13
C1E
A   14
C2E
A   15
C3E
A   16
O3E
A   17
PA
A   18
O1A
A   19
O2A
A   20
O5E
A   21
O3A
A   22
PB
A   23
O1B
A   24
O2X
A   25
O3B
A   26
PC
A   27
O1C
A   28
O2C
A   29
O3C
A   30
PD
A   31
O1D
A   32
O2D
A   33
O3D
A   34
PE
A   35
O1E
A   36
O2E
A   37
O5F
A   38
C5F
A   39
C4F
A   40
O4F
A   41
C1F
A   42
C2F
A   43
O2F
A   44
C3F
A   45
O3F
A   46
N9A
A   47
C4A
A   48
N3A
A   49
C2A
A   50
N1A
A   51
C6A
A   52
N6A
A   53
C5A
A   54
N7A
A   55
C8A
M  END
>  <InstanceId>
3TMK_T5A_A_217

>  <ChemCompId>
T5A

>  <PdbId>
3TMK

>  <ChainId>
A

>  <ResidueNumber>
217

>  <InsertionCode>


>  <Model>
1

>  <AltIds>


>  <MissingHeavyAtoms>
0

>  <ObservedFormula>
C20 N7 O23 P5

>  <Name>
P1-(5'-ADENOSYL)P5-(5'-THYMIDYL)PENTAPHOSPHATE

>  <SystematicName>
[[[[[(2R,3S,4R,5R)-5-(6-aminopurin-9-yl)-3,4-dihydroxy-oxolan-2-yl]methoxy-hydroxy-phosphoryl]oxy-hydroxy-phosphoryl]oxy-hydroxy-phosphoryl]oxy-hydroxy-phosphoryl] [(2R,3S,5R)-3-hydroxy-5-(5-methyl-2,4-dioxo-pyrimidin-1-yl)oxolan-2-yl]methyl hydrogen phosphate

>  <Synonyms>


>  <Type>
NON-POLYMER

>  <Formula>
C20 H30 N7 O23 P5

>  <MolecularWeight>
891.354

>  <ModifiedDate>
2011-06-04

>  <Parent>


>  <OneLetterCode>


>  <SubcomponentList>


>  <AmbiguousFlag>
N

>  <InChI>
InChI=1S/C20H30N7O23P5/c1-8-3-26(20(32)25-18(8)31)12-2-9(28)10(45-12)4-43-51(33,34)47-53(37,38)49-55(41,42)50-54(39,40)48-52(35,36)44-5-11-14(29)15(30)19(46-11)27-7-24-13-16(21)22-6-23-17(13)27/h3,6-7,9-12,14-15,19,28-30H,2,4-5H2,1H3,(H,33,34)(H,35,36)(H,37,38)(H,39,40)(H,41,42)(H2,21,22,23)(H,25,31,32)/t9-,10+,11+,12+,14+,15+,19+/m0/s1

>  <InChIKey>
JCFDSPQTEMXXLO-SLFMBYJQSA-N

>  <SMILES>
CC1=CN(C(=O)NC1=O)[C@H]2C[C@@H]([C@H](O2)CO[P@@](=O)(O)O[P@](=O)(O)O[P@@](=O)(O)O[P@@](=O)(O)O[P@](=O)(O)OC[C@@H]3[C@H]([C@H]([C@@H](O3)n4cnc5c4ncnc5N)O)O)O

$$$$
