1LAH_ORN_E_240
  RCSB PDB12061703103D
Coordinates from PDB:1LAH:E:240 Model:1 without hydrogens
  9  8  0  0  0  0            999 V2000
   31.6610   30.0560   67.9460   N 0  0  0  0  0  0  0  0  0  0  0  0
   31.8960   28.7210   67.5140   C 0  0  0  0  0  0  0  0  0  0  0  0
   33.4100   28.4100   67.3660   C 0  0  0  0  0  0  0  0  0  0  0  0
   34.3690   28.8510   68.5040   C 0  0  0  0  0  0  0  0  0  0  0  0
   35.5940   27.9370   68.5380   C 0  0  0  0  0  0  0  0  0  0  0  0
   36.5720   28.3860   69.5370   N 0  0  0  0  0  0  0  0  0  0  0  0
   31.2990   27.9130   68.6750   C 0  0  0  0  0  0  0  0  0  0  0  0
   30.9390   28.4620   69.7170   O 0  0  0  0  0  0  0  0  0  0  0  0
   31.1990   26.7110   68.5430   O 0  0  0  0  0  0  0  0  0  0  0  0
  1  2  1  0  0  0  0
  2  3  1  0  0  0  0
  2  7  1  0  0  0  0
  3  4  1  0  0  0  0
  4  5  1  0  0  0  0
  5  6  1  0  0  0  0
  7  8  2  0  0  0  0
  7  9  1  0  0  0  0
A    1
N
A    2
CA
A    3
CB
A    4
CG
A    5
CD
A    6
NE
A    7
C
A    8
O
A    9
OXT
M  END
>  <InstanceId>
1LAH_ORN_E_240

>  <ChemCompId>
ORN

>  <PdbId>
1LAH

>  <ChainId>
E

>  <ResidueNumber>
240

>  <InsertionCode>


>  <Model>
1

>  <AltIds>


>  <MissingHeavyAtoms>
0

>  <ObservedFormula>
C5 N2 O2

>  <Name>
L-ornithine

>  <SystematicName>
(2S)-2,5-bis(azanyl)pentanoic acid

>  <Synonyms>


>  <Type>
L-PEPTIDE LINKING

>  <Formula>
C5 H12 N2 O2

>  <MolecularWeight>
132.161

>  <ModifiedDate>
2012-03-14

>  <Parent>
ALA

>  <OneLetterCode>
A

>  <SubcomponentList>


>  <AmbiguousFlag>
N

>  <InChI>
InChI=1S/C5H12N2O2/c6-3-1-2-4(7)5(8)9/h4H,1-3,6-7H2,(H,8,9)/t4-/m0/s1

>  <InChIKey>
AHLPHDHHMVZTML-BYPYZUCNSA-N

>  <SMILES>
C(C[C@@H](C(=O)O)N)CN

$$$$
