2FQW_NOS_A_400
  RCSB PDB12061705353D
Coordinates from PDB:2FQW:A:400 Model:1 without hydrogens
 19 21  0  0  0  0            999 V2000
   33.9770   61.4890   10.3450   N 0  0  0  0  0  0  0  0  0  0  0  0
   34.7280   61.5340    9.2430   C 0  0  0  0  0  0  0  0  0  0  0  0
   35.3520   60.5580    8.5640   N 0  0  0  0  0  0  0  0  0  0  0  0
   36.0580   60.8160    7.4740   C 0  0  0  0  0  0  0  0  0  0  0  0
   36.1660   62.1330    7.0050   N 0  0  0  0  0  0  0  0  0  0  0  0
   35.5300   63.1760    7.6970   C 0  0  0  0  0  0  0  0  0  0  0  0
   35.6300   64.3380    7.3000   O 0  0  0  0  0  0  0  0  0  0  0  0
   34.7970   62.8630    8.8390   C 0  0  0  0  0  0  0  0  0  0  0  0
   34.0850   63.5740    9.7130   N 0  0  0  0  0  0  0  0  0  0  0  0
   33.5960   62.7350   10.6260   C 0  0  0  0  0  0  0  0  0  0  0  0
   31.3410   61.3630   13.6360   C 0  0  0  0  0  0  0  0  0  0  0  0
   31.6380   62.7050   13.2340   O 0  0  0  0  0  0  0  0  0  0  0  0
   32.3370   60.3630   13.0370   C 0  0  0  0  0  0  0  0  0  0  0  0
   32.2640   60.4650   11.6030   O 0  0  0  0  0  0  0  0  0  0  0  0
   33.5810   60.2460   11.0590   C 0  0  0  0  0  0  0  0  0  0  0  0
   34.5090   59.9530   12.2430   C 0  0  0  0  0  0  0  0  0  0  0  0
   34.5300   58.5400   12.4790   O 0  0  0  0  0  0  0  0  0  0  0  0
   33.7930   60.6990   13.3670   C 0  0  0  0  0  0  0  0  0  0  0  0
   34.1720   60.0970   14.6080   O 0  0  0  0  0  0  0  0  0  0  0  0
  1  2  1  0  0  0  0
  1 10  1  0  0  0  0
  1 15  1  0  0  0  0
  2  3  1  0  0  0  0
  2  8  2  0  0  0  0
  3  4  2  0  0  0  0
  4  5  1  0  0  0  0
  5  6  2  0  0  0  0
  6  7  1  0  0  0  0
  6  8  1  0  0  0  0
  8  9  1  0  0  0  0
  9 10  2  0  0  0  0
 11 12  1  0  0  0  0
 11 13  1  0  0  0  0
 13 14  1  0  0  0  0
 13 18  1  0  0  0  0
 14 15  1  0  0  0  0
 15 16  1  0  0  0  0
 16 17  1  0  0  0  0
 16 18  1  0  0  0  0
 18 19  1  0  0  0  0
A    1
N9
A    2
C4
A    3
N3
A    4
C2
A    5
N1
A    6
C6
A    7
O6
A    8
C5
A    9
N7
A   10
C8
A   11
C5'
A   12
O5'
A   13
C4'
A   14
O4'
A   15
C1'
A   16
C2'
A   17
O2'
A   18
C3'
A   19
O3'
M  END
>  <InstanceId>
2FQW_NOS_A_400

>  <ChemCompId>
NOS

>  <PdbId>
2FQW

>  <ChainId>
A

>  <ResidueNumber>
400

>  <InsertionCode>


>  <Model>
1

>  <AltIds>


>  <MissingHeavyAtoms>
0

>  <ObservedFormula>
C10 N4 O5

>  <Name>
INOSINE

>  <SystematicName>
(2R,3S,4R,5R)-2-(hydroxymethyl)-5-(6-hydroxypurin-9-yl)oxolane-3,4-diol

>  <Synonyms>


>  <Type>
NON-POLYMER

>  <Formula>
C10 H12 N4 O5

>  <MolecularWeight>
268.226

>  <ModifiedDate>
2011-06-04

>  <Parent>


>  <OneLetterCode>


>  <SubcomponentList>


>  <AmbiguousFlag>
N

>  <InChI>
InChI=1S/C10H12N4O5/c15-1-4-6(16)7(17)10(19-4)14-3-13-5-8(14)11-2-12-9(5)18/h2-4,6-7,10,15-17H,1H2,(H,11,12,18)/t4-,6-,7-,10-/m1/s1

>  <InChIKey>
UGQMRVRMYYASKQ-KQYNXXCUSA-N

>  <SMILES>
c1nc2c(c(n1)O)ncn2[C@H]3[C@@H]([C@@H]([C@H](O3)CO)O)O

$$$$
