3TAO_PGH_A_268


 14 13  0  0  0  0  0  0  0  0999 V2000
  -23.7989    8.1614   12.2630 C   0  0  0  0  0  0  0  0  0  0  0  0
  -25.2581    8.0610   12.6291 C   0  0  0  0  0  0  0  0  0  0  0  0
  -25.6510    7.0089   13.3311 N   0  0  0  0  0  0  0  0  0  0  0  0
  -26.8787    6.9936   13.9202 O   0  0  0  0  0  0  0  0  0  0  0  0
  -26.1456    9.0526   12.2033 O   0  0  0  0  0  0  0  0  0  0  0  0
  -25.0521    6.2334   13.4277 H   0  0  0  0  0  0  0  0  0  0  0  0
  -27.3389    7.8260   13.7300 H   0  0  0  0  0  0  0  0  0  0  0  0
  -23.0834    7.1458   12.9398 O   0  0  0  0  0  0  0  0  0  0  0  0
  -21.7120    7.1510   10.8636 O   0  0  0  0  0  0  0  0  0  0  0  0
  -22.4469    4.9171   11.8435 O   0  0  0  0  0  0  0  0  0  0  0  0
  -20.6481    6.2588   12.9198 O   0  0  0  0  0  0  0  0  0  0  0  0
  -21.9420    6.3178   12.1276 P   0  0  0  0  0  0  0  0  0  0  0  0
  -23.2729    4.9676   11.3375 H   0  0  0  0  0  0  0  0  0  0  0  0
  -20.3351    7.1600   13.0954 H   0  0  0  0  0  0  0  0  0  0  0  0
  2  1  1  0  0  0
  2  3  1  0  0  0
  2  5  2  0  0  0
  1  8  1  0  0  0
  3  4  1  0  0  0
  8 12  1  0  0  0
  9 12  2  0  0  0
 10 12  1  0  0  0
 11 12  1  0  0  0
  3  6  1  0  0  0
  4  7  1  0  0  0
 10 13  1  0  0  0
 11 14  1  0  0  0
M  END
> <minimizedAffinity>
-6.16506

$$$$
3TAO_PGH_A_268


 14 13  0  0  0  0  0  0  0  0999 V2000
  -23.8037    8.2937   12.3045 C   0  0  0  0  0  0  0  0  0  0  0  0
  -25.2619    8.1014   12.6366 C   0  0  0  0  0  0  0  0  0  0  0  0
  -25.6083    7.0102   13.3025 N   0  0  0  0  0  0  0  0  0  0  0  0
  -26.8447    6.9099   13.8645 O   0  0  0  0  0  0  0  0  0  0  0  0
  -26.1956    9.0527   12.2178 O   0  0  0  0  0  0  0  0  0  0  0  0
  -24.9683    6.2674   13.3917 H   0  0  0  0  0  0  0  0  0  0  0  0
  -27.3476    7.7199   13.6862 H   0  0  0  0  0  0  0  0  0  0  0  0
  -23.0455    7.3009   12.9686 O   0  0  0  0  0  0  0  0  0  0  0  0
  -20.7256    6.4018   13.0005 O   0  0  0  0  0  0  0  0  0  0  0  0
  -21.7396    7.1030   10.7709 O   0  0  0  0  0  0  0  0  0  0  0  0
  -22.4634    5.0097   11.9060 O   0  0  0  0  0  0  0  0  0  0  0  0
  -21.9710    6.4313   12.1099 P   0  0  0  0  0  0  0  0  0  0  0  0
  -21.4256    8.0095   10.9139 H   0  0  0  0  0  0  0  0  0  0  0  0
  -22.6077    4.5906   12.7688 H   0  0  0  0  0  0  0  0  0  0  0  0
  2  1  1  0  0  0
  2  3  1  0  0  0
  2  5  2  0  0  0
  1  8  1  0  0  0
  3  4  1  0  0  0
  8 12  1  0  0  0
  9 12  2  0  0  0
 10 12  1  0  0  0
 11 12  1  0  0  0
  3  6  1  0  0  0
  4  7  1  0  0  0
 10 13  1  0  0  0
 11 14  1  0  0  0
M  END
> <minimizedAffinity>
-6.13812

$$$$
3TAO_PGH_A_268


 14 13  0  0  0  0  0  0  0  0999 V2000
  -24.4828    7.1727   12.5092 C   0  0  0  0  0  0  0  0  0  0  0  0
  -24.9220    8.6098   12.3849 C   0  0  0  0  0  0  0  0  0  0  0  0
  -24.1312    9.5462   12.8870 N   0  0  0  0  0  0  0  0  0  0  0  0
  -24.3294   10.8562   12.5723 O   0  0  0  0  0  0  0  0  0  0  0  0
  -26.1433    8.9073   11.7750 O   0  0  0  0  0  0  0  0  0  0  0  0
  -23.3960    9.2937   13.4912 H   0  0  0  0  0  0  0  0  0  0  0  0
  -25.0873   10.9334   11.9719 H   0  0  0  0  0  0  0  0  0  0  0  0
  -23.1563    7.1374   12.9997 O   0  0  0  0  0  0  0  0  0  0  0  0
  -20.7746    6.4174   13.0115 O   0  0  0  0  0  0  0  0  0  0  0  0
  -21.8214    7.1601   10.8108 O   0  0  0  0  0  0  0  0  0  0  0  0
  -22.3914    4.9588   11.8224 O   0  0  0  0  0  0  0  0  0  0  0  0
  -22.0113    6.4005   12.1087 P   0  0  0  0  0  0  0  0  0  0  0  0
  -21.5791    8.0788   11.0062 H   0  0  0  0  0  0  0  0  0  0  0  0
  -22.5101    4.4833   12.6595 H   0  0  0  0  0  0  0  0  0  0  0  0
  2  1  1  0  0  0
  2  3  1  0  0  0
  2  5  2  0  0  0
  1  8  1  0  0  0
  3  4  1  0  0  0
  8 12  1  0  0  0
  9 12  2  0  0  0
 10 12  1  0  0  0
 11 12  1  0  0  0
  3  6  1  0  0  0
  4  7  1  0  0  0
 10 13  1  0  0  0
 11 14  1  0  0  0
M  END
> <minimizedAffinity>
-6.05384

$$$$
3TAO_PGH_A_268


 14 13  0  0  0  0  0  0  0  0999 V2000
  -24.5221    8.4419   11.8629 C   0  0  0  0  0  0  0  0  0  0  0  0
  -25.5432    8.2120   12.9482 C   0  0  0  0  0  0  0  0  0  0  0  0
  -26.0351    9.2715   13.5723 N   0  0  0  0  0  0  0  0  0  0  0  0
  -27.1418    9.1560   14.3575 O   0  0  0  0  0  0  0  0  0  0  0  0
  -25.9178    6.9067   13.2771 O   0  0  0  0  0  0  0  0  0  0  0  0
  -25.5983   10.1476   13.4680 H   0  0  0  0  0  0  0  0  0  0  0  0
  -27.4463    8.2350   14.3534 H   0  0  0  0  0  0  0  0  0  0  0  0
  -23.2284    8.4169   12.4350 O   0  0  0  0  0  0  0  0  0  0  0  0
  -21.7914    7.2690   10.7591 O   0  0  0  0  0  0  0  0  0  0  0  0
  -23.1194    5.8553   12.4108 O   0  0  0  0  0  0  0  0  0  0  0  0
  -21.0998    7.1154   13.1369 O   0  0  0  0  0  0  0  0  0  0  0  0
  -22.2922    7.1073   12.1971 P   0  0  0  0  0  0  0  0  0  0  0  0
  -23.8775    5.8614   11.8056 H   0  0  0  0  0  0  0  0  0  0  0  0
  -20.5786    7.9204   12.9910 H   0  0  0  0  0  0  0  0  0  0  0  0
  2  1  1  0  0  0
  2  3  1  0  0  0
  2  5  2  0  0  0
  1  8  1  0  0  0
  3  4  1  0  0  0
  8 12  1  0  0  0
  9 12  2  0  0  0
 10 12  1  0  0  0
 11 12  1  0  0  0
  3  6  1  0  0  0
  4  7  1  0  0  0
 10 13  1  0  0  0
 11 14  1  0  0  0
M  END
> <minimizedAffinity>
-5.98159

$$$$
3TAO_PGH_A_268


 14 13  0  0  0  0  0  0  0  0999 V2000
  -23.9401    7.1613   12.2206 C   0  0  0  0  0  0  0  0  0  0  0  0
  -22.4525    6.9709   12.0649 C   0  0  0  0  0  0  0  0  0  0  0  0
  -21.7491    6.6670   13.1452 N   0  0  0  0  0  0  0  0  0  0  0  0
  -20.4682    6.2194   13.0294 O   0  0  0  0  0  0  0  0  0  0  0  0
  -21.8631    7.1420   10.8096 O   0  0  0  0  0  0  0  0  0  0  0  0
  -22.1546    6.7652   14.0369 H   0  0  0  0  0  0  0  0  0  0  0  0
  -20.2229    6.1802   12.0918 H   0  0  0  0  0  0  0  0  0  0  0  0
  -24.1786    8.3553   12.9409 O   0  0  0  0  0  0  0  0  0  0  0  0
  -26.4452    7.9278   13.8743 O   0  0  0  0  0  0  0  0  0  0  0  0
  -26.2477    9.0553   11.5982 O   0  0  0  0  0  0  0  0  0  0  0  0
  -25.7249   10.2950   13.6920 O   0  0  0  0  0  0  0  0  0  0  0  0
  -25.6953    8.9414   13.0051 P   0  0  0  0  0  0  0  0  0  0  0  0
  -26.2238    8.1853   11.1700 H   0  0  0  0  0  0  0  0  0  0  0  0
  -25.3694   10.2096   14.5904 H   0  0  0  0  0  0  0  0  0  0  0  0
  2  1  1  0  0  0
  2  3  1  0  0  0
  2  5  2  0  0  0
  1  8  1  0  0  0
  3  4  1  0  0  0
  8 12  1  0  0  0
  9 12  2  0  0  0
 10 12  1  0  0  0
 11 12  1  0  0  0
  3  6  1  0  0  0
  4  7  1  0  0  0
 10 13  1  0  0  0
 11 14  1  0  0  0
M  END
> <minimizedAffinity>
-5.74863

$$$$
3TAO_PGH_A_268


 14 13  0  0  0  0  0  0  0  0999 V2000
  -24.7754    9.0104   12.3477 C   0  0  0  0  0  0  0  0  0  0  0  0
  -24.6570    7.5075   12.3704 C   0  0  0  0  0  0  0  0  0  0  0  0
  -23.6885    6.9502   11.6593 N   0  0  0  0  0  0  0  0  0  0  0  0
  -23.3596    5.6425   11.8495 O   0  0  0  0  0  0  0  0  0  0  0  0
  -25.5731    6.7547   13.1096 O   0  0  0  0  0  0  0  0  0  0  0  0
  -23.2035    7.4845   10.9895 H   0  0  0  0  0  0  0  0  0  0  0  0
  -23.9272    5.2633   12.5387 H   0  0  0  0  0  0  0  0  0  0  0  0
  -26.1449    9.3641   12.3201 O   0  0  0  0  0  0  0  0  0  0  0  0
  -25.8290   11.1564   14.0169 O   0  0  0  0  0  0  0  0  0  0  0  0
  -26.9535    8.9820   14.7231 O   0  0  0  0  0  0  0  0  0  0  0  0
  -28.1575   10.6518   13.3244 O   0  0  0  0  0  0  0  0  0  0  0  0
  -26.8066   10.0377   13.6454 P   0  0  0  0  0  0  0  0  0  0  0  0
  -26.0849    8.5973   14.9194 H   0  0  0  0  0  0  0  0  0  0  0  0
  -28.0509   11.3251   12.6343 H   0  0  0  0  0  0  0  0  0  0  0  0
  2  1  1  0  0  0
  2  3  1  0  0  0
  2  5  2  0  0  0
  1  8  1  0  0  0
  3  4  1  0  0  0
  8 12  1  0  0  0
  9 12  2  0  0  0
 10 12  1  0  0  0
 11 12  1  0  0  0
  3  6  1  0  0  0
  4  7  1  0  0  0
 10 13  1  0  0  0
 11 14  1  0  0  0
M  END
> <minimizedAffinity>
-5.66330

$$$$
3TAO_PGH_A_268


 14 13  0  0  0  0  0  0  0  0999 V2000
  -23.8221    6.3813   11.5184 C   0  0  0  0  0  0  0  0  0  0  0  0
  -22.3664    6.6695   11.7853 C   0  0  0  0  0  0  0  0  0  0  0  0
  -21.8427    6.2236   12.9171 N   0  0  0  0  0  0  0  0  0  0  0  0
  -20.4923    6.2101   13.0927 O   0  0  0  0  0  0  0  0  0  0  0  0
  -21.6284    7.4087   10.8573 O   0  0  0  0  0  0  0  0  0  0  0  0
  -22.4329    5.9000   13.6356 H   0  0  0  0  0  0  0  0  0  0  0  0
  -20.0594    6.5585   12.2977 H   0  0  0  0  0  0  0  0  0  0  0  0
  -24.4793    7.5916   11.1947 O   0  0  0  0  0  0  0  0  0  0  0  0
  -24.1147    9.4037   12.8604 O   0  0  0  0  0  0  0  0  0  0  0  0
  -25.6675    7.4762   13.4639 O   0  0  0  0  0  0  0  0  0  0  0  0
  -26.3744    9.2339   11.8499 O   0  0  0  0  0  0  0  0  0  0  0  0
  -25.2005    8.4338   12.3857 P   0  0  0  0  0  0  0  0  0  0  0  0
  -24.9097    6.9712   13.7981 H   0  0  0  0  0  0  0  0  0  0  0  0
  -26.0635    9.8424   11.1615 H   0  0  0  0  0  0  0  0  0  0  0  0
  2  1  1  0  0  0
  2  3  1  0  0  0
  2  5  2  0  0  0
  1  8  1  0  0  0
  3  4  1  0  0  0
  8 12  1  0  0  0
  9 12  2  0  0  0
 10 12  1  0  0  0
 11 12  1  0  0  0
  3  6  1  0  0  0
  4  7  1  0  0  0
 10 13  1  0  0  0
 11 14  1  0  0  0
M  END
> <minimizedAffinity>
-5.65372

$$$$
3TAO_PGH_A_268


 14 13  0  0  0  0  0  0  0  0999 V2000
  -24.6878    8.6702   12.2053 C   0  0  0  0  0  0  0  0  0  0  0  0
  -25.2079    9.7698   13.0961 C   0  0  0  0  0  0  0  0  0  0  0  0
  -26.4966    9.7638   13.4018 N   0  0  0  0  0  0  0  0  0  0  0  0
  -26.9700   10.5541   14.4048 O   0  0  0  0  0  0  0  0  0  0  0  0
  -24.3346   10.7629   13.5472 O   0  0  0  0  0  0  0  0  0  0  0  0
  -27.1157    9.1848   12.9012 H   0  0  0  0  0  0  0  0  0  0  0  0
  -26.2374   11.0575   14.7930 H   0  0  0  0  0  0  0  0  0  0  0  0
  -23.3013    8.5084   12.4351 O   0  0  0  0  0  0  0  0  0  0  0  0
  -21.8006    7.1894   10.9520 O   0  0  0  0  0  0  0  0  0  0  0  0
  -23.7422    6.0049   12.1000 O   0  0  0  0  0  0  0  0  0  0  0  0
  -21.7194    6.6857   13.3801 O   0  0  0  0  0  0  0  0  0  0  0  0
  -22.6391    7.0370   12.2243 P   0  0  0  0  0  0  0  0  0  0  0  0
  -24.3227    6.2397   11.3592 H   0  0  0  0  0  0  0  0  0  0  0  0
  -21.0183    7.3525   13.4496 H   0  0  0  0  0  0  0  0  0  0  0  0
  2  1  1  0  0  0
  2  3  1  0  0  0
  2  5  2  0  0  0
  1  8  1  0  0  0
  3  4  1  0  0  0
  8 12  1  0  0  0
  9 12  2  0  0  0
 10 12  1  0  0  0
 11 12  1  0  0  0
  3  6  1  0  0  0
  4  7  1  0  0  0
 10 13  1  0  0  0
 11 14  1  0  0  0
M  END
> <minimizedAffinity>
-5.58530

$$$$
3TAO_PGH_A_268


 14 13  0  0  0  0  0  0  0  0999 V2000
  -23.1929    7.7927   12.5609 C   0  0  0  0  0  0  0  0  0  0  0  0
  -23.0346    6.5792   11.6803 C   0  0  0  0  0  0  0  0  0  0  0  0
  -22.2596    5.5957   12.1120 N   0  0  0  0  0  0  0  0  0  0  0  0
  -22.2906    4.3773   11.5045 O   0  0  0  0  0  0  0  0  0  0  0  0
  -23.6800    6.5371   10.4418 O   0  0  0  0  0  0  0  0  0  0  0  0
  -21.6577    5.7464   12.8764 H   0  0  0  0  0  0  0  0  0  0  0  0
  -22.9304    4.3956   10.7757 H   0  0  0  0  0  0  0  0  0  0  0  0
  -24.5404    7.8834   12.9821 O   0  0  0  0  0  0  0  0  0  0  0  0
  -26.2675    9.0652   11.6360 O   0  0  0  0  0  0  0  0  0  0  0  0
  -24.3071   10.4022   12.5633 O   0  0  0  0  0  0  0  0  0  0  0  0
  -26.1417    9.6185   14.0514 O   0  0  0  0  0  0  0  0  0  0  0  0
  -25.3193    9.3024   12.8148 P   0  0  0  0  0  0  0  0  0  0  0  0
  -23.7883   10.1894   11.7718 H   0  0  0  0  0  0  0  0  0  0  0  0
  -26.7851    8.9084   14.2020 H   0  0  0  0  0  0  0  0  0  0  0  0
  2  1  1  0  0  0
  2  3  1  0  0  0
  2  5  2  0  0  0
  1  8  1  0  0  0
  3  4  1  0  0  0
  8 12  1  0  0  0
  9 12  2  0  0  0
 10 12  1  0  0  0
 11 12  1  0  0  0
  3  6  1  0  0  0
  4  7  1  0  0  0
 10 13  1  0  0  0
 11 14  1  0  0  0
M  END
> <minimizedAffinity>
-5.34896

$$$$
3TAO_PGH_A_268


 14 13  0  0  0  0  0  0  0  0999 V2000
  -24.4911    7.7401   11.6173 C   0  0  0  0  0  0  0  0  0  0  0  0
  -24.9367    8.7742   12.6199 C   0  0  0  0  0  0  0  0  0  0  0  0
  -26.0851    8.5747   13.2489 N   0  0  0  0  0  0  0  0  0  0  0  0
  -26.4072    9.3149   14.3456 O   0  0  0  0  0  0  0  0  0  0  0  0
  -24.1503    9.9087   12.8363 O   0  0  0  0  0  0  0  0  0  0  0  0
  -26.7094    7.8873   12.9217 H   0  0  0  0  0  0  0  0  0  0  0  0
  -25.6914    9.9417   14.5343 H   0  0  0  0  0  0  0  0  0  0  0  0
  -23.8378    6.6876   12.3007 O   0  0  0  0  0  0  0  0  0  0  0  0
  -21.8896    6.5193   13.8394 O   0  0  0  0  0  0  0  0  0  0  0  0
  -21.6839    7.9660   11.7524 O   0  0  0  0  0  0  0  0  0  0  0  0
  -21.6537    5.4822   11.5978 O   0  0  0  0  0  0  0  0  0  0  0  0
  -22.2113    6.6770   12.3506 P   0  0  0  0  0  0  0  0  0  0  0  0
  -22.0467    8.7214   12.2411 H   0  0  0  0  0  0  0  0  0  0  0  0
  -21.9978    4.6641   11.9891 H   0  0  0  0  0  0  0  0  0  0  0  0
  2  1  1  0  0  0
  2  3  1  0  0  0
  2  5  2  0  0  0
  1  8  1  0  0  0
  3  4  1  0  0  0
  8 12  1  0  0  0
  9 12  2  0  0  0
 10 12  1  0  0  0
 11 12  1  0  0  0
  3  6  1  0  0  0
  4  7  1  0  0  0
 10 13  1  0  0  0
 11 14  1  0  0  0
M  END
> <minimizedAffinity>
-5.16386

$$$$
