6B96_CZV_A_1003


 26 29  0  0  0  0  0  0  0  0999 V2000
   30.4386   -5.4853   13.9975 N   0  0  0  0  0  0  0  0  0  0  0  0
   30.2693   -5.9664   14.8396 H   0  0  0  0  0  0  0  0  0  0  0  0
   32.6536   -6.4752   13.7686 C   0  0  0  0  0  0  0  0  0  0  0  0
   31.4094   -6.0164   13.2137 C   0  0  0  0  0  0  0  0  0  0  0  0
   34.6519   -7.5051   13.4987 N   0  0  0  0  0  0  0  0  0  0  0  0
   31.6564   -6.8866    9.4914 Cl  0  0  0  0  0  0  0  0  0  0  0  0
   32.0267   -6.7932   11.1742 C   0  0  0  0  0  0  0  0  0  0  0  0
   33.1866   -7.3162   11.5160 N   0  0  0  0  0  0  0  0  0  0  0  0
   33.5511   -7.1732   12.7989 C   0  0  0  0  0  0  0  0  0  0  0  0
   34.5957   -7.1057   14.8016 N   0  0  0  0  0  0  0  0  0  0  0  0
   33.4304   -6.5049   14.9492 C   0  0  0  0  0  0  0  0  0  0  0  0
   31.1239   -6.1709   11.9107 N   0  0  0  0  0  0  0  0  0  0  0  0
   35.4181   -7.9862   13.1104 H   0  0  0  0  0  0  0  0  0  0  0  0
   28.0994   -4.4805   13.8462 C   0  0  0  0  0  0  0  0  0  0  0  0
   28.7507   -4.2777   12.5224 C   0  0  0  0  0  0  0  0  0  0  0  0
   29.6032   -4.2995   13.7761 C   0  0  0  0  0  0  0  0  0  0  0  0
   30.2823   -2.9973   14.1600 C   0  0  0  0  0  0  0  0  0  0  0  0
   30.9054   -1.3806   15.8456 C   0  0  0  0  0  0  0  0  0  0  0  0
   31.4153   -0.9499   13.5509 C   0  0  0  0  0  0  0  0  0  0  0  0
   30.8351   -2.1597   13.1951 C   0  0  0  0  0  0  0  0  0  0  0  0
   31.4513   -0.5424   14.8812 C   0  0  0  0  0  0  0  0  0  0  0  0
   30.3373   -2.5915   15.4921 C   0  0  0  0  0  0  0  0  0  0  0  0
   32.0366    0.7786   15.2681 C   0  0  0  0  0  0  0  0  0  0  0  0
   31.1090    1.7073   15.5271 F   0  0  0  0  0  0  0  0  0  0  0  0
   32.8328    0.6933   16.3441 F   0  0  0  0  0  0  0  0  0  0  0  0
   32.7871    1.3103   14.3081 F   0  0  0  0  0  0  0  0  0  0  0  0
  6  7  1  0  0  0
  7 12  2  0  0  0
  7  8  1  0  0  0
 12  4  1  0  0  0
  8  9  2  0  0  0
  4  1  1  0  0  0
  4  3  2  0  0  0
  9  3  1  0  0  0
  9  5  1  0  0  0
  1 16  1  0  0  0
  3 11  1  0  0  0
  5 10  1  0  0  0
 20 19  2  0  0  0
 20 17  1  0  0  0
 19 21  1  0  0  0
 16 17  1  0  0  0
 16 15  1  0  0  0
 16 14  1  0  0  0
 11 10  2  0  0  0
 17 22  2  0  0  0
 15 14  1  0  0  0
 24 23  1  0  0  0
 21 23  1  0  0  0
 21 18  2  0  0  0
 25 23  1  0  0  0
 23 26  1  0  0  0
 22 18  1  0  0  0
  5 13  1  0  0  0
  1  2  1  0  0  0
M  END
> <minimizedAffinity>
-9.92372

$$$$
6B96_CZV_A_1003


 26 29  0  0  0  0  0  0  0  0999 V2000
   29.0920   -4.2700   13.3567 N   0  0  0  0  0  0  0  0  0  0  0  0
   28.3502   -4.8605   13.6219 H   0  0  0  0  0  0  0  0  0  0  0  0
   28.7616   -3.2109   15.5264 C   0  0  0  0  0  0  0  0  0  0  0  0
   29.3709   -3.2670   14.2257 C   0  0  0  0  0  0  0  0  0  0  0  0
   28.5901   -2.2377   17.5637 N   0  0  0  0  0  0  0  0  0  0  0  0
   31.7860   -0.2940   14.1841 Cl  0  0  0  0  0  0  0  0  0  0  0  0
   30.6541   -1.4700   14.7437 C   0  0  0  0  0  0  0  0  0  0  0  0
   30.2429   -1.2971   15.9833 N   0  0  0  0  0  0  0  0  0  0  0  0
   29.2890   -2.1340   16.4180 C   0  0  0  0  0  0  0  0  0  0  0  0
   27.6645   -3.2390   17.5344 N   0  0  0  0  0  0  0  0  0  0  0  0
   27.7694   -3.7984   16.3441 C   0  0  0  0  0  0  0  0  0  0  0  0
   30.3030   -2.3766   13.8495 N   0  0  0  0  0  0  0  0  0  0  0  0
   28.7322   -1.6516   18.3419 H   0  0  0  0  0  0  0  0  0  0  0  0
   29.6631   -3.5737   10.9706 C   0  0  0  0  0  0  0  0  0  0  0  0
   28.8249   -4.8013   10.8809 C   0  0  0  0  0  0  0  0  0  0  0  0
   29.7323   -4.6053   12.0798 C   0  0  0  0  0  0  0  0  0  0  0  0
   30.8953   -5.5709   12.2181 C   0  0  0  0  0  0  0  0  0  0  0  0
   32.6981   -6.4997   13.5336 C   0  0  0  0  0  0  0  0  0  0  0  0
   32.4000   -7.2099   11.2713 C   0  0  0  0  0  0  0  0  0  0  0  0
   31.3079   -6.3617   11.1491 C   0  0  0  0  0  0  0  0  0  0  0  0
   33.1130   -7.2839   12.4642 C   0  0  0  0  0  0  0  0  0  0  0  0
   31.6028   -5.6628   13.4153 C   0  0  0  0  0  0  0  0  0  0  0  0
   34.3162   -8.1635   12.5909 C   0  0  0  0  0  0  0  0  0  0  0  0
   34.1918   -9.3202   11.9303 F   0  0  0  0  0  0  0  0  0  0  0  0
   35.4365   -7.5687   12.1548 F   0  0  0  0  0  0  0  0  0  0  0  0
   34.5647   -8.5182   13.8479 F   0  0  0  0  0  0  0  0  0  0  0  0
  6  7  1  0  0  0
  7 12  2  0  0  0
  7  8  1  0  0  0
 12  4  1  0  0  0
  8  9  2  0  0  0
  4  1  1  0  0  0
  4  3  2  0  0  0
  9  3  1  0  0  0
  9  5  1  0  0  0
  1 16  1  0  0  0
  3 11  1  0  0  0
  5 10  1  0  0  0
 20 19  2  0  0  0
 20 17  1  0  0  0
 19 21  1  0  0  0
 16 17  1  0  0  0
 16 15  1  0  0  0
 16 14  1  0  0  0
 11 10  2  0  0  0
 17 22  2  0  0  0
 15 14  1  0  0  0
 24 23  1  0  0  0
 21 23  1  0  0  0
 21 18  2  0  0  0
 25 23  1  0  0  0
 23 26  1  0  0  0
 22 18  1  0  0  0
  5 13  1  0  0  0
  1  2  1  0  0  0
M  END
> <minimizedAffinity>
-9.78257

$$$$
6B96_CZV_A_1003


 26 29  0  0  0  0  0  0  0  0999 V2000
   29.7484   -4.7634   13.3864 N   0  0  0  0  0  0  0  0  0  0  0  0
   29.0402   -5.4380   13.2740 H   0  0  0  0  0  0  0  0  0  0  0  0
   30.6753   -4.9363   15.6335 C   0  0  0  0  0  0  0  0  0  0  0  0
   30.7632   -5.1228   14.2108 C   0  0  0  0  0  0  0  0  0  0  0  0
   31.5499   -5.2325   17.7009 N   0  0  0  0  0  0  0  0  0  0  0  0
   34.1252   -6.8847   13.6945 Cl  0  0  0  0  0  0  0  0  0  0  0  0
   32.7496   -6.1868   14.4680 C   0  0  0  0  0  0  0  0  0  0  0  0
   32.8139   -6.1484   15.7833 N   0  0  0  0  0  0  0  0  0  0  0  0
   31.8073   -5.5236   16.4122 C   0  0  0  0  0  0  0  0  0  0  0  0
   30.3982   -4.5206   17.8666 N   0  0  0  0  0  0  0  0  0  0  0  0
   29.8972   -4.3505   16.6580 C   0  0  0  0  0  0  0  0  0  0  0  0
   31.8171   -5.7360   13.6483 N   0  0  0  0  0  0  0  0  0  0  0  0
   32.1323   -5.5050   18.4464 H   0  0  0  0  0  0  0  0  0  0  0  0
   28.4080   -3.4757   11.6399 C   0  0  0  0  0  0  0  0  0  0  0  0
   29.8097   -3.5590   11.1438 C   0  0  0  0  0  0  0  0  0  0  0  0
   29.5496   -3.5176   12.6370 C   0  0  0  0  0  0  0  0  0  0  0  0
   30.0264   -2.2807   13.3767 C   0  0  0  0  0  0  0  0  0  0  0  0
   31.7376   -0.6272   13.8018 C   0  0  0  0  0  0  0  0  0  0  0  0
   29.7166   -0.5894   15.0768 C   0  0  0  0  0  0  0  0  0  0  0  0
   29.2537   -1.6942   14.3753 C   0  0  0  0  0  0  0  0  0  0  0  0
   30.9684   -0.0464   14.8026 C   0  0  0  0  0  0  0  0  0  0  0  0
   31.2713   -1.7213   13.0950 C   0  0  0  0  0  0  0  0  0  0  0  0
   31.4923    1.1176   15.5825 C   0  0  0  0  0  0  0  0  0  0  0  0
   32.1659    1.9934   14.8282 F   0  0  0  0  0  0  0  0  0  0  0  0
   30.5206    1.7931   16.2139 F   0  0  0  0  0  0  0  0  0  0  0  0
   32.3524    0.7573   16.5302 F   0  0  0  0  0  0  0  0  0  0  0  0
  6  7  1  0  0  0
  7 12  2  0  0  0
  7  8  1  0  0  0
 12  4  1  0  0  0
  8  9  2  0  0  0
  4  1  1  0  0  0
  4  3  2  0  0  0
  9  3  1  0  0  0
  9  5  1  0  0  0
  1 16  1  0  0  0
  3 11  1  0  0  0
  5 10  1  0  0  0
 20 19  2  0  0  0
 20 17  1  0  0  0
 19 21  1  0  0  0
 16 17  1  0  0  0
 16 15  1  0  0  0
 16 14  1  0  0  0
 11 10  2  0  0  0
 17 22  2  0  0  0
 15 14  1  0  0  0
 24 23  1  0  0  0
 21 23  1  0  0  0
 21 18  2  0  0  0
 25 23  1  0  0  0
 23 26  1  0  0  0
 22 18  1  0  0  0
  5 13  1  0  0  0
  1  2  1  0  0  0
M  END
> <minimizedAffinity>
-9.77377

$$$$
6B96_CZV_A_1003


 26 29  0  0  0  0  0  0  0  0999 V2000
   29.4740   -4.7897   13.2843 N   0  0  0  0  0  0  0  0  0  0  0  0
   28.6682   -5.3528   13.2305 H   0  0  0  0  0  0  0  0  0  0  0  0
   31.5734   -6.0187   13.4272 C   0  0  0  0  0  0  0  0  0  0  0  0
   30.4856   -5.2984   14.0305 C   0  0  0  0  0  0  0  0  0  0  0  0
   33.5798   -7.0503   13.6205 N   0  0  0  0  0  0  0  0  0  0  0  0
   31.4042   -5.1368   17.7459 Cl  0  0  0  0  0  0  0  0  0  0  0  0
   31.5135   -5.4260   16.0482 C   0  0  0  0  0  0  0  0  0  0  0  0
   32.6082   -6.0489   15.6619 N   0  0  0  0  0  0  0  0  0  0  0  0
   32.6812   -6.3779   14.3635 C   0  0  0  0  0  0  0  0  0  0  0  0
   33.1988   -7.1867   12.3179 N   0  0  0  0  0  0  0  0  0  0  0  0
   32.0288   -6.5857   12.2150 C   0  0  0  0  0  0  0  0  0  0  0  0
   30.4684   -5.0275   15.3456 N   0  0  0  0  0  0  0  0  0  0  0  0
   34.4242   -7.4067   13.9799 H   0  0  0  0  0  0  0  0  0  0  0  0
   28.3074   -3.3814   11.5067 C   0  0  0  0  0  0  0  0  0  0  0  0
   29.7163   -3.5699   11.0624 C   0  0  0  0  0  0  0  0  0  0  0  0
   29.4029   -3.5241   12.5453 C   0  0  0  0  0  0  0  0  0  0  0  0
   29.9465   -2.3369   13.3193 C   0  0  0  0  0  0  0  0  0  0  0  0
   31.7241   -0.7559   13.7483 C   0  0  0  0  0  0  0  0  0  0  0  0
   29.7560   -0.7161   15.1036 C   0  0  0  0  0  0  0  0  0  0  0  0
   29.2318   -1.7737   14.3730 C   0  0  0  0  0  0  0  0  0  0  0  0
   31.0127   -0.1986   14.8039 C   0  0  0  0  0  0  0  0  0  0  0  0
   31.1967   -1.8025   13.0131 C   0  0  0  0  0  0  0  0  0  0  0  0
   31.6027    0.9127   15.6129 C   0  0  0  0  0  0  0  0  0  0  0  0
   32.3941    1.7194   14.8969 F   0  0  0  0  0  0  0  0  0  0  0  0
   30.6675    1.6781   16.1948 F   0  0  0  0  0  0  0  0  0  0  0  0
   32.3747    0.4751   16.6030 F   0  0  0  0  0  0  0  0  0  0  0  0
  6  7  1  0  0  0
  7 12  2  0  0  0
  7  8  1  0  0  0
 12  4  1  0  0  0
  8  9  2  0  0  0
  4  1  1  0  0  0
  4  3  2  0  0  0
  9  3  1  0  0  0
  9  5  1  0  0  0
  1 16  1  0  0  0
  3 11  1  0  0  0
  5 10  1  0  0  0
 20 19  2  0  0  0
 20 17  1  0  0  0
 19 21  1  0  0  0
 16 17  1  0  0  0
 16 15  1  0  0  0
 16 14  1  0  0  0
 11 10  2  0  0  0
 17 22  2  0  0  0
 15 14  1  0  0  0
 24 23  1  0  0  0
 21 23  1  0  0  0
 21 18  2  0  0  0
 25 23  1  0  0  0
 23 26  1  0  0  0
 22 18  1  0  0  0
  5 13  1  0  0  0
  1  2  1  0  0  0
M  END
> <minimizedAffinity>
-9.62204

$$$$
6B96_CZV_A_1003


 26 29  0  0  0  0  0  0  0  0999 V2000
   28.4259   -4.3394   13.8427 N   0  0  0  0  0  0  0  0  0  0  0  0
   28.5076   -4.4723   12.8706 H   0  0  0  0  0  0  0  0  0  0  0  0
   26.6133   -2.9076   14.6191 C   0  0  0  0  0  0  0  0  0  0  0  0
   27.1577   -4.1997   14.3021 C   0  0  0  0  0  0  0  0  0  0  0  0
   24.8510   -1.6282   15.2392 N   0  0  0  0  0  0  0  0  0  0  0  0
   24.2413   -6.6184   14.8660 Cl  0  0  0  0  0  0  0  0  0  0  0  0
   25.1403   -5.1543   14.7058 C   0  0  0  0  0  0  0  0  0  0  0  0
   24.4655   -4.0570   14.9816 N   0  0  0  0  0  0  0  0  0  0  0  0
   25.1592   -2.9091   14.9635 C   0  0  0  0  0  0  0  0  0  0  0  0
   25.9194   -0.7874   15.1291 N   0  0  0  0  0  0  0  0  0  0  0  0
   26.9413   -1.5409   14.7704 C   0  0  0  0  0  0  0  0  0  0  0  0
   26.4077   -5.3115   14.3682 N   0  0  0  0  0  0  0  0  0  0  0  0
   23.9482   -1.3292   15.4939 H   0  0  0  0  0  0  0  0  0  0  0  0
   30.5588   -5.5658   14.5142 C   0  0  0  0  0  0  0  0  0  0  0  0
   29.8173   -5.2561   15.7680 C   0  0  0  0  0  0  0  0  0  0  0  0
   29.6943   -4.3219   14.5801 C   0  0  0  0  0  0  0  0  0  0  0  0
   30.2833   -2.9324   14.7434 C   0  0  0  0  0  0  0  0  0  0  0  0
   31.3339   -0.9794   13.7815 C   0  0  0  0  0  0  0  0  0  0  0  0
   30.9898   -1.0921   16.1438 C   0  0  0  0  0  0  0  0  0  0  0  0
   30.4098   -2.3450   15.9993 C   0  0  0  0  0  0  0  0  0  0  0  0
   31.4654   -0.3967   15.0361 C   0  0  0  0  0  0  0  0  0  0  0  0
   30.7456   -2.2231   13.6364 C   0  0  0  0  0  0  0  0  0  0  0  0
   32.1298    0.9349   15.1877 C   0  0  0  0  0  0  0  0  0  0  0  0
   32.7674    1.3317   14.0806 F   0  0  0  0  0  0  0  0  0  0  0  0
   31.2671    1.9048   15.5256 F   0  0  0  0  0  0  0  0  0  0  0  0
   33.0632    0.9398   16.1345 F   0  0  0  0  0  0  0  0  0  0  0  0
  6  7  1  0  0  0
  7 12  2  0  0  0
  7  8  1  0  0  0
 12  4  1  0  0  0
  8  9  2  0  0  0
  4  1  1  0  0  0
  4  3  2  0  0  0
  9  3  1  0  0  0
  9  5  1  0  0  0
  1 16  1  0  0  0
  3 11  1  0  0  0
  5 10  1  0  0  0
 20 19  2  0  0  0
 20 17  1  0  0  0
 19 21  1  0  0  0
 16 17  1  0  0  0
 16 15  1  0  0  0
 16 14  1  0  0  0
 11 10  2  0  0  0
 17 22  2  0  0  0
 15 14  1  0  0  0
 24 23  1  0  0  0
 21 23  1  0  0  0
 21 18  2  0  0  0
 25 23  1  0  0  0
 23 26  1  0  0  0
 22 18  1  0  0  0
  5 13  1  0  0  0
  1  2  1  0  0  0
M  END
> <minimizedAffinity>
-9.61305

$$$$
6B96_CZV_A_1003


 26 29  0  0  0  0  0  0  0  0999 V2000
   29.0772   -5.0226   14.9001 N   0  0  0  0  0  0  0  0  0  0  0  0
   29.5735   -5.4846   15.6138 H   0  0  0  0  0  0  0  0  0  0  0  0
   27.1784   -3.9090   15.9457 C   0  0  0  0  0  0  0  0  0  0  0  0
   27.7391   -4.9247   15.0970 C   0  0  0  0  0  0  0  0  0  0  0  0
   25.3634   -2.8517   16.7912 N   0  0  0  0  0  0  0  0  0  0  0  0
   24.6901   -6.7489   13.6652 Cl  0  0  0  0  0  0  0  0  0  0  0  0
   25.6527   -5.5898   14.5063 C   0  0  0  0  0  0  0  0  0  0  0  0
   24.9699   -4.6942   15.1899 N   0  0  0  0  0  0  0  0  0  0  0  0
   25.6859   -3.8389   15.9349 C   0  0  0  0  0  0  0  0  0  0  0  0
   26.4536   -2.2712   17.3700 N   0  0  0  0  0  0  0  0  0  0  0  0
   27.5054   -2.8944   16.8742 C   0  0  0  0  0  0  0  0  0  0  0  0
   26.9576   -5.7648   14.3993 N   0  0  0  0  0  0  0  0  0  0  0  0
   24.4370   -2.5772   16.9801 H   0  0  0  0  0  0  0  0  0  0  0  0
   29.9166   -3.0477   13.5218 C   0  0  0  0  0  0  0  0  0  0  0  0
   29.1623   -3.9390   12.5975 C   0  0  0  0  0  0  0  0  0  0  0  0
   29.8946   -4.5416   13.7806 C   0  0  0  0  0  0  0  0  0  0  0  0
   31.0785   -5.4372   13.4636 C   0  0  0  0  0  0  0  0  0  0  0  0
   32.1997   -6.9723   11.9703 C   0  0  0  0  0  0  0  0  0  0  0  0
   33.1571   -6.4921   14.1067 C   0  0  0  0  0  0  0  0  0  0  0  0
   32.1004   -5.6370   14.3879 C   0  0  0  0  0  0  0  0  0  0  0  0
   33.2158   -7.1759   12.8960 C   0  0  0  0  0  0  0  0  0  0  0  0
   31.1524   -6.1113   12.2461 C   0  0  0  0  0  0  0  0  0  0  0  0
   34.3287   -8.1312   12.6023 C   0  0  0  0  0  0  0  0  0  0  0  0
   33.9638   -9.1260   11.7857 F   0  0  0  0  0  0  0  0  0  0  0  0
   35.3930   -7.5281   12.0523 F   0  0  0  0  0  0  0  0  0  0  0  0
   34.7855   -8.7403   13.6924 F   0  0  0  0  0  0  0  0  0  0  0  0
  6  7  1  0  0  0
  7 12  2  0  0  0
  7  8  1  0  0  0
 12  4  1  0  0  0
  8  9  2  0  0  0
  4  1  1  0  0  0
  4  3  2  0  0  0
  9  3  1  0  0  0
  9  5  1  0  0  0
  1 16  1  0  0  0
  3 11  1  0  0  0
  5 10  1  0  0  0
 20 19  2  0  0  0
 20 17  1  0  0  0
 19 21  1  0  0  0
 16 17  1  0  0  0
 16 15  1  0  0  0
 16 14  1  0  0  0
 11 10  2  0  0  0
 17 22  2  0  0  0
 15 14  1  0  0  0
 24 23  1  0  0  0
 21 23  1  0  0  0
 21 18  2  0  0  0
 25 23  1  0  0  0
 23 26  1  0  0  0
 22 18  1  0  0  0
  5 13  1  0  0  0
  1  2  1  0  0  0
M  END
> <minimizedAffinity>
-9.60105

$$$$
6B96_CZV_A_1003


 26 29  0  0  0  0  0  0  0  0999 V2000
   28.7831   -4.9670   13.5135 N   0  0  0  0  0  0  0  0  0  0  0  0
   28.3057   -5.7622   13.1832 H   0  0  0  0  0  0  0  0  0  0  0  0
   29.0025   -4.5237   15.8996 C   0  0  0  0  0  0  0  0  0  0  0  0
   28.2884   -4.4290   14.6556 C   0  0  0  0  0  0  0  0  0  0  0  0
   29.1956   -3.9774   18.0885 N   0  0  0  0  0  0  0  0  0  0  0  0
   25.2085   -2.3107   15.4927 Cl  0  0  0  0  0  0  0  0  0  0  0  0
   26.7275   -3.1148   15.6459 C   0  0  0  0  0  0  0  0  0  0  0  0
   27.2690   -3.0519   16.8453 N   0  0  0  0  0  0  0  0  0  0  0  0
   28.4006   -3.7489   17.0267 C   0  0  0  0  0  0  0  0  0  0  0  0
   30.2372   -4.8110   17.8047 N   0  0  0  0  0  0  0  0  0  0  0  0
   30.1155   -5.1261   16.5294 C   0  0  0  0  0  0  0  0  0  0  0  0
   27.1444   -3.7330   14.5556 N   0  0  0  0  0  0  0  0  0  0  0  0
   29.0413   -3.5837   18.9776 H   0  0  0  0  0  0  0  0  0  0  0  0
   30.1519   -3.0486   12.5385 C   0  0  0  0  0  0  0  0  0  0  0  0
   29.6160   -3.8327   11.3915 C   0  0  0  0  0  0  0  0  0  0  0  0
   29.9248   -4.5394   12.6970 C   0  0  0  0  0  0  0  0  0  0  0  0
   31.0657   -5.5405   12.6756 C   0  0  0  0  0  0  0  0  0  0  0  0
   32.9949   -6.5366   13.7382 C   0  0  0  0  0  0  0  0  0  0  0  0
   32.3831   -7.2129   11.5291 C   0  0  0  0  0  0  0  0  0  0  0  0
   31.3111   -6.3314   11.5564 C   0  0  0  0  0  0  0  0  0  0  0  0
   33.2427   -7.3210   12.6183 C   0  0  0  0  0  0  0  0  0  0  0  0
   31.9198   -5.6664   13.7696 C   0  0  0  0  0  0  0  0  0  0  0  0
   34.4245   -8.2372   12.5808 C   0  0  0  0  0  0  0  0  0  0  0  0
   34.2043   -9.3479   11.8683 F   0  0  0  0  0  0  0  0  0  0  0  0
   35.5182   -7.6458   12.0775 F   0  0  0  0  0  0  0  0  0  0  0  0
   34.7759   -8.6740   13.7863 F   0  0  0  0  0  0  0  0  0  0  0  0
  6  7  1  0  0  0
  7 12  2  0  0  0
  7  8  1  0  0  0
 12  4  1  0  0  0
  8  9  2  0  0  0
  4  1  1  0  0  0
  4  3  2  0  0  0
  9  3  1  0  0  0
  9  5  1  0  0  0
  1 16  1  0  0  0
  3 11  1  0  0  0
  5 10  1  0  0  0
 20 19  2  0  0  0
 20 17  1  0  0  0
 19 21  1  0  0  0
 16 17  1  0  0  0
 16 15  1  0  0  0
 16 14  1  0  0  0
 11 10  2  0  0  0
 17 22  2  0  0  0
 15 14  1  0  0  0
 24 23  1  0  0  0
 21 23  1  0  0  0
 21 18  2  0  0  0
 25 23  1  0  0  0
 23 26  1  0  0  0
 22 18  1  0  0  0
  5 13  1  0  0  0
  1  2  1  0  0  0
M  END
> <minimizedAffinity>
-9.56257

$$$$
6B96_CZV_A_1003


 26 29  0  0  0  0  0  0  0  0999 V2000
   28.5137   -5.4455   13.0602 N   0  0  0  0  0  0  0  0  0  0  0  0
   28.1285   -6.3214   12.8285 H   0  0  0  0  0  0  0  0  0  0  0  0
   26.6337   -5.1138   14.5748 C   0  0  0  0  0  0  0  0  0  0  0  0
   27.9858   -4.8551   14.1609 C   0  0  0  0  0  0  0  0  0  0  0  0
   24.9677   -4.8484   16.0851 N   0  0  0  0  0  0  0  0  0  0  0  0
   29.3824   -2.5486   16.8818 Cl  0  0  0  0  0  0  0  0  0  0  0  0
   28.3223   -3.6055   16.0235 C   0  0  0  0  0  0  0  0  0  0  0  0
   27.1393   -3.7738   16.5784 N   0  0  0  0  0  0  0  0  0  0  0  0
   26.2554   -4.5096   15.8881 C   0  0  0  0  0  0  0  0  0  0  0  0
   24.4495   -5.5897   15.0641 N   0  0  0  0  0  0  0  0  0  0  0  0
   25.4253   -5.7372   14.1884 C   0  0  0  0  0  0  0  0  0  0  0  0
   28.8073   -4.0847   14.8922 N   0  0  0  0  0  0  0  0  0  0  0  0
   24.4533   -4.5881   16.8831 H   0  0  0  0  0  0  0  0  0  0  0  0
   29.5445   -3.5119   11.7552 C   0  0  0  0  0  0  0  0  0  0  0  0
   29.1630   -4.5561   10.7644 C   0  0  0  0  0  0  0  0  0  0  0  0
   29.5740   -4.9719   12.1634 C   0  0  0  0  0  0  0  0  0  0  0  0
   30.8695   -5.7533   12.2879 C   0  0  0  0  0  0  0  0  0  0  0  0
   32.4980   -7.2683   11.3413 C   0  0  0  0  0  0  0  0  0  0  0  0
   32.7544   -6.5174   13.5956 C   0  0  0  0  0  0  0  0  0  0  0  0
   31.5940   -5.7650   13.4767 C   0  0  0  0  0  0  0  0  0  0  0  0
   33.2169   -7.2843   12.5302 C   0  0  0  0  0  0  0  0  0  0  0  0
   31.3476   -6.5094   11.2193 C   0  0  0  0  0  0  0  0  0  0  0  0
   34.4429   -8.1308   12.6637 C   0  0  0  0  0  0  0  0  0  0  0  0
   35.5358   -7.5554   12.1498 F   0  0  0  0  0  0  0  0  0  0  0  0
   34.7148   -8.4453   13.9389 F   0  0  0  0  0  0  0  0  0  0  0  0
   34.3397   -9.2911   12.0226 F   0  0  0  0  0  0  0  0  0  0  0  0
  6  7  1  0  0  0
  7 12  2  0  0  0
  7  8  1  0  0  0
 12  4  1  0  0  0
  8  9  2  0  0  0
  4  1  1  0  0  0
  4  3  2  0  0  0
  9  3  1  0  0  0
  9  5  1  0  0  0
  1 16  1  0  0  0
  3 11  1  0  0  0
  5 10  1  0  0  0
 20 19  2  0  0  0
 20 17  1  0  0  0
 19 21  1  0  0  0
 16 17  1  0  0  0
 16 15  1  0  0  0
 16 14  1  0  0  0
 11 10  2  0  0  0
 17 22  2  0  0  0
 15 14  1  0  0  0
 24 23  1  0  0  0
 21 23  1  0  0  0
 21 18  2  0  0  0
 25 23  1  0  0  0
 23 26  1  0  0  0
 22 18  1  0  0  0
  5 13  1  0  0  0
  1  2  1  0  0  0
M  END
> <minimizedAffinity>
-9.48470

$$$$
6B96_CZV_A_1003


 26 29  0  0  0  0  0  0  0  0999 V2000
   28.7475   -4.8565   13.3279 N   0  0  0  0  0  0  0  0  0  0  0  0
   28.0572   -5.5457   13.1952 H   0  0  0  0  0  0  0  0  0  0  0  0
   27.8543   -3.0017   14.6320 C   0  0  0  0  0  0  0  0  0  0  0  0
   28.6692   -4.1785   14.4997 C   0  0  0  0  0  0  0  0  0  0  0  0
   26.9737   -1.3706   15.9323 N   0  0  0  0  0  0  0  0  0  0  0  0
   30.0737   -4.7558   18.0165 Cl  0  0  0  0  0  0  0  0  0  0  0  0
   29.1471   -4.1027   16.7155 C   0  0  0  0  0  0  0  0  0  0  0  0
   28.4107   -3.0567   17.0305 N   0  0  0  0  0  0  0  0  0  0  0  0
   27.7544   -2.4633   16.0223 C   0  0  0  0  0  0  0  0  0  0  0  0
   26.5561   -1.1174   14.6588 N   0  0  0  0  0  0  0  0  0  0  0  0
   27.0755   -2.0701   13.9082 C   0  0  0  0  0  0  0  0  0  0  0  0
   29.3198   -4.7021   15.5512 N   0  0  0  0  0  0  0  0  0  0  0  0
   26.7294   -0.8121   16.7054 H   0  0  0  0  0  0  0  0  0  0  0  0
   29.8078   -3.3592   11.5564 C   0  0  0  0  0  0  0  0  0  0  0  0
   29.1441   -4.4838   10.8405 C   0  0  0  0  0  0  0  0  0  0  0  0
   29.7089   -4.7147   12.2286 C   0  0  0  0  0  0  0  0  0  0  0  0
   30.8945   -5.6569   12.3327 C   0  0  0  0  0  0  0  0  0  0  0  0
   32.8009   -6.4926   13.5619 C   0  0  0  0  0  0  0  0  0  0  0  0
   32.3550   -7.3241   11.3661 C   0  0  0  0  0  0  0  0  0  0  0  0
   31.2433   -6.4974   11.2790 C   0  0  0  0  0  0  0  0  0  0  0  0
   33.1518   -7.3264   12.5072 C   0  0  0  0  0  0  0  0  0  0  0  0
   31.6864   -5.6770   13.4793 C   0  0  0  0  0  0  0  0  0  0  0  0
   34.3752   -8.1828   12.5924 C   0  0  0  0  0  0  0  0  0  0  0  0
   35.4648   -7.5920   12.0889 F   0  0  0  0  0  0  0  0  0  0  0  0
   34.6605   -8.5489   13.8509 F   0  0  0  0  0  0  0  0  0  0  0  0
   34.2592   -9.3162   11.9071 F   0  0  0  0  0  0  0  0  0  0  0  0
  6  7  1  0  0  0
  7 12  2  0  0  0
  7  8  1  0  0  0
 12  4  1  0  0  0
  8  9  2  0  0  0
  4  1  1  0  0  0
  4  3  2  0  0  0
  9  3  1  0  0  0
  9  5  1  0  0  0
  1 16  1  0  0  0
  3 11  1  0  0  0
  5 10  1  0  0  0
 20 19  2  0  0  0
 20 17  1  0  0  0
 19 21  1  0  0  0
 16 17  1  0  0  0
 16 15  1  0  0  0
 16 14  1  0  0  0
 11 10  2  0  0  0
 17 22  2  0  0  0
 15 14  1  0  0  0
 24 23  1  0  0  0
 21 23  1  0  0  0
 21 18  2  0  0  0
 25 23  1  0  0  0
 23 26  1  0  0  0
 22 18  1  0  0  0
  5 13  1  0  0  0
  1  2  1  0  0  0
M  END
> <minimizedAffinity>
-9.35340

$$$$
6B96_CZV_A_1003


 26 29  0  0  0  0  0  0  0  0999 V2000
   28.5607   -4.5379   13.9156 N   0  0  0  0  0  0  0  0  0  0  0  0
   28.3886   -5.3350   13.3640 H   0  0  0  0  0  0  0  0  0  0  0  0
   26.8889   -3.3919   15.2685 C   0  0  0  0  0  0  0  0  0  0  0  0
   27.5264   -3.6660   14.0096 C   0  0  0  0  0  0  0  0  0  0  0  0
   25.3884   -2.2076   16.4822 N   0  0  0  0  0  0  0  0  0  0  0  0
   25.7744   -1.3263   11.5337 Cl  0  0  0  0  0  0  0  0  0  0  0  0
   26.2503   -2.0783   13.0120 C   0  0  0  0  0  0  0  0  0  0  0  0
   25.5983   -1.6640   14.0792 N   0  0  0  0  0  0  0  0  0  0  0  0
   25.8728   -2.2969   15.2296 C   0  0  0  0  0  0  0  0  0  0  0  0
   25.9500   -3.1107   17.3363 N   0  0  0  0  0  0  0  0  0  0  0  0
   26.8202   -3.7975   16.6209 C   0  0  0  0  0  0  0  0  0  0  0  0
   27.1799   -3.0089   12.8909 N   0  0  0  0  0  0  0  0  0  0  0  0
   24.7004   -1.5580   16.7537 H   0  0  0  0  0  0  0  0  0  0  0  0
   30.8270   -5.6463   14.2893 C   0  0  0  0  0  0  0  0  0  0  0  0
   30.2088   -5.4484   15.6296 C   0  0  0  0  0  0  0  0  0  0  0  0
   29.8984   -4.4690   14.5145 C   0  0  0  0  0  0  0  0  0  0  0  0
   30.4132   -3.0519   14.6906 C   0  0  0  0  0  0  0  0  0  0  0  0
   31.4113   -1.0577   13.7576 C   0  0  0  0  0  0  0  0  0  0  0  0
   30.9698   -1.1703   16.1037 C   0  0  0  0  0  0  0  0  0  0  0  0
   30.4567   -2.4504   15.9454 C   0  0  0  0  0  0  0  0  0  0  0  0
   31.4600   -0.4607   15.0114 C   0  0  0  0  0  0  0  0  0  0  0  0
   30.8894   -2.3291   13.5984 C   0  0  0  0  0  0  0  0  0  0  0  0
   32.0533    0.9021   15.1797 C   0  0  0  0  0  0  0  0  0  0  0  0
   31.1439    1.8363   15.4798 F   0  0  0  0  0  0  0  0  0  0  0  0
   32.9976    0.9383   16.1316 F   0  0  0  0  0  0  0  0  0  0  0  0
   32.6419    1.3476   14.0739 F   0  0  0  0  0  0  0  0  0  0  0  0
  6  7  1  0  0  0
  7 12  2  0  0  0
  7  8  1  0  0  0
 12  4  1  0  0  0
  8  9  2  0  0  0
  4  1  1  0  0  0
  4  3  2  0  0  0
  9  3  1  0  0  0
  9  5  1  0  0  0
  1 16  1  0  0  0
  3 11  1  0  0  0
  5 10  1  0  0  0
 20 19  2  0  0  0
 20 17  1  0  0  0
 19 21  1  0  0  0
 16 17  1  0  0  0
 16 15  1  0  0  0
 16 14  1  0  0  0
 11 10  2  0  0  0
 17 22  2  0  0  0
 15 14  1  0  0  0
 24 23  1  0  0  0
 21 23  1  0  0  0
 21 18  2  0  0  0
 25 23  1  0  0  0
 23 26  1  0  0  0
 22 18  1  0  0  0
  5 13  1  0  0  0
  1  2  1  0  0  0
M  END
> <minimizedAffinity>
-9.32283

$$$$
