6FTZ_E7E_A_301
  RCSB PDB06021801393D
Coordinates from PDB:6FTZ:A:301 Model:1 without hydrogens
 23 25  0  0  0  0            999 V2000
    2.0730    9.5510    2.0510   C 0  0  0  0  0  0  0  0  0  0  0  0
    1.4250   10.8080    2.1110   C 0  0  0  0  0  0  0  0  0  0  0  0
    2.1250   12.0020    1.8540   C 0  0  0  0  0  0  0  0  0  0  0  0
    4.1800    8.0830    1.6630   C 0  0  0  0  0  0  0  0  0  0  0  0
    3.9730    5.5780    1.5220   C 0  0  0  0  0  0  0  0  0  0  0  0
    3.0640    4.5870    1.1380   C 0  0  0  0  0  0  0  0  0  0  0  0
    4.7210    2.8570    1.4630   C 0  0  0  0  0  0  0  0  0  0  0  0
    5.6570    3.8250    1.8540   C 0  0  0  0  0  0  0  0  0  0  0  0
    3.4200    3.2270    1.0920   C 0  0  0  0  0  0  0  0  0  0  0  0
    5.2850    5.1840    1.8850   C 0  0  0  0  0  0  0  0  0  0  0  0
    2.3390    2.2080    0.6990   C 0  0  0  0  0  0  0  0  0  0  0  0
    3.4460    9.4210    1.7130   C 0  0  0  0  0  0  0  0  0  0  0  0
    4.1220   10.6350    1.4720   C 0  0  0  0  0  0  0  0  0  0  0  0
    3.4880   11.8760    1.5320   C 0  0  0  0  0  0  0  0  0  0  0  0
    4.3840   12.8460    1.2730   N 0  0  0  0  0  0  0  0  0  0  0  0
    5.5750   12.3610    1.0100   C 0  0  0  0  0  0  0  0  0  0  0  0
    5.5340   11.0210    1.1050   C 0  0  0  0  0  0  0  0  0  0  0  0
    6.7920   13.1500    0.6960   C 0  0  0  0  0  0  0  0  0  0  0  0
    6.7690   14.4960    0.6160   N 0  0  0  0  0  0  0  0  0  0  0  0
    7.8440   12.5430    0.5350   O 0  0  0  0  0  0  0  0  0  0  0  0
    5.4000    8.1080    1.7570   O 0  0  0  0  0  0  0  0  0  0  0  0
    3.4790    6.9190    1.5480   N 0  0  0  0  0  0  0  0  0  0  0  0
    2.6270    0.8480    1.1890   N 0  0  0  0  0  0  0  0  0  0  0  0
 20 18  2  0  0  0  0
 19 18  1  0  0  0  0
 18 16  1  0  0  0  0
 11  9  1  0  0  0  0
 11 23  1  0  0  0  0
 16 17  2  0  0  0  0
 16 15  1  0  0  0  0
  9  6  2  0  0  0  0
  9  7  1  0  0  0  0
 17 13  1  0  0  0  0
  6  5  1  0  0  0  0
 15 14  1  0  0  0  0
  7  8  2  0  0  0  0
 13 14  2  0  0  0  0
 13 12  1  0  0  0  0
  5 22  1  0  0  0  0
  5 10  2  0  0  0  0
 14  3  1  0  0  0  0
 22  4  1  0  0  0  0
  4 12  1  0  0  0  0
  4 21  2  0  0  0  0
 12  1  2  0  0  0  0
  8 10  1  0  0  0  0
  3  2  2  0  0  0  0
  1  2  1  0  0  0  0
A    1
C1
A    2
C2
A    3
C3
A    4
C13
A    5
C16
A    6
C17
A    7
C18
A    8
C19
A    9
C20
A   10
C21
A   11
C22
A   12
C4
A   13
C5
A   14
C6
A   15
N7
A   16
C8
A   17
C9
A   18
C10
A   19
N11
A   20
O12
A   21
O14
A   22
N15
A   23
N23
M  END
>  <InstanceId>
6FTZ_E7E_A_301

>  <ChemCompId>
E7E

>  <PdbId>
6FTZ

>  <ChainId>
A

>  <ResidueNumber>
301

>  <InsertionCode>


>  <Model>
1

>  <AltIds>


>  <MissingHeavyAtoms>
0

>  <ObservedFormula>
C17 N4 O2

>  <Name>
~{N}4-[3-(aminomethyl)phenyl]-1~{H}-indole-2,4-dicarboxamide

>  <SystematicName>
~{N}4-[3-(aminomethyl)phenyl]-1~{H}-indole-2,4-dicarboxamide

>  <Synonyms>


>  <Type>
NON-POLYMER

>  <Formula>
C17 H16 N4 O2

>  <MolecularWeight>
308.335

>  <ModifiedDate>
2018-06-01

>  <Parent>


>  <OneLetterCode>


>  <SubcomponentList>


>  <AmbiguousFlag>
N

>  <InChI>
InChI=1S/C17H16N4O2/c18-9-10-3-1-4-11(7-10)20-17(23)12-5-2-6-14-13(12)8-15(21-14)16(19)22/h1-8,21H,9,18H2,(H2,19,22)(H,20,23)

>  <InChIKey>
BDFMFQJHWMAJCS-UHFFFAOYSA-N

>  <SMILES>
c1cc(cc(c1)NC(=O)c2cccc3c2cc([nH]3)C(=O)N)CN

$$$$
