2BO4_FLC_A_1382
  RCSB PDB12061705083D
Coordinates from PDB:2BO4:A:1382 Model:1 without hydrogens
 13 12  0  0  0  0            999 V2000
   87.9430   -2.3560   42.4440   C 0  0  0  0  0  0  0  0  0  0  0  0
   87.3510   -2.3750   41.0680   C 0  0  0  0  0  0  0  0  0  0  0  0
   85.8300   -2.1700   41.0840   C 0  0  0  0  0  0  0  0  0  0  0  0
   85.1930   -2.5880   42.4120   C 0  0  0  0  0  0  0  0  0  0  0  0
   85.4550   -0.7180   40.7060   C 0  0  0  0  0  0  0  0  0  0  0  0
   84.1510   -0.6060   39.9280   C 0  0  0  0  0  0  0  0  0  0  0  0
   88.7230   -3.2740   42.7910   O 0  0  0  0  0  0  0  0  0  0  0  0
   87.6140   -1.3980   43.1800   O 0  5  0  0  0  0  0  0  0  0  0  0
   84.7070   -1.7710   43.2570   O 0  0  0  0  0  0  0  0  0  0  0  0
   85.1790   -3.8180   42.6320   O 0  5  0  0  0  0  0  0  0  0  0  0
   83.3440    0.2770   40.2400   O 0  0  0  0  0  0  0  0  0  0  0  0
   83.9050   -1.3790   38.9820   O 0  5  0  0  0  0  0  0  0  0  0  0
   85.3820   -3.1190   40.1090   O 0  0  0  0  0  0  0  0  0  0  0  0
  1  2  1  0  0  0  0
  1  7  2  0  0  0  0
  1  8  1  0  0  0  0
  2  3  1  0  0  0  0
  3  4  1  0  0  0  0
  3  5  1  0  0  0  0
  3 13  1  0  0  0  0
  4  9  2  0  0  0  0
  4 10  1  0  0  0  0
  5  6  1  0  0  0  0
  6 11  2  0  0  0  0
  6 12  1  0  0  0  0
M  CHG  3   8  -1  10  -1  12  -1
A    1
CAC
A    2
CA
A    3
CB
A    4
CBC
A    5
CG
A    6
CGC
A    7
OA1
A    8
OA2
A    9
OB1
A   10
OB2
A   11
OG1
A   12
OG2
A   13
OHB
M  END
>  <InstanceId>
2BO4_FLC_A_1382

>  <ChemCompId>
FLC

>  <PdbId>
2BO4

>  <ChainId>
A

>  <ResidueNumber>
1382

>  <InsertionCode>


>  <Model>
1

>  <AltIds>


>  <MissingHeavyAtoms>
0

>  <ObservedFormula>
C6 O7

>  <Name>
CITRATE ANION

>  <SystematicName>
2-hydroxypropane-1,2,3-tricarboxylate

>  <Synonyms>


>  <Type>
NON-POLYMER

>  <Formula>
C6 H5 O7

>  <MolecularWeight>
189.1

>  <ModifiedDate>
2011-06-04

>  <Parent>


>  <OneLetterCode>


>  <SubcomponentList>


>  <AmbiguousFlag>
N

>  <InChI>
InChI=1S/C6H8O7/c7-3(8)1-6(13,5(11)12)2-4(9)10/h13H,1-2H2,(H,7,8)(H,9,10)(H,11,12)/p-3

>  <InChIKey>
KRKNYBCHXYNGOX-UHFFFAOYSA-K

>  <SMILES>
C(C(=O)[O-])C(CC(=O)[O-])(C(=O)[O-])O

$$$$
