3UEX_STE_A_163
  RCSB PDB12061711023D
Coordinates from PDB:3UEX:A:163 Model:1 without hydrogens
 20 19  0  0  0  0            999 V2000
   -0.7930    2.2250   21.0740   C 0  0  0  0  0  0  0  0  0  0  0  0
   -1.9940    1.8610   21.1150   O 0  0  0  0  0  0  0  0  0  0  0  0
    0.1080    1.7000   21.7640   O 0  0  0  0  0  0  0  0  0  0  0  0
   -0.4340    3.3740   20.1690   C 0  0  0  0  0  0  0  0  0  0  0  0
   -0.8990    4.6780   20.8120   C 0  0  0  0  0  0  0  0  0  0  0  0
   -2.0370    5.3190   20.0220   C 0  0  0  0  0  0  0  0  0  0  0  0
   -3.0720    5.9520   20.9370   C 0  0  0  0  0  0  0  0  0  0  0  0
   -4.0720    6.8100   20.1700   C 0  0  0  0  0  0  0  0  0  0  0  0
   -3.3440    7.8860   19.3750   C 0  0  0  0  0  0  0  0  0  0  0  0
   -4.1370    9.1690   19.3320   C 0  0  0  0  0  0  0  0  0  0  0  0
   -3.1970   10.2980   18.9430   C 0  0  0  0  0  0  0  0  0  0  0  0
   -4.0170   11.5370   18.6110   C 0  0  0  0  0  0  0  0  0  0  0  0
   -3.0960   12.7230   18.8150   C 0  0  0  0  0  0  0  0  0  0  0  0
   -3.8460   13.9770   18.4280   C 0  0  0  0  0  0  0  0  0  0  0  0
   -2.8480   15.0820   18.2380   C 0  0  0  0  0  0  0  0  0  0  0  0
   -3.5330   16.4330   18.1320   C 0  0  0  0  0  0  0  0  0  0  0  0
   -3.7780   16.8230   16.6750   C 0  0  0  0  0  0  0  0  0  0  0  0
   -4.5050   18.1520   16.6760   C 0  0  0  0  0  0  0  0  0  0  0  0
   -4.6580   18.7330   15.2940   C 0  0  0  0  0  0  0  0  0  0  0  0
   -4.8030   17.6680   14.2280   C 0  0  0  0  0  0  0  0  0  0  0  0
  1  2  2  0  0  0  0
  1  3  1  0  0  0  0
  1  4  1  0  0  0  0
  4  5  1  0  0  0  0
  5  6  1  0  0  0  0
  6  7  1  0  0  0  0
  7  8  1  0  0  0  0
  8  9  1  0  0  0  0
  9 10  1  0  0  0  0
 10 11  1  0  0  0  0
 11 12  1  0  0  0  0
 12 13  1  0  0  0  0
 13 14  1  0  0  0  0
 14 15  1  0  0  0  0
 15 16  1  0  0  0  0
 16 17  1  0  0  0  0
 17 18  1  0  0  0  0
 18 19  1  0  0  0  0
 19 20  1  0  0  0  0
A    1
C1
A    2
O1
A    3
O2
A    4
C2
A    5
C3
A    6
C4
A    7
C5
A    8
C6
A    9
C7
A   10
C8
A   11
C9
A   12
C10
A   13
C11
A   14
C12
A   15
C13
A   16
C14
A   17
C15
A   18
C16
A   19
C17
A   20
C18
M  END
>  <InstanceId>
3UEX_STE_A_163

>  <ChemCompId>
STE

>  <PdbId>
3UEX

>  <ChainId>
A

>  <ResidueNumber>
163

>  <InsertionCode>


>  <Model>
1

>  <AltIds>


>  <MissingHeavyAtoms>
0

>  <ObservedFormula>
C18 O2

>  <Name>
STEARIC ACID

>  <SystematicName>
octadecanoic acid

>  <Synonyms>


>  <Type>
NON-POLYMER

>  <Formula>
C18 H36 O2

>  <MolecularWeight>
284.477

>  <ModifiedDate>
2011-06-04

>  <Parent>


>  <OneLetterCode>


>  <SubcomponentList>


>  <AmbiguousFlag>
N

>  <InChI>
InChI=1S/C18H36O2/c1-2-3-4-5-6-7-8-9-10-11-12-13-14-15-16-17-18(19)20/h2-17H2,1H3,(H,19,20)

>  <InChIKey>
QIQXTHQIDYTFRH-UHFFFAOYSA-N

>  <SMILES>
CCCCCCCCCCCCCCCCCC(=O)O

$$$$
