3ZSQ_O4N_A_1215


 41 44  0  0  0  0  0  0  0  0999 V2000
   -5.4633   37.1980    4.1042 C   0  0  0  0  0  0  0  0  0  0  0  0
   -6.6697   37.8106    4.3710 C   0  0  0  0  0  0  0  0  0  0  0  0
   -5.2965   36.5193    2.8690 C   0  0  0  0  0  0  0  0  0  0  0  0
   -7.7023   37.7523    3.4637 C   0  0  0  0  0  0  0  0  0  0  0  0
   -6.3453   36.4839    1.9616 C   0  0  0  0  0  0  0  0  0  0  0  0
   -7.5719   37.1039    2.2592 C   0  0  0  0  0  0  0  0  0  0  0  0
   -6.1344   35.7735    0.7030 C   0  0  0  0  0  0  0  0  0  0  0  0
   -5.9804   34.4381    0.7965 N   0  0  0  0  0  0  0  0  0  0  0  0
   -6.1340   36.3523   -0.3904 O   0  0  0  0  0  0  0  0  0  0  0  0
   -5.8648   34.0333    1.6865 H   0  0  0  0  0  0  0  0  0  0  0  0
   -5.9793   33.5764   -0.3729 C   0  0  0  0  0  0  0  0  0  0  0  0
   -7.3840   31.5689   -0.7785 C   0  0  0  0  0  0  0  0  0  0  0  0
   -8.5288   33.6697   -0.7251 C   0  0  0  0  0  0  0  0  0  0  0  0
   -8.6263   30.9583   -0.9853 C   0  0  0  0  0  0  0  0  0  0  0  0
   -9.7489   33.0711   -0.9497 C   0  0  0  0  0  0  0  0  0  0  0  0
   -7.3424   32.9370   -0.6390 C   0  0  0  0  0  0  0  0  0  0  0  0
   -9.7911   31.7132   -1.0778 C   0  0  0  0  0  0  0  0  0  0  0  0
  -10.7849   29.9521   -2.3389 C   0  0  0  0  0  0  0  0  0  0  0  0
  -10.9252   30.9913   -1.3415 O   0  0  0  0  0  0  0  0  0  0  0  0
   -4.9412   32.5343   -0.1110 C   0  0  0  0  0  0  0  0  0  0  0  0
   -2.8199   33.1085    0.9133 C   0  0  0  0  0  0  0  0  0  0  0  0
   -4.2846   32.7371    1.2461 C   0  0  0  0  0  0  0  0  0  0  0  0
   -8.7952   37.0687    1.3097 C   0  0  0  0  0  0  0  0  0  0  0  0
   -9.7818   38.2539    1.3989 N   0  0  0  0  0  0  0  0  0  0  0  0
  -11.2233   37.9988    2.0158 C   0  0  0  0  0  0  0  0  0  0  0  0
  -10.9414   36.0379    3.5477 C   0  0  0  0  0  0  0  0  0  0  0  0
  -11.0113   34.6977    3.8553 C   0  0  0  0  0  0  0  0  0  0  0  0
  -11.9338   35.6004    1.3634 C   0  0  0  0  0  0  0  0  0  0  0  0
  -11.3834   36.5017    2.2894 C   0  0  0  0  0  0  0  0  0  0  0  0
  -11.5180   33.8213    2.9325 C   0  0  0  0  0  0  0  0  0  0  0  0
  -12.0069   34.2688    1.7100 C   0  0  0  0  0  0  0  0  0  0  0  0
  -12.3753   32.1211    1.8429 C   0  0  0  0  0  0  0  0  0  0  0  0
  -11.6552   32.4746    3.0192 O   0  0  0  0  0  0  0  0  0  0  0  0
  -12.4720   33.2187    0.8915 O   0  0  0  0  0  0  0  0  0  0  0  0
  -12.4931   36.0606    0.0132 C   0  0  0  0  0  0  0  0  0  0  0  0
  -11.6218   36.2146   -0.9067 O   0  0  0  0  0  0  0  0  0  0  0  0
  -13.7421   36.0766   -0.1466 O   0  0  0  0  0  0  0  0  0  0  0  0
  -10.7090   36.1880   -0.6967 H   0  0  0  0  0  0  0  0  0  0  0  0
   -9.7740   39.0091    0.0646 C   0  0  0  0  0  0  0  0  0  0  0  0
   -8.9634   41.3898   -0.2311 C   0  0  0  0  0  0  0  0  0  0  0  0
   -8.7364   40.0837   -0.0443 C   0  0  0  0  0  0  0  0  0  0  0  0
  1  2  1  0  0  0
  1  3  2  0  0  0
  2  4  2  0  0  0
  3  5  1  0  0  0
  4  6  1  0  0  0
 26 27  1  0  0  0
 26 29  2  0  0  0
 12 14  1  0  0  0
 12 16  2  0  0  0
 13 15  2  0  0  0
 13 16  1  0  0  0
 27 30  2  0  0  0
 14 17  2  0  0  0
 15 17  1  0  0  0
  5  6  2  0  0  0
  5  7  1  0  0  0
 28 29  1  0  0  0
 28 31  2  0  0  0
 28 35  1  0  0  0
 16 11  1  0  0  0
  6 23  1  0  0  0
 29 25  1  0  0  0
 30 31  1  0  0  0
 30 33  1  0  0  0
 31 34  1  0  0  0
 17 19  1  0  0  0
 40 41  2  0  0  0
 41 39  1  0  0  0
  7  8  1  0  0  0
  7  9  2  0  0  0
 35 36  1  0  0  0
 35 37  2  0  0  0
 32 33  1  0  0  0
 32 34  1  0  0  0
 21 22  1  0  0  0
 18 19  1  0  0  0
 23 24  1  0  0  0
 25 24  1  0  0  0
 39 24  1  0  0  0
 22 20  1  0  0  0
 20 11  1  0  0  0
 11  8  1  0  0  0
  8 10  1  0  0  0
 36 38  1  0  0  0
M  END
> <minimizedAffinity>
-7.80207

$$$$
3ZSQ_O4N_A_1215


 41 44  0  0  0  0  0  0  0  0999 V2000
   -4.9718   37.6633    4.0350 C   0  0  0  0  0  0  0  0  0  0  0  0
   -6.1999   37.9228    4.6063 C   0  0  0  0  0  0  0  0  0  0  0  0
   -4.9218   36.9425    2.8135 C   0  0  0  0  0  0  0  0  0  0  0  0
   -7.3584   37.4770    4.0130 C   0  0  0  0  0  0  0  0  0  0  0  0
   -6.1021   36.5138    2.2240 C   0  0  0  0  0  0  0  0  0  0  0  0
   -7.3433   36.7776    2.8302 C   0  0  0  0  0  0  0  0  0  0  0  0
   -6.0077   35.7733    0.9686 C   0  0  0  0  0  0  0  0  0  0  0  0
   -5.8083   34.4452    1.0792 N   0  0  0  0  0  0  0  0  0  0  0  0
   -6.1400   36.3206   -0.1330 O   0  0  0  0  0  0  0  0  0  0  0  0
   -5.5872   34.0688    1.9616 H   0  0  0  0  0  0  0  0  0  0  0  0
   -5.9087   33.5509   -0.0610 C   0  0  0  0  0  0  0  0  0  0  0  0
   -8.1963   33.1234    0.8060 C   0  0  0  0  0  0  0  0  0  0  0  0
   -7.4203   31.6461   -0.9094 C   0  0  0  0  0  0  0  0  0  0  0  0
   -9.4034   32.4150    0.7950 C   0  0  0  0  0  0  0  0  0  0  0  0
   -8.6004   30.9357   -0.9055 C   0  0  0  0  0  0  0  0  0  0  0  0
   -7.2024   32.7360   -0.0628 C   0  0  0  0  0  0  0  0  0  0  0  0
   -9.5897   31.3265   -0.0509 C   0  0  0  0  0  0  0  0  0  0  0  0
  -11.3308   30.1008   -1.1214 C   0  0  0  0  0  0  0  0  0  0  0  0
  -10.7954   30.6906    0.0868 O   0  0  0  0  0  0  0  0  0  0  0  0
   -4.7136   32.6576    0.0144 C   0  0  0  0  0  0  0  0  0  0  0  0
   -2.4974   33.1279    0.8782 C   0  0  0  0  0  0  0  0  0  0  0  0
   -3.9559   32.8570    1.3182 C   0  0  0  0  0  0  0  0  0  0  0  0
   -8.6945   36.2942    2.2474 C   0  0  0  0  0  0  0  0  0  0  0  0
   -9.7569   37.3776    1.9581 N   0  0  0  0  0  0  0  0  0  0  0  0
  -11.2848   37.0355    2.2270 C   0  0  0  0  0  0  0  0  0  0  0  0
  -11.0787   37.8659    4.5806 C   0  0  0  0  0  0  0  0  0  0  0  0
  -11.1838   37.7289    5.9465 C   0  0  0  0  0  0  0  0  0  0  0  0
  -12.0313   35.6421    4.2724 C   0  0  0  0  0  0  0  0  0  0  0  0
  -11.4826   36.8149    3.7284 C   0  0  0  0  0  0  0  0  0  0  0  0
  -11.6883   36.5676    6.4692 C   0  0  0  0  0  0  0  0  0  0  0  0
  -12.1403   35.5448    5.6426 C   0  0  0  0  0  0  0  0  0  0  0  0
  -12.5570   34.9804    7.7099 C   0  0  0  0  0  0  0  0  0  0  0  0
  -11.8559   36.2182    7.7691 O   0  0  0  0  0  0  0  0  0  0  0  0
  -12.6093   34.4275    6.3642 O   0  0  0  0  0  0  0  0  0  0  0  0
  -12.5505   34.5013    3.3911 C   0  0  0  0  0  0  0  0  0  0  0  0
  -11.8366   33.4433    3.4032 O   0  0  0  0  0  0  0  0  0  0  0  0
  -13.6963   34.6097    2.8801 O   0  0  0  0  0  0  0  0  0  0  0  0
  -10.9915   33.4530    3.8078 H   0  0  0  0  0  0  0  0  0  0  0  0
   -9.4662   38.0067    0.5905 C   0  0  0  0  0  0  0  0  0  0  0  0
   -8.4417   40.1373    1.4977 C   0  0  0  0  0  0  0  0  0  0  0  0
   -9.2095   39.4820    0.6182 C   0  0  0  0  0  0  0  0  0  0  0  0
  1  2  1  0  0  0
  1  3  2  0  0  0
  2  4  2  0  0  0
  3  5  1  0  0  0
  4  6  1  0  0  0
 26 27  1  0  0  0
 26 29  2  0  0  0
 12 14  1  0  0  0
 12 16  2  0  0  0
 13 15  2  0  0  0
 13 16  1  0  0  0
 27 30  2  0  0  0
 14 17  2  0  0  0
 15 17  1  0  0  0
  5  6  2  0  0  0
  5  7  1  0  0  0
 28 29  1  0  0  0
 28 31  2  0  0  0
 28 35  1  0  0  0
 16 11  1  0  0  0
  6 23  1  0  0  0
 29 25  1  0  0  0
 30 31  1  0  0  0
 30 33  1  0  0  0
 31 34  1  0  0  0
 17 19  1  0  0  0
 40 41  2  0  0  0
 41 39  1  0  0  0
  7  8  1  0  0  0
  7  9  2  0  0  0
 35 36  1  0  0  0
 35 37  2  0  0  0
 32 33  1  0  0  0
 32 34  1  0  0  0
 21 22  1  0  0  0
 18 19  1  0  0  0
 23 24  1  0  0  0
 25 24  1  0  0  0
 39 24  1  0  0  0
 22 20  1  0  0  0
 20 11  1  0  0  0
 11  8  1  0  0  0
  8 10  1  0  0  0
 36 38  1  0  0  0
M  END
> <minimizedAffinity>
-7.64377

$$$$
3ZSQ_O4N_A_1215


 41 44  0  0  0  0  0  0  0  0999 V2000
   -3.7682   33.8399    1.8056 C   0  0  0  0  0  0  0  0  0  0  0  0
   -3.9691   32.7661    0.9640 C   0  0  0  0  0  0  0  0  0  0  0  0
   -4.6861   34.9217    1.7690 C   0  0  0  0  0  0  0  0  0  0  0  0
   -5.0316   32.7482    0.0901 C   0  0  0  0  0  0  0  0  0  0  0  0
   -5.7589   34.8782    0.8905 C   0  0  0  0  0  0  0  0  0  0  0  0
   -5.9379   33.7794    0.0313 C   0  0  0  0  0  0  0  0  0  0  0  0
   -6.6796   36.0121    0.8818 C   0  0  0  0  0  0  0  0  0  0  0  0
   -7.2271   36.3381    2.0691 N   0  0  0  0  0  0  0  0  0  0  0  0
   -6.9176   36.6621   -0.1436 O   0  0  0  0  0  0  0  0  0  0  0  0
   -7.1098   35.7265    2.8316 H   0  0  0  0  0  0  0  0  0  0  0  0
   -7.9849   37.5625    2.2607 C   0  0  0  0  0  0  0  0  0  0  0  0
   -6.0479   38.2169    3.6703 C   0  0  0  0  0  0  0  0  0  0  0  0
   -7.6512   39.9330    3.2104 C   0  0  0  0  0  0  0  0  0  0  0  0
   -5.3139   39.1695    4.3865 C   0  0  0  0  0  0  0  0  0  0  0  0
   -6.9397   40.8654    3.9328 C   0  0  0  0  0  0  0  0  0  0  0  0
   -7.2223   38.6106    3.0716 C   0  0  0  0  0  0  0  0  0  0  0  0
   -5.7698   40.4772    4.5180 C   0  0  0  0  0  0  0  0  0  0  0  0
   -4.5133   40.6971    6.5311 C   0  0  0  0  0  0  0  0  0  0  0  0
   -4.9825   41.2855    5.2951 O   0  0  0  0  0  0  0  0  0  0  0  0
   -9.2436   37.1588    2.9569 C   0  0  0  0  0  0  0  0  0  0  0  0
  -10.5421   35.4124    4.0260 C   0  0  0  0  0  0  0  0  0  0  0  0
   -9.1016   35.7905    3.6062 C   0  0  0  0  0  0  0  0  0  0  0  0
   -7.0896   33.6849   -1.0002 C   0  0  0  0  0  0  0  0  0  0  0  0
   -8.3300   32.8622   -0.5873 N   0  0  0  0  0  0  0  0  0  0  0  0
   -8.9633   33.1096    0.8486 C   0  0  0  0  0  0  0  0  0  0  0  0
  -10.2389   35.1262    0.0888 C   0  0  0  0  0  0  0  0  0  0  0  0
  -11.3875   35.8705   -0.0603 C   0  0  0  0  0  0  0  0  0  0  0  0
  -11.5304   33.3095    1.0783 C   0  0  0  0  0  0  0  0  0  0  0  0
  -10.2947   33.8446    0.6790 C   0  0  0  0  0  0  0  0  0  0  0  0
  -12.5834   35.3541    0.3636 C   0  0  0  0  0  0  0  0  0  0  0  0
  -12.6634   34.0725    0.8974 C   0  0  0  0  0  0  0  0  0  0  0  0
  -14.6886   34.8749    0.7530 C   0  0  0  0  0  0  0  0  0  0  0  0
  -13.8162   35.9189    0.3332 O   0  0  0  0  0  0  0  0  0  0  0  0
  -13.9732   33.7255    1.2884 O   0  0  0  0  0  0  0  0  0  0  0  0
  -11.6565   31.8968    1.6582 C   0  0  0  0  0  0  0  0  0  0  0  0
  -12.0683   31.0116    0.8361 O   0  0  0  0  0  0  0  0  0  0  0  0
  -11.1890   31.6740    2.8061 O   0  0  0  0  0  0  0  0  0  0  0  0
  -12.4021   31.2686   -0.0008 H   0  0  0  0  0  0  0  0  0  0  0  0
   -8.0920   31.3902   -0.9440 C   0  0  0  0  0  0  0  0  0  0  0  0
  -10.1985   30.5354   -2.0594 C   0  0  0  0  0  0  0  0  0  0  0  0
   -9.3329   30.5569   -1.0383 C   0  0  0  0  0  0  0  0  0  0  0  0
  1  2  1  0  0  0
  1  3  2  0  0  0
  2  4  2  0  0  0
  3  5  1  0  0  0
  4  6  1  0  0  0
 26 27  1  0  0  0
 26 29  2  0  0  0
 12 14  1  0  0  0
 12 16  2  0  0  0
 13 15  2  0  0  0
 13 16  1  0  0  0
 27 30  2  0  0  0
 14 17  2  0  0  0
 15 17  1  0  0  0
  5  6  2  0  0  0
  5  7  1  0  0  0
 28 29  1  0  0  0
 28 31  2  0  0  0
 28 35  1  0  0  0
 16 11  1  0  0  0
  6 23  1  0  0  0
 29 25  1  0  0  0
 30 31  1  0  0  0
 30 33  1  0  0  0
 31 34  1  0  0  0
 17 19  1  0  0  0
 40 41  2  0  0  0
 41 39  1  0  0  0
  7  8  1  0  0  0
  7  9  2  0  0  0
 35 36  1  0  0  0
 35 37  2  0  0  0
 32 33  1  0  0  0
 32 34  1  0  0  0
 21 22  1  0  0  0
 18 19  1  0  0  0
 23 24  1  0  0  0
 25 24  1  0  0  0
 39 24  1  0  0  0
 22 20  1  0  0  0
 20 11  1  0  0  0
 11  8  1  0  0  0
  8 10  1  0  0  0
 36 38  1  0  0  0
M  END
> <minimizedAffinity>
-7.48712

$$$$
3ZSQ_O4N_A_1215


 41 44  0  0  0  0  0  0  0  0999 V2000
   -4.9104   37.3851    3.7539 C   0  0  0  0  0  0  0  0  0  0  0  0
   -5.8404   38.3972    3.6432 C   0  0  0  0  0  0  0  0  0  0  0  0
   -5.1328   36.1693    3.0564 C   0  0  0  0  0  0  0  0  0  0  0  0
   -6.9748   38.2282    2.8832 C   0  0  0  0  0  0  0  0  0  0  0  0
   -6.2761   36.0237    2.2842 C   0  0  0  0  0  0  0  0  0  0  0  0
   -7.2185   37.0637    2.1955 C   0  0  0  0  0  0  0  0  0  0  0  0
   -6.4693   34.7566    1.5839 C   0  0  0  0  0  0  0  0  0  0  0  0
   -5.9986   34.7006    0.3226 N   0  0  0  0  0  0  0  0  0  0  0  0
   -6.9987   33.7774    2.1237 O   0  0  0  0  0  0  0  0  0  0  0  0
   -5.6966   35.5316   -0.1104 H   0  0  0  0  0  0  0  0  0  0  0  0
   -5.9221   33.4540   -0.4192 C   0  0  0  0  0  0  0  0  0  0  0  0
   -7.4085   31.4844   -0.7002 C   0  0  0  0  0  0  0  0  0  0  0  0
   -8.4299   33.6307   -0.9782 C   0  0  0  0  0  0  0  0  0  0  0  0
   -8.6662   30.9158   -0.9321 C   0  0  0  0  0  0  0  0  0  0  0  0
   -9.6635   33.0707   -1.2273 C   0  0  0  0  0  0  0  0  0  0  0  0
   -7.2974   32.8556   -0.7160 C   0  0  0  0  0  0  0  0  0  0  0  0
   -9.7754   31.7110   -1.2015 C   0  0  0  0  0  0  0  0  0  0  0  0
  -10.8462   30.0680   -2.5555 C   0  0  0  0  0  0  0  0  0  0  0  0
  -10.9278   31.0198   -1.4685 O   0  0  0  0  0  0  0  0  0  0  0  0
   -5.1057   32.5279    0.4221 C   0  0  0  0  0  0  0  0  0  0  0  0
   -3.2758   32.8422    1.9815 C   0  0  0  0  0  0  0  0  0  0  0  0
   -3.6533   32.9754    0.4869 C   0  0  0  0  0  0  0  0  0  0  0  0
   -8.5335   36.9532    1.3845 C   0  0  0  0  0  0  0  0  0  0  0  0
   -9.5996   38.0431    1.6323 N   0  0  0  0  0  0  0  0  0  0  0  0
  -10.8998   37.6607    2.4613 C   0  0  0  0  0  0  0  0  0  0  0  0
  -12.0387   36.1851    0.7890 C   0  0  0  0  0  0  0  0  0  0  0  0
  -12.5288   34.9765    0.3477 C   0  0  0  0  0  0  0  0  0  0  0  0
  -11.1626   35.1108    2.7955 C   0  0  0  0  0  0  0  0  0  0  0  0
  -11.3676   36.2694    2.0284 C   0  0  0  0  0  0  0  0  0  0  0  0
  -12.3541   33.8579    1.1190 C   0  0  0  0  0  0  0  0  0  0  0  0
  -11.6488   33.9139    2.3161 C   0  0  0  0  0  0  0  0  0  0  0  0
  -12.1760   31.8298    1.9363 C   0  0  0  0  0  0  0  0  0  0  0  0
  -12.7707   32.5878    0.8880 O   0  0  0  0  0  0  0  0  0  0  0  0
  -11.5882   32.6670    2.9721 O   0  0  0  0  0  0  0  0  0  0  0  0
  -10.3796   35.1342    4.1123 C   0  0  0  0  0  0  0  0  0  0  0  0
   -9.1137   35.0282    3.9884 O   0  0  0  0  0  0  0  0  0  0  0  0
  -10.9928   35.4306    5.1715 O   0  0  0  0  0  0  0  0  0  0  0  0
   -8.7414   34.8025    3.1587 H   0  0  0  0  0  0  0  0  0  0  0  0
   -9.8661   38.7863    0.3181 C   0  0  0  0  0  0  0  0  0  0  0  0
   -8.6095   40.9591    0.6526 C   0  0  0  0  0  0  0  0  0  0  0  0
   -8.8530   39.8331   -0.0296 C   0  0  0  0  0  0  0  0  0  0  0  0
  1  2  1  0  0  0
  1  3  2  0  0  0
  2  4  2  0  0  0
  3  5  1  0  0  0
  4  6  1  0  0  0
 26 27  1  0  0  0
 26 29  2  0  0  0
 12 14  1  0  0  0
 12 16  2  0  0  0
 13 15  2  0  0  0
 13 16  1  0  0  0
 27 30  2  0  0  0
 14 17  2  0  0  0
 15 17  1  0  0  0
  5  6  2  0  0  0
  5  7  1  0  0  0
 28 29  1  0  0  0
 28 31  2  0  0  0
 28 35  1  0  0  0
 16 11  1  0  0  0
  6 23  1  0  0  0
 29 25  1  0  0  0
 30 31  1  0  0  0
 30 33  1  0  0  0
 31 34  1  0  0  0
 17 19  1  0  0  0
 40 41  2  0  0  0
 41 39  1  0  0  0
  7  8  1  0  0  0
  7  9  2  0  0  0
 35 36  1  0  0  0
 35 37  2  0  0  0
 32 33  1  0  0  0
 32 34  1  0  0  0
 21 22  1  0  0  0
 18 19  1  0  0  0
 23 24  1  0  0  0
 25 24  1  0  0  0
 39 24  1  0  0  0
 22 20  1  0  0  0
 20 11  1  0  0  0
 11  8  1  0  0  0
  8 10  1  0  0  0
 36 38  1  0  0  0
M  END
> <minimizedAffinity>
-7.46228

$$$$
3ZSQ_O4N_A_1215


 41 44  0  0  0  0  0  0  0  0999 V2000
   -4.1841   32.6701    0.9548 C   0  0  0  0  0  0  0  0  0  0  0  0
   -4.0924   33.9664    1.4163 C   0  0  0  0  0  0  0  0  0  0  0  0
   -5.3489   32.2744    0.2471 C   0  0  0  0  0  0  0  0  0  0  0  0
   -5.1187   34.8592    1.2104 C   0  0  0  0  0  0  0  0  0  0  0  0
   -6.3666   33.1936    0.0377 C   0  0  0  0  0  0  0  0  0  0  0  0
   -6.2586   34.5070    0.5285 C   0  0  0  0  0  0  0  0  0  0  0  0
   -7.5496   32.7466   -0.6930 C   0  0  0  0  0  0  0  0  0  0  0  0
   -8.6386   32.4770    0.0534 N   0  0  0  0  0  0  0  0  0  0  0  0
   -7.5689   32.6552   -1.9267 O   0  0  0  0  0  0  0  0  0  0  0  0
   -8.5481   32.4436    1.0331 H   0  0  0  0  0  0  0  0  0  0  0  0
   -9.9419   32.2341   -0.5404 C   0  0  0  0  0  0  0  0  0  0  0  0
  -12.0512   32.6470    0.7036 C   0  0  0  0  0  0  0  0  0  0  0  0
  -10.9813   34.5707   -0.2354 C   0  0  0  0  0  0  0  0  0  0  0  0
  -13.0265   33.5082    1.2196 C   0  0  0  0  0  0  0  0  0  0  0  0
  -11.9523   35.4160    0.2544 C   0  0  0  0  0  0  0  0  0  0  0  0
  -11.0166   33.1903   -0.0225 C   0  0  0  0  0  0  0  0  0  0  0  0
  -12.9728   34.8780    0.9831 C   0  0  0  0  0  0  0  0  0  0  0  0
  -15.3386   35.1448    1.0901 C   0  0  0  0  0  0  0  0  0  0  0  0
  -14.0236   35.5920    1.4961 O   0  0  0  0  0  0  0  0  0  0  0  0
  -10.2826   30.8171   -0.2116 C   0  0  0  0  0  0  0  0  0  0  0  0
  -10.9154   30.2551   -2.4837 C   0  0  0  0  0  0  0  0  0  0  0  0
   -9.9232   29.8823   -1.3565 C   0  0  0  0  0  0  0  0  0  0  0  0
   -7.3727   35.5706    0.3649 C   0  0  0  0  0  0  0  0  0  0  0  0
   -8.1460   35.9725    1.6402 N   0  0  0  0  0  0  0  0  0  0  0  0
   -8.0254   37.4677    2.1633 C   0  0  0  0  0  0  0  0  0  0  0  0
   -5.6869   37.4960    3.0586 C   0  0  0  0  0  0  0  0  0  0  0  0
   -4.7593   37.4774    4.0759 C   0  0  0  0  0  0  0  0  0  0  0  0
   -7.4966   37.5179    4.6933 C   0  0  0  0  0  0  0  0  0  0  0  0
   -7.0672   37.4957    3.3561 C   0  0  0  0  0  0  0  0  0  0  0  0
   -5.1879   37.4644    5.3769 C   0  0  0  0  0  0  0  0  0  0  0  0
   -6.5424   37.5183    5.6873 C   0  0  0  0  0  0  0  0  0  0  0  0
   -5.4150   37.5877    7.5555 C   0  0  0  0  0  0  0  0  0  0  0  0
   -4.4546   37.4235    6.5173 O   0  0  0  0  0  0  0  0  0  0  0  0
   -6.7854   37.4808    7.0760 O   0  0  0  0  0  0  0  0  0  0  0  0
   -8.9798   37.5899    5.0708 C   0  0  0  0  0  0  0  0  0  0  0  0
   -9.3926   36.6402    5.8169 O   0  0  0  0  0  0  0  0  0  0  0  0
   -9.6227   38.6347    4.7867 O   0  0  0  0  0  0  0  0  0  0  0  0
   -8.8448   35.8966    5.9750 H   0  0  0  0  0  0  0  0  0  0  0  0
   -7.9360   34.8944    2.7098 C   0  0  0  0  0  0  0  0  0  0  0  0
  -10.2793   34.3705    3.5141 C   0  0  0  0  0  0  0  0  0  0  0  0
   -9.1194   34.0088    2.9517 C   0  0  0  0  0  0  0  0  0  0  0  0
  1  2  1  0  0  0
  1  3  2  0  0  0
  2  4  2  0  0  0
  3  5  1  0  0  0
  4  6  1  0  0  0
 26 27  1  0  0  0
 26 29  2  0  0  0
 12 14  1  0  0  0
 12 16  2  0  0  0
 13 15  2  0  0  0
 13 16  1  0  0  0
 27 30  2  0  0  0
 14 17  2  0  0  0
 15 17  1  0  0  0
  5  6  2  0  0  0
  5  7  1  0  0  0
 28 29  1  0  0  0
 28 31  2  0  0  0
 28 35  1  0  0  0
 16 11  1  0  0  0
  6 23  1  0  0  0
 29 25  1  0  0  0
 30 31  1  0  0  0
 30 33  1  0  0  0
 31 34  1  0  0  0
 17 19  1  0  0  0
 40 41  2  0  0  0
 41 39  1  0  0  0
  7  8  1  0  0  0
  7  9  2  0  0  0
 35 36  1  0  0  0
 35 37  2  0  0  0
 32 33  1  0  0  0
 32 34  1  0  0  0
 21 22  1  0  0  0
 18 19  1  0  0  0
 23 24  1  0  0  0
 25 24  1  0  0  0
 39 24  1  0  0  0
 22 20  1  0  0  0
 20 11  1  0  0  0
 11  8  1  0  0  0
  8 10  1  0  0  0
 36 38  1  0  0  0
M  END
> <minimizedAffinity>
-7.33237

$$$$
3ZSQ_O4N_A_1215


 41 44  0  0  0  0  0  0  0  0999 V2000
   -3.8582   33.0786    0.8971 C   0  0  0  0  0  0  0  0  0  0  0  0
   -4.8592   32.9200   -0.0382 C   0  0  0  0  0  0  0  0  0  0  0  0
   -4.0484   34.0047    1.9555 C   0  0  0  0  0  0  0  0  0  0  0  0
   -6.0174   33.6583    0.0411 C   0  0  0  0  0  0  0  0  0  0  0  0
   -5.2293   34.7294    2.0256 C   0  0  0  0  0  0  0  0  0  0  0  0
   -6.2319   34.5620    1.0538 C   0  0  0  0  0  0  0  0  0  0  0  0
   -5.3853   35.6739    3.1287 C   0  0  0  0  0  0  0  0  0  0  0  0
   -5.2640   36.9780    2.8119 N   0  0  0  0  0  0  0  0  0  0  0  0
   -5.6508   35.3072    4.2801 O   0  0  0  0  0  0  0  0  0  0  0  0
   -4.9337   37.2220    1.9172 H   0  0  0  0  0  0  0  0  0  0  0  0
   -5.6046   38.0357    3.7476 C   0  0  0  0  0  0  0  0  0  0  0  0
   -7.6196   38.7850    2.5043 C   0  0  0  0  0  0  0  0  0  0  0  0
   -7.9178   38.3432    4.8373 C   0  0  0  0  0  0  0  0  0  0  0  0
   -8.9846   39.0880    2.4424 C   0  0  0  0  0  0  0  0  0  0  0  0
   -9.2567   38.6617    4.7810 C   0  0  0  0  0  0  0  0  0  0  0  0
   -7.0889   38.4012    3.7142 C   0  0  0  0  0  0  0  0  0  0  0  0
   -9.7850   39.0325    3.5788 C   0  0  0  0  0  0  0  0  0  0  0  0
  -11.6515   40.2538    4.4181 C   0  0  0  0  0  0  0  0  0  0  0  0
  -11.0869   39.4125    3.3848 O   0  0  0  0  0  0  0  0  0  0  0  0
   -4.7566   39.2055    3.3676 C   0  0  0  0  0  0  0  0  0  0  0  0
   -4.1987   41.5391    3.7169 C   0  0  0  0  0  0  0  0  0  0  0  0
   -4.8483   40.3147    4.4046 C   0  0  0  0  0  0  0  0  0  0  0  0
   -7.5555   35.3666    1.0499 C   0  0  0  0  0  0  0  0  0  0  0  0
   -8.8156   34.6390    1.5684 N   0  0  0  0  0  0  0  0  0  0  0  0
  -10.0852   34.5457    0.6180 C   0  0  0  0  0  0  0  0  0  0  0  0
   -9.3366   33.1075   -1.2905 C   0  0  0  0  0  0  0  0  0  0  0  0
   -9.3101   31.9332   -2.0087 C   0  0  0  0  0  0  0  0  0  0  0  0
  -10.7461   32.0561    0.3993 C   0  0  0  0  0  0  0  0  0  0  0  0
  -10.0724   33.1881   -0.0880 C   0  0  0  0  0  0  0  0  0  0  0  0
   -9.9985   30.8443   -1.5430 C   0  0  0  0  0  0  0  0  0  0  0  0
  -10.6835   30.8911   -0.3337 C   0  0  0  0  0  0  0  0  0  0  0  0
  -10.8117   28.8537   -1.1076 C   0  0  0  0  0  0  0  0  0  0  0  0
  -10.1239   29.6124   -2.0968 O   0  0  0  0  0  0  0  0  0  0  0  0
  -11.3404   29.6801   -0.0320 O   0  0  0  0  0  0  0  0  0  0  0  0
  -11.4996   32.0689    1.7334 C   0  0  0  0  0  0  0  0  0  0  0  0
  -12.7208   32.4326    1.6590 O   0  0  0  0  0  0  0  0  0  0  0  0
  -10.9428   31.5636    2.7435 O   0  0  0  0  0  0  0  0  0  0  0  0
  -13.0524   32.8008    0.8638 H   0  0  0  0  0  0  0  0  0  0  0  0
   -9.1105   35.1117    2.9967 C   0  0  0  0  0  0  0  0  0  0  0  0
  -11.3369   34.9159    4.1872 C   0  0  0  0  0  0  0  0  0  0  0  0
  -10.5421   35.4645    3.2599 C   0  0  0  0  0  0  0  0  0  0  0  0
  1  2  1  0  0  0
  1  3  2  0  0  0
  2  4  2  0  0  0
  3  5  1  0  0  0
  4  6  1  0  0  0
 26 27  1  0  0  0
 26 29  2  0  0  0
 12 14  1  0  0  0
 12 16  2  0  0  0
 13 15  2  0  0  0
 13 16  1  0  0  0
 27 30  2  0  0  0
 14 17  2  0  0  0
 15 17  1  0  0  0
  5  6  2  0  0  0
  5  7  1  0  0  0
 28 29  1  0  0  0
 28 31  2  0  0  0
 28 35  1  0  0  0
 16 11  1  0  0  0
  6 23  1  0  0  0
 29 25  1  0  0  0
 30 31  1  0  0  0
 30 33  1  0  0  0
 31 34  1  0  0  0
 17 19  1  0  0  0
 40 41  2  0  0  0
 41 39  1  0  0  0
  7  8  1  0  0  0
  7  9  2  0  0  0
 35 36  1  0  0  0
 35 37  2  0  0  0
 32 33  1  0  0  0
 32 34  1  0  0  0
 21 22  1  0  0  0
 18 19  1  0  0  0
 23 24  1  0  0  0
 25 24  1  0  0  0
 39 24  1  0  0  0
 22 20  1  0  0  0
 20 11  1  0  0  0
 11  8  1  0  0  0
  8 10  1  0  0  0
 36 38  1  0  0  0
M  END
> <minimizedAffinity>
-7.31062

$$$$
3ZSQ_O4N_A_1215


 41 44  0  0  0  0  0  0  0  0999 V2000
  -14.1954   34.1666    2.3247 C   0  0  0  0  0  0  0  0  0  0  0  0
  -13.5840   35.1219    3.1092 C   0  0  0  0  0  0  0  0  0  0  0  0
  -13.4027   33.1370    1.7542 C   0  0  0  0  0  0  0  0  0  0  0  0
  -12.2253   35.0898    3.3233 C   0  0  0  0  0  0  0  0  0  0  0  0
  -12.0364   33.1142    1.9936 C   0  0  0  0  0  0  0  0  0  0  0  0
  -11.4308   34.1058    2.7858 C   0  0  0  0  0  0  0  0  0  0  0  0
  -11.2555   32.0395    1.3866 C   0  0  0  0  0  0  0  0  0  0  0  0
  -10.7990   32.2718    0.1402 N   0  0  0  0  0  0  0  0  0  0  0  0
  -10.9931   30.9915    1.9895 O   0  0  0  0  0  0  0  0  0  0  0  0
  -11.1292   33.0599   -0.3487 H   0  0  0  0  0  0  0  0  0  0  0  0
   -9.8355   31.3972   -0.5055 C   0  0  0  0  0  0  0  0  0  0  0  0
   -7.3872   30.9865   -0.5755 C   0  0  0  0  0  0  0  0  0  0  0  0
   -8.0722   33.2240   -0.0737 C   0  0  0  0  0  0  0  0  0  0  0  0
   -6.0627   31.4313   -0.4944 C   0  0  0  0  0  0  0  0  0  0  0  0
   -6.7685   33.6573    0.0269 C   0  0  0  0  0  0  0  0  0  0  0  0
   -8.3972   31.8981   -0.3709 C   0  0  0  0  0  0  0  0  0  0  0  0
   -5.7671   32.7552   -0.1861 C   0  0  0  0  0  0  0  0  0  0  0  0
   -3.9409   33.2415    1.2658 C   0  0  0  0  0  0  0  0  0  0  0  0
   -4.4305   33.0369   -0.0805 O   0  0  0  0  0  0  0  0  0  0  0  0
  -10.2458   31.3268   -1.9403 C   0  0  0  0  0  0  0  0  0  0  0  0
  -10.8642   29.1169   -1.1576 C   0  0  0  0  0  0  0  0  0  0  0  0
  -10.3746   29.8852   -2.4083 C   0  0  0  0  0  0  0  0  0  0  0  0
   -9.9074   34.1626    3.0601 C   0  0  0  0  0  0  0  0  0  0  0  0
   -9.2428   35.5563    3.0192 N   0  0  0  0  0  0  0  0  0  0  0  0
   -9.1493   36.3943    4.3656 C   0  0  0  0  0  0  0  0  0  0  0  0
   -8.8881   38.8663    4.0625 C   0  0  0  0  0  0  0  0  0  0  0  0
   -8.1544   40.0034    3.8089 C   0  0  0  0  0  0  0  0  0  0  0  0
   -6.8558   37.5211    3.9741 C   0  0  0  0  0  0  0  0  0  0  0  0
   -8.2492   37.6088    4.1277 C   0  0  0  0  0  0  0  0  0  0  0  0
   -6.8005   39.9035    3.6263 C   0  0  0  0  0  0  0  0  0  0  0  0
   -6.1487   38.6804    3.7406 C   0  0  0  0  0  0  0  0  0  0  0  0
   -4.6399   40.2260    3.4234 C   0  0  0  0  0  0  0  0  0  0  0  0
   -5.9020   40.8806    3.3471 O   0  0  0  0  0  0  0  0  0  0  0  0
   -4.7616   38.7777    3.5050 O   0  0  0  0  0  0  0  0  0  0  0  0
   -6.1043   36.1923    4.1061 C   0  0  0  0  0  0  0  0  0  0  0  0
   -6.1083   35.4645    3.0576 O   0  0  0  0  0  0  0  0  0  0  0  0
   -5.4048   35.9966    5.1347 O   0  0  0  0  0  0  0  0  0  0  0  0
   -6.6633   35.6858    2.3358 H   0  0  0  0  0  0  0  0  0  0  0  0
   -9.7849   36.3307    1.8121 C   0  0  0  0  0  0  0  0  0  0  0  0
   -8.4687   37.9598    0.3888 C   0  0  0  0  0  0  0  0  0  0  0  0
   -8.7535   36.7170    0.7972 C   0  0  0  0  0  0  0  0  0  0  0  0
  1  2  1  0  0  0
  1  3  2  0  0  0
  2  4  2  0  0  0
  3  5  1  0  0  0
  4  6  1  0  0  0
 26 27  1  0  0  0
 26 29  2  0  0  0
 12 14  1  0  0  0
 12 16  2  0  0  0
 13 15  2  0  0  0
 13 16  1  0  0  0
 27 30  2  0  0  0
 14 17  2  0  0  0
 15 17  1  0  0  0
  5  6  2  0  0  0
  5  7  1  0  0  0
 28 29  1  0  0  0
 28 31  2  0  0  0
 28 35  1  0  0  0
 16 11  1  0  0  0
  6 23  1  0  0  0
 29 25  1  0  0  0
 30 31  1  0  0  0
 30 33  1  0  0  0
 31 34  1  0  0  0
 17 19  1  0  0  0
 40 41  2  0  0  0
 41 39  1  0  0  0
  7  8  1  0  0  0
  7  9  2  0  0  0
 35 36  1  0  0  0
 35 37  2  0  0  0
 32 33  1  0  0  0
 32 34  1  0  0  0
 21 22  1  0  0  0
 18 19  1  0  0  0
 23 24  1  0  0  0
 25 24  1  0  0  0
 39 24  1  0  0  0
 22 20  1  0  0  0
 20 11  1  0  0  0
 11  8  1  0  0  0
  8 10  1  0  0  0
 36 38  1  0  0  0
M  END
> <minimizedAffinity>
-7.09132

$$$$
3ZSQ_O4N_A_1215


 41 44  0  0  0  0  0  0  0  0999 V2000
  -14.2093   33.9077    1.2329 C   0  0  0  0  0  0  0  0  0  0  0  0
  -14.4369   34.7007    2.3380 C   0  0  0  0  0  0  0  0  0  0  0  0
  -12.9350   33.3041    1.0721 C   0  0  0  0  0  0  0  0  0  0  0  0
  -13.4417   34.9186    3.2626 C   0  0  0  0  0  0  0  0  0  0  0  0
  -11.9492   33.5249    2.0229 C   0  0  0  0  0  0  0  0  0  0  0  0
  -12.1981   34.3479    3.1358 C   0  0  0  0  0  0  0  0  0  0  0  0
  -10.6508   32.8876    1.8199 C   0  0  0  0  0  0  0  0  0  0  0  0
   -9.8206   33.5004    0.9534 N   0  0  0  0  0  0  0  0  0  0  0  0
  -10.3127   31.8672    2.4322 O   0  0  0  0  0  0  0  0  0  0  0  0
  -10.1692   34.2350    0.3983 H   0  0  0  0  0  0  0  0  0  0  0  0
   -8.4279   33.1126    0.8116 C   0  0  0  0  0  0  0  0  0  0  0  0
   -6.8571   34.0742    2.4776 C   0  0  0  0  0  0  0  0  0  0  0  0
   -7.1506   35.3205    0.4558 C   0  0  0  0  0  0  0  0  0  0  0  0
   -5.9382   35.0495    2.8817 C   0  0  0  0  0  0  0  0  0  0  0  0
   -6.2621   36.2914    0.8624 C   0  0  0  0  0  0  0  0  0  0  0  0
   -7.4592   34.2119    1.2482 C   0  0  0  0  0  0  0  0  0  0  0  0
   -5.6576   36.1492    2.0773 C   0  0  0  0  0  0  0  0  0  0  0  0
   -4.6356   36.9855    4.0612 C   0  0  0  0  0  0  0  0  0  0  0  0
   -4.7859   37.0541    2.6236 O   0  0  0  0  0  0  0  0  0  0  0  0
   -8.2424   32.7783   -0.6327 C   0  0  0  0  0  0  0  0  0  0  0  0
   -6.1033   31.6382   -0.5726 C   0  0  0  0  0  0  0  0  0  0  0  0
   -7.6149   31.4034   -0.8056 C   0  0  0  0  0  0  0  0  0  0  0  0
  -11.1316   34.6682    4.2124 C   0  0  0  0  0  0  0  0  0  0  0  0
  -10.6457   36.1319    4.2992 N   0  0  0  0  0  0  0  0  0  0  0  0
   -9.2106   36.4924    3.7210 C   0  0  0  0  0  0  0  0  0  0  0  0
  -10.2463   37.0132    1.5013 C   0  0  0  0  0  0  0  0  0  0  0  0
  -10.4224   37.7902    0.3784 C   0  0  0  0  0  0  0  0  0  0  0  0
   -8.7333   38.6830    2.4340 C   0  0  0  0  0  0  0  0  0  0  0  0
   -9.3832   37.4418    2.5333 C   0  0  0  0  0  0  0  0  0  0  0  0
   -9.7576   38.9834    0.2751 C   0  0  0  0  0  0  0  0  0  0  0  0
   -8.9462   39.4450    1.3058 C   0  0  0  0  0  0  0  0  0  0  0  0
   -9.0284   40.9885   -0.2358 C   0  0  0  0  0  0  0  0  0  0  0  0
   -9.7690   39.8822   -0.7407 O   0  0  0  0  0  0  0  0  0  0  0  0
   -8.3377   40.6820    1.0085 O   0  0  0  0  0  0  0  0  0  0  0  0
   -7.8427   39.2276    3.5556 C   0  0  0  0  0  0  0  0  0  0  0  0
   -6.6358   39.4676    3.2168 O   0  0  0  0  0  0  0  0  0  0  0  0
   -8.3824   39.5640    4.6425 O   0  0  0  0  0  0  0  0  0  0  0  0
   -6.3165   39.1788    2.3845 H   0  0  0  0  0  0  0  0  0  0  0  0
  -10.9283   36.6671    5.7078 C   0  0  0  0  0  0  0  0  0  0  0  0
  -13.3479   37.2106    6.2201 C   0  0  0  0  0  0  0  0  0  0  0  0
  -12.1229   37.5645    5.8122 C   0  0  0  0  0  0  0  0  0  0  0  0
  1  2  1  0  0  0
  1  3  2  0  0  0
  2  4  2  0  0  0
  3  5  1  0  0  0
  4  6  1  0  0  0
 26 27  1  0  0  0
 26 29  2  0  0  0
 12 14  1  0  0  0
 12 16  2  0  0  0
 13 15  2  0  0  0
 13 16  1  0  0  0
 27 30  2  0  0  0
 14 17  2  0  0  0
 15 17  1  0  0  0
  5  6  2  0  0  0
  5  7  1  0  0  0
 28 29  1  0  0  0
 28 31  2  0  0  0
 28 35  1  0  0  0
 16 11  1  0  0  0
  6 23  1  0  0  0
 29 25  1  0  0  0
 30 31  1  0  0  0
 30 33  1  0  0  0
 31 34  1  0  0  0
 17 19  1  0  0  0
 40 41  2  0  0  0
 41 39  1  0  0  0
  7  8  1  0  0  0
  7  9  2  0  0  0
 35 36  1  0  0  0
 35 37  2  0  0  0
 32 33  1  0  0  0
 32 34  1  0  0  0
 21 22  1  0  0  0
 18 19  1  0  0  0
 23 24  1  0  0  0
 25 24  1  0  0  0
 39 24  1  0  0  0
 22 20  1  0  0  0
 20 11  1  0  0  0
 11  8  1  0  0  0
  8 10  1  0  0  0
 36 38  1  0  0  0
M  END
> <minimizedAffinity>
-7.08418

$$$$
3ZSQ_O4N_A_1215


 41 44  0  0  0  0  0  0  0  0999 V2000
   -4.1361   34.0605    1.9382 C   0  0  0  0  0  0  0  0  0  0  0  0
   -4.6688   33.4074    0.8466 C   0  0  0  0  0  0  0  0  0  0  0  0
   -4.8794   35.1084    2.5411 C   0  0  0  0  0  0  0  0  0  0  0  0
   -5.8932   33.7745    0.3377 C   0  0  0  0  0  0  0  0  0  0  0  0
   -6.1184   35.4541    2.0214 C   0  0  0  0  0  0  0  0  0  0  0  0
   -6.6374   34.7840    0.8993 C   0  0  0  0  0  0  0  0  0  0  0  0
   -6.8509   36.5392    2.6689 C   0  0  0  0  0  0  0  0  0  0  0  0
   -7.3879   36.2546    3.8716 N   0  0  0  0  0  0  0  0  0  0  0  0
   -6.9442   37.6657    2.1662 O   0  0  0  0  0  0  0  0  0  0  0  0
   -7.3972   35.3196    4.1797 H   0  0  0  0  0  0  0  0  0  0  0  0
   -7.9534   37.2824    4.7283 C   0  0  0  0  0  0  0  0  0  0  0  0
   -5.7638   37.6482    5.8414 C   0  0  0  0  0  0  0  0  0  0  0  0
   -7.6873   37.6385    7.2650 C   0  0  0  0  0  0  0  0  0  0  0  0
   -4.9901   37.9062    6.9788 C   0  0  0  0  0  0  0  0  0  0  0  0
   -6.9238   37.8714    8.3876 C   0  0  0  0  0  0  0  0  0  0  0  0
   -7.1256   37.5229    5.9910 C   0  0  0  0  0  0  0  0  0  0  0  0
   -5.5743   38.0057    8.2374 C   0  0  0  0  0  0  0  0  0  0  0  0
   -3.2937   38.2194    8.8954 C   0  0  0  0  0  0  0  0  0  0  0  0
   -4.6921   38.2001    9.2675 O   0  0  0  0  0  0  0  0  0  0  0  0
   -9.3303   36.8152    5.0718 C   0  0  0  0  0  0  0  0  0  0  0  0
  -10.6234   37.7657    3.2542 C   0  0  0  0  0  0  0  0  0  0  0  0
  -10.1080   36.4229    3.8247 C   0  0  0  0  0  0  0  0  0  0  0  0
   -7.9940   35.1454    0.2449 C   0  0  0  0  0  0  0  0  0  0  0  0
   -9.2601   34.5252    0.8761 N   0  0  0  0  0  0  0  0  0  0  0  0
   -9.1558   33.0794    1.5261 C   0  0  0  0  0  0  0  0  0  0  0  0
   -8.5535   31.7446   -0.5054 C   0  0  0  0  0  0  0  0  0  0  0  0
   -8.8287   30.8498   -1.5149 C   0  0  0  0  0  0  0  0  0  0  0  0
  -10.7742   31.3837    0.4359 C   0  0  0  0  0  0  0  0  0  0  0  0
   -9.5314   32.0372    0.4703 C   0  0  0  0  0  0  0  0  0  0  0  0
  -10.0560   30.2432   -1.5600 C   0  0  0  0  0  0  0  0  0  0  0  0
  -11.0105   30.4795   -0.5766 C   0  0  0  0  0  0  0  0  0  0  0  0
  -11.7929   28.9545   -1.9287 C   0  0  0  0  0  0  0  0  0  0  0  0
  -10.5385   29.3584   -2.4679 O   0  0  0  0  0  0  0  0  0  0  0  0
  -12.2122   29.7769   -0.8030 O   0  0  0  0  0  0  0  0  0  0  0  0
  -11.8434   31.6110    1.5096 C   0  0  0  0  0  0  0  0  0  0  0  0
  -11.7013   30.9119    2.5680 O   0  0  0  0  0  0  0  0  0  0  0  0
  -12.6511   32.5657    1.3615 O   0  0  0  0  0  0  0  0  0  0  0  0
  -11.0729   30.2172    2.5898 H   0  0  0  0  0  0  0  0  0  0  0  0
  -10.4402   34.7192   -0.0832 C   0  0  0  0  0  0  0  0  0  0  0  0
  -12.3906   36.3209    0.1238 C   0  0  0  0  0  0  0  0  0  0  0  0
  -11.0838   36.0703   -0.0242 C   0  0  0  0  0  0  0  0  0  0  0  0
  1  2  1  0  0  0
  1  3  2  0  0  0
  2  4  2  0  0  0
  3  5  1  0  0  0
  4  6  1  0  0  0
 26 27  1  0  0  0
 26 29  2  0  0  0
 12 14  1  0  0  0
 12 16  2  0  0  0
 13 15  2  0  0  0
 13 16  1  0  0  0
 27 30  2  0  0  0
 14 17  2  0  0  0
 15 17  1  0  0  0
  5  6  2  0  0  0
  5  7  1  0  0  0
 28 29  1  0  0  0
 28 31  2  0  0  0
 28 35  1  0  0  0
 16 11  1  0  0  0
  6 23  1  0  0  0
 29 25  1  0  0  0
 30 31  1  0  0  0
 30 33  1  0  0  0
 31 34  1  0  0  0
 17 19  1  0  0  0
 40 41  2  0  0  0
 41 39  1  0  0  0
  7  8  1  0  0  0
  7  9  2  0  0  0
 35 36  1  0  0  0
 35 37  2  0  0  0
 32 33  1  0  0  0
 32 34  1  0  0  0
 21 22  1  0  0  0
 18 19  1  0  0  0
 23 24  1  0  0  0
 25 24  1  0  0  0
 39 24  1  0  0  0
 22 20  1  0  0  0
 20 11  1  0  0  0
 11  8  1  0  0  0
  8 10  1  0  0  0
 36 38  1  0  0  0
M  END
> <minimizedAffinity>
-7.02160

$$$$
3ZSQ_O4N_A_1215


 41 44  0  0  0  0  0  0  0  0999 V2000
   -5.3165   37.7949    4.4827 C   0  0  0  0  0  0  0  0  0  0  0  0
   -4.6303   37.3254    3.3824 C   0  0  0  0  0  0  0  0  0  0  0  0
   -6.7122   37.5550    4.5747 C   0  0  0  0  0  0  0  0  0  0  0  0
   -5.2881   36.6499    2.3805 C   0  0  0  0  0  0  0  0  0  0  0  0
   -7.3546   36.8596    3.5606 C   0  0  0  0  0  0  0  0  0  0  0  0
   -6.6382   36.4010    2.4407 C   0  0  0  0  0  0  0  0  0  0  0  0
   -8.7918   36.6353    3.6917 C   0  0  0  0  0  0  0  0  0  0  0  0
   -9.5872   37.6425    3.2809 N   0  0  0  0  0  0  0  0  0  0  0  0
   -9.2585   35.5719    4.1182 O   0  0  0  0  0  0  0  0  0  0  0  0
   -9.1804   38.5126    3.0645 H   0  0  0  0  0  0  0  0  0  0  0  0
  -11.0252   37.4865    3.1470 C   0  0  0  0  0  0  0  0  0  0  0  0
  -11.6583   36.2948    1.0622 C   0  0  0  0  0  0  0  0  0  0  0  0
  -11.7663   38.6845    0.9910 C   0  0  0  0  0  0  0  0  0  0  0  0
  -12.1196   36.2885   -0.2592 C   0  0  0  0  0  0  0  0  0  0  0  0
  -12.2001   38.6791   -0.3163 C   0  0  0  0  0  0  0  0  0  0  0  0
  -11.4905   37.5071    1.6908 C   0  0  0  0  0  0  0  0  0  0  0  0
  -12.3763   37.4764   -0.9361 C   0  0  0  0  0  0  0  0  0  0  0  0
  -13.7766   38.2474   -2.7037 C   0  0  0  0  0  0  0  0  0  0  0  0
  -12.7641   37.3227   -2.2411 O   0  0  0  0  0  0  0  0  0  0  0  0
  -11.6315   38.6130    3.9187 C   0  0  0  0  0  0  0  0  0  0  0  0
  -12.6878   36.8153    5.1563 C   0  0  0  0  0  0  0  0  0  0  0  0
  -12.9606   38.2069    4.5372 C   0  0  0  0  0  0  0  0  0  0  0  0
   -7.2992   35.6541    1.2556 C   0  0  0  0  0  0  0  0  0  0  0  0
   -7.3402   34.1122    1.3386 N   0  0  0  0  0  0  0  0  0  0  0  0
   -8.6803   33.4122    1.8263 C   0  0  0  0  0  0  0  0  0  0  0  0
   -8.5046   32.5715   -0.5260 C   0  0  0  0  0  0  0  0  0  0  0  0
   -8.9570   31.8607   -1.6149 C   0  0  0  0  0  0  0  0  0  0  0  0
  -10.3966   31.7785    0.7927 C   0  0  0  0  0  0  0  0  0  0  0  0
   -9.2310   32.5547    0.6847 C   0  0  0  0  0  0  0  0  0  0  0  0
  -10.1134   31.1339   -1.5104 C   0  0  0  0  0  0  0  0  0  0  0  0
  -10.8115   31.0637   -0.3098 C   0  0  0  0  0  0  0  0  0  0  0  0
  -11.7953   29.7448   -1.7446 C   0  0  0  0  0  0  0  0  0  0  0  0
  -10.7421   30.3891   -2.4538 O   0  0  0  0  0  0  0  0  0  0  0  0
  -11.9810   30.2812   -0.4040 O   0  0  0  0  0  0  0  0  0  0  0  0
  -11.1829   31.6686    2.1032 C   0  0  0  0  0  0  0  0  0  0  0  0
  -11.2102   30.5014    2.6189 O   0  0  0  0  0  0  0  0  0  0  0  0
  -11.5767   32.7277    2.6589 O   0  0  0  0  0  0  0  0  0  0  0  0
  -10.8950   29.7661    2.1310 H   0  0  0  0  0  0  0  0  0  0  0  0
   -6.0639   33.6171    2.0288 C   0  0  0  0  0  0  0  0  0  0  0  0
   -3.6559   33.2052    1.3623 C   0  0  0  0  0  0  0  0  0  0  0  0
   -4.9685   33.1952    1.0986 C   0  0  0  0  0  0  0  0  0  0  0  0
  1  2  1  0  0  0
  1  3  2  0  0  0
  2  4  2  0  0  0
  3  5  1  0  0  0
  4  6  1  0  0  0
 26 27  1  0  0  0
 26 29  2  0  0  0
 12 14  1  0  0  0
 12 16  2  0  0  0
 13 15  2  0  0  0
 13 16  1  0  0  0
 27 30  2  0  0  0
 14 17  2  0  0  0
 15 17  1  0  0  0
  5  6  2  0  0  0
  5  7  1  0  0  0
 28 29  1  0  0  0
 28 31  2  0  0  0
 28 35  1  0  0  0
 16 11  1  0  0  0
  6 23  1  0  0  0
 29 25  1  0  0  0
 30 31  1  0  0  0
 30 33  1  0  0  0
 31 34  1  0  0  0
 17 19  1  0  0  0
 40 41  2  0  0  0
 41 39  1  0  0  0
  7  8  1  0  0  0
  7  9  2  0  0  0
 35 36  1  0  0  0
 35 37  2  0  0  0
 32 33  1  0  0  0
 32 34  1  0  0  0
 21 22  1  0  0  0
 18 19  1  0  0  0
 23 24  1  0  0  0
 25 24  1  0  0  0
 39 24  1  0  0  0
 22 20  1  0  0  0
 20 11  1  0  0  0
 11  8  1  0  0  0
  8 10  1  0  0  0
 36 38  1  0  0  0
M  END
> <minimizedAffinity>
-7.01820

$$$$
