5SZ0_72D_A_303
  RCSB PDB12061719283D
Coordinates from PDB:5SZ0:A:303 Model:1 without hydrogens
 16 17  0  0  0  0            999 V2000
    0.2920    2.5890   84.9250   C 0  0  0  0  0  0  0  0  0  0  0  0
   -0.4470    1.4590   85.6130   C 0  0  0  0  0  0  0  0  0  0  0  0
   -1.7550    1.4770   85.6650   C 0  0  0  0  0  0  0  0  0  0  0  0
   -2.5370    0.0740   86.5000   S 0  0  0  0  0  0  0  0  0  0  0  0
   -2.1620    0.1520   87.9160   O 0  0  0  0  0  0  0  0  0  0  0  0
   -4.0040    0.1880   86.4900   O 0  0  0  0  0  0  0  0  0  0  0  0
   -2.0440   -1.4000   85.8000   N 0  0  0  0  0  0  0  0  0  0  0  0
   -2.5560    2.6360   85.0700   C 0  0  0  0  0  0  0  0  0  0  0  0
   -1.9120    3.6330   84.4840   C 0  0  0  0  0  0  0  0  0  0  0  0
   -0.3820    3.5840   84.4020   C 0  0  0  0  0  0  0  0  0  0  0  0
    0.4570    4.6880   83.7780   C 0  0  0  0  0  0  0  0  0  0  0  0
    1.1880    4.4860   82.7050   C 0  0  0  0  0  0  0  0  0  0  0  0
    2.0240    5.6290   82.1420   C 0  0  0  0  0  0  0  0  0  0  0  0
    2.0240    6.8020   82.7420   C 0  0  0  0  0  0  0  0  0  0  0  0
    1.1900    7.0210   83.9990   C 0  0  0  0  0  0  0  0  0  0  0  0
    0.4670    6.0350   84.4820   C 0  0  0  0  0  0  0  0  0  0  0  0
 13 12  2  0  0  0  0
 13 14  1  0  0  0  0
 12 11  1  0  0  0  0
 14 15  2  0  0  0  0
 11 10  1  0  0  0  0
 11 16  2  0  0  0  0
 15 16  1  0  0  0  0
 10  9  2  0  0  0  0
 10  1  1  0  0  0  0
  9  8  1  0  0  0  0
  1  2  2  0  0  0  0
  8  3  2  0  0  0  0
  2  3  1  0  0  0  0
  3  4  1  0  0  0  0
  7  4  1  0  0  0  0
  6  4  2  0  0  0  0
  4  5  2  0  0  0  0
A    1
CAH
A    2
CAI
A    3
CAJ
A    4
SAM
A    5
OAN
A    6
OAO
A    7
NAP
A    8
CAK
A    9
CAL
A   10
CAG
A   11
CAA
A   12
CAB
A   13
CAC
A   14
CAD
A   15
CAE
A   16
CAF
M  END
>  <InstanceId>
5SZ0_72D_A_303

>  <ChemCompId>
72D

>  <PdbId>
5SZ0

>  <ChainId>
A

>  <ResidueNumber>
303

>  <InsertionCode>


>  <Model>
1

>  <AltIds>


>  <MissingHeavyAtoms>
0

>  <ObservedFormula>
C12 N O2 S

>  <Name>
4-(phenyl)-benzenesulfonamide

>  <SystematicName>
4-phenylbenzenesulfonamide

>  <Synonyms>
[1,1'-biphenyl]-4-sulfonamide

>  <Type>
NON-POLYMER

>  <Formula>
C12 H11 N O2 S

>  <MolecularWeight>
233.286

>  <ModifiedDate>
2016-12-16

>  <Parent>


>  <OneLetterCode>


>  <SubcomponentList>


>  <AmbiguousFlag>
N

>  <InChI>
InChI=1S/C12H11NO2S/c13-16(14,15)12-8-6-11(7-9-12)10-4-2-1-3-5-10/h1-9H,(H2,13,14,15)

>  <InChIKey>
JVFCCRJSBNUDDU-UHFFFAOYSA-N

>  <SMILES>
c1ccc(cc1)c2ccc(cc2)S(=O)(=O)N

$$$$
