5HJQ_I3P_A_401


 33 33  0  0  0  0  0  0  0  0999 V2000
   18.0746   12.8015  122.1409 C   0  0  0  0  0  0  0  0  0  0  0  0
   18.2945   11.3141  122.3562 C   0  0  0  0  0  0  0  0  0  0  0  0
   19.3999   10.7505  121.4620 C   0  0  0  0  0  0  0  0  0  0  0  0
   20.5337   11.6956  121.0631 C   0  0  0  0  0  0  0  0  0  0  0  0
   20.4531   13.1663  121.4604 C   0  0  0  0  0  0  0  0  0  0  0  0
   19.3497   13.5139  122.4688 C   0  0  0  0  0  0  0  0  0  0  0  0
   18.6527   11.1034  123.6901 O   0  0  0  0  0  0  0  0  0  0  0  0
   19.9792    9.6268  122.1201 O   0  0  0  0  0  0  0  0  0  0  0  0
   19.1026   14.9161  122.4512 O   0  0  0  0  0  0  0  0  0  0  0  0
   19.4806   11.5717  123.8804 H   0  0  0  0  0  0  0  0  0  0  0  0
   20.4083    9.9181  122.9398 H   0  0  0  0  0  0  0  0  0  0  0  0
   18.8009   15.1801  121.5679 H   0  0  0  0  0  0  0  0  0  0  0  0
   17.0408   13.3328  122.9905 O   0  0  0  0  0  0  0  0  0  0  0  0
   15.5794   13.6871  122.4236 P   0  0  0  0  0  0  0  0  0  0  0  0
   15.5397   13.4582  120.9542 O   0  0  0  0  0  0  0  0  0  0  0  0
   14.5705   12.7728  123.0820 O   0  0  0  0  0  0  0  0  0  0  0  0
   15.2130   15.1477  122.7483 O   0  0  0  0  0  0  0  0  0  0  0  0
   14.7927   11.8498  122.8833 H   0  0  0  0  0  0  0  0  0  0  0  0
   15.8549   15.7426  122.3301 H   0  0  0  0  0  0  0  0  0  0  0  0
   20.6487   11.6347  119.6277 O   0  0  0  0  0  0  0  0  0  0  0  0
   22.0974   11.3374  119.0005 P   0  0  0  0  0  0  0  0  0  0  0  0
   22.3452   12.2793  117.8465 O   0  0  0  0  0  0  0  0  0  0  0  0
   22.1391    9.8910  118.5038 O   0  0  0  0  0  0  0  0  0  0  0  0
   23.1819   11.5423  120.0849 O   0  0  0  0  0  0  0  0  0  0  0  0
   21.4591    9.7629  117.8240 H   0  0  0  0  0  0  0  0  0  0  0  0
   23.1552   12.4594  120.3996 H   0  0  0  0  0  0  0  0  0  0  0  0
   21.6944   13.5475  122.0028 O   0  0  0  0  0  0  0  0  0  0  0  0
   22.4803   14.7549  121.3672 P   0  0  0  0  0  0  0  0  0  0  0  0
   23.8968   14.7118  121.8098 O   0  0  0  0  0  0  0  0  0  0  0  0
   22.4326   14.6544  119.8638 O   0  0  0  0  0  0  0  0  0  0  0  0
   21.8707   16.0626  121.8004 O   0  0  0  0  0  0  0  0  0  0  0  0
   22.8249   13.8127  119.5834 H   0  0  0  0  0  0  0  0  0  0  0  0
   21.9007   16.1286  122.7677 H   0  0  0  0  0  0  0  0  0  0  0  0
  1  2  1  0  0  0
  1  6  1  0  0  0
  1 13  1  0  0  0
  2  3  1  0  0  0
  2  7  1  0  0  0
  3  4  1  0  0  0
  3  8  1  0  0  0
  4  5  1  0  0  0
  4 20  1  0  0  0
  5  6  1  0  0  0
  5 27  1  0  0  0
  6  9  1  0  0  0
 13 14  1  0  0  0
 20 21  1  0  0  0
 27 28  1  0  0  0
 14 15  2  0  0  0
 14 16  1  0  0  0
 14 17  1  0  0  0
 21 22  2  0  0  0
 21 23  1  0  0  0
 21 24  1  0  0  0
 28 29  2  0  0  0
 28 30  1  0  0  0
 28 31  1  0  0  0
  7 10  1  0  0  0
  8 11  1  0  0  0
  9 12  1  0  0  0
 16 18  1  0  0  0
 17 19  1  0  0  0
 23 25  1  0  0  0
 24 26  1  0  0  0
 30 32  1  0  0  0
 31 33  1  0  0  0
M  END
> <minimizedAffinity>
-6.76850

$$$$
5HJQ_I3P_A_401


 33 33  0  0  0  0  0  0  0  0999 V2000
   17.7364   10.2914  125.7219 C   0  0  0  0  0  0  0  0  0  0  0  0
   18.9397   10.9475  126.3768 C   0  0  0  0  0  0  0  0  0  0  0  0
   19.7296   11.8246  125.4042 C   0  0  0  0  0  0  0  0  0  0  0  0
   18.9543   12.4889  124.2661 C   0  0  0  0  0  0  0  0  0  0  0  0
   17.4778   12.1560  124.0757 C   0  0  0  0  0  0  0  0  0  0  0  0
   16.8285   11.3728  125.2247 C   0  0  0  0  0  0  0  0  0  0  0  0
   18.4939   11.7467  127.4326 O   0  0  0  0  0  0  0  0  0  0  0  0
   20.3752   12.8525  126.1511 O   0  0  0  0  0  0  0  0  0  0  0  0
   15.6153   10.7758  124.7783 O   0  0  0  0  0  0  0  0  0  0  0  0
   17.9094   12.4402  127.0886 H   0  0  0  0  0  0  0  0  0  0  0  0
   19.7064   13.4248  126.5586 H   0  0  0  0  0  0  0  0  0  0  0  0
   15.8064   10.1552  124.0576 H   0  0  0  0  0  0  0  0  0  0  0  0
   16.9881    9.4742  126.6411 O   0  0  0  0  0  0  0  0  0  0  0  0
   16.2394    8.1343  126.1648 P   0  0  0  0  0  0  0  0  0  0  0  0
   16.5957    7.8329  124.7523 O   0  0  0  0  0  0  0  0  0  0  0  0
   16.7019    6.9868  127.0346 O   0  0  0  0  0  0  0  0  0  0  0  0
   14.7136    8.2862  126.3117 O   0  0  0  0  0  0  0  0  0  0  0  0
   17.6625    6.8829  126.9491 H   0  0  0  0  0  0  0  0  0  0  0  0
   14.4069    9.0204  125.7571 H   0  0  0  0  0  0  0  0  0  0  0  0
   19.6394   12.1611  123.0411 O   0  0  0  0  0  0  0  0  0  0  0  0
   20.0122   13.3628  122.0423 P   0  0  0  0  0  0  0  0  0  0  0  0
   21.4997   13.6164  122.0991 O   0  0  0  0  0  0  0  0  0  0  0  0
   19.2575   14.6220  122.4727 O   0  0  0  0  0  0  0  0  0  0  0  0
   19.6014   12.9822  120.6000 O   0  0  0  0  0  0  0  0  0  0  0  0
   19.5153   14.8603  123.3769 H   0  0  0  0  0  0  0  0  0  0  0  0
   20.0801   12.1838  120.3274 H   0  0  0  0  0  0  0  0  0  0  0  0
   16.7715   13.3599  123.8965 O   0  0  0  0  0  0  0  0  0  0  0  0
   15.8772   13.5507  122.6146 P   0  0  0  0  0  0  0  0  0  0  0  0
   15.5560   14.9902  122.4447 O   0  0  0  0  0  0  0  0  0  0  0  0
   16.6263   13.0681  121.3987 O   0  0  0  0  0  0  0  0  0  0  0  0
   14.5934   12.7745  122.7516 O   0  0  0  0  0  0  0  0  0  0  0  0
   17.4533   13.5671  121.3093 H   0  0  0  0  0  0  0  0  0  0  0  0
   14.1103   13.0841  123.5337 H   0  0  0  0  0  0  0  0  0  0  0  0
  1  2  1  0  0  0
  1  6  1  0  0  0
  1 13  1  0  0  0
  2  3  1  0  0  0
  2  7  1  0  0  0
  3  4  1  0  0  0
  3  8  1  0  0  0
  4  5  1  0  0  0
  4 20  1  0  0  0
  5  6  1  0  0  0
  5 27  1  0  0  0
  6  9  1  0  0  0
 13 14  1  0  0  0
 20 21  1  0  0  0
 27 28  1  0  0  0
 14 15  2  0  0  0
 14 16  1  0  0  0
 14 17  1  0  0  0
 21 22  2  0  0  0
 21 23  1  0  0  0
 21 24  1  0  0  0
 28 29  2  0  0  0
 28 30  1  0  0  0
 28 31  1  0  0  0
  7 10  1  0  0  0
  8 11  1  0  0  0
  9 12  1  0  0  0
 16 18  1  0  0  0
 17 19  1  0  0  0
 23 25  1  0  0  0
 24 26  1  0  0  0
 30 32  1  0  0  0
 31 33  1  0  0  0
M  END
> <minimizedAffinity>
-6.74892

$$$$
5HJQ_I3P_A_401


 33 33  0  0  0  0  0  0  0  0999 V2000
   14.5042   11.3963  121.7985 C   0  0  0  0  0  0  0  0  0  0  0  0
   14.0345   10.8260  123.1257 C   0  0  0  0  0  0  0  0  0  0  0  0
   15.1832   10.2484  123.9539 C   0  0  0  0  0  0  0  0  0  0  0  0
   16.5650   10.8789  123.7777 C   0  0  0  0  0  0  0  0  0  0  0  0
   16.7645   11.9525  122.7124 C   0  0  0  0  0  0  0  0  0  0  0  0
   15.4762   12.4988  122.0823 C   0  0  0  0  0  0  0  0  0  0  0  0
   13.4272   11.8469  123.8613 O   0  0  0  0  0  0  0  0  0  0  0  0
   14.8330   10.3421  125.3322 O   0  0  0  0  0  0  0  0  0  0  0  0
   15.7793   13.1614  120.8590 O   0  0  0  0  0  0  0  0  0  0  0  0
   14.0738   12.5489  124.0349 H   0  0  0  0  0  0  0  0  0  0  0  0
   14.7537   11.2757  125.5830 H   0  0  0  0  0  0  0  0  0  0  0  0
   16.1764   12.5298  120.2390 H   0  0  0  0  0  0  0  0  0  0  0  0
   13.4233   11.9487  121.0245 O   0  0  0  0  0  0  0  0  0  0  0  0
   13.0980   11.4327  119.5377 P   0  0  0  0  0  0  0  0  0  0  0  0
   12.2688   12.4410  118.8244 O   0  0  0  0  0  0  0  0  0  0  0  0
   14.4009   11.2624  118.7890 O   0  0  0  0  0  0  0  0  0  0  0  0
   12.3698   10.0760  119.5835 O   0  0  0  0  0  0  0  0  0  0  0  0
   14.8675   12.1122  118.7546 H   0  0  0  0  0  0  0  0  0  0  0  0
   11.5320   10.1747  120.0622 H   0  0  0  0  0  0  0  0  0  0  0  0
   17.4858    9.8061  123.4972 O   0  0  0  0  0  0  0  0  0  0  0  0
   18.8746    9.7758  124.3040 P   0  0  0  0  0  0  0  0  0  0  0  0
   18.9990    8.4604  125.0352 O   0  0  0  0  0  0  0  0  0  0  0  0
   18.8931   10.9286  125.3095 O   0  0  0  0  0  0  0  0  0  0  0  0
   20.0517    9.9363  123.3127 O   0  0  0  0  0  0  0  0  0  0  0  0
   18.1550   10.8277  125.9308 H   0  0  0  0  0  0  0  0  0  0  0  0
   20.0397    9.2052  122.6754 H   0  0  0  0  0  0  0  0  0  0  0  0
   17.4722   13.0233  123.2893 O   0  0  0  0  0  0  0  0  0  0  0  0
   18.8044   13.5245  122.6161 P   0  0  0  0  0  0  0  0  0  0  0  0
   18.8648   15.0066  122.6804 O   0  0  0  0  0  0  0  0  0  0  0  0
   19.9894   12.9527  123.3518 O   0  0  0  0  0  0  0  0  0  0  0  0
   18.8562   13.0937  121.1735 O   0  0  0  0  0  0  0  0  0  0  0  0
   19.9574   13.2293  124.2809 H   0  0  0  0  0  0  0  0  0  0  0  0
   18.0942   13.4610  120.6988 H   0  0  0  0  0  0  0  0  0  0  0  0
  1  2  1  0  0  0
  1  6  1  0  0  0
  1 13  1  0  0  0
  2  3  1  0  0  0
  2  7  1  0  0  0
  3  4  1  0  0  0
  3  8  1  0  0  0
  4  5  1  0  0  0
  4 20  1  0  0  0
  5  6  1  0  0  0
  5 27  1  0  0  0
  6  9  1  0  0  0
 13 14  1  0  0  0
 20 21  1  0  0  0
 27 28  1  0  0  0
 14 15  2  0  0  0
 14 16  1  0  0  0
 14 17  1  0  0  0
 21 22  2  0  0  0
 21 23  1  0  0  0
 21 24  1  0  0  0
 28 29  2  0  0  0
 28 30  1  0  0  0
 28 31  1  0  0  0
  7 10  1  0  0  0
  8 11  1  0  0  0
  9 12  1  0  0  0
 16 18  1  0  0  0
 17 19  1  0  0  0
 23 25  1  0  0  0
 24 26  1  0  0  0
 30 32  1  0  0  0
 31 33  1  0  0  0
M  END
> <minimizedAffinity>
-6.73647

$$$$
5HJQ_I3P_A_401


 33 33  0  0  0  0  0  0  0  0999 V2000
   17.5027    8.8690  123.0710 C   0  0  0  0  0  0  0  0  0  0  0  0
   16.6549    9.0409  124.3195 C   0  0  0  0  0  0  0  0  0  0  0  0
   17.2351   10.0778  125.2826 C   0  0  0  0  0  0  0  0  0  0  0  0
   18.0429   11.2265  124.6778 C   0  0  0  0  0  0  0  0  0  0  0  0
   18.3384   11.2233  123.1812 C   0  0  0  0  0  0  0  0  0  0  0  0
   17.5601   10.1856  122.3611 C   0  0  0  0  0  0  0  0  0  0  0  0
   15.3766    9.4563  123.9384 O   0  0  0  0  0  0  0  0  0  0  0  0
   16.1621   10.6446  126.0301 O   0  0  0  0  0  0  0  0  0  0  0  0
   18.1923    9.9929  121.0998 O   0  0  0  0  0  0  0  0  0  0  0  0
   15.4366   10.3103  123.4823 H   0  0  0  0  0  0  0  0  0  0  0  0
   15.5691   11.1249  125.4313 H   0  0  0  0  0  0  0  0  0  0  0  0
   19.0924    9.6584  121.2371 H   0  0  0  0  0  0  0  0  0  0  0  0
   16.9501    7.9001  122.1607 O   0  0  0  0  0  0  0  0  0  0  0  0
   17.7912    6.6195  121.6757 P   0  0  0  0  0  0  0  0  0  0  0  0
   18.6549    6.9910  120.5229 O   0  0  0  0  0  0  0  0  0  0  0  0
   18.6758    6.1625  122.8140 O   0  0  0  0  0  0  0  0  0  0  0  0
   16.8457    5.4672  121.2871 O   0  0  0  0  0  0  0  0  0  0  0  0
   19.2755    6.8819  123.0663 H   0  0  0  0  0  0  0  0  0  0  0  0
   16.2735    5.7506  120.5569 H   0  0  0  0  0  0  0  0  0  0  0  0
   19.3042   11.2678  125.3740 O   0  0  0  0  0  0  0  0  0  0  0  0
   19.5095   12.4017  126.4933 P   0  0  0  0  0  0  0  0  0  0  0  0
   19.2902   13.7611  125.8735 O   0  0  0  0  0  0  0  0  0  0  0  0
   20.9345   12.3089  127.0423 O   0  0  0  0  0  0  0  0  0  0  0  0
   18.4979   12.1819  127.6432 O   0  0  0  0  0  0  0  0  0  0  0  0
   21.5684   12.4468  126.3212 H   0  0  0  0  0  0  0  0  0  0  0  0
   17.5945   12.2407  127.2947 H   0  0  0  0  0  0  0  0  0  0  0  0
   18.0557   12.5039  122.6708 O   0  0  0  0  0  0  0  0  0  0  0  0
   19.2415   13.4449  122.2372 P   0  0  0  0  0  0  0  0  0  0  0  0
   18.9141   14.8492  122.5908 O   0  0  0  0  0  0  0  0  0  0  0  0
   20.5006   13.0377  122.9593 O   0  0  0  0  0  0  0  0  0  0  0  0
   19.4659   13.3530  120.7504 O   0  0  0  0  0  0  0  0  0  0  0  0
   20.3575   13.0964  123.9169 H   0  0  0  0  0  0  0  0  0  0  0  0
   18.6564   13.6147  120.2845 H   0  0  0  0  0  0  0  0  0  0  0  0
  1  2  1  0  0  0
  1  6  1  0  0  0
  1 13  1  0  0  0
  2  3  1  0  0  0
  2  7  1  0  0  0
  3  4  1  0  0  0
  3  8  1  0  0  0
  4  5  1  0  0  0
  4 20  1  0  0  0
  5  6  1  0  0  0
  5 27  1  0  0  0
  6  9  1  0  0  0
 13 14  1  0  0  0
 20 21  1  0  0  0
 27 28  1  0  0  0
 14 15  2  0  0  0
 14 16  1  0  0  0
 14 17  1  0  0  0
 21 22  2  0  0  0
 21 23  1  0  0  0
 21 24  1  0  0  0
 28 29  2  0  0  0
 28 30  1  0  0  0
 28 31  1  0  0  0
  7 10  1  0  0  0
  8 11  1  0  0  0
  9 12  1  0  0  0
 16 18  1  0  0  0
 17 19  1  0  0  0
 23 25  1  0  0  0
 24 26  1  0  0  0
 30 32  1  0  0  0
 31 33  1  0  0  0
M  END
> <minimizedAffinity>
-6.53820

$$$$
5HJQ_I3P_A_401


 33 33  0  0  0  0  0  0  0  0999 V2000
   14.8502   11.9432  122.4852 C   0  0  0  0  0  0  0  0  0  0  0  0
   14.8329   10.5882  123.1714 C   0  0  0  0  0  0  0  0  0  0  0  0
   16.0042    9.7016  122.7458 C   0  0  0  0  0  0  0  0  0  0  0  0
   17.3044   10.3978  122.3428 C   0  0  0  0  0  0  0  0  0  0  0  0
   17.3408   11.9208  122.2619 C   0  0  0  0  0  0  0  0  0  0  0  0
   16.1223   12.6386  122.8579 C   0  0  0  0  0  0  0  0  0  0  0  0
   14.9053   10.7855  124.5527 O   0  0  0  0  0  0  0  0  0  0  0  0
   16.3008    8.8073  123.8151 O   0  0  0  0  0  0  0  0  0  0  0  0
   16.0652   13.9768  122.3747 O   0  0  0  0  0  0  0  0  0  0  0  0
   15.7362   11.2353  124.7719 H   0  0  0  0  0  0  0  0  0  0  0  0
   16.6030    9.3134  124.5855 H   0  0  0  0  0  0  0  0  0  0  0  0
   15.9705   13.9683  121.4094 H   0  0  0  0  0  0  0  0  0  0  0  0
   13.7528   12.7804  122.8944 O   0  0  0  0  0  0  0  0  0  0  0  0
   12.8426   13.5636  121.8264 P   0  0  0  0  0  0  0  0  0  0  0  0
   12.7917   15.0097  122.1718 O   0  0  0  0  0  0  0  0  0  0  0  0
   13.4682   13.4161  120.4574 O   0  0  0  0  0  0  0  0  0  0  0  0
   11.4211   12.9713  121.7899 O   0  0  0  0  0  0  0  0  0  0  0  0
   14.3646   13.7865  120.4700 H   0  0  0  0  0  0  0  0  0  0  0  0
   11.0109   13.0611  122.6642 H   0  0  0  0  0  0  0  0  0  0  0  0
   17.6770    9.8808  121.0501 O   0  0  0  0  0  0  0  0  0  0  0  0
   19.2117    9.4661  120.8189 P   0  0  0  0  0  0  0  0  0  0  0  0
   19.2743    8.0445  120.3134 O   0  0  0  0  0  0  0  0  0  0  0  0
   19.9636    9.5749  122.1468 O   0  0  0  0  0  0  0  0  0  0  0  0
   19.8538   10.4185  119.7823 O   0  0  0  0  0  0  0  0  0  0  0  0
   19.5608    8.9777  122.7963 H   0  0  0  0  0  0  0  0  0  0  0  0
   19.3768   10.3492  118.9406 H   0  0  0  0  0  0  0  0  0  0  0  0
   18.4973   12.3724  122.9243 O   0  0  0  0  0  0  0  0  0  0  0  0
   19.4632   13.3814  122.1974 P   0  0  0  0  0  0  0  0  0  0  0  0
   19.1092   14.7708  122.5827 O   0  0  0  0  0  0  0  0  0  0  0  0
   20.8867   13.1053  122.6094 O   0  0  0  0  0  0  0  0  0  0  0  0
   19.3390   13.2402  120.7027 O   0  0  0  0  0  0  0  0  0  0  0  0
   20.9681   13.1958  123.5718 H   0  0  0  0  0  0  0  0  0  0  0  0
   18.4234   13.4176  120.4361 H   0  0  0  0  0  0  0  0  0  0  0  0
  1  2  1  0  0  0
  1  6  1  0  0  0
  1 13  1  0  0  0
  2  3  1  0  0  0
  2  7  1  0  0  0
  3  4  1  0  0  0
  3  8  1  0  0  0
  4  5  1  0  0  0
  4 20  1  0  0  0
  5  6  1  0  0  0
  5 27  1  0  0  0
  6  9  1  0  0  0
 13 14  1  0  0  0
 20 21  1  0  0  0
 27 28  1  0  0  0
 14 15  2  0  0  0
 14 16  1  0  0  0
 14 17  1  0  0  0
 21 22  2  0  0  0
 21 23  1  0  0  0
 21 24  1  0  0  0
 28 29  2  0  0  0
 28 30  1  0  0  0
 28 31  1  0  0  0
  7 10  1  0  0  0
  8 11  1  0  0  0
  9 12  1  0  0  0
 16 18  1  0  0  0
 17 19  1  0  0  0
 23 25  1  0  0  0
 24 26  1  0  0  0
 30 32  1  0  0  0
 31 33  1  0  0  0
M  END
> <minimizedAffinity>
-6.53073

$$$$
5HJQ_I3P_A_401


 33 33  0  0  0  0  0  0  0  0999 V2000
   18.7873   12.3977  123.9839 C   0  0  0  0  0  0  0  0  0  0  0  0
   19.3133   13.3254  122.9024 C   0  0  0  0  0  0  0  0  0  0  0  0
   19.8605   12.5643  121.6938 C   0  0  0  0  0  0  0  0  0  0  0  0
   19.2337   11.2069  121.3735 C   0  0  0  0  0  0  0  0  0  0  0  0
   18.1963   10.6211  122.3263 C   0  0  0  0  0  0  0  0  0  0  0  0
   17.6740   11.5848  123.4004 C   0  0  0  0  0  0  0  0  0  0  0  0
   18.2694   14.1484  122.4724 O   0  0  0  0  0  0  0  0  0  0  0  0
   19.7212   13.3923  120.5422 O   0  0  0  0  0  0  0  0  0  0  0  0
   17.0524   10.8492  124.4492 O   0  0  0  0  0  0  0  0  0  0  0  0
   17.5608   13.6025  122.0973 H   0  0  0  0  0  0  0  0  0  0  0  0
   18.7797   13.5478  120.3678 H   0  0  0  0  0  0  0  0  0  0  0  0
   17.7037   10.2599  124.8608 H   0  0  0  0  0  0  0  0  0  0  0  0
   18.2633   13.1157  125.1165 O   0  0  0  0  0  0  0  0  0  0  0  0
   18.9225   12.9892  126.5766 P   0  0  0  0  0  0  0  0  0  0  0  0
   20.3867   12.7591  126.4503 O   0  0  0  0  0  0  0  0  0  0  0  0
   18.7003   14.2865  127.3216 O   0  0  0  0  0  0  0  0  0  0  0  0
   18.2664   11.8424  127.3686 O   0  0  0  0  0  0  0  0  0  0  0  0
   19.1102   15.0156  126.8304 H   0  0  0  0  0  0  0  0  0  0  0  0
   18.4034   11.0051  126.8985 H   0  0  0  0  0  0  0  0  0  0  0  0
   20.3136   10.2587  121.2640 O   0  0  0  0  0  0  0  0  0  0  0  0
   20.8184    9.8593  119.7921 P   0  0  0  0  0  0  0  0  0  0  0  0
   20.5750    8.3868  119.5628 O   0  0  0  0  0  0  0  0  0  0  0  0
   22.3145   10.1585  119.6791 O   0  0  0  0  0  0  0  0  0  0  0  0
   20.0453   10.6874  118.7383 O   0  0  0  0  0  0  0  0  0  0  0  0
   22.7988    9.6392  120.3399 H   0  0  0  0  0  0  0  0  0  0  0  0
   19.0968   10.4975  118.8101 H   0  0  0  0  0  0  0  0  0  0  0  0
   17.1053   10.1616  121.5654 O   0  0  0  0  0  0  0  0  0  0  0  0
   17.1750    8.7412  120.8893 P   0  0  0  0  0  0  0  0  0  0  0  0
   15.8703    8.0513  121.0505 O   0  0  0  0  0  0  0  0  0  0  0  0
   17.4707    8.8947  119.4191 O   0  0  0  0  0  0  0  0  0  0  0  0
   18.2531    7.9080  121.5318 O   0  0  0  0  0  0  0  0  0  0  0  0
   16.7772    9.4311  119.0041 H   0  0  0  0  0  0  0  0  0  0  0  0
   18.0641    7.8084  122.4780 H   0  0  0  0  0  0  0  0  0  0  0  0
  1  2  1  0  0  0
  1  6  1  0  0  0
  1 13  1  0  0  0
  2  3  1  0  0  0
  2  7  1  0  0  0
  3  4  1  0  0  0
  3  8  1  0  0  0
  4  5  1  0  0  0
  4 20  1  0  0  0
  5  6  1  0  0  0
  5 27  1  0  0  0
  6  9  1  0  0  0
 13 14  1  0  0  0
 20 21  1  0  0  0
 27 28  1  0  0  0
 14 15  2  0  0  0
 14 16  1  0  0  0
 14 17  1  0  0  0
 21 22  2  0  0  0
 21 23  1  0  0  0
 21 24  1  0  0  0
 28 29  2  0  0  0
 28 30  1  0  0  0
 28 31  1  0  0  0
  7 10  1  0  0  0
  8 11  1  0  0  0
  9 12  1  0  0  0
 16 18  1  0  0  0
 17 19  1  0  0  0
 23 25  1  0  0  0
 24 26  1  0  0  0
 30 32  1  0  0  0
 31 33  1  0  0  0
M  END
> <minimizedAffinity>
-6.50503

$$$$
5HJQ_I3P_A_401


 33 33  0  0  0  0  0  0  0  0999 V2000
   21.5356   13.0642  121.9770 C   0  0  0  0  0  0  0  0  0  0  0  0
   22.3311   11.9869  122.6936 C   0  0  0  0  0  0  0  0  0  0  0  0
   21.7225   11.6118  124.0457 C   0  0  0  0  0  0  0  0  0  0  0  0
   20.2072   11.7473  124.1980 C   0  0  0  0  0  0  0  0  0  0  0  0
   19.3951   12.3584  123.0603 C   0  0  0  0  0  0  0  0  0  0  0  0
   20.1530   12.5423  121.7386 C   0  0  0  0  0  0  0  0  0  0  0  0
   22.3627   10.8447  121.8896 O   0  0  0  0  0  0  0  0  0  0  0  0
   22.0714   10.2605  124.3347 O   0  0  0  0  0  0  0  0  0  0  0  0
   19.4577   13.4655  120.9068 O   0  0  0  0  0  0  0  0  0  0  0  0
   21.4584   10.5231  121.7491 H   0  0  0  0  0  0  0  0  0  0  0  0
   21.6659    9.6741  123.6769 H   0  0  0  0  0  0  0  0  0  0  0  0
   19.4078   14.3266  121.3506 H   0  0  0  0  0  0  0  0  0  0  0  0
   22.1039   13.4090  120.6999 O   0  0  0  0  0  0  0  0  0  0  0  0
   22.9129   14.7795  120.4766 P   0  0  0  0  0  0  0  0  0  0  0  0
   24.3676   14.4923  120.3570 O   0  0  0  0  0  0  0  0  0  0  0  0
   22.4393   15.4163  119.1892 O   0  0  0  0  0  0  0  0  0  0  0  0
   22.6535   15.7560  121.6393 O   0  0  0  0  0  0  0  0  0  0  0  0
   22.5984   14.8085  118.4502 H   0  0  0  0  0  0  0  0  0  0  0  0
   22.9542   15.3564  122.4704 H   0  0  0  0  0  0  0  0  0  0  0  0
   19.9708   12.5380  125.3796 O   0  0  0  0  0  0  0  0  0  0  0  0
   18.7762   12.0925  126.3570 P   0  0  0  0  0  0  0  0  0  0  0  0
   19.2921   12.0165  127.7741 O   0  0  0  0  0  0  0  0  0  0  0  0
   18.2607   10.7195  125.9215 O   0  0  0  0  0  0  0  0  0  0  0  0
   17.6275   13.1256  126.2733 O   0  0  0  0  0  0  0  0  0  0  0  0
   18.9811   10.0720  125.9741 H   0  0  0  0  0  0  0  0  0  0  0  0
   17.9547   13.9960  126.5495 H   0  0  0  0  0  0  0  0  0  0  0  0
   18.2746   11.5398  122.8261 O   0  0  0  0  0  0  0  0  0  0  0  0
   16.8288   12.1516  122.9467 P   0  0  0  0  0  0  0  0  0  0  0  0
   16.0537   11.3944  123.9617 O   0  0  0  0  0  0  0  0  0  0  0  0
   16.9236   13.5933  123.3768 O   0  0  0  0  0  0  0  0  0  0  0  0
   16.1140   12.0706  121.6231 O   0  0  0  0  0  0  0  0  0  0  0  0
   17.3837   13.6469  124.2290 H   0  0  0  0  0  0  0  0  0  0  0  0
   16.0522   11.1434  121.3452 H   0  0  0  0  0  0  0  0  0  0  0  0
  1  2  1  0  0  0
  1  6  1  0  0  0
  1 13  1  0  0  0
  2  3  1  0  0  0
  2  7  1  0  0  0
  3  4  1  0  0  0
  3  8  1  0  0  0
  4  5  1  0  0  0
  4 20  1  0  0  0
  5  6  1  0  0  0
  5 27  1  0  0  0
  6  9  1  0  0  0
 13 14  1  0  0  0
 20 21  1  0  0  0
 27 28  1  0  0  0
 14 15  2  0  0  0
 14 16  1  0  0  0
 14 17  1  0  0  0
 21 22  2  0  0  0
 21 23  1  0  0  0
 21 24  1  0  0  0
 28 29  2  0  0  0
 28 30  1  0  0  0
 28 31  1  0  0  0
  7 10  1  0  0  0
  8 11  1  0  0  0
  9 12  1  0  0  0
 16 18  1  0  0  0
 17 19  1  0  0  0
 23 25  1  0  0  0
 24 26  1  0  0  0
 30 32  1  0  0  0
 31 33  1  0  0  0
M  END
> <minimizedAffinity>
-6.46898

$$$$
5HJQ_I3P_A_401


 33 33  0  0  0  0  0  0  0  0999 V2000
   18.7927   10.5196  125.6351 C   0  0  0  0  0  0  0  0  0  0  0  0
   17.5512    9.7891  125.1533 C   0  0  0  0  0  0  0  0  0  0  0  0
   16.6705   10.6604  124.2565 C   0  0  0  0  0  0  0  0  0  0  0  0
   17.3638   11.7353  123.4188 C   0  0  0  0  0  0  0  0  0  0  0  0
   18.8593   11.9744  123.6023 C   0  0  0  0  0  0  0  0  0  0  0  0
   19.5953   10.9166  124.4356 C   0  0  0  0  0  0  0  0  0  0  0  0
   17.9482    8.6640  124.4263 O   0  0  0  0  0  0  0  0  0  0  0  0
   15.9547    9.8076  123.3668 O   0  0  0  0  0  0  0  0  0  0  0  0
   20.8459   11.4339  124.8785 O   0  0  0  0  0  0  0  0  0  0  0  0
   18.4647    8.9435  123.6543 H   0  0  0  0  0  0  0  0  0  0  0  0
   16.5803    9.3525  122.7817 H   0  0  0  0  0  0  0  0  0  0  0  0
   20.6941   12.2107  125.4393 H   0  0  0  0  0  0  0  0  0  0  0  0
   19.6258    9.6949  126.4709 O   0  0  0  0  0  0  0  0  0  0  0  0
   19.6715    9.8818  128.0664 P   0  0  0  0  0  0  0  0  0  0  0  0
   19.9716    8.5786  128.7181 O   0  0  0  0  0  0  0  0  0  0  0  0
   20.7755   10.8575  128.4076 O   0  0  0  0  0  0  0  0  0  0  0  0
   18.3338   10.4438  128.5835 O   0  0  0  0  0  0  0  0  0  0  0  0
   21.6229   10.5124  128.0858 H   0  0  0  0  0  0  0  0  0  0  0  0
   17.6186    9.8246  128.3694 H   0  0  0  0  0  0  0  0  0  0  0  0
   16.6851   12.9791  123.6826 O   0  0  0  0  0  0  0  0  0  0  0  0
   15.7295   13.5731  122.5360 P   0  0  0  0  0  0  0  0  0  0  0  0
   16.1477   13.0132  121.1973 O   0  0  0  0  0  0  0  0  0  0  0  0
   15.8570   15.0975  122.5201 O   0  0  0  0  0  0  0  0  0  0  0  0
   14.2623   13.1808  122.8315 O   0  0  0  0  0  0  0  0  0  0  0  0
   16.7769   15.3431  122.3347 H   0  0  0  0  0  0  0  0  0  0  0  0
   14.1818   12.2141  122.8416 H   0  0  0  0  0  0  0  0  0  0  0  0
   19.4570   12.0406  122.3300 O   0  0  0  0  0  0  0  0  0  0  0  0
   19.9214   13.4342  121.7631 P   0  0  0  0  0  0  0  0  0  0  0  0
   21.3619   13.6351  122.0613 O   0  0  0  0  0  0  0  0  0  0  0  0
   19.7204   13.4653  120.2694 O   0  0  0  0  0  0  0  0  0  0  0  0
   19.1293   14.5477  122.3973 O   0  0  0  0  0  0  0  0  0  0  0  0
   20.2300   12.7488  119.8596 H   0  0  0  0  0  0  0  0  0  0  0  0
   19.2577   14.5289  123.3586 H   0  0  0  0  0  0  0  0  0  0  0  0
  1  2  1  0  0  0
  1  6  1  0  0  0
  1 13  1  0  0  0
  2  3  1  0  0  0
  2  7  1  0  0  0
  3  4  1  0  0  0
  3  8  1  0  0  0
  4  5  1  0  0  0
  4 20  1  0  0  0
  5  6  1  0  0  0
  5 27  1  0  0  0
  6  9  1  0  0  0
 13 14  1  0  0  0
 20 21  1  0  0  0
 27 28  1  0  0  0
 14 15  2  0  0  0
 14 16  1  0  0  0
 14 17  1  0  0  0
 21 22  2  0  0  0
 21 23  1  0  0  0
 21 24  1  0  0  0
 28 29  2  0  0  0
 28 30  1  0  0  0
 28 31  1  0  0  0
  7 10  1  0  0  0
  8 11  1  0  0  0
  9 12  1  0  0  0
 16 18  1  0  0  0
 17 19  1  0  0  0
 23 25  1  0  0  0
 24 26  1  0  0  0
 30 32  1  0  0  0
 31 33  1  0  0  0
M  END
> <minimizedAffinity>
-6.41050

$$$$
5HJQ_I3P_A_401


 33 33  0  0  0  0  0  0  0  0999 V2000
   17.3971    9.1065  125.1462 C   0  0  0  0  0  0  0  0  0  0  0  0
   18.8992    8.8816  125.1360 C   0  0  0  0  0  0  0  0  0  0  0  0
   19.6416    9.9247  124.2994 C   0  0  0  0  0  0  0  0  0  0  0  0
   19.0227   11.3194  124.2016 C   0  0  0  0  0  0  0  0  0  0  0  0
   17.6538   11.5732  124.8253 C   0  0  0  0  0  0  0  0  0  0  0  0
   17.1314   10.4556  125.7380 C   0  0  0  0  0  0  0  0  0  0  0  0
   19.3705    8.9497  126.4495 O   0  0  0  0  0  0  0  0  0  0  0  0
   20.9582   10.0671  124.8261 O   0  0  0  0  0  0  0  0  0  0  0  0
   15.7271   10.5999  125.9242 O   0  0  0  0  0  0  0  0  0  0  0  0
   19.1897    9.8308  126.8126 H   0  0  0  0  0  0  0  0  0  0  0  0
   20.9091   10.4203  125.7282 H   0  0  0  0  0  0  0  0  0  0  0  0
   15.2782   10.5269  125.0674 H   0  0  0  0  0  0  0  0  0  0  0  0
   16.7006    8.1299  125.9423 O   0  0  0  0  0  0  0  0  0  0  0  0
   15.2508    7.5767  125.5246 P   0  0  0  0  0  0  0  0  0  0  0  0
   15.2513    6.0894  125.5535 O   0  0  0  0  0  0  0  0  0  0  0  0
   14.2347    8.0785  126.5261 O   0  0  0  0  0  0  0  0  0  0  0  0
   14.8611    8.0851  124.1237 O   0  0  0  0  0  0  0  0  0  0  0  0
   14.4714    7.7634  127.4124 H   0  0  0  0  0  0  0  0  0  0  0  0
   15.5074    7.7683  123.4734 H   0  0  0  0  0  0  0  0  0  0  0  0
   18.9334   11.6443  122.8003 O   0  0  0  0  0  0  0  0  0  0  0  0
   19.5720   13.0335  122.3074 P   0  0  0  0  0  0  0  0  0  0  0  0
   19.1765   13.2837  120.8717 O   0  0  0  0  0  0  0  0  0  0  0  0
   21.0957   12.9485  122.4153 O   0  0  0  0  0  0  0  0  0  0  0  0
   19.0546   14.1859  123.2007 O   0  0  0  0  0  0  0  0  0  0  0  0
   21.4198   12.2260  121.8551 H   0  0  0  0  0  0  0  0  0  0  0  0
   18.0885   14.2395  123.1321 H   0  0  0  0  0  0  0  0  0  0  0  0
   17.7195   12.7667  125.5680 O   0  0  0  0  0  0  0  0  0  0  0  0
   18.8583   12.9513  126.6396 P   0  0  0  0  0  0  0  0  0  0  0  0
   18.7709   11.8647  127.6476 O   0  0  0  0  0  0  0  0  0  0  0  0
   20.2043   12.8867  125.9639 O   0  0  0  0  0  0  0  0  0  0  0  0
   18.7117   14.2791  127.3359 O   0  0  0  0  0  0  0  0  0  0  0  0
   20.3001   12.0321  125.5151 H   0  0  0  0  0  0  0  0  0  0  0  0
   17.8460   14.3221  127.7713 H   0  0  0  0  0  0  0  0  0  0  0  0
  1  2  1  0  0  0
  1  6  1  0  0  0
  1 13  1  0  0  0
  2  3  1  0  0  0
  2  7  1  0  0  0
  3  4  1  0  0  0
  3  8  1  0  0  0
  4  5  1  0  0  0
  4 20  1  0  0  0
  5  6  1  0  0  0
  5 27  1  0  0  0
  6  9  1  0  0  0
 13 14  1  0  0  0
 20 21  1  0  0  0
 27 28  1  0  0  0
 14 15  2  0  0  0
 14 16  1  0  0  0
 14 17  1  0  0  0
 21 22  2  0  0  0
 21 23  1  0  0  0
 21 24  1  0  0  0
 28 29  2  0  0  0
 28 30  1  0  0  0
 28 31  1  0  0  0
  7 10  1  0  0  0
  8 11  1  0  0  0
  9 12  1  0  0  0
 16 18  1  0  0  0
 17 19  1  0  0  0
 23 25  1  0  0  0
 24 26  1  0  0  0
 30 32  1  0  0  0
 31 33  1  0  0  0
M  END
> <minimizedAffinity>
-6.34845

$$$$
5HJQ_I3P_A_401


 33 33  0  0  0  0  0  0  0  0999 V2000
   14.3812    8.9911  123.6167 C   0  0  0  0  0  0  0  0  0  0  0  0
   13.3398    8.7650  122.5344 C   0  0  0  0  0  0  0  0  0  0  0  0
   12.6896   10.0678  122.0665 C   0  0  0  0  0  0  0  0  0  0  0  0
   13.5335   11.3409  122.1363 C   0  0  0  0  0  0  0  0  0  0  0  0
   14.9178   11.2838  122.7747 C   0  0  0  0  0  0  0  0  0  0  0  0
   15.4528    9.8732  123.0560 C   0  0  0  0  0  0  0  0  0  0  0  0
   13.9587    8.1596  121.4378 O   0  0  0  0  0  0  0  0  0  0  0  0
   12.2668    9.8977  120.7161 O   0  0  0  0  0  0  0  0  0  0  0  0
   16.5218    9.9395  123.9943 O   0  0  0  0  0  0  0  0  0  0  0  0
   14.6473    8.7475  121.0899 H   0  0  0  0  0  0  0  0  0  0  0  0
   13.0417    9.7567  120.1500 H   0  0  0  0  0  0  0  0  0  0  0  0
   16.1971   10.3131  124.8286 H   0  0  0  0  0  0  0  0  0  0  0  0
   14.9996    7.7650  124.0490 O   0  0  0  0  0  0  0  0  0  0  0  0
   14.7545    7.1672  125.5204 P   0  0  0  0  0  0  0  0  0  0  0  0
   14.2133    8.2282  126.4118 O   0  0  0  0  0  0  0  0  0  0  0  0
   13.7380    6.0514  125.4259 O   0  0  0  0  0  0  0  0  0  0  0  0
   16.0644    6.5989  126.0983 O   0  0  0  0  0  0  0  0  0  0  0  0
   12.9086    6.3995  125.0627 H   0  0  0  0  0  0  0  0  0  0  0  0
   16.7235    7.3076  126.1630 H   0  0  0  0  0  0  0  0  0  0  0  0
   12.7593   12.3216  122.8547 O   0  0  0  0  0  0  0  0  0  0  0  0
   12.0173   13.4651  122.0045 P   0  0  0  0  0  0  0  0  0  0  0  0
   12.8227   14.7406  122.0731 O   0  0  0  0  0  0  0  0  0  0  0  0
   10.6255   13.7015  122.5939 O   0  0  0  0  0  0  0  0  0  0  0  0
   11.8839   13.0095  120.5319 O   0  0  0  0  0  0  0  0  0  0  0  0
   10.7096   13.9871  123.5171 H   0  0  0  0  0  0  0  0  0  0  0  0
   12.7665   12.8596  120.1586 H   0  0  0  0  0  0  0  0  0  0  0  0
   15.8243   11.9480  121.9276 O   0  0  0  0  0  0  0  0  0  0  0  0
   16.6219   13.1930  122.4692 P   0  0  0  0  0  0  0  0  0  0  0  0
   17.8539   13.3811  121.6624 O   0  0  0  0  0  0  0  0  0  0  0  0
   15.7674   14.4297  122.3557 O   0  0  0  0  0  0  0  0  0  0  0  0
   17.0067   12.9817  123.9103 O   0  0  0  0  0  0  0  0  0  0  0  0
   15.5188   14.5670  121.4282 H   0  0  0  0  0  0  0  0  0  0  0  0
   17.5566   12.1861  123.9848 H   0  0  0  0  0  0  0  0  0  0  0  0
  1  2  1  0  0  0
  1  6  1  0  0  0
  1 13  1  0  0  0
  2  3  1  0  0  0
  2  7  1  0  0  0
  3  4  1  0  0  0
  3  8  1  0  0  0
  4  5  1  0  0  0
  4 20  1  0  0  0
  5  6  1  0  0  0
  5 27  1  0  0  0
  6  9  1  0  0  0
 13 14  1  0  0  0
 20 21  1  0  0  0
 27 28  1  0  0  0
 14 15  2  0  0  0
 14 16  1  0  0  0
 14 17  1  0  0  0
 21 22  2  0  0  0
 21 23  1  0  0  0
 21 24  1  0  0  0
 28 29  2  0  0  0
 28 30  1  0  0  0
 28 31  1  0  0  0
  7 10  1  0  0  0
  8 11  1  0  0  0
  9 12  1  0  0  0
 16 18  1  0  0  0
 17 19  1  0  0  0
 23 25  1  0  0  0
 24 26  1  0  0  0
 30 32  1  0  0  0
 31 33  1  0  0  0
M  END
> <minimizedAffinity>
-6.29491

$$$$
