4CJ4_S3G_A_1217


 30 32  0  0  0  0  0  0  0  0999 V2000
   -9.7450   44.9121    0.4372 C   0  0  0  0  0  0  0  0  0  0  0  0
  -11.2181   45.1121    0.6870 C   0  0  0  0  0  0  0  0  0  0  0  0
  -11.5617   44.3371   -1.6320 C   0  0  0  0  0  0  0  0  0  0  0  0
  -12.2909   44.1663   -2.7892 C   0  0  0  0  0  0  0  0  0  0  0  0
  -13.3714   45.5128   -0.5609 C   0  0  0  0  0  0  0  0  0  0  0  0
  -12.0810   45.0029   -0.5293 C   0  0  0  0  0  0  0  0  0  0  0  0
  -13.5595   44.6785   -2.8035 C   0  0  0  0  0  0  0  0  0  0  0  0
  -14.0771   45.3300   -1.7258 C   0  0  0  0  0  0  0  0  0  0  0  0
  -15.6227   45.0272   -3.1639 C   0  0  0  0  0  0  0  0  0  0  0  0
  -14.4380   44.6051   -3.8416 O   0  0  0  0  0  0  0  0  0  0  0  0
  -15.3561   45.7494   -1.9547 O   0  0  0  0  0  0  0  0  0  0  0  0
  -14.0361   46.2411    0.5607 C   0  0  0  0  0  0  0  0  0  0  0  0
  -14.1793   47.4890    0.4405 O   0  0  0  0  0  0  0  0  0  0  0  0
  -14.3797   45.5631    1.5716 O   0  0  0  0  0  0  0  0  0  0  0  0
  -13.8981   47.9195   -0.3427 H   0  0  0  0  0  0  0  0  0  0  0  0
   -9.3002   43.5828    1.0267 C   0  0  0  0  0  0  0  0  0  0  0  0
   -8.1680   43.3565   -1.2320 C   0  0  0  0  0  0  0  0  0  0  0  0
   -7.2096   42.2871    0.7941 C   0  0  0  0  0  0  0  0  0  0  0  0
   -8.4948   42.6842    0.0872 C   0  0  0  0  0  0  0  0  0  0  0  0
   -8.9661   46.0479    1.0733 C   0  0  0  0  0  0  0  0  0  0  0  0
   -7.0135   46.0034    2.5496 C   0  0  0  0  0  0  0  0  0  0  0  0
   -8.3185   45.6453    2.2987 N   0  0  0  0  0  0  0  0  0  0  0  0
   -6.3265   46.7891    1.9136 O   0  0  0  0  0  0  0  0  0  0  0  0
   -8.8141   45.1105    2.9602 H   0  0  0  0  0  0  0  0  0  0  0  0
   -6.1470   43.9986    3.6757 C   0  0  0  0  0  0  0  0  0  0  0  0
   -6.2098   46.0590    4.8680 C   0  0  0  0  0  0  0  0  0  0  0  0
   -5.6131   43.4281    4.8108 C   0  0  0  0  0  0  0  0  0  0  0  0
   -5.6730   45.3877    5.9428 C   0  0  0  0  0  0  0  0  0  0  0  0
   -6.4445   45.3391    3.7213 C   0  0  0  0  0  0  0  0  0  0  0  0
   -5.3642   44.0864    5.9488 N   0  0  0  0  0  0  0  0  0  0  0  0
  3  4  1  0  0  0
  3  6  2  0  0  0
  4  7  2  0  0  0
 25 27  2  0  0  0
 25 29  1  0  0  0
 26 28  1  0  0  0
 26 29  2  0  0  0
 27 30  1  0  0  0
 28 30  2  0  0  0
 29 21  1  0  0  0
  5  6  1  0  0  0
  5  8  2  0  0  0
  5 12  1  0  0  0
  6  2  1  0  0  0
  7  8  1  0  0  0
  7 10  1  0  0  0
  8 11  1  0  0  0
 21 22  1  0  0  0
 21 23  2  0  0  0
 12 13  1  0  0  0
 12 14  2  0  0  0
  9 10  1  0  0  0
  9 11  1  0  0  0
 17 19  1  0  0  0
 18 19  1  0  0  0
  2  1  1  0  0  0
 16 19  1  0  0  0
 16  1  1  0  0  0
 20  1  1  0  0  0
 20 22  1  0  0  0
 22 24  1  0  0  0
 13 15  1  0  0  0
M  END
> <minimizedAffinity>
-8.25556

$$$$
4CJ4_S3G_A_1217


 30 32  0  0  0  0  0  0  0  0999 V2000
   -9.4216   45.1817    0.8355 C   0  0  0  0  0  0  0  0  0  0  0  0
  -10.7832   44.5577    1.0061 C   0  0  0  0  0  0  0  0  0  0  0  0
  -11.2132   43.8857   -1.3305 C   0  0  0  0  0  0  0  0  0  0  0  0
  -11.9518   43.8386   -2.4934 C   0  0  0  0  0  0  0  0  0  0  0  0
  -12.8564   45.2688   -0.2390 C   0  0  0  0  0  0  0  0  0  0  0  0
  -11.6457   44.5908   -0.2149 C   0  0  0  0  0  0  0  0  0  0  0  0
  -13.1408   44.5156   -2.5001 C   0  0  0  0  0  0  0  0  0  0  0  0
  -13.5734   45.2069   -1.4098 C   0  0  0  0  0  0  0  0  0  0  0  0
  -15.1370   45.1440   -2.8588 C   0  0  0  0  0  0  0  0  0  0  0  0
  -14.0151   44.5824   -3.5422 O   0  0  0  0  0  0  0  0  0  0  0  0
  -14.7837   45.7979   -1.6331 O   0  0  0  0  0  0  0  0  0  0  0  0
  -13.4248   46.0548    0.8965 C   0  0  0  0  0  0  0  0  0  0  0  0
  -14.4994   45.6398    1.4114 O   0  0  0  0  0  0  0  0  0  0  0  0
  -12.8092   47.1038    1.2432 O   0  0  0  0  0  0  0  0  0  0  0  0
  -14.8951   44.8506    1.0975 H   0  0  0  0  0  0  0  0  0  0  0  0
   -8.3567   44.2507    1.3939 C   0  0  0  0  0  0  0  0  0  0  0  0
   -7.8956   41.9904    0.3390 C   0  0  0  0  0  0  0  0  0  0  0  0
   -7.8359   44.0717   -1.0144 C   0  0  0  0  0  0  0  0  0  0  0  0
   -7.5564   43.4681    0.3518 C   0  0  0  0  0  0  0  0  0  0  0  0
   -9.3807   46.5119    1.5635 C   0  0  0  0  0  0  0  0  0  0  0  0
   -8.7650   48.0448   -0.2435 C   0  0  0  0  0  0  0  0  0  0  0  0
   -8.4579   47.4389    0.9535 N   0  0  0  0  0  0  0  0  0  0  0  0
   -9.8380   48.0262   -0.8283 O   0  0  0  0  0  0  0  0  0  0  0  0
   -7.6021   47.6394    1.3971 H   0  0  0  0  0  0  0  0  0  0  0  0
   -7.8043   50.0867   -1.2162 C   0  0  0  0  0  0  0  0  0  0  0  0
   -6.4283   48.1567   -0.9862 C   0  0  0  0  0  0  0  0  0  0  0  0
   -6.7114   50.7263   -1.7596 C   0  0  0  0  0  0  0  0  0  0  0  0
   -5.4044   48.8910   -1.5400 C   0  0  0  0  0  0  0  0  0  0  0  0
   -7.6431   48.7789   -0.8270 C   0  0  0  0  0  0  0  0  0  0  0  0
   -5.5091   50.1651   -1.9326 N   0  0  0  0  0  0  0  0  0  0  0  0
  3  4  1  0  0  0
  3  6  2  0  0  0
  4  7  2  0  0  0
 25 27  2  0  0  0
 25 29  1  0  0  0
 26 28  1  0  0  0
 26 29  2  0  0  0
 27 30  1  0  0  0
 28 30  2  0  0  0
 29 21  1  0  0  0
  5  6  1  0  0  0
  5  8  2  0  0  0
  5 12  1  0  0  0
  6  2  1  0  0  0
  7  8  1  0  0  0
  7 10  1  0  0  0
  8 11  1  0  0  0
 21 22  1  0  0  0
 21 23  2  0  0  0
 12 13  1  0  0  0
 12 14  2  0  0  0
  9 10  1  0  0  0
  9 11  1  0  0  0
 17 19  1  0  0  0
 18 19  1  0  0  0
  2  1  1  0  0  0
 16 19  1  0  0  0
 16  1  1  0  0  0
 20  1  1  0  0  0
 20 22  1  0  0  0
 22 24  1  0  0  0
 13 15  1  0  0  0
M  END
> <minimizedAffinity>
-8.17188

$$$$
4CJ4_S3G_A_1217


 30 32  0  0  0  0  0  0  0  0999 V2000
   -9.6644   45.2339   -0.0622 C   0  0  0  0  0  0  0  0  0  0  0  0
  -11.0984   45.0033    0.3416 C   0  0  0  0  0  0  0  0  0  0  0  0
  -11.6668   44.2623   -1.9441 C   0  0  0  0  0  0  0  0  0  0  0  0
  -12.4988   44.1259   -3.0346 C   0  0  0  0  0  0  0  0  0  0  0  0
  -13.3378   45.4839   -0.7112 C   0  0  0  0  0  0  0  0  0  0  0  0
  -12.0667   44.9333   -0.7957 C   0  0  0  0  0  0  0  0  0  0  0  0
  -13.7467   44.6780   -2.9347 C   0  0  0  0  0  0  0  0  0  0  0  0
  -14.1476   45.3348   -1.8115 C   0  0  0  0  0  0  0  0  0  0  0  0
  -15.8211   45.0950   -3.1117 C   0  0  0  0  0  0  0  0  0  0  0  0
  -14.7139   44.6424   -3.8929 O   0  0  0  0  0  0  0  0  0  0  0  0
  -15.4274   45.7965   -1.9252 O   0  0  0  0  0  0  0  0  0  0  0  0
  -13.8789   46.2217    0.4691 C   0  0  0  0  0  0  0  0  0  0  0  0
  -13.9960   47.4741    0.3690 O   0  0  0  0  0  0  0  0  0  0  0  0
  -14.1508   45.5456    1.5028 O   0  0  0  0  0  0  0  0  0  0  0  0
  -13.7731   47.9027   -0.4339 H   0  0  0  0  0  0  0  0  0  0  0  0
   -8.7453   44.3832    0.8003 C   0  0  0  0  0  0  0  0  0  0  0  0
   -7.5994   42.1267    0.6283 C   0  0  0  0  0  0  0  0  0  0  0  0
   -8.2098   43.4118   -1.4071 C   0  0  0  0  0  0  0  0  0  0  0  0
   -7.7450   43.5148    0.0360 C   0  0  0  0  0  0  0  0  0  0  0  0
   -9.3220   46.7020    0.1069 C   0  0  0  0  0  0  0  0  0  0  0  0
  -10.7279   48.2987    1.3183 C   0  0  0  0  0  0  0  0  0  0  0  0
   -9.8430   47.2449    1.3385 N   0  0  0  0  0  0  0  0  0  0  0  0
  -11.2887   48.7754    0.3426 O   0  0  0  0  0  0  0  0  0  0  0  0
   -9.5632   46.8583    2.1996 H   0  0  0  0  0  0  0  0  0  0  0  0
  -10.6211   48.1712    3.7700 C   0  0  0  0  0  0  0  0  0  0  0  0
  -11.5987   50.0898    2.7529 C   0  0  0  0  0  0  0  0  0  0  0  0
  -10.8912   48.7548    4.9887 C   0  0  0  0  0  0  0  0  0  0  0  0
  -11.8199   50.5783    4.0205 C   0  0  0  0  0  0  0  0  0  0  0  0
  -10.9870   48.8643    2.6416 C   0  0  0  0  0  0  0  0  0  0  0  0
  -11.4814   49.9450    5.1487 N   0  0  0  0  0  0  0  0  0  0  0  0
  3  4  1  0  0  0
  3  6  2  0  0  0
  4  7  2  0  0  0
 25 27  2  0  0  0
 25 29  1  0  0  0
 26 28  1  0  0  0
 26 29  2  0  0  0
 27 30  1  0  0  0
 28 30  2  0  0  0
 29 21  1  0  0  0
  5  6  1  0  0  0
  5  8  2  0  0  0
  5 12  1  0  0  0
  6  2  1  0  0  0
  7  8  1  0  0  0
  7 10  1  0  0  0
  8 11  1  0  0  0
 21 22  1  0  0  0
 21 23  2  0  0  0
 12 13  1  0  0  0
 12 14  2  0  0  0
  9 10  1  0  0  0
  9 11  1  0  0  0
 17 19  1  0  0  0
 18 19  1  0  0  0
  2  1  1  0  0  0
 16 19  1  0  0  0
 16  1  1  0  0  0
 20  1  1  0  0  0
 20 22  1  0  0  0
 22 24  1  0  0  0
 13 15  1  0  0  0
M  END
> <minimizedAffinity>
-8.05914

$$$$
4CJ4_S3G_A_1217


 30 32  0  0  0  0  0  0  0  0999 V2000
   -9.1721   44.9784    0.5636 C   0  0  0  0  0  0  0  0  0  0  0  0
  -10.6114   44.6513    0.8699 C   0  0  0  0  0  0  0  0  0  0  0  0
  -11.0978   44.0380   -1.4718 C   0  0  0  0  0  0  0  0  0  0  0  0
  -11.8807   43.9864   -2.6051 C   0  0  0  0  0  0  0  0  0  0  0  0
  -12.7752   45.2747   -0.2629 C   0  0  0  0  0  0  0  0  0  0  0  0
  -11.5252   44.6739   -0.3134 C   0  0  0  0  0  0  0  0  0  0  0  0
  -13.1083   44.5870   -2.5382 C   0  0  0  0  0  0  0  0  0  0  0  0
  -13.5359   45.2099   -1.4056 C   0  0  0  0  0  0  0  0  0  0  0  0
  -15.1526   45.1009   -2.7923 C   0  0  0  0  0  0  0  0  0  0  0  0
  -14.0283   44.6360   -3.5411 O   0  0  0  0  0  0  0  0  0  0  0  0
  -14.7886   45.7313   -1.5574 O   0  0  0  0  0  0  0  0  0  0  0  0
  -13.3422   45.9821    0.9238 C   0  0  0  0  0  0  0  0  0  0  0  0
  -14.4556   45.5821    1.3627 O   0  0  0  0  0  0  0  0  0  0  0  0
  -12.6848   46.9577    1.3882 O   0  0  0  0  0  0  0  0  0  0  0  0
  -14.8809   44.8492    0.9628 H   0  0  0  0  0  0  0  0  0  0  0  0
   -8.2621   44.2637    1.5503 C   0  0  0  0  0  0  0  0  0  0  0  0
   -6.1640   42.8868    1.9205 C   0  0  0  0  0  0  0  0  0  0  0  0
   -7.9389   42.1227    0.3607 C   0  0  0  0  0  0  0  0  0  0  0  0
   -7.2188   43.3348    0.9277 C   0  0  0  0  0  0  0  0  0  0  0  0
   -8.9637   46.4780    0.6587 C   0  0  0  0  0  0  0  0  0  0  0  0
   -9.5133   48.3640    2.1198 C   0  0  0  0  0  0  0  0  0  0  0  0
   -9.7542   47.0725    1.7098 N   0  0  0  0  0  0  0  0  0  0  0  0
   -8.7802   49.1846    1.5879 O   0  0  0  0  0  0  0  0  0  0  0  0
  -10.4712   46.5501    2.1367 H   0  0  0  0  0  0  0  0  0  0  0  0
  -11.1347   49.7847    3.2993 C   0  0  0  0  0  0  0  0  0  0  0  0
  -10.0473   48.0341    4.4926 C   0  0  0  0  0  0  0  0  0  0  0  0
  -11.7972   50.0881    4.4689 C   0  0  0  0  0  0  0  0  0  0  0  0
  -10.7630   48.4233    5.6020 C   0  0  0  0  0  0  0  0  0  0  0  0
  -10.2478   48.7357    3.3283 C   0  0  0  0  0  0  0  0  0  0  0  0
  -11.6383   49.4342    5.6254 N   0  0  0  0  0  0  0  0  0  0  0  0
  3  4  1  0  0  0
  3  6  2  0  0  0
  4  7  2  0  0  0
 25 27  2  0  0  0
 25 29  1  0  0  0
 26 28  1  0  0  0
 26 29  2  0  0  0
 27 30  1  0  0  0
 28 30  2  0  0  0
 29 21  1  0  0  0
  5  6  1  0  0  0
  5  8  2  0  0  0
  5 12  1  0  0  0
  6  2  1  0  0  0
  7  8  1  0  0  0
  7 10  1  0  0  0
  8 11  1  0  0  0
 21 22  1  0  0  0
 21 23  2  0  0  0
 12 13  1  0  0  0
 12 14  2  0  0  0
  9 10  1  0  0  0
  9 11  1  0  0  0
 17 19  1  0  0  0
 18 19  1  0  0  0
  2  1  1  0  0  0
 16 19  1  0  0  0
 16  1  1  0  0  0
 20  1  1  0  0  0
 20 22  1  0  0  0
 22 24  1  0  0  0
 13 15  1  0  0  0
M  END
> <minimizedAffinity>
-7.93546

$$$$
4CJ4_S3G_A_1217


 30 32  0  0  0  0  0  0  0  0999 V2000
   -9.4583   45.4366    0.6554 C   0  0  0  0  0  0  0  0  0  0  0  0
  -10.6704   44.5475    0.7695 C   0  0  0  0  0  0  0  0  0  0  0  0
  -11.2332   43.9536   -1.5601 C   0  0  0  0  0  0  0  0  0  0  0  0
  -12.0408   43.9368   -2.6769 C   0  0  0  0  0  0  0  0  0  0  0  0
  -12.8257   45.2695   -0.3202 C   0  0  0  0  0  0  0  0  0  0  0  0
  -11.6064   44.6108   -0.3949 C   0  0  0  0  0  0  0  0  0  0  0  0
  -13.2374   44.5942   -2.5864 C   0  0  0  0  0  0  0  0  0  0  0  0
  -13.6120   45.2384   -1.4469 C   0  0  0  0  0  0  0  0  0  0  0  0
  -15.2603   45.2026   -2.7998 C   0  0  0  0  0  0  0  0  0  0  0  0
  -14.1747   44.6844   -3.5703 O   0  0  0  0  0  0  0  0  0  0  0  0
  -14.8419   45.8174   -1.5743 O   0  0  0  0  0  0  0  0  0  0  0  0
  -13.3344   46.0045    0.8760 C   0  0  0  0  0  0  0  0  0  0  0  0
  -14.4056   45.5924    1.4003 O   0  0  0  0  0  0  0  0  0  0  0  0
  -12.6758   47.0127    1.2626 O   0  0  0  0  0  0  0  0  0  0  0  0
  -14.8353   44.8350    1.0545 H   0  0  0  0  0  0  0  0  0  0  0  0
   -9.6699   46.4528   -0.4559 C   0  0  0  0  0  0  0  0  0  0  0  0
   -9.2322   48.1641    1.3647 C   0  0  0  0  0  0  0  0  0  0  0  0
   -7.8627   48.1185   -0.7063 C   0  0  0  0  0  0  0  0  0  0  0  0
   -9.2473   47.8850   -0.1255 C   0  0  0  0  0  0  0  0  0  0  0  0
   -8.2363   44.5887    0.3567 C   0  0  0  0  0  0  0  0  0  0  0  0
   -6.6454   43.6183    1.9446 C   0  0  0  0  0  0  0  0  0  0  0  0
   -7.2149   44.7299    1.3665 N   0  0  0  0  0  0  0  0  0  0  0  0
   -6.7797   42.4537    1.5989 O   0  0  0  0  0  0  0  0  0  0  0  0
   -6.9233   45.6284    1.6440 H   0  0  0  0  0  0  0  0  0  0  0  0
   -6.0860   43.4099    4.3282 C   0  0  0  0  0  0  0  0  0  0  0  0
   -4.7034   44.7517    2.9285 C   0  0  0  0  0  0  0  0  0  0  0  0
   -5.2478   43.7413    5.3706 C   0  0  0  0  0  0  0  0  0  0  0  0
   -3.9342   45.0162    4.0387 C   0  0  0  0  0  0  0  0  0  0  0  0
   -5.7943   43.9322    3.0913 C   0  0  0  0  0  0  0  0  0  0  0  0
   -4.1737   44.5318    5.2621 N   0  0  0  0  0  0  0  0  0  0  0  0
  3  4  1  0  0  0
  3  6  2  0  0  0
  4  7  2  0  0  0
 25 27  2  0  0  0
 25 29  1  0  0  0
 26 28  1  0  0  0
 26 29  2  0  0  0
 27 30  1  0  0  0
 28 30  2  0  0  0
 29 21  1  0  0  0
  5  6  1  0  0  0
  5  8  2  0  0  0
  5 12  1  0  0  0
  6  2  1  0  0  0
  7  8  1  0  0  0
  7 10  1  0  0  0
  8 11  1  0  0  0
 21 22  1  0  0  0
 21 23  2  0  0  0
 12 13  1  0  0  0
 12 14  2  0  0  0
  9 10  1  0  0  0
  9 11  1  0  0  0
 17 19  1  0  0  0
 18 19  1  0  0  0
  2  1  1  0  0  0
 16 19  1  0  0  0
 16  1  1  0  0  0
 20  1  1  0  0  0
 20 22  1  0  0  0
 22 24  1  0  0  0
 13 15  1  0  0  0
M  END
> <minimizedAffinity>
-7.56449

$$$$
4CJ4_S3G_A_1217


 30 32  0  0  0  0  0  0  0  0999 V2000
   -9.3004   45.3007    0.8747 C   0  0  0  0  0  0  0  0  0  0  0  0
  -10.6993   44.7790    1.0835 C   0  0  0  0  0  0  0  0  0  0  0  0
  -11.0401   44.0302   -1.2445 C   0  0  0  0  0  0  0  0  0  0  0  0
  -11.7528   43.9078   -2.4179 C   0  0  0  0  0  0  0  0  0  0  0  0
  -12.7940   45.3186   -0.2107 C   0  0  0  0  0  0  0  0  0  0  0  0
  -11.5400   44.7267   -0.1519 C   0  0  0  0  0  0  0  0  0  0  0  0
  -12.9854   44.5005   -2.4591 C   0  0  0  0  0  0  0  0  0  0  0  0
  -13.4839   45.1828   -1.3915 C   0  0  0  0  0  0  0  0  0  0  0  0
  -15.0133   44.9815   -2.8642 C   0  0  0  0  0  0  0  0  0  0  0  0
  -13.8434   44.4848   -3.5166 O   0  0  0  0  0  0  0  0  0  0  0  0
  -14.7279   45.6838   -1.6476 O   0  0  0  0  0  0  0  0  0  0  0  0
  -13.4353   46.0869    0.8977 C   0  0  0  0  0  0  0  0  0  0  0  0
  -14.4851   45.6068    1.4072 O   0  0  0  0  0  0  0  0  0  0  0  0
  -12.9026   47.1854    1.2280 O   0  0  0  0  0  0  0  0  0  0  0  0
  -14.8178   44.7840    1.1067 H   0  0  0  0  0  0  0  0  0  0  0  0
   -8.3264   44.5198    1.7430 C   0  0  0  0  0  0  0  0  0  0  0  0
   -6.1332   43.2528    1.8824 C   0  0  0  0  0  0  0  0  0  0  0  0
   -7.9288   42.5376    0.3231 C   0  0  0  0  0  0  0  0  0  0  0  0
   -7.2585   43.7299    0.9851 C   0  0  0  0  0  0  0  0  0  0  0  0
   -9.2514   46.7732    1.2361 C   0  0  0  0  0  0  0  0  0  0  0  0
   -9.5421   47.5803    3.5291 C   0  0  0  0  0  0  0  0  0  0  0  0
   -8.7490   46.9901    2.5716 N   0  0  0  0  0  0  0  0  0  0  0  0
  -10.7365   47.8273    3.4510 O   0  0  0  0  0  0  0  0  0  0  0  0
   -7.8319   46.7138    2.7994 H   0  0  0  0  0  0  0  0  0  0  0  0
   -9.4017   48.7355    5.6934 C   0  0  0  0  0  0  0  0  0  0  0  0
   -7.5514   47.4297    4.9570 C   0  0  0  0  0  0  0  0  0  0  0  0
   -8.6704   49.0229    6.8254 C   0  0  0  0  0  0  0  0  0  0  0  0
   -6.9124   47.7808    6.1243 C   0  0  0  0  0  0  0  0  0  0  0  0
   -8.8177   47.9224    4.7524 C   0  0  0  0  0  0  0  0  0  0  0  0
   -7.4370   48.5660    7.0713 N   0  0  0  0  0  0  0  0  0  0  0  0
  3  4  1  0  0  0
  3  6  2  0  0  0
  4  7  2  0  0  0
 25 27  2  0  0  0
 25 29  1  0  0  0
 26 28  1  0  0  0
 26 29  2  0  0  0
 27 30  1  0  0  0
 28 30  2  0  0  0
 29 21  1  0  0  0
  5  6  1  0  0  0
  5  8  2  0  0  0
  5 12  1  0  0  0
  6  2  1  0  0  0
  7  8  1  0  0  0
  7 10  1  0  0  0
  8 11  1  0  0  0
 21 22  1  0  0  0
 21 23  2  0  0  0
 12 13  1  0  0  0
 12 14  2  0  0  0
  9 10  1  0  0  0
  9 11  1  0  0  0
 17 19  1  0  0  0
 18 19  1  0  0  0
  2  1  1  0  0  0
 16 19  1  0  0  0
 16  1  1  0  0  0
 20  1  1  0  0  0
 20 22  1  0  0  0
 22 24  1  0  0  0
 13 15  1  0  0  0
M  END
> <minimizedAffinity>
-7.32172

$$$$
4CJ4_S3G_A_1217


 30 32  0  0  0  0  0  0  0  0999 V2000
  -10.0137   43.9590   -1.0638 C   0  0  0  0  0  0  0  0  0  0  0  0
  -10.2369   44.2601    0.3963 C   0  0  0  0  0  0  0  0  0  0  0  0
  -12.0256   45.9618    0.4283 C   0  0  0  0  0  0  0  0  0  0  0  0
  -12.5457   47.2122    0.6853 C   0  0  0  0  0  0  0  0  0  0  0  0
   -9.8462   46.6077    1.2272 C   0  0  0  0  0  0  0  0  0  0  0  0
  -10.6963   45.6532    0.6863 C   0  0  0  0  0  0  0  0  0  0  0  0
  -11.6924   48.1414    1.2151 C   0  0  0  0  0  0  0  0  0  0  0  0
  -10.3887   47.8461    1.4736 C   0  0  0  0  0  0  0  0  0  0  0  0
  -10.8432   49.7625    2.2917 C   0  0  0  0  0  0  0  0  0  0  0  0
  -12.0141   49.4225    1.5471 O   0  0  0  0  0  0  0  0  0  0  0  0
   -9.7242   48.9136    2.0055 O   0  0  0  0  0  0  0  0  0  0  0  0
   -8.4042   46.3914    1.5497 C   0  0  0  0  0  0  0  0  0  0  0  0
   -8.0952   46.2438    2.7641 O   0  0  0  0  0  0  0  0  0  0  0  0
   -7.5845   46.4055    0.5867 O   0  0  0  0  0  0  0  0  0  0  0  0
   -8.7633   46.2447    3.4211 H   0  0  0  0  0  0  0  0  0  0  0  0
  -11.1029   43.0249   -1.5675 C   0  0  0  0  0  0  0  0  0  0  0  0
  -13.4448   43.7700   -2.1959 C   0  0  0  0  0  0  0  0  0  0  0  0
  -11.4453   44.9442   -3.0849 C   0  0  0  0  0  0  0  0  0  0  0  0
  -12.0101   43.6003   -2.6560 C   0  0  0  0  0  0  0  0  0  0  0  0
   -8.6529   43.3134   -1.2442 C   0  0  0  0  0  0  0  0  0  0  0  0
   -7.3493   42.6221    0.7094 C   0  0  0  0  0  0  0  0  0  0  0  0
   -7.7581   43.6142   -0.1525 N   0  0  0  0  0  0  0  0  0  0  0  0
   -7.5253   41.4187    0.5891 O   0  0  0  0  0  0  0  0  0  0  0  0
   -7.4376   44.5361   -0.0234 H   0  0  0  0  0  0  0  0  0  0  0  0
   -7.1205   42.9082    3.1392 C   0  0  0  0  0  0  0  0  0  0  0  0
   -5.4553   43.8248    1.7047 C   0  0  0  0  0  0  0  0  0  0  0  0
   -6.3963   43.4091    4.1992 C   0  0  0  0  0  0  0  0  0  0  0  0
   -4.8139   44.2795    2.8343 C   0  0  0  0  0  0  0  0  0  0  0  0
   -6.6272   43.1280    1.8759 C   0  0  0  0  0  0  0  0  0  0  0  0
   -5.2506   44.0905    4.0842 N   0  0  0  0  0  0  0  0  0  0  0  0
  3  4  1  0  0  0
  3  6  2  0  0  0
  4  7  2  0  0  0
 25 27  2  0  0  0
 25 29  1  0  0  0
 26 28  1  0  0  0
 26 29  2  0  0  0
 27 30  1  0  0  0
 28 30  2  0  0  0
 29 21  1  0  0  0
  5  6  1  0  0  0
  5  8  2  0  0  0
  5 12  1  0  0  0
  6  2  1  0  0  0
  7  8  1  0  0  0
  7 10  1  0  0  0
  8 11  1  0  0  0
 21 22  1  0  0  0
 21 23  2  0  0  0
 12 13  1  0  0  0
 12 14  2  0  0  0
  9 10  1  0  0  0
  9 11  1  0  0  0
 17 19  1  0  0  0
 18 19  1  0  0  0
  2  1  1  0  0  0
 16 19  1  0  0  0
 16  1  1  0  0  0
 20  1  1  0  0  0
 20 22  1  0  0  0
 22 24  1  0  0  0
 13 15  1  0  0  0
M  END
> <minimizedAffinity>
-7.27424

$$$$
4CJ4_S3G_A_1217


 30 32  0  0  0  0  0  0  0  0999 V2000
  -10.6555   47.4951    1.9188 C   0  0  0  0  0  0  0  0  0  0  0  0
  -11.0554   46.0418    1.8934 C   0  0  0  0  0  0  0  0  0  0  0  0
  -10.2656   44.7774   -0.0748 C   0  0  0  0  0  0  0  0  0  0  0  0
  -10.4048   44.2056   -1.3213 C   0  0  0  0  0  0  0  0  0  0  0  0
  -12.5214   45.6227   -0.1139 C   0  0  0  0  0  0  0  0  0  0  0  0
  -11.2992   45.4822    0.5284 C   0  0  0  0  0  0  0  0  0  0  0  0
  -11.6152   44.3572   -1.9410 C   0  0  0  0  0  0  0  0  0  0  0  0
  -12.6345   45.0442   -1.3553 C   0  0  0  0  0  0  0  0  0  0  0  0
  -13.3641   44.0813   -3.1129 C   0  0  0  0  0  0  0  0  0  0  0  0
  -11.9534   43.8613   -3.1635 O   0  0  0  0  0  0  0  0  0  0  0  0
  -13.7492   45.0645   -2.1434 O   0  0  0  0  0  0  0  0  0  0  0  0
  -13.7030   46.3524    0.4355 C   0  0  0  0  0  0  0  0  0  0  0  0
  -13.9690   47.4834   -0.0567 O   0  0  0  0  0  0  0  0  0  0  0  0
  -14.3373   45.8030    1.3817 O   0  0  0  0  0  0  0  0  0  0  0  0
  -13.4497   47.8226   -0.7590 H   0  0  0  0  0  0  0  0  0  0  0  0
  -10.1853   47.9222    0.5371 C   0  0  0  0  0  0  0  0  0  0  0  0
  -11.6183   49.9678    0.9806 C   0  0  0  0  0  0  0  0  0  0  0  0
   -9.2284   50.1917    0.3439 C   0  0  0  0  0  0  0  0  0  0  0  0
  -10.4937   49.3711    0.1571 C   0  0  0  0  0  0  0  0  0  0  0  0
   -9.5425   47.6951    2.9300 C   0  0  0  0  0  0  0  0  0  0  0  0
   -7.3965   46.6621    2.3629 C   0  0  0  0  0  0  0  0  0  0  0  0
   -8.6310   46.5767    2.9654 N   0  0  0  0  0  0  0  0  0  0  0  0
   -6.8659   47.6619    1.9018 O   0  0  0  0  0  0  0  0  0  0  0  0
   -8.8942   45.7463    3.4241 H   0  0  0  0  0  0  0  0  0  0  0  0
   -5.3376   45.3317    2.5341 C   0  0  0  0  0  0  0  0  0  0  0  0
   -7.3845   44.2332    2.0099 C   0  0  0  0  0  0  0  0  0  0  0  0
   -4.7277   44.0981    2.4624 C   0  0  0  0  0  0  0  0  0  0  0  0
   -6.6744   43.0551    1.9646 C   0  0  0  0  0  0  0  0  0  0  0  0
   -6.6908   45.3829    2.3017 C   0  0  0  0  0  0  0  0  0  0  0  0
   -5.3593   42.9516    2.1848 N   0  0  0  0  0  0  0  0  0  0  0  0
  3  4  1  0  0  0
  3  6  2  0  0  0
  4  7  2  0  0  0
 25 27  2  0  0  0
 25 29  1  0  0  0
 26 28  1  0  0  0
 26 29  2  0  0  0
 27 30  1  0  0  0
 28 30  2  0  0  0
 29 21  1  0  0  0
  5  6  1  0  0  0
  5  8  2  0  0  0
  5 12  1  0  0  0
  6  2  1  0  0  0
  7  8  1  0  0  0
  7 10  1  0  0  0
  8 11  1  0  0  0
 21 22  1  0  0  0
 21 23  2  0  0  0
 12 13  1  0  0  0
 12 14  2  0  0  0
  9 10  1  0  0  0
  9 11  1  0  0  0
 17 19  1  0  0  0
 18 19  1  0  0  0
  2  1  1  0  0  0
 16 19  1  0  0  0
 16  1  1  0  0  0
 20  1  1  0  0  0
 20 22  1  0  0  0
 22 24  1  0  0  0
 13 15  1  0  0  0
M  END
> <minimizedAffinity>
-7.07416

$$$$
4CJ4_S3G_A_1217


 30 32  0  0  0  0  0  0  0  0999 V2000
   -8.3559   45.0752    1.2095 C   0  0  0  0  0  0  0  0  0  0  0  0
   -7.2240   45.8795    1.7967 C   0  0  0  0  0  0  0  0  0  0  0  0
   -6.0673   44.0481    2.9817 C   0  0  0  0  0  0  0  0  0  0  0  0
   -5.4808   43.4539    4.0785 C   0  0  0  0  0  0  0  0  0  0  0  0
   -6.6201   46.0272    4.2396 C   0  0  0  0  0  0  0  0  0  0  0  0
   -6.6363   45.3132    3.0496 C   0  0  0  0  0  0  0  0  0  0  0  0
   -5.4771   44.1709    5.2438 C   0  0  0  0  0  0  0  0  0  0  0  0
   -6.0302   45.4128    5.3181 C   0  0  0  0  0  0  0  0  0  0  0  0
   -4.9804   45.0094    7.1301 C   0  0  0  0  0  0  0  0  0  0  0  0
   -4.9408   43.7657    6.4283 O   0  0  0  0  0  0  0  0  0  0  0  0
   -5.9081   45.9469    6.5686 O   0  0  0  0  0  0  0  0  0  0  0  0
   -7.1949   47.3921    4.4316 C   0  0  0  0  0  0  0  0  0  0  0  0
   -8.4161   47.4713    4.7394 O   0  0  0  0  0  0  0  0  0  0  0  0
   -6.4276   48.3787    4.2386 O   0  0  0  0  0  0  0  0  0  0  0  0
   -8.9189   46.6908    4.8659 H   0  0  0  0  0  0  0  0  0  0  0  0
   -8.1451   44.9096   -0.2874 C   0  0  0  0  0  0  0  0  0  0  0  0
   -8.1098   42.4539    0.3475 C   0  0  0  0  0  0  0  0  0  0  0  0
   -9.0388   43.2004   -1.8313 C   0  0  0  0  0  0  0  0  0  0  0  0
   -7.9824   43.4683   -0.7722 C   0  0  0  0  0  0  0  0  0  0  0  0
   -9.6700   45.7858    1.4726 C   0  0  0  0  0  0  0  0  0  0  0  0
  -11.9582   45.7964    0.6018 C   0  0  0  0  0  0  0  0  0  0  0  0
  -10.6109   45.6090    0.3925 N   0  0  0  0  0  0  0  0  0  0  0  0
  -12.4944   46.2663    1.5945 O   0  0  0  0  0  0  0  0  0  0  0  0
  -10.2864   45.3525   -0.5009 H   0  0  0  0  0  0  0  0  0  0  0  0
  -12.3295   44.4004   -1.3860 C   0  0  0  0  0  0  0  0  0  0  0  0
  -14.0190   45.9423   -0.7232 C   0  0  0  0  0  0  0  0  0  0  0  0
  -13.1535   44.0400   -2.4301 C   0  0  0  0  0  0  0  0  0  0  0  0
  -14.7588   45.5059   -1.7986 C   0  0  0  0  0  0  0  0  0  0  0  0
  -12.7855   45.3698   -0.5258 C   0  0  0  0  0  0  0  0  0  0  0  0
  -14.3619   44.5654   -2.6626 N   0  0  0  0  0  0  0  0  0  0  0  0
  3  4  1  0  0  0
  3  6  2  0  0  0
  4  7  2  0  0  0
 25 27  2  0  0  0
 25 29  1  0  0  0
 26 28  1  0  0  0
 26 29  2  0  0  0
 27 30  1  0  0  0
 28 30  2  0  0  0
 29 21  1  0  0  0
  5  6  1  0  0  0
  5  8  2  0  0  0
  5 12  1  0  0  0
  6  2  1  0  0  0
  7  8  1  0  0  0
  7 10  1  0  0  0
  8 11  1  0  0  0
 21 22  1  0  0  0
 21 23  2  0  0  0
 12 13  1  0  0  0
 12 14  2  0  0  0
  9 10  1  0  0  0
  9 11  1  0  0  0
 17 19  1  0  0  0
 18 19  1  0  0  0
  2  1  1  0  0  0
 16 19  1  0  0  0
 16  1  1  0  0  0
 20  1  1  0  0  0
 20 22  1  0  0  0
 22 24  1  0  0  0
 13 15  1  0  0  0
M  END
> <minimizedAffinity>
-7.01830

$$$$
4CJ4_S3G_A_1217


 30 32  0  0  0  0  0  0  0  0999 V2000
   -8.9434   45.0317    1.5215 C   0  0  0  0  0  0  0  0  0  0  0  0
   -7.6226   45.4884    0.9562 C   0  0  0  0  0  0  0  0  0  0  0  0
   -6.5454   47.3498    2.1692 C   0  0  0  0  0  0  0  0  0  0  0  0
   -5.6864   47.8935    3.1001 C   0  0  0  0  0  0  0  0  0  0  0  0
   -5.8698   45.1054    2.7269 C   0  0  0  0  0  0  0  0  0  0  0  0
   -6.6412   45.9783    1.9725 C   0  0  0  0  0  0  0  0  0  0  0  0
   -4.9313   47.0182    3.8321 C   0  0  0  0  0  0  0  0  0  0  0  0
   -5.0213   45.6722    3.6475 C   0  0  0  0  0  0  0  0  0  0  0  0
   -3.8200   46.0597    5.3665 C   0  0  0  0  0  0  0  0  0  0  0  0
   -4.0363   47.3542    4.8021 O   0  0  0  0  0  0  0  0  0  0  0  0
   -4.1878   44.9898    4.4862 O   0  0  0  0  0  0  0  0  0  0  0  0
   -5.8899   43.6169    2.6075 C   0  0  0  0  0  0  0  0  0  0  0  0
   -5.0426   43.0831    1.8399 O   0  0  0  0  0  0  0  0  0  0  0  0
   -6.7779   42.9933    3.2573 O   0  0  0  0  0  0  0  0  0  0  0  0
   -4.4147   43.6157    1.3924 H   0  0  0  0  0  0  0  0  0  0  0  0
   -9.4022   43.7733    0.8014 C   0  0  0  0  0  0  0  0  0  0  0  0
   -7.9645   41.7620    0.2338 C   0  0  0  0  0  0  0  0  0  0  0  0
   -9.0062   43.1369   -1.5527 C   0  0  0  0  0  0  0  0  0  0  0  0
   -8.3867   43.1625   -0.1653 C   0  0  0  0  0  0  0  0  0  0  0  0
   -9.9736   46.1319    1.3502 C   0  0  0  0  0  0  0  0  0  0  0  0
  -12.2132   45.9400    0.3800 C   0  0  0  0  0  0  0  0  0  0  0  0
  -10.8464   45.8910    0.2263 N   0  0  0  0  0  0  0  0  0  0  0  0
  -12.8343   46.3301    1.3577 O   0  0  0  0  0  0  0  0  0  0  0  0
  -10.4611   45.6900   -0.6571 H   0  0  0  0  0  0  0  0  0  0  0  0
  -14.2620   45.8164   -0.9711 C   0  0  0  0  0  0  0  0  0  0  0  0
  -12.3167   44.6592   -1.7112 C   0  0  0  0  0  0  0  0  0  0  0  0
  -14.9006   45.3363   -2.0939 C   0  0  0  0  0  0  0  0  0  0  0  0
  -13.0504   44.2370   -2.7964 C   0  0  0  0  0  0  0  0  0  0  0  0
  -12.9465   45.4629   -0.7916 C   0  0  0  0  0  0  0  0  0  0  0  0
  -14.3306   44.5542   -3.0179 N   0  0  0  0  0  0  0  0  0  0  0  0
  3  4  1  0  0  0
  3  6  2  0  0  0
  4  7  2  0  0  0
 25 27  2  0  0  0
 25 29  1  0  0  0
 26 28  1  0  0  0
 26 29  2  0  0  0
 27 30  1  0  0  0
 28 30  2  0  0  0
 29 21  1  0  0  0
  5  6  1  0  0  0
  5  8  2  0  0  0
  5 12  1  0  0  0
  6  2  1  0  0  0
  7  8  1  0  0  0
  7 10  1  0  0  0
  8 11  1  0  0  0
 21 22  1  0  0  0
 21 23  2  0  0  0
 12 13  1  0  0  0
 12 14  2  0  0  0
  9 10  1  0  0  0
  9 11  1  0  0  0
 17 19  1  0  0  0
 18 19  1  0  0  0
  2  1  1  0  0  0
 16 19  1  0  0  0
 16  1  1  0  0  0
 20  1  1  0  0  0
 20 22  1  0  0  0
 22 24  1  0  0  0
 13 15  1  0  0  0
M  END
> <minimizedAffinity>
-6.93473

$$$$
