4B76_PW1_A_1721


 20 21  0  0  0  0  0  0  0  0999 V2000
    1.7804   16.1794  -41.5381 C   0  0  0  0  0  0  0  0  0  0  0  0
    2.7718   17.0987  -41.2937 C   0  0  0  0  0  0  0  0  0  0  0  0
    4.0686   16.6794  -41.1857 C   0  0  0  0  0  0  0  0  0  0  0  0
    5.0305   17.5921  -40.9464 F   0  0  0  0  0  0  0  0  0  0  0  0
    4.4324   15.3599  -41.3130 C   0  0  0  0  0  0  0  0  0  0  0  0
    3.4212   14.4455  -41.5590 C   0  0  0  0  0  0  0  0  0  0  0  0
    2.0955   14.8332  -41.6737 C   0  0  0  0  0  0  0  0  0  0  0  0
    3.7368   13.1435  -41.6894 F   0  0  0  0  0  0  0  0  0  0  0  0
    0.9912   13.8340  -41.9428 C   0  0  0  0  0  0  0  0  0  0  0  0
    0.0305   13.7220  -40.8231 N   0  0  0  0  0  0  0  0  0  0  0  0
    0.5174   13.3949  -39.9887 H   0  0  0  0  0  0  0  0  0  0  0  0
   -0.7038   13.0585  -41.0703 H   0  0  0  0  0  0  0  0  0  0  0  0
   -0.3846   14.6352  -40.6386 H   0  0  0  0  0  0  0  0  0  0  0  0
    5.7706   14.9968  -41.1931 O   0  0  0  0  0  0  0  0  0  0  0  0
    8.2142   13.4776  -39.0108 C   0  0  0  0  0  0  0  0  0  0  0  0
    7.5726   13.9895  -40.1178 C   0  0  0  0  0  0  0  0  0  0  0  0
    6.2980   14.5155  -39.9971 C   0  0  0  0  0  0  0  0  0  0  0  0
    5.6689   14.5258  -38.7631 C   0  0  0  0  0  0  0  0  0  0  0  0
    6.3160   14.0123  -37.6596 C   0  0  0  0  0  0  0  0  0  0  0  0
    7.5859   13.4889  -37.7822 C   0  0  0  0  0  0  0  0  0  0  0  0
  1  2  1  0  0  0
  1  7  2  0  0  0
  2  3  2  0  0  0
  3  4  1  0  0  0
  3  5  1  0  0  0
  5  6  2  0  0  0
  5 14  1  0  0  0
  6  7  1  0  0  0
  6  8  1  0  0  0
  7  9  1  0  0  0
  9 10  1  0  0  0
 19 18  2  0  0  0
 19 20  1  0  0  0
 18 17  1  0  0  0
 17 16  2  0  0  0
 17 14  1  0  0  0
 16 15  1  0  0  0
 15 20  2  0  0  0
 10 11  1  0  0  0
 10 12  1  0  0  0
 10 13  1  0  0  0
M  CHG 1  10   1
M  END
> <minimizedAffinity>
-7.15838

$$$$
4B76_PW1_A_1721


 20 21  0  0  0  0  0  0  0  0999 V2000
   -1.5851   12.4683  -41.5693 C   0  0  0  0  0  0  0  0  0  0  0  0
   -0.6603   11.9809  -42.4608 C   0  0  0  0  0  0  0  0  0  0  0  0
    0.4152   12.7515  -42.8056 C   0  0  0  0  0  0  0  0  0  0  0  0
    1.3145   12.2605  -43.6807 F   0  0  0  0  0  0  0  0  0  0  0  0
    0.6176   14.0109  -42.2931 C   0  0  0  0  0  0  0  0  0  0  0  0
   -0.3239   14.4877  -41.3958 C   0  0  0  0  0  0  0  0  0  0  0  0
   -1.4272   13.7360  -41.0234 C   0  0  0  0  0  0  0  0  0  0  0  0
   -0.1617   15.7170  -40.8719 F   0  0  0  0  0  0  0  0  0  0  0  0
   -2.4553   14.2572  -40.0429 C   0  0  0  0  0  0  0  0  0  0  0  0
   -2.4166   13.5559  -38.7406 N   0  0  0  0  0  0  0  0  0  0  0  0
   -2.6271   12.5677  -38.8802 H   0  0  0  0  0  0  0  0  0  0  0  0
   -3.1086   13.9656  -38.1131 H   0  0  0  0  0  0  0  0  0  0  0  0
   -1.4874   13.6511  -38.3307 H   0  0  0  0  0  0  0  0  0  0  0  0
    1.7333   14.7454  -42.6836 O   0  0  0  0  0  0  0  0  0  0  0  0
    4.1826   16.5822  -40.7681 C   0  0  0  0  0  0  0  0  0  0  0  0
    3.1241   16.2569  -41.5884 C   0  0  0  0  0  0  0  0  0  0  0  0
    2.8259   14.9287  -41.8392 C   0  0  0  0  0  0  0  0  0  0  0  0
    3.5928   13.9282  -41.2653 C   0  0  0  0  0  0  0  0  0  0  0  0
    4.6502   14.2600  -40.4456 C   0  0  0  0  0  0  0  0  0  0  0  0
    4.9454   15.5839  -40.1971 C   0  0  0  0  0  0  0  0  0  0  0  0
  1  2  1  0  0  0
  1  7  2  0  0  0
  2  3  2  0  0  0
  3  4  1  0  0  0
  3  5  1  0  0  0
  5  6  2  0  0  0
  5 14  1  0  0  0
  6  7  1  0  0  0
  6  8  1  0  0  0
  7  9  1  0  0  0
  9 10  1  0  0  0
 19 18  2  0  0  0
 19 20  1  0  0  0
 18 17  1  0  0  0
 17 16  2  0  0  0
 17 14  1  0  0  0
 16 15  1  0  0  0
 15 20  2  0  0  0
 10 11  1  0  0  0
 10 12  1  0  0  0
 10 13  1  0  0  0
M  CHG 1  10   1
M  END
> <minimizedAffinity>
-6.81401

$$$$
4B76_PW1_A_1721


 20 21  0  0  0  0  0  0  0  0999 V2000
    4.3354   16.3865  -40.6493 C   0  0  0  0  0  0  0  0  0  0  0  0
    3.2188   16.9694  -41.1981 C   0  0  0  0  0  0  0  0  0  0  0  0
    2.3068   16.1922  -41.8564 C   0  0  0  0  0  0  0  0  0  0  0  0
    1.2162   16.7773  -42.3891 F   0  0  0  0  0  0  0  0  0  0  0  0
    2.4573   14.8330  -41.9964 C   0  0  0  0  0  0  0  0  0  0  0  0
    3.5884   14.2606  -41.4378 C   0  0  0  0  0  0  0  0  0  0  0  0
    4.5349   15.0165  -40.7643 C   0  0  0  0  0  0  0  0  0  0  0  0
    3.7724   12.9323  -41.5539 F   0  0  0  0  0  0  0  0  0  0  0  0
    5.7703   14.3908  -40.1539 C   0  0  0  0  0  0  0  0  0  0  0  0
    5.5348   13.8605  -38.7928 N   0  0  0  0  0  0  0  0  0  0  0  0
    5.2624   14.6234  -38.1730 H   0  0  0  0  0  0  0  0  0  0  0  0
    6.3900   13.4277  -38.4439 H   0  0  0  0  0  0  0  0  0  0  0  0
    4.7896   13.1646  -38.8233 H   0  0  0  0  0  0  0  0  0  0  0  0
    1.4925   14.0969  -42.6777 O   0  0  0  0  0  0  0  0  0  0  0  0
   -0.9233   11.5137  -41.9475 C   0  0  0  0  0  0  0  0  0  0  0  0
    0.1087   12.2325  -42.5108 C   0  0  0  0  0  0  0  0  0  0  0  0
    0.4311   13.4841  -42.0155 C   0  0  0  0  0  0  0  0  0  0  0  0
   -0.2851   14.0127  -40.9543 C   0  0  0  0  0  0  0  0  0  0  0  0
   -1.3164   13.2887  -40.3952 C   0  0  0  0  0  0  0  0  0  0  0  0
   -1.6356   12.0418  -40.8901 C   0  0  0  0  0  0  0  0  0  0  0  0
  1  2  1  0  0  0
  1  7  2  0  0  0
  2  3  2  0  0  0
  3  4  1  0  0  0
  3  5  1  0  0  0
  5  6  2  0  0  0
  5 14  1  0  0  0
  6  7  1  0  0  0
  6  8  1  0  0  0
  7  9  1  0  0  0
  9 10  1  0  0  0
 19 18  2  0  0  0
 19 20  1  0  0  0
 18 17  1  0  0  0
 17 16  2  0  0  0
 17 14  1  0  0  0
 16 15  1  0  0  0
 15 20  2  0  0  0
 10 11  1  0  0  0
 10 12  1  0  0  0
 10 13  1  0  0  0
M  CHG 1  10   1
M  END
> <minimizedAffinity>
-6.59643

$$$$
4B76_PW1_A_1721


 20 21  0  0  0  0  0  0  0  0999 V2000
    4.2536   15.4005  -40.9903 C   0  0  0  0  0  0  0  0  0  0  0  0
    4.0705   14.0658  -41.2602 C   0  0  0  0  0  0  0  0  0  0  0  0
    2.8781   13.6395  -41.7758 C   0  0  0  0  0  0  0  0  0  0  0  0
    2.7129   12.3278  -42.0362 F   0  0  0  0  0  0  0  0  0  0  0  0
    1.8378   14.4979  -42.0413 C   0  0  0  0  0  0  0  0  0  0  0  0
    2.0383   15.8401  -41.7634 C   0  0  0  0  0  0  0  0  0  0  0  0
    3.2327   16.3090  -41.2395 C   0  0  0  0  0  0  0  0  0  0  0  0
    1.0432   16.7127  -42.0090 F   0  0  0  0  0  0  0  0  0  0  0  0
    3.4513   17.7754  -40.9364 C   0  0  0  0  0  0  0  0  0  0  0  0
    4.8829   18.1451  -40.8816 N   0  0  0  0  0  0  0  0  0  0  0  0
    5.3399   17.6251  -40.1325 H   0  0  0  0  0  0  0  0  0  0  0  0
    4.9691   19.1456  -40.7027 H   0  0  0  0  0  0  0  0  0  0  0  0
    5.3266   17.9194  -41.7719 H   0  0  0  0  0  0  0  0  0  0  0  0
    0.6486   14.0016  -42.5669 O   0  0  0  0  0  0  0  0  0  0  0  0
   -1.6135   11.4134  -41.4593 C   0  0  0  0  0  0  0  0  0  0  0  0
   -0.6678   12.1240  -42.1664 C   0  0  0  0  0  0  0  0  0  0  0  0
   -0.3171   13.4007  -41.7627 C   0  0  0  0  0  0  0  0  0  0  0  0
   -0.9181   13.9625  -40.6483 C   0  0  0  0  0  0  0  0  0  0  0  0
   -1.8633   13.2465  -39.9453 C   0  0  0  0  0  0  0  0  0  0  0  0
   -2.2110   11.9747  -40.3492 C   0  0  0  0  0  0  0  0  0  0  0  0
  1  2  1  0  0  0
  1  7  2  0  0  0
  2  3  2  0  0  0
  3  4  1  0  0  0
  3  5  1  0  0  0
  5  6  2  0  0  0
  5 14  1  0  0  0
  6  7  1  0  0  0
  6  8  1  0  0  0
  7  9  1  0  0  0
  9 10  1  0  0  0
 19 18  2  0  0  0
 19 20  1  0  0  0
 18 17  1  0  0  0
 17 16  2  0  0  0
 17 14  1  0  0  0
 16 15  1  0  0  0
 15 20  2  0  0  0
 10 11  1  0  0  0
 10 12  1  0  0  0
 10 13  1  0  0  0
M  CHG 1  10   1
M  END
> <minimizedAffinity>
-6.59242

$$$$
4B76_PW1_A_1721


 20 21  0  0  0  0  0  0  0  0999 V2000
   -0.8234   12.4807  -43.3345 C   0  0  0  0  0  0  0  0  0  0  0  0
   -0.1454   13.4186  -44.0750 C   0  0  0  0  0  0  0  0  0  0  0  0
    0.4270   14.4892  -43.4462 C   0  0  0  0  0  0  0  0  0  0  0  0
    1.0894   15.4008  -44.1850 F   0  0  0  0  0  0  0  0  0  0  0  0
    0.3550   14.6734  -42.0859 C   0  0  0  0  0  0  0  0  0  0  0  0
   -0.3323   13.7192  -41.3536 C   0  0  0  0  0  0  0  0  0  0  0  0
   -0.9262   12.6215  -41.9563 C   0  0  0  0  0  0  0  0  0  0  0  0
   -0.4258   13.8641  -40.0186 F   0  0  0  0  0  0  0  0  0  0  0  0
   -1.6767   11.5792  -41.1559 C   0  0  0  0  0  0  0  0  0  0  0  0
   -2.9983   12.0529  -40.6890 N   0  0  0  0  0  0  0  0  0  0  0  0
   -2.8733   12.8550  -40.0714 H   0  0  0  0  0  0  0  0  0  0  0  0
   -3.4685   11.3033  -40.1818 H   0  0  0  0  0  0  0  0  0  0  0  0
   -3.5643   12.3272  -41.4921 H   0  0  0  0  0  0  0  0  0  0  0  0
    0.9595   15.7844  -41.5054 O   0  0  0  0  0  0  0  0  0  0  0  0
    4.1311   14.4568  -40.4005 C   0  0  0  0  0  0  0  0  0  0  0  0
    2.8041   14.5818  -40.7503 C   0  0  0  0  0  0  0  0  0  0  0  0
    2.3153   15.8013  -41.1859 C   0  0  0  0  0  0  0  0  0  0  0  0
    3.1613   16.8949  -41.2689 C   0  0  0  0  0  0  0  0  0  0  0  0
    4.4878   16.7634  -40.9176 C   0  0  0  0  0  0  0  0  0  0  0  0
    4.9726   15.5475  -40.4840 C   0  0  0  0  0  0  0  0  0  0  0  0
  1  2  1  0  0  0
  1  7  2  0  0  0
  2  3  2  0  0  0
  3  4  1  0  0  0
  3  5  1  0  0  0
  5  6  2  0  0  0
  5 14  1  0  0  0
  6  7  1  0  0  0
  6  8  1  0  0  0
  7  9  1  0  0  0
  9 10  1  0  0  0
 19 18  2  0  0  0
 19 20  1  0  0  0
 18 17  1  0  0  0
 17 16  2  0  0  0
 17 14  1  0  0  0
 16 15  1  0  0  0
 15 20  2  0  0  0
 10 11  1  0  0  0
 10 12  1  0  0  0
 10 13  1  0  0  0
M  CHG 1  10   1
M  END
> <minimizedAffinity>
-6.53378

$$$$
4B76_PW1_A_1721


 20 21  0  0  0  0  0  0  0  0999 V2000
   -1.4546   13.0741  -41.3493 C   0  0  0  0  0  0  0  0  0  0  0  0
   -1.1414   14.3533  -40.9576 C   0  0  0  0  0  0  0  0  0  0  0  0
    0.0208   14.9265  -41.3935 C   0  0  0  0  0  0  0  0  0  0  0  0
    0.3148   16.1818  -41.0018 F   0  0  0  0  0  0  0  0  0  0  0  0
    0.9041   14.2723  -42.2191 C   0  0  0  0  0  0  0  0  0  0  0  0
    0.5739   12.9834  -42.6048 C   0  0  0  0  0  0  0  0  0  0  0  0
   -0.5946   12.3694  -42.1822 C   0  0  0  0  0  0  0  0  0  0  0  0
    1.4133   12.3091  -43.4125 F   0  0  0  0  0  0  0  0  0  0  0  0
   -0.9551   10.9614  -42.6040 C   0  0  0  0  0  0  0  0  0  0  0  0
   -2.3615   10.6127  -42.3045 N   0  0  0  0  0  0  0  0  0  0  0  0
   -2.5164   10.6600  -41.2974 H   0  0  0  0  0  0  0  0  0  0  0  0
   -2.5549    9.6670  -42.6342 H   0  0  0  0  0  0  0  0  0  0  0  0
   -2.9826   11.2706  -42.7754 H   0  0  0  0  0  0  0  0  0  0  0  0
    2.0707   14.9111  -42.6288 O   0  0  0  0  0  0  0  0  0  0  0  0
    4.7343   14.1821  -40.3016 C   0  0  0  0  0  0  0  0  0  0  0  0
    3.6932   14.0556  -41.1957 C   0  0  0  0  0  0  0  0  0  0  0  0
    3.1096   15.1854  -41.7423 C   0  0  0  0  0  0  0  0  0  0  0  0
    3.5727   16.4420  -41.3889 C   0  0  0  0  0  0  0  0  0  0  0  0
    4.6144   16.5619  -40.4941 C   0  0  0  0  0  0  0  0  0  0  0  0
    5.1945   15.4349  -39.9509 C   0  0  0  0  0  0  0  0  0  0  0  0
  1  2  1  0  0  0
  1  7  2  0  0  0
  2  3  2  0  0  0
  3  4  1  0  0  0
  3  5  1  0  0  0
  5  6  2  0  0  0
  5 14  1  0  0  0
  6  7  1  0  0  0
  6  8  1  0  0  0
  7  9  1  0  0  0
  9 10  1  0  0  0
 19 18  2  0  0  0
 19 20  1  0  0  0
 18 17  1  0  0  0
 17 16  2  0  0  0
 17 14  1  0  0  0
 16 15  1  0  0  0
 15 20  2  0  0  0
 10 11  1  0  0  0
 10 12  1  0  0  0
 10 13  1  0  0  0
M  CHG 1  10   1
M  END
> <minimizedAffinity>
-6.47352

$$$$
4B76_PW1_A_1721


 20 21  0  0  0  0  0  0  0  0999 V2000
    8.9510   14.9745  -37.3580 C   0  0  0  0  0  0  0  0  0  0  0  0
    7.7514   14.3561  -37.1004 C   0  0  0  0  0  0  0  0  0  0  0  0
    6.9161   14.0463  -38.1375 C   0  0  0  0  0  0  0  0  0  0  0  0
    5.7431   13.4395  -37.8701 F   0  0  0  0  0  0  0  0  0  0  0  0
    7.2259   14.3288  -39.4467 C   0  0  0  0  0  0  0  0  0  0  0  0
    8.4388   14.9525  -39.6895 C   0  0  0  0  0  0  0  0  0  0  0  0
    9.3106   15.2827  -38.6639 C   0  0  0  0  0  0  0  0  0  0  0  0
    8.7785   15.2464  -40.9584 F   0  0  0  0  0  0  0  0  0  0  0  0
   10.6356   15.9638  -38.9297 C   0  0  0  0  0  0  0  0  0  0  0  0
   10.4915   17.4038  -39.2375 N   0  0  0  0  0  0  0  0  0  0  0  0
    9.9350   17.5164  -40.0848 H   0  0  0  0  0  0  0  0  0  0  0  0
   11.4140   17.8151  -39.3795 H   0  0  0  0  0  0  0  0  0  0  0  0
   10.0262   17.8727  -38.4603 H   0  0  0  0  0  0  0  0  0  0  0  0
    6.3329   13.9872  -40.4579 O   0  0  0  0  0  0  0  0  0  0  0  0
    2.9161   14.6841  -41.3973 C   0  0  0  0  0  0  0  0  0  0  0  0
    4.0918   14.0363  -41.0855 C   0  0  0  0  0  0  0  0  0  0  0  0
    5.2171   14.7687  -40.7491 C   0  0  0  0  0  0  0  0  0  0  0  0
    5.1597   16.1524  -40.7272 C   0  0  0  0  0  0  0  0  0  0  0  0
    3.9807   16.7945  -41.0401 C   0  0  0  0  0  0  0  0  0  0  0  0
    2.8609   16.0628  -41.3748 C   0  0  0  0  0  0  0  0  0  0  0  0
  1  2  1  0  0  0
  1  7  2  0  0  0
  2  3  2  0  0  0
  3  4  1  0  0  0
  3  5  1  0  0  0
  5  6  2  0  0  0
  5 14  1  0  0  0
  6  7  1  0  0  0
  6  8  1  0  0  0
  7  9  1  0  0  0
  9 10  1  0  0  0
 19 18  2  0  0  0
 19 20  1  0  0  0
 18 17  1  0  0  0
 17 16  2  0  0  0
 17 14  1  0  0  0
 16 15  1  0  0  0
 15 20  2  0  0  0
 10 11  1  0  0  0
 10 12  1  0  0  0
 10 13  1  0  0  0
M  CHG 1  10   1
M  END
> <minimizedAffinity>
-6.40813

$$$$
4B76_PW1_A_1721


 20 21  0  0  0  0  0  0  0  0999 V2000
   -1.2930   12.8444  -43.3648 C   0  0  0  0  0  0  0  0  0  0  0  0
   -1.2168   12.8483  -41.9930 C   0  0  0  0  0  0  0  0  0  0  0  0
   -0.3759   13.7258  -41.3668 C   0  0  0  0  0  0  0  0  0  0  0  0
   -0.3119   13.7188  -40.0209 F   0  0  0  0  0  0  0  0  0  0  0  0
    0.4088   14.6189  -42.0569 C   0  0  0  0  0  0  0  0  0  0  0  0
    0.3206   14.6022  -43.4393 C   0  0  0  0  0  0  0  0  0  0  0  0
   -0.5195   13.7264  -44.1088 C   0  0  0  0  0  0  0  0  0  0  0  0
    1.0736   15.4612  -44.1513 F   0  0  0  0  0  0  0  0  0  0  0  0
   -0.6158   13.7087  -45.6190 C   0  0  0  0  0  0  0  0  0  0  0  0
   -1.3757   14.8567  -46.1612 N   0  0  0  0  0  0  0  0  0  0  0  0
   -2.3334   14.8262  -45.8114 H   0  0  0  0  0  0  0  0  0  0  0  0
   -1.3842   14.8081  -47.1800 H   0  0  0  0  0  0  0  0  0  0  0  0
   -0.9334   15.7271  -45.8660 H   0  0  0  0  0  0  0  0  0  0  0  0
    1.2442   15.4874  -41.3607 O   0  0  0  0  0  0  0  0  0  0  0  0
    4.7217   16.4321  -41.1225 C   0  0  0  0  0  0  0  0  0  0  0  0
    3.3456   16.4731  -41.1845 C   0  0  0  0  0  0  0  0  0  0  0  0
    2.6234   15.2989  -41.3099 C   0  0  0  0  0  0  0  0  0  0  0  0
    3.2856   14.0840  -41.3736 C   0  0  0  0  0  0  0  0  0  0  0  0
    4.6622   14.0497  -41.3109 C   0  0  0  0  0  0  0  0  0  0  0  0
    5.3796   15.2207  -41.1858 C   0  0  0  0  0  0  0  0  0  0  0  0
  1  2  1  0  0  0
  1  7  2  0  0  0
  2  3  2  0  0  0
  3  4  1  0  0  0
  3  5  1  0  0  0
  5  6  2  0  0  0
  5 14  1  0  0  0
  6  7  1  0  0  0
  6  8  1  0  0  0
  7  9  1  0  0  0
  9 10  1  0  0  0
 19 18  2  0  0  0
 19 20  1  0  0  0
 18 17  1  0  0  0
 17 16  2  0  0  0
 17 14  1  0  0  0
 16 15  1  0  0  0
 15 20  2  0  0  0
 10 11  1  0  0  0
 10 12  1  0  0  0
 10 13  1  0  0  0
M  CHG 1  10   1
M  END
> <minimizedAffinity>
-6.20521

$$$$
4B76_PW1_A_1721


 20 21  0  0  0  0  0  0  0  0999 V2000
   -1.1992   11.6215  -42.6987 C   0  0  0  0  0  0  0  0  0  0  0  0
   -1.3313   12.1141  -41.4229 C   0  0  0  0  0  0  0  0  0  0  0  0
   -0.7570   13.3121  -41.0997 C   0  0  0  0  0  0  0  0  0  0  0  0
   -0.8952   13.7831  -39.8449 F   0  0  0  0  0  0  0  0  0  0  0  0
   -0.0429   14.0586  -42.0065 C   0  0  0  0  0  0  0  0  0  0  0  0
    0.0812   13.5481  -43.2883 C   0  0  0  0  0  0  0  0  0  0  0  0
   -0.4861   12.3370  -43.6522 C   0  0  0  0  0  0  0  0  0  0  0  0
    0.7736   14.2491  -44.2054 F   0  0  0  0  0  0  0  0  0  0  0  0
   -0.3505   11.7798  -45.0527 C   0  0  0  0  0  0  0  0  0  0  0  0
   -0.1223   10.3180  -45.0715 N   0  0  0  0  0  0  0  0  0  0  0  0
    0.7516   10.1041  -44.5908 H   0  0  0  0  0  0  0  0  0  0  0  0
   -0.0669    9.9949  -46.0373 H   0  0  0  0  0  0  0  0  0  0  0  0
   -0.8942    9.8473  -44.5992 H   0  0  0  0  0  0  0  0  0  0  0  0
    0.5171   15.2712  -41.6157 O   0  0  0  0  0  0  0  0  0  0  0  0
    3.7082   16.9094  -41.1971 C   0  0  0  0  0  0  0  0  0  0  0  0
    2.3844   16.6547  -41.4831 C   0  0  0  0  0  0  0  0  0  0  0  0
    1.8656   15.3866  -41.2862 C   0  0  0  0  0  0  0  0  0  0  0  0
    2.6787   14.3750  -40.8024 C   0  0  0  0  0  0  0  0  0  0  0  0
    4.0021   14.6361  -40.5182 C   0  0  0  0  0  0  0  0  0  0  0  0
    4.5167   15.9002  -40.7150 C   0  0  0  0  0  0  0  0  0  0  0  0
  1  2  1  0  0  0
  1  7  2  0  0  0
  2  3  2  0  0  0
  3  4  1  0  0  0
  3  5  1  0  0  0
  5  6  2  0  0  0
  5 14  1  0  0  0
  6  7  1  0  0  0
  6  8  1  0  0  0
  7  9  1  0  0  0
  9 10  1  0  0  0
 19 18  2  0  0  0
 19 20  1  0  0  0
 18 17  1  0  0  0
 17 16  2  0  0  0
 17 14  1  0  0  0
 16 15  1  0  0  0
 15 20  2  0  0  0
 10 11  1  0  0  0
 10 12  1  0  0  0
 10 13  1  0  0  0
M  CHG 1  10   1
M  END
> <minimizedAffinity>
-6.05182

$$$$
4B76_PW1_A_1721


 20 21  0  0  0  0  0  0  0  0999 V2000
   -1.8548   10.8652  -41.5163 C   0  0  0  0  0  0  0  0  0  0  0  0
   -1.7852   11.7991  -40.5110 C   0  0  0  0  0  0  0  0  0  0  0  0
   -1.2249   13.0205  -40.7628 C   0  0  0  0  0  0  0  0  0  0  0  0
   -1.1638   13.9268  -39.7676 F   0  0  0  0  0  0  0  0  0  0  0  0
   -0.7205   13.3631  -41.9949 C   0  0  0  0  0  0  0  0  0  0  0  0
   -0.7981   12.4105  -42.9976 C   0  0  0  0  0  0  0  0  0  0  0  0
   -1.3581   11.1616  -42.7793 C   0  0  0  0  0  0  0  0  0  0  0  0
   -0.3146   12.7075  -44.2182 F   0  0  0  0  0  0  0  0  0  0  0  0
   -1.4429   10.1213  -43.8751 C   0  0  0  0  0  0  0  0  0  0  0  0
   -2.6305    9.2478  -43.7494 N   0  0  0  0  0  0  0  0  0  0  0  0
   -2.5838    8.7351  -42.8689 H   0  0  0  0  0  0  0  0  0  0  0  0
   -2.6507    8.5875  -44.5266 H   0  0  0  0  0  0  0  0  0  0  0  0
   -3.4757    9.8186  -43.7662 H   0  0  0  0  0  0  0  0  0  0  0  0
   -0.1630   14.6236  -42.1878 O   0  0  0  0  0  0  0  0  0  0  0  0
    3.3109   13.8838  -41.5347 C   0  0  0  0  0  0  0  0  0  0  0  0
    1.9687   13.7628  -41.8229 C   0  0  0  0  0  0  0  0  0  0  0  0
    1.1707   14.8919  -41.8885 C   0  0  0  0  0  0  0  0  0  0  0  0
    1.7228   16.1421  -41.6636 C   0  0  0  0  0  0  0  0  0  0  0  0
    3.0661   16.2565  -41.3759 C   0  0  0  0  0  0  0  0  0  0  0  0
    3.8592   15.1304  -41.3111 C   0  0  0  0  0  0  0  0  0  0  0  0
  1  2  1  0  0  0
  1  7  2  0  0  0
  2  3  2  0  0  0
  3  4  1  0  0  0
  3  5  1  0  0  0
  5  6  2  0  0  0
  5 14  1  0  0  0
  6  7  1  0  0  0
  6  8  1  0  0  0
  7  9  1  0  0  0
  9 10  1  0  0  0
 19 18  2  0  0  0
 19 20  1  0  0  0
 18 17  1  0  0  0
 17 16  2  0  0  0
 17 14  1  0  0  0
 16 15  1  0  0  0
 15 20  2  0  0  0
 10 11  1  0  0  0
 10 12  1  0  0  0
 10 13  1  0  0  0
M  CHG 1  10   1
M  END
> <minimizedAffinity>
-5.78052

$$$$
