3X00_ZOF_A_201


 27 28  0  0  0  0  0  0  0  0999 V2000
   26.3545  -76.2485   10.4917 C   0  0  0  0  0  0  0  0  0  0  0  0
   26.4012  -76.9664    9.1821 C   0  0  0  0  0  0  0  0  0  0  0  0
   27.7803  -77.1768    8.5819 C   0  0  0  0  0  0  0  0  0  0  0  0
   27.0818  -79.4844    8.0570 N   0  0  0  0  0  0  0  0  0  0  0  0
   27.9413  -78.5149    7.8398 C   0  0  0  0  0  0  0  0  0  0  0  0
   28.8798  -78.6090    7.0160 O   0  0  0  0  0  0  0  0  0  0  0  0
   26.3974  -79.3087    8.7427 H   0  0  0  0  0  0  0  0  0  0  0  0
   27.0177  -80.7582    7.4232 C   0  0  0  0  0  0  0  0  0  0  0  0
   26.9755  -81.8855    8.4734 C   0  0  0  0  0  0  0  0  0  0  0  0
   26.3670  -81.2995    9.6857 C   0  0  0  0  0  0  0  0  0  0  0  0
   26.7079  -82.1516   10.8450 C   0  0  0  0  0  0  0  0  0  0  0  0
   25.7055  -81.8524   11.9136 C   0  0  0  0  0  0  0  0  0  0  0  0
   25.5689  -80.3665   11.9592 C   0  0  0  0  0  0  0  0  0  0  0  0
   25.1370  -79.7056   12.9220 O   0  0  0  0  0  0  0  0  0  0  0  0
   25.1313  -76.6986   11.2670 C   0  0  0  0  0  0  0  0  0  0  0  0
   24.7322  -75.6702   12.3510 C   0  0  0  0  0  0  0  0  0  0  0  0
   26.0272  -75.4625   13.6282 S   0  0  0  0  0  0  0  0  0  0  0  0
   24.8207  -74.6259   14.5974 C   0  0  0  0  0  0  0  0  0  0  0  0
   23.4558  -75.2357   14.4878 C   0  0  0  0  0  0  0  0  0  0  0  0
   23.4180  -75.9947   13.1293 C   0  0  0  0  0  0  0  0  0  0  0  0
   23.3769  -77.3660   13.4368 N   0  0  0  0  0  0  0  0  0  0  0  0
   23.1210  -77.5360   14.8024 C   0  0  0  0  0  0  0  0  0  0  0  0
   23.2615  -78.7718   15.3616 N   0  0  0  0  0  0  0  0  0  0  0  0
   23.4524  -76.3676   15.4012 N   0  0  0  0  0  0  0  0  0  0  0  0
   23.5083  -78.0961   12.7896 H   0  0  0  0  0  0  0  0  0  0  0  0
   23.0837  -78.9009   16.3213 H   0  0  0  0  0  0  0  0  0  0  0  0
   23.6692  -76.2919   16.3585 H   0  0  0  0  0  0  0  0  0  0  0  0
 24 22  1  0  0  0
 24 19  1  0  0  0
 23 22  2  0  0  0
 18 19  1  0  0  0
 18 17  1  0  0  0
 22 21  1  0  0  0
 19 20  1  0  0  0
 17 16  1  0  0  0
 21 20  1  0  0  0
 20 16  1  0  0  0
 16 15  1  0  0  0
 15  1  1  0  0  0
  1  2  1  0  0  0
  2  3  1  0  0  0
  3  5  1  0  0  0
 14 13  2  0  0  0
  4  5  1  0  0  0
  4  8  1  0  0  0
  9  8  1  0  0  0
  9 10  1  0  0  0
  5  6  2  0  0  0
 11 10  1  0  0  0
 11 12  1  0  0  0
 13 12  1  0  0  0
  4  7  1  0  0  0
 21 25  1  0  0  0
 23 26  1  0  0  0
 24 27  1  0  0  0
M  END
> <minimizedAffinity>
-7.37083

$$$$
3X00_ZOF_A_201


 27 28  0  0  0  0  0  0  0  0999 V2000
   25.4646  -78.0095   11.3447 C   0  0  0  0  0  0  0  0  0  0  0  0
   25.4074  -79.4952   11.4926 C   0  0  0  0  0  0  0  0  0  0  0  0
   25.0194  -80.2781   10.2504 C   0  0  0  0  0  0  0  0  0  0  0  0
   26.5106  -79.5027    8.4439 N   0  0  0  0  0  0  0  0  0  0  0  0
   26.1737  -80.4809    9.2536 C   0  0  0  0  0  0  0  0  0  0  0  0
   26.7785  -81.5770    9.2857 O   0  0  0  0  0  0  0  0  0  0  0  0
   25.9517  -78.6934    8.4890 H   0  0  0  0  0  0  0  0  0  0  0  0
   27.5845  -79.4683    7.5091 C   0  0  0  0  0  0  0  0  0  0  0  0
   28.3547  -78.1375    7.6158 C   0  0  0  0  0  0  0  0  0  0  0  0
   27.5360  -77.2528    8.4703 C   0  0  0  0  0  0  0  0  0  0  0  0
   28.1516  -75.9084    8.4858 C   0  0  0  0  0  0  0  0  0  0  0  0
   27.3104  -75.0558    9.3812 C   0  0  0  0  0  0  0  0  0  0  0  0
   27.4141  -73.6624    8.8556 C   0  0  0  0  0  0  0  0  0  0  0  0
   28.3882  -73.1877    8.2421 O   0  0  0  0  0  0  0  0  0  0  0  0
   24.0652  -77.4748   11.1086 C   0  0  0  0  0  0  0  0  0  0  0  0
   23.7898  -76.2056   11.9483 C   0  0  0  0  0  0  0  0  0  0  0  0
   25.3006  -75.5605   12.7562 S   0  0  0  0  0  0  0  0  0  0  0  0
   24.2448  -74.5575   13.7433 C   0  0  0  0  0  0  0  0  0  0  0  0
   22.9815  -75.2565   14.1460 C   0  0  0  0  0  0  0  0  0  0  0  0
   22.7381  -76.3740   13.0901 C   0  0  0  0  0  0  0  0  0  0  0  0
   22.9461  -77.5993   13.7475 N   0  0  0  0  0  0  0  0  0  0  0  0
   23.0283  -77.3861   15.1284 C   0  0  0  0  0  0  0  0  0  0  0  0
   23.4505  -78.3984   15.9387 N   0  0  0  0  0  0  0  0  0  0  0  0
   23.3309  -76.0768   15.2951 N   0  0  0  0  0  0  0  0  0  0  0  0
   23.0223  -78.4748   13.3037 H   0  0  0  0  0  0  0  0  0  0  0  0
   23.5115  -78.2576   16.9112 H   0  0  0  0  0  0  0  0  0  0  0  0
   23.7458  -75.7165   16.1120 H   0  0  0  0  0  0  0  0  0  0  0  0
 24 22  1  0  0  0
 24 19  1  0  0  0
 23 22  2  0  0  0
 18 19  1  0  0  0
 18 17  1  0  0  0
 22 21  1  0  0  0
 19 20  1  0  0  0
 17 16  1  0  0  0
 21 20  1  0  0  0
 20 16  1  0  0  0
 16 15  1  0  0  0
 15  1  1  0  0  0
  1  2  1  0  0  0
  2  3  1  0  0  0
  3  5  1  0  0  0
 14 13  2  0  0  0
  4  5  1  0  0  0
  4  8  1  0  0  0
  9  8  1  0  0  0
  9 10  1  0  0  0
  5  6  2  0  0  0
 11 10  1  0  0  0
 11 12  1  0  0  0
 13 12  1  0  0  0
  4  7  1  0  0  0
 21 25  1  0  0  0
 23 26  1  0  0  0
 24 27  1  0  0  0
M  END
> <minimizedAffinity>
-6.73718

$$$$
3X00_ZOF_A_201


 27 28  0  0  0  0  0  0  0  0999 V2000
   27.4878  -77.2782    7.6525 C   0  0  0  0  0  0  0  0  0  0  0  0
   27.8819  -76.3066    8.7170 C   0  0  0  0  0  0  0  0  0  0  0  0
   26.7448  -75.5967    9.4309 C   0  0  0  0  0  0  0  0  0  0  0  0
   26.2402  -75.4805   11.8434 N   0  0  0  0  0  0  0  0  0  0  0  0
   26.3545  -76.2361   10.7747 C   0  0  0  0  0  0  0  0  0  0  0  0
   26.1201  -77.4662   10.7824 O   0  0  0  0  0  0  0  0  0  0  0  0
   26.4707  -74.5305   11.7268 H   0  0  0  0  0  0  0  0  0  0  0  0
   25.8240  -75.8661   13.1497 C   0  0  0  0  0  0  0  0  0  0  0  0
   25.6122  -74.6259   14.0400 C   0  0  0  0  0  0  0  0  0  0  0  0
   24.6272  -75.0182   15.0691 C   0  0  0  0  0  0  0  0  0  0  0  0
   23.3382  -75.3062   14.4044 C   0  0  0  0  0  0  0  0  0  0  0  0
   22.5584  -76.1838   15.3306 C   0  0  0  0  0  0  0  0  0  0  0  0
   22.9274  -77.5896   14.9896 C   0  0  0  0  0  0  0  0  0  0  0  0
   23.5992  -78.3581   15.7028 O   0  0  0  0  0  0  0  0  0  0  0  0
   28.1123  -78.6279    7.9493 C   0  0  0  0  0  0  0  0  0  0  0  0
   27.2601  -79.7880    7.3836 C   0  0  0  0  0  0  0  0  0  0  0  0
   25.7229  -79.2000    6.5820 S   0  0  0  0  0  0  0  0  0  0  0  0
   25.1667  -80.8687    6.6126 C   0  0  0  0  0  0  0  0  0  0  0  0
   25.5599  -81.5943    7.8639 C   0  0  0  0  0  0  0  0  0  0  0  0
   26.8105  -80.8585    8.4276 C   0  0  0  0  0  0  0  0  0  0  0  0
   26.4011  -80.2212    9.6120 N   0  0  0  0  0  0  0  0  0  0  0  0
   25.1339  -80.6849    9.9837 C   0  0  0  0  0  0  0  0  0  0  0  0
   24.4484  -80.0421   10.9720 N   0  0  0  0  0  0  0  0  0  0  0  0
   24.5786  -81.2143    8.8679 N   0  0  0  0  0  0  0  0  0  0  0  0
   26.9262  -79.5503   10.1052 H   0  0  0  0  0  0  0  0  0  0  0  0
   23.5565  -80.3611   11.2401 H   0  0  0  0  0  0  0  0  0  0  0  0
   23.6083  -81.3303    8.7483 H   0  0  0  0  0  0  0  0  0  0  0  0
 24 22  1  0  0  0
 24 19  1  0  0  0
 23 22  2  0  0  0
 18 19  1  0  0  0
 18 17  1  0  0  0
 22 21  1  0  0  0
 19 20  1  0  0  0
 17 16  1  0  0  0
 21 20  1  0  0  0
 20 16  1  0  0  0
 16 15  1  0  0  0
 15  1  1  0  0  0
  1  2  1  0  0  0
  2  3  1  0  0  0
  3  5  1  0  0  0
 14 13  2  0  0  0
  4  5  1  0  0  0
  4  8  1  0  0  0
  9  8  1  0  0  0
  9 10  1  0  0  0
  5  6  2  0  0  0
 11 10  1  0  0  0
 11 12  1  0  0  0
 13 12  1  0  0  0
  4  7  1  0  0  0
 21 25  1  0  0  0
 23 26  1  0  0  0
 24 27  1  0  0  0
M  END
> <minimizedAffinity>
-6.47861

$$$$
3X00_ZOF_A_201


 27 28  0  0  0  0  0  0  0  0999 V2000
   26.0095  -76.9157   11.0593 C   0  0  0  0  0  0  0  0  0  0  0  0
   26.5893  -76.1892    9.8894 C   0  0  0  0  0  0  0  0  0  0  0  0
   27.2868  -74.8753   10.1950 C   0  0  0  0  0  0  0  0  0  0  0  0
   27.5592  -72.9623    8.6605 N   0  0  0  0  0  0  0  0  0  0  0  0
   27.9041  -74.1938    8.9614 C   0  0  0  0  0  0  0  0  0  0  0  0
   28.7540  -74.8415    8.3087 O   0  0  0  0  0  0  0  0  0  0  0  0
   26.8651  -72.5573    9.2293 H   0  0  0  0  0  0  0  0  0  0  0  0
   28.0653  -72.1408    7.6129 C   0  0  0  0  0  0  0  0  0  0  0  0
   27.1547  -70.9165    7.3951 C   0  0  0  0  0  0  0  0  0  0  0  0
   25.9679  -71.1259    8.2500 C   0  0  0  0  0  0  0  0  0  0  0  0
   24.8003  -70.4913    7.6018 C   0  0  0  0  0  0  0  0  0  0  0  0
   25.1926  -69.0842    7.2819 C   0  0  0  0  0  0  0  0  0  0  0  0
   23.9496  -68.2648    7.3917 C   0  0  0  0  0  0  0  0  0  0  0  0
   23.8995  -67.0563    7.6878 O   0  0  0  0  0  0  0  0  0  0  0  0
   24.5727  -76.4744   11.2617 C   0  0  0  0  0  0  0  0  0  0  0  0
   24.4194  -75.5895   12.5208 C   0  0  0  0  0  0  0  0  0  0  0  0
   25.9066  -75.6277   13.5876 S   0  0  0  0  0  0  0  0  0  0  0  0
   24.9262  -74.8761   14.8401 C   0  0  0  0  0  0  0  0  0  0  0  0
   23.5206  -75.3957   14.8743 C   0  0  0  0  0  0  0  0  0  0  0  0
   23.2205  -75.9539   13.4525 C   0  0  0  0  0  0  0  0  0  0  0  0
   23.1293  -77.3510   13.5811 N   0  0  0  0  0  0  0  0  0  0  0  0
   23.0746  -77.6978   14.9360 C   0  0  0  0  0  0  0  0  0  0  0  0
   23.2106  -79.0052   15.2990 N   0  0  0  0  0  0  0  0  0  0  0  0
   23.5767  -76.6428   15.6206 N   0  0  0  0  0  0  0  0  0  0  0  0
   23.1072  -77.9889   12.8315 H   0  0  0  0  0  0  0  0  0  0  0  0
   23.1735  -79.2585   16.2497 H   0  0  0  0  0  0  0  0  0  0  0  0
   23.9428  -76.7129   16.5318 H   0  0  0  0  0  0  0  0  0  0  0  0
 24 22  1  0  0  0
 24 19  1  0  0  0
 23 22  2  0  0  0
 18 19  1  0  0  0
 18 17  1  0  0  0
 22 21  1  0  0  0
 19 20  1  0  0  0
 17 16  1  0  0  0
 21 20  1  0  0  0
 20 16  1  0  0  0
 16 15  1  0  0  0
 15  1  1  0  0  0
  1  2  1  0  0  0
  2  3  1  0  0  0
  3  5  1  0  0  0
 14 13  2  0  0  0
  4  5  1  0  0  0
  4  8  1  0  0  0
  9  8  1  0  0  0
  9 10  1  0  0  0
  5  6  2  0  0  0
 11 10  1  0  0  0
 11 12  1  0  0  0
 13 12  1  0  0  0
  4  7  1  0  0  0
 21 25  1  0  0  0
 23 26  1  0  0  0
 24 27  1  0  0  0
M  END
> <minimizedAffinity>
-6.38748

$$$$
3X00_ZOF_A_201


 27 28  0  0  0  0  0  0  0  0999 V2000
   24.8723  -76.8325    9.9895 C   0  0  0  0  0  0  0  0  0  0  0  0
   23.6473  -77.5899    9.5915 C   0  0  0  0  0  0  0  0  0  0  0  0
   23.2708  -78.7670   10.4740 C   0  0  0  0  0  0  0  0  0  0  0  0
   24.7854  -80.2594    9.2220 N   0  0  0  0  0  0  0  0  0  0  0  0
   23.6607  -80.1359    9.8899 C   0  0  0  0  0  0  0  0  0  0  0  0
   22.8932  -81.0995   10.1148 O   0  0  0  0  0  0  0  0  0  0  0  0
   25.2996  -79.4309    9.0861 H   0  0  0  0  0  0  0  0  0  0  0  0
   25.3526  -81.4437    8.6705 C   0  0  0  0  0  0  0  0  0  0  0  0
   26.8269  -81.2112    8.2859 C   0  0  0  0  0  0  0  0  0  0  0  0
   27.1262  -79.8045    8.6245 C   0  0  0  0  0  0  0  0  0  0  0  0
   27.4616  -79.0797    7.3801 C   0  0  0  0  0  0  0  0  0  0  0  0
   28.6543  -78.2293    7.6807 C   0  0  0  0  0  0  0  0  0  0  0  0
   28.1602  -76.8227    7.7585 C   0  0  0  0  0  0  0  0  0  0  0  0
   28.0101  -76.1618    8.8031 O   0  0  0  0  0  0  0  0  0  0  0  0
   25.1430  -77.0563   11.4648 C   0  0  0  0  0  0  0  0  0  0  0  0
   24.6890  -75.8489   12.3180 C   0  0  0  0  0  0  0  0  0  0  0  0
   25.9599  -75.3318   13.5299 S   0  0  0  0  0  0  0  0  0  0  0  0
   24.7086  -74.3703   14.3076 C   0  0  0  0  0  0  0  0  0  0  0  0
   23.3720  -75.0486   14.3203 C   0  0  0  0  0  0  0  0  0  0  0  0
   23.3812  -76.0667   13.1428 C   0  0  0  0  0  0  0  0  0  0  0  0
   23.3947  -77.3483   13.7208 N   0  0  0  0  0  0  0  0  0  0  0  0
   23.1311  -77.2506   15.0919 C   0  0  0  0  0  0  0  0  0  0  0  0
   23.3175  -78.3409   15.8894 N   0  0  0  0  0  0  0  0  0  0  0  0
   23.4063  -75.9721   15.4433 N   0  0  0  0  0  0  0  0  0  0  0  0
   23.5638  -78.1875   13.2346 H   0  0  0  0  0  0  0  0  0  0  0  0
   23.1347  -78.2816   16.8550 H   0  0  0  0  0  0  0  0  0  0  0  0
   23.6092  -75.6956   16.3662 H   0  0  0  0  0  0  0  0  0  0  0  0
 24 22  1  0  0  0
 24 19  1  0  0  0
 23 22  2  0  0  0
 18 19  1  0  0  0
 18 17  1  0  0  0
 22 21  1  0  0  0
 19 20  1  0  0  0
 17 16  1  0  0  0
 21 20  1  0  0  0
 20 16  1  0  0  0
 16 15  1  0  0  0
 15  1  1  0  0  0
  1  2  1  0  0  0
  2  3  1  0  0  0
  3  5  1  0  0  0
 14 13  2  0  0  0
  4  5  1  0  0  0
  4  8  1  0  0  0
  9  8  1  0  0  0
  9 10  1  0  0  0
  5  6  2  0  0  0
 11 10  1  0  0  0
 11 12  1  0  0  0
 13 12  1  0  0  0
  4  7  1  0  0  0
 21 25  1  0  0  0
 23 26  1  0  0  0
 24 27  1  0  0  0
M  END
> <minimizedAffinity>
-6.29312

$$$$
3X00_ZOF_A_201


 27 28  0  0  0  0  0  0  0  0999 V2000
   26.5109  -72.3490    8.2158 C   0  0  0  0  0  0  0  0  0  0  0  0
   27.5386  -73.4183    8.0343 C   0  0  0  0  0  0  0  0  0  0  0  0
   27.9500  -74.1721    9.2868 C   0  0  0  0  0  0  0  0  0  0  0  0
   26.6187  -75.3821   10.9756 N   0  0  0  0  0  0  0  0  0  0  0  0
   26.9570  -75.2680    9.7112 C   0  0  0  0  0  0  0  0  0  0  0  0
   26.4756  -75.9915    8.8097 O   0  0  0  0  0  0  0  0  0  0  0  0
   27.0765  -74.7752   11.6012 H   0  0  0  0  0  0  0  0  0  0  0  0
   25.6716  -76.2754   11.5530 C   0  0  0  0  0  0  0  0  0  0  0  0
   25.6663  -76.1426   13.0885 C   0  0  0  0  0  0  0  0  0  0  0  0
   24.9508  -74.8862   13.3930 C   0  0  0  0  0  0  0  0  0  0  0  0
   24.9627  -74.6781   14.8569 C   0  0  0  0  0  0  0  0  0  0  0  0
   24.3168  -75.8786   15.4715 C   0  0  0  0  0  0  0  0  0  0  0  0
   22.8655  -75.7968   15.1314 C   0  0  0  0  0  0  0  0  0  0  0  0
   21.9606  -75.4115   15.8952 O   0  0  0  0  0  0  0  0  0  0  0  0
   27.1569  -70.9924    8.0101 C   0  0  0  0  0  0  0  0  0  0  0  0
   26.4060  -70.1579    6.9463 C   0  0  0  0  0  0  0  0  0  0  0  0
   27.4759  -69.7014    5.5328 S   0  0  0  0  0  0  0  0  0  0  0  0
   26.2279  -68.5528    5.0657 C   0  0  0  0  0  0  0  0  0  0  0  0
   25.5874  -67.8746    6.2390 C   0  0  0  0  0  0  0  0  0  0  0  0
   25.7888  -68.8188    7.4600 C   0  0  0  0  0  0  0  0  0  0  0  0
   26.6992  -68.1769    8.3177 N   0  0  0  0  0  0  0  0  0  0  0  0
   26.8791  -66.8507    7.9079 C   0  0  0  0  0  0  0  0  0  0  0  0
   27.8850  -66.1107    8.4558 N   0  0  0  0  0  0  0  0  0  0  0  0
   26.4872  -66.7949    6.6129 N   0  0  0  0  0  0  0  0  0  0  0  0
   27.1430  -68.5966    9.0898 H   0  0  0  0  0  0  0  0  0  0  0  0
   28.0191  -65.1770    8.1737 H   0  0  0  0  0  0  0  0  0  0  0  0
   26.7817  -66.0939    5.9875 H   0  0  0  0  0  0  0  0  0  0  0  0
 24 22  1  0  0  0
 24 19  1  0  0  0
 23 22  2  0  0  0
 18 19  1  0  0  0
 18 17  1  0  0  0
 22 21  1  0  0  0
 19 20  1  0  0  0
 17 16  1  0  0  0
 21 20  1  0  0  0
 20 16  1  0  0  0
 16 15  1  0  0  0
 15  1  1  0  0  0
  1  2  1  0  0  0
  2  3  1  0  0  0
  3  5  1  0  0  0
 14 13  2  0  0  0
  4  5  1  0  0  0
  4  8  1  0  0  0
  9  8  1  0  0  0
  9 10  1  0  0  0
  5  6  2  0  0  0
 11 10  1  0  0  0
 11 12  1  0  0  0
 13 12  1  0  0  0
  4  7  1  0  0  0
 21 25  1  0  0  0
 23 26  1  0  0  0
 24 27  1  0  0  0
M  END
> <minimizedAffinity>
-6.25585

$$$$
3X00_ZOF_A_201


 27 28  0  0  0  0  0  0  0  0999 V2000
   26.4081  -77.6044    9.9667 C   0  0  0  0  0  0  0  0  0  0  0  0
   27.2275  -76.8264    8.9890 C   0  0  0  0  0  0  0  0  0  0  0  0
   28.0874  -77.6400    8.0377 C   0  0  0  0  0  0  0  0  0  0  0  0
   27.5942  -80.0250    7.6416 N   0  0  0  0  0  0  0  0  0  0  0  0
   27.3310  -78.7766    7.3284 C   0  0  0  0  0  0  0  0  0  0  0  0
   26.4528  -78.4542    6.4960 O   0  0  0  0  0  0  0  0  0  0  0  0
   28.3199  -80.1628    8.2925 H   0  0  0  0  0  0  0  0  0  0  0  0
   26.9595  -81.2038    7.1557 C   0  0  0  0  0  0  0  0  0  0  0  0
   26.8009  -82.2399    8.2857 C   0  0  0  0  0  0  0  0  0  0  0  0
   27.0374  -81.5130    9.5502 C   0  0  0  0  0  0  0  0  0  0  0  0
   26.1388  -82.0637   10.5873 C   0  0  0  0  0  0  0  0  0  0  0  0
   25.3566  -80.9148   11.1389 C   0  0  0  0  0  0  0  0  0  0  0  0
   24.2198  -80.6885   10.1981 C   0  0  0  0  0  0  0  0  0  0  0  0
   23.0737  -80.3216   10.5181 O   0  0  0  0  0  0  0  0  0  0  0  0
   25.3498  -76.6989   10.5667 C   0  0  0  0  0  0  0  0  0  0  0  0
   24.6465  -77.3641   11.7729 C   0  0  0  0  0  0  0  0  0  0  0  0
   22.9581  -76.7111   12.0450 S   0  0  0  0  0  0  0  0  0  0  0  0
   22.9979  -77.4951   13.6194 C   0  0  0  0  0  0  0  0  0  0  0  0
   24.3408  -77.4137   14.2805 C   0  0  0  0  0  0  0  0  0  0  0  0
   25.3834  -77.2165   13.1416 C   0  0  0  0  0  0  0  0  0  0  0  0
   25.8786  -75.9072   13.2732 N   0  0  0  0  0  0  0  0  0  0  0  0
   25.4687  -75.3685   14.4983 C   0  0  0  0  0  0  0  0  0  0  0  0
   25.6432  -74.0373   14.7368 N   0  0  0  0  0  0  0  0  0  0  0  0
   24.4000  -76.0980   14.8976 N   0  0  0  0  0  0  0  0  0  0  0  0
   26.4301  -75.4401   12.6048 H   0  0  0  0  0  0  0  0  0  0  0  0
   25.3580  -73.6495   15.5956 H   0  0  0  0  0  0  0  0  0  0  0  0
   23.7305  -75.7707   15.5410 H   0  0  0  0  0  0  0  0  0  0  0  0
 24 22  1  0  0  0
 24 19  1  0  0  0
 23 22  2  0  0  0
 18 19  1  0  0  0
 18 17  1  0  0  0
 22 21  1  0  0  0
 19 20  1  0  0  0
 17 16  1  0  0  0
 21 20  1  0  0  0
 20 16  1  0  0  0
 16 15  1  0  0  0
 15  1  1  0  0  0
  1  2  1  0  0  0
  2  3  1  0  0  0
  3  5  1  0  0  0
 14 13  2  0  0  0
  4  5  1  0  0  0
  4  8  1  0  0  0
  9  8  1  0  0  0
  9 10  1  0  0  0
  5  6  2  0  0  0
 11 10  1  0  0  0
 11 12  1  0  0  0
 13 12  1  0  0  0
  4  7  1  0  0  0
 21 25  1  0  0  0
 23 26  1  0  0  0
 24 27  1  0  0  0
M  END
> <minimizedAffinity>
-6.25446

$$$$
3X00_ZOF_A_201


 27 28  0  0  0  0  0  0  0  0999 V2000
   25.2707  -79.2681   11.4154 C   0  0  0  0  0  0  0  0  0  0  0  0
   25.4557  -80.7502   11.4548 C   0  0  0  0  0  0  0  0  0  0  0  0
   26.4381  -81.3300   10.4523 C   0  0  0  0  0  0  0  0  0  0  0  0
   27.3259  -79.9911    8.5794 N   0  0  0  0  0  0  0  0  0  0  0  0
   26.3332  -80.7139    9.0465 C   0  0  0  0  0  0  0  0  0  0  0  0
   25.3028  -80.9660    8.3810 O   0  0  0  0  0  0  0  0  0  0  0  0
   28.0768  -79.8387    9.1977 H   0  0  0  0  0  0  0  0  0  0  0  0
   27.4501  -79.4009    7.2893 C   0  0  0  0  0  0  0  0  0  0  0  0
   27.6075  -77.8720    7.4047 C   0  0  0  0  0  0  0  0  0  0  0  0
   27.4702  -77.5489    8.8400 C   0  0  0  0  0  0  0  0  0  0  0  0
   26.4865  -76.4546    8.9863 C   0  0  0  0  0  0  0  0  0  0  0  0
   27.0216  -75.5261   10.0292 C   0  0  0  0  0  0  0  0  0  0  0  0
   27.6213  -74.3712    9.2976 C   0  0  0  0  0  0  0  0  0  0  0  0
   28.6660  -74.4030    8.6209 O   0  0  0  0  0  0  0  0  0  0  0  0
   25.2664  -78.7254   12.8315 C   0  0  0  0  0  0  0  0  0  0  0  0
   23.9347  -78.0136   13.1660 C   0  0  0  0  0  0  0  0  0  0  0  0
   23.3958  -76.8775   11.8355 S   0  0  0  0  0  0  0  0  0  0  0  0
   22.2465  -76.2072   12.9866 C   0  0  0  0  0  0  0  0  0  0  0  0
   22.7997  -76.1079   14.3762 C   0  0  0  0  0  0  0  0  0  0  0  0
   23.9422  -77.1607   14.4739 C   0  0  0  0  0  0  0  0  0  0  0  0
   25.1459  -76.4394   14.5610 N   0  0  0  0  0  0  0  0  0  0  0  0
   24.8700  -75.0869   14.7925 C   0  0  0  0  0  0  0  0  0  0  0  0
   25.8745  -74.1706   14.6874 N   0  0  0  0  0  0  0  0  0  0  0  0
   23.5888  -74.8865   14.4028 N   0  0  0  0  0  0  0  0  0  0  0  0
   26.0466  -76.8271   14.4726 H   0  0  0  0  0  0  0  0  0  0  0  0
   25.6899  -73.2171   14.8484 H   0  0  0  0  0  0  0  0  0  0  0  0
   23.2278  -74.0029   14.1617 H   0  0  0  0  0  0  0  0  0  0  0  0
 24 22  1  0  0  0
 24 19  1  0  0  0
 23 22  2  0  0  0
 18 19  1  0  0  0
 18 17  1  0  0  0
 22 21  1  0  0  0
 19 20  1  0  0  0
 17 16  1  0  0  0
 21 20  1  0  0  0
 20 16  1  0  0  0
 16 15  1  0  0  0
 15  1  1  0  0  0
  1  2  1  0  0  0
  2  3  1  0  0  0
  3  5  1  0  0  0
 14 13  2  0  0  0
  4  5  1  0  0  0
  4  8  1  0  0  0
  9  8  1  0  0  0
  9 10  1  0  0  0
  5  6  2  0  0  0
 11 10  1  0  0  0
 11 12  1  0  0  0
 13 12  1  0  0  0
  4  7  1  0  0  0
 21 25  1  0  0  0
 23 26  1  0  0  0
 24 27  1  0  0  0
M  END
> <minimizedAffinity>
-6.21085

$$$$
3X00_ZOF_A_201


 27 28  0  0  0  0  0  0  0  0999 V2000
   27.6260  -76.5412    8.5843 C   0  0  0  0  0  0  0  0  0  0  0  0
   26.9276  -75.4311    9.3003 C   0  0  0  0  0  0  0  0  0  0  0  0
   26.7485  -75.6074   10.7980 C   0  0  0  0  0  0  0  0  0  0  0  0
   24.4321  -76.1251   11.4722 N   0  0  0  0  0  0  0  0  0  0  0  0
   25.6269  -76.5880   11.1820 C   0  0  0  0  0  0  0  0  0  0  0  0
   25.8970  -77.8106   11.1625 O   0  0  0  0  0  0  0  0  0  0  0  0
   24.3389  -75.1450   11.4785 H   0  0  0  0  0  0  0  0  0  0  0  0
   23.2550  -76.8660   11.7788 C   0  0  0  0  0  0  0  0  0  0  0  0
   22.5044  -76.2267   12.9635 C   0  0  0  0  0  0  0  0  0  0  0  0
   23.1643  -76.7238   14.1884 C   0  0  0  0  0  0  0  0  0  0  0  0
   23.2057  -75.6286   15.1810 C   0  0  0  0  0  0  0  0  0  0  0  0
   24.6152  -75.5412   15.6728 C   0  0  0  0  0  0  0  0  0  0  0  0
   25.3149  -74.5735   14.7769 C   0  0  0  0  0  0  0  0  0  0  0  0
   26.2584  -74.8440   14.0106 O   0  0  0  0  0  0  0  0  0  0  0  0
   26.6229  -77.3015    7.7383 C   0  0  0  0  0  0  0  0  0  0  0  0
   27.1434  -78.7086    7.3626 C   0  0  0  0  0  0  0  0  0  0  0  0
   26.3686  -79.3559    5.8356 S   0  0  0  0  0  0  0  0  0  0  0  0
   27.0225  -80.9304    6.2699 C   0  0  0  0  0  0  0  0  0  0  0  0
   26.9693  -81.2004    7.7433 C   0  0  0  0  0  0  0  0  0  0  0  0
   26.9297  -79.8122    8.4464 C   0  0  0  0  0  0  0  0  0  0  0  0
   25.6467  -79.6826    9.0066 N   0  0  0  0  0  0  0  0  0  0  0  0
   24.9858  -80.9156    8.9626 C   0  0  0  0  0  0  0  0  0  0  0  0
   23.6526  -80.9717    9.2440 N   0  0  0  0  0  0  0  0  0  0  0  0
   25.6137  -81.6518    8.0153 N   0  0  0  0  0  0  0  0  0  0  0  0
   25.2701  -78.8506    9.3741 H   0  0  0  0  0  0  0  0  0  0  0  0
   23.1794  -81.8345    9.2156 H   0  0  0  0  0  0  0  0  0  0  0  0
   25.1948  -82.4157    7.5568 H   0  0  0  0  0  0  0  0  0  0  0  0
 24 22  1  0  0  0
 24 19  1  0  0  0
 23 22  2  0  0  0
 18 19  1  0  0  0
 18 17  1  0  0  0
 22 21  1  0  0  0
 19 20  1  0  0  0
 17 16  1  0  0  0
 21 20  1  0  0  0
 20 16  1  0  0  0
 16 15  1  0  0  0
 15  1  1  0  0  0
  1  2  1  0  0  0
  2  3  1  0  0  0
  3  5  1  0  0  0
 14 13  2  0  0  0
  4  5  1  0  0  0
  4  8  1  0  0  0
  9  8  1  0  0  0
  9 10  1  0  0  0
  5  6  2  0  0  0
 11 10  1  0  0  0
 11 12  1  0  0  0
 13 12  1  0  0  0
  4  7  1  0  0  0
 21 25  1  0  0  0
 23 26  1  0  0  0
 24 27  1  0  0  0
M  END
> <minimizedAffinity>
-6.13218

$$$$
3X00_ZOF_A_201


 27 28  0  0  0  0  0  0  0  0999 V2000
   27.0142  -81.7762   10.1004 C   0  0  0  0  0  0  0  0  0  0  0  0
   25.8587  -81.8961   11.0400 C   0  0  0  0  0  0  0  0  0  0  0  0
   25.6473  -80.7338   11.9943 C   0  0  0  0  0  0  0  0  0  0  0  0
   25.6933  -78.4065   11.1757 N   0  0  0  0  0  0  0  0  0  0  0  0
   24.9904  -79.5035   11.3449 C   0  0  0  0  0  0  0  0  0  0  0  0
   23.8032  -79.6170   10.9629 O   0  0  0  0  0  0  0  0  0  0  0  0
   26.6099  -78.4218   11.5347 H   0  0  0  0  0  0  0  0  0  0  0  0
   25.2931  -77.1980   10.5371 C   0  0  0  0  0  0  0  0  0  0  0  0
   25.7465  -75.9746   11.3577 C   0  0  0  0  0  0  0  0  0  0  0  0
   25.2326  -76.1814   12.7275 C   0  0  0  0  0  0  0  0  0  0  0  0
   25.9242  -75.2442   13.6384 C   0  0  0  0  0  0  0  0  0  0  0  0
   24.8636  -74.5290   14.4129 C   0  0  0  0  0  0  0  0  0  0  0  0
   24.1796  -75.5630   15.2446 C   0  0  0  0  0  0  0  0  0  0  0  0
   22.9792  -75.5521   15.5755 O   0  0  0  0  0  0  0  0  0  0  0  0
   26.5570  -82.1225    8.6965 C   0  0  0  0  0  0  0  0  0  0  0  0
   25.6185  -81.0379    8.1180 C   0  0  0  0  0  0  0  0  0  0  0  0
   24.8349  -81.5568    6.5470 S   0  0  0  0  0  0  0  0  0  0  0  0
   24.3680  -79.8759    6.3205 C   0  0  0  0  0  0  0  0  0  0  0  0
   25.4218  -78.9096    6.7705 C   0  0  0  0  0  0  0  0  0  0  0  0
   26.2912  -79.6605    7.8208 C   0  0  0  0  0  0  0  0  0  0  0  0
   27.5488  -79.8669    7.2269 N   0  0  0  0  0  0  0  0  0  0  0  0
   27.6457  -79.1117    6.0524 C   0  0  0  0  0  0  0  0  0  0  0  0
   28.6863  -79.3311    5.1988 N   0  0  0  0  0  0  0  0  0  0  0  0
   26.3766  -78.8260    5.6765 N   0  0  0  0  0  0  0  0  0  0  0  0
   28.2544  -80.4537    7.5832 H   0  0  0  0  0  0  0  0  0  0  0  0
   28.7626  -78.8048    4.3703 H   0  0  0  0  0  0  0  0  0  0  0  0
   26.1254  -78.5857    4.7554 H   0  0  0  0  0  0  0  0  0  0  0  0
 24 22  1  0  0  0
 24 19  1  0  0  0
 23 22  2  0  0  0
 18 19  1  0  0  0
 18 17  1  0  0  0
 22 21  1  0  0  0
 19 20  1  0  0  0
 17 16  1  0  0  0
 21 20  1  0  0  0
 20 16  1  0  0  0
 16 15  1  0  0  0
 15  1  1  0  0  0
  1  2  1  0  0  0
  2  3  1  0  0  0
  3  5  1  0  0  0
 14 13  2  0  0  0
  4  5  1  0  0  0
  4  8  1  0  0  0
  9  8  1  0  0  0
  9 10  1  0  0  0
  5  6  2  0  0  0
 11 10  1  0  0  0
 11 12  1  0  0  0
 13 12  1  0  0  0
  4  7  1  0  0  0
 21 25  1  0  0  0
 23 26  1  0  0  0
 24 27  1  0  0  0
M  END
> <minimizedAffinity>
-6.12505

$$$$
