3NKK_JLZ_A_1


 14 14  0  0  0  0  0  0  0  0999 V2000
   26.9889   14.8649   19.5416 F   0  0  0  0  0  0  0  0  0  0  0  0
   27.6175   14.3419   18.4905 C   0  0  0  0  0  0  0  0  0  0  0  0
   27.7731   12.9589   18.3941 C   0  0  0  0  0  0  0  0  0  0  0  0
   28.4326   12.4256   17.2866 C   0  0  0  0  0  0  0  0  0  0  0  0
   28.9366   13.2555   16.2858 C   0  0  0  0  0  0  0  0  0  0  0  0
   28.7832   14.6392   16.3792 C   0  0  0  0  0  0  0  0  0  0  0  0
   28.1202   15.1756   17.4908 C   0  0  0  0  0  0  0  0  0  0  0  0
   27.2174   12.0545   19.4982 C   0  0  0  0  0  0  0  0  0  0  0  0
   29.3434   15.5072   15.2727 C   0  0  0  0  0  0  0  0  0  0  0  0
   30.2303   14.9723   14.5302 N   0  0  0  0  0  0  0  0  0  0  0  0
   28.9215   16.7343   15.1025 N   0  0  0  0  0  0  0  0  0  0  0  0
   30.5172   14.0452   14.6959 H   0  0  0  0  0  0  0  0  0  0  0  0
   28.2340   17.1059   15.7012 H   0  0  0  0  0  0  0  0  0  0  0  0
   29.2916   17.2858   14.3758 H   0  0  0  0  0  0  0  0  0  0  0  0
  1  2  1  0  0  0
  2  3  2  0  0  0
  2  7  1  0  0  0
  3  4  1  0  0  0
  3  8  1  0  0  0
  4  5  2  0  0  0
  5  6  1  0  0  0
  6  7  2  0  0  0
  6  9  1  0  0  0
  9 10  2  0  0  0
  9 11  1  0  0  0
 10 12  1  0  0  0
 11 13  1  0  0  0
 11 14  1  0  0  0
M  END
> <minimizedAffinity>
-6.81235

$$$$
3NKK_JLZ_A_1


 14 14  0  0  0  0  0  0  0  0999 V2000
   28.2571   11.1324   17.2345 F   0  0  0  0  0  0  0  0  0  0  0  0
   28.2598   12.4622   17.3070 C   0  0  0  0  0  0  0  0  0  0  0  0
   27.7223   13.0958   18.4276 C   0  0  0  0  0  0  0  0  0  0  0  0
   27.7334   14.4894   18.4900 C   0  0  0  0  0  0  0  0  0  0  0  0
   28.2689   15.2480   17.4497 C   0  0  0  0  0  0  0  0  0  0  0  0
   28.8069   14.6174   16.3272 C   0  0  0  0  0  0  0  0  0  0  0  0
   28.7969   13.2179   16.2641 C   0  0  0  0  0  0  0  0  0  0  0  0
   27.1353   12.2553   19.5654 C   0  0  0  0  0  0  0  0  0  0  0  0
   29.3794   15.4749   15.2186 C   0  0  0  0  0  0  0  0  0  0  0  0
   28.9398   16.6687   15.1445 N   0  0  0  0  0  0  0  0  0  0  0  0
   30.2793   14.9977   14.3969 N   0  0  0  0  0  0  0  0  0  0  0  0
   28.2621   16.9844   15.7850 H   0  0  0  0  0  0  0  0  0  0  0  0
   30.5895   14.0683   14.4923 H   0  0  0  0  0  0  0  0  0  0  0  0
   30.6461   15.5683   13.6834 H   0  0  0  0  0  0  0  0  0  0  0  0
  1  2  1  0  0  0
  2  3  2  0  0  0
  2  7  1  0  0  0
  3  4  1  0  0  0
  3  8  1  0  0  0
  4  5  2  0  0  0
  5  6  1  0  0  0
  6  7  2  0  0  0
  6  9  1  0  0  0
  9 10  2  0  0  0
  9 11  1  0  0  0
 10 12  1  0  0  0
 11 13  1  0  0  0
 11 14  1  0  0  0
M  END
> <minimizedAffinity>
-6.40344

$$$$
3NKK_JLZ_A_1


 14 14  0  0  0  0  0  0  0  0999 V2000
   27.5222   16.6228   16.8028 F   0  0  0  0  0  0  0  0  0  0  0  0
   27.9825   15.3906   17.0107 C   0  0  0  0  0  0  0  0  0  0  0  0
   28.8197   14.7954   16.0667 C   0  0  0  0  0  0  0  0  0  0  0  0
   29.2951   13.5046   16.2990 C   0  0  0  0  0  0  0  0  0  0  0  0
   28.9411   12.8088   17.4543 C   0  0  0  0  0  0  0  0  0  0  0  0
   28.1035   13.4009   18.4004 C   0  0  0  0  0  0  0  0  0  0  0  0
   27.6263   14.6975   18.1683 C   0  0  0  0  0  0  0  0  0  0  0  0
   29.2029   15.5662   14.8000 C   0  0  0  0  0  0  0  0  0  0  0  0
   27.7420   12.6141   19.6422 C   0  0  0  0  0  0  0  0  0  0  0  0
   28.7114   12.2706   20.3947 N   0  0  0  0  0  0  0  0  0  0  0  0
   26.4957   12.3191   19.9114 N   0  0  0  0  0  0  0  0  0  0  0  0
   29.6337   12.5149   20.1517 H   0  0  0  0  0  0  0  0  0  0  0  0
   25.7790   12.6057   19.3004 H   0  0  0  0  0  0  0  0  0  0  0  0
   26.2749   11.8106   20.7250 H   0  0  0  0  0  0  0  0  0  0  0  0
  1  2  1  0  0  0
  2  3  2  0  0  0
  2  7  1  0  0  0
  3  4  1  0  0  0
  3  8  1  0  0  0
  4  5  2  0  0  0
  5  6  1  0  0  0
  6  7  2  0  0  0
  6  9  1  0  0  0
  9 10  2  0  0  0
  9 11  1  0  0  0
 10 12  1  0  0  0
 11 13  1  0  0  0
 11 14  1  0  0  0
M  END
> <minimizedAffinity>
-5.85005

$$$$
3NKK_JLZ_A_1


 14 14  0  0  0  0  0  0  0  0999 V2000
   28.8168   15.9770   18.0071 F   0  0  0  0  0  0  0  0  0  0  0  0
   28.5574   14.6788   17.8625 C   0  0  0  0  0  0  0  0  0  0  0  0
   28.9290   14.0249   16.6876 C   0  0  0  0  0  0  0  0  0  0  0  0
   28.6519   12.6645   16.5511 C   0  0  0  0  0  0  0  0  0  0  0  0
   28.0091   11.9597   17.5681 C   0  0  0  0  0  0  0  0  0  0  0  0
   27.6356   12.6107   18.7445 C   0  0  0  0  0  0  0  0  0  0  0  0
   27.9142   13.9767   18.8827 C   0  0  0  0  0  0  0  0  0  0  0  0
   29.6338   14.8067   15.5751 C   0  0  0  0  0  0  0  0  0  0  0  0
   26.9401   11.8116   19.8259 C   0  0  0  0  0  0  0  0  0  0  0  0
   27.6464   11.5003   20.8399 N   0  0  0  0  0  0  0  0  0  0  0  0
   25.6809   11.4751   19.7079 N   0  0  0  0  0  0  0  0  0  0  0  0
   28.5906   11.7753   20.8854 H   0  0  0  0  0  0  0  0  0  0  0  0
   25.1742   11.7379   18.9057 H   0  0  0  0  0  0  0  0  0  0  0  0
   25.2403   10.9592   20.4213 H   0  0  0  0  0  0  0  0  0  0  0  0
  1  2  1  0  0  0
  2  3  2  0  0  0
  2  7  1  0  0  0
  3  4  1  0  0  0
  3  8  1  0  0  0
  4  5  2  0  0  0
  5  6  1  0  0  0
  6  7  2  0  0  0
  6  9  1  0  0  0
  9 10  2  0  0  0
  9 11  1  0  0  0
 10 12  1  0  0  0
 11 13  1  0  0  0
 11 14  1  0  0  0
M  END
> <minimizedAffinity>
-5.50505

$$$$
3NKK_JLZ_A_1


 14 14  0  0  0  0  0  0  0  0999 V2000
   29.4516   13.1968   15.1747 F   0  0  0  0  0  0  0  0  0  0  0  0
   28.8671   13.6069   16.2988 C   0  0  0  0  0  0  0  0  0  0  0  0
   28.5636   14.9580   16.4687 C   0  0  0  0  0  0  0  0  0  0  0  0
   27.9500   15.3724   17.6510 C   0  0  0  0  0  0  0  0  0  0  0  0
   27.6435   14.4569   18.6571 C   0  0  0  0  0  0  0  0  0  0  0  0
   27.9460   13.1049   18.4907 C   0  0  0  0  0  0  0  0  0  0  0  0
   28.5615   12.6877   17.3033 C   0  0  0  0  0  0  0  0  0  0  0  0
   28.9045   15.9570   15.3590 C   0  0  0  0  0  0  0  0  0  0  0  0
   27.5974   12.1415   19.6051 C   0  0  0  0  0  0  0  0  0  0  0  0
   28.5456   11.4038   20.0304 N   0  0  0  0  0  0  0  0  0  0  0  0
   26.3845   12.0900   20.0938 N   0  0  0  0  0  0  0  0  0  0  0  0
   29.4430   11.4773   19.6322 H   0  0  0  0  0  0  0  0  0  0  0  0
   25.6832   12.6796   19.7336 H   0  0  0  0  0  0  0  0  0  0  0  0
   26.1733   11.4615   20.8216 H   0  0  0  0  0  0  0  0  0  0  0  0
  1  2  1  0  0  0
  2  3  2  0  0  0
  2  7  1  0  0  0
  3  4  1  0  0  0
  3  8  1  0  0  0
  4  5  2  0  0  0
  5  6  1  0  0  0
  6  7  2  0  0  0
  6  9  1  0  0  0
  9 10  2  0  0  0
  9 11  1  0  0  0
 10 12  1  0  0  0
 11 13  1  0  0  0
 11 14  1  0  0  0
M  END
> <minimizedAffinity>
-5.43800

$$$$
3NKK_JLZ_A_1


 14 14  0  0  0  0  0  0  0  0999 V2000
   26.5378   12.1662   19.9883 F   0  0  0  0  0  0  0  0  0  0  0  0
   27.2395   12.4521   18.8932 C   0  0  0  0  0  0  0  0  0  0  0  0
   27.5781   11.4336   18.0020 C   0  0  0  0  0  0  0  0  0  0  0  0
   28.3123   11.7486   16.8584 C   0  0  0  0  0  0  0  0  0  0  0  0
   28.7105   13.0602   16.6024 C   0  0  0  0  0  0  0  0  0  0  0  0
   28.3739   14.0813   17.4919 C   0  0  0  0  0  0  0  0  0  0  0  0
   27.6359   13.7659   18.6402 C   0  0  0  0  0  0  0  0  0  0  0  0
   27.1377    9.9955   18.2911 C   0  0  0  0  0  0  0  0  0  0  0  0
   28.8238   15.4925   17.1794 C   0  0  0  0  0  0  0  0  0  0  0  0
   29.0033   16.2620   18.1793 N   0  0  0  0  0  0  0  0  0  0  0  0
   29.0171   15.8780   15.9437 N   0  0  0  0  0  0  0  0  0  0  0  0
   28.8453   15.9282   19.0919 H   0  0  0  0  0  0  0  0  0  0  0  0
   28.8656   15.2483   15.2023 H   0  0  0  0  0  0  0  0  0  0  0  0
   29.3140   16.7976   15.7557 H   0  0  0  0  0  0  0  0  0  0  0  0
  1  2  1  0  0  0
  2  3  2  0  0  0
  2  7  1  0  0  0
  3  4  1  0  0  0
  3  8  1  0  0  0
  4  5  2  0  0  0
  5  6  1  0  0  0
  6  7  2  0  0  0
  6  9  1  0  0  0
  9 10  2  0  0  0
  9 11  1  0  0  0
 10 12  1  0  0  0
 11 13  1  0  0  0
 11 14  1  0  0  0
M  END
> <minimizedAffinity>
-5.29100

$$$$
3NKK_JLZ_A_1


 14 14  0  0  0  0  0  0  0  0999 V2000
   29.4596   12.4502   15.3868 F   0  0  0  0  0  0  0  0  0  0  0  0
   29.0866   13.5395   16.0559 C   0  0  0  0  0  0  0  0  0  0  0  0
   29.0957   14.7806   15.4190 C   0  0  0  0  0  0  0  0  0  0  0  0
   28.7009   15.9125   16.1324 C   0  0  0  0  0  0  0  0  0  0  0  0
   28.3044   15.8158   17.4658 C   0  0  0  0  0  0  0  0  0  0  0  0
   28.2945   14.5760   18.1060 C   0  0  0  0  0  0  0  0  0  0  0  0
   28.6900   13.4385   17.3900 C   0  0  0  0  0  0  0  0  0  0  0  0
   29.5335   14.8783   13.9546 C   0  0  0  0  0  0  0  0  0  0  0  0
   27.8573   14.5111   19.5539 C   0  0  0  0  0  0  0  0  0  0  0  0
   28.7775   14.6322   20.4271 N   0  0  0  0  0  0  0  0  0  0  0  0
   26.5979   14.3452   19.8686 N   0  0  0  0  0  0  0  0  0  0  0  0
   29.7122   14.7554   20.1435 H   0  0  0  0  0  0  0  0  0  0  0  0
   25.9209   14.2561   19.1594 H   0  0  0  0  0  0  0  0  0  0  0  0
   26.3274   14.3094   20.8145 H   0  0  0  0  0  0  0  0  0  0  0  0
  1  2  1  0  0  0
  2  3  2  0  0  0
  2  7  1  0  0  0
  3  4  1  0  0  0
  3  8  1  0  0  0
  4  5  2  0  0  0
  5  6  1  0  0  0
  6  7  2  0  0  0
  6  9  1  0  0  0
  9 10  2  0  0  0
  9 11  1  0  0  0
 10 12  1  0  0  0
 11 13  1  0  0  0
 11 14  1  0  0  0
M  END
> <minimizedAffinity>
-5.18500

$$$$
3NKK_JLZ_A_1


 14 14  0  0  0  0  0  0  0  0999 V2000
   28.6463   12.1924   20.9508 F   0  0  0  0  0  0  0  0  0  0  0  0
   28.4846   12.2906   19.6326 C   0  0  0  0  0  0  0  0  0  0  0  0
   27.8621   11.2570   18.9323 C   0  0  0  0  0  0  0  0  0  0  0  0
   27.6985   11.3747   17.5519 C   0  0  0  0  0  0  0  0  0  0  0  0
   28.1510   12.5045   16.8715 C   0  0  0  0  0  0  0  0  0  0  0  0
   28.7745   13.5400   17.5687 C   0  0  0  0  0  0  0  0  0  0  0  0
   28.9384   13.4230   18.9552 C   0  0  0  0  0  0  0  0  0  0  0  0
   27.3688   10.0191   19.6872 C   0  0  0  0  0  0  0  0  0  0  0  0
   29.2517   14.7506   16.7952 C   0  0  0  0  0  0  0  0  0  0  0  0
   28.9597   15.8879   17.2906 N   0  0  0  0  0  0  0  0  0  0  0  0
   29.9303   14.6135   15.6845 N   0  0  0  0  0  0  0  0  0  0  0  0
   28.4469   15.9425   18.1292 H   0  0  0  0  0  0  0  0  0  0  0  0
   30.1328   13.7140   15.3393 H   0  0  0  0  0  0  0  0  0  0  0  0
   30.2382   15.4098   15.1943 H   0  0  0  0  0  0  0  0  0  0  0  0
  1  2  1  0  0  0
  2  3  2  0  0  0
  2  7  1  0  0  0
  3  4  1  0  0  0
  3  8  1  0  0  0
  4  5  2  0  0  0
  5  6  1  0  0  0
  6  7  2  0  0  0
  6  9  1  0  0  0
  9 10  2  0  0  0
  9 11  1  0  0  0
 10 12  1  0  0  0
 11 13  1  0  0  0
 11 14  1  0  0  0
M  END
> <minimizedAffinity>
-4.94760

$$$$
3NKK_JLZ_A_1


 14 14  0  0  0  0  0  0  0  0999 V2000
   25.0756   10.1899   20.5582 F   0  0  0  0  0  0  0  0  0  0  0  0
   25.8699   10.5862   19.5654 C   0  0  0  0  0  0  0  0  0  0  0  0
   25.7593    9.9890   18.3095 C   0  0  0  0  0  0  0  0  0  0  0  0
   26.5971   10.4157   17.2789 C   0  0  0  0  0  0  0  0  0  0  0  0
   27.5383   11.4221   17.4921 C   0  0  0  0  0  0  0  0  0  0  0  0
   27.6519   12.0213   18.7472 C   0  0  0  0  0  0  0  0  0  0  0  0
   26.8103   11.5940   19.7826 C   0  0  0  0  0  0  0  0  0  0  0  0
   24.7235    8.8836   18.0840 C   0  0  0  0  0  0  0  0  0  0  0  0
   28.6852   13.1107   18.9397 C   0  0  0  0  0  0  0  0  0  0  0  0
   29.6174   13.1639   18.0723 N   0  0  0  0  0  0  0  0  0  0  0  0
   28.6030   13.9446   19.9450 N   0  0  0  0  0  0  0  0  0  0  0  0
   29.6388   12.5149   17.3323 H   0  0  0  0  0  0  0  0  0  0  0  0
   27.8644   13.8654   20.5911 H   0  0  0  0  0  0  0  0  0  0  0  0
   29.2797   14.6511   20.0551 H   0  0  0  0  0  0  0  0  0  0  0  0
  1  2  1  0  0  0
  2  3  2  0  0  0
  2  7  1  0  0  0
  3  4  1  0  0  0
  3  8  1  0  0  0
  4  5  2  0  0  0
  5  6  1  0  0  0
  6  7  2  0  0  0
  6  9  1  0  0  0
  9 10  2  0  0  0
  9 11  1  0  0  0
 10 12  1  0  0  0
 11 13  1  0  0  0
 11 14  1  0  0  0
M  END
> <minimizedAffinity>
-4.84236

$$$$
3NKK_JLZ_A_1


 14 14  0  0  0  0  0  0  0  0999 V2000
   25.9341    9.1910   17.5167 F   0  0  0  0  0  0  0  0  0  0  0  0
   26.4909   10.3048   17.9888 C   0  0  0  0  0  0  0  0  0  0  0  0
   26.2211   10.7144   19.2948 C   0  0  0  0  0  0  0  0  0  0  0  0
   26.8128   11.8825   19.7758 C   0  0  0  0  0  0  0  0  0  0  0  0
   27.6610   12.6397   18.9687 C   0  0  0  0  0  0  0  0  0  0  0  0
   27.9327   12.2333   17.6618 C   0  0  0  0  0  0  0  0  0  0  0  0
   27.3396   11.0598   17.1781 C   0  0  0  0  0  0  0  0  0  0  0  0
   25.2875    9.8774   20.1743 C   0  0  0  0  0  0  0  0  0  0  0  0
   28.8589   13.0814   16.8165 C   0  0  0  0  0  0  0  0  0  0  0  0
   29.2608   12.5615   15.7246 N   0  0  0  0  0  0  0  0  0  0  0  0
   29.2098   14.2818   17.2022 N   0  0  0  0  0  0  0  0  0  0  0  0
   28.9704   11.6544   15.4751 H   0  0  0  0  0  0  0  0  0  0  0  0
   28.8743   14.6427   18.0545 H   0  0  0  0  0  0  0  0  0  0  0  0
   29.8093   14.8239   16.6400 H   0  0  0  0  0  0  0  0  0  0  0  0
  1  2  1  0  0  0
  2  3  2  0  0  0
  2  7  1  0  0  0
  3  4  1  0  0  0
  3  8  1  0  0  0
  4  5  2  0  0  0
  5  6  1  0  0  0
  6  7  2  0  0  0
  6  9  1  0  0  0
  9 10  2  0  0  0
  9 11  1  0  0  0
 10 12  1  0  0  0
 11 13  1  0  0  0
 11 14  1  0  0  0
M  END
> <minimizedAffinity>
-4.69276

$$$$
