5LOM_SNW_A_301


 29 29  0  0  0  0  0  0  0  0999 V2000
   41.3707  -66.7618   32.1735 C   0  0  0  0  0  0  0  0  0  0  0  0
   39.5753  -64.4013   32.4723 O   0  0  0  0  0  0  0  0  0  0  0  0
   40.9303  -64.4126   32.9674 C   0  0  0  0  0  0  0  0  0  0  0  0
   41.1472  -63.4703   34.0604 C   0  0  0  0  0  0  0  0  0  0  0  0
   40.7852  -62.1121   33.5402 O   0  0  0  0  0  0  0  0  0  0  0  0
   42.5036  -63.4555   34.5684 C   0  0  0  0  0  0  0  0  0  0  0  0
   43.4301  -62.8703   33.6347 O   0  0  0  0  0  0  0  0  0  0  0  0
   42.9714  -64.8805   34.9162 C   0  0  0  0  0  0  0  0  0  0  0  0
   42.7839  -65.7609   33.8043 O   0  0  0  0  0  0  0  0  0  0  0  0
   41.4210  -65.8065   33.3665 C   0  0  0  0  0  0  0  0  0  0  0  0
   40.5927  -66.2266   34.3723 O   0  0  0  0  0  0  0  0  0  0  0  0
   39.3245  -63.4942   32.2374 H   0  0  0  0  0  0  0  0  0  0  0  0
   41.3622  -61.8875   32.7935 H   0  0  0  0  0  0  0  0  0  0  0  0
   43.4554  -63.4052   32.8259 H   0  0  0  0  0  0  0  0  0  0  0  0
   40.6439  -65.6042   35.1146 H   0  0  0  0  0  0  0  0  0  0  0  0
   42.1439  -67.9948   32.4395 N   0  0  0  0  0  0  0  0  0  0  0  0
   41.8099  -68.4145   33.3070 H   0  0  0  0  0  0  0  0  0  0  0  0
   41.9964  -68.9726   31.3472 C   0  0  0  0  0  0  0  0  0  0  0  0
   40.7430  -69.7793   31.5797 C   0  0  0  0  0  0  0  0  0  0  0  0
   40.2208  -70.4452   30.6315 O   0  0  0  0  0  0  0  0  0  0  0  0
   40.2484  -69.7935   32.7290 O   0  0  0  0  0  0  0  0  0  0  0  0
   40.6464  -69.2966   33.4165 H   0  0  0  0  0  0  0  0  0  0  0  0
   43.1609  -69.9637   31.3440 C   0  0  0  0  0  0  0  0  0  0  0  0
   43.3532  -70.7225   32.6363 C   0  0  0  0  0  0  0  0  0  0  0  0
   44.7373  -71.2257   32.9207 C   0  0  0  0  0  0  0  0  0  0  0  0
   45.1655  -72.1945   32.3283 O   0  0  0  0  0  0  0  0  0  0  0  0
   45.5531  -70.5840   33.8872 N   0  0  0  0  0  0  0  0  0  0  0  0
   45.2146  -69.7975   34.3730 H   0  0  0  0  0  0  0  0  0  0  0  0
   46.4579  -70.9251   34.0723 H   0  0  0  0  0  0  0  0  0  0  0  0
  8  6  1  0  0  0
  8  9  1  0  0  0
  6  4  1  0  0  0
  6  7  1  0  0  0
  4  5  1  0  0  0
  4  3  1  0  0  0
 11 10  1  0  0  0
  9 10  1  0  0  0
 27 25  1  0  0  0
 10  3  1  0  0  0
 10  1  1  0  0  0
  3  2  1  0  0  0
 25 24  1  0  0  0
 25 26  2  0  0  0
 24 23  1  0  0  0
 20 19  2  0  0  0
 16  1  1  0  0  0
 16 18  1  0  0  0
 19 18  1  0  0  0
 19 21  1  0  0  0
 18 23  1  0  0  0
  2 12  1  0  0  0
  5 13  1  0  0  0
  7 14  1  0  0  0
 11 15  1  0  0  0
 16 17  1  0  0  0
 27 28  1  0  0  0
 27 29  1  0  0  0
 21 22  1  0  0  0
M  END
> <minimizedAffinity>
-10.05924

$$$$
5LOM_SNW_A_301


 29 29  0  0  0  0  0  0  0  0999 V2000
   41.2382  -66.8234   32.3206 C   0  0  0  0  0  0  0  0  0  0  0  0
   40.2190  -65.8990   34.9648 O   0  0  0  0  0  0  0  0  0  0  0  0
   40.8059  -64.9989   34.0021 C   0  0  0  0  0  0  0  0  0  0  0  0
   41.3570  -63.7921   34.6102 C   0  0  0  0  0  0  0  0  0  0  0  0
   40.2332  -63.1238   35.3429 O   0  0  0  0  0  0  0  0  0  0  0  0
   41.9433  -62.8669   33.6623 C   0  0  0  0  0  0  0  0  0  0  0  0
   40.9505  -62.2228   32.8424 O   0  0  0  0  0  0  0  0  0  0  0  0
   42.9574  -63.5860   32.7541 C   0  0  0  0  0  0  0  0  0  0  0  0
   42.3643  -64.7356   32.1431 O   0  0  0  0  0  0  0  0  0  0  0  0
   41.8534  -65.6644   33.1061 C   0  0  0  0  0  0  0  0  0  0  0  0
   42.8439  -66.1041   33.9426 O   0  0  0  0  0  0  0  0  0  0  0  0
   39.5667  -65.4200   35.4995 H   0  0  0  0  0  0  0  0  0  0  0  0
   39.5340  -62.8852   34.7143 H   0  0  0  0  0  0  0  0  0  0  0  0
   40.4879  -62.8895   32.3110 H   0  0  0  0  0  0  0  0  0  0  0  0
   43.2159  -65.3507   34.4273 H   0  0  0  0  0  0  0  0  0  0  0  0
   42.1062  -68.0208   32.3614 N   0  0  0  0  0  0  0  0  0  0  0  0
   41.9146  -68.5396   33.2184 H   0  0  0  0  0  0  0  0  0  0  0  0
   41.8675  -68.9021   31.2051 C   0  0  0  0  0  0  0  0  0  0  0  0
   40.7085  -69.8157   31.5182 C   0  0  0  0  0  0  0  0  0  0  0  0
   40.2263  -70.5749   30.6204 O   0  0  0  0  0  0  0  0  0  0  0  0
   40.2536  -69.8226   32.6839 O   0  0  0  0  0  0  0  0  0  0  0  0
   40.6211  -69.2562   33.3336 H   0  0  0  0  0  0  0  0  0  0  0  0
   43.0772  -69.8015   30.9483 C   0  0  0  0  0  0  0  0  0  0  0  0
   43.4559  -70.7018   32.1011 C   0  0  0  0  0  0  0  0  0  0  0  0
   44.8483  -71.2596   32.0889 C   0  0  0  0  0  0  0  0  0  0  0  0
   45.7599  -70.6294   32.5834 O   0  0  0  0  0  0  0  0  0  0  0  0
   45.1150  -72.5190   31.4938 N   0  0  0  0  0  0  0  0  0  0  0  0
   44.3821  -73.0377   31.0900 H   0  0  0  0  0  0  0  0  0  0  0  0
   46.0330  -72.8745   31.4844 H   0  0  0  0  0  0  0  0  0  0  0  0
  8  6  1  0  0  0
  8  9  1  0  0  0
  6  4  1  0  0  0
  6  7  1  0  0  0
  4  5  1  0  0  0
  4  3  1  0  0  0
 11 10  1  0  0  0
  9 10  1  0  0  0
 27 25  1  0  0  0
 10  3  1  0  0  0
 10  1  1  0  0  0
  3  2  1  0  0  0
 25 24  1  0  0  0
 25 26  2  0  0  0
 24 23  1  0  0  0
 20 19  2  0  0  0
 16  1  1  0  0  0
 16 18  1  0  0  0
 19 18  1  0  0  0
 19 21  1  0  0  0
 18 23  1  0  0  0
  2 12  1  0  0  0
  5 13  1  0  0  0
  7 14  1  0  0  0
 11 15  1  0  0  0
 16 17  1  0  0  0
 27 28  1  0  0  0
 27 29  1  0  0  0
 21 22  1  0  0  0
M  END
> <minimizedAffinity>
-9.64279

$$$$
5LOM_SNW_A_301


 29 29  0  0  0  0  0  0  0  0999 V2000
   41.4355  -66.2224   31.6725 C   0  0  0  0  0  0  0  0  0  0  0  0
   42.8534  -63.6018   31.7554 O   0  0  0  0  0  0  0  0  0  0  0  0
   42.5153  -64.3387   32.9488 C   0  0  0  0  0  0  0  0  0  0  0  0
   42.4041  -63.4911   34.1315 C   0  0  0  0  0  0  0  0  0  0  0  0
   43.7229  -62.7977   34.2935 O   0  0  0  0  0  0  0  0  0  0  0  0
   42.0753  -64.2096   35.3455 C   0  0  0  0  0  0  0  0  0  0  0  0
   43.1657  -65.0283   35.8078 O   0  0  0  0  0  0  0  0  0  0  0  0
   40.8339  -65.0958   35.1356 C   0  0  0  0  0  0  0  0  0  0  0  0
   41.0025  -65.9423   33.9947 O   0  0  0  0  0  0  0  0  0  0  0  0
   41.2596  -65.2007   32.7967 C   0  0  0  0  0  0  0  0  0  0  0  0
   40.2357  -64.3343   32.5224 O   0  0  0  0  0  0  0  0  0  0  0  0
   43.6539  -63.0778   31.9149 H   0  0  0  0  0  0  0  0  0  0  0  0
   44.4211  -63.4578   34.4269 H   0  0  0  0  0  0  0  0  0  0  0  0
   43.3650  -65.7065   35.1437 H   0  0  0  0  0  0  0  0  0  0  0  0
   40.1463  -63.6988   33.2498 H   0  0  0  0  0  0  0  0  0  0  0  0
   41.8476  -67.5403   32.2038 N   0  0  0  0  0  0  0  0  0  0  0  0
   41.2345  -67.7912   32.9793 H   0  0  0  0  0  0  0  0  0  0  0  0
   41.7677  -68.5890   31.1720 C   0  0  0  0  0  0  0  0  0  0  0  0
   40.5736  -69.4655   31.4579 C   0  0  0  0  0  0  0  0  0  0  0  0
   40.2152  -70.3567   30.6258 O   0  0  0  0  0  0  0  0  0  0  0  0
   39.9644  -69.3080   32.5395 O   0  0  0  0  0  0  0  0  0  0  0  0
   40.2422  -68.6459   33.1415 H   0  0  0  0  0  0  0  0  0  0  0  0
   42.9983  -69.4954   31.2217 C   0  0  0  0  0  0  0  0  0  0  0  0
   43.0762  -70.3953   32.4329 C   0  0  0  0  0  0  0  0  0  0  0  0
   44.3936  -71.0654   32.6887 C   0  0  0  0  0  0  0  0  0  0  0  0
   44.7576  -71.9808   31.9801 O   0  0  0  0  0  0  0  0  0  0  0  0
   45.2196  -70.6450   33.7622 N   0  0  0  0  0  0  0  0  0  0  0  0
   44.9329  -69.9032   34.3426 H   0  0  0  0  0  0  0  0  0  0  0  0
   46.0797  -71.0949   33.9269 H   0  0  0  0  0  0  0  0  0  0  0  0
  8  6  1  0  0  0
  8  9  1  0  0  0
  6  4  1  0  0  0
  6  7  1  0  0  0
  4  5  1  0  0  0
  4  3  1  0  0  0
 11 10  1  0  0  0
  9 10  1  0  0  0
 27 25  1  0  0  0
 10  3  1  0  0  0
 10  1  1  0  0  0
  3  2  1  0  0  0
 25 24  1  0  0  0
 25 26  2  0  0  0
 24 23  1  0  0  0
 20 19  2  0  0  0
 16  1  1  0  0  0
 16 18  1  0  0  0
 19 18  1  0  0  0
 19 21  1  0  0  0
 18 23  1  0  0  0
  2 12  1  0  0  0
  5 13  1  0  0  0
  7 14  1  0  0  0
 11 15  1  0  0  0
 16 17  1  0  0  0
 27 28  1  0  0  0
 27 29  1  0  0  0
 21 22  1  0  0  0
M  END
> <minimizedAffinity>
-8.98272

$$$$
5LOM_SNW_A_301


 29 29  0  0  0  0  0  0  0  0999 V2000
   41.0756  -66.5396   32.0419 C   0  0  0  0  0  0  0  0  0  0  0  0
   43.1845  -66.3283   34.1377 O   0  0  0  0  0  0  0  0  0  0  0  0
   42.0807  -65.4034   34.0523 C   0  0  0  0  0  0  0  0  0  0  0  0
   42.3712  -64.1092   34.6608 C   0  0  0  0  0  0  0  0  0  0  0  0
   42.7304  -64.3737   36.0917 O   0  0  0  0  0  0  0  0  0  0  0  0
   41.2740  -63.1657   34.5970 C   0  0  0  0  0  0  0  0  0  0  0  0
   40.1846  -63.5355   35.4627 O   0  0  0  0  0  0  0  0  0  0  0  0
   40.7497  -63.0356   33.1552 C   0  0  0  0  0  0  0  0  0  0  0  0
   40.4344  -64.3212   32.6127 O   0  0  0  0  0  0  0  0  0  0  0  0
   41.5564  -65.2111   32.6271 C   0  0  0  0  0  0  0  0  0  0  0  0
   42.6012  -64.7010   31.9042 O   0  0  0  0  0  0  0  0  0  0  0  0
   43.4700  -66.4066   35.0615 H   0  0  0  0  0  0  0  0  0  0  0  0
   41.9779  -64.7873   36.5428 H   0  0  0  0  0  0  0  0  0  0  0  0
   39.8193  -64.3874   35.1767 H   0  0  0  0  0  0  0  0  0  0  0  0
   42.8856  -63.8605   32.2961 H   0  0  0  0  0  0  0  0  0  0  0  0
   41.9219  -67.6647   32.4966 N   0  0  0  0  0  0  0  0  0  0  0  0
   41.5533  -68.0211   33.3784 H   0  0  0  0  0  0  0  0  0  0  0  0
   41.9437  -68.7590   31.5102 C   0  0  0  0  0  0  0  0  0  0  0  0
   40.6636  -69.5484   31.6280 C   0  0  0  0  0  0  0  0  0  0  0  0
   40.1264  -70.0615   30.5969 O   0  0  0  0  0  0  0  0  0  0  0  0
   40.1615  -69.7030   32.7637 O   0  0  0  0  0  0  0  0  0  0  0  0
   40.5708  -69.3177   33.5133 H   0  0  0  0  0  0  0  0  0  0  0  0
   43.0867  -69.7318   31.8028 C   0  0  0  0  0  0  0  0  0  0  0  0
   43.7904  -70.2718   30.5796 C   0  0  0  0  0  0  0  0  0  0  0  0
   45.2676  -70.0265   30.4910 C   0  0  0  0  0  0  0  0  0  0  0  0
   45.7421  -69.5287   29.4911 O   0  0  0  0  0  0  0  0  0  0  0  0
   46.1228  -70.3809   31.5654 N   0  0  0  0  0  0  0  0  0  0  0  0
   45.7472  -70.7853   32.3807 H   0  0  0  0  0  0  0  0  0  0  0  0
   47.0920  -70.2225   31.4960 H   0  0  0  0  0  0  0  0  0  0  0  0
  8  6  1  0  0  0
  8  9  1  0  0  0
  6  4  1  0  0  0
  6  7  1  0  0  0
  4  5  1  0  0  0
  4  3  1  0  0  0
 11 10  1  0  0  0
  9 10  1  0  0  0
 27 25  1  0  0  0
 10  3  1  0  0  0
 10  1  1  0  0  0
  3  2  1  0  0  0
 25 24  1  0  0  0
 25 26  2  0  0  0
 24 23  1  0  0  0
 20 19  2  0  0  0
 16  1  1  0  0  0
 16 18  1  0  0  0
 19 18  1  0  0  0
 19 21  1  0  0  0
 18 23  1  0  0  0
  2 12  1  0  0  0
  5 13  1  0  0  0
  7 14  1  0  0  0
 11 15  1  0  0  0
 16 17  1  0  0  0
 27 28  1  0  0  0
 27 29  1  0  0  0
 21 22  1  0  0  0
M  END
> <minimizedAffinity>
-8.95211

$$$$
5LOM_SNW_A_301


 29 29  0  0  0  0  0  0  0  0999 V2000
   42.8233  -70.3970   30.9636 C   0  0  0  0  0  0  0  0  0  0  0  0
   45.2484  -68.9888   29.9530 O   0  0  0  0  0  0  0  0  0  0  0  0
   45.2456  -70.3954   30.2737 C   0  0  0  0  0  0  0  0  0  0  0  0
   46.5717  -70.9096   30.6004 C   0  0  0  0  0  0  0  0  0  0  0  0
   47.4460  -70.6393   29.4135 O   0  0  0  0  0  0  0  0  0  0  0  0
   46.5968  -72.3231   30.9162 C   0  0  0  0  0  0  0  0  0  0  0  0
   46.3606  -73.1457   29.7585 O   0  0  0  0  0  0  0  0  0  0  0  0
   45.5511  -72.6596   31.9950 C   0  0  0  0  0  0  0  0  0  0  0  0
   44.2584  -72.1786   31.6152 O   0  0  0  0  0  0  0  0  0  0  0  0
   44.2491  -70.7668   31.3747 C   0  0  0  0  0  0  0  0  0  0  0  0
   44.6388  -70.0731   32.4887 O   0  0  0  0  0  0  0  0  0  0  0  0
   45.8971  -68.8182   29.2524 H   0  0  0  0  0  0  0  0  0  0  0  0
   47.0940  -71.1062   28.6395 H   0  0  0  0  0  0  0  0  0  0  0  0
   45.4729  -72.9672   29.4106 H   0  0  0  0  0  0  0  0  0  0  0  0
   45.5444  -70.3262   32.7270 H   0  0  0  0  0  0  0  0  0  0  0  0
   42.6512  -68.9298   30.8821 N   0  0  0  0  0  0  0  0  0  0  0  0
   42.3577  -68.6828   29.9369 H   0  0  0  0  0  0  0  0  0  0  0  0
   41.6384  -68.4496   31.8383 C   0  0  0  0  0  0  0  0  0  0  0  0
   40.4774  -69.4129   31.8452 C   0  0  0  0  0  0  0  0  0  0  0  0
   39.8981  -69.7307   30.7596 O   0  0  0  0  0  0  0  0  0  0  0  0
   40.1182  -69.9050   32.9382 O   0  0  0  0  0  0  0  0  0  0  0  0
   40.5564  -69.6595   33.7291 H   0  0  0  0  0  0  0  0  0  0  0  0
   41.0801  -67.0940   31.4037 C   0  0  0  0  0  0  0  0  0  0  0  0
   40.4399  -66.2864   32.5088 C   0  0  0  0  0  0  0  0  0  0  0  0
   41.0340  -64.9373   32.7861 C   0  0  0  0  0  0  0  0  0  0  0  0
   42.2329  -64.8197   32.9328 O   0  0  0  0  0  0  0  0  0  0  0  0
   40.2043  -63.7918   32.8890 N   0  0  0  0  0  0  0  0  0  0  0  0
   39.2306  -63.8771   32.7716 H   0  0  0  0  0  0  0  0  0  0  0  0
   40.6021  -62.9112   33.0779 H   0  0  0  0  0  0  0  0  0  0  0  0
  8  6  1  0  0  0
  8  9  1  0  0  0
  6  4  1  0  0  0
  6  7  1  0  0  0
  4  5  1  0  0  0
  4  3  1  0  0  0
 11 10  1  0  0  0
  9 10  1  0  0  0
 27 25  1  0  0  0
 10  3  1  0  0  0
 10  1  1  0  0  0
  3  2  1  0  0  0
 25 24  1  0  0  0
 25 26  2  0  0  0
 24 23  1  0  0  0
 20 19  2  0  0  0
 16  1  1  0  0  0
 16 18  1  0  0  0
 19 18  1  0  0  0
 19 21  1  0  0  0
 18 23  1  0  0  0
  2 12  1  0  0  0
  5 13  1  0  0  0
  7 14  1  0  0  0
 11 15  1  0  0  0
 16 17  1  0  0  0
 27 28  1  0  0  0
 27 29  1  0  0  0
 21 22  1  0  0  0
M  END
> <minimizedAffinity>
-8.64330

$$$$
5LOM_SNW_A_301


 29 29  0  0  0  0  0  0  0  0999 V2000
   43.1784  -70.8311   31.6206 C   0  0  0  0  0  0  0  0  0  0  0  0
   45.1314  -70.9668   33.8683 O   0  0  0  0  0  0  0  0  0  0  0  0
   45.5273  -70.6659   32.5140 C   0  0  0  0  0  0  0  0  0  0  0  0
   46.9245  -70.9879   32.2422 C   0  0  0  0  0  0  0  0  0  0  0  0
   47.7479  -70.2058   33.2204 O   0  0  0  0  0  0  0  0  0  0  0  0
   47.3494  -70.6850   30.8909 C   0  0  0  0  0  0  0  0  0  0  0  0
   47.4371  -69.2682   30.6506 O   0  0  0  0  0  0  0  0  0  0  0  0
   46.3887  -71.3116   29.8637 C   0  0  0  0  0  0  0  0  0  0  0  0
   45.0364  -70.9347   30.1390 O   0  0  0  0  0  0  0  0  0  0  0  0
   44.6227  -71.3068   31.4586 C   0  0  0  0  0  0  0  0  0  0  0  0
   44.7221  -72.6595   31.6447 O   0  0  0  0  0  0  0  0  0  0  0  0
   45.7406  -70.5342   34.4869 H   0  0  0  0  0  0  0  0  0  0  0  0
   47.5969  -69.2573   33.0845 H   0  0  0  0  0  0  0  0  0  0  0  0
   46.5586  -68.8686   30.7485 H   0  0  0  0  0  0  0  0  0  0  0  0
   45.6463  -72.9337   31.5365 H   0  0  0  0  0  0  0  0  0  0  0  0
   42.9839  -69.4911   31.0246 N   0  0  0  0  0  0  0  0  0  0  0  0
   42.7574  -69.5980   30.0359 H   0  0  0  0  0  0  0  0  0  0  0  0
   41.8931  -68.7563   31.6886 C   0  0  0  0  0  0  0  0  0  0  0  0
   40.6698  -69.6377   31.7382 C   0  0  0  0  0  0  0  0  0  0  0  0
   40.1704  -70.1069   30.6678 O   0  0  0  0  0  0  0  0  0  0  0  0
   40.1778  -69.9115   32.8557 O   0  0  0  0  0  0  0  0  0  0  0  0
   40.5587  -69.5568   33.6349 H   0  0  0  0  0  0  0  0  0  0  0  0
   41.5058  -67.5146   30.8845 C   0  0  0  0  0  0  0  0  0  0  0  0
   40.6904  -66.4943   31.6441 C   0  0  0  0  0  0  0  0  0  0  0  0
   41.4564  -65.4780   32.4382 C   0  0  0  0  0  0  0  0  0  0  0  0
   41.3458  -64.2971   32.1815 O   0  0  0  0  0  0  0  0  0  0  0  0
   42.3213  -65.8848   33.4859 N   0  0  0  0  0  0  0  0  0  0  0  0
   42.4177  -66.8406   33.7016 H   0  0  0  0  0  0  0  0  0  0  0  0
   42.8253  -65.2115   33.9976 H   0  0  0  0  0  0  0  0  0  0  0  0
  8  6  1  0  0  0
  8  9  1  0  0  0
  6  4  1  0  0  0
  6  7  1  0  0  0
  4  5  1  0  0  0
  4  3  1  0  0  0
 11 10  1  0  0  0
  9 10  1  0  0  0
 27 25  1  0  0  0
 10  3  1  0  0  0
 10  1  1  0  0  0
  3  2  1  0  0  0
 25 24  1  0  0  0
 25 26  2  0  0  0
 24 23  1  0  0  0
 20 19  2  0  0  0
 16  1  1  0  0  0
 16 18  1  0  0  0
 19 18  1  0  0  0
 19 21  1  0  0  0
 18 23  1  0  0  0
  2 12  1  0  0  0
  5 13  1  0  0  0
  7 14  1  0  0  0
 11 15  1  0  0  0
 16 17  1  0  0  0
 27 28  1  0  0  0
 27 29  1  0  0  0
 21 22  1  0  0  0
M  END
> <minimizedAffinity>
-8.53423

$$$$
5LOM_SNW_A_301


 29 29  0  0  0  0  0  0  0  0999 V2000
   44.6263  -62.5800   34.1004 C   0  0  0  0  0  0  0  0  0  0  0  0
   42.7473  -63.2362   31.8814 O   0  0  0  0  0  0  0  0  0  0  0  0
   42.4356  -63.4999   33.2651 C   0  0  0  0  0  0  0  0  0  0  0  0
   41.4555  -64.5675   33.4366 C   0  0  0  0  0  0  0  0  0  0  0  0
   40.2259  -64.1517   32.6871 O   0  0  0  0  0  0  0  0  0  0  0  0
   41.1178  -64.8443   34.8177 C   0  0  0  0  0  0  0  0  0  0  0  0
   40.3437  -63.7866   35.4133 O   0  0  0  0  0  0  0  0  0  0  0  0
   42.3897  -65.0708   35.6553 C   0  0  0  0  0  0  0  0  0  0  0  0
   43.3030  -63.9814   35.4944 O   0  0  0  0  0  0  0  0  0  0  0  0
   43.6712  -63.7740   34.1260 C   0  0  0  0  0  0  0  0  0  0  0  0
   44.2610  -64.8911   33.5981 O   0  0  0  0  0  0  0  0  0  0  0  0
   41.9269  -63.0710   31.3909 H   0  0  0  0  0  0  0  0  0  0  0  0
   39.8818  -63.3263   33.0629 H   0  0  0  0  0  0  0  0  0  0  0  0
   40.8677  -62.9705   35.4266 H   0  0  0  0  0  0  0  0  0  0  0  0
   43.6349  -65.6314   33.6266 H   0  0  0  0  0  0  0  0  0  0  0  0
   45.2459  -62.3590   35.4256 N   0  0  0  0  0  0  0  0  0  0  0  0
   45.9500  -63.0793   35.5862 H   0  0  0  0  0  0  0  0  0  0  0  0
   45.8878  -61.0355   35.5092 C   0  0  0  0  0  0  0  0  0  0  0  0
   46.7190  -60.8165   34.2695 C   0  0  0  0  0  0  0  0  0  0  0  0
   46.6687  -59.7092   33.6479 O   0  0  0  0  0  0  0  0  0  0  0  0
   47.4716  -61.7398   33.8862 O   0  0  0  0  0  0  0  0  0  0  0  0
   47.4962  -62.5499   34.3564 H   0  0  0  0  0  0  0  0  0  0  0  0
   46.8481  -60.9712   36.6974 C   0  0  0  0  0  0  0  0  0  0  0  0
   46.7978  -59.6836   37.4863 C   0  0  0  0  0  0  0  0  0  0  0  0
   45.6157  -58.7926   37.2441 C   0  0  0  0  0  0  0  0  0  0  0  0
   44.7423  -58.7005   38.0816 O   0  0  0  0  0  0  0  0  0  0  0  0
   45.5015  -58.0593   36.0355 N   0  0  0  0  0  0  0  0  0  0  0  0
   46.2049  -58.1275   35.3501 H   0  0  0  0  0  0  0  0  0  0  0  0
   44.7189  -57.4821   35.8820 H   0  0  0  0  0  0  0  0  0  0  0  0
  8  6  1  0  0  0
  8  9  1  0  0  0
  6  4  1  0  0  0
  6  7  1  0  0  0
  4  5  1  0  0  0
  4  3  1  0  0  0
 11 10  1  0  0  0
  9 10  1  0  0  0
 27 25  1  0  0  0
 10  3  1  0  0  0
 10  1  1  0  0  0
  3  2  1  0  0  0
 25 24  1  0  0  0
 25 26  2  0  0  0
 24 23  1  0  0  0
 20 19  2  0  0  0
 16  1  1  0  0  0
 16 18  1  0  0  0
 19 18  1  0  0  0
 19 21  1  0  0  0
 18 23  1  0  0  0
  2 12  1  0  0  0
  5 13  1  0  0  0
  7 14  1  0  0  0
 11 15  1  0  0  0
 16 17  1  0  0  0
 27 28  1  0  0  0
 27 29  1  0  0  0
 21 22  1  0  0  0
M  END
> <minimizedAffinity>
-7.84438

$$$$
5LOM_SNW_A_301


 29 29  0  0  0  0  0  0  0  0999 V2000
   41.6687  -68.3833   31.6289 C   0  0  0  0  0  0  0  0  0  0  0  0
   42.0234  -70.5963   33.5940 O   0  0  0  0  0  0  0  0  0  0  0  0
   43.0465  -70.2307   32.6447 C   0  0  0  0  0  0  0  0  0  0  0  0
   43.9676  -71.3231   32.3483 C   0  0  0  0  0  0  0  0  0  0  0  0
   44.5795  -71.7400   33.6514 O   0  0  0  0  0  0  0  0  0  0  0  0
   45.0110  -70.9775   31.4048 C   0  0  0  0  0  0  0  0  0  0  0  0
   45.9769  -70.0699   31.9669 O   0  0  0  0  0  0  0  0  0  0  0  0
   44.4107  -70.3502   30.1333 C   0  0  0  0  0  0  0  0  0  0  0  0
   43.5510  -69.2560   30.4654 O   0  0  0  0  0  0  0  0  0  0  0  0
   42.4897  -69.6421   31.3461 C   0  0  0  0  0  0  0  0  0  0  0  0
   41.7153  -70.6228   30.7866 O   0  0  0  0  0  0  0  0  0  0  0  0
   42.4379  -70.9610   34.3916 H   0  0  0  0  0  0  0  0  0  0  0  0
   45.0672  -70.9934   34.0331 H   0  0  0  0  0  0  0  0  0  0  0  0
   45.5403  -69.2350   32.1974 H   0  0  0  0  0  0  0  0  0  0  0  0
   42.2596  -71.4078   30.6180 H   0  0  0  0  0  0  0  0  0  0  0  0
   42.3011  -67.5538   32.6780 N   0  0  0  0  0  0  0  0  0  0  0  0
   43.1570  -67.1435   32.3047 H   0  0  0  0  0  0  0  0  0  0  0  0
   41.4069  -66.4713   33.1246 C   0  0  0  0  0  0  0  0  0  0  0  0
   41.3120  -65.4344   32.0329 C   0  0  0  0  0  0  0  0  0  0  0  0
   40.2284  -65.2756   31.3882 O   0  0  0  0  0  0  0  0  0  0  0  0
   42.3149  -64.7242   31.7973 O   0  0  0  0  0  0  0  0  0  0  0  0
   43.1060  -64.8548   32.2822 H   0  0  0  0  0  0  0  0  0  0  0  0
   41.9814  -65.7634   34.3523 C   0  0  0  0  0  0  0  0  0  0  0  0
   41.0162  -64.8465   35.0669 C   0  0  0  0  0  0  0  0  0  0  0  0
   41.2219  -63.3731   34.8753 C   0  0  0  0  0  0  0  0  0  0  0  0
   42.3181  -62.8841   35.0542 O   0  0  0  0  0  0  0  0  0  0  0  0
   40.1408  -62.5380   34.4945 N   0  0  0  0  0  0  0  0  0  0  0  0
   39.2478  -62.9253   34.3471 H   0  0  0  0  0  0  0  0  0  0  0  0
   40.2833  -61.5709   34.3775 H   0  0  0  0  0  0  0  0  0  0  0  0
  8  6  1  0  0  0
  8  9  1  0  0  0
  6  4  1  0  0  0
  6  7  1  0  0  0
  4  5  1  0  0  0
  4  3  1  0  0  0
 11 10  1  0  0  0
  9 10  1  0  0  0
 27 25  1  0  0  0
 10  3  1  0  0  0
 10  1  1  0  0  0
  3  2  1  0  0  0
 25 24  1  0  0  0
 25 26  2  0  0  0
 24 23  1  0  0  0
 20 19  2  0  0  0
 16  1  1  0  0  0
 16 18  1  0  0  0
 19 18  1  0  0  0
 19 21  1  0  0  0
 18 23  1  0  0  0
  2 12  1  0  0  0
  5 13  1  0  0  0
  7 14  1  0  0  0
 11 15  1  0  0  0
 16 17  1  0  0  0
 27 28  1  0  0  0
 27 29  1  0  0  0
 21 22  1  0  0  0
M  END
> <minimizedAffinity>
-7.70139

$$$$
5LOM_SNW_A_301


 29 29  0  0  0  0  0  0  0  0999 V2000
   43.2292  -63.3636   32.6699 C   0  0  0  0  0  0  0  0  0  0  0  0
   43.0084  -62.5261   35.5221 O   0  0  0  0  0  0  0  0  0  0  0  0
   44.1023  -62.1157   34.6757 C   0  0  0  0  0  0  0  0  0  0  0  0
   45.3057  -61.7693   35.4251 C   0  0  0  0  0  0  0  0  0  0  0  0
   44.9265  -60.6697   36.3703 O   0  0  0  0  0  0  0  0  0  0  0  0
   46.4159  -61.3438   34.5976 C   0  0  0  0  0  0  0  0  0  0  0  0
   46.1907  -60.0516   34.0040 O   0  0  0  0  0  0  0  0  0  0  0  0
   46.6897  -62.3695   33.4825 C   0  0  0  0  0  0  0  0  0  0  0  0
   45.4959  -62.6463   32.7444 O   0  0  0  0  0  0  0  0  0  0  0  0
   44.4367  -63.1292   33.5785 C   0  0  0  0  0  0  0  0  0  0  0  0
   44.8014  -64.2803   34.2239 O   0  0  0  0  0  0  0  0  0  0  0  0
   42.8461  -61.8453   36.1936 H   0  0  0  0  0  0  0  0  0  0  0  0
   44.6212  -59.9000   35.8650 H   0  0  0  0  0  0  0  0  0  0  0  0
   45.4219  -60.0962   33.4143 H   0  0  0  0  0  0  0  0  0  0  0  0
   45.5676  -64.1036   34.7919 H   0  0  0  0  0  0  0  0  0  0  0  0
   42.6622  -64.7158   32.8678 N   0  0  0  0  0  0  0  0  0  0  0  0
   43.2404  -65.2224   33.5382 H   0  0  0  0  0  0  0  0  0  0  0  0
   41.2811  -64.6546   33.3774 C   0  0  0  0  0  0  0  0  0  0  0  0
   41.2293  -65.3218   34.7294 C   0  0  0  0  0  0  0  0  0  0  0  0
   42.2441  -65.3067   35.4941 O   0  0  0  0  0  0  0  0  0  0  0  0
   40.1599  -65.8661   35.0844 O   0  0  0  0  0  0  0  0  0  0  0  0
   39.4213  -65.8680   34.5078 H   0  0  0  0  0  0  0  0  0  0  0  0
   40.3311  -65.4342   32.4675 C   0  0  0  0  0  0  0  0  0  0  0  0
   41.0050  -66.4124   31.5338 C   0  0  0  0  0  0  0  0  0  0  0  0
   41.0192  -67.8498   31.9622 C   0  0  0  0  0  0  0  0  0  0  0  0
   39.9749  -68.4352   32.1607 O   0  0  0  0  0  0  0  0  0  0  0  0
   42.2473  -68.5342   32.1486 N   0  0  0  0  0  0  0  0  0  0  0  0
   43.0997  -68.0678   31.9901 H   0  0  0  0  0  0  0  0  0  0  0  0
   42.2474  -69.4757   32.4364 H   0  0  0  0  0  0  0  0  0  0  0  0
  8  6  1  0  0  0
  8  9  1  0  0  0
  6  4  1  0  0  0
  6  7  1  0  0  0
  4  5  1  0  0  0
  4  3  1  0  0  0
 11 10  1  0  0  0
  9 10  1  0  0  0
 27 25  1  0  0  0
 10  3  1  0  0  0
 10  1  1  0  0  0
  3  2  1  0  0  0
 25 24  1  0  0  0
 25 26  2  0  0  0
 24 23  1  0  0  0
 20 19  2  0  0  0
 16  1  1  0  0  0
 16 18  1  0  0  0
 19 18  1  0  0  0
 19 21  1  0  0  0
 18 23  1  0  0  0
  2 12  1  0  0  0
  5 13  1  0  0  0
  7 14  1  0  0  0
 11 15  1  0  0  0
 16 17  1  0  0  0
 27 28  1  0  0  0
 27 29  1  0  0  0
 21 22  1  0  0  0
M  END
> <minimizedAffinity>
-7.70059

$$$$
5LOM_SNW_A_301


 29 29  0  0  0  0  0  0  0  0999 V2000
   40.8660  -66.2932   34.4883 C   0  0  0  0  0  0  0  0  0  0  0  0
   40.3134  -63.8357   32.8945 O   0  0  0  0  0  0  0  0  0  0  0  0
   41.6326  -64.1683   33.3746 C   0  0  0  0  0  0  0  0  0  0  0  0
   42.5006  -63.0035   33.5134 C   0  0  0  0  0  0  0  0  0  0  0  0
   42.5764  -62.3559   32.1639 O   0  0  0  0  0  0  0  0  0  0  0  0
   43.8350  -63.3129   33.9846 C   0  0  0  0  0  0  0  0  0  0  0  0
   44.6163  -64.0075   32.9947 O   0  0  0  0  0  0  0  0  0  0  0  0
   43.7772  -64.1622   35.2675 C   0  0  0  0  0  0  0  0  0  0  0  0
   42.9540  -65.3162   35.0747 O   0  0  0  0  0  0  0  0  0  0  0  0
   41.6215  -64.9767   34.6744 C   0  0  0  0  0  0  0  0  0  0  0  0
   41.0115  -64.1838   35.6090 O   0  0  0  0  0  0  0  0  0  0  0  0
   40.3875  -63.3261   32.0724 H   0  0  0  0  0  0  0  0  0  0  0  0
   42.9614  -62.9786   31.5276 H   0  0  0  0  0  0  0  0  0  0  0  0
   44.2007  -64.8610   32.7952 H   0  0  0  0  0  0  0  0  0  0  0  0
   41.5101  -63.3575   35.7070 H   0  0  0  0  0  0  0  0  0  0  0  0
   40.2840  -66.3916   33.1316 N   0  0  0  0  0  0  0  0  0  0  0  0
   40.2816  -65.4655   32.7043 H   0  0  0  0  0  0  0  0  0  0  0  0
   41.0556  -67.3109   32.2769 C   0  0  0  0  0  0  0  0  0  0  0  0
   41.1532  -66.7232   30.8909 C   0  0  0  0  0  0  0  0  0  0  0  0
   40.5044  -65.6728   30.5899 O   0  0  0  0  0  0  0  0  0  0  0  0
   41.9032  -67.2810   30.0589 O   0  0  0  0  0  0  0  0  0  0  0  0
   42.3742  -68.0549   30.2978 H   0  0  0  0  0  0  0  0  0  0  0  0
   40.3365  -68.6528   32.1341 C   0  0  0  0  0  0  0  0  0  0  0  0
   41.1359  -69.7315   31.4410 C   0  0  0  0  0  0  0  0  0  0  0  0
   42.5737  -69.8677   31.8459 C   0  0  0  0  0  0  0  0  0  0  0  0
   43.4543  -69.6904   31.0299 O   0  0  0  0  0  0  0  0  0  0  0  0
   42.9179  -70.2128   33.1777 N   0  0  0  0  0  0  0  0  0  0  0  0
   42.2106  -70.3586   33.8469 H   0  0  0  0  0  0  0  0  0  0  0  0
   43.8640  -70.3066   33.4331 H   0  0  0  0  0  0  0  0  0  0  0  0
  8  6  1  0  0  0
  8  9  1  0  0  0
  6  4  1  0  0  0
  6  7  1  0  0  0
  4  5  1  0  0  0
  4  3  1  0  0  0
 11 10  1  0  0  0
  9 10  1  0  0  0
 27 25  1  0  0  0
 10  3  1  0  0  0
 10  1  1  0  0  0
  3  2  1  0  0  0
 25 24  1  0  0  0
 25 26  2  0  0  0
 24 23  1  0  0  0
 20 19  2  0  0  0
 16  1  1  0  0  0
 16 18  1  0  0  0
 19 18  1  0  0  0
 19 21  1  0  0  0
 18 23  1  0  0  0
  2 12  1  0  0  0
  5 13  1  0  0  0
  7 14  1  0  0  0
 11 15  1  0  0  0
 16 17  1  0  0  0
 27 28  1  0  0  0
 27 29  1  0  0  0
 21 22  1  0  0  0
M  END
> <minimizedAffinity>
-7.58296

$$$$
