4I8W_G07_B_300


 43 46  0  0  0  0  0  0  0  0999 V2000
    9.7972   17.5656    0.8467 C   0  0  0  0  0  0  0  0  0  0  0  0
   10.1799   18.8650    1.1096 O   0  0  0  0  0  0  0  0  0  0  0  0
    9.6384   19.4742    0.5837 H   0  0  0  0  0  0  0  0  0  0  0  0
    8.3158   17.3602    1.3198 C   0  0  0  0  0  0  0  0  0  0  0  0
    7.5894   15.3248    3.2833 O   0  0  0  0  0  0  0  0  0  0  0  0
    7.6946   16.4973    3.5461 C   0  0  0  0  0  0  0  0  0  0  0  0
    8.2639   17.4438    2.7662 N   0  0  0  0  0  0  0  0  0  0  0  0
    8.6638   18.2302    3.2031 H   0  0  0  0  0  0  0  0  0  0  0  0
    8.1874   16.7358    4.8042 O   0  0  0  0  0  0  0  0  0  0  0  0
    8.5179   15.6448    5.7106 C   0  0  0  0  0  0  0  0  0  0  0  0
    7.8728   15.6630    7.1135 C   0  0  0  0  0  0  0  0  0  0  0  0
    6.5445   16.2718    7.3575 C   0  0  0  0  0  0  0  0  0  0  0  0
    6.8799   17.5167    8.1815 C   0  0  0  0  0  0  0  0  0  0  0  0
    8.3141   17.6408    8.1198 O   0  0  0  0  0  0  0  0  0  0  0  0
    8.8476   16.4143    7.8817 C   0  0  0  0  0  0  0  0  0  0  0  0
   10.0506   16.4761    7.1618 O   0  0  0  0  0  0  0  0  0  0  0  0
   10.0054   15.4563    6.1803 C   0  0  0  0  0  0  0  0  0  0  0  0
    7.4835   18.4766    0.7860 C   0  0  0  0  0  0  0  0  0  0  0  0
    6.0274   18.1518    1.0827 C   0  0  0  0  0  0  0  0  0  0  0  0
    5.4268   17.0858    0.4132 C   0  0  0  0  0  0  0  0  0  0  0  0
    4.0862   16.7653    0.6749 C   0  0  0  0  0  0  0  0  0  0  0  0
    3.3856   17.5080    1.5951 C   0  0  0  0  0  0  0  0  0  0  0  0
    3.9678   18.5598    2.2752 C   0  0  0  0  0  0  0  0  0  0  0  0
    5.2944   18.8999    2.0236 C   0  0  0  0  0  0  0  0  0  0  0  0
   10.1202   17.1402   -0.6056 C   0  0  0  0  0  0  0  0  0  0  0  0
   10.1894   15.6662   -0.5405 N   0  0  0  0  0  0  0  0  0  0  0  0
    8.9385   14.9451   -1.4164 S   0  0  0  0  0  0  0  0  0  0  0  0
    7.6370   15.4343   -1.0962 O   0  0  0  0  0  0  0  0  0  0  0  0
    8.8736   13.5326   -1.1562 O   0  0  0  0  0  0  0  0  0  0  0  0
    9.2288   15.2814   -3.1662 C   0  0  0  0  0  0  0  0  0  0  0  0
   10.0947   14.4653   -3.8565 C   0  0  0  0  0  0  0  0  0  0  0  0
   10.3455   14.7019   -5.2128 C   0  0  0  0  0  0  0  0  0  0  0  0
    8.5264   16.3755   -3.7073 C   0  0  0  0  0  0  0  0  0  0  0  0
    8.8043   16.6077   -5.0724 C   0  0  0  0  0  0  0  0  0  0  0  0
    9.6813   15.7827   -5.7992 C   0  0  0  0  0  0  0  0  0  0  0  0
    9.9119   16.0954   -7.1224 C   0  0  0  0  0  0  0  0  0  0  0  0
   11.1373   15.9301   -7.2911 O   0  0  0  0  0  0  0  0  0  0  0  0
    8.8537   16.3680   -7.7268 O   0  0  0  0  0  0  0  0  0  0  0  0
    8.0445   16.4150   -7.2568 H   0  0  0  0  0  0  0  0  0  0  0  0
   11.5082   15.1993   -0.9870 C   0  0  0  0  0  0  0  0  0  0  0  0
   12.1516   14.2355    0.0101 C   0  0  0  0  0  0  0  0  0  0  0  0
   13.5364   14.7280    0.2819 C   0  0  0  0  0  0  0  0  0  0  0  0
   12.2396   12.8639   -0.5856 C   0  0  0  0  0  0  0  0  0  0  0  0
 37 36  2  0  0  0
 38 36  1  0  0  0
 36 35  1  0  0  0
 35 34  2  0  0  0
 35 32  1  0  0  0
 34 33  1  0  0  0
 32 31  2  0  0  0
 33 30  2  0  0  0
 31 30  1  0  0  0
 30 27  1  0  0  0
 27 28  2  0  0  0
 27 29  2  0  0  0
 27 26  1  0  0  0
 40 26  1  0  0  0
 40 41  1  0  0  0
 26 25  1  0  0  0
 25  1  1  0  0  0
 42 41  1  0  0  0
 41 43  1  0  0  0
 18 19  1  0  0  0
 18  4  1  0  0  0
  1  2  1  0  0  0
  1  4  1  0  0  0
 20 19  2  0  0  0
 20 21  1  0  0  0
 19 24  1  0  0  0
  4  7  1  0  0  0
 21 22  2  0  0  0
 24 23  2  0  0  0
 22 23  1  0  0  0
  7  6  1  0  0  0
  5  6  2  0  0  0
  6  9  1  0  0  0
  9 10  1  0  0  0
 12 13  1  0  0  0
 12 11  1  0  0  0
 10 11  1  0  0  0
 10 17  1  0  0  0
 13 14  1  0  0  0
 11 15  1  0  0  0
 14 15  1  0  0  0
 17 16  1  0  0  0
 15 16  1  0  0  0
  7  8  1  0  0  0
  2  3  1  0  0  0
 38 39  1  0  0  0
M  END
> <minimizedAffinity>
-10.52629

$$$$
4I8W_G07_B_300


 43 46  0  0  0  0  0  0  0  0999 V2000
    7.3456   17.4656    1.2664 C   0  0  0  0  0  0  0  0  0  0  0  0
    7.9855   18.2057    0.2934 O   0  0  0  0  0  0  0  0  0  0  0  0
    8.8624   18.4703    0.6127 H   0  0  0  0  0  0  0  0  0  0  0  0
    8.1450   16.1385    1.5117 C   0  0  0  0  0  0  0  0  0  0  0  0
    7.9143   13.5730    0.1366 O   0  0  0  0  0  0  0  0  0  0  0  0
    8.7304   14.4132   -0.1519 C   0  0  0  0  0  0  0  0  0  0  0  0
    8.7328   15.7007    0.2609 N   0  0  0  0  0  0  0  0  0  0  0  0
    9.1556   16.3757   -0.3178 H   0  0  0  0  0  0  0  0  0  0  0  0
    9.0039   14.4744   -1.4950 O   0  0  0  0  0  0  0  0  0  0  0  0
   10.0817   15.3049   -2.0142 C   0  0  0  0  0  0  0  0  0  0  0  0
    9.9704   15.7849   -3.4777 C   0  0  0  0  0  0  0  0  0  0  0  0
    8.6603   16.0158   -4.1294 C   0  0  0  0  0  0  0  0  0  0  0  0
    8.5774   14.8811   -5.1526 C   0  0  0  0  0  0  0  0  0  0  0  0
    9.6720   13.9996   -4.8352 O   0  0  0  0  0  0  0  0  0  0  0  0
   10.6348   14.7134   -4.1956 C   0  0  0  0  0  0  0  0  0  0  0  0
   11.3709   13.9388   -3.2861 O   0  0  0  0  0  0  0  0  0  0  0  0
   11.5337   14.7124   -2.1111 C   0  0  0  0  0  0  0  0  0  0  0  0
    9.2697   16.4231    2.4487 C   0  0  0  0  0  0  0  0  0  0  0  0
    9.0206   15.6338    3.7249 C   0  0  0  0  0  0  0  0  0  0  0  0
    7.8238   14.9298    3.8569 C   0  0  0  0  0  0  0  0  0  0  0  0
    7.5751   14.1910    5.0234 C   0  0  0  0  0  0  0  0  0  0  0  0
    8.5224   14.1692    6.0190 C   0  0  0  0  0  0  0  0  0  0  0  0
    9.7176   14.8513    5.9003 C   0  0  0  0  0  0  0  0  0  0  0  0
    9.9801   15.5979    4.7547 C   0  0  0  0  0  0  0  0  0  0  0  0
    7.0106   18.3081    2.5204 C   0  0  0  0  0  0  0  0  0  0  0  0
    5.5491   18.1585    2.6730 N   0  0  0  0  0  0  0  0  0  0  0  0
    4.9728   19.0089    4.0133 S   0  0  0  0  0  0  0  0  0  0  0  0
    3.5556   18.9668    4.1729 O   0  0  0  0  0  0  0  0  0  0  0  0
    5.2891   20.4078    3.9122 O   0  0  0  0  0  0  0  0  0  0  0  0
    5.7068   18.2712    5.4886 C   0  0  0  0  0  0  0  0  0  0  0  0
    4.8693   17.7573    6.4514 C   0  0  0  0  0  0  0  0  0  0  0  0
    5.4059   17.1830    7.6092 C   0  0  0  0  0  0  0  0  0  0  0  0
    7.1140   18.2717    5.5418 C   0  0  0  0  0  0  0  0  0  0  0  0
    7.6362   17.7024    6.7241 C   0  0  0  0  0  0  0  0  0  0  0  0
    6.7992   17.1657    7.7187 C   0  0  0  0  0  0  0  0  0  0  0  0
    7.3933   16.6492    8.8509 C   0  0  0  0  0  0  0  0  0  0  0  0
    8.6193   16.6712    8.6186 O   0  0  0  0  0  0  0  0  0  0  0  0
    6.5553   16.3967    9.7416 O   0  0  0  0  0  0  0  0  0  0  0  0
    5.6403   16.4939    9.5651 H   0  0  0  0  0  0  0  0  0  0  0  0
    4.8656   18.5596    1.4366 C   0  0  0  0  0  0  0  0  0  0  0  0
    3.7687   17.5742    1.0332 C   0  0  0  0  0  0  0  0  0  0  0  0
    3.8699   16.3920    1.9422 C   0  0  0  0  0  0  0  0  0  0  0  0
    3.9850   17.1143   -0.3760 C   0  0  0  0  0  0  0  0  0  0  0  0
 37 36  2  0  0  0
 38 36  1  0  0  0
 36 35  1  0  0  0
 35 34  2  0  0  0
 35 32  1  0  0  0
 34 33  1  0  0  0
 32 31  2  0  0  0
 33 30  2  0  0  0
 31 30  1  0  0  0
 30 27  1  0  0  0
 27 28  2  0  0  0
 27 29  2  0  0  0
 27 26  1  0  0  0
 40 26  1  0  0  0
 40 41  1  0  0  0
 26 25  1  0  0  0
 25  1  1  0  0  0
 42 41  1  0  0  0
 41 43  1  0  0  0
 18 19  1  0  0  0
 18  4  1  0  0  0
  1  2  1  0  0  0
  1  4  1  0  0  0
 20 19  2  0  0  0
 20 21  1  0  0  0
 19 24  1  0  0  0
  4  7  1  0  0  0
 21 22  2  0  0  0
 24 23  2  0  0  0
 22 23  1  0  0  0
  7  6  1  0  0  0
  5  6  2  0  0  0
  6  9  1  0  0  0
  9 10  1  0  0  0
 12 13  1  0  0  0
 12 11  1  0  0  0
 10 11  1  0  0  0
 10 17  1  0  0  0
 13 14  1  0  0  0
 11 15  1  0  0  0
 14 15  1  0  0  0
 17 16  1  0  0  0
 15 16  1  0  0  0
  7  8  1  0  0  0
  2  3  1  0  0  0
 38 39  1  0  0  0
M  END
> <minimizedAffinity>
-10.21673

$$$$
4I8W_G07_B_300


 43 46  0  0  0  0  0  0  0  0999 V2000
   10.2908   17.3364   -0.0620 C   0  0  0  0  0  0  0  0  0  0  0  0
   11.2413   18.3035   -0.3180 O   0  0  0  0  0  0  0  0  0  0  0  0
   12.0600   18.0851    0.1542 H   0  0  0  0  0  0  0  0  0  0  0  0
   10.7831   15.9652   -0.6431 C   0  0  0  0  0  0  0  0  0  0  0  0
    9.0885   14.5843   -2.5788 O   0  0  0  0  0  0  0  0  0  0  0  0
   10.0968   15.1751   -2.8773 C   0  0  0  0  0  0  0  0  0  0  0  0
   10.7820   16.0358   -2.0911 N   0  0  0  0  0  0  0  0  0  0  0  0
   11.3071   16.7470   -2.5243 H   0  0  0  0  0  0  0  0  0  0  0  0
   10.0288   15.7943   -4.0998 O   0  0  0  0  0  0  0  0  0  0  0  0
    9.1243   15.3251   -5.1403 C   0  0  0  0  0  0  0  0  0  0  0  0
    9.7459   14.5874   -6.3462 C   0  0  0  0  0  0  0  0  0  0  0  0
   10.9906   13.7937   -6.2227 C   0  0  0  0  0  0  0  0  0  0  0  0
   12.0107   14.6250   -7.0034 C   0  0  0  0  0  0  0  0  0  0  0  0
   11.3557   15.8800   -7.2717 O   0  0  0  0  0  0  0  0  0  0  0  0
   10.0119   15.6810   -7.2616 C   0  0  0  0  0  0  0  0  0  0  0  0
    9.2984   16.8144   -6.8426 O   0  0  0  0  0  0  0  0  0  0  0  0
    8.2841   16.3695   -5.9601 C   0  0  0  0  0  0  0  0  0  0  0  0
   12.1946   15.7432   -0.2161 C   0  0  0  0  0  0  0  0  0  0  0  0
   12.6396   14.3975   -0.7682 C   0  0  0  0  0  0  0  0  0  0  0  0
   11.9106   13.2578   -0.4291 C   0  0  0  0  0  0  0  0  0  0  0  0
   12.3001   12.0068   -0.9308 C   0  0  0  0  0  0  0  0  0  0  0  0
   13.3959   11.9262   -1.7564 C   0  0  0  0  0  0  0  0  0  0  0  0
   14.1226   13.0459   -2.1114 C   0  0  0  0  0  0  0  0  0  0  0  0
   13.7582   14.2956   -1.6170 C   0  0  0  0  0  0  0  0  0  0  0  0
    9.8393   17.3335    1.4181 C   0  0  0  0  0  0  0  0  0  0  0  0
    8.5335   16.6435    1.3932 N   0  0  0  0  0  0  0  0  0  0  0  0
    8.5792   15.1934    2.2575 S   0  0  0  0  0  0  0  0  0  0  0  0
    9.7153   14.3766    1.9782 O   0  0  0  0  0  0  0  0  0  0  0  0
    7.4464   14.3670    1.9397 O   0  0  0  0  0  0  0  0  0  0  0  0
    8.6250   15.6032    4.0152 C   0  0  0  0  0  0  0  0  0  0  0  0
    9.8464   15.6513    4.6462 C   0  0  0  0  0  0  0  0  0  0  0  0
    9.9163   15.9610    6.0091 C   0  0  0  0  0  0  0  0  0  0  0  0
    7.3789   15.8544    4.6210 C   0  0  0  0  0  0  0  0  0  0  0  0
    7.4686   16.1498    5.9993 C   0  0  0  0  0  0  0  0  0  0  0  0
    8.7067   16.2102    6.6634 C   0  0  0  0  0  0  0  0  0  0  0  0
    8.7000   16.4839    8.0151 C   0  0  0  0  0  0  0  0  0  0  0  0
    8.2778   17.6544    8.1119 O   0  0  0  0  0  0  0  0  0  0  0  0
    9.0396   15.4911    8.6920 O   0  0  0  0  0  0  0  0  0  0  0  0
    9.3303   14.7097    8.2644 H   0  0  0  0  0  0  0  0  0  0  0  0
    7.4768   17.5380    1.8831 C   0  0  0  0  0  0  0  0  0  0  0  0
    6.5489   18.0090    0.7632 C   0  0  0  0  0  0  0  0  0  0  0  0
    5.5590   18.9525    1.3666 C   0  0  0  0  0  0  0  0  0  0  0  0
    5.8078   16.8421    0.1860 C   0  0  0  0  0  0  0  0  0  0  0  0
 37 36  2  0  0  0
 38 36  1  0  0  0
 36 35  1  0  0  0
 35 34  2  0  0  0
 35 32  1  0  0  0
 34 33  1  0  0  0
 32 31  2  0  0  0
 33 30  2  0  0  0
 31 30  1  0  0  0
 30 27  1  0  0  0
 27 28  2  0  0  0
 27 29  2  0  0  0
 27 26  1  0  0  0
 40 26  1  0  0  0
 40 41  1  0  0  0
 26 25  1  0  0  0
 25  1  1  0  0  0
 42 41  1  0  0  0
 41 43  1  0  0  0
 18 19  1  0  0  0
 18  4  1  0  0  0
  1  2  1  0  0  0
  1  4  1  0  0  0
 20 19  2  0  0  0
 20 21  1  0  0  0
 19 24  1  0  0  0
  4  7  1  0  0  0
 21 22  2  0  0  0
 24 23  2  0  0  0
 22 23  1  0  0  0
  7  6  1  0  0  0
  5  6  2  0  0  0
  6  9  1  0  0  0
  9 10  1  0  0  0
 12 13  1  0  0  0
 12 11  1  0  0  0
 10 11  1  0  0  0
 10 17  1  0  0  0
 13 14  1  0  0  0
 11 15  1  0  0  0
 14 15  1  0  0  0
 17 16  1  0  0  0
 15 16  1  0  0  0
  7  8  1  0  0  0
  2  3  1  0  0  0
 38 39  1  0  0  0
M  END
> <minimizedAffinity>
-10.08378

$$$$
4I8W_G07_B_300


 43 46  0  0  0  0  0  0  0  0999 V2000
    9.9998   16.5456    1.1815 C   0  0  0  0  0  0  0  0  0  0  0  0
   10.5945   16.9975    2.3418 O   0  0  0  0  0  0  0  0  0  0  0  0
   10.3500   17.9243    2.4906 H   0  0  0  0  0  0  0  0  0  0  0  0
    8.4416   16.5679    1.3602 C   0  0  0  0  0  0  0  0  0  0  0  0
    7.7332   14.5467    3.3447 O   0  0  0  0  0  0  0  0  0  0  0  0
    7.5963   15.7319    3.5220 C   0  0  0  0  0  0  0  0  0  0  0  0
    8.1276   16.7200    2.7673 N   0  0  0  0  0  0  0  0  0  0  0  0
    8.3106   17.5875    3.1954 H   0  0  0  0  0  0  0  0  0  0  0  0
    7.8183   16.1222    4.8185 O   0  0  0  0  0  0  0  0  0  0  0  0
    8.3456   15.1965    5.8114 C   0  0  0  0  0  0  0  0  0  0  0  0
    7.9948   15.4623    7.2916 C   0  0  0  0  0  0  0  0  0  0  0  0
    6.7305   16.1232    7.6909 C   0  0  0  0  0  0  0  0  0  0  0  0
    7.1995   17.4850    8.2075 C   0  0  0  0  0  0  0  0  0  0  0  0
    8.5893   17.5757    7.8387 O   0  0  0  0  0  0  0  0  0  0  0  0
    9.0886   16.3189    7.7095 C   0  0  0  0  0  0  0  0  0  0  0  0
   10.1213   16.2397    6.7626 O   0  0  0  0  0  0  0  0  0  0  0  0
    9.9006   15.0687    5.9975 C   0  0  0  0  0  0  0  0  0  0  0  0
    7.8961   17.7647    0.6574 C   0  0  0  0  0  0  0  0  0  0  0  0
    6.3783   17.6681    0.6876 C   0  0  0  0  0  0  0  0  0  0  0  0
    5.7564   16.6380   -0.0178 C   0  0  0  0  0  0  0  0  0  0  0  0
    4.3579   16.5268    0.0000 C   0  0  0  0  0  0  0  0  0  0  0  0
    3.6213   17.4364    0.7204 C   0  0  0  0  0  0  0  0  0  0  0  0
    4.2212   18.4558    1.4337 C   0  0  0  0  0  0  0  0  0  0  0  0
    5.6071   18.5893    1.4217 C   0  0  0  0  0  0  0  0  0  0  0  0
   10.5575   17.2508   -0.0780 C   0  0  0  0  0  0  0  0  0  0  0  0
   11.0529   16.1427   -0.9195 N   0  0  0  0  0  0  0  0  0  0  0  0
   12.1491   15.1677   -0.0830 S   0  0  0  0  0  0  0  0  0  0  0  0
   11.6101   14.5375    1.0781 O   0  0  0  0  0  0  0  0  0  0  0  0
   13.2612   15.9394    0.4014 O   0  0  0  0  0  0  0  0  0  0  0  0
   12.6907   13.8622   -1.2063 C   0  0  0  0  0  0  0  0  0  0  0  0
   12.1401   12.6090   -1.0701 C   0  0  0  0  0  0  0  0  0  0  0  0
   12.5420   11.5736   -1.9215 C   0  0  0  0  0  0  0  0  0  0  0  0
   13.6541   14.2347   -2.1635 C   0  0  0  0  0  0  0  0  0  0  0  0
   14.0582   13.1732   -3.0030 C   0  0  0  0  0  0  0  0  0  0  0  0
   13.5045   11.8858   -2.8856 C   0  0  0  0  0  0  0  0  0  0  0  0
   13.9733   10.9033   -3.7322 C   0  0  0  0  0  0  0  0  0  0  0  0
   15.1411   11.2413   -4.0142 O   0  0  0  0  0  0  0  0  0  0  0  0
   13.1389    9.9874   -3.8885 O   0  0  0  0  0  0  0  0  0  0  0  0
   12.2846   10.0626   -3.5111 H   0  0  0  0  0  0  0  0  0  0  0  0
    9.9259   15.3653   -1.4509 C   0  0  0  0  0  0  0  0  0  0  0  0
    9.8538   15.4154   -2.9771 C   0  0  0  0  0  0  0  0  0  0  0  0
    8.8449   16.4549   -3.3456 C   0  0  0  0  0  0  0  0  0  0  0  0
    9.3967   14.0933   -3.5130 C   0  0  0  0  0  0  0  0  0  0  0  0
 37 36  2  0  0  0
 38 36  1  0  0  0
 36 35  1  0  0  0
 35 34  2  0  0  0
 35 32  1  0  0  0
 34 33  1  0  0  0
 32 31  2  0  0  0
 33 30  2  0  0  0
 31 30  1  0  0  0
 30 27  1  0  0  0
 27 28  2  0  0  0
 27 29  2  0  0  0
 27 26  1  0  0  0
 40 26  1  0  0  0
 40 41  1  0  0  0
 26 25  1  0  0  0
 25  1  1  0  0  0
 42 41  1  0  0  0
 41 43  1  0  0  0
 18 19  1  0  0  0
 18  4  1  0  0  0
  1  2  1  0  0  0
  1  4  1  0  0  0
 20 19  2  0  0  0
 20 21  1  0  0  0
 19 24  1  0  0  0
  4  7  1  0  0  0
 21 22  2  0  0  0
 24 23  2  0  0  0
 22 23  1  0  0  0
  7  6  1  0  0  0
  5  6  2  0  0  0
  6  9  1  0  0  0
  9 10  1  0  0  0
 12 13  1  0  0  0
 12 11  1  0  0  0
 10 11  1  0  0  0
 10 17  1  0  0  0
 13 14  1  0  0  0
 11 15  1  0  0  0
 14 15  1  0  0  0
 17 16  1  0  0  0
 15 16  1  0  0  0
  7  8  1  0  0  0
  2  3  1  0  0  0
 38 39  1  0  0  0
M  END
> <minimizedAffinity>
-10.06211

$$$$
4I8W_G07_B_300


 43 46  0  0  0  0  0  0  0  0999 V2000
   10.0535   17.5034    0.9205 C   0  0  0  0  0  0  0  0  0  0  0  0
   10.3067   18.8325    0.6495 O   0  0  0  0  0  0  0  0  0  0  0  0
    9.7850   19.1108   -0.1195 H   0  0  0  0  0  0  0  0  0  0  0  0
    8.5472   17.3393    1.3261 C   0  0  0  0  0  0  0  0  0  0  0  0
    7.3111   15.7199    3.4179 O   0  0  0  0  0  0  0  0  0  0  0  0
    7.6141   16.8784    3.5631 C   0  0  0  0  0  0  0  0  0  0  0  0
    8.4060   17.6066    2.7440 N   0  0  0  0  0  0  0  0  0  0  0  0
    8.9127   18.3571    3.1303 H   0  0  0  0  0  0  0  0  0  0  0  0
    8.0493   17.1775    4.8294 O   0  0  0  0  0  0  0  0  0  0  0  0
    7.2802   18.0427    5.7130 C   0  0  0  0  0  0  0  0  0  0  0  0
    7.2512   17.6839    7.2147 C   0  0  0  0  0  0  0  0  0  0  0  0
    8.3816   16.9928    7.8773 C   0  0  0  0  0  0  0  0  0  0  0  0
    7.8122   15.6041    8.1752 C   0  0  0  0  0  0  0  0  0  0  0  0
    6.5604   15.5439    7.4644 O   0  0  0  0  0  0  0  0  0  0  0  0
    6.0965   16.8090    7.2913 C   0  0  0  0  0  0  0  0  0  0  0  0
    5.3336   16.9522    6.1222 O   0  0  0  0  0  0  0  0  0  0  0  0
    5.7270   18.1671    5.5102 C   0  0  0  0  0  0  0  0  0  0  0  0
    7.7423   18.3662    0.6040 C   0  0  0  0  0  0  0  0  0  0  0  0
    6.2793   17.9612    0.7020 C   0  0  0  0  0  0  0  0  0  0  0  0
    5.8477   16.8291    0.0111 C   0  0  0  0  0  0  0  0  0  0  0  0
    4.5037   16.4343    0.0911 C   0  0  0  0  0  0  0  0  0  0  0  0
    3.6322   17.1709    0.8573 C   0  0  0  0  0  0  0  0  0  0  0  0
    4.0449   18.2880    1.5569 C   0  0  0  0  0  0  0  0  0  0  0  0
    5.3723   18.7020    1.4836 C   0  0  0  0  0  0  0  0  0  0  0  0
   10.5703   16.5668   -0.1978 C   0  0  0  0  0  0  0  0  0  0  0  0
   10.4805   15.2170    0.3951 N   0  0  0  0  0  0  0  0  0  0  0  0
    9.6752   14.1405   -0.6270 S   0  0  0  0  0  0  0  0  0  0  0  0
    8.3171   13.8913   -0.2678 O   0  0  0  0  0  0  0  0  0  0  0  0
   10.3020   12.8468   -0.6113 O   0  0  0  0  0  0  0  0  0  0  0  0
    9.6753   14.8540   -2.2854 C   0  0  0  0  0  0  0  0  0  0  0  0
    8.6849   15.7503   -2.6143 C   0  0  0  0  0  0  0  0  0  0  0  0
    8.6535   16.3177   -3.8931 C   0  0  0  0  0  0  0  0  0  0  0  0
   10.7165   14.4343   -3.1357 C   0  0  0  0  0  0  0  0  0  0  0  0
   10.6588   15.0056   -4.4261 C   0  0  0  0  0  0  0  0  0  0  0  0
    9.6591   15.9285   -4.7822 C   0  0  0  0  0  0  0  0  0  0  0  0
    9.6656   16.4200   -6.0707 C   0  0  0  0  0  0  0  0  0  0  0  0
    8.4899   16.7740   -6.2939 O   0  0  0  0  0  0  0  0  0  0  0  0
   10.8133   16.4190   -6.5627 O   0  0  0  0  0  0  0  0  0  0  0  0
   11.5263   16.0395   -6.0878 H   0  0  0  0  0  0  0  0  0  0  0  0
   11.8184   14.7304    0.7556 C   0  0  0  0  0  0  0  0  0  0  0  0
   12.8874   15.1774   -0.2416 C   0  0  0  0  0  0  0  0  0  0  0  0
   13.4816   13.9460   -0.8457 C   0  0  0  0  0  0  0  0  0  0  0  0
   13.9690   15.9317    0.4692 C   0  0  0  0  0  0  0  0  0  0  0  0
 37 36  2  0  0  0
 38 36  1  0  0  0
 36 35  1  0  0  0
 35 34  2  0  0  0
 35 32  1  0  0  0
 34 33  1  0  0  0
 32 31  2  0  0  0
 33 30  2  0  0  0
 31 30  1  0  0  0
 30 27  1  0  0  0
 27 28  2  0  0  0
 27 29  2  0  0  0
 27 26  1  0  0  0
 40 26  1  0  0  0
 40 41  1  0  0  0
 26 25  1  0  0  0
 25  1  1  0  0  0
 42 41  1  0  0  0
 41 43  1  0  0  0
 18 19  1  0  0  0
 18  4  1  0  0  0
  1  2  1  0  0  0
  1  4  1  0  0  0
 20 19  2  0  0  0
 20 21  1  0  0  0
 19 24  1  0  0  0
  4  7  1  0  0  0
 21 22  2  0  0  0
 24 23  2  0  0  0
 22 23  1  0  0  0
  7  6  1  0  0  0
  5  6  2  0  0  0
  6  9  1  0  0  0
  9 10  1  0  0  0
 12 13  1  0  0  0
 12 11  1  0  0  0
 10 11  1  0  0  0
 10 17  1  0  0  0
 13 14  1  0  0  0
 11 15  1  0  0  0
 14 15  1  0  0  0
 17 16  1  0  0  0
 15 16  1  0  0  0
  7  8  1  0  0  0
  2  3  1  0  0  0
 38 39  1  0  0  0
M  END
> <minimizedAffinity>
-9.78849

$$$$
4I8W_G07_B_300


 43 46  0  0  0  0  0  0  0  0999 V2000
    9.8131   15.4663    0.7061 C   0  0  0  0  0  0  0  0  0  0  0  0
   10.7759   16.0750    1.4850 O   0  0  0  0  0  0  0  0  0  0  0  0
   11.2453   15.4027    2.0032 H   0  0  0  0  0  0  0  0  0  0  0  0
   10.5133   14.5197   -0.3302 C   0  0  0  0  0  0  0  0  0  0  0  0
   10.6726   17.2118   -1.4494 O   0  0  0  0  0  0  0  0  0  0  0  0
   10.1176   16.2929   -1.9994 C   0  0  0  0  0  0  0  0  0  0  0  0
   10.2200   14.9851   -1.6715 N   0  0  0  0  0  0  0  0  0  0  0  0
   10.0885   14.3144   -2.3801 H   0  0  0  0  0  0  0  0  0  0  0  0
   10.2308   16.3221   -3.3664 O   0  0  0  0  0  0  0  0  0  0  0  0
    9.3487   15.5375   -4.2192 C   0  0  0  0  0  0  0  0  0  0  0  0
   10.0026   14.6789   -5.3236 C   0  0  0  0  0  0  0  0  0  0  0  0
   11.3620   14.1101   -5.1723 C   0  0  0  0  0  0  0  0  0  0  0  0
   12.1880   14.9135   -6.1790 C   0  0  0  0  0  0  0  0  0  0  0  0
   11.3282   15.9868   -6.6086 O   0  0  0  0  0  0  0  0  0  0  0  0
   10.0358   15.6032   -6.4414 C   0  0  0  0  0  0  0  0  0  0  0  0
    9.1800   16.6819   -6.1706 O   0  0  0  0  0  0  0  0  0  0  0  0
    8.3051   16.2741   -5.1343 C   0  0  0  0  0  0  0  0  0  0  0  0
   11.9900   14.6165   -0.1457 C   0  0  0  0  0  0  0  0  0  0  0  0
   12.6441   13.6671   -1.1380 C   0  0  0  0  0  0  0  0  0  0  0  0
   13.6375   14.1594   -1.9843 C   0  0  0  0  0  0  0  0  0  0  0  0
   14.2579   13.3005   -2.9040 C   0  0  0  0  0  0  0  0  0  0  0  0
   13.8778   11.9806   -2.9518 C   0  0  0  0  0  0  0  0  0  0  0  0
   12.9039   11.4737   -2.1136 C   0  0  0  0  0  0  0  0  0  0  0  0
   12.2695   12.3114   -1.2000 C   0  0  0  0  0  0  0  0  0  0  0  0
    8.6809   14.8394    1.5545 C   0  0  0  0  0  0  0  0  0  0  0  0
    8.0198   16.0004    2.1842 N   0  0  0  0  0  0  0  0  0  0  0  0
    6.8770   16.6993    1.1559 S   0  0  0  0  0  0  0  0  0  0  0  0
    6.3655   15.8176    0.1576 O   0  0  0  0  0  0  0  0  0  0  0  0
    7.4464   17.7954    0.4201 O   0  0  0  0  0  0  0  0  0  0  0  0
    5.4833   17.2378    2.1693 C   0  0  0  0  0  0  0  0  0  0  0  0
    5.6788   18.2676    3.0601 C   0  0  0  0  0  0  0  0  0  0  0  0
    4.6205   18.7056    3.8641 C   0  0  0  0  0  0  0  0  0  0  0  0
    4.2711   16.5514    1.9630 C   0  0  0  0  0  0  0  0  0  0  0  0
    3.2196   16.9969    2.7940 C   0  0  0  0  0  0  0  0  0  0  0  0
    3.3952   18.0518    3.7074 C   0  0  0  0  0  0  0  0  0  0  0  0
    2.3205   18.4075    4.4950 C   0  0  0  0  0  0  0  0  0  0  0  0
    1.3292   17.8677    3.9626 O   0  0  0  0  0  0  0  0  0  0  0  0
    2.6740   19.0737    5.4903 O   0  0  0  0  0  0  0  0  0  0  0  0
    3.5689   19.3345    5.5857 H   0  0  0  0  0  0  0  0  0  0  0  0
    7.4304   15.6125    3.4721 C   0  0  0  0  0  0  0  0  0  0  0  0
    8.4178   14.8520    4.3574 C   0  0  0  0  0  0  0  0  0  0  0  0
    7.6293   14.1758    5.4323 C   0  0  0  0  0  0  0  0  0  0  0  0
    9.3763   15.8092    4.9970 C   0  0  0  0  0  0  0  0  0  0  0  0
 37 36  2  0  0  0
 38 36  1  0  0  0
 36 35  1  0  0  0
 35 34  2  0  0  0
 35 32  1  0  0  0
 34 33  1  0  0  0
 32 31  2  0  0  0
 33 30  2  0  0  0
 31 30  1  0  0  0
 30 27  1  0  0  0
 27 28  2  0  0  0
 27 29  2  0  0  0
 27 26  1  0  0  0
 40 26  1  0  0  0
 40 41  1  0  0  0
 26 25  1  0  0  0
 25  1  1  0  0  0
 42 41  1  0  0  0
 41 43  1  0  0  0
 18 19  1  0  0  0
 18  4  1  0  0  0
  1  2  1  0  0  0
  1  4  1  0  0  0
 20 19  2  0  0  0
 20 21  1  0  0  0
 19 24  1  0  0  0
  4  7  1  0  0  0
 21 22  2  0  0  0
 24 23  2  0  0  0
 22 23  1  0  0  0
  7  6  1  0  0  0
  5  6  2  0  0  0
  6  9  1  0  0  0
  9 10  1  0  0  0
 12 13  1  0  0  0
 12 11  1  0  0  0
 10 11  1  0  0  0
 10 17  1  0  0  0
 13 14  1  0  0  0
 11 15  1  0  0  0
 14 15  1  0  0  0
 17 16  1  0  0  0
 15 16  1  0  0  0
  7  8  1  0  0  0
  2  3  1  0  0  0
 38 39  1  0  0  0
M  END
> <minimizedAffinity>
-9.58088

$$$$
4I8W_G07_B_300


 43 46  0  0  0  0  0  0  0  0999 V2000
    8.1935   15.1489    0.6629 C   0  0  0  0  0  0  0  0  0  0  0  0
    8.2513   13.7852    0.8656 O   0  0  0  0  0  0  0  0  0  0  0  0
    8.4694   13.6053    1.7935 H   0  0  0  0  0  0  0  0  0  0  0  0
    7.0205   15.7462    1.5158 C   0  0  0  0  0  0  0  0  0  0  0  0
    7.5248   14.2803    3.9902 O   0  0  0  0  0  0  0  0  0  0  0  0
    7.5195   15.4844    3.9178 C   0  0  0  0  0  0  0  0  0  0  0  0
    7.5467   16.2173    2.7819 N   0  0  0  0  0  0  0  0  0  0  0  0
    7.9443   17.1173    2.8164 H   0  0  0  0  0  0  0  0  0  0  0  0
    8.4304   16.0882    4.7473 O   0  0  0  0  0  0  0  0  0  0  0  0
    8.8720   15.4538    5.9816 C   0  0  0  0  0  0  0  0  0  0  0  0
    8.0032   15.6626    7.2411 C   0  0  0  0  0  0  0  0  0  0  0  0
    6.5390   15.8710    7.1575 C   0  0  0  0  0  0  0  0  0  0  0  0
    6.3737   17.3367    7.5645 C   0  0  0  0  0  0  0  0  0  0  0  0
    7.7087   17.8779    7.5941 O   0  0  0  0  0  0  0  0  0  0  0  0
    8.5854   16.8631    7.8109 C   0  0  0  0  0  0  0  0  0  0  0  0
    9.8373   17.0916    7.2194 O   0  0  0  0  0  0  0  0  0  0  0  0
   10.2454   15.8764    6.6173 C   0  0  0  0  0  0  0  0  0  0  0  0
    6.4659   16.9328    0.8028 C   0  0  0  0  0  0  0  0  0  0  0  0
    5.3435   17.5034    1.6563 C   0  0  0  0  0  0  0  0  0  0  0  0
    4.2502   16.6919    1.9588 C   0  0  0  0  0  0  0  0  0  0  0  0
    3.2058   17.1960    2.7485 C   0  0  0  0  0  0  0  0  0  0  0  0
    3.2809   18.4858    3.2173 C   0  0  0  0  0  0  0  0  0  0  0  0
    4.3612   19.2995    2.9368 C   0  0  0  0  0  0  0  0  0  0  0  0
    5.4039   18.8216    2.1473 C   0  0  0  0  0  0  0  0  0  0  0  0
    9.5754   15.8262    0.8248 C   0  0  0  0  0  0  0  0  0  0  0  0
   10.3000   15.4623   -0.4098 N   0  0  0  0  0  0  0  0  0  0  0  0
    9.9543   16.5296   -1.6721 S   0  0  0  0  0  0  0  0  0  0  0  0
   10.8342   17.6498   -1.7539 O   0  0  0  0  0  0  0  0  0  0  0  0
    8.6445   17.1024   -1.5198 O   0  0  0  0  0  0  0  0  0  0  0  0
   10.0980   15.6130   -3.2208 C   0  0  0  0  0  0  0  0  0  0  0  0
   11.3507   15.4199   -3.7553 C   0  0  0  0  0  0  0  0  0  0  0  0
   11.4963   14.7181   -4.9572 C   0  0  0  0  0  0  0  0  0  0  0  0
    8.8897   15.1487   -3.7753 C   0  0  0  0  0  0  0  0  0  0  0  0
    9.0556   14.4566   -4.9953 C   0  0  0  0  0  0  0  0  0  0  0  0
   10.3270   14.2424   -5.5569 C   0  0  0  0  0  0  0  0  0  0  0  0
   10.3948   13.5756   -6.7622 C   0  0  0  0  0  0  0  0  0  0  0  0
   10.3403   14.4663   -7.6347 O   0  0  0  0  0  0  0  0  0  0  0  0
   10.5520   12.3468   -6.6054 O   0  0  0  0  0  0  0  0  0  0  0  0
   10.5353   11.9785   -5.7439 H   0  0  0  0  0  0  0  0  0  0  0  0
   11.7422   15.3773   -0.1462 C   0  0  0  0  0  0  0  0  0  0  0  0
   12.2336   13.9321   -0.0640 C   0  0  0  0  0  0  0  0  0  0  0  0
   13.5832   13.8790   -0.7043 C   0  0  0  0  0  0  0  0  0  0  0  0
   11.3080   13.0312   -0.8228 C   0  0  0  0  0  0  0  0  0  0  0  0
 37 36  2  0  0  0
 38 36  1  0  0  0
 36 35  1  0  0  0
 35 34  2  0  0  0
 35 32  1  0  0  0
 34 33  1  0  0  0
 32 31  2  0  0  0
 33 30  2  0  0  0
 31 30  1  0  0  0
 30 27  1  0  0  0
 27 28  2  0  0  0
 27 29  2  0  0  0
 27 26  1  0  0  0
 40 26  1  0  0  0
 40 41  1  0  0  0
 26 25  1  0  0  0
 25  1  1  0  0  0
 42 41  1  0  0  0
 41 43  1  0  0  0
 18 19  1  0  0  0
 18  4  1  0  0  0
  1  2  1  0  0  0
  1  4  1  0  0  0
 20 19  2  0  0  0
 20 21  1  0  0  0
 19 24  1  0  0  0
  4  7  1  0  0  0
 21 22  2  0  0  0
 24 23  2  0  0  0
 22 23  1  0  0  0
  7  6  1  0  0  0
  5  6  2  0  0  0
  6  9  1  0  0  0
  9 10  1  0  0  0
 12 13  1  0  0  0
 12 11  1  0  0  0
 10 11  1  0  0  0
 10 17  1  0  0  0
 13 14  1  0  0  0
 11 15  1  0  0  0
 14 15  1  0  0  0
 17 16  1  0  0  0
 15 16  1  0  0  0
  7  8  1  0  0  0
  2  3  1  0  0  0
 38 39  1  0  0  0
M  END
> <minimizedAffinity>
-9.55405

$$$$
4I8W_G07_B_300


 43 46  0  0  0  0  0  0  0  0999 V2000
    8.2164   16.6073   -0.8959 C   0  0  0  0  0  0  0  0  0  0  0  0
    8.7468   17.7301   -0.2941 O   0  0  0  0  0  0  0  0  0  0  0  0
    9.0406   17.5077    0.6032 H   0  0  0  0  0  0  0  0  0  0  0  0
    9.3438   15.5285   -1.0554 C   0  0  0  0  0  0  0  0  0  0  0  0
    9.0336   13.7247   -3.3305 O   0  0  0  0  0  0  0  0  0  0  0  0
    9.8621   14.6000   -3.2817 C   0  0  0  0  0  0  0  0  0  0  0  0
    9.8995   15.6170   -2.3915 N   0  0  0  0  0  0  0  0  0  0  0  0
   10.3261   16.4612   -2.6647 H   0  0  0  0  0  0  0  0  0  0  0  0
   10.1127   15.1869   -4.4962 O   0  0  0  0  0  0  0  0  0  0  0  0
    9.2083   15.0151   -5.6247 C   0  0  0  0  0  0  0  0  0  0  0  0
    9.7839   14.3814   -6.9099 C   0  0  0  0  0  0  0  0  0  0  0  0
   10.8967   13.4043   -6.8715 C   0  0  0  0  0  0  0  0  0  0  0  0
   12.0634   14.1837   -7.4819 C   0  0  0  0  0  0  0  0  0  0  0  0
   11.6061   15.5469   -7.5734 O   0  0  0  0  0  0  0  0  0  0  0  0
   10.2491   15.5478   -7.6365 C   0  0  0  0  0  0  0  0  0  0  0  0
    9.6800   16.6987   -7.0700 O   0  0  0  0  0  0  0  0  0  0  0  0
    8.5677   16.2814   -6.2993 C   0  0  0  0  0  0  0  0  0  0  0  0
   10.4455   15.8424   -0.1007 C   0  0  0  0  0  0  0  0  0  0  0  0
   11.4690   14.7205   -0.1891 C   0  0  0  0  0  0  0  0  0  0  0  0
   12.8245   15.0481   -0.2148 C   0  0  0  0  0  0  0  0  0  0  0  0
   13.7860   14.0293   -0.2912 C   0  0  0  0  0  0  0  0  0  0  0  0
   13.3737   12.7188   -0.3342 C   0  0  0  0  0  0  0  0  0  0  0  0
   12.0362   12.3761   -0.2984 C   0  0  0  0  0  0  0  0  0  0  0  0
   11.0657   13.3723   -0.2318 C   0  0  0  0  0  0  0  0  0  0  0  0
    6.9077   16.1388   -0.2160 C   0  0  0  0  0  0  0  0  0  0  0  0
    6.8520   16.9240    1.0338 N   0  0  0  0  0  0  0  0  0  0  0  0
    5.6179   18.0760    0.9907 S   0  0  0  0  0  0  0  0  0  0  0  0
    4.5208   17.7327    0.1456 O   0  0  0  0  0  0  0  0  0  0  0  0
    6.0991   19.3292    0.4761 O   0  0  0  0  0  0  0  0  0  0  0  0
    4.9749   18.2545    2.6683 C   0  0  0  0  0  0  0  0  0  0  0  0
    5.7644   18.8701    3.6117 C   0  0  0  0  0  0  0  0  0  0  0  0
    5.2978   19.0198    4.9225 C   0  0  0  0  0  0  0  0  0  0  0  0
    3.6812   17.7438    2.8889 C   0  0  0  0  0  0  0  0  0  0  0  0
    3.2341   17.8902    4.2206 C   0  0  0  0  0  0  0  0  0  0  0  0
    4.0218   18.5214    5.1999 C   0  0  0  0  0  0  0  0  0  0  0  0
    3.5159   18.6017    6.4803 C   0  0  0  0  0  0  0  0  0  0  0  0
    4.4665   18.2976    7.2295 O   0  0  0  0  0  0  0  0  0  0  0  0
    2.3336   19.0034    6.4886 O   0  0  0  0  0  0  0  0  0  0  0  0
    1.8787   19.1377    5.6804 H   0  0  0  0  0  0  0  0  0  0  0  0
    6.7231   16.0288    2.1908 C   0  0  0  0  0  0  0  0  0  0  0  0
    8.0778   15.6692    2.8010 C   0  0  0  0  0  0  0  0  0  0  0  0
    7.8158   14.9271    4.0718 C   0  0  0  0  0  0  0  0  0  0  0  0
    8.8426   16.9162    3.1238 C   0  0  0  0  0  0  0  0  0  0  0  0
 37 36  2  0  0  0
 38 36  1  0  0  0
 36 35  1  0  0  0
 35 34  2  0  0  0
 35 32  1  0  0  0
 34 33  1  0  0  0
 32 31  2  0  0  0
 33 30  2  0  0  0
 31 30  1  0  0  0
 30 27  1  0  0  0
 27 28  2  0  0  0
 27 29  2  0  0  0
 27 26  1  0  0  0
 40 26  1  0  0  0
 40 41  1  0  0  0
 26 25  1  0  0  0
 25  1  1  0  0  0
 42 41  1  0  0  0
 41 43  1  0  0  0
 18 19  1  0  0  0
 18  4  1  0  0  0
  1  2  1  0  0  0
  1  4  1  0  0  0
 20 19  2  0  0  0
 20 21  1  0  0  0
 19 24  1  0  0  0
  4  7  1  0  0  0
 21 22  2  0  0  0
 24 23  2  0  0  0
 22 23  1  0  0  0
  7  6  1  0  0  0
  5  6  2  0  0  0
  6  9  1  0  0  0
  9 10  1  0  0  0
 12 13  1  0  0  0
 12 11  1  0  0  0
 10 11  1  0  0  0
 10 17  1  0  0  0
 13 14  1  0  0  0
 11 15  1  0  0  0
 14 15  1  0  0  0
 17 16  1  0  0  0
 15 16  1  0  0  0
  7  8  1  0  0  0
  2  3  1  0  0  0
 38 39  1  0  0  0
M  END
> <minimizedAffinity>
-9.50223

$$$$
4I8W_G07_B_300


 43 46  0  0  0  0  0  0  0  0999 V2000
    8.1277   16.4955    3.1792 C   0  0  0  0  0  0  0  0  0  0  0  0
    8.6531   17.7715    3.1746 O   0  0  0  0  0  0  0  0  0  0  0  0
    8.0816   18.3546    2.6510 H   0  0  0  0  0  0  0  0  0  0  0  0
    6.7361   16.5152    3.9025 C   0  0  0  0  0  0  0  0  0  0  0  0
    8.2976   14.1441    4.5846 O   0  0  0  0  0  0  0  0  0  0  0  0
    7.4272   14.5942    5.2879 C   0  0  0  0  0  0  0  0  0  0  0  0
    6.8472   15.8093    5.1639 N   0  0  0  0  0  0  0  0  0  0  0  0
    6.4814   16.2368    5.9719 H   0  0  0  0  0  0  0  0  0  0  0  0
    7.6821   14.4620    6.6296 O   0  0  0  0  0  0  0  0  0  0  0  0
    8.9139   14.9642    7.2224 C   0  0  0  0  0  0  0  0  0  0  0  0
    8.7911   16.0716    8.2916 C   0  0  0  0  0  0  0  0  0  0  0  0
    7.6058   16.1815    9.1735 C   0  0  0  0  0  0  0  0  0  0  0  0
    6.9200   17.4554    8.6752 C   0  0  0  0  0  0  0  0  0  0  0  0
    7.5978   17.8006    7.4515 O   0  0  0  0  0  0  0  0  0  0  0  0
    8.8502   17.2755    7.4841 C   0  0  0  0  0  0  0  0  0  0  0  0
    9.3355   16.9492    6.2085 O   0  0  0  0  0  0  0  0  0  0  0  0
    9.9698   15.6871    6.3105 C   0  0  0  0  0  0  0  0  0  0  0  0
    6.3817   17.9284    4.2207 C   0  0  0  0  0  0  0  0  0  0  0  0
    4.8854   17.9816    4.4896 C   0  0  0  0  0  0  0  0  0  0  0  0
    4.4421   18.4211    5.7368 C   0  0  0  0  0  0  0  0  0  0  0  0
    3.0664   18.4829    6.0051 C   0  0  0  0  0  0  0  0  0  0  0  0
    2.1744   18.1123    5.0273 C   0  0  0  0  0  0  0  0  0  0  0  0
    2.5956   17.6853    3.7831 C   0  0  0  0  0  0  0  0  0  0  0  0
    3.9567   17.6081    3.4996 C   0  0  0  0  0  0  0  0  0  0  0  0
    8.1651   15.8396    1.7781 C   0  0  0  0  0  0  0  0  0  0  0  0
    8.5058   16.9534    0.8698 N   0  0  0  0  0  0  0  0  0  0  0  0
    9.9844   16.6954    0.0957 S   0  0  0  0  0  0  0  0  0  0  0  0
   10.8456   15.7738    0.7627 O   0  0  0  0  0  0  0  0  0  0  0  0
   10.7437   17.9134    0.0138 O   0  0  0  0  0  0  0  0  0  0  0  0
    9.6360   16.0231   -1.5432 C   0  0  0  0  0  0  0  0  0  0  0  0
    9.4985   16.8980   -2.5958 C   0  0  0  0  0  0  0  0  0  0  0  0
    9.2232   16.4097   -3.8780 C   0  0  0  0  0  0  0  0  0  0  0  0
    9.5346   14.6208   -1.6242 C   0  0  0  0  0  0  0  0  0  0  0  0
    9.2413   14.1483   -2.9224 C   0  0  0  0  0  0  0  0  0  0  0  0
    9.1025   15.0239   -4.0141 C   0  0  0  0  0  0  0  0  0  0  0  0
    8.7942   14.4782   -5.2425 C   0  0  0  0  0  0  0  0  0  0  0  0
    8.6563   15.4523   -6.0104 O   0  0  0  0  0  0  0  0  0  0  0  0
    8.8168   13.2299   -5.2154 O   0  0  0  0  0  0  0  0  0  0  0  0
    8.9539   12.7813   -4.4043 H   0  0  0  0  0  0  0  0  0  0  0  0
    7.4180   17.1761   -0.0913 C   0  0  0  0  0  0  0  0  0  0  0  0
    6.0966   17.5201    0.5962 C   0  0  0  0  0  0  0  0  0  0  0  0
    5.0002   16.8752   -0.1888 C   0  0  0  0  0  0  0  0  0  0  0  0
    5.8839   19.0029    0.5866 C   0  0  0  0  0  0  0  0  0  0  0  0
 37 36  2  0  0  0
 38 36  1  0  0  0
 36 35  1  0  0  0
 35 34  2  0  0  0
 35 32  1  0  0  0
 34 33  1  0  0  0
 32 31  2  0  0  0
 33 30  2  0  0  0
 31 30  1  0  0  0
 30 27  1  0  0  0
 27 28  2  0  0  0
 27 29  2  0  0  0
 27 26  1  0  0  0
 40 26  1  0  0  0
 40 41  1  0  0  0
 26 25  1  0  0  0
 25  1  1  0  0  0
 42 41  1  0  0  0
 41 43  1  0  0  0
 18 19  1  0  0  0
 18  4  1  0  0  0
  1  2  1  0  0  0
  1  4  1  0  0  0
 20 19  2  0  0  0
 20 21  1  0  0  0
 19 24  1  0  0  0
  4  7  1  0  0  0
 21 22  2  0  0  0
 24 23  2  0  0  0
 22 23  1  0  0  0
  7  6  1  0  0  0
  5  6  2  0  0  0
  6  9  1  0  0  0
  9 10  1  0  0  0
 12 13  1  0  0  0
 12 11  1  0  0  0
 10 11  1  0  0  0
 10 17  1  0  0  0
 13 14  1  0  0  0
 11 15  1  0  0  0
 14 15  1  0  0  0
 17 16  1  0  0  0
 15 16  1  0  0  0
  7  8  1  0  0  0
  2  3  1  0  0  0
 38 39  1  0  0  0
M  END
> <minimizedAffinity>
-9.37121

$$$$
4I8W_G07_B_300


 43 46  0  0  0  0  0  0  0  0999 V2000
   10.5914   16.9088   -0.3008 C   0  0  0  0  0  0  0  0  0  0  0  0
   10.9389   18.2435   -0.2586 O   0  0  0  0  0  0  0  0  0  0  0  0
   10.3514   18.7492   -0.8418 H   0  0  0  0  0  0  0  0  0  0  0  0
    9.1426   16.7363    0.2750 C   0  0  0  0  0  0  0  0  0  0  0  0
    8.2078   14.5029    1.9070 O   0  0  0  0  0  0  0  0  0  0  0  0
    8.5505   15.5652    2.3642 C   0  0  0  0  0  0  0  0  0  0  0  0
    9.2224   16.5385    1.7089 N   0  0  0  0  0  0  0  0  0  0  0  0
    9.7955   17.1441    2.2325 H   0  0  0  0  0  0  0  0  0  0  0  0
    9.1777   15.4630    3.5802 O   0  0  0  0  0  0  0  0  0  0  0  0
    8.5064   14.8835    4.7354 C   0  0  0  0  0  0  0  0  0  0  0  0
    7.3962   15.7195    5.4087 C   0  0  0  0  0  0  0  0  0  0  0  0
    6.5667   16.6804    4.6452 C   0  0  0  0  0  0  0  0  0  0  0  0
    7.0396   18.0384    5.1681 C   0  0  0  0  0  0  0  0  0  0  0  0
    8.2139   17.7573    5.9541 O   0  0  0  0  0  0  0  0  0  0  0  0
    8.1461   16.4742    6.3951 C   0  0  0  0  0  0  0  0  0  0  0  0
    9.4109   15.8883    6.5571 O   0  0  0  0  0  0  0  0  0  0  0  0
    9.3352   14.5744    6.0341 C   0  0  0  0  0  0  0  0  0  0  0  0
    8.3837   17.9999    0.0483 C   0  0  0  0  0  0  0  0  0  0  0  0
    6.9196   17.7223    0.3541 C   0  0  0  0  0  0  0  0  0  0  0  0
    6.2446   18.5689    1.2333 C   0  0  0  0  0  0  0  0  0  0  0  0
    4.8926   18.3346    1.5260 C   0  0  0  0  0  0  0  0  0  0  0  0
    4.2518   17.2725    0.9341 C   0  0  0  0  0  0  0  0  0  0  0  0
    4.9019   16.4309    0.0526 C   0  0  0  0  0  0  0  0  0  0  0  0
    6.2460   16.6405   -0.2444 C   0  0  0  0  0  0  0  0  0  0  0  0
   10.8604   16.2750   -1.6867 C   0  0  0  0  0  0  0  0  0  0  0  0
   11.4239   14.9469   -1.3703 N   0  0  0  0  0  0  0  0  0  0  0  0
   11.9676   14.1544   -2.7589 S   0  0  0  0  0  0  0  0  0  0  0  0
   11.7971   12.7381   -2.7338 O   0  0  0  0  0  0  0  0  0  0  0  0
   13.3795   14.3506   -2.9460 O   0  0  0  0  0  0  0  0  0  0  0  0
   11.0216   14.7896   -4.1593 C   0  0  0  0  0  0  0  0  0  0  0  0
    9.6487   14.7170   -4.1109 C   0  0  0  0  0  0  0  0  0  0  0  0
    8.8861   15.1958   -5.1821 C   0  0  0  0  0  0  0  0  0  0  0  0
   11.7771   15.3295   -5.2179 C   0  0  0  0  0  0  0  0  0  0  0  0
   10.9909   15.7931   -6.2958 C   0  0  0  0  0  0  0  0  0  0  0  0
    9.5861   15.7343   -6.2653 C   0  0  0  0  0  0  0  0  0  0  0  0
    8.8982   16.1894   -7.3705 C   0  0  0  0  0  0  0  0  0  0  0  0
    9.2311   15.4284   -8.3019 O   0  0  0  0  0  0  0  0  0  0  0  0
    8.1377   17.1383   -7.0864 O   0  0  0  0  0  0  0  0  0  0  0  0
    8.1441   17.5013   -6.2226 H   0  0  0  0  0  0  0  0  0  0  0  0
   12.4847   15.0722   -0.3625 C   0  0  0  0  0  0  0  0  0  0  0  0
   12.4085   13.9763    0.7007 C   0  0  0  0  0  0  0  0  0  0  0  0
   13.4500   12.9562    0.3703 C   0  0  0  0  0  0  0  0  0  0  0  0
   11.0638   13.3172    0.6629 C   0  0  0  0  0  0  0  0  0  0  0  0
 37 36  2  0  0  0
 38 36  1  0  0  0
 36 35  1  0  0  0
 35 34  2  0  0  0
 35 32  1  0  0  0
 34 33  1  0  0  0
 32 31  2  0  0  0
 33 30  2  0  0  0
 31 30  1  0  0  0
 30 27  1  0  0  0
 27 28  2  0  0  0
 27 29  2  0  0  0
 27 26  1  0  0  0
 40 26  1  0  0  0
 40 41  1  0  0  0
 26 25  1  0  0  0
 25  1  1  0  0  0
 42 41  1  0  0  0
 41 43  1  0  0  0
 18 19  1  0  0  0
 18  4  1  0  0  0
  1  2  1  0  0  0
  1  4  1  0  0  0
 20 19  2  0  0  0
 20 21  1  0  0  0
 19 24  1  0  0  0
  4  7  1  0  0  0
 21 22  2  0  0  0
 24 23  2  0  0  0
 22 23  1  0  0  0
  7  6  1  0  0  0
  5  6  2  0  0  0
  6  9  1  0  0  0
  9 10  1  0  0  0
 12 13  1  0  0  0
 12 11  1  0  0  0
 10 11  1  0  0  0
 10 17  1  0  0  0
 13 14  1  0  0  0
 11 15  1  0  0  0
 14 15  1  0  0  0
 17 16  1  0  0  0
 15 16  1  0  0  0
  7  8  1  0  0  0
  2  3  1  0  0  0
 38 39  1  0  0  0
M  END
> <minimizedAffinity>
-9.32994

$$$$
