3FV2_NDZ_A_791
  RCSB PDB12061708393D
Coordinates from PDB:3FV2:A:791 Model:1 without hydrogens
 20 21  0  0  0  0            999 V2000
   -3.3740   14.3160   17.3480   O 0  0  0  0  0  0  0  0  0  0  0  0
   -4.0420   15.1370   18.0250   C 0  0  0  0  0  0  0  0  0  0  0  0
   -3.5440   16.1570   18.5470   O 0  0  0  0  0  0  0  0  0  0  0  0
   -5.5100   14.9030   18.2720   C 0  0  0  0  0  0  0  0  0  0  0  0
   -5.9230   13.6230   17.7090   N 0  0  0  0  0  0  0  0  0  0  0  0
   -5.7850   15.0030   19.7730   C 0  0  0  0  0  0  0  0  0  0  0  0
   -7.2530   15.2080   20.1480   C 0  0  0  0  0  0  0  0  0  0  0  0
   -7.8230   16.4930   19.5790   C 0  0  0  0  0  0  0  0  0  0  0  0
   -9.0390   16.4910   19.2390   O 0  0  0  0  0  0  0  0  0  0  0  0
   -7.0590   17.4880   19.4470   O 0  0  0  0  0  0  0  0  0  0  0  0
   -7.4110   15.1890   21.6760   C 0  0  0  0  0  0  0  0  0  0  0  0
   -8.0480   14.1220   19.6570   O 0  0  0  0  0  0  0  0  0  0  0  0
   -8.3820   13.2310   20.7160   C 0  0  0  0  0  0  0  0  0  0  0  0
   -8.5000   14.1530   21.9240   C 0  0  0  0  0  0  0  0  0  0  0  0
   -9.7640   14.8320   21.9940   O 0  0  0  0  0  0  0  0  0  0  0  0
  -10.9150   14.0000   21.8060   C 0  0  0  0  0  0  0  0  0  0  0  0
  -10.8710   13.3470   20.4260   C 0  0  0  0  0  0  0  0  0  0  0  0
  -10.8380   14.3750   19.4220   O 0  0  0  0  0  0  0  0  0  0  0  0
   -9.6370   12.4590   20.3260   C 0  0  0  0  0  0  0  0  0  0  0  0
   -9.4990   11.9160   19.0000   O 0  0  0  0  0  0  0  0  0  0  0  0
  1  2  2  0  0  0  0
  2  3  1  0  0  0  0
  2  4  1  0  0  0  0
  4  5  1  0  0  0  0
  4  6  1  0  0  0  0
  6  7  1  0  0  0  0
  7  8  1  0  0  0  0
  7 11  1  0  0  0  0
  7 12  1  0  0  0  0
  8  9  2  0  0  0  0
  8 10  1  0  0  0  0
 11 14  1  0  0  0  0
 12 13  1  0  0  0  0
 13 14  1  0  0  0  0
 13 19  1  0  0  0  0
 14 15  1  0  0  0  0
 15 16  1  0  0  0  0
 16 17  1  0  0  0  0
 17 18  1  0  0  0  0
 17 19  1  0  0  0  0
 19 20  1  0  0  0  0
A    1
O
A    2
C
A    3
OXT
A    4
CA
A    5
N
A    6
CB
A    7
CAJ
A    8
CAD
A    9
OAA
A   10
OAE
A   11
CAR
A   12
OAI
A   13
CAH
A   14
CAQ
A   15
OAP
A   16
CAO
A   17
CAF
A   18
OAB
A   19
CAG
A   20
OAC
M  END
>  <InstanceId>
3FV2_NDZ_A_791

>  <ChemCompId>
NDZ

>  <PdbId>
3FV2

>  <ChainId>
A

>  <ResidueNumber>
791

>  <InsertionCode>


>  <Model>
1

>  <AltIds>


>  <MissingHeavyAtoms>
0

>  <ObservedFormula>
C11 N O8

>  <Name>
(2R,3aR,6R,7R,7aR)-2-[(2S)-2-amino-2-carboxyethyl]-6,7-dihydroxyhexahydro-2H-furo[3,2-b]pyran-2-carboxylic acid

>  <SystematicName>
(2R,3aR,6R,7R,7aR)-2-[(2S)-2-amino-3-hydroxy-3-oxo-propyl]-6,7-dihydroxy-3,3a,5,6,7,7a-hexahydrofuro[4,5-b]pyran-2-carboxylic acid

>  <Synonyms>


>  <Type>
NON-POLYMER

>  <Formula>
C11 H17 N O8

>  <MolecularWeight>
291.255

>  <ModifiedDate>
2011-06-04

>  <Parent>


>  <OneLetterCode>


>  <SubcomponentList>


>  <AmbiguousFlag>
N

>  <InChI>
InChI=1S/C11H17NO8/c12-4(9(15)16)1-11(10(17)18)2-6-8(20-11)7(14)5(13)3-19-6/h4-8,13-14H,1-3,12H2,(H,15,16)(H,17,18)/t4-,5+,6+,7+,8-,11+/m0/s1

>  <InChIKey>
NRTJEXLNSCGBJU-FQYLSUDWSA-N

>  <SMILES>
C1[C@@H]2[C@@H]([C@@H]([C@@H](CO2)O)O)O[C@@]1(C[C@@H](C(=O)O)N)C(=O)O

$$$$
