4DY6_A22_A_301
  RCSB PDB12061712183D
Coordinates from PDB:4DY6:A:301 Model:1 without hydrogens
 49 54  0  0  0  0            999 V2000
   17.3480    9.9490   17.6430   P 0  0  0  0  0  0  0  0  0  0  0  0
   18.0650   10.8760   18.5940   O 0  0  0  0  0  0  0  0  0  0  0  0
   17.3460    8.4970   18.0540   O 0  0  0  0  0  0  0  0  0  0  0  0
   15.9920   10.4720   17.2330   O 0  0  0  0  0  0  0  0  0  0  0  0
   13.9600    7.4110   13.2230   P 0  0  0  0  0  0  0  0  0  0  0  0
   13.7360    6.2340   12.3070   O 0  0  0  0  0  0  0  0  0  0  0  0
   13.6940    7.2680   14.7010   O 0  0  0  0  0  0  0  0  0  0  0  0
   15.4870    7.9020   13.0210   O 0  0  0  0  0  0  0  0  0  0  0  0
   16.5580    6.9570   12.8980   C 0  0  0  0  0  0  0  0  0  0  0  0
   17.8190    7.3550   13.6830   C 0  0  0  0  0  0  0  0  0  0  0  0
   18.5520    8.3940   13.0260   O 0  0  0  0  0  0  0  0  0  0  0  0
   17.5650    7.8760   15.0920   C 0  0  0  0  0  0  0  0  0  0  0  0
   18.5020    7.2560   15.9730   O 0  0  0  0  0  0  0  0  0  0  0  0
   17.8240    9.3730   15.0470   C 0  0  0  0  0  0  0  0  0  0  0  0
   18.2580    9.9410   16.2980   O 0  0  0  0  0  0  0  0  0  0  0  0
   18.9170    9.3870   13.9940   C 0  0  0  0  0  0  0  0  0  0  0  0
   19.1410   10.6860   13.3160   N 0  0  0  0  0  0  0  0  0  0  0  0
   18.2320   11.5750   12.8890   C 0  0  0  0  0  0  0  0  0  0  0  0
   18.8820   12.6120   12.3190   N 0  0  0  0  0  0  0  0  0  0  0  0
   20.2070   12.3570   12.3790   C 0  0  0  0  0  0  0  0  0  0  0  0
   21.3480   13.0360   11.9580   C 0  0  0  0  0  0  0  0  0  0  0  0
   21.2510   14.2360   11.3380   N 0  0  0  0  0  0  0  0  0  0  0  0
   22.5590   12.4770   12.1850   N 0  0  0  0  0  0  0  0  0  0  0  0
   22.6750   11.2950   12.8080   C 0  0  0  0  0  0  0  0  0  0  0  0
   21.5950   10.6220   13.2170   N 0  0  0  0  0  0  0  0  0  0  0  0
   20.3570   11.1340   13.0090   C 0  0  0  0  0  0  0  0  0  0  0  0
   13.2670   10.1720   12.9180   P 0  0  0  0  0  0  0  0  0  0  0  0
   14.2270   10.3330   14.0750   O 0  0  0  0  0  0  0  0  0  0  0  0
   11.9010   10.8180   12.9560   O 0  0  0  0  0  0  0  0  0  0  0  0
   13.0340    8.5990   12.6430   O 0  0  0  0  0  0  0  0  0  0  0  0
   13.9990   10.7220   11.5940   O 0  0  0  0  0  0  0  0  0  0  0  0
   14.0490    9.9590   10.3930   C 0  0  0  0  0  0  0  0  0  0  0  0
   15.4910    9.8580    9.9180   C 0  0  0  0  0  0  0  0  0  0  0  0
   16.0190    8.5320   10.0570   O 0  0  0  0  0  0  0  0  0  0  0  0
   15.6030   10.1950    8.4460   C 0  0  0  0  0  0  0  0  0  0  0  0
   15.6660   11.6170    8.2800   O 0  0  0  0  0  0  0  0  0  0  0  0
   16.8330    9.4130    8.0100   C 0  0  0  0  0  0  0  0  0  0  0  0
   17.9800   10.2700    7.9050   O 0  0  0  0  0  0  0  0  0  0  0  0
   17.0290    8.3140    9.0760   C 0  0  0  0  0  0  0  0  0  0  0  0
   16.9550    6.9620    8.4480   N 0  0  0  0  0  0  0  0  0  0  0  0
   15.8800    6.3830    7.8790   C 0  0  0  0  0  0  0  0  0  0  0  0
   16.2240    5.1690    7.3890   N 0  0  0  0  0  0  0  0  0  0  0  0
   17.5420    4.9850    7.6320   C 0  0  0  0  0  0  0  0  0  0  0  0
   18.4590    3.9560    7.3630   C 0  0  0  0  0  0  0  0  0  0  0  0
   18.0950    2.8140    6.7220   N 0  0  0  0  0  0  0  0  0  0  0  0
   19.7410    4.1090    7.7620   N 0  0  0  0  0  0  0  0  0  0  0  0
   20.1270    5.2200    8.4030   C 0  0  0  0  0  0  0  0  0  0  0  0
   19.2750    6.2090    8.6730   N 0  0  0  0  0  0  0  0  0  0  0  0
   17.9840    6.1240    8.2970   C 0  0  0  0  0  0  0  0  0  0  0  0
  1 15  1  0  0  0  0
  1  4  2  0  0  0  0
  1  3  1  0  0  0  0
  1  2  1  0  0  0  0
  5 30  1  0  0  0  0
  5  7  2  0  0  0  0
  5  8  1  0  0  0  0
  5  6  1  0  0  0  0
  8  9  1  0  0  0  0
  9 10  1  0  0  0  0
 10 11  1  0  0  0  0
 10 12  1  0  0  0  0
 11 16  1  0  0  0  0
 12 14  1  0  0  0  0
 12 13  1  0  0  0  0
 14 16  1  0  0  0  0
 14 15  1  0  0  0  0
 16 17  1  0  0  0  0
 17 18  1  0  0  0  0
 17 26  1  0  0  0  0
 18 19  2  0  0  0  0
 19 20  1  0  0  0  0
 20 21  1  0  0  0  0
 20 26  2  0  0  0  0
 21 22  1  0  0  0  0
 21 23  2  0  0  0  0
 23 24  1  0  0  0  0
 24 25  2  0  0  0  0
 25 26  1  0  0  0  0
 27 31  1  0  0  0  0
 27 30  1  0  0  0  0
 27 29  2  0  0  0  0
 27 28  1  0  0  0  0
 31 32  1  0  0  0  0
 32 33  1  0  0  0  0
 33 35  1  0  0  0  0
 33 34  1  0  0  0  0
 34 39  1  0  0  0  0
 35 37  1  0  0  0  0
 35 36  1  0  0  0  0
 37 38  1  0  0  0  0
 37 39  1  0  0  0  0
 39 40  1  0  0  0  0
 40 41  1  0  0  0  0
 40 49  1  0  0  0  0
 41 42  2  0  0  0  0
 42 43  1  0  0  0  0
 43 44  2  0  0  0  0
 43 49  1  0  0  0  0
 44 45  1  0  0  0  0
 44 46  1  0  0  0  0
 46 47  2  0  0  0  0
 47 48  1  0  0  0  0
 48 49  2  0  0  0  0
A    1
P2D
A    2
O11
A    3
O12
A    4
O13
A    5
P1A
A    6
O14
A    7
O15
A    8
O5D
A    9
C5D
A   10
C4D
A   11
O4D
A   12
C3D
A   13
O3D
A   14
C2D
A   15
O2D
A   16
C1D
A   17
N9A
A   18
C8A
A   19
N7A
A   20
C5A
A   21
C6A
A   22
N6A
A   23
N1A
A   24
C2A
A   25
N3A
A   26
C4A
A   27
P1B
A   28
O16
A   29
O17
A   30
O18
A   31
O5E
A   32
C5E
A   33
C4E
A   34
O4E
A   35
C3E
A   36
O3E
A   37
C2E
A   38
O2E
A   39
C1E
A   40
N9B
A   41
C8B
A   42
N7B
A   43
C5B
A   44
C6B
A   45
N6B
A   46
N1B
A   47
C2B
A   48
N3B
A   49
C4B
M  END
>  <InstanceId>
4DY6_A22_A_301

>  <ChemCompId>
A22

>  <PdbId>
4DY6

>  <ChainId>
A

>  <ResidueNumber>
301

>  <InsertionCode>


>  <Model>
1

>  <AltIds>


>  <MissingHeavyAtoms>
0

>  <ObservedFormula>
C20 N10 O16 P3

>  <Name>
[(2R,3S,4R,5R)-5-(6-AMINO-9H-PURIN-9-YL)-3,4-DIHYDROXYTETRAHYDROFURAN-2-YL]METHYL [(2R,3R,4R,5R)-5-(6-AMINO-9H-PURIN-9-YL)-3-HYDROXY-4-(PHOSPHONOOXY)TETRAHYDROFURAN-2-YL]METHYL DIHYDROGEN DIPHOSPHATE

>  <SystematicName>
[[(2R,3S,4R,5R)-5-(6-aminopurin-9-yl)-3,4-dihydroxy-oxolan-2-yl]methoxy-hydroxy-phosphoryl] [(2R,3R,4R,5R)-5-(6-aminopurin-9-yl)-3-hydroxy-4-phosphonooxy-oxolan-2-yl]methyl hydrogen phosphate

>  <Synonyms>
2'-PHOSPHATE BIS(ADENOSINE)-5'-DIPHOSPHATE

>  <Type>
NON-POLYMER

>  <Formula>
C20 H27 N10 O16 P3

>  <MolecularWeight>
756.407

>  <ModifiedDate>
2011-06-04

>  <Parent>


>  <OneLetterCode>


>  <SubcomponentList>


>  <AmbiguousFlag>


>  <InChI>
InChI=1S/C20H27N10O16P3/c21-15-9-17(25-3-23-15)29(5-27-9)19-13(33)11(31)7(43-19)1-41-48(37,38)46-49(39,40)42-2-8-12(32)14(45-47(34,35)36)20(44-8)30-6-28-10-16(22)24-4-26-18(10)30/h3-8,11-14,19-20,31-33H,1-2H2,(H,37,38)(H,39,40)(H2,21,23,25)(H2,22,24,26)(H2,34,35,36)/t7-,8-,11-,12-,13-,14-,19-,20-/m1/s1

>  <InChIKey>
JRSFRHPGKHPNEL-XPWFQUROSA-N

>  <SMILES>
c1nc(c2c(n1)n(cn2)[C@H]3[C@@H]([C@@H]([C@H](O3)CO[P@](=O)(O)O[P@](=O)(O)OC[C@@H]4[C@H]([C@H]([C@@H](O4)n5cnc6c5ncnc6N)OP(=O)(O)O)O)O)O)N

$$$$
