4DY6_A22_A_301


 60 65  0  0  0  0  0  0  0  0999 V2000
   14.2576    9.1477    8.2649 P   0  0  0  0  0  0  0  0  0  0  0  0
   14.0734   10.5157    8.8725 O   0  0  0  0  0  0  0  0  0  0  0  0
   13.2255    8.0757    8.5126 O   0  0  0  0  0  0  0  0  0  0  0  0
   13.9708   10.4315    9.8334 H   0  0  0  0  0  0  0  0  0  0  0  0
   14.4236    9.3420    6.6685 O   0  0  0  0  0  0  0  0  0  0  0  0
   13.4350    8.8467    5.7561 C   0  0  0  0  0  0  0  0  0  0  0  0
   13.9044    7.6252    4.9484 C   0  0  0  0  0  0  0  0  0  0  0  0
   14.3669    6.5691    5.7965 O   0  0  0  0  0  0  0  0  0  0  0  0
   12.8404    6.9886    4.0631 C   0  0  0  0  0  0  0  0  0  0  0  0
   13.4214    6.7250    2.7858 O   0  0  0  0  0  0  0  0  0  0  0  0
   12.4602    5.6761    4.7287 C   0  0  0  0  0  0  0  0  0  0  0  0
   13.8045    5.3305    5.3428 C   0  0  0  0  0  0  0  0  0  0  0  0
   14.1975    6.1535    2.8954 H   0  0  0  0  0  0  0  0  0  0  0  0
   13.7703    4.3587    6.4617 N   0  0  0  0  0  0  0  0  0  0  0  0
   12.7062    3.7659    7.0232 C   0  0  0  0  0  0  0  0  0  0  0  0
   13.1390    2.9627    8.0183 N   0  0  0  0  0  0  0  0  0  0  0  0
   14.4837    3.0696    8.0852 C   0  0  0  0  0  0  0  0  0  0  0  0
   15.4651    2.5034    8.8954 C   0  0  0  0  0  0  0  0  0  0  0  0
   15.1353    1.6280    9.8744 N   0  0  0  0  0  0  0  0  0  0  0  0
   16.7583    2.8397    8.6829 N   0  0  0  0  0  0  0  0  0  0  0  0
   17.1048    3.6958    7.7104 C   0  0  0  0  0  0  0  0  0  0  0  0
   16.1812    4.2560    6.9232 N   0  0  0  0  0  0  0  0  0  0  0  0
   14.8700    3.9584    7.0973 C   0  0  0  0  0  0  0  0  0  0  0  0
   14.1921    1.3881   10.0230 H   0  0  0  0  0  0  0  0  0  0  0  0
   15.8387    1.2314   10.4376 H   0  0  0  0  0  0  0  0  0  0  0  0
   11.9929    4.6601    3.8203 O   0  0  0  0  0  0  0  0  0  0  0  0
   10.4220    4.3265    3.5791 P   0  0  0  0  0  0  0  0  0  0  0  0
    9.8504    4.1189    4.9604 O   0  0  0  0  0  0  0  0  0  0  0  0
   10.4715    3.0864    2.7206 O   0  0  0  0  0  0  0  0  0  0  0  0
    9.8359    5.5314    2.8825 O   0  0  0  0  0  0  0  0  0  0  0  0
    9.8552    4.9607    5.4422 H   0  0  0  0  0  0  0  0  0  0  0  0
   10.8499    3.3072    1.8551 H   0  0  0  0  0  0  0  0  0  0  0  0
   15.6880    8.6219    8.7966 O   0  0  0  0  0  0  0  0  0  0  0  0
   16.9683    9.5599    9.0887 P   0  0  0  0  0  0  0  0  0  0  0  0
   16.8411   10.8324    8.2821 O   0  0  0  0  0  0  0  0  0  0  0  0
   18.1932    8.6842    8.9564 O   0  0  0  0  0  0  0  0  0  0  0  0
   15.9983   11.2649    8.4911 H   0  0  0  0  0  0  0  0  0  0  0  0
   16.8499    9.9527   10.6453 O   0  0  0  0  0  0  0  0  0  0  0  0
   17.0755    8.9995   11.6785 C   0  0  0  0  0  0  0  0  0  0  0  0
   18.0148    9.5933   12.7178 C   0  0  0  0  0  0  0  0  0  0  0  0
   18.9371    8.6250   13.2355 O   0  0  0  0  0  0  0  0  0  0  0  0
   18.8647   10.6931   12.1168 C   0  0  0  0  0  0  0  0  0  0  0  0
   18.1271   11.9217   12.1064 O   0  0  0  0  0  0  0  0  0  0  0  0
   20.1158   10.6683   12.9820 C   0  0  0  0  0  0  0  0  0  0  0  0
   20.0975   11.7303   13.9478 O   0  0  0  0  0  0  0  0  0  0  0  0
   20.1326    9.2782   13.6526 C   0  0  0  0  0  0  0  0  0  0  0  0
   17.8298   12.1280   13.0064 H   0  0  0  0  0  0  0  0  0  0  0  0
   19.3105   11.6441   14.5083 H   0  0  0  0  0  0  0  0  0  0  0  0
   21.3702    8.5341   13.2750 N   0  0  0  0  0  0  0  0  0  0  0  0
   22.5127    8.4364   13.9819 C   0  0  0  0  0  0  0  0  0  0  0  0
   23.3887    7.6430   13.3220 N   0  0  0  0  0  0  0  0  0  0  0  0
   22.7843    7.2140   12.1904 C   0  0  0  0  0  0  0  0  0  0  0  0
   23.1640    6.3799   11.1263 C   0  0  0  0  0  0  0  0  0  0  0  0
   24.3894    5.7945   11.0697 N   0  0  0  0  0  0  0  0  0  0  0  0
   22.2812    6.1610   10.1269 N   0  0  0  0  0  0  0  0  0  0  0  0
   21.0692    6.7309   10.1515 C   0  0  0  0  0  0  0  0  0  0  0  0
   20.6867    7.5290   11.1483 N   0  0  0  0  0  0  0  0  0  0  0  0
   21.5154    7.7837   12.1797 C   0  0  0  0  0  0  0  0  0  0  0  0
   25.0413    5.9463   11.7917 H   0  0  0  0  0  0  0  0  0  0  0  0
   24.6251    5.2187   10.3067 H   0  0  0  0  0  0  0  0  0  0  0  0
 27 26  1  0  0  0
 27 30  2  0  0  0
 27 29  1  0  0  0
 27 28  1  0  0  0
  1 33  1  0  0  0
  1  3  2  0  0  0
  1  5  1  0  0  0
  1  2  1  0  0  0
  5  6  1  0  0  0
  6  7  1  0  0  0
  7  8  1  0  0  0
  7  9  1  0  0  0
  8 12  1  0  0  0
  9 11  1  0  0  0
  9 10  1  0  0  0
 11 12  1  0  0  0
 11 26  1  0  0  0
 12 14  1  0  0  0
 14 15  1  0  0  0
 14 23  1  0  0  0
 15 16  2  0  0  0
 16 17  1  0  0  0
 17 18  1  0  0  0
 17 23  2  0  0  0
 18 19  1  0  0  0
 18 20  2  0  0  0
 20 21  1  0  0  0
 21 22  2  0  0  0
 22 23  1  0  0  0
 34 38  1  0  0  0
 34 33  1  0  0  0
 34 36  2  0  0  0
 34 35  1  0  0  0
 38 39  1  0  0  0
 39 40  1  0  0  0
 40 42  1  0  0  0
 40 41  1  0  0  0
 41 46  1  0  0  0
 42 44  1  0  0  0
 42 43  1  0  0  0
 44 45  1  0  0  0
 44 46  1  0  0  0
 46 49  1  0  0  0
 49 50  1  0  0  0
 49 58  1  0  0  0
 50 51  2  0  0  0
 51 52  1  0  0  0
 52 53  2  0  0  0
 52 58  1  0  0  0
 53 54  1  0  0  0
 53 55  1  0  0  0
 55 56  2  0  0  0
 56 57  1  0  0  0
 57 58  2  0  0  0
 28 31  1  0  0  0
 29 32  1  0  0  0
  2  4  1  0  0  0
 10 13  1  0  0  0
 19 24  1  0  0  0
 19 25  1  0  0  0
 35 37  1  0  0  0
 43 47  1  0  0  0
 45 48  1  0  0  0
 54 59  1  0  0  0
 54 60  1  0  0  0
M  END
> <minimizedAffinity>
-11.12238

$$$$
4DY6_A22_A_301


 60 65  0  0  0  0  0  0  0  0999 V2000
   15.3076    2.9200    8.2763 P   0  0  0  0  0  0  0  0  0  0  0  0
   16.7911    2.7878    8.0387 O   0  0  0  0  0  0  0  0  0  0  0  0
   14.7042    2.3794    9.5488 O   0  0  0  0  0  0  0  0  0  0  0  0
   17.0472    1.8546    8.1049 H   0  0  0  0  0  0  0  0  0  0  0  0
   14.9326    4.4880    8.1556 O   0  0  0  0  0  0  0  0  0  0  0  0
   14.0487    5.1119    9.0961 C   0  0  0  0  0  0  0  0  0  0  0  0
   14.7816    5.8582   10.2233 C   0  0  0  0  0  0  0  0  0  0  0  0
   16.1702    5.5155   10.2767 O   0  0  0  0  0  0  0  0  0  0  0  0
   14.7498    7.3778   10.1190 C   0  0  0  0  0  0  0  0  0  0  0  0
   14.4449    7.9078   11.4092 O   0  0  0  0  0  0  0  0  0  0  0  0
   16.1496    7.8074    9.7114 C   0  0  0  0  0  0  0  0  0  0  0  0
   16.9394    6.7179   10.4135 C   0  0  0  0  0  0  0  0  0  0  0  0
   15.1038    7.5978   12.0500 H   0  0  0  0  0  0  0  0  0  0  0  0
   18.3139    6.4912    9.9069 N   0  0  0  0  0  0  0  0  0  0  0  0
   18.6978    5.9403    8.7459 C   0  0  0  0  0  0  0  0  0  0  0  0
   20.0472    5.9238    8.7050 N   0  0  0  0  0  0  0  0  0  0  0  0
   20.5055    6.4558    9.8588 C   0  0  0  0  0  0  0  0  0  0  0  0
   21.7735    6.6913   10.3849 C   0  0  0  0  0  0  0  0  0  0  0  0
   22.8858    6.3648    9.6848 N   0  0  0  0  0  0  0  0  0  0  0  0
   21.8753    7.2588   11.6089 N   0  0  0  0  0  0  0  0  0  0  0  0
   20.7851    7.5996   12.3117 C   0  0  0  0  0  0  0  0  0  0  0  0
   19.5576    7.3794   11.8305 N   0  0  0  0  0  0  0  0  0  0  0  0
   19.3988    6.8075   10.6116 C   0  0  0  0  0  0  0  0  0  0  0  0
   22.8037    5.9521    8.7948 H   0  0  0  0  0  0  0  0  0  0  0  0
   23.7764    6.5402   10.0658 H   0  0  0  0  0  0  0  0  0  0  0  0
   16.5207    9.1276   10.1533 O   0  0  0  0  0  0  0  0  0  0  0  0
   15.9394   10.4915    9.4907 P   0  0  0  0  0  0  0  0  0  0  0  0
   14.5825   10.1145    8.9480 O   0  0  0  0  0  0  0  0  0  0  0  0
   16.9727   10.8203    8.4413 O   0  0  0  0  0  0  0  0  0  0  0  0
   15.8576   11.5033   10.6088 O   0  0  0  0  0  0  0  0  0  0  0  0
   13.9823    9.9199    9.6848 H   0  0  0  0  0  0  0  0  0  0  0  0
   17.8103   11.0503    8.8731 H   0  0  0  0  0  0  0  0  0  0  0  0
   14.5974    2.1984    7.0193 O   0  0  0  0  0  0  0  0  0  0  0  0
   13.0404    1.7796    6.9513 P   0  0  0  0  0  0  0  0  0  0  0  0
   12.2231    2.7951    7.7175 O   0  0  0  0  0  0  0  0  0  0  0  0
   12.9654    0.3107    7.2997 O   0  0  0  0  0  0  0  0  0  0  0  0
   12.3935    3.6815    7.3623 H   0  0  0  0  0  0  0  0  0  0  0  0
   12.6435    1.9041    5.3962 O   0  0  0  0  0  0  0  0  0  0  0  0
   11.3575    1.5240    4.9178 C   0  0  0  0  0  0  0  0  0  0  0  0
   10.4490    2.7442    4.8862 C   0  0  0  0  0  0  0  0  0  0  0  0
   11.1130    3.9300    5.3439 O   0  0  0  0  0  0  0  0  0  0  0  0
    9.9925    3.0453    3.4742 C   0  0  0  0  0  0  0  0  0  0  0  0
    8.8677    2.2207    3.1446 O   0  0  0  0  0  0  0  0  0  0  0  0
    9.7379    4.5447    3.5107 C   0  0  0  0  0  0  0  0  0  0  0  0
    8.3348    4.8284    3.6199 O   0  0  0  0  0  0  0  0  0  0  0  0
   10.5301    5.0736    4.7254 C   0  0  0  0  0  0  0  0  0  0  0  0
    8.1661    2.3534    3.8011 H   0  0  0  0  0  0  0  0  0  0  0  0
    7.9836    4.4173    4.4252 H   0  0  0  0  0  0  0  0  0  0  0  0
   11.5393    6.0826    4.2881 N   0  0  0  0  0  0  0  0  0  0  0  0
   11.9182    6.3658    3.0268 C   0  0  0  0  0  0  0  0  0  0  0  0
   12.8284    7.3676    3.0400 N   0  0  0  0  0  0  0  0  0  0  0  0
   13.0131    7.7395    4.3275 C   0  0  0  0  0  0  0  0  0  0  0  0
   13.8037    8.7061    4.9699 C   0  0  0  0  0  0  0  0  0  0  0  0
   14.6316    9.5354    4.2811 N   0  0  0  0  0  0  0  0  0  0  0  0
   13.7399    8.8060    6.3160 N   0  0  0  0  0  0  0  0  0  0  0  0
   12.9392    7.9968    7.0220 C   0  0  0  0  0  0  0  0  0  0  0  0
   12.1820    7.0694    6.4359 N   0  0  0  0  0  0  0  0  0  0  0  0
   12.1926    6.9211    5.0968 C   0  0  0  0  0  0  0  0  0  0  0  0
   14.6869    9.4724    3.3002 H   0  0  0  0  0  0  0  0  0  0  0  0
   15.1759   10.1992    4.7632 H   0  0  0  0  0  0  0  0  0  0  0  0
 27 26  1  0  0  0
 27 30  2  0  0  0
 27 29  1  0  0  0
 27 28  1  0  0  0
  1 33  1  0  0  0
  1  3  2  0  0  0
  1  5  1  0  0  0
  1  2  1  0  0  0
  5  6  1  0  0  0
  6  7  1  0  0  0
  7  8  1  0  0  0
  7  9  1  0  0  0
  8 12  1  0  0  0
  9 11  1  0  0  0
  9 10  1  0  0  0
 11 12  1  0  0  0
 11 26  1  0  0  0
 12 14  1  0  0  0
 14 15  1  0  0  0
 14 23  1  0  0  0
 15 16  2  0  0  0
 16 17  1  0  0  0
 17 18  1  0  0  0
 17 23  2  0  0  0
 18 19  1  0  0  0
 18 20  2  0  0  0
 20 21  1  0  0  0
 21 22  2  0  0  0
 22 23  1  0  0  0
 34 38  1  0  0  0
 34 33  1  0  0  0
 34 36  2  0  0  0
 34 35  1  0  0  0
 38 39  1  0  0  0
 39 40  1  0  0  0
 40 42  1  0  0  0
 40 41  1  0  0  0
 41 46  1  0  0  0
 42 44  1  0  0  0
 42 43  1  0  0  0
 44 45  1  0  0  0
 44 46  1  0  0  0
 46 49  1  0  0  0
 49 50  1  0  0  0
 49 58  1  0  0  0
 50 51  2  0  0  0
 51 52  1  0  0  0
 52 53  2  0  0  0
 52 58  1  0  0  0
 53 54  1  0  0  0
 53 55  1  0  0  0
 55 56  2  0  0  0
 56 57  1  0  0  0
 57 58  2  0  0  0
 28 31  1  0  0  0
 29 32  1  0  0  0
  2  4  1  0  0  0
 10 13  1  0  0  0
 19 24  1  0  0  0
 19 25  1  0  0  0
 35 37  1  0  0  0
 43 47  1  0  0  0
 45 48  1  0  0  0
 54 59  1  0  0  0
 54 60  1  0  0  0
M  END
> <minimizedAffinity>
-11.10030

$$$$
4DY6_A22_A_301


 60 65  0  0  0  0  0  0  0  0999 V2000
   14.9049   11.2396    9.4818 P   0  0  0  0  0  0  0  0  0  0  0  0
   15.9745   11.6211    8.4894 O   0  0  0  0  0  0  0  0  0  0  0  0
   13.6669   12.0921    9.6098 O   0  0  0  0  0  0  0  0  0  0  0  0
   16.2673   12.5295    8.6628 H   0  0  0  0  0  0  0  0  0  0  0  0
   14.4523    9.7231    9.1516 O   0  0  0  0  0  0  0  0  0  0  0  0
   15.3822    8.7740    8.6134 C   0  0  0  0  0  0  0  0  0  0  0  0
   15.2223    8.5504    7.1004 C   0  0  0  0  0  0  0  0  0  0  0  0
   15.3821    7.1736    6.7436 O   0  0  0  0  0  0  0  0  0  0  0  0
   13.8705    8.9565    6.5268 C   0  0  0  0  0  0  0  0  0  0  0  0
   14.0981    9.6850    5.3202 O   0  0  0  0  0  0  0  0  0  0  0  0
   13.1358    7.6645    6.2091 C   0  0  0  0  0  0  0  0  0  0  0  0
   14.3304    6.8034    5.8418 C   0  0  0  0  0  0  0  0  0  0  0  0
   14.6088    9.1376    4.7034 H   0  0  0  0  0  0  0  0  0  0  0  0
   14.1118    5.3387    5.9047 N   0  0  0  0  0  0  0  0  0  0  0  0
   13.8792    4.4831    4.8983 C   0  0  0  0  0  0  0  0  0  0  0  0
   13.7298    3.2447    5.4149 N   0  0  0  0  0  0  0  0  0  0  0  0
   13.8556    3.3349    6.7566 C   0  0  0  0  0  0  0  0  0  0  0  0
   13.7920    2.4178    7.8031 C   0  0  0  0  0  0  0  0  0  0  0  0
   13.5622    1.1053    7.5613 N   0  0  0  0  0  0  0  0  0  0  0  0
   13.9700    2.8612    9.0689 N   0  0  0  0  0  0  0  0  0  0  0  0
   14.2102    4.1553    9.3265 C   0  0  0  0  0  0  0  0  0  0  0  0
   14.2710    5.0552    8.3400 N   0  0  0  0  0  0  0  0  0  0  0  0
   14.0936    4.6654    7.0536 C   0  0  0  0  0  0  0  0  0  0  0  0
   13.4336    0.7902    6.6375 H   0  0  0  0  0  0  0  0  0  0  0  0
   13.5238    0.4664    8.3092 H   0  0  0  0  0  0  0  0  0  0  0  0
   12.1821    7.7696    5.1342 O   0  0  0  0  0  0  0  0  0  0  0  0
   10.6707    7.1812    5.2154 P   0  0  0  0  0  0  0  0  0  0  0  0
   10.2755    6.9211    3.7822 O   0  0  0  0  0  0  0  0  0  0  0  0
    9.9126    8.2987    5.8890 O   0  0  0  0  0  0  0  0  0  0  0  0
   10.7532    5.9154    6.0346 O   0  0  0  0  0  0  0  0  0  0  0  0
   10.8079    6.1921    3.4272 H   0  0  0  0  0  0  0  0  0  0  0  0
   10.2267    8.3984    6.8013 H   0  0  0  0  0  0  0  0  0  0  0  0
   15.6414   11.1779   10.9167 O   0  0  0  0  0  0  0  0  0  0  0  0
   14.9666   10.6413   12.2808 P   0  0  0  0  0  0  0  0  0  0  0  0
   13.5252   10.2760   12.0070 O   0  0  0  0  0  0  0  0  0  0  0  0
   15.3159   11.6359   13.3641 O   0  0  0  0  0  0  0  0  0  0  0  0
   13.4870    9.6294   11.2849 H   0  0  0  0  0  0  0  0  0  0  0  0
   15.7579    9.2838   12.6306 O   0  0  0  0  0  0  0  0  0  0  0  0
   17.0286    8.9884   12.0605 C   0  0  0  0  0  0  0  0  0  0  0  0
   18.1252    9.5663   12.9430 C   0  0  0  0  0  0  0  0  0  0  0  0
   19.0787    8.5744   13.3473 O   0  0  0  0  0  0  0  0  0  0  0  0
   18.9175   10.6234   12.2030 C   0  0  0  0  0  0  0  0  0  0  0  0
   18.2275   11.8777   12.2687 O   0  0  0  0  0  0  0  0  0  0  0  0
   20.2772   10.5687   12.8833 C   0  0  0  0  0  0  0  0  0  0  0  0
   20.4316   11.6478   13.8175 O   0  0  0  0  0  0  0  0  0  0  0  0
   20.3425    9.1911   13.5764 C   0  0  0  0  0  0  0  0  0  0  0  0
   18.0679   12.1107   13.1967 H   0  0  0  0  0  0  0  0  0  0  0  0
   19.7297   11.6003   14.4853 H   0  0  0  0  0  0  0  0  0  0  0  0
   21.4884    8.3960   13.0450 N   0  0  0  0  0  0  0  0  0  0  0  0
   22.7019    8.2351   13.6073 C   0  0  0  0  0  0  0  0  0  0  0  0
   23.4529    7.4115   12.8392 N   0  0  0  0  0  0  0  0  0  0  0  0
   22.6965    7.0274   11.7855 C   0  0  0  0  0  0  0  0  0  0  0  0
   22.9046    6.1920   10.6760 C   0  0  0  0  0  0  0  0  0  0  0  0
   24.0848    5.5513   10.4661 N   0  0  0  0  0  0  0  0  0  0  0  0
   21.8981    6.0289    9.7891 N   0  0  0  0  0  0  0  0  0  0  0  0
   20.7267    6.6540    9.9655 C   0  0  0  0  0  0  0  0  0  0  0  0
   20.5059    7.4545   11.0083 N   0  0  0  0  0  0  0  0  0  0  0  0
   21.4643    7.6555   11.9337 C   0  0  0  0  0  0  0  0  0  0  0  0
   24.8256    5.6622   11.1050 H   0  0  0  0  0  0  0  0  0  0  0  0
   24.1989    4.9763    9.6751 H   0  0  0  0  0  0  0  0  0  0  0  0
 27 26  1  0  0  0
 27 30  2  0  0  0
 27 29  1  0  0  0
 27 28  1  0  0  0
  1 33  1  0  0  0
  1  3  2  0  0  0
  1  5  1  0  0  0
  1  2  1  0  0  0
  5  6  1  0  0  0
  6  7  1  0  0  0
  7  8  1  0  0  0
  7  9  1  0  0  0
  8 12  1  0  0  0
  9 11  1  0  0  0
  9 10  1  0  0  0
 11 12  1  0  0  0
 11 26  1  0  0  0
 12 14  1  0  0  0
 14 15  1  0  0  0
 14 23  1  0  0  0
 15 16  2  0  0  0
 16 17  1  0  0  0
 17 18  1  0  0  0
 17 23  2  0  0  0
 18 19  1  0  0  0
 18 20  2  0  0  0
 20 21  1  0  0  0
 21 22  2  0  0  0
 22 23  1  0  0  0
 34 38  1  0  0  0
 34 33  1  0  0  0
 34 36  2  0  0  0
 34 35  1  0  0  0
 38 39  1  0  0  0
 39 40  1  0  0  0
 40 42  1  0  0  0
 40 41  1  0  0  0
 41 46  1  0  0  0
 42 44  1  0  0  0
 42 43  1  0  0  0
 44 45  1  0  0  0
 44 46  1  0  0  0
 46 49  1  0  0  0
 49 50  1  0  0  0
 49 58  1  0  0  0
 50 51  2  0  0  0
 51 52  1  0  0  0
 52 53  2  0  0  0
 52 58  1  0  0  0
 53 54  1  0  0  0
 53 55  1  0  0  0
 55 56  2  0  0  0
 56 57  1  0  0  0
 57 58  2  0  0  0
 28 31  1  0  0  0
 29 32  1  0  0  0
  2  4  1  0  0  0
 10 13  1  0  0  0
 19 24  1  0  0  0
 19 25  1  0  0  0
 35 37  1  0  0  0
 43 47  1  0  0  0
 45 48  1  0  0  0
 54 59  1  0  0  0
 54 60  1  0  0  0
M  END
> <minimizedAffinity>
-10.96257

$$$$
4DY6_A22_A_301


 60 65  0  0  0  0  0  0  0  0999 V2000
   10.7904    3.8676    5.1114 P   0  0  0  0  0  0  0  0  0  0  0  0
    9.9340    2.7493    5.6505 O   0  0  0  0  0  0  0  0  0  0  0  0
   11.4475    3.7205    3.7615 O   0  0  0  0  0  0  0  0  0  0  0  0
   10.4492    1.9277    5.6691 H   0  0  0  0  0  0  0  0  0  0  0  0
    9.8892    5.2097    5.1005 O   0  0  0  0  0  0  0  0  0  0  0  0
    9.2448    5.6779    6.2924 C   0  0  0  0  0  0  0  0  0  0  0  0
    9.6313    7.1170    6.6727 C   0  0  0  0  0  0  0  0  0  0  0  0
   10.2050    7.1882    7.9820 O   0  0  0  0  0  0  0  0  0  0  0  0
   10.6525    7.7756    5.7536 C   0  0  0  0  0  0  0  0  0  0  0  0
   10.2061    9.1013    5.4675 O   0  0  0  0  0  0  0  0  0  0  0  0
   11.9546    7.8357    6.5353 C   0  0  0  0  0  0  0  0  0  0  0  0
   11.3796    8.0091    7.9293 C   0  0  0  0  0  0  0  0  0  0  0  0
   10.0908    9.5898    6.2976 H   0  0  0  0  0  0  0  0  0  0  0  0
   12.2857    7.6559    9.0479 N   0  0  0  0  0  0  0  0  0  0  0  0
   12.6570    6.4388    9.4719 C   0  0  0  0  0  0  0  0  0  0  0  0
   13.4857    6.5873   10.5274 N   0  0  0  0  0  0  0  0  0  0  0  0
   13.6179    7.9092   10.7706 C   0  0  0  0  0  0  0  0  0  0  0  0
   14.3185    8.6595   11.7122 C   0  0  0  0  0  0  0  0  0  0  0  0
   15.0826    8.0534   12.6516 N   0  0  0  0  0  0  0  0  0  0  0  0
   14.2267   10.0086   11.6683 N   0  0  0  0  0  0  0  0  0  0  0  0
   13.4843   10.6266   10.7379 C   0  0  0  0  0  0  0  0  0  0  0  0
   12.7991    9.9287    9.8269 N   0  0  0  0  0  0  0  0  0  0  0  0
   12.8510    8.5739    9.8297 C   0  0  0  0  0  0  0  0  0  0  0  0
   15.1444    7.0711   12.6772 H   0  0  0  0  0  0  0  0  0  0  0  0
   15.5763    8.5949   13.3090 H   0  0  0  0  0  0  0  0  0  0  0  0
   12.8256    8.9206    6.1606 O   0  0  0  0  0  0  0  0  0  0  0  0
   14.0961    8.7475    5.1642 P   0  0  0  0  0  0  0  0  0  0  0  0
   15.2869    8.5774    6.0758 O   0  0  0  0  0  0  0  0  0  0  0  0
   14.0803   10.0339    4.3755 O   0  0  0  0  0  0  0  0  0  0  0  0
   13.8184    7.5164    4.3349 O   0  0  0  0  0  0  0  0  0  0  0  0
   15.2186    7.7296    6.5421 H   0  0  0  0  0  0  0  0  0  0  0  0
   13.2863   10.0623    3.8191 H   0  0  0  0  0  0  0  0  0  0  0  0
   11.9365    4.1145    6.2208 O   0  0  0  0  0  0  0  0  0  0  0  0
   12.9464    2.9844    6.7752 P   0  0  0  0  0  0  0  0  0  0  0  0
   12.7615    1.7195    5.9677 O   0  0  0  0  0  0  0  0  0  0  0  0
   12.8004    2.9652    8.2795 O   0  0  0  0  0  0  0  0  0  0  0  0
   12.8907    1.9150    5.0264 H   0  0  0  0  0  0  0  0  0  0  0  0
   14.4195    3.5536    6.4634 O   0  0  0  0  0  0  0  0  0  0  0  0
   14.8119    4.8679    6.8453 C   0  0  0  0  0  0  0  0  0  0  0  0
   16.3307    4.9530    6.8764 C   0  0  0  0  0  0  0  0  0  0  0  0
   16.7958    6.2400    7.3049 O   0  0  0  0  0  0  0  0  0  0  0  0
   16.9107    3.9564    7.8580 C   0  0  0  0  0  0  0  0  0  0  0  0
   17.0127    2.6696    7.2356 O   0  0  0  0  0  0  0  0  0  0  0  0
   18.2218    4.6083    8.2709 C   0  0  0  0  0  0  0  0  0  0  0  0
   19.3341    4.0098    7.5886 O   0  0  0  0  0  0  0  0  0  0  0  0
   18.0708    6.1054    7.9264 C   0  0  0  0  0  0  0  0  0  0  0  0
   17.5378    2.7440    6.4234 H   0  0  0  0  0  0  0  0  0  0  0  0
   19.2119    4.0994    6.6305 H   0  0  0  0  0  0  0  0  0  0  0  0
   18.2149    6.9386    9.1564 N   0  0  0  0  0  0  0  0  0  0  0  0
   18.8541    6.6100   10.2957 C   0  0  0  0  0  0  0  0  0  0  0  0
   18.7960    7.6466   11.1643 N   0  0  0  0  0  0  0  0  0  0  0  0
   18.1286    8.6551   10.5582 C   0  0  0  0  0  0  0  0  0  0  0  0
   17.7633    9.9588   10.9311 C   0  0  0  0  0  0  0  0  0  0  0  0
   18.0734   10.4746   12.1499 N   0  0  0  0  0  0  0  0  0  0  0  0
   17.0765   10.7175   10.0486 N   0  0  0  0  0  0  0  0  0  0  0  0
   16.7499   10.2331    8.8432 C   0  0  0  0  0  0  0  0  0  0  0  0
   17.0820    8.9981    8.4672 N   0  0  0  0  0  0  0  0  0  0  0  0
   17.7730    8.1912    9.2959 C   0  0  0  0  0  0  0  0  0  0  0  0
   18.5734    9.9318   12.8014 H   0  0  0  0  0  0  0  0  0  0  0  0
   17.7979   11.3911   12.3810 H   0  0  0  0  0  0  0  0  0  0  0  0
 27 26  1  0  0  0
 27 30  2  0  0  0
 27 29  1  0  0  0
 27 28  1  0  0  0
  1 33  1  0  0  0
  1  3  2  0  0  0
  1  5  1  0  0  0
  1  2  1  0  0  0
  5  6  1  0  0  0
  6  7  1  0  0  0
  7  8  1  0  0  0
  7  9  1  0  0  0
  8 12  1  0  0  0
  9 11  1  0  0  0
  9 10  1  0  0  0
 11 12  1  0  0  0
 11 26  1  0  0  0
 12 14  1  0  0  0
 14 15  1  0  0  0
 14 23  1  0  0  0
 15 16  2  0  0  0
 16 17  1  0  0  0
 17 18  1  0  0  0
 17 23  2  0  0  0
 18 19  1  0  0  0
 18 20  2  0  0  0
 20 21  1  0  0  0
 21 22  2  0  0  0
 22 23  1  0  0  0
 34 38  1  0  0  0
 34 33  1  0  0  0
 34 36  2  0  0  0
 34 35  1  0  0  0
 38 39  1  0  0  0
 39 40  1  0  0  0
 40 42  1  0  0  0
 40 41  1  0  0  0
 41 46  1  0  0  0
 42 44  1  0  0  0
 42 43  1  0  0  0
 44 45  1  0  0  0
 44 46  1  0  0  0
 46 49  1  0  0  0
 49 50  1  0  0  0
 49 58  1  0  0  0
 50 51  2  0  0  0
 51 52  1  0  0  0
 52 53  2  0  0  0
 52 58  1  0  0  0
 53 54  1  0  0  0
 53 55  1  0  0  0
 55 56  2  0  0  0
 56 57  1  0  0  0
 57 58  2  0  0  0
 28 31  1  0  0  0
 29 32  1  0  0  0
  2  4  1  0  0  0
 10 13  1  0  0  0
 19 24  1  0  0  0
 19 25  1  0  0  0
 35 37  1  0  0  0
 43 47  1  0  0  0
 45 48  1  0  0  0
 54 59  1  0  0  0
 54 60  1  0  0  0
M  END
> <minimizedAffinity>
-10.84532

$$$$
4DY6_A22_A_301


 60 65  0  0  0  0  0  0  0  0999 V2000
   14.9692    5.0017   10.5080 P   0  0  0  0  0  0  0  0  0  0  0  0
   13.8879    5.1043    9.4616 O   0  0  0  0  0  0  0  0  0  0  0  0
   16.3725    5.4460   10.1776 O   0  0  0  0  0  0  0  0  0  0  0  0
   14.1621    4.6233    8.6651 H   0  0  0  0  0  0  0  0  0  0  0  0
   14.4657    5.8164   11.8105 O   0  0  0  0  0  0  0  0  0  0  0  0
   15.3989    6.3156   12.7774 C   0  0  0  0  0  0  0  0  0  0  0  0
   15.3638    7.8455   12.9294 C   0  0  0  0  0  0  0  0  0  0  0  0
   16.6407    8.3754   13.2997 O   0  0  0  0  0  0  0  0  0  0  0  0
   14.9636    8.6102   11.6739 C   0  0  0  0  0  0  0  0  0  0  0  0
   14.0192    9.6147   12.0448 O   0  0  0  0  0  0  0  0  0  0  0  0
   16.2300    9.2708   11.1543 C   0  0  0  0  0  0  0  0  0  0  0  0
   16.9226    9.5191   12.4818 C   0  0  0  0  0  0  0  0  0  0  0  0
   14.4104   10.1934   12.7178 H   0  0  0  0  0  0  0  0  0  0  0  0
   18.3876    9.7343   12.4132 N   0  0  0  0  0  0  0  0  0  0  0  0
   19.3623    8.8223   12.2822 C   0  0  0  0  0  0  0  0  0  0  0  0
   20.5505    9.4634   12.2752 N   0  0  0  0  0  0  0  0  0  0  0  0
   20.3118   10.7850   12.4188 C   0  0  0  0  0  0  0  0  0  0  0  0
   21.1203   11.9170   12.4905 C   0  0  0  0  0  0  0  0  0  0  0  0
   22.4678   11.8125   12.4067 N   0  0  0  0  0  0  0  0  0  0  0  0
   20.5339   13.1271   12.6399 N   0  0  0  0  0  0  0  0  0  0  0  0
   19.2005   13.2510   12.7129 C   0  0  0  0  0  0  0  0  0  0  0  0
   18.4039   12.1795   12.6515 N   0  0  0  0  0  0  0  0  0  0  0  0
   18.9399   10.9424   12.5083 C   0  0  0  0  0  0  0  0  0  0  0  0
   22.8872   10.9285   12.2979 H   0  0  0  0  0  0  0  0  0  0  0  0
   23.0281   12.6206   12.4544 H   0  0  0  0  0  0  0  0  0  0  0  0
   16.0077   10.4866   10.4139 O   0  0  0  0  0  0  0  0  0  0  0  0
   15.4638   10.5183    8.8841 P   0  0  0  0  0  0  0  0  0  0  0  0
   16.4382    9.6685    8.1055 O   0  0  0  0  0  0  0  0  0  0  0  0
   15.4963   11.9891    8.5481 O   0  0  0  0  0  0  0  0  0  0  0  0
   14.0744    9.9275    8.9170 O   0  0  0  0  0  0  0  0  0  0  0  0
   16.3519    8.7426    8.3814 H   0  0  0  0  0  0  0  0  0  0  0  0
   14.8435   12.4592    9.0902 H   0  0  0  0  0  0  0  0  0  0  0  0
   15.0077    3.4488   10.9464 O   0  0  0  0  0  0  0  0  0  0  0  0
   15.3825    2.2205    9.9691 P   0  0  0  0  0  0  0  0  0  0  0  0
   15.6612    0.9924   10.8059 O   0  0  0  0  0  0  0  0  0  0  0  0
   16.4140    2.7360    8.9919 O   0  0  0  0  0  0  0  0  0  0  0  0
   14.8960    0.8067   11.3724 H   0  0  0  0  0  0  0  0  0  0  0  0
   14.0439    1.9410    9.1198 O   0  0  0  0  0  0  0  0  0  0  0  0
   13.9711    2.2122    7.7240 C   0  0  0  0  0  0  0  0  0  0  0  0
   12.5478    2.6079    7.3595 C   0  0  0  0  0  0  0  0  0  0  0  0
   12.2973    4.0030    7.5770 O   0  0  0  0  0  0  0  0  0  0  0  0
   12.2753    2.3634    5.8902 C   0  0  0  0  0  0  0  0  0  0  0  0
   11.9270    0.9884    5.6863 O   0  0  0  0  0  0  0  0  0  0  0  0
   11.1941    3.3846    5.5696 C   0  0  0  0  0  0  0  0  0  0  0  0
    9.8984    2.7682    5.5233 O   0  0  0  0  0  0  0  0  0  0  0  0
   11.2860    4.4529    6.6799 C   0  0  0  0  0  0  0  0  0  0  0  0
   11.1718    0.7591    6.2502 H   0  0  0  0  0  0  0  0  0  0  0  0
    9.7091    2.3488    6.3772 H   0  0  0  0  0  0  0  0  0  0  0  0
   11.5789    5.7920    6.0894 N   0  0  0  0  0  0  0  0  0  0  0  0
   10.7139    6.6199    5.4721 C   0  0  0  0  0  0  0  0  0  0  0  0
   11.3531    7.7566    5.1094 N   0  0  0  0  0  0  0  0  0  0  0  0
   12.6375    7.6567    5.5222 C   0  0  0  0  0  0  0  0  0  0  0  0
   13.7628    8.4937    5.4517 C   0  0  0  0  0  0  0  0  0  0  0  0
   13.7167    9.7169    4.8607 N   0  0  0  0  0  0  0  0  0  0  0  0
   14.9271    8.0615    5.9843 N   0  0  0  0  0  0  0  0  0  0  0  0
   15.0047    6.8574    6.5659 C   0  0  0  0  0  0  0  0  0  0  0  0
   13.9519    6.0433    6.6423 N   0  0  0  0  0  0  0  0  0  0  0  0
   12.7593    6.4151    6.1376 C   0  0  0  0  0  0  0  0  0  0  0  0
   12.8744   10.0429    4.4690 H   0  0  0  0  0  0  0  0  0  0  0  0
   14.5257   10.2768    4.8243 H   0  0  0  0  0  0  0  0  0  0  0  0
 27 26  1  0  0  0
 27 30  2  0  0  0
 27 29  1  0  0  0
 27 28  1  0  0  0
  1 33  1  0  0  0
  1  3  2  0  0  0
  1  5  1  0  0  0
  1  2  1  0  0  0
  5  6  1  0  0  0
  6  7  1  0  0  0
  7  8  1  0  0  0
  7  9  1  0  0  0
  8 12  1  0  0  0
  9 11  1  0  0  0
  9 10  1  0  0  0
 11 12  1  0  0  0
 11 26  1  0  0  0
 12 14  1  0  0  0
 14 15  1  0  0  0
 14 23  1  0  0  0
 15 16  2  0  0  0
 16 17  1  0  0  0
 17 18  1  0  0  0
 17 23  2  0  0  0
 18 19  1  0  0  0
 18 20  2  0  0  0
 20 21  1  0  0  0
 21 22  2  0  0  0
 22 23  1  0  0  0
 34 38  1  0  0  0
 34 33  1  0  0  0
 34 36  2  0  0  0
 34 35  1  0  0  0
 38 39  1  0  0  0
 39 40  1  0  0  0
 40 42  1  0  0  0
 40 41  1  0  0  0
 41 46  1  0  0  0
 42 44  1  0  0  0
 42 43  1  0  0  0
 44 45  1  0  0  0
 44 46  1  0  0  0
 46 49  1  0  0  0
 49 50  1  0  0  0
 49 58  1  0  0  0
 50 51  2  0  0  0
 51 52  1  0  0  0
 52 53  2  0  0  0
 52 58  1  0  0  0
 53 54  1  0  0  0
 53 55  1  0  0  0
 55 56  2  0  0  0
 56 57  1  0  0  0
 57 58  2  0  0  0
 28 31  1  0  0  0
 29 32  1  0  0  0
  2  4  1  0  0  0
 10 13  1  0  0  0
 19 24  1  0  0  0
 19 25  1  0  0  0
 35 37  1  0  0  0
 43 47  1  0  0  0
 45 48  1  0  0  0
 54 59  1  0  0  0
 54 60  1  0  0  0
M  END
> <minimizedAffinity>
-10.72732

$$$$
4DY6_A22_A_301


 60 65  0  0  0  0  0  0  0  0999 V2000
   17.3098    3.7660    7.5169 P   0  0  0  0  0  0  0  0  0  0  0  0
   16.4434    4.7644    6.7908 O   0  0  0  0  0  0  0  0  0  0  0  0
   17.9532    2.6381    6.7490 O   0  0  0  0  0  0  0  0  0  0  0  0
   15.7361    4.2966    6.3200 H   0  0  0  0  0  0  0  0  0  0  0  0
   18.4689    4.5927    8.2828 O   0  0  0  0  0  0  0  0  0  0  0  0
   18.3221    5.9924    8.5561 C   0  0  0  0  0  0  0  0  0  0  0  0
   17.4296    6.2884    9.7728 C   0  0  0  0  0  0  0  0  0  0  0  0
   18.1495    6.9561   10.8141 O   0  0  0  0  0  0  0  0  0  0  0  0
   16.2243    7.1761    9.4889 C   0  0  0  0  0  0  0  0  0  0  0  0
   15.0854    6.6012   10.1300 O   0  0  0  0  0  0  0  0  0  0  0  0
   16.5317    8.5266   10.1149 C   0  0  0  0  0  0  0  0  0  0  0  0
   17.3589    8.0514   11.2953 C   0  0  0  0  0  0  0  0  0  0  0  0
   15.2598    6.5122   11.0800 H   0  0  0  0  0  0  0  0  0  0  0  0
   18.2411    9.0692   11.9145 N   0  0  0  0  0  0  0  0  0  0  0  0
   18.5314   10.3031   11.4763 C   0  0  0  0  0  0  0  0  0  0  0  0
   19.3864   10.8774   12.3492 N   0  0  0  0  0  0  0  0  0  0  0  0
   19.6413    9.9855   13.3309 C   0  0  0  0  0  0  0  0  0  0  0  0
   20.4339   10.0000   14.4762 C   0  0  0  0  0  0  0  0  0  0  0  0
   21.1632   11.0940   14.8003 N   0  0  0  0  0  0  0  0  0  0  0  0
   20.4583    8.9009   15.2648 N   0  0  0  0  0  0  0  0  0  0  0  0
   19.7336    7.8128   14.9660 C   0  0  0  0  0  0  0  0  0  0  0  0
   18.9692    7.7727   13.8703 N   0  0  0  0  0  0  0  0  0  0  0  0
   18.9132    8.8446   13.0421 C   0  0  0  0  0  0  0  0  0  0  0  0
   21.1404   11.8901   14.2214 H   0  0  0  0  0  0  0  0  0  0  0  0
   21.7163   11.0934   15.6147 H   0  0  0  0  0  0  0  0  0  0  0  0
   15.3689    9.2732   10.5230 O   0  0  0  0  0  0  0  0  0  0  0  0
   14.8526   10.6138    9.7657 P   0  0  0  0  0  0  0  0  0  0  0  0
   15.4174   10.5156    8.3695 O   0  0  0  0  0  0  0  0  0  0  0  0
   15.4368   11.7204   10.6092 O   0  0  0  0  0  0  0  0  0  0  0  0
   13.3438   10.5574    9.7877 O   0  0  0  0  0  0  0  0  0  0  0  0
   14.9899    9.7832    7.8986 H   0  0  0  0  0  0  0  0  0  0  0  0
   15.0210   11.7127   11.4856 H   0  0  0  0  0  0  0  0  0  0  0  0
   16.3771    3.1380    8.6748 O   0  0  0  0  0  0  0  0  0  0  0  0
   14.7744    2.9725    8.5838 P   0  0  0  0  0  0  0  0  0  0  0  0
   14.1297    4.3325    8.7280 O   0  0  0  0  0  0  0  0  0  0  0  0
   14.3968    1.8397    9.5106 O   0  0  0  0  0  0  0  0  0  0  0  0
   14.4879    4.9331    8.0558 H   0  0  0  0  0  0  0  0  0  0  0  0
   14.4940    2.4539    7.0859 O   0  0  0  0  0  0  0  0  0  0  0  0
   13.5025    1.4712    6.8059 C   0  0  0  0  0  0  0  0  0  0  0  0
   12.2179    2.1595    6.3688 C   0  0  0  0  0  0  0  0  0  0  0  0
   12.2657    3.5790    6.5665 O   0  0  0  0  0  0  0  0  0  0  0  0
   11.9692    1.9568    4.8889 C   0  0  0  0  0  0  0  0  0  0  0  0
   11.3412    0.6866    4.6748 O   0  0  0  0  0  0  0  0  0  0  0  0
   11.1517    3.1824    4.5097 C   0  0  0  0  0  0  0  0  0  0  0  0
    9.7568    2.8603    4.4017 O   0  0  0  0  0  0  0  0  0  0  0  0
   11.4199    4.2229    5.6178 C   0  0  0  0  0  0  0  0  0  0  0  0
   10.5283    0.6350    5.2014 H   0  0  0  0  0  0  0  0  0  0  0  0
    9.4406    2.5051    5.2472 H   0  0  0  0  0  0  0  0  0  0  0  0
   12.0240    5.4576    5.0360 N   0  0  0  0  0  0  0  0  0  0  0  0
   12.1157    5.7865    3.7329 C   0  0  0  0  0  0  0  0  0  0  0  0
   12.6947    7.0039    3.6114 N   0  0  0  0  0  0  0  0  0  0  0  0
   12.9542    7.4630    4.8572 C   0  0  0  0  0  0  0  0  0  0  0  0
   13.5230    8.6377    5.3755 C   0  0  0  0  0  0  0  0  0  0  0  0
   13.9693    9.6391    4.5721 N   0  0  0  0  0  0  0  0  0  0  0  0
   13.6332    8.7681    6.7161 N   0  0  0  0  0  0  0  0  0  0  0  0
   13.2095    7.7944    7.5324 C   0  0  0  0  0  0  0  0  0  0  0  0
   12.6695    6.6689    7.0648 N   0  0  0  0  0  0  0  0  0  0  0  0
   12.5237    6.4772    5.7392 C   0  0  0  0  0  0  0  0  0  0  0  0
   13.8946    9.5558    3.5940 H   0  0  0  0  0  0  0  0  0  0  0  0
   14.3673   10.4477    4.9683 H   0  0  0  0  0  0  0  0  0  0  0  0
 27 26  1  0  0  0
 27 30  2  0  0  0
 27 29  1  0  0  0
 27 28  1  0  0  0
  1 33  1  0  0  0
  1  3  2  0  0  0
  1  5  1  0  0  0
  1  2  1  0  0  0
  5  6  1  0  0  0
  6  7  1  0  0  0
  7  8  1  0  0  0
  7  9  1  0  0  0
  8 12  1  0  0  0
  9 11  1  0  0  0
  9 10  1  0  0  0
 11 12  1  0  0  0
 11 26  1  0  0  0
 12 14  1  0  0  0
 14 15  1  0  0  0
 14 23  1  0  0  0
 15 16  2  0  0  0
 16 17  1  0  0  0
 17 18  1  0  0  0
 17 23  2  0  0  0
 18 19  1  0  0  0
 18 20  2  0  0  0
 20 21  1  0  0  0
 21 22  2  0  0  0
 22 23  1  0  0  0
 34 38  1  0  0  0
 34 33  1  0  0  0
 34 36  2  0  0  0
 34 35  1  0  0  0
 38 39  1  0  0  0
 39 40  1  0  0  0
 40 42  1  0  0  0
 40 41  1  0  0  0
 41 46  1  0  0  0
 42 44  1  0  0  0
 42 43  1  0  0  0
 44 45  1  0  0  0
 44 46  1  0  0  0
 46 49  1  0  0  0
 49 50  1  0  0  0
 49 58  1  0  0  0
 50 51  2  0  0  0
 51 52  1  0  0  0
 52 53  2  0  0  0
 52 58  1  0  0  0
 53 54  1  0  0  0
 53 55  1  0  0  0
 55 56  2  0  0  0
 56 57  1  0  0  0
 57 58  2  0  0  0
 28 31  1  0  0  0
 29 32  1  0  0  0
  2  4  1  0  0  0
 10 13  1  0  0  0
 19 24  1  0  0  0
 19 25  1  0  0  0
 35 37  1  0  0  0
 43 47  1  0  0  0
 45 48  1  0  0  0
 54 59  1  0  0  0
 54 60  1  0  0  0
M  END
> <minimizedAffinity>
-10.61995

$$$$
4DY6_A22_A_301


 60 65  0  0  0  0  0  0  0  0999 V2000
   14.1966    4.3723    8.5598 P   0  0  0  0  0  0  0  0  0  0  0  0
   15.2390    3.2841    8.4988 O   0  0  0  0  0  0  0  0  0  0  0  0
   12.9931    4.2040    9.4536 O   0  0  0  0  0  0  0  0  0  0  0  0
   14.8166    2.4449    8.2577 H   0  0  0  0  0  0  0  0  0  0  0  0
   14.9485    5.7453    8.9638 O   0  0  0  0  0  0  0  0  0  0  0  0
   14.4506    6.5789   10.0185 C   0  0  0  0  0  0  0  0  0  0  0  0
   15.3180    6.5442   11.2878 C   0  0  0  0  0  0  0  0  0  0  0  0
   16.6432    6.0762   11.0171 O   0  0  0  0  0  0  0  0  0  0  0  0
   15.5037    7.8885   11.9802 C   0  0  0  0  0  0  0  0  0  0  0  0
   15.3183    7.6977   13.3830 O   0  0  0  0  0  0  0  0  0  0  0  0
   16.9379    8.3134   11.7106 C   0  0  0  0  0  0  0  0  0  0  0  0
   17.5824    6.9398   11.6716 C   0  0  0  0  0  0  0  0  0  0  0  0
   15.9445    7.0302   13.7040 H   0  0  0  0  0  0  0  0  0  0  0  0
   18.8935    6.8634   10.9841 N   0  0  0  0  0  0  0  0  0  0  0  0
   19.1519    6.5417    9.7079 C   0  0  0  0  0  0  0  0  0  0  0  0
   20.4875    6.5892    9.5162 N   0  0  0  0  0  0  0  0  0  0  0  0
   21.0649    6.9286   10.6891 C   0  0  0  0  0  0  0  0  0  0  0  0
   22.3801    7.1207   11.1058 C   0  0  0  0  0  0  0  0  0  0  0  0
   23.4104    6.9692   10.2401 N   0  0  0  0  0  0  0  0  0  0  0  0
   22.6109    7.4679   12.3929 N   0  0  0  0  0  0  0  0  0  0  0  0
   21.6025    7.6339   13.2613 C   0  0  0  0  0  0  0  0  0  0  0  0
   20.3325    7.4506   12.8868 N   0  0  0  0  0  0  0  0  0  0  0  0
   20.0457    7.0959   11.6101 C   0  0  0  0  0  0  0  0  0  0  0  0
   23.2345    6.7164    9.3050 H   0  0  0  0  0  0  0  0  0  0  0  0
   24.3353    7.1119   10.5458 H   0  0  0  0  0  0  0  0  0  0  0  0
   17.5097    9.1607   12.7260 O   0  0  0  0  0  0  0  0  0  0  0  0
   17.6113   10.7761   12.5934 P   0  0  0  0  0  0  0  0  0  0  0  0
   17.9974   11.0263   11.1560 O   0  0  0  0  0  0  0  0  0  0  0  0
   18.6736   11.1285   13.6056 O   0  0  0  0  0  0  0  0  0  0  0  0
   16.2413   11.3149   12.9296 O   0  0  0  0  0  0  0  0  0  0  0  0
   17.2624   10.7744   10.5752 H   0  0  0  0  0  0  0  0  0  0  0  0
   18.3455   10.9381   14.4983 H   0  0  0  0  0  0  0  0  0  0  0  0
   13.6891    4.5775    7.0414 O   0  0  0  0  0  0  0  0  0  0  0  0
   12.8289    3.5020    6.2001 P   0  0  0  0  0  0  0  0  0  0  0  0
   12.5221    2.3154    7.0855 O   0  0  0  0  0  0  0  0  0  0  0  0
   13.5357    3.3128    4.8774 O   0  0  0  0  0  0  0  0  0  0  0  0
   12.0695    2.6191    7.8878 H   0  0  0  0  0  0  0  0  0  0  0  0
   11.4376    4.2439    5.8759 O   0  0  0  0  0  0  0  0  0  0  0  0
   10.5862    4.7261    6.9101 C   0  0  0  0  0  0  0  0  0  0  0  0
   10.4995    6.2430    6.8273 C   0  0  0  0  0  0  0  0  0  0  0  0
   11.4663    6.8907    7.6652 O   0  0  0  0  0  0  0  0  0  0  0  0
   10.7814    6.7273    5.4206 C   0  0  0  0  0  0  0  0  0  0  0  0
    9.5899    6.6332    4.6300 O   0  0  0  0  0  0  0  0  0  0  0  0
   11.3287    8.1288    5.6460 C   0  0  0  0  0  0  0  0  0  0  0  0
   10.3278    9.1234    5.3813 O   0  0  0  0  0  0  0  0  0  0  0  0
   11.8010    8.1617    7.1152 C   0  0  0  0  0  0  0  0  0  0  0  0
    8.8762    7.1292    5.0606 H   0  0  0  0  0  0  0  0  0  0  0  0
    9.5630    8.9741    5.9590 H   0  0  0  0  0  0  0  0  0  0  0  0
   13.2607    8.4652    7.1849 N   0  0  0  0  0  0  0  0  0  0  0  0
   14.2322    7.9975    6.3774 C   0  0  0  0  0  0  0  0  0  0  0  0
   15.4211    8.5339    6.7392 N   0  0  0  0  0  0  0  0  0  0  0  0
   15.1965    9.3709    7.7780 C   0  0  0  0  0  0  0  0  0  0  0  0
   16.0076   10.2057    8.5636 C   0  0  0  0  0  0  0  0  0  0  0  0
   17.3485   10.3048    8.3642 N   0  0  0  0  0  0  0  0  0  0  0  0
   15.4323   10.9260    9.5516 N   0  0  0  0  0  0  0  0  0  0  0  0
   14.1145   10.8424    9.7769 C   0  0  0  0  0  0  0  0  0  0  0  0
   13.3242   10.0549    9.0474 N   0  0  0  0  0  0  0  0  0  0  0  0
   13.8320    9.3153    8.0423 C   0  0  0  0  0  0  0  0  0  0  0  0
   17.7794    9.7851    7.6476 H   0  0  0  0  0  0  0  0  0  0  0  0
   17.8889   10.8963    8.9363 H   0  0  0  0  0  0  0  0  0  0  0  0
 27 26  1  0  0  0
 27 30  2  0  0  0
 27 29  1  0  0  0
 27 28  1  0  0  0
  1 33  1  0  0  0
  1  3  2  0  0  0
  1  5  1  0  0  0
  1  2  1  0  0  0
  5  6  1  0  0  0
  6  7  1  0  0  0
  7  8  1  0  0  0
  7  9  1  0  0  0
  8 12  1  0  0  0
  9 11  1  0  0  0
  9 10  1  0  0  0
 11 12  1  0  0  0
 11 26  1  0  0  0
 12 14  1  0  0  0
 14 15  1  0  0  0
 14 23  1  0  0  0
 15 16  2  0  0  0
 16 17  1  0  0  0
 17 18  1  0  0  0
 17 23  2  0  0  0
 18 19  1  0  0  0
 18 20  2  0  0  0
 20 21  1  0  0  0
 21 22  2  0  0  0
 22 23  1  0  0  0
 34 38  1  0  0  0
 34 33  1  0  0  0
 34 36  2  0  0  0
 34 35  1  0  0  0
 38 39  1  0  0  0
 39 40  1  0  0  0
 40 42  1  0  0  0
 40 41  1  0  0  0
 41 46  1  0  0  0
 42 44  1  0  0  0
 42 43  1  0  0  0
 44 45  1  0  0  0
 44 46  1  0  0  0
 46 49  1  0  0  0
 49 50  1  0  0  0
 49 58  1  0  0  0
 50 51  2  0  0  0
 51 52  1  0  0  0
 52 53  2  0  0  0
 52 58  1  0  0  0
 53 54  1  0  0  0
 53 55  1  0  0  0
 55 56  2  0  0  0
 56 57  1  0  0  0
 57 58  2  0  0  0
 28 31  1  0  0  0
 29 32  1  0  0  0
  2  4  1  0  0  0
 10 13  1  0  0  0
 19 24  1  0  0  0
 19 25  1  0  0  0
 35 37  1  0  0  0
 43 47  1  0  0  0
 45 48  1  0  0  0
 54 59  1  0  0  0
 54 60  1  0  0  0
M  END
> <minimizedAffinity>
-10.58989

$$$$
4DY6_A22_A_301


 60 65  0  0  0  0  0  0  0  0999 V2000
   16.2260    7.0705   14.2798 P   0  0  0  0  0  0  0  0  0  0  0  0
   16.3422    6.9653   12.7798 O   0  0  0  0  0  0  0  0  0  0  0  0
   16.1988    5.8154   15.1163 O   0  0  0  0  0  0  0  0  0  0  0  0
   15.6261    6.4073   12.4383 H   0  0  0  0  0  0  0  0  0  0  0  0
   17.4376    8.0071   14.7980 O   0  0  0  0  0  0  0  0  0  0  0  0
   17.9700    7.8634   16.1212 C   0  0  0  0  0  0  0  0  0  0  0  0
   19.3189    8.5748   16.3191 C   0  0  0  0  0  0  0  0  0  0  0  0
   20.3798    7.9123   15.6233 O   0  0  0  0  0  0  0  0  0  0  0  0
   19.3649   10.0185   15.8345 C   0  0  0  0  0  0  0  0  0  0  0  0
   20.0084   10.8057   16.8369 O   0  0  0  0  0  0  0  0  0  0  0  0
   20.2082   10.0180   14.5700 C   0  0  0  0  0  0  0  0  0  0  0  0
   21.1620    8.8932   14.9287 C   0  0  0  0  0  0  0  0  0  0  0  0
   20.8935   10.4484   17.0098 H   0  0  0  0  0  0  0  0  0  0  0  0
   21.8633    8.2559   13.7888 N   0  0  0  0  0  0  0  0  0  0  0  0
   23.1759    8.0254   13.6368 C   0  0  0  0  0  0  0  0  0  0  0  0
   23.3708    7.4330   12.4394 N   0  0  0  0  0  0  0  0  0  0  0  0
   22.1691    7.3085   11.8355 C   0  0  0  0  0  0  0  0  0  0  0  0
   21.7441    6.7960   10.6120 C   0  0  0  0  0  0  0  0  0  0  0  0
   22.6317    6.2687    9.7357 N   0  0  0  0  0  0  0  0  0  0  0  0
   20.4244    6.8289   10.3157 N   0  0  0  0  0  0  0  0  0  0  0  0
   19.5295    7.3364   11.1761 C   0  0  0  0  0  0  0  0  0  0  0  0
   19.9132    7.8385   12.3540 N   0  0  0  0  0  0  0  0  0  0  0  0
   21.2245    7.8361   12.6983 C   0  0  0  0  0  0  0  0  0  0  0  0
   23.5904    6.2484    9.9583 H   0  0  0  0  0  0  0  0  0  0  0  0
   22.3182    5.9058    8.8759 H   0  0  0  0  0  0  0  0  0  0  0  0
   20.8935   11.2584   14.3098 O   0  0  0  0  0  0  0  0  0  0  0  0
   20.9133   11.9846   12.8574 P   0  0  0  0  0  0  0  0  0  0  0  0
   20.4106   13.3843   13.1138 O   0  0  0  0  0  0  0  0  0  0  0  0
   19.9878   11.1189   12.0381 O   0  0  0  0  0  0  0  0  0  0  0  0
   22.3495   11.9590   12.3914 O   0  0  0  0  0  0  0  0  0  0  0  0
   21.0619   13.8698   13.6440 H   0  0  0  0  0  0  0  0  0  0  0  0
   20.3848   10.2416   11.9212 H   0  0  0  0  0  0  0  0  0  0  0  0
   14.8730    7.9061   14.5561 O   0  0  0  0  0  0  0  0  0  0  0  0
   14.5580    9.3768   13.9713 P   0  0  0  0  0  0  0  0  0  0  0  0
   15.5963   10.3460   14.4899 O   0  0  0  0  0  0  0  0  0  0  0  0
   13.0856    9.6330   14.1972 O   0  0  0  0  0  0  0  0  0  0  0  0
   16.4820   10.0265   14.2564 H   0  0  0  0  0  0  0  0  0  0  0  0
   14.7628    9.2447   12.3801 O   0  0  0  0  0  0  0  0  0  0  0  0
   15.1777   10.3491   11.5832 C   0  0  0  0  0  0  0  0  0  0  0  0
   16.0783    9.8531   10.4615 C   0  0  0  0  0  0  0  0  0  0  0  0
   16.2809    8.4344   10.5123 O   0  0  0  0  0  0  0  0  0  0  0  0
   15.4636   10.1344    9.1065 C   0  0  0  0  0  0  0  0  0  0  0  0
   15.7505   11.4833    8.7171 O   0  0  0  0  0  0  0  0  0  0  0  0
   16.0569    9.0418    8.2298 C   0  0  0  0  0  0  0  0  0  0  0  0
   17.1318    9.5510    7.4258 O   0  0  0  0  0  0  0  0  0  0  0  0
   16.5334    7.9400    9.2001 C   0  0  0  0  0  0  0  0  0  0  0  0
   16.7098   11.6264    8.7299 H   0  0  0  0  0  0  0  0  0  0  0  0
   17.8206    9.9181    8.0017 H   0  0  0  0  0  0  0  0  0  0  0  0
   15.8312    6.6548    8.9121 N   0  0  0  0  0  0  0  0  0  0  0  0
   14.5084    6.4118    8.9871 C   0  0  0  0  0  0  0  0  0  0  0  0
   14.2590    5.1354    8.6116 N   0  0  0  0  0  0  0  0  0  0  0  0
   15.4392    4.5676    8.2728 C   0  0  0  0  0  0  0  0  0  0  0  0
   15.8247    3.3004    7.8060 C   0  0  0  0  0  0  0  0  0  0  0  0
   14.9248    2.3029    7.5991 N   0  0  0  0  0  0  0  0  0  0  0  0
   17.1337    3.0695    7.5627 N   0  0  0  0  0  0  0  0  0  0  0  0
   18.0442    4.0308    7.7652 C   0  0  0  0  0  0  0  0  0  0  0  0
   17.7039    5.2401    8.2108 N   0  0  0  0  0  0  0  0  0  0  0  0
   16.4154    5.5393    8.4668 C   0  0  0  0  0  0  0  0  0  0  0  0
   13.9684    2.4589    7.7727 H   0  0  0  0  0  0  0  0  0  0  0  0
   15.2295    1.4244    7.2755 H   0  0  0  0  0  0  0  0  0  0  0  0
 27 26  1  0  0  0
 27 30  2  0  0  0
 27 29  1  0  0  0
 27 28  1  0  0  0
  1 33  1  0  0  0
  1  3  2  0  0  0
  1  5  1  0  0  0
  1  2  1  0  0  0
  5  6  1  0  0  0
  6  7  1  0  0  0
  7  8  1  0  0  0
  7  9  1  0  0  0
  8 12  1  0  0  0
  9 11  1  0  0  0
  9 10  1  0  0  0
 11 12  1  0  0  0
 11 26  1  0  0  0
 12 14  1  0  0  0
 14 15  1  0  0  0
 14 23  1  0  0  0
 15 16  2  0  0  0
 16 17  1  0  0  0
 17 18  1  0  0  0
 17 23  2  0  0  0
 18 19  1  0  0  0
 18 20  2  0  0  0
 20 21  1  0  0  0
 21 22  2  0  0  0
 22 23  1  0  0  0
 34 38  1  0  0  0
 34 33  1  0  0  0
 34 36  2  0  0  0
 34 35  1  0  0  0
 38 39  1  0  0  0
 39 40  1  0  0  0
 40 42  1  0  0  0
 40 41  1  0  0  0
 41 46  1  0  0  0
 42 44  1  0  0  0
 42 43  1  0  0  0
 44 45  1  0  0  0
 44 46  1  0  0  0
 46 49  1  0  0  0
 49 50  1  0  0  0
 49 58  1  0  0  0
 50 51  2  0  0  0
 51 52  1  0  0  0
 52 53  2  0  0  0
 52 58  1  0  0  0
 53 54  1  0  0  0
 53 55  1  0  0  0
 55 56  2  0  0  0
 56 57  1  0  0  0
 57 58  2  0  0  0
 28 31  1  0  0  0
 29 32  1  0  0  0
  2  4  1  0  0  0
 10 13  1  0  0  0
 19 24  1  0  0  0
 19 25  1  0  0  0
 35 37  1  0  0  0
 43 47  1  0  0  0
 45 48  1  0  0  0
 54 59  1  0  0  0
 54 60  1  0  0  0
M  END
> <minimizedAffinity>
-10.55451

$$$$
4DY6_A22_A_301


 60 65  0  0  0  0  0  0  0  0999 V2000
   13.9832    9.9864   11.7220 P   0  0  0  0  0  0  0  0  0  0  0  0
   12.6936   10.0346   10.9416 O   0  0  0  0  0  0  0  0  0  0  0  0
   14.1313   10.8187   12.9714 O   0  0  0  0  0  0  0  0  0  0  0  0
   12.4955   10.9531   10.7008 H   0  0  0  0  0  0  0  0  0  0  0  0
   14.2678    8.4401   12.0981 O   0  0  0  0  0  0  0  0  0  0  0  0
   15.3875    7.7376   11.5433 C   0  0  0  0  0  0  0  0  0  0  0  0
   16.5127    7.4791   12.5592 C   0  0  0  0  0  0  0  0  0  0  0  0
   17.5989    6.7491   11.9796 O   0  0  0  0  0  0  0  0  0  0  0  0
   17.1459    8.7307   13.1539 C   0  0  0  0  0  0  0  0  0  0  0  0
   17.2753    8.5393   14.5629 O   0  0  0  0  0  0  0  0  0  0  0  0
   18.5261    8.8495   12.5287 C   0  0  0  0  0  0  0  0  0  0  0  0
   18.8324    7.3723   12.3621 C   0  0  0  0  0  0  0  0  0  0  0  0
   17.8038    7.7441   14.7339 H   0  0  0  0  0  0  0  0  0  0  0  0
   19.8862    7.0410   11.3737 N   0  0  0  0  0  0  0  0  0  0  0  0
   19.7465    6.6964   10.0850 C   0  0  0  0  0  0  0  0  0  0  0  0
   20.9726    6.4722    9.5662 N   0  0  0  0  0  0  0  0  0  0  0  0
   21.8814    6.6645   10.5467 C   0  0  0  0  0  0  0  0  0  0  0  0
   23.2697    6.5749   10.6171 C   0  0  0  0  0  0  0  0  0  0  0  0
   23.9979    6.2310    9.5284 N   0  0  0  0  0  0  0  0  0  0  0  0
   23.8805    6.8439   11.7940 N   0  0  0  0  0  0  0  0  0  0  0  0
   23.1765    7.1975   12.8794 C   0  0  0  0  0  0  0  0  0  0  0  0
   21.8434    7.2856   12.8384 N   0  0  0  0  0  0  0  0  0  0  0  0
   21.1807    7.0206   11.6857 C   0  0  0  0  0  0  0  0  0  0  0  0
   23.5463    6.0367    8.6754 H   0  0  0  0  0  0  0  0  0  0  0  0
   24.9789    6.1753    9.5899 H   0  0  0  0  0  0  0  0  0  0  0  0
   19.4977    9.5234   13.3519 O   0  0  0  0  0  0  0  0  0  0  0  0
   20.3138   10.8447   12.8769 P   0  0  0  0  0  0  0  0  0  0  0  0
   21.5548   10.3150   12.2008 O   0  0  0  0  0  0  0  0  0  0  0  0
   20.5609   11.5703   14.1767 O   0  0  0  0  0  0  0  0  0  0  0  0
   19.4039   11.5842   11.9252 O   0  0  0  0  0  0  0  0  0  0  0  0
   21.3076    9.8655   11.3775 H   0  0  0  0  0  0  0  0  0  0  0  0
   19.7159   11.8760   14.5421 H   0  0  0  0  0  0  0  0  0  0  0  0
   15.1413   10.4074   10.6794 O   0  0  0  0  0  0  0  0  0  0  0  0
   14.8841   11.0097    9.2045 P   0  0  0  0  0  0  0  0  0  0  0  0
   16.2167   11.2588    8.5349 O   0  0  0  0  0  0  0  0  0  0  0  0
   13.8783   12.1277    9.3562 O   0  0  0  0  0  0  0  0  0  0  0  0
   16.7320   10.4371    8.5246 H   0  0  0  0  0  0  0  0  0  0  0  0
   14.1429    9.8308    8.3970 O   0  0  0  0  0  0  0  0  0  0  0  0
   14.8712    8.7959    7.7445 C   0  0  0  0  0  0  0  0  0  0  0  0
   13.9987    8.1639    6.6701 C   0  0  0  0  0  0  0  0  0  0  0  0
   14.5466    6.9338    6.1770 O   0  0  0  0  0  0  0  0  0  0  0  0
   12.6299    7.8167    7.2166 C   0  0  0  0  0  0  0  0  0  0  0  0
   11.7910    8.9783    7.1902 O   0  0  0  0  0  0  0  0  0  0  0  0
   12.1958    6.6549    6.3354 C   0  0  0  0  0  0  0  0  0  0  0  0
   11.2669    7.0877    5.3300 O   0  0  0  0  0  0  0  0  0  0  0  0
   13.4934    6.0909    5.7184 C   0  0  0  0  0  0  0  0  0  0  0  0
   11.7551    9.3308    6.2873 H   0  0  0  0  0  0  0  0  0  0  0  0
   11.6785    7.7759    4.7843 H   0  0  0  0  0  0  0  0  0  0  0  0
   13.6746    4.6612    6.1068 N   0  0  0  0  0  0  0  0  0  0  0  0
   14.5184    4.1668    7.0333 C   0  0  0  0  0  0  0  0  0  0  0  0
   14.3608    2.8253    7.1212 N   0  0  0  0  0  0  0  0  0  0  0  0
   13.3874    2.4669    6.2529 C   0  0  0  0  0  0  0  0  0  0  0  0
   12.7803    1.2505    5.9009 C   0  0  0  0  0  0  0  0  0  0  0  0
   13.1446    0.0708    6.4693 N   0  0  0  0  0  0  0  0  0  0  0  0
   11.8082    1.2585    4.9622 N   0  0  0  0  0  0  0  0  0  0  0  0
   11.4339    2.4048    4.3789 C   0  0  0  0  0  0  0  0  0  0  0  0
   11.9971    3.5713    4.6933 N   0  0  0  0  0  0  0  0  0  0  0  0
   12.9674    3.6354    5.6259 C   0  0  0  0  0  0  0  0  0  0  0  0
   13.8515    0.0519    7.1542 H   0  0  0  0  0  0  0  0  0  0  0  0
   12.7016   -0.7649    6.1960 H   0  0  0  0  0  0  0  0  0  0  0  0
 27 26  1  0  0  0
 27 30  2  0  0  0
 27 29  1  0  0  0
 27 28  1  0  0  0
  1 33  1  0  0  0
  1  3  2  0  0  0
  1  5  1  0  0  0
  1  2  1  0  0  0
  5  6  1  0  0  0
  6  7  1  0  0  0
  7  8  1  0  0  0
  7  9  1  0  0  0
  8 12  1  0  0  0
  9 11  1  0  0  0
  9 10  1  0  0  0
 11 12  1  0  0  0
 11 26  1  0  0  0
 12 14  1  0  0  0
 14 15  1  0  0  0
 14 23  1  0  0  0
 15 16  2  0  0  0
 16 17  1  0  0  0
 17 18  1  0  0  0
 17 23  2  0  0  0
 18 19  1  0  0  0
 18 20  2  0  0  0
 20 21  1  0  0  0
 21 22  2  0  0  0
 22 23  1  0  0  0
 34 38  1  0  0  0
 34 33  1  0  0  0
 34 36  2  0  0  0
 34 35  1  0  0  0
 38 39  1  0  0  0
 39 40  1  0  0  0
 40 42  1  0  0  0
 40 41  1  0  0  0
 41 46  1  0  0  0
 42 44  1  0  0  0
 42 43  1  0  0  0
 44 45  1  0  0  0
 44 46  1  0  0  0
 46 49  1  0  0  0
 49 50  1  0  0  0
 49 58  1  0  0  0
 50 51  2  0  0  0
 51 52  1  0  0  0
 52 53  2  0  0  0
 52 58  1  0  0  0
 53 54  1  0  0  0
 53 55  1  0  0  0
 55 56  2  0  0  0
 56 57  1  0  0  0
 57 58  2  0  0  0
 28 31  1  0  0  0
 29 32  1  0  0  0
  2  4  1  0  0  0
 10 13  1  0  0  0
 19 24  1  0  0  0
 19 25  1  0  0  0
 35 37  1  0  0  0
 43 47  1  0  0  0
 45 48  1  0  0  0
 54 59  1  0  0  0
 54 60  1  0  0  0
M  END
> <minimizedAffinity>
-10.54214

$$$$
4DY6_A22_A_301


 60 65  0  0  0  0  0  0  0  0999 V2000
   14.9635    9.2437   16.9048 P   0  0  0  0  0  0  0  0  0  0  0  0
   14.0173    8.1282   17.2721 O   0  0  0  0  0  0  0  0  0  0  0  0
   15.1728   10.3908   17.8619 O   0  0  0  0  0  0  0  0  0  0  0  0
   13.1436    8.4984   17.4731 H   0  0  0  0  0  0  0  0  0  0  0  0
   16.4001    8.5770   16.5800 O   0  0  0  0  0  0  0  0  0  0  0  0
   17.4885    9.3686   16.0860 C   0  0  0  0  0  0  0  0  0  0  0  0
   18.5854    8.5396   15.3974 C   0  0  0  0  0  0  0  0  0  0  0  0
   19.1825    9.2454   14.3048 O   0  0  0  0  0  0  0  0  0  0  0  0
   19.7488    8.1359   16.2945 C   0  0  0  0  0  0  0  0  0  0  0  0
   20.0404    6.7589   16.0550 O   0  0  0  0  0  0  0  0  0  0  0  0
   20.9330    8.9875   15.8675 C   0  0  0  0  0  0  0  0  0  0  0  0
   20.6077    9.1118   14.3902 C   0  0  0  0  0  0  0  0  0  0  0  0
   20.2402    6.6295   15.1147 H   0  0  0  0  0  0  0  0  0  0  0  0
   21.2578   10.2392   13.6805 N   0  0  0  0  0  0  0  0  0  0  0  0
   22.5571   10.4111   13.3957 C   0  0  0  0  0  0  0  0  0  0  0  0
   22.7015   11.5863   12.7470 N   0  0  0  0  0  0  0  0  0  0  0  0
   21.4818   12.1568   12.6416 C   0  0  0  0  0  0  0  0  0  0  0  0
   21.0090   13.3472   12.0944 C   0  0  0  0  0  0  0  0  0  0  0  0
   21.8555   14.2203   11.4987 N   0  0  0  0  0  0  0  0  0  0  0  0
   19.6845   13.6145   12.1633 N   0  0  0  0  0  0  0  0  0  0  0  0
   18.8296   12.7562   12.7390 C   0  0  0  0  0  0  0  0  0  0  0  0
   19.2596   11.6099   13.2754 N   0  0  0  0  0  0  0  0  0  0  0  0
   20.5779   11.2959   13.2392 C   0  0  0  0  0  0  0  0  0  0  0  0
   22.8181   14.0189   11.4524 H   0  0  0  0  0  0  0  0  0  0  0  0
   21.5084   15.0565   11.1118 H   0  0  0  0  0  0  0  0  0  0  0  0
   22.2188    8.3797   16.0983 O   0  0  0  0  0  0  0  0  0  0  0  0
   23.4710    9.1603   16.7766 P   0  0  0  0  0  0  0  0  0  0  0  0
   24.6075    9.0010   15.7965 O   0  0  0  0  0  0  0  0  0  0  0  0
   23.6535    8.4277   18.0832 O   0  0  0  0  0  0  0  0  0  0  0  0
   23.0372   10.5980   16.9353 O   0  0  0  0  0  0  0  0  0  0  0  0
   24.4104    9.5008   14.9888 H   0  0  0  0  0  0  0  0  0  0  0  0
   22.8825    8.5825   18.6512 H   0  0  0  0  0  0  0  0  0  0  0  0
   14.4227    9.8319   15.5023 O   0  0  0  0  0  0  0  0  0  0  0  0
   13.5396    9.0076   14.4323 P   0  0  0  0  0  0  0  0  0  0  0  0
   12.1175    8.9116   14.9369 O   0  0  0  0  0  0  0  0  0  0  0  0
   14.3197    7.7596   14.0878 O   0  0  0  0  0  0  0  0  0  0  0  0
   11.7737    9.8027   15.1064 H   0  0  0  0  0  0  0  0  0  0  0  0
   13.5288    9.9232   13.1083 O   0  0  0  0  0  0  0  0  0  0  0  0
   13.5592    9.3548   11.8033 C   0  0  0  0  0  0  0  0  0  0  0  0
   14.7096    9.9622   11.0141 C   0  0  0  0  0  0  0  0  0  0  0  0
   15.8509    9.0958   10.9600 O   0  0  0  0  0  0  0  0  0  0  0  0
   14.3101   10.2095    9.5746 C   0  0  0  0  0  0  0  0  0  0  0  0
   13.6075   11.4546    9.4759 O   0  0  0  0  0  0  0  0  0  0  0  0
   15.6363   10.1263    8.8338 C   0  0  0  0  0  0  0  0  0  0  0  0
   16.1373   11.4351    8.5223 O   0  0  0  0  0  0  0  0  0  0  0  0
   16.5890    9.3506    9.7683 C   0  0  0  0  0  0  0  0  0  0  0  0
   14.1578   12.1660    9.8390 H   0  0  0  0  0  0  0  0  0  0  0  0
   16.2518   11.9411    9.3419 H   0  0  0  0  0  0  0  0  0  0  0  0
   17.0730    8.1067    9.1004 N   0  0  0  0  0  0  0  0  0  0  0  0
   16.4545    7.4067    8.1298 C   0  0  0  0  0  0  0  0  0  0  0  0
   17.2303    6.3613    7.7589 N   0  0  0  0  0  0  0  0  0  0  0  0
   18.3672    6.4121    8.4903 C   0  0  0  0  0  0  0  0  0  0  0  0
   19.5323    5.6307    8.5555 C   0  0  0  0  0  0  0  0  0  0  0  0
   19.7113    4.5348    7.7716 N   0  0  0  0  0  0  0  0  0  0  0  0
   20.4998    5.9808    9.4315 N   0  0  0  0  0  0  0  0  0  0  0  0
   20.3478    7.0510   10.2226 C   0  0  0  0  0  0  0  0  0  0  0  0
   19.2501    7.8062   10.1820 N   0  0  0  0  0  0  0  0  0  0  0  0
   18.2500    7.5174    9.3266 C   0  0  0  0  0  0  0  0  0  0  0  0
   19.0137    4.2696    7.1295 H   0  0  0  0  0  0  0  0  0  0  0  0
   20.5385    4.0063    7.8459 H   0  0  0  0  0  0  0  0  0  0  0  0
 27 26  1  0  0  0
 27 30  2  0  0  0
 27 29  1  0  0  0
 27 28  1  0  0  0
  1 33  1  0  0  0
  1  3  2  0  0  0
  1  5  1  0  0  0
  1  2  1  0  0  0
  5  6  1  0  0  0
  6  7  1  0  0  0
  7  8  1  0  0  0
  7  9  1  0  0  0
  8 12  1  0  0  0
  9 11  1  0  0  0
  9 10  1  0  0  0
 11 12  1  0  0  0
 11 26  1  0  0  0
 12 14  1  0  0  0
 14 15  1  0  0  0
 14 23  1  0  0  0
 15 16  2  0  0  0
 16 17  1  0  0  0
 17 18  1  0  0  0
 17 23  2  0  0  0
 18 19  1  0  0  0
 18 20  2  0  0  0
 20 21  1  0  0  0
 21 22  2  0  0  0
 22 23  1  0  0  0
 34 38  1  0  0  0
 34 33  1  0  0  0
 34 36  2  0  0  0
 34 35  1  0  0  0
 38 39  1  0  0  0
 39 40  1  0  0  0
 40 42  1  0  0  0
 40 41  1  0  0  0
 41 46  1  0  0  0
 42 44  1  0  0  0
 42 43  1  0  0  0
 44 45  1  0  0  0
 44 46  1  0  0  0
 46 49  1  0  0  0
 49 50  1  0  0  0
 49 58  1  0  0  0
 50 51  2  0  0  0
 51 52  1  0  0  0
 52 53  2  0  0  0
 52 58  1  0  0  0
 53 54  1  0  0  0
 53 55  1  0  0  0
 55 56  2  0  0  0
 56 57  1  0  0  0
 57 58  2  0  0  0
 28 31  1  0  0  0
 29 32  1  0  0  0
  2  4  1  0  0  0
 10 13  1  0  0  0
 19 24  1  0  0  0
 19 25  1  0  0  0
 35 37  1  0  0  0
 43 47  1  0  0  0
 45 48  1  0  0  0
 54 59  1  0  0  0
 54 60  1  0  0  0
M  END
> <minimizedAffinity>
-10.54014

$$$$
