6GNM_27M_B_201
  RCSB PDB07221819433D
Coordinates from PDB:6GNM:B:201 Model:1 without hydrogens
 18 19  0  0  0  0            999 V2000
  -14.9260   -1.8060  -40.9500   O 0  0  0  0  0  0  0  0  0  0  0  0
  -13.9110   -2.2710  -40.1730   C 0  0  0  0  0  0  0  0  0  0  0  0
  -12.6100   -2.2430  -40.6600   C 0  0  0  0  0  0  0  0  0  0  0  0
  -11.5670   -2.7230  -39.8800   C 0  0  0  0  0  0  0  0  0  0  0  0
  -10.2480   -2.7030  -40.3670   O 0  0  0  0  0  0  0  0  0  0  0  0
  -11.8250   -3.2180  -38.6120   C 0  0  0  0  0  0  0  0  0  0  0  0
  -13.1240   -3.2400  -38.1270   C 0  0  0  0  0  0  0  0  0  0  0  0
  -14.1760   -2.7710  -38.9030   C 0  0  0  0  0  0  0  0  0  0  0  0
  -15.5850   -2.8050  -38.3470   C 0  0  0  0  0  0  0  0  0  0  0  0
  -15.8680   -2.0960  -37.3990   O 0  0  0  0  0  0  0  0  0  0  0  0
  -16.6450   -3.7140  -38.9400   C 0  0  0  0  0  0  0  0  0  0  0  0
  -16.2940   -4.9040  -39.5610   C 0  0  0  0  0  0  0  0  0  0  0  0
  -17.2650   -5.7350  -40.0980   C 0  0  0  0  0  0  0  0  0  0  0  0
  -18.6010   -5.3790  -40.0160   C 0  0  0  0  0  0  0  0  0  0  0  0
  -19.5910   -6.2170  -40.5610   O 0  0  0  0  0  0  0  0  0  0  0  0
  -18.9600   -4.1920  -39.3970   C 0  0  0  0  0  0  0  0  0  0  0  0
  -17.9860   -3.3620  -38.8610   C 0  0  0  0  0  0  0  0  0  0  0  0
  -18.3480   -2.1970  -38.2520   O 0  0  0  0  0  0  0  0  0  0  0  0
  5  4  1  0  0  0  0
  3  4  2  0  0  0  0
  3  2  1  0  0  0  0
  4  6  1  0  0  0  0
  1  2  1  0  0  0  0
  2  8  2  0  0  0  0
  6  7  2  0  0  0  0
  8  7  1  0  0  0  0
  8  9  1  0  0  0  0
 10  9  2  0  0  0  0
  9 11  1  0  0  0  0
 11 12  2  0  0  0  0
 11 17  1  0  0  0  0
 18 17  1  0  0  0  0
 12 13  1  0  0  0  0
 17 16  2  0  0  0  0
 13 14  2  0  0  0  0
 16 14  1  0  0  0  0
 14 15  1  0  0  0  0
A    1
OAD
A    2
CAO
A    3
CAJ
A    4
CAM
A    5
OAB
A    6
CAF
A    7
CAH
A    8
CAQ
A    9
CAL
A   10
OAA
A   11
CAR
A   12
CAI
A   13
CAG
A   14
CAN
A   15
OAC
A   16
CAK
A   17
CAP
A   18
OAE
M  END
>  <InstanceId>
6GNM_27M_B_201

>  <ChemCompId>
27M

>  <PdbId>
6GNM

>  <ChainId>
B

>  <ResidueNumber>
201

>  <InsertionCode>


>  <Model>
1

>  <AltIds>


>  <MissingHeavyAtoms>
0

>  <ObservedFormula>
C13 O5

>  <Name>
bis(2,4-dihydroxyphenyl)methanone

>  <SystematicName>
bis[2,4-bis(oxidanyl)phenyl]methanone

>  <Synonyms>


>  <Type>
NON-POLYMER

>  <Formula>
C13 H10 O5

>  <MolecularWeight>
246.215

>  <ModifiedDate>
2014-08-29

>  <Parent>


>  <OneLetterCode>


>  <SubcomponentList>


>  <AmbiguousFlag>
N

>  <InChI>
InChI=1S/C13H10O5/c14-7-1-3-9(11(16)5-7)13(18)10-4-2-8(15)6-12(10)17/h1-6,14-17H

>  <InChIKey>
WXNRYSGJLQFHBR-UHFFFAOYSA-N

>  <SMILES>
c1cc(c(cc1O)O)C(=O)c2ccc(cc2O)O

$$$$
