4CR9_OTW_A_1489


 17 18  0  0  0  0  0  0  0  0999 V2000
   53.0580   19.6209   11.6323 C   0  0  0  0  0  0  0  0  0  0  0  0
   52.2414   20.8583   11.7971 C   0  0  0  0  0  0  0  0  0  0  0  0
   52.9121   22.0471   11.9561 C   0  0  0  0  0  0  0  0  0  0  0  0
   52.2010   23.2103   12.1082 C   0  0  0  0  0  0  0  0  0  0  0  0
   50.8643   23.2328   12.1109 N   0  0  0  0  0  0  0  0  0  0  0  0
   50.2105   22.0747   11.9584 C   0  0  0  0  0  0  0  0  0  0  0  0
   50.8572   20.8571   11.7976 C   0  0  0  0  0  0  0  0  0  0  0  0
   50.1369   19.6869   11.6417 C   0  0  0  0  0  0  0  0  0  0  0  0
   48.7545   19.7166   11.6466 C   0  0  0  0  0  0  0  0  0  0  0  0
   48.1047   20.9187   11.8057 C   0  0  0  0  0  0  0  0  0  0  0  0
   48.8305   22.0740   11.9590 C   0  0  0  0  0  0  0  0  0  0  0  0
   47.9904   18.5566   11.4934 N   0  0  0  0  0  0  0  0  0  0  0  0
   52.9353   24.3914   12.2619 N   0  0  0  0  0  0  0  0  0  0  0  0
   48.4352   17.6859   11.3782 H   0  0  0  0  0  0  0  0  0  0  0  0
   47.0074   18.6101   11.5007 H   0  0  0  0  0  0  0  0  0  0  0  0
   53.9194   24.3632   12.2584 H   0  0  0  0  0  0  0  0  0  0  0  0
   52.4679   25.2507   12.3736 H   0  0  0  0  0  0  0  0  0  0  0  0
  1  2  1  0  0  0
  2  3  2  0  0  0
  2  7  1  0  0  0
  3  4  1  0  0  0
  4  5  2  0  0  0
  4 13  1  0  0  0
  5  6  1  0  0  0
  6  7  2  0  0  0
  6 11  1  0  0  0
  7  8  1  0  0  0
  8  9  2  0  0  0
  9 10  1  0  0  0
  9 12  1  0  0  0
 10 11  2  0  0  0
 12 14  1  0  0  0
 12 15  1  0  0  0
 13 16  1  0  0  0
 13 17  1  0  0  0
M  END
> <minimizedAffinity>
-7.31447

$$$$
4CR9_OTW_A_1489


 17 18  0  0  0  0  0  0  0  0999 V2000
   49.1879   23.2571   11.6179 C   0  0  0  0  0  0  0  0  0  0  0  0
   49.4907   21.7983   11.6926 C   0  0  0  0  0  0  0  0  0  0  0  0
   48.4319   20.9245   11.6299 C   0  0  0  0  0  0  0  0  0  0  0  0
   48.6645   19.5739   11.6921 C   0  0  0  0  0  0  0  0  0  0  0  0
   49.8958   19.0682   11.8159 N   0  0  0  0  0  0  0  0  0  0  0  0
   50.9272   19.9191   11.8794 C   0  0  0  0  0  0  0  0  0  0  0  0
   50.7746   21.2975   11.8217 C   0  0  0  0  0  0  0  0  0  0  0  0
   51.8724   22.1358   11.8897 C   0  0  0  0  0  0  0  0  0  0  0  0
   53.1432   21.6066   12.0189 C   0  0  0  0  0  0  0  0  0  0  0  0
   53.3044   20.2415   12.0772 C   0  0  0  0  0  0  0  0  0  0  0  0
   52.2071   19.4192   12.0081 C   0  0  0  0  0  0  0  0  0  0  0  0
   54.2777   22.4193   12.0921 N   0  0  0  0  0  0  0  0  0  0  0  0
   47.5502   18.7308   11.6194 N   0  0  0  0  0  0  0  0  0  0  0  0
   54.1850   23.3986   12.0523 H   0  0  0  0  0  0  0  0  0  0  0  0
   55.1695   22.0125   12.1835 H   0  0  0  0  0  0  0  0  0  0  0  0
   46.6479   19.1141   11.5283 H   0  0  0  0  0  0  0  0  0  0  0  0
   47.6683   17.7542   11.6593 H   0  0  0  0  0  0  0  0  0  0  0  0
  1  2  1  0  0  0
  2  3  2  0  0  0
  2  7  1  0  0  0
  3  4  1  0  0  0
  4  5  2  0  0  0
  4 13  1  0  0  0
  5  6  1  0  0  0
  6  7  2  0  0  0
  6 11  1  0  0  0
  7  8  1  0  0  0
  8  9  2  0  0  0
  9 10  1  0  0  0
  9 12  1  0  0  0
 10 11  2  0  0  0
 12 14  1  0  0  0
 12 15  1  0  0  0
 13 16  1  0  0  0
 13 17  1  0  0  0
M  END
> <minimizedAffinity>
-6.84552

$$$$
4CR9_OTW_A_1489


 17 18  0  0  0  0  0  0  0  0999 V2000
   49.6851   23.5341   12.1639 C   0  0  0  0  0  0  0  0  0  0  0  0
   50.0515   22.1083   11.9227 C   0  0  0  0  0  0  0  0  0  0  0  0
   51.3770   21.8203   11.7023 C   0  0  0  0  0  0  0  0  0  0  0  0
   51.7594   20.5220   11.4788 C   0  0  0  0  0  0  0  0  0  0  0  0
   50.8819   19.5136   11.4638 N   0  0  0  0  0  0  0  0  0  0  0  0
   49.5903   19.7939   11.6762 C   0  0  0  0  0  0  0  0  0  0  0  0
   49.1247   21.0803   11.9110 C   0  0  0  0  0  0  0  0  0  0  0  0
   47.7798   21.3191   12.1268 C   0  0  0  0  0  0  0  0  0  0  0  0
   46.8770   20.2720   12.1089 C   0  0  0  0  0  0  0  0  0  0  0  0
   47.3291   18.9936   11.8767 C   0  0  0  0  0  0  0  0  0  0  0  0
   48.6667   18.7686   11.6644 C   0  0  0  0  0  0  0  0  0  0  0  0
   45.5103   20.4716   12.3212 N   0  0  0  0  0  0  0  0  0  0  0  0
   53.1219   20.2862   11.2645 N   0  0  0  0  0  0  0  0  0  0  0  0
   45.1655   21.3783   12.4892 H   0  0  0  0  0  0  0  0  0  0  0  0
   44.8922   19.7055   12.3028 H   0  0  0  0  0  0  0  0  0  0  0  0
   53.7593   21.0364   11.2777 H   0  0  0  0  0  0  0  0  0  0  0  0
   53.4431   19.3701   11.1006 H   0  0  0  0  0  0  0  0  0  0  0  0
  1  2  1  0  0  0
  2  3  2  0  0  0
  2  7  1  0  0  0
  3  4  1  0  0  0
  4  5  2  0  0  0
  4 13  1  0  0  0
  5  6  1  0  0  0
  6  7  2  0  0  0
  6 11  1  0  0  0
  7  8  1  0  0  0
  8  9  2  0  0  0
  9 10  1  0  0  0
  9 12  1  0  0  0
 10 11  2  0  0  0
 12 14  1  0  0  0
 12 15  1  0  0  0
 13 16  1  0  0  0
 13 17  1  0  0  0
M  END
> <minimizedAffinity>
-6.32524

$$$$
4CR9_OTW_A_1489


 17 18  0  0  0  0  0  0  0  0999 V2000
   55.3885   21.3453   12.3206 C   0  0  0  0  0  0  0  0  0  0  0  0
   54.2572   22.3061   12.1714 C   0  0  0  0  0  0  0  0  0  0  0  0
   54.5619   23.6452   12.1205 C   0  0  0  0  0  0  0  0  0  0  0  0
   53.5528   24.5640   11.9810 C   0  0  0  0  0  0  0  0  0  0  0  0
   52.2684   24.2037   11.8946 N   0  0  0  0  0  0  0  0  0  0  0  0
   51.9709   22.8996   11.9464 C   0  0  0  0  0  0  0  0  0  0  0  0
   52.9339   21.9095   12.0847 C   0  0  0  0  0  0  0  0  0  0  0  0
   52.5764   20.5745   12.1316 C   0  0  0  0  0  0  0  0  0  0  0  0
   51.2461   20.2083   12.0428 C   0  0  0  0  0  0  0  0  0  0  0  0
   50.2844   21.1826   11.9060 C   0  0  0  0  0  0  0  0  0  0  0  0
   50.6514   22.5048   11.8600 C   0  0  0  0  0  0  0  0  0  0  0  0
   50.8437   18.8708   12.0875 N   0  0  0  0  0  0  0  0  0  0  0  0
   53.9211   25.9130   11.9307 N   0  0  0  0  0  0  0  0  0  0  0  0
   51.5154   18.1577   12.1850 H   0  0  0  0  0  0  0  0  0  0  0  0
   49.8885   18.6416   12.0214 H   0  0  0  0  0  0  0  0  0  0  0  0
   54.8700   26.1670   11.9952 H   0  0  0  0  0  0  0  0  0  0  0  0
   53.2311   26.6082   11.8306 H   0  0  0  0  0  0  0  0  0  0  0  0
  1  2  1  0  0  0
  2  3  2  0  0  0
  2  7  1  0  0  0
  3  4  1  0  0  0
  4  5  2  0  0  0
  4 13  1  0  0  0
  5  6  1  0  0  0
  6  7  2  0  0  0
  6 11  1  0  0  0
  7  8  1  0  0  0
  8  9  2  0  0  0
  9 10  1  0  0  0
  9 12  1  0  0  0
 10 11  2  0  0  0
 12 14  1  0  0  0
 12 15  1  0  0  0
 13 16  1  0  0  0
 13 17  1  0  0  0
M  END
> <minimizedAffinity>
-5.76419

$$$$
4CR9_OTW_A_1489


 17 18  0  0  0  0  0  0  0  0999 V2000
   53.5715   22.6389   14.0839 C   0  0  0  0  0  0  0  0  0  0  0  0
   52.9818   21.4663   13.3748 C   0  0  0  0  0  0  0  0  0  0  0  0
   53.7436   20.3258   13.2884 C   0  0  0  0  0  0  0  0  0  0  0  0
   53.2398   19.2225   12.6475 C   0  0  0  0  0  0  0  0  0  0  0  0
   52.0229   19.2140   12.0941 N   0  0  0  0  0  0  0  0  0  0  0  0
   51.2815   20.3256   12.1760 C   0  0  0  0  0  0  0  0  0  0  0  0
   51.7190   21.4811   12.8084 C   0  0  0  0  0  0  0  0  0  0  0  0
   50.9147   22.6045   12.8683 C   0  0  0  0  0  0  0  0  0  0  0  0
   49.6575   22.5898   12.2929 C   0  0  0  0  0  0  0  0  0  0  0  0
   49.2153   21.4491   11.6636 C   0  0  0  0  0  0  0  0  0  0  0  0
   50.0225   20.3397   11.6110 C   0  0  0  0  0  0  0  0  0  0  0  0
   48.8150   23.7041   12.3306 N   0  0  0  0  0  0  0  0  0  0  0  0
   54.0569   18.0879   12.5932 N   0  0  0  0  0  0  0  0  0  0  0  0
   49.1116   24.5306   12.7758 H   0  0  0  0  0  0  0  0  0  0  0  0
   47.9249   23.6626   11.9120 H   0  0  0  0  0  0  0  0  0  0  0  0
   54.9513   18.1053   13.0042 H   0  0  0  0  0  0  0  0  0  0  0  0
   53.7373   17.2722   12.1441 H   0  0  0  0  0  0  0  0  0  0  0  0
  1  2  1  0  0  0
  2  3  2  0  0  0
  2  7  1  0  0  0
  3  4  1  0  0  0
  4  5  2  0  0  0
  4 13  1  0  0  0
  5  6  1  0  0  0
  6  7  2  0  0  0
  6 11  1  0  0  0
  7  8  1  0  0  0
  8  9  2  0  0  0
  9 10  1  0  0  0
  9 12  1  0  0  0
 10 11  2  0  0  0
 12 14  1  0  0  0
 12 15  1  0  0  0
 13 16  1  0  0  0
 13 17  1  0  0  0
M  END
> <minimizedAffinity>
-5.51712

$$$$
4CR9_OTW_A_1489


 17 18  0  0  0  0  0  0  0  0999 V2000
   51.5698   19.4187   11.6570 C   0  0  0  0  0  0  0  0  0  0  0  0
   51.5790   20.8898   11.9045 C   0  0  0  0  0  0  0  0  0  0  0  0
   50.3653   21.5201   12.0392 C   0  0  0  0  0  0  0  0  0  0  0  0
   50.3267   22.8717   12.2706 C   0  0  0  0  0  0  0  0  0  0  0  0
   51.4372   23.6096   12.3684 N   0  0  0  0  0  0  0  0  0  0  0  0
   52.6196   22.9963   12.2350 C   0  0  0  0  0  0  0  0  0  0  0  0
   52.7422   21.6336   12.0012 C   0  0  0  0  0  0  0  0  0  0  0  0
   53.9873   21.0457   11.8723 C   0  0  0  0  0  0  0  0  0  0  0  0
   55.1321   21.8145   11.9734 C   0  0  0  0  0  0  0  0  0  0  0  0
   55.0205   23.1661   12.2046 C   0  0  0  0  0  0  0  0  0  0  0  0
   53.7791   23.7386   12.3315 C   0  0  0  0  0  0  0  0  0  0  0  0
   56.4082   21.2590   11.8478 N   0  0  0  0  0  0  0  0  0  0  0  0
   49.0642   23.4603   12.4036 N   0  0  0  0  0  0  0  0  0  0  0  0
   56.5108   20.2939   11.6821 H   0  0  0  0  0  0  0  0  0  0  0  0
   57.2046   21.8326   11.9251 H   0  0  0  0  0  0  0  0  0  0  0  0
   48.2531   22.9073   12.3298 H   0  0  0  0  0  0  0  0  0  0  0  0
   48.9871   24.4274   12.5711 H   0  0  0  0  0  0  0  0  0  0  0  0
  1  2  1  0  0  0
  2  3  2  0  0  0
  2  7  1  0  0  0
  3  4  1  0  0  0
  4  5  2  0  0  0
  4 13  1  0  0  0
  5  6  1  0  0  0
  6  7  2  0  0  0
  6 11  1  0  0  0
  7  8  1  0  0  0
  8  9  2  0  0  0
  9 10  1  0  0  0
  9 12  1  0  0  0
 10 11  2  0  0  0
 12 14  1  0  0  0
 12 15  1  0  0  0
 13 16  1  0  0  0
 13 17  1  0  0  0
M  END
> <minimizedAffinity>
-5.42368

$$$$
4CR9_OTW_A_1489


 17 18  0  0  0  0  0  0  0  0999 V2000
   53.2357   24.2782   12.2196 C   0  0  0  0  0  0  0  0  0  0  0  0
   53.3791   22.7991   12.0894 C   0  0  0  0  0  0  0  0  0  0  0  0
   54.6526   22.2853   12.0371 C   0  0  0  0  0  0  0  0  0  0  0  0
   54.8313   20.9302   11.9203 C   0  0  0  0  0  0  0  0  0  0  0  0
   53.8024   20.0794   11.8514 N   0  0  0  0  0  0  0  0  0  0  0  0
   52.5617   20.5797   11.9000 C   0  0  0  0  0  0  0  0  0  0  0  0
   52.2983   21.9373   12.0190 C   0  0  0  0  0  0  0  0  0  0  0  0
   50.9980   22.4056   12.0668 C   0  0  0  0  0  0  0  0  0  0  0  0
   49.9381   21.5206   11.9940 C   0  0  0  0  0  0  0  0  0  0  0  0
   50.1894   20.1732   11.8757 C   0  0  0  0  0  0  0  0  0  0  0  0
   51.4845   19.7199   11.8298 C   0  0  0  0  0  0  0  0  0  0  0  0
   48.6101   21.9536   12.0376 N   0  0  0  0  0  0  0  0  0  0  0  0
   56.1492   20.4621   11.8759 N   0  0  0  0  0  0  0  0  0  0  0  0
   48.4079   22.9134   12.1220 H   0  0  0  0  0  0  0  0  0  0  0  0
   47.8769   21.2989   11.9839 H   0  0  0  0  0  0  0  0  0  0  0  0
   56.8993   21.0977   11.9274 H   0  0  0  0  0  0  0  0  0  0  0  0
   56.3263   19.4972   11.7932 H   0  0  0  0  0  0  0  0  0  0  0  0
  1  2  1  0  0  0
  2  3  2  0  0  0
  2  7  1  0  0  0
  3  4  1  0  0  0
  4  5  2  0  0  0
  4 13  1  0  0  0
  5  6  1  0  0  0
  6  7  2  0  0  0
  6 11  1  0  0  0
  7  8  1  0  0  0
  8  9  2  0  0  0
  9 10  1  0  0  0
  9 12  1  0  0  0
 10 11  2  0  0  0
 12 14  1  0  0  0
 12 15  1  0  0  0
 13 16  1  0  0  0
 13 17  1  0  0  0
M  END
> <minimizedAffinity>
-5.39831

$$$$
4CR9_OTW_A_1489


 17 18  0  0  0  0  0  0  0  0999 V2000
   49.9893   21.9228   11.8954 C   0  0  0  0  0  0  0  0  0  0  0  0
   51.4031   21.4733   12.0516 C   0  0  0  0  0  0  0  0  0  0  0  0
   51.6380   20.1206   12.1109 C   0  0  0  0  0  0  0  0  0  0  0  0
   52.9234   19.6625   12.2514 C   0  0  0  0  0  0  0  0  0  0  0  0
   53.9694   20.4906   12.3371 N   0  0  0  0  0  0  0  0  0  0  0  0
   53.7407   21.8085   12.2817 C   0  0  0  0  0  0  0  0  0  0  0  0
   52.4706   22.3499   12.1392 C   0  0  0  0  0  0  0  0  0  0  0  0
   52.2857   23.7194   12.0852 C   0  0  0  0  0  0  0  0  0  0  0  0
   53.3715   24.5707   12.1756 C   0  0  0  0  0  0  0  0  0  0  0  0
   54.6342   24.0433   12.3174 C   0  0  0  0  0  0  0  0  0  0  0  0
   54.8055   22.6820   12.3691 C   0  0  0  0  0  0  0  0  0  0  0  0
   53.2268   25.9598   12.1266 N   0  0  0  0  0  0  0  0  0  0  0  0
   53.1045   18.2759   12.3018 N   0  0  0  0  0  0  0  0  0  0  0  0
   52.3323   26.3583   12.0255 H   0  0  0  0  0  0  0  0  0  0  0  0
   54.0195   26.5399   12.1931 H   0  0  0  0  0  0  0  0  0  0  0  0
   52.3270   17.6753   12.2378 H   0  0  0  0  0  0  0  0  0  0  0  0
   54.0093   17.9009   12.4013 H   0  0  0  0  0  0  0  0  0  0  0  0
  1  2  1  0  0  0
  2  3  2  0  0  0
  2  7  1  0  0  0
  3  4  1  0  0  0
  4  5  2  0  0  0
  4 13  1  0  0  0
  5  6  1  0  0  0
  6  7  2  0  0  0
  6 11  1  0  0  0
  7  8  1  0  0  0
  8  9  2  0  0  0
  9 10  1  0  0  0
  9 12  1  0  0  0
 10 11  2  0  0  0
 12 14  1  0  0  0
 12 15  1  0  0  0
 13 16  1  0  0  0
 13 17  1  0  0  0
M  END
> <minimizedAffinity>
-5.35212

$$$$
4CR9_OTW_A_1489


 17 18  0  0  0  0  0  0  0  0999 V2000
   51.7404   23.4848   13.9117 C   0  0  0  0  0  0  0  0  0  0  0  0
   51.8147   22.3515   12.9445 C   0  0  0  0  0  0  0  0  0  0  0  0
   50.6332   21.7643   12.5602 C   0  0  0  0  0  0  0  0  0  0  0  0
   50.6543   20.7205   11.6703 C   0  0  0  0  0  0  0  0  0  0  0  0
   51.7936   20.2441   11.1582 N   0  0  0  0  0  0  0  0  0  0  0  0
   52.9449   20.8143   11.5341 C   0  0  0  0  0  0  0  0  0  0  0  0
   53.0069   21.8744   12.4280 C   0  0  0  0  0  0  0  0  0  0  0  0
   54.2215   22.4312   12.7843 C   0  0  0  0  0  0  0  0  0  0  0  0
   55.3965   21.9332   12.2520 C   0  0  0  0  0  0  0  0  0  0  0  0
   55.3451   20.8824   11.3655 C   0  0  0  0  0  0  0  0  0  0  0  0
   54.1333   20.3382   11.0187 C   0  0  0  0  0  0  0  0  0  0  0  0
   56.6437   22.4670   12.5874 N   0  0  0  0  0  0  0  0  0  0  0  0
   49.4220   20.1635   11.3109 N   0  0  0  0  0  0  0  0  0  0  0  0
   56.7033   23.2192   13.2198 H   0  0  0  0  0  0  0  0  0  0  0  0
   57.4627   22.0909   12.1912 H   0  0  0  0  0  0  0  0  0  0  0  0
   48.5892   20.5223   11.6942 H   0  0  0  0  0  0  0  0  0  0  0  0
   49.3878   19.4129   10.6748 H   0  0  0  0  0  0  0  0  0  0  0  0
  1  2  1  0  0  0
  2  3  2  0  0  0
  2  7  1  0  0  0
  3  4  1  0  0  0
  4  5  2  0  0  0
  4 13  1  0  0  0
  5  6  1  0  0  0
  6  7  2  0  0  0
  6 11  1  0  0  0
  7  8  1  0  0  0
  8  9  2  0  0  0
  9 10  1  0  0  0
  9 12  1  0  0  0
 10 11  2  0  0  0
 12 14  1  0  0  0
 12 15  1  0  0  0
 13 16  1  0  0  0
 13 17  1  0  0  0
M  END
> <minimizedAffinity>
-5.25075

$$$$
4CR9_OTW_A_1489


 17 18  0  0  0  0  0  0  0  0999 V2000
   52.4350   22.6521   15.4836 C   0  0  0  0  0  0  0  0  0  0  0  0
   52.1967   22.2084   14.0795 C   0  0  0  0  0  0  0  0  0  0  0  0
   51.4485   23.0297   13.2707 C   0  0  0  0  0  0  0  0  0  0  0  0
   51.2069   22.6623   11.9713 C   0  0  0  0  0  0  0  0  0  0  0  0
   51.6740   21.5210   11.4552 N   0  0  0  0  0  0  0  0  0  0  0  0
   52.4010   20.7196   12.2433 C   0  0  0  0  0  0  0  0  0  0  0  0
   52.6902   21.0211   13.5670 C   0  0  0  0  0  0  0  0  0  0  0  0
   53.4475   20.1609   14.3409 C   0  0  0  0  0  0  0  0  0  0  0  0
   53.9268   18.9814   13.8016 C   0  0  0  0  0  0  0  0  0  0  0  0
   53.6451   18.6738   12.4906 C   0  0  0  0  0  0  0  0  0  0  0  0
   52.8926   19.5359   11.7318 C   0  0  0  0  0  0  0  0  0  0  0  0
   54.6943   18.0852   14.5504 N   0  0  0  0  0  0  0  0  0  0  0  0
   50.4430   23.5384   11.1922 N   0  0  0  0  0  0  0  0  0  0  0  0
   54.9076   18.2857   15.4903 H   0  0  0  0  0  0  0  0  0  0  0  0
   55.0216   17.2533   14.1379 H   0  0  0  0  0  0  0  0  0  0  0  0
   50.1041   24.3762   11.5826 H   0  0  0  0  0  0  0  0  0  0  0  0
   50.2444   23.3170   10.2537 H   0  0  0  0  0  0  0  0  0  0  0  0
  1  2  1  0  0  0
  2  3  2  0  0  0
  2  7  1  0  0  0
  3  4  1  0  0  0
  4  5  2  0  0  0
  4 13  1  0  0  0
  5  6  1  0  0  0
  6  7  2  0  0  0
  6 11  1  0  0  0
  7  8  1  0  0  0
  8  9  2  0  0  0
  9 10  1  0  0  0
  9 12  1  0  0  0
 10 11  2  0  0  0
 12 14  1  0  0  0
 12 15  1  0  0  0
 13 16  1  0  0  0
 13 17  1  0  0  0
M  END
> <minimizedAffinity>
-5.14184

$$$$
