6BM6_SAH_A_1301
  RCSB PDB05261800293D
Coordinates from PDB:6BM6:A:1301 Model:1 without hydrogens
 26 28  0  0  0  0            999 V2000
  -10.3920   20.7220  -14.0560   N 0  0  0  0  0  0  0  0  0  0  0  0
   -9.7220   19.4650  -13.7020   C 0  0  0  0  0  0  0  0  0  0  0  0
   -9.0160   18.9270  -14.9410   C 0  0  0  0  0  0  0  0  0  0  0  0
   -8.1970   17.6620  -14.6860   C 0  0  0  0  0  0  0  0  0  0  0  0
   -9.1920   16.2180  -14.1890   S 0  0  0  0  0  0  0  0  0  0  0  0
   -8.7370   19.6280  -12.5470   C 0  0  0  0  0  0  0  0  0  0  0  0
   -8.0550   20.6720  -12.4440   O 0  0  0  0  0  0  0  0  0  0  0  0
   -8.6410   18.7420  -11.6700   O 0  0  0  0  0  0  0  0  0  0  0  0
   -9.5700   15.6710  -15.8710   C 0  0  0  0  0  0  0  0  0  0  0  0
   -8.5050   14.8040  -16.5320   C 0  0  0  0  0  0  0  0  0  0  0  0
   -8.4180   13.4900  -15.9880   O 0  0  0  0  0  0  0  0  0  0  0  0
   -8.8850   14.5470  -17.9710   C 0  0  0  0  0  0  0  0  0  0  0  0
   -8.4950   15.5950  -18.8300   O 0  0  0  0  0  0  0  0  0  0  0  0
   -8.1450   13.2810  -18.3270   C 0  0  0  0  0  0  0  0  0  0  0  0
   -6.7700   13.5470  -18.5240   O 0  0  0  0  0  0  0  0  0  0  0  0
   -8.2240   12.5440  -17.0290   C 0  0  0  0  0  0  0  0  0  0  0  0
   -9.3180   11.5780  -16.9210   N 0  0  0  0  0  0  0  0  0  0  0  0
  -10.4950   11.6780  -16.2300   C 0  0  0  0  0  0  0  0  0  0  0  0
  -11.1910   10.5130  -16.3700   N 0  0  0  0  0  0  0  0  0  0  0  0
  -10.4680    9.6780  -17.1550   C 0  0  0  0  0  0  0  0  0  0  0  0
  -10.6880    8.3870  -17.6270   C 0  0  0  0  0  0  0  0  0  0  0  0
  -11.7930    7.6730  -17.3350   N 0  0  0  0  0  0  0  0  0  0  0  0
   -9.6990    7.8350  -18.4040   N 0  0  0  0  0  0  0  0  0  0  0  0
   -8.5520    8.5340  -18.7400   C 0  0  0  0  0  0  0  0  0  0  0  0
   -8.3350    9.8140  -18.2960   N 0  0  0  0  0  0  0  0  0  0  0  0
   -9.2880   10.3460  -17.5050   C 0  0  0  0  0  0  0  0  0  0  0  0
  1  2  1  0  0  0  0
  2  3  1  0  0  0  0
  2  6  1  0  0  0  0
  3  4  1  0  0  0  0
  4  5  1  0  0  0  0
  5  9  1  0  0  0  0
  6  7  2  0  0  0  0
  6  8  1  0  0  0  0
  9 10  1  0  0  0  0
 10 11  1  0  0  0  0
 10 12  1  0  0  0  0
 11 16  1  0  0  0  0
 12 13  1  0  0  0  0
 12 14  1  0  0  0  0
 14 15  1  0  0  0  0
 14 16  1  0  0  0  0
 16 17  1  0  0  0  0
 17 18  1  0  0  0  0
 17 26  1  0  0  0  0
 18 19  2  0  0  0  0
 19 20  1  0  0  0  0
 20 21  1  0  0  0  0
 20 26  2  0  0  0  0
 21 22  1  0  0  0  0
 21 23  2  0  0  0  0
 23 24  1  0  0  0  0
 24 25  2  0  0  0  0
 25 26  1  0  0  0  0
A    1
N
A    2
CA
A    3
CB
A    4
CG
A    5
SD
A    6
C
A    7
O
A    8
OXT
A    9
C5'
A   10
C4'
A   11
O4'
A   12
C3'
A   13
O3'
A   14
C2'
A   15
O2'
A   16
C1'
A   17
N9
A   18
C8
A   19
N7
A   20
C5
A   21
C6
A   22
N6
A   23
N1
A   24
C2
A   25
N3
A   26
C4
M  END
>  <InstanceId>
6BM6_SAH_A_1301

>  <ChemCompId>
SAH

>  <PdbId>
6BM6

>  <ChainId>
A

>  <ResidueNumber>
1301

>  <InsertionCode>


>  <Model>
1

>  <AltIds>


>  <MissingHeavyAtoms>
0

>  <ObservedFormula>
C14 N6 O5 S

>  <Name>
S-ADENOSYL-L-HOMOCYSTEINE

>  <SystematicName>
(2S)-2-amino-4-[[(2S,3S,4R,5R)-5-(6-aminopurin-9-yl)-3,4-dihydroxy-oxolan-2-yl]methylsulfanyl]butanoic acid

>  <Synonyms>


>  <Type>
L-PEPTIDE LINKING

>  <Formula>
C14 H20 N6 O5 S

>  <MolecularWeight>
384.411

>  <ModifiedDate>
2011-06-04

>  <Parent>
CYS

>  <OneLetterCode>
C

>  <SubcomponentList>


>  <AmbiguousFlag>
N

>  <InChI>
InChI=1S/C14H20N6O5S/c15-6(14(23)24)1-2-26-3-7-9(21)10(22)13(25-7)20-5-19-8-11(16)17-4-18-12(8)20/h4-7,9-10,13,21-22H,1-3,15H2,(H,23,24)(H2,16,17,18)/t6-,7+,9+,10+,13+/m0/s1

>  <InChIKey>
ZJUKTBDSGOFHSH-WFMPWKQPSA-N

>  <SMILES>
c1nc(c2c(n1)n(cn2)[C@H]3[C@@H]([C@@H]([C@H](O3)CSCC[C@@H](C(=O)O)N)O)O)N

$$$$
