4EW3_DXZ_A_304


 41 42  0  0  0  0  0  0  0  0999 V2000
   -0.7090   63.9920   95.0813 C   0  0  0  0  0  0  0  0  0  0  0  0
   -0.5953   64.6839   93.9049 C   0  0  0  0  0  0  0  0  0  0  0  0
   -0.0808   64.0415   92.7840 C   0  0  0  0  0  0  0  0  0  0  0  0
   -0.3476   62.6555   95.0970 C   0  0  0  0  0  0  0  0  0  0  0  0
    0.1557   62.0089   93.9709 C   0  0  0  0  0  0  0  0  0  0  0  0
    0.2960   62.7121   92.7846 C   0  0  0  0  0  0  0  0  0  0  0  0
   -0.3771   64.8952   97.2707 N   0  0  0  0  0  0  0  0  0  0  0  0
   -1.2521   64.6754   96.3043 C   0  0  0  0  0  0  0  0  0  0  0  0
   -2.4401   64.9869   96.3951 O   0  0  0  0  0  0  0  0  0  0  0  0
    0.5596   64.6147   97.1559 H   0  0  0  0  0  0  0  0  0  0  0  0
   -0.7965   65.5589   98.5210 C   0  0  0  0  0  0  0  0  0  0  0  0
   -0.6859   67.0843   98.4445 C   0  0  0  0  0  0  0  0  0  0  0  0
   -1.5569   67.7142   97.8197 O   0  0  0  0  0  0  0  0  0  0  0  0
    0.3071   67.5899   98.9871 O   0  0  0  0  0  0  0  0  0  0  0  0
   -2.2804   67.2585   97.4365 H   0  0  0  0  0  0  0  0  0  0  0  0
   -0.0026   65.0665   99.7509 C   0  0  0  0  0  0  0  0  0  0  0  0
    0.6317   63.6810   99.5435 C   0  0  0  0  0  0  0  0  0  0  0  0
   -1.0873   62.2979  100.4827 O   0  0  0  0  0  0  0  0  0  0  0  0
    0.1310   62.6071  100.5807 C   0  0  0  0  0  0  0  0  0  0  0  0
    0.9298   62.1418  101.4574 O   0  0  0  0  0  0  0  0  0  0  0  0
    1.8250   62.4184  101.4693 H   0  0  0  0  0  0  0  0  0  0  0  0
    0.8294   62.0500   91.4992 C   0  0  0  0  0  0  0  0  0  0  0  0
    2.0442   63.1516   90.6703 S   0  0  0  0  0  0  0  0  0  0  0  0
    3.6028   62.7729   91.4978 C   0  0  0  0  0  0  0  0  0  0  0  0
   -0.3264   61.6747   90.5023 C   0  0  0  0  0  0  0  0  0  0  0  0
   -1.1119   60.4630   90.9789 C   0  0  0  0  0  0  0  0  0  0  0  0
   -2.6590   60.5379   90.8001 C   0  0  0  0  0  0  0  0  0  0  0  0
   -3.1338   61.5017   91.8704 C   0  0  0  0  0  0  0  0  0  0  0  0
   -3.4893   62.8125   91.5358 C   0  0  0  0  0  0  0  0  0  0  0  0
   -3.3944   63.2319   90.3825 O   0  0  0  0  0  0  0  0  0  0  0  0
   -3.9317   63.6699   92.4988 N   0  0  0  0  0  0  0  0  0  0  0  0
   -4.0728   63.2410   93.8068 C   0  0  0  0  0  0  0  0  0  0  0  0
   -4.5389   64.0832   94.7181 N   0  0  0  0  0  0  0  0  0  0  0  0
   -3.7344   61.9761   94.1345 N   0  0  0  0  0  0  0  0  0  0  0  0
   -3.2818   61.1099   93.2103 C   0  0  0  0  0  0  0  0  0  0  0  0
   -2.9736   59.8500   93.5982 N   0  0  0  0  0  0  0  0  0  0  0  0
   -4.1521   64.5998   92.2623 H   0  0  0  0  0  0  0  0  0  0  0  0
   -4.6437   63.7895   95.6519 H   0  0  0  0  0  0  0  0  0  0  0  0
   -4.7802   65.0024   94.4611 H   0  0  0  0  0  0  0  0  0  0  0  0
   -2.6407   59.1994   92.9385 H   0  0  0  0  0  0  0  0  0  0  0  0
   -3.0824   59.5843   94.5399 H   0  0  0  0  0  0  0  0  0  0  0  0
 18 19  2  0  0  0
 19 20  1  0  0  0
 19 17  1  0  0  0
 17 16  1  0  0  0
 16 11  1  0  0  0
 11  7  1  0  0  0
 11 12  1  0  0  0
 23 24  1  0  0  0
 23 22  1  0  0  0
  9  8  2  0  0  0
  7  8  1  0  0  0
  8  1  1  0  0  0
  1  2  2  0  0  0
  1  4  1  0  0  0
  2  3  1  0  0  0
  4  5  2  0  0  0
  3  6  2  0  0  0
 12 14  2  0  0  0
 12 13  1  0  0  0
  5  6  1  0  0  0
  6 22  1  0  0  0
 22 25  1  0  0  0
 25 26  1  0  0  0
 26 27  1  0  0  0
 27 28  1  0  0  0
 36 35  1  0  0  0
 28 35  2  0  0  0
 28 29  1  0  0  0
 35 34  1  0  0  0
 34 32  2  0  0  0
 29 30  2  0  0  0
 29 31  1  0  0  0
 32 31  1  0  0  0
 32 33  1  0  0  0
 20 21  1  0  0  0
 13 15  1  0  0  0
  7 10  1  0  0  0
 31 37  1  0  0  0
 33 38  1  0  0  0
 33 39  1  0  0  0
 36 40  1  0  0  0
 36 41  1  0  0  0
M  END
> <minimizedAffinity>
-7.70894

$$$$
4EW3_DXZ_A_304


 41 42  0  0  0  0  0  0  0  0999 V2000
    0.0376   65.7863   95.5949 C   0  0  0  0  0  0  0  0  0  0  0  0
    0.3829   64.4672   95.4681 C   0  0  0  0  0  0  0  0  0  0  0  0
    0.7059   63.9655   94.2120 C   0  0  0  0  0  0  0  0  0  0  0  0
    0.0688   66.5869   94.4656 C   0  0  0  0  0  0  0  0  0  0  0  0
    0.4048   66.0870   93.2099 C   0  0  0  0  0  0  0  0  0  0  0  0
    0.7307   64.7467   93.0726 C   0  0  0  0  0  0  0  0  0  0  0  0
    0.3483   65.8414   97.9655 N   0  0  0  0  0  0  0  0  0  0  0  0
   -0.3254   66.3407   96.9435 C   0  0  0  0  0  0  0  0  0  0  0  0
   -1.2081   67.1894   97.0757 O   0  0  0  0  0  0  0  0  0  0  0  0
    1.0354   65.1537   97.8097 H   0  0  0  0  0  0  0  0  0  0  0  0
    0.0764   66.3091   99.3391 C   0  0  0  0  0  0  0  0  0  0  0  0
    1.3550   66.5087  100.1579 C   0  0  0  0  0  0  0  0  0  0  0  0
    2.1936   65.5912  100.1863 O   0  0  0  0  0  0  0  0  0  0  0  0
    1.4462   67.5765  100.7805 O   0  0  0  0  0  0  0  0  0  0  0  0
    2.0523   64.8117   99.6860 H   0  0  0  0  0  0  0  0  0  0  0  0
   -0.8647   65.3614  100.1147 C   0  0  0  0  0  0  0  0  0  0  0  0
   -1.0878   64.0173   99.4016 C   0  0  0  0  0  0  0  0  0  0  0  0
    0.0112   61.9198   99.0232 O   0  0  0  0  0  0  0  0  0  0  0  0
   -0.0149   62.9282   99.7795 C   0  0  0  0  0  0  0  0  0  0  0  0
    0.7243   63.0858  100.8051 O   0  0  0  0  0  0  0  0  0  0  0  0
    0.6491   63.8639  101.3217 H   0  0  0  0  0  0  0  0  0  0  0  0
    1.1287   64.1365   91.7145 C   0  0  0  0  0  0  0  0  0  0  0  0
    2.2231   65.2892   90.7927 S   0  0  0  0  0  0  0  0  0  0  0  0
    3.2874   64.1946   89.8302 C   0  0  0  0  0  0  0  0  0  0  0  0
   -0.1245   63.7676   90.8405 C   0  0  0  0  0  0  0  0  0  0  0  0
   -1.3268   63.4094   91.7001 C   0  0  0  0  0  0  0  0  0  0  0  0
   -1.7455   61.9076   91.6977 C   0  0  0  0  0  0  0  0  0  0  0  0
   -1.6142   61.4589   93.1405 C   0  0  0  0  0  0  0  0  0  0  0  0
   -2.7132   61.5188   94.0036 C   0  0  0  0  0  0  0  0  0  0  0  0
   -3.7990   61.9664   93.6350 O   0  0  0  0  0  0  0  0  0  0  0  0
   -2.5945   61.0984   95.2949 N   0  0  0  0  0  0  0  0  0  0  0  0
   -1.4000   60.5707   95.7522 C   0  0  0  0  0  0  0  0  0  0  0  0
   -1.3202   60.1357   97.0018 N   0  0  0  0  0  0  0  0  0  0  0  0
   -0.3372   60.5075   94.9226 N   0  0  0  0  0  0  0  0  0  0  0  0
   -0.4180   60.9267   93.6470 C   0  0  0  0  0  0  0  0  0  0  0  0
    0.6783   60.8229   92.8595 N   0  0  0  0  0  0  0  0  0  0  0  0
   -3.3633   61.1707   95.9056 H   0  0  0  0  0  0  0  0  0  0  0  0
   -0.4756   59.7582   97.3386 H   0  0  0  0  0  0  0  0  0  0  0  0
   -2.1054   60.1901   97.5931 H   0  0  0  0  0  0  0  0  0  0  0  0
    0.6417   61.1235   91.9228 H   0  0  0  0  0  0  0  0  0  0  0  0
    1.5120   60.4467   93.2236 H   0  0  0  0  0  0  0  0  0  0  0  0
 18 19  2  0  0  0
 19 20  1  0  0  0
 19 17  1  0  0  0
 17 16  1  0  0  0
 16 11  1  0  0  0
 11  7  1  0  0  0
 11 12  1  0  0  0
 23 24  1  0  0  0
 23 22  1  0  0  0
  9  8  2  0  0  0
  7  8  1  0  0  0
  8  1  1  0  0  0
  1  2  2  0  0  0
  1  4  1  0  0  0
  2  3  1  0  0  0
  4  5  2  0  0  0
  3  6  2  0  0  0
 12 14  2  0  0  0
 12 13  1  0  0  0
  5  6  1  0  0  0
  6 22  1  0  0  0
 22 25  1  0  0  0
 25 26  1  0  0  0
 26 27  1  0  0  0
 27 28  1  0  0  0
 36 35  1  0  0  0
 28 35  2  0  0  0
 28 29  1  0  0  0
 35 34  1  0  0  0
 34 32  2  0  0  0
 29 30  2  0  0  0
 29 31  1  0  0  0
 32 31  1  0  0  0
 32 33  1  0  0  0
 20 21  1  0  0  0
 13 15  1  0  0  0
  7 10  1  0  0  0
 31 37  1  0  0  0
 33 38  1  0  0  0
 33 39  1  0  0  0
 36 40  1  0  0  0
 36 41  1  0  0  0
M  END
> <minimizedAffinity>
-7.30739

$$$$
4EW3_DXZ_A_304


 41 42  0  0  0  0  0  0  0  0999 V2000
   -3.6848   63.9070   94.6038 C   0  0  0  0  0  0  0  0  0  0  0  0
   -3.3446   64.3520   93.3541 C   0  0  0  0  0  0  0  0  0  0  0  0
   -3.7500   63.6265   92.2392 C   0  0  0  0  0  0  0  0  0  0  0  0
   -4.4650   62.7678   94.7076 C   0  0  0  0  0  0  0  0  0  0  0  0
   -4.8816   62.0485   93.5902 C   0  0  0  0  0  0  0  0  0  0  0  0
   -4.5185   62.4814   92.3244 C   0  0  0  0  0  0  0  0  0  0  0  0
   -1.9935   64.4732   96.1970 N   0  0  0  0  0  0  0  0  0  0  0  0
   -3.2444   64.6734   95.8189 C   0  0  0  0  0  0  0  0  0  0  0  0
   -4.0141   65.4201   96.4246 O   0  0  0  0  0  0  0  0  0  0  0  0
   -1.4212   63.8550   95.6875 H   0  0  0  0  0  0  0  0  0  0  0  0
   -1.4498   65.1712   97.3788 C   0  0  0  0  0  0  0  0  0  0  0  0
   -1.0855   66.6296   97.0863 C   0  0  0  0  0  0  0  0  0  0  0  0
   -1.9612   67.5014   97.2234 O   0  0  0  0  0  0  0  0  0  0  0  0
    0.0689   66.8365   96.6856 O   0  0  0  0  0  0  0  0  0  0  0  0
   -2.8134   67.2649   97.5328 H   0  0  0  0  0  0  0  0  0  0  0  0
   -0.2127   64.4617   97.9717 C   0  0  0  0  0  0  0  0  0  0  0  0
   -0.2920   64.2867   99.4975 C   0  0  0  0  0  0  0  0  0  0  0  0
   -0.0378   61.9268   99.1559 O   0  0  0  0  0  0  0  0  0  0  0  0
    0.1585   62.8580   99.9830 C   0  0  0  0  0  0  0  0  0  0  0  0
    0.6478   62.7022  101.1489 O   0  0  0  0  0  0  0  0  0  0  0  0
    0.7654   63.4431  101.7104 H   0  0  0  0  0  0  0  0  0  0  0  0
   -4.9622   61.7405   91.0479 C   0  0  0  0  0  0  0  0  0  0  0  0
   -6.7466   61.3131   91.1454 S   0  0  0  0  0  0  0  0  0  0  0  0
   -6.7475   59.5908   91.6849 C   0  0  0  0  0  0  0  0  0  0  0  0
   -4.1107   60.4451   90.7883 C   0  0  0  0  0  0  0  0  0  0  0  0
   -2.6823   60.7793   90.3876 C   0  0  0  0  0  0  0  0  0  0  0  0
   -1.5597   60.0609   91.1968 C   0  0  0  0  0  0  0  0  0  0  0  0
   -0.9155   61.1511   92.0314 C   0  0  0  0  0  0  0  0  0  0  0  0
   -0.1128   62.1244   91.4274 C   0  0  0  0  0  0  0  0  0  0  0  0
    0.1237   62.1065   90.2196 O   0  0  0  0  0  0  0  0  0  0  0  0
    0.4502   63.1121   92.1795 N   0  0  0  0  0  0  0  0  0  0  0  0
    0.2002   63.1858   93.5385 C   0  0  0  0  0  0  0  0  0  0  0  0
    0.7303   64.1764   94.2419 N   0  0  0  0  0  0  0  0  0  0  0  0
   -0.5763   62.2511   94.1259 N   0  0  0  0  0  0  0  0  0  0  0  0
   -1.1353   61.2561   93.4139 C   0  0  0  0  0  0  0  0  0  0  0  0
   -1.9173   60.3579   94.0577 N   0  0  0  0  0  0  0  0  0  0  0  0
    1.0381   63.7769   91.7534 H   0  0  0  0  0  0  0  0  0  0  0  0
    0.5595   64.2393   95.2094 H   0  0  0  0  0  0  0  0  0  0  0  0
    1.2947   64.8491   93.7968 H   0  0  0  0  0  0  0  0  0  0  0  0
   -2.3364   59.6215   93.5564 H   0  0  0  0  0  0  0  0  0  0  0  0
   -2.0667   60.4410   95.0272 H   0  0  0  0  0  0  0  0  0  0  0  0
 18 19  2  0  0  0
 19 20  1  0  0  0
 19 17  1  0  0  0
 17 16  1  0  0  0
 16 11  1  0  0  0
 11  7  1  0  0  0
 11 12  1  0  0  0
 23 24  1  0  0  0
 23 22  1  0  0  0
  9  8  2  0  0  0
  7  8  1  0  0  0
  8  1  1  0  0  0
  1  2  2  0  0  0
  1  4  1  0  0  0
  2  3  1  0  0  0
  4  5  2  0  0  0
  3  6  2  0  0  0
 12 14  2  0  0  0
 12 13  1  0  0  0
  5  6  1  0  0  0
  6 22  1  0  0  0
 22 25  1  0  0  0
 25 26  1  0  0  0
 26 27  1  0  0  0
 27 28  1  0  0  0
 36 35  1  0  0  0
 28 35  2  0  0  0
 28 29  1  0  0  0
 35 34  1  0  0  0
 34 32  2  0  0  0
 29 30  2  0  0  0
 29 31  1  0  0  0
 32 31  1  0  0  0
 32 33  1  0  0  0
 20 21  1  0  0  0
 13 15  1  0  0  0
  7 10  1  0  0  0
 31 37  1  0  0  0
 33 38  1  0  0  0
 33 39  1  0  0  0
 36 40  1  0  0  0
 36 41  1  0  0  0
M  END
> <minimizedAffinity>
-7.27226

$$$$
4EW3_DXZ_A_304


 41 42  0  0  0  0  0  0  0  0999 V2000
   -2.0507   63.2871   94.6890 C   0  0  0  0  0  0  0  0  0  0  0  0
   -2.3851   64.1189   93.6538 C   0  0  0  0  0  0  0  0  0  0  0  0
   -3.3761   63.7287   92.7596 C   0  0  0  0  0  0  0  0  0  0  0  0
   -2.7502   62.1009   94.8333 C   0  0  0  0  0  0  0  0  0  0  0  0
   -3.7513   61.7163   93.9450 C   0  0  0  0  0  0  0  0  0  0  0  0
   -4.0760   62.5436   92.8812 C   0  0  0  0  0  0  0  0  0  0  0  0
   -1.2142   63.4087   96.9262 N   0  0  0  0  0  0  0  0  0  0  0  0
   -0.9739   63.6893   95.6568 C   0  0  0  0  0  0  0  0  0  0  0  0
    0.0509   64.2596   95.2811 O   0  0  0  0  0  0  0  0  0  0  0  0
   -2.0555   62.9639   97.1783 H   0  0  0  0  0  0  0  0  0  0  0  0
   -0.2282   63.7586   97.9679 C   0  0  0  0  0  0  0  0  0  0  0  0
   -0.0483   62.6476   99.0063 C   0  0  0  0  0  0  0  0  0  0  0  0
   -0.3783   61.4882   98.7017 O   0  0  0  0  0  0  0  0  0  0  0  0
    0.3841   62.9972  100.1139 O   0  0  0  0  0  0  0  0  0  0  0  0
   -0.6973   61.3029   97.8403 H   0  0  0  0  0  0  0  0  0  0  0  0
   -0.5800   65.0705   98.7031 C   0  0  0  0  0  0  0  0  0  0  0  0
    0.4846   66.1657   98.5240 C   0  0  0  0  0  0  0  0  0  0  0  0
    1.4698   67.4873  100.2655 O   0  0  0  0  0  0  0  0  0  0  0  0
    1.4268   66.3265   99.7755 C   0  0  0  0  0  0  0  0  0  0  0  0
    2.1020   65.3334  100.2010 O   0  0  0  0  0  0  0  0  0  0  0  0
    2.0185   64.4977   99.7857 H   0  0  0  0  0  0  0  0  0  0  0  0
   -5.1858   62.1839   91.8741 C   0  0  0  0  0  0  0  0  0  0  0  0
   -6.6299   61.4578   92.7479 S   0  0  0  0  0  0  0  0  0  0  0  0
   -6.7484   59.7894   92.0699 C   0  0  0  0  0  0  0  0  0  0  0  0
   -4.6782   61.1985   90.7598 C   0  0  0  0  0  0  0  0  0  0  0  0
   -3.8331   61.9127   89.7167 C   0  0  0  0  0  0  0  0  0  0  0  0
   -2.5102   61.1987   89.3030 C   0  0  0  0  0  0  0  0  0  0  0  0
   -1.4594   61.7300   90.2587 C   0  0  0  0  0  0  0  0  0  0  0  0
   -1.1038   61.0000   91.3975 C   0  0  0  0  0  0  0  0  0  0  0  0
   -1.6517   59.9338   91.6771 O   0  0  0  0  0  0  0  0  0  0  0  0
   -0.1464   61.4738   92.2444 N   0  0  0  0  0  0  0  0  0  0  0  0
    0.5113   62.6587   91.9647 C   0  0  0  0  0  0  0  0  0  0  0  0
    1.4634   63.0803   92.7849 N   0  0  0  0  0  0  0  0  0  0  0  0
    0.1744   63.3655   90.8653 N   0  0  0  0  0  0  0  0  0  0  0  0
   -0.7754   62.9320   90.0173 C   0  0  0  0  0  0  0  0  0  0  0  0
   -1.0576   63.6779   88.9232 N   0  0  0  0  0  0  0  0  0  0  0  0
    0.0784   60.9700   93.0598 H   0  0  0  0  0  0  0  0  0  0  0  0
    1.9384   63.9218   92.5964 H   0  0  0  0  0  0  0  0  0  0  0  0
    1.6956   62.5520   93.5825 H   0  0  0  0  0  0  0  0  0  0  0  0
   -1.7491   63.3797   88.2891 H   0  0  0  0  0  0  0  0  0  0  0  0
   -0.5713   64.5185   88.7618 H   0  0  0  0  0  0  0  0  0  0  0  0
 18 19  2  0  0  0
 19 20  1  0  0  0
 19 17  1  0  0  0
 17 16  1  0  0  0
 16 11  1  0  0  0
 11  7  1  0  0  0
 11 12  1  0  0  0
 23 24  1  0  0  0
 23 22  1  0  0  0
  9  8  2  0  0  0
  7  8  1  0  0  0
  8  1  1  0  0  0
  1  2  2  0  0  0
  1  4  1  0  0  0
  2  3  1  0  0  0
  4  5  2  0  0  0
  3  6  2  0  0  0
 12 14  2  0  0  0
 12 13  1  0  0  0
  5  6  1  0  0  0
  6 22  1  0  0  0
 22 25  1  0  0  0
 25 26  1  0  0  0
 26 27  1  0  0  0
 27 28  1  0  0  0
 36 35  1  0  0  0
 28 35  2  0  0  0
 28 29  1  0  0  0
 35 34  1  0  0  0
 34 32  2  0  0  0
 29 30  2  0  0  0
 29 31  1  0  0  0
 32 31  1  0  0  0
 32 33  1  0  0  0
 20 21  1  0  0  0
 13 15  1  0  0  0
  7 10  1  0  0  0
 31 37  1  0  0  0
 33 38  1  0  0  0
 33 39  1  0  0  0
 36 40  1  0  0  0
 36 41  1  0  0  0
M  END
> <minimizedAffinity>
-7.24703

$$$$
4EW3_DXZ_A_304


 41 42  0  0  0  0  0  0  0  0999 V2000
   -1.5040   63.3135   94.7669 C   0  0  0  0  0  0  0  0  0  0  0  0
   -1.9401   62.0155   94.7908 C   0  0  0  0  0  0  0  0  0  0  0  0
   -2.7958   61.5661   93.7909 C   0  0  0  0  0  0  0  0  0  0  0  0
   -1.8983   64.1216   93.7140 C   0  0  0  0  0  0  0  0  0  0  0  0
   -2.7450   63.6675   92.7059 C   0  0  0  0  0  0  0  0  0  0  0  0
   -3.2089   62.3617   92.7395 C   0  0  0  0  0  0  0  0  0  0  0  0
   -0.9043   63.4539   97.0778 N   0  0  0  0  0  0  0  0  0  0  0  0
   -0.5885   63.8175   95.8466 C   0  0  0  0  0  0  0  0  0  0  0  0
    0.3772   64.5372   95.5894 O   0  0  0  0  0  0  0  0  0  0  0  0
   -1.6951   62.8886   97.2335 H   0  0  0  0  0  0  0  0  0  0  0  0
   -0.0779   63.8907   98.2205 C   0  0  0  0  0  0  0  0  0  0  0  0
    0.0490   62.8139   99.3020 C   0  0  0  0  0  0  0  0  0  0  0  0
    0.3920   63.1568  100.4468 O   0  0  0  0  0  0  0  0  0  0  0  0
   -0.1636   61.6473   98.9416 O   0  0  0  0  0  0  0  0  0  0  0  0
    0.5342   64.0622  100.6418 H   0  0  0  0  0  0  0  0  0  0  0  0
   -0.6038   65.1878   98.8734 C   0  0  0  0  0  0  0  0  0  0  0  0
    0.3663   66.3720   98.7276 C   0  0  0  0  0  0  0  0  0  0  0  0
    1.3136   67.6680  100.5090 O   0  0  0  0  0  0  0  0  0  0  0  0
    1.3370   66.5347   99.9569 C   0  0  0  0  0  0  0  0  0  0  0  0
    2.0956   65.5726  100.3060 O   0  0  0  0  0  0  0  0  0  0  0  0
    2.0579   64.7562   99.8478 H   0  0  0  0  0  0  0  0  0  0  0  0
   -4.1333   61.7934   91.6451 C   0  0  0  0  0  0  0  0  0  0  0  0
   -5.4357   60.7362   92.3949 S   0  0  0  0  0  0  0  0  0  0  0  0
   -6.2649   61.8369   93.5604 C   0  0  0  0  0  0  0  0  0  0  0  0
   -3.3374   60.9809   90.5603 C   0  0  0  0  0  0  0  0  0  0  0  0
   -2.3732   61.8663   89.7864 C   0  0  0  0  0  0  0  0  0  0  0  0
   -0.9392   61.2925   89.5734 C   0  0  0  0  0  0  0  0  0  0  0  0
   -0.0578   62.0654   90.5356 C   0  0  0  0  0  0  0  0  0  0  0  0
    0.3723   63.3583   90.2194 C   0  0  0  0  0  0  0  0  0  0  0  0
    0.0836   63.8898   89.1473 O   0  0  0  0  0  0  0  0  0  0  0  0
    1.1503   64.0553   91.0951 N   0  0  0  0  0  0  0  0  0  0  0  0
    1.4872   63.5085   92.3207 C   0  0  0  0  0  0  0  0  0  0  0  0
    2.2150   64.2202   93.1697 N   0  0  0  0  0  0  0  0  0  0  0  0
    1.0721   62.2625   92.6323 N   0  0  0  0  0  0  0  0  0  0  0  0
    0.3148   61.5436   91.7844 C   0  0  0  0  0  0  0  0  0  0  0  0
   -0.0835   60.3057   92.1608 N   0  0  0  0  0  0  0  0  0  0  0  0
    1.4745   64.9532   90.8542 H   0  0  0  0  0  0  0  0  0  0  0  0
    2.4610   63.8418   94.0446 H   0  0  0  0  0  0  0  0  0  0  0  0
    2.5096   65.1273   92.9253 H   0  0  0  0  0  0  0  0  0  0  0  0
   -0.6383   59.7619   91.5560 H   0  0  0  0  0  0  0  0  0  0  0  0
    0.1817   59.9492   93.0394 H   0  0  0  0  0  0  0  0  0  0  0  0
 18 19  2  0  0  0
 19 20  1  0  0  0
 19 17  1  0  0  0
 17 16  1  0  0  0
 16 11  1  0  0  0
 11  7  1  0  0  0
 11 12  1  0  0  0
 23 24  1  0  0  0
 23 22  1  0  0  0
  9  8  2  0  0  0
  7  8  1  0  0  0
  8  1  1  0  0  0
  1  2  2  0  0  0
  1  4  1  0  0  0
  2  3  1  0  0  0
  4  5  2  0  0  0
  3  6  2  0  0  0
 12 14  2  0  0  0
 12 13  1  0  0  0
  5  6  1  0  0  0
  6 22  1  0  0  0
 22 25  1  0  0  0
 25 26  1  0  0  0
 26 27  1  0  0  0
 27 28  1  0  0  0
 36 35  1  0  0  0
 28 35  2  0  0  0
 28 29  1  0  0  0
 35 34  1  0  0  0
 34 32  2  0  0  0
 29 30  2  0  0  0
 29 31  1  0  0  0
 32 31  1  0  0  0
 32 33  1  0  0  0
 20 21  1  0  0  0
 13 15  1  0  0  0
  7 10  1  0  0  0
 31 37  1  0  0  0
 33 38  1  0  0  0
 33 39  1  0  0  0
 36 40  1  0  0  0
 36 41  1  0  0  0
M  END
> <minimizedAffinity>
-7.20426

$$$$
4EW3_DXZ_A_304


 41 42  0  0  0  0  0  0  0  0999 V2000
    2.5695   67.3145   93.0209 C   0  0  0  0  0  0  0  0  0  0  0  0
    1.2222   67.4884   93.1942 C   0  0  0  0  0  0  0  0  0  0  0  0
    0.4275   66.3890   93.4999 C   0  0  0  0  0  0  0  0  0  0  0  0
    3.0992   66.0483   93.2040 C   0  0  0  0  0  0  0  0  0  0  0  0
    2.3048   64.9498   93.5226 C   0  0  0  0  0  0  0  0  0  0  0  0
    0.9370   65.1166   93.6744 C   0  0  0  0  0  0  0  0  0  0  0  0
    2.8830   69.6785   92.8404 N   0  0  0  0  0  0  0  0  0  0  0  0
    3.4400   68.4905   92.6787 C   0  0  0  0  0  0  0  0  0  0  0  0
    4.5879   68.3425   92.2578 O   0  0  0  0  0  0  0  0  0  0  0  0
    1.9565   69.7443   93.1667 H   0  0  0  0  0  0  0  0  0  0  0  0
    3.6422   70.9071   92.5344 C   0  0  0  0  0  0  0  0  0  0  0  0
    3.7234   71.8627   93.7282 C   0  0  0  0  0  0  0  0  0  0  0  0
    4.7907   71.9352   94.3618 O   0  0  0  0  0  0  0  0  0  0  0  0
    2.6851   72.4783   94.0092 O   0  0  0  0  0  0  0  0  0  0  0  0
    5.5344   71.4367   94.0854 H   0  0  0  0  0  0  0  0  0  0  0  0
    3.0677   71.6753   91.3240 C   0  0  0  0  0  0  0  0  0  0  0  0
    3.4137   71.0215   89.9758 C   0  0  0  0  0  0  0  0  0  0  0  0
    2.1740   70.2127   88.0893 O   0  0  0  0  0  0  0  0  0  0  0  0
    2.2136   70.2170   89.3494 C   0  0  0  0  0  0  0  0  0  0  0  0
    1.3528   69.6589   90.1047 O   0  0  0  0  0  0  0  0  0  0  0  0
    1.4475   69.7035   91.0359 H   0  0  0  0  0  0  0  0  0  0  0  0
    0.0061   63.9453   94.0442 C   0  0  0  0  0  0  0  0  0  0  0  0
   -0.9047   63.3603   92.5594 S   0  0  0  0  0  0  0  0  0  0  0  0
   -2.4934   62.8125   93.2176 C   0  0  0  0  0  0  0  0  0  0  0  0
   -1.0077   64.3304   95.1819 C   0  0  0  0  0  0  0  0  0  0  0  0
   -0.3171   64.4725   96.5293 C   0  0  0  0  0  0  0  0  0  0  0  0
   -1.2493   64.7377   97.7505 C   0  0  0  0  0  0  0  0  0  0  0  0
   -0.3828   65.4702   98.7568 C   0  0  0  0  0  0  0  0  0  0  0  0
    0.4215   64.7564   99.6513 C   0  0  0  0  0  0  0  0  0  0  0  0
    0.4241   63.5257   99.6751 O   0  0  0  0  0  0  0  0  0  0  0  0
    1.2114   65.4197  100.5424 N   0  0  0  0  0  0  0  0  0  0  0  0
    1.2569   66.8027  100.5434 C   0  0  0  0  0  0  0  0  0  0  0  0
    2.0599   67.4238  101.3957 N   0  0  0  0  0  0  0  0  0  0  0  0
    0.4853   67.4964   99.6802 N   0  0  0  0  0  0  0  0  0  0  0  0
   -0.3150   66.8718   98.7978 C   0  0  0  0  0  0  0  0  0  0  0  0
   -1.0532   67.6229   97.9471 N   0  0  0  0  0  0  0  0  0  0  0  0
    1.7527   64.9118  101.1892 H   0  0  0  0  0  0  0  0  0  0  0  0
    2.1009   68.4074  101.4058 H   0  0  0  0  0  0  0  0  0  0  0  0
    2.6153   66.9016  102.0187 H   0  0  0  0  0  0  0  0  0  0  0  0
   -1.6458   67.1867   97.2930 H   0  0  0  0  0  0  0  0  0  0  0  0
   -0.9975   68.6051   97.9826 H   0  0  0  0  0  0  0  0  0  0  0  0
 18 19  2  0  0  0
 19 20  1  0  0  0
 19 17  1  0  0  0
 17 16  1  0  0  0
 16 11  1  0  0  0
 11  7  1  0  0  0
 11 12  1  0  0  0
 23 24  1  0  0  0
 23 22  1  0  0  0
  9  8  2  0  0  0
  7  8  1  0  0  0
  8  1  1  0  0  0
  1  2  2  0  0  0
  1  4  1  0  0  0
  2  3  1  0  0  0
  4  5  2  0  0  0
  3  6  2  0  0  0
 12 14  2  0  0  0
 12 13  1  0  0  0
  5  6  1  0  0  0
  6 22  1  0  0  0
 22 25  1  0  0  0
 25 26  1  0  0  0
 26 27  1  0  0  0
 27 28  1  0  0  0
 36 35  1  0  0  0
 28 35  2  0  0  0
 28 29  1  0  0  0
 35 34  1  0  0  0
 34 32  2  0  0  0
 29 30  2  0  0  0
 29 31  1  0  0  0
 32 31  1  0  0  0
 32 33  1  0  0  0
 20 21  1  0  0  0
 13 15  1  0  0  0
  7 10  1  0  0  0
 31 37  1  0  0  0
 33 38  1  0  0  0
 33 39  1  0  0  0
 36 40  1  0  0  0
 36 41  1  0  0  0
M  END
> <minimizedAffinity>
-7.16930

$$$$
4EW3_DXZ_A_304


 41 42  0  0  0  0  0  0  0  0999 V2000
    2.1359   66.1062   92.5986 C   0  0  0  0  0  0  0  0  0  0  0  0
    0.9673   66.6468   93.0650 C   0  0  0  0  0  0  0  0  0  0  0  0
    0.0058   65.8116   93.6235 C   0  0  0  0  0  0  0  0  0  0  0  0
    2.3359   64.7440   92.7444 C   0  0  0  0  0  0  0  0  0  0  0  0
    1.3781   63.9096   93.3154 C   0  0  0  0  0  0  0  0  0  0  0  0
    0.1833   64.4488   93.7662 C   0  0  0  0  0  0  0  0  0  0  0  0
    3.7838   67.8261   92.8125 N   0  0  0  0  0  0  0  0  0  0  0  0
    3.1796   66.9939   91.9818 C   0  0  0  0  0  0  0  0  0  0  0  0
    3.4316   66.9524   90.7769 O   0  0  0  0  0  0  0  0  0  0  0  0
    3.5372   67.8312   93.7656 H   0  0  0  0  0  0  0  0  0  0  0  0
    4.8264   68.7478   92.3194 C   0  0  0  0  0  0  0  0  0  0  0  0
    6.0097   68.8697   93.2837 C   0  0  0  0  0  0  0  0  0  0  0  0
    6.6865   69.9125   93.2675 O   0  0  0  0  0  0  0  0  0  0  0  0
    6.2386   67.8830   93.9980 O   0  0  0  0  0  0  0  0  0  0  0  0
    6.4482   70.6169   92.6974 H   0  0  0  0  0  0  0  0  0  0  0  0
    4.2795   70.1621   92.0262 C   0  0  0  0  0  0  0  0  0  0  0  0
    3.2902   70.6589   93.0937 C   0  0  0  0  0  0  0  0  0  0  0  0
    4.8096   71.8024   94.5546 O   0  0  0  0  0  0  0  0  0  0  0  0
    3.7817   71.9552   93.8407 C   0  0  0  0  0  0  0  0  0  0  0  0
    3.1324   73.0454   93.7267 O   0  0  0  0  0  0  0  0  0  0  0  0
    2.3754   73.0845   93.1760 H   0  0  0  0  0  0  0  0  0  0  0  0
   -0.9089   63.5825   94.4234 C   0  0  0  0  0  0  0  0  0  0  0  0
   -2.5610   64.3518   94.1890 S   0  0  0  0  0  0  0  0  0  0  0  0
   -3.5648   63.0156   93.5075 C   0  0  0  0  0  0  0  0  0  0  0  0
   -0.6364   63.3453   95.9531 C   0  0  0  0  0  0  0  0  0  0  0  0
   -0.4463   64.6548   96.7025 C   0  0  0  0  0  0  0  0  0  0  0  0
   -1.2563   64.8088   98.0258 C   0  0  0  0  0  0  0  0  0  0  0  0
   -0.3336   65.5570   98.9685 C   0  0  0  0  0  0  0  0  0  0  0  0
    0.6382   64.8691   99.7027 C   0  0  0  0  0  0  0  0  0  0  0  0
    0.7502   63.6451   99.6361 O   0  0  0  0  0  0  0  0  0  0  0  0
    1.4763   65.5483  100.5359 N   0  0  0  0  0  0  0  0  0  0  0  0
    1.4020   66.9267  100.6323 C   0  0  0  0  0  0  0  0  0  0  0  0
    2.2517   67.5676  101.4223 N   0  0  0  0  0  0  0  0  0  0  0  0
    0.4683   67.5958   99.9235 N   0  0  0  0  0  0  0  0  0  0  0  0
   -0.3824   66.9535   99.1031 C   0  0  0  0  0  0  0  0  0  0  0  0
   -1.2864   67.6820   98.4068 N   0  0  0  0  0  0  0  0  0  0  0  0
    2.1384   65.0553  101.0723 H   0  0  0  0  0  0  0  0  0  0  0  0
    2.2085   68.5482  101.4991 H   0  0  0  0  0  0  0  0  0  0  0  0
    2.9259   67.0632  101.9324 H   0  0  0  0  0  0  0  0  0  0  0  0
   -1.9187   67.2326   97.8005 H   0  0  0  0  0  0  0  0  0  0  0  0
   -1.3116   68.6611   98.5068 H   0  0  0  0  0  0  0  0  0  0  0  0
 18 19  2  0  0  0
 19 20  1  0  0  0
 19 17  1  0  0  0
 17 16  1  0  0  0
 16 11  1  0  0  0
 11  7  1  0  0  0
 11 12  1  0  0  0
 23 24  1  0  0  0
 23 22  1  0  0  0
  9  8  2  0  0  0
  7  8  1  0  0  0
  8  1  1  0  0  0
  1  2  2  0  0  0
  1  4  1  0  0  0
  2  3  1  0  0  0
  4  5  2  0  0  0
  3  6  2  0  0  0
 12 14  2  0  0  0
 12 13  1  0  0  0
  5  6  1  0  0  0
  6 22  1  0  0  0
 22 25  1  0  0  0
 25 26  1  0  0  0
 26 27  1  0  0  0
 27 28  1  0  0  0
 36 35  1  0  0  0
 28 35  2  0  0  0
 28 29  1  0  0  0
 35 34  1  0  0  0
 34 32  2  0  0  0
 29 30  2  0  0  0
 29 31  1  0  0  0
 32 31  1  0  0  0
 32 33  1  0  0  0
 20 21  1  0  0  0
 13 15  1  0  0  0
  7 10  1  0  0  0
 31 37  1  0  0  0
 33 38  1  0  0  0
 33 39  1  0  0  0
 36 40  1  0  0  0
 36 41  1  0  0  0
M  END
> <minimizedAffinity>
-6.58475

$$$$
4EW3_DXZ_A_304


 41 42  0  0  0  0  0  0  0  0999 V2000
    3.2848   67.9515   92.8497 C   0  0  0  0  0  0  0  0  0  0  0  0
    1.9158   67.9419   92.8121 C   0  0  0  0  0  0  0  0  0  0  0  0
    1.2387   66.7377   92.9709 C   0  0  0  0  0  0  0  0  0  0  0  0
    3.9455   66.7592   93.0926 C   0  0  0  0  0  0  0  0  0  0  0  0
    3.2666   65.5555   93.2643 C   0  0  0  0  0  0  0  0  0  0  0  0
    1.8819   65.5369   93.2022 C   0  0  0  0  0  0  0  0  0  0  0  0
    3.3035   70.2706   92.2657 N   0  0  0  0  0  0  0  0  0  0  0  0
    4.0313   69.2429   92.6680 C   0  0  0  0  0  0  0  0  0  0  0  0
    5.2445   69.3198   92.8653 O   0  0  0  0  0  0  0  0  0  0  0  0
    2.3387   70.1551   92.1079 H   0  0  0  0  0  0  0  0  0  0  0  0
    3.9293   71.5905   92.0517 C   0  0  0  0  0  0  0  0  0  0  0  0
    3.6949   72.5507   93.2213 C   0  0  0  0  0  0  0  0  0  0  0  0
    4.2150   73.6792   93.1792 O   0  0  0  0  0  0  0  0  0  0  0  0
    3.0234   72.1108   94.1656 O   0  0  0  0  0  0  0  0  0  0  0  0
    4.7099   73.9392   92.4272 H   0  0  0  0  0  0  0  0  0  0  0  0
    3.4522   72.2709   90.7499 C   0  0  0  0  0  0  0  0  0  0  0  0
    2.2111   71.5992   90.1388 C   0  0  0  0  0  0  0  0  0  0  0  0
    0.3985   73.1286   89.7842 O   0  0  0  0  0  0  0  0  0  0  0  0
    1.3730   72.5634   89.2181 C   0  0  0  0  0  0  0  0  0  0  0  0
    1.6774   72.7004   87.9886 O   0  0  0  0  0  0  0  0  0  0  0  0
    2.4181   72.2477   87.6361 H   0  0  0  0  0  0  0  0  0  0  0  0
    1.0713   64.2413   93.4017 C   0  0  0  0  0  0  0  0  0  0  0  0
    0.3353   63.6969   91.8085 S   0  0  0  0  0  0  0  0  0  0  0  0
    1.5856   62.5984   91.1103 C   0  0  0  0  0  0  0  0  0  0  0  0
   -0.0536   64.4073   94.4867 C   0  0  0  0  0  0  0  0  0  0  0  0
    0.4955   64.9718   95.7876 C   0  0  0  0  0  0  0  0  0  0  0  0
   -0.5561   65.2801   96.8967 C   0  0  0  0  0  0  0  0  0  0  0  0
   -0.1549   64.4115   98.0734 C   0  0  0  0  0  0  0  0  0  0  0  0
    0.4303   64.9826   99.2083 C   0  0  0  0  0  0  0  0  0  0  0  0
    0.6695   66.1883   99.2730 O   0  0  0  0  0  0  0  0  0  0  0  0
    0.7736   64.1998  100.2702 N   0  0  0  0  0  0  0  0  0  0  0  0
    0.5091   62.8417  100.2531 C   0  0  0  0  0  0  0  0  0  0  0  0
    0.8198   62.1079  101.3124 N   0  0  0  0  0  0  0  0  0  0  0  0
   -0.0585   62.2860   99.1619 N   0  0  0  0  0  0  0  0  0  0  0  0
   -0.3964   63.0288   98.0926 C   0  0  0  0  0  0  0  0  0  0  0  0
   -0.9771   62.4157   97.0344 N   0  0  0  0  0  0  0  0  0  0  0  0
    1.2122   64.6032  101.0539 H   0  0  0  0  0  0  0  0  0  0  0  0
    0.6364   61.1406  101.3120 H   0  0  0  0  0  0  0  0  0  0  0  0
    1.2338   62.5301  102.0995 H   0  0  0  0  0  0  0  0  0  0  0  0
   -1.2327   62.9399   96.2412 H   0  0  0  0  0  0  0  0  0  0  0  0
   -1.1439   61.4457   97.0581 H   0  0  0  0  0  0  0  0  0  0  0  0
 18 19  2  0  0  0
 19 20  1  0  0  0
 19 17  1  0  0  0
 17 16  1  0  0  0
 16 11  1  0  0  0
 11  7  1  0  0  0
 11 12  1  0  0  0
 23 24  1  0  0  0
 23 22  1  0  0  0
  9  8  2  0  0  0
  7  8  1  0  0  0
  8  1  1  0  0  0
  1  2  2  0  0  0
  1  4  1  0  0  0
  2  3  1  0  0  0
  4  5  2  0  0  0
  3  6  2  0  0  0
 12 14  2  0  0  0
 12 13  1  0  0  0
  5  6  1  0  0  0
  6 22  1  0  0  0
 22 25  1  0  0  0
 25 26  1  0  0  0
 26 27  1  0  0  0
 27 28  1  0  0  0
 36 35  1  0  0  0
 28 35  2  0  0  0
 28 29  1  0  0  0
 35 34  1  0  0  0
 34 32  2  0  0  0
 29 30  2  0  0  0
 29 31  1  0  0  0
 32 31  1  0  0  0
 32 33  1  0  0  0
 20 21  1  0  0  0
 13 15  1  0  0  0
  7 10  1  0  0  0
 31 37  1  0  0  0
 33 38  1  0  0  0
 33 39  1  0  0  0
 36 40  1  0  0  0
 36 41  1  0  0  0
M  END
> <minimizedAffinity>
-6.30994

$$$$
4EW3_DXZ_A_304


 41 42  0  0  0  0  0  0  0  0999 V2000
    4.9595   67.2987   93.2272 C   0  0  0  0  0  0  0  0  0  0  0  0
    5.2230   66.0517   93.7282 C   0  0  0  0  0  0  0  0  0  0  0  0
    4.2139   65.0949   93.7389 C   0  0  0  0  0  0  0  0  0  0  0  0
    3.7017   67.5461   92.7038 C   0  0  0  0  0  0  0  0  0  0  0  0
    2.6952   66.5836   92.7030 C   0  0  0  0  0  0  0  0  0  0  0  0
    2.9498   65.3279   93.2320 C   0  0  0  0  0  0  0  0  0  0  0  0
    5.6389   69.5742   93.5096 N   0  0  0  0  0  0  0  0  0  0  0  0
    6.0359   68.3470   93.2195 C   0  0  0  0  0  0  0  0  0  0  0  0
    7.2032   68.0709   92.9403 O   0  0  0  0  0  0  0  0  0  0  0  0
    4.6911   69.7468   93.7124 H   0  0  0  0  0  0  0  0  0  0  0  0
    6.6086   70.6873   93.5312 C   0  0  0  0  0  0  0  0  0  0  0  0
    7.2196   70.9100   94.9175 C   0  0  0  0  0  0  0  0  0  0  0  0
    7.9380   70.0185   95.4023 O   0  0  0  0  0  0  0  0  0  0  0  0
    6.9149   71.9676   95.4874 O   0  0  0  0  0  0  0  0  0  0  0  0
    8.1232   69.2451   94.9069 H   0  0  0  0  0  0  0  0  0  0  0  0
    5.9974   72.0180   93.0403 C   0  0  0  0  0  0  0  0  0  0  0  0
    4.6683   71.8302   92.2899 C   0  0  0  0  0  0  0  0  0  0  0  0
    3.6091   71.9858   94.4357 O   0  0  0  0  0  0  0  0  0  0  0  0
    3.4036   72.0775   93.1952 C   0  0  0  0  0  0  0  0  0  0  0  0
    2.2709   72.3147   92.6625 O   0  0  0  0  0  0  0  0  0  0  0  0
    2.1937   72.3690   91.7303 H   0  0  0  0  0  0  0  0  0  0  0  0
    1.8847   64.2141   93.2444 C   0  0  0  0  0  0  0  0  0  0  0  0
    1.6230   63.5618   91.5467 S   0  0  0  0  0  0  0  0  0  0  0  0
   -0.1726   63.5401   91.3663 C   0  0  0  0  0  0  0  0  0  0  0  0
    0.5200   64.7059   93.8495 C   0  0  0  0  0  0  0  0  0  0  0  0
    0.6892   65.2409   95.2629 C   0  0  0  0  0  0  0  0  0  0  0  0
   -0.6153   65.3631   96.1082 C   0  0  0  0  0  0  0  0  0  0  0  0
   -0.3105   64.6474   97.4101 C   0  0  0  0  0  0  0  0  0  0  0  0
   -0.4386   63.2575   97.5010 C   0  0  0  0  0  0  0  0  0  0  0  0
   -0.8333   62.5828   96.5502 O   0  0  0  0  0  0  0  0  0  0  0  0
   -0.1472   62.6171   98.6685 N   0  0  0  0  0  0  0  0  0  0  0  0
    0.3172   63.3290   99.7604 C   0  0  0  0  0  0  0  0  0  0  0  0
    0.6277   62.6790  100.8731 N   0  0  0  0  0  0  0  0  0  0  0  0
    0.4458   64.6700   99.6771 N   0  0  0  0  0  0  0  0  0  0  0  0
    0.1535   65.3330   98.5439 C   0  0  0  0  0  0  0  0  0  0  0  0
    0.3180   66.6765   98.5176 N   0  0  0  0  0  0  0  0  0  0  0  0
   -0.2677   61.6423   98.7353 H   0  0  0  0  0  0  0  0  0  0  0  0
    0.9591   63.1747  101.6566 H   0  0  0  0  0  0  0  0  0  0  0  0
    0.5271   61.7007  100.9161 H   0  0  0  0  0  0  0  0  0  0  0  0
    0.1102   67.1820   97.6987 H   0  0  0  0  0  0  0  0  0  0  0  0
    0.6455   67.1481   99.3174 H   0  0  0  0  0  0  0  0  0  0  0  0
 18 19  2  0  0  0
 19 20  1  0  0  0
 19 17  1  0  0  0
 17 16  1  0  0  0
 16 11  1  0  0  0
 11  7  1  0  0  0
 11 12  1  0  0  0
 23 24  1  0  0  0
 23 22  1  0  0  0
  9  8  2  0  0  0
  7  8  1  0  0  0
  8  1  1  0  0  0
  1  2  2  0  0  0
  1  4  1  0  0  0
  2  3  1  0  0  0
  4  5  2  0  0  0
  3  6  2  0  0  0
 12 14  2  0  0  0
 12 13  1  0  0  0
  5  6  1  0  0  0
  6 22  1  0  0  0
 22 25  1  0  0  0
 25 26  1  0  0  0
 26 27  1  0  0  0
 27 28  1  0  0  0
 36 35  1  0  0  0
 28 35  2  0  0  0
 28 29  1  0  0  0
 35 34  1  0  0  0
 34 32  2  0  0  0
 29 30  2  0  0  0
 29 31  1  0  0  0
 32 31  1  0  0  0
 32 33  1  0  0  0
 20 21  1  0  0  0
 13 15  1  0  0  0
  7 10  1  0  0  0
 31 37  1  0  0  0
 33 38  1  0  0  0
 33 39  1  0  0  0
 36 40  1  0  0  0
 36 41  1  0  0  0
M  END
> <minimizedAffinity>
-5.88502

$$$$
4EW3_DXZ_A_304


 41 42  0  0  0  0  0  0  0  0999 V2000
    1.7241   63.0168   92.0746 C   0  0  0  0  0  0  0  0  0  0  0  0
    1.4859   61.8463   92.7445 C   0  0  0  0  0  0  0  0  0  0  0  0
    0.3312   61.7225   93.5094 C   0  0  0  0  0  0  0  0  0  0  0  0
    0.7756   64.0228   92.1481 C   0  0  0  0  0  0  0  0  0  0  0  0
   -0.3869   63.8936   92.9040 C   0  0  0  0  0  0  0  0  0  0  0  0
   -0.6202   62.7201   93.6039 C   0  0  0  0  0  0  0  0  0  0  0  0
    4.1075   62.9403   91.8919 N   0  0  0  0  0  0  0  0  0  0  0  0
    2.9731   63.1704   91.2533 C   0  0  0  0  0  0  0  0  0  0  0  0
    2.9293   63.5081   90.0697 O   0  0  0  0  0  0  0  0  0  0  0  0
    4.0909   62.6862   92.8430 H   0  0  0  0  0  0  0  0  0  0  0  0
    5.3991   63.0620   91.1873 C   0  0  0  0  0  0  0  0  0  0  0  0
    6.0008   61.7025   90.8201 C   0  0  0  0  0  0  0  0  0  0  0  0
    6.8119   61.1788   91.6034 O   0  0  0  0  0  0  0  0  0  0  0  0
    5.6608   61.2302   89.7258 O   0  0  0  0  0  0  0  0  0  0  0  0
    7.0177   61.5993   92.4150 H   0  0  0  0  0  0  0  0  0  0  0  0
    6.4437   63.8634   91.9946 C   0  0  0  0  0  0  0  0  0  0  0  0
    5.9126   64.3476   93.3541 C   0  0  0  0  0  0  0  0  0  0  0  0
    6.0199   62.1759   94.3653 O   0  0  0  0  0  0  0  0  0  0  0  0
    6.2957   63.3927   94.5464 C   0  0  0  0  0  0  0  0  0  0  0  0
    6.8121   63.8698   95.6088 O   0  0  0  0  0  0  0  0  0  0  0  0
    6.9899   64.7876   95.6721 H   0  0  0  0  0  0  0  0  0  0  0  0
   -1.8950   62.5080   94.4436 C   0  0  0  0  0  0  0  0  0  0  0  0
   -3.1909   61.6792   93.4386 S   0  0  0  0  0  0  0  0  0  0  0  0
   -4.0221   63.0435   92.5989 C   0  0  0  0  0  0  0  0  0  0  0  0
   -2.4486   63.8565   95.0315 C   0  0  0  0  0  0  0  0  0  0  0  0
   -1.8517   64.1649   96.3957 C   0  0  0  0  0  0  0  0  0  0  0  0
   -0.3281   64.4955   96.4163 C   0  0  0  0  0  0  0  0  0  0  0  0
   -0.1073   65.2589   97.7079 C   0  0  0  0  0  0  0  0  0  0  0  0
    0.2559   64.5826   98.8771 C   0  0  0  0  0  0  0  0  0  0  0  0
    0.3706   63.3573   98.9041 O   0  0  0  0  0  0  0  0  0  0  0  0
    0.4699   65.2753  100.0315 N   0  0  0  0  0  0  0  0  0  0  0  0
    0.3708   66.6553  100.0484 C   0  0  0  0  0  0  0  0  0  0  0  0
    0.6186   67.3089  101.1746 N   0  0  0  0  0  0  0  0  0  0  0  0
    0.0239   67.3133   98.9221 N   0  0  0  0  0  0  0  0  0  0  0  0
   -0.2072   66.6578   97.7705 C   0  0  0  0  0  0  0  0  0  0  0  0
   -0.5363   67.3753   96.6706 N   0  0  0  0  0  0  0  0  0  0  0  0
    0.6962   64.7908  100.8581 H   0  0  0  0  0  0  0  0  0  0  0  0
    0.5514   68.2908  101.1989 H   0  0  0  0  0  0  0  0  0  0  0  0
    0.8698   66.8124  101.9868 H   0  0  0  0  0  0  0  0  0  0  0  0
   -0.7097   66.9162   95.8171 H   0  0  0  0  0  0  0  0  0  0  0  0
   -0.6022   68.3561   96.7242 H   0  0  0  0  0  0  0  0  0  0  0  0
 18 19  2  0  0  0
 19 20  1  0  0  0
 19 17  1  0  0  0
 17 16  1  0  0  0
 16 11  1  0  0  0
 11  7  1  0  0  0
 11 12  1  0  0  0
 23 24  1  0  0  0
 23 22  1  0  0  0
  9  8  2  0  0  0
  7  8  1  0  0  0
  8  1  1  0  0  0
  1  2  2  0  0  0
  1  4  1  0  0  0
  2  3  1  0  0  0
  4  5  2  0  0  0
  3  6  2  0  0  0
 12 14  2  0  0  0
 12 13  1  0  0  0
  5  6  1  0  0  0
  6 22  1  0  0  0
 22 25  1  0  0  0
 25 26  1  0  0  0
 26 27  1  0  0  0
 27 28  1  0  0  0
 36 35  1  0  0  0
 28 35  2  0  0  0
 28 29  1  0  0  0
 35 34  1  0  0  0
 34 32  2  0  0  0
 29 30  2  0  0  0
 29 31  1  0  0  0
 32 31  1  0  0  0
 32 33  1  0  0  0
 20 21  1  0  0  0
 13 15  1  0  0  0
  7 10  1  0  0  0
 31 37  1  0  0  0
 33 38  1  0  0  0
 33 39  1  0  0  0
 36 40  1  0  0  0
 36 41  1  0  0  0
M  END
> <minimizedAffinity>
-5.79043

$$$$
