2BZA_ABN_A_703
  RCSB PDB12061705113D
Coordinates from PDB:2BZA:A:703 Model:1 without hydrogens
  8  8  0  0  0  0            999 V2000
  -11.3430   28.6040   41.9220   N 0  0  0  0  0  0  0  0  0  0  0  0
  -12.4460   27.8940   42.1280   C 0  0  0  0  0  0  0  0  0  0  0  0
  -12.8990   27.9750   43.4640   C 0  0  0  0  0  0  0  0  0  0  0  0
  -14.1950   28.4740   43.7970   C 0  0  0  0  0  0  0  0  0  0  0  0
  -14.6620   28.5600   45.1270   C 0  0  0  0  0  0  0  0  0  0  0  0
  -13.8430   28.1460   46.1740   C 0  0  0  0  0  0  0  0  0  0  0  0
  -12.5590   27.6490   45.8890   C 0  0  0  0  0  0  0  0  0  0  0  0
  -12.0900   27.5620   44.5580   C 0  0  0  0  0  0  0  0  0  0  0  0
  1  2  1  0  0  0  0
  2  3  1  0  0  0  0
  3  4  2  0  0  0  0
  3  8  1  0  0  0  0
  4  5  1  0  0  0  0
  5  6  2  0  0  0  0
  6  7  1  0  0  0  0
  7  8  2  0  0  0  0
A    1
N
A    2
C
A    3
C1
A    4
C2
A    5
C3
A    6
C4
A    7
C5
A    8
C6
M  END
>  <InstanceId>
2BZA_ABN_A_703

>  <ChemCompId>
ABN

>  <PdbId>
2BZA

>  <ChainId>
A

>  <ResidueNumber>
703

>  <InsertionCode>


>  <Model>
1

>  <AltIds>


>  <MissingHeavyAtoms>
0

>  <ObservedFormula>
C7 N

>  <Name>
BENZYLAMINE

>  <SystematicName>
phenylmethanamine

>  <Synonyms>


>  <Type>
NON-POLYMER

>  <Formula>
C7 H9 N

>  <MolecularWeight>
107.153

>  <ModifiedDate>
2011-06-04

>  <Parent>


>  <OneLetterCode>


>  <SubcomponentList>


>  <AmbiguousFlag>
N

>  <InChI>
InChI=1S/C7H9N/c8-6-7-4-2-1-3-5-7/h1-5H,6,8H2

>  <InChIKey>
WGQKYBSKWIADBV-UHFFFAOYSA-N

>  <SMILES>
c1ccc(cc1)CN

$$$$
