3R24_SAM_A_302
  RCSB PDB12061710303D
Coordinates from PDB:3R24:A:302 Model:1 without hydrogens
 27 29  0  0  0  0            999 V2000
   60.5760   61.6140   68.5260   N 0  0  0  0  0  0  0  0  0  0  0  0
   60.2890   60.3340   67.8830   C 0  0  0  0  0  0  0  0  0  0  0  0
   61.4520   59.3590   68.0280   C 0  0  0  0  0  0  0  0  0  0  0  0
   61.6820   58.5050   67.1670   O 0  0  0  0  0  0  0  0  0  0  0  0
   62.1820   59.4090   69.0250   O 0  5  0  0  0  0  0  0  0  0  0  0
   59.8590   60.5350   66.4260   C 0  0  0  0  0  0  0  0  0  0  0  0
   58.8950   61.7100   66.2740   C 0  0  0  0  0  0  0  0  0  0  0  0
   57.9890   61.7250   64.7020   S 0  3  0  0  0  0  0  0  0  0  0  0
   59.1970   62.5990   63.6870   C 0  0  0  0  0  0  0  0  0  0  0  0
   56.7340   63.0110   64.9610   C 0  0  0  0  0  0  0  0  0  0  0  0
   55.6910   62.6000   65.9960   C 0  0  0  0  0  0  0  0  0  0  0  0
   54.8970   63.7130   66.3820   O 0  0  0  0  0  0  0  0  0  0  0  0
   54.7360   61.5410   65.4540   C 0  0  0  0  0  0  0  0  0  0  0  0
   54.7940   60.3900   66.2710   O 0  0  0  0  0  0  0  0  0  0  0  0
   53.3630   62.1850   65.5400   C 0  0  0  0  0  0  0  0  0  0  0  0
   52.3590   61.2840   65.9370   O 0  0  0  0  0  0  0  0  0  0  0  0
   53.5700   63.2630   66.5890   C 0  0  0  0  0  0  0  0  0  0  0  0
   52.5390   64.3300   66.5250   N 0  0  0  0  0  0  0  0  0  0  0  0
   52.2120   65.1520   65.4740   C 0  0  0  0  0  0  0  0  0  0  0  0
   51.2100   65.9840   65.8680   N 0  0  0  0  0  0  0  0  0  0  0  0
   50.8870   65.6990   67.1490   C 0  0  0  0  0  0  0  0  0  0  0  0
   49.9490   66.2240   68.0330   C 0  0  0  0  0  0  0  0  0  0  0  0
   49.1320   67.2080   67.6680   N 0  0  0  0  0  0  0  0  0  0  0  0
   49.8630   65.7120   69.3060   N 0  0  0  0  0  0  0  0  0  0  0  0
   50.6940   64.6940   69.7070   C 0  0  0  0  0  0  0  0  0  0  0  0
   51.6210   64.1760   68.8250   N 0  0  0  0  0  0  0  0  0  0  0  0
   51.7190   64.6680   67.5710   C 0  0  0  0  0  0  0  0  0  0  0  0
  1  2  1  0  0  0  0
  2  3  1  0  0  0  0
  2  6  1  0  0  0  0
  3  4  2  0  0  0  0
  3  5  1  0  0  0  0
  6  7  1  0  0  0  0
  7  8  1  0  0  0  0
  8  9  1  0  0  0  0
  8 10  1  0  0  0  0
 10 11  1  0  0  0  0
 11 12  1  0  0  0  0
 11 13  1  0  0  0  0
 12 17  1  0  0  0  0
 13 14  1  0  0  0  0
 13 15  1  0  0  0  0
 15 16  1  0  0  0  0
 15 17  1  0  0  0  0
 17 18  1  0  0  0  0
 18 19  1  0  0  0  0
 18 27  1  0  0  0  0
 19 20  2  0  0  0  0
 20 21  1  0  0  0  0
 21 22  1  0  0  0  0
 21 27  2  0  0  0  0
 22 23  1  0  0  0  0
 22 24  2  0  0  0  0
 24 25  1  0  0  0  0
 25 26  2  0  0  0  0
 26 27  1  0  0  0  0
M  CHG  2   5  -1   8   1
A    1
N
A    2
CA
A    3
C
A    4
O
A    5
OXT
A    6
CB
A    7
CG
A    8
SD
A    9
CE
A   10
C5'
A   11
C4'
A   12
O4'
A   13
C3'
A   14
O3'
A   15
C2'
A   16
O2'
A   17
C1'
A   18
N9
A   19
C8
A   20
N7
A   21
C5
A   22
C6
A   23
N6
A   24
N1
A   25
C2
A   26
N3
A   27
C4
M  END
>  <InstanceId>
3R24_SAM_A_302

>  <ChemCompId>
SAM

>  <PdbId>
3R24

>  <ChainId>
A

>  <ResidueNumber>
302

>  <InsertionCode>


>  <Model>
1

>  <AltIds>


>  <MissingHeavyAtoms>
0

>  <ObservedFormula>
C15 N6 O5 S

>  <Name>
S-ADENOSYLMETHIONINE

>  <SystematicName>
(2S)-2-amino-4-[[(2S,3S,4R,5R)-5-(6-aminopurin-9-yl)-3,4-dihydroxy-oxolan-2-yl]methyl-methyl-sulfonio]butanoate

>  <Synonyms>


>  <Type>
NON-POLYMER

>  <Formula>
C15 H22 N6 O5 S

>  <MolecularWeight>
398.437

>  <ModifiedDate>
2011-06-04

>  <Parent>


>  <OneLetterCode>


>  <SubcomponentList>


>  <AmbiguousFlag>
N

>  <InChI>
InChI=1S/C15H22N6O5S/c1-27(3-2-7(16)15(24)25)4-8-10(22)11(23)14(26-8)21-6-20-9-12(17)18-5-19-13(9)21/h5-8,10-11,14,22-23H,2-4,16H2,1H3,(H2-,17,18,19,24,25)/t7-,8+,10+,11+,14+,27-/m0/s1

>  <InChIKey>
MEFKEPWMEQBLKI-FCKMPRQPSA-N

>  <SMILES>
C[S@@+](CC[C@@H](C(=O)[O-])N)C[C@@H]1[C@H]([C@H]([C@@H](O1)n2cnc3c2ncnc3N)O)O

$$$$
