2QD8_065_B_404


 42 46  0  0  0  0  0  0  0  0999 V2000
   16.2952   24.6032   17.9538 C   0  0  0  0  0  0  0  0  0  0  0  0
   15.7207   25.4502   18.9398 O   0  0  0  0  0  0  0  0  0  0  0  0
   15.6739   24.9768   19.7852 H   0  0  0  0  0  0  0  0  0  0  0  0
   15.4099   23.3903   17.6601 C   0  0  0  0  0  0  0  0  0  0  0  0
   15.7419   22.7761   16.3854 N   0  0  0  0  0  0  0  0  0  0  0  0
   15.6732   21.1349   16.3312 S   0  0  0  0  0  0  0  0  0  0  0  0
   16.9574   20.6251   16.8100 O   0  0  0  0  0  0  0  0  0  0  0  0
   15.3016   20.7950   14.9327 O   0  0  0  0  0  0  0  0  0  0  0  0
   12.4269   19.4125   18.9270 C   0  0  0  0  0  0  0  0  0  0  0  0
   11.6518   18.7830   19.8528 O   0  0  0  0  0  0  0  0  0  0  0  0
   12.4687   18.5902   20.9645 C   0  0  0  0  0  0  0  0  0  0  0  0
   13.7446   19.0441   20.7016 O   0  0  0  0  0  0  0  0  0  0  0  0
   13.7207   19.5401   19.4222 C   0  0  0  0  0  0  0  0  0  0  0  0
   14.7249   20.1211   18.6552 C   0  0  0  0  0  0  0  0  0  0  0  0
   14.3970   20.5516   17.3854 C   0  0  0  0  0  0  0  0  0  0  0  0
   13.0991   20.4690   16.9129 C   0  0  0  0  0  0  0  0  0  0  0  0
   12.0982   19.8919   17.6789 C   0  0  0  0  0  0  0  0  0  0  0  0
   15.3097   23.4678   15.1911 C   0  0  0  0  0  0  0  0  0  0  0  0
   16.4370   23.7919   14.1925 C   0  0  0  0  0  0  0  0  0  0  0  0
   16.0003   23.4995   12.7701 C   0  0  0  0  0  0  0  0  0  0  0  0
   16.7949   25.2767   14.3386 C   0  0  0  0  0  0  0  0  0  0  0  0
   17.7244   24.2601   18.3572 C   0  0  0  0  0  0  0  0  0  0  0  0
   18.5989   25.2412   17.7395 N   0  0  0  0  0  0  0  0  0  0  0  0
   19.4474   25.0124   16.7429 C   0  0  0  0  0  0  0  0  0  0  0  0
   19.6014   23.9164   16.1870 O   0  0  0  0  0  0  0  0  0  0  0  0
   18.5594   26.1598   18.0913 H   0  0  0  0  0  0  0  0  0  0  0  0
   20.1582   26.1060   16.3975 O   0  0  0  0  0  0  0  0  0  0  0  0
   20.3479   26.3088   14.9961 C   0  0  0  0  0  0  0  0  0  0  0  0
   19.5412   27.5707   14.6657 C   0  0  0  0  0  0  0  0  0  0  0  0
   20.3228   28.6797   15.1630 O   0  0  0  0  0  0  0  0  0  0  0  0
   21.6853   28.3242   15.0066 C   0  0  0  0  0  0  0  0  0  0  0  0
   22.3604   28.6148   16.2363 O   0  0  0  0  0  0  0  0  0  0  0  0
   22.7378   27.3972   16.8402 C   0  0  0  0  0  0  0  0  0  0  0  0
   22.8607   26.3531   15.7173 C   0  0  0  0  0  0  0  0  0  0  0  0
   21.7712   26.8253   14.7527 C   0  0  0  0  0  0  0  0  0  0  0  0
   17.9699   24.3056   19.8675 C   0  0  0  0  0  0  0  0  0  0  0  0
   20.2814   25.1130   20.5686 C   0  0  0  0  0  0  0  0  0  0  0  0
   21.6363   24.9219   20.8265 C   0  0  0  0  0  0  0  0  0  0  0  0
   22.1856   23.6733   20.7004 C   0  0  0  0  0  0  0  0  0  0  0  0
   21.3574   22.6375   20.3198 C   0  0  0  0  0  0  0  0  0  0  0  0
   20.0018   22.8178   20.0698 C   0  0  0  0  0  0  0  0  0  0  0  0
   19.4410   24.0851   20.1843 C   0  0  0  0  0  0  0  0  0  0  0  0
  9 17  1  0  0  0
  9 10  1  0  0  0
  9 13  2  0  0  0
 10 11  1  0  0  0
 11 12  1  0  0  0
 12 13  1  0  0  0
 13 14  1  0  0  0
 14 15  2  0  0  0
 15  6  1  0  0  0
 15 16  1  0  0  0
 16 17  2  0  0  0
  6  5  1  0  0  0
  6  7  2  0  0  0
  6  8  2  0  0  0
  5 18  1  0  0  0
  5  4  1  0  0  0
 18 19  1  0  0  0
 19 20  1  0  0  0
 19 21  1  0  0  0
  4  1  1  0  0  0
  1  2  1  0  0  0
  1 22  1  0  0  0
 22 36  1  0  0  0
 22 23  1  0  0  0
 23 24  1  0  0  0
 24 25  2  0  0  0
 24 27  1  0  0  0
 27 28  1  0  0  0
 28 29  1  0  0  0
 28 35  1  0  0  0
 29 30  1  0  0  0
 30 31  1  0  0  0
 31 32  1  0  0  0
 31 35  1  0  0  0
 32 33  1  0  0  0
 33 34  1  0  0  0
 34 35  1  0  0  0
 36 42  1  0  0  0
 37 42  1  0  0  0
 37 38  2  0  0  0
 38 39  1  0  0  0
 39 40  2  0  0  0
 40 41  1  0  0  0
 41 42  2  0  0  0
  2  3  1  0  0  0
 23 26  1  0  0  0
M  END
> <minimizedAffinity>
-10.65017

$$$$
2QD8_065_B_404


 42 46  0  0  0  0  0  0  0  0999 V2000
   16.1122   24.6383   18.0718 C   0  0  0  0  0  0  0  0  0  0  0  0
   15.7059   25.7369   18.8766 O   0  0  0  0  0  0  0  0  0  0  0  0
   15.6904   25.4670   19.8082 H   0  0  0  0  0  0  0  0  0  0  0  0
   15.0976   23.4939   18.1176 C   0  0  0  0  0  0  0  0  0  0  0  0
   15.6663   22.2489   17.6286 N   0  0  0  0  0  0  0  0  0  0  0  0
   15.9763   21.0988   18.7611 S   0  0  0  0  0  0  0  0  0  0  0  0
   15.8828   21.7375   20.0732 O   0  0  0  0  0  0  0  0  0  0  0  0
   17.2958   20.5206   18.3946 O   0  0  0  0  0  0  0  0  0  0  0  0
   12.9630   17.7578   18.7437 C   0  0  0  0  0  0  0  0  0  0  0  0
   11.8965   16.9221   18.8790 O   0  0  0  0  0  0  0  0  0  0  0  0
   10.7954   17.7447   19.1052 C   0  0  0  0  0  0  0  0  0  0  0  0
   11.1920   19.0645   19.1651 O   0  0  0  0  0  0  0  0  0  0  0  0
   12.5487   19.0686   18.9577 C   0  0  0  0  0  0  0  0  0  0  0  0
   13.4566   20.1211   18.9114 C   0  0  0  0  0  0  0  0  0  0  0  0
   14.7799   19.8188   18.6610 C   0  0  0  0  0  0  0  0  0  0  0  0
   15.1820   18.5209   18.3997 C   0  0  0  0  0  0  0  0  0  0  0  0
   14.2761   17.4725   18.4436 C   0  0  0  0  0  0  0  0  0  0  0  0
   15.1904   21.7673   16.3506 C   0  0  0  0  0  0  0  0  0  0  0  0
   14.9574   22.8657   15.2960 C   0  0  0  0  0  0  0  0  0  0  0  0
   16.0830   22.8877   14.2802 C   0  0  0  0  0  0  0  0  0  0  0  0
   13.6218   22.5827   14.5958 C   0  0  0  0  0  0  0  0  0  0  0  0
   17.5340   24.2385   18.4482 C   0  0  0  0  0  0  0  0  0  0  0  0
   18.4387   25.1146   17.7253 N   0  0  0  0  0  0  0  0  0  0  0  0
   19.2158   24.7645   16.7058 C   0  0  0  0  0  0  0  0  0  0  0  0
   19.2657   23.6277   16.2168 O   0  0  0  0  0  0  0  0  0  0  0  0
   18.4801   26.0539   18.0171 H   0  0  0  0  0  0  0  0  0  0  0  0
   19.9795   25.7812   16.2549 O   0  0  0  0  0  0  0  0  0  0  0  0
   20.3323   25.7294   14.8714 C   0  0  0  0  0  0  0  0  0  0  0  0
   19.2302   26.5166   14.1518 C   0  0  0  0  0  0  0  0  0  0  0  0
   19.5121   27.9110   14.4054 O   0  0  0  0  0  0  0  0  0  0  0  0
   20.9215   28.0402   14.4670 C   0  0  0  0  0  0  0  0  0  0  0  0
   21.2430   28.8116   15.6305 O   0  0  0  0  0  0  0  0  0  0  0  0
   21.8841   27.9708   16.5640 C   0  0  0  0  0  0  0  0  0  0  0  0
   22.5307   26.8225   15.7706 C   0  0  0  0  0  0  0  0  0  0  0  0
   21.5309   26.6537   14.6250 C   0  0  0  0  0  0  0  0  0  0  0  0
   17.8434   24.3815   19.9405 C   0  0  0  0  0  0  0  0  0  0  0  0
   20.2233   25.0599   20.5427 C   0  0  0  0  0  0  0  0  0  0  0  0
   21.5705   24.7896   20.7679 C   0  0  0  0  0  0  0  0  0  0  0  0
   22.0337   23.5038   20.6730 C   0  0  0  0  0  0  0  0  0  0  0  0
   21.1288   22.5117   20.3563 C   0  0  0  0  0  0  0  0  0  0  0  0
   19.7804   22.7716   20.1394 C   0  0  0  0  0  0  0  0  0  0  0  0
   19.3065   24.0763   20.2223 C   0  0  0  0  0  0  0  0  0  0  0  0
  9 17  1  0  0  0
  9 10  1  0  0  0
  9 13  2  0  0  0
 10 11  1  0  0  0
 11 12  1  0  0  0
 12 13  1  0  0  0
 13 14  1  0  0  0
 14 15  2  0  0  0
 15  6  1  0  0  0
 15 16  1  0  0  0
 16 17  2  0  0  0
  6  5  1  0  0  0
  6  7  2  0  0  0
  6  8  2  0  0  0
  5 18  1  0  0  0
  5  4  1  0  0  0
 18 19  1  0  0  0
 19 20  1  0  0  0
 19 21  1  0  0  0
  4  1  1  0  0  0
  1  2  1  0  0  0
  1 22  1  0  0  0
 22 36  1  0  0  0
 22 23  1  0  0  0
 23 24  1  0  0  0
 24 25  2  0  0  0
 24 27  1  0  0  0
 27 28  1  0  0  0
 28 29  1  0  0  0
 28 35  1  0  0  0
 29 30  1  0  0  0
 30 31  1  0  0  0
 31 32  1  0  0  0
 31 35  1  0  0  0
 32 33  1  0  0  0
 33 34  1  0  0  0
 34 35  1  0  0  0
 36 42  1  0  0  0
 37 42  1  0  0  0
 37 38  2  0  0  0
 38 39  1  0  0  0
 39 40  2  0  0  0
 40 41  1  0  0  0
 41 42  2  0  0  0
  2  3  1  0  0  0
 23 26  1  0  0  0
M  END
> <minimizedAffinity>
-10.55687

$$$$
2QD8_065_B_404


 42 46  0  0  0  0  0  0  0  0999 V2000
   15.6562   23.8784   18.4446 C   0  0  0  0  0  0  0  0  0  0  0  0
   14.7653   24.9797   18.5584 O   0  0  0  0  0  0  0  0  0  0  0  0
   14.6986   25.4314   17.7025 H   0  0  0  0  0  0  0  0  0  0  0  0
   17.0861   24.3324   18.1434 C   0  0  0  0  0  0  0  0  0  0  0  0
   18.0533   23.6786   19.0092 N   0  0  0  0  0  0  0  0  0  0  0  0
   19.5799   24.2869   18.9810 S   0  0  0  0  0  0  0  0  0  0  0  0
   20.5017   23.1704   19.1860 O   0  0  0  0  0  0  0  0  0  0  0  0
   19.6012   25.3645   20.0046 O   0  0  0  0  0  0  0  0  0  0  0  0
   20.1678   26.1775   14.9409 C   0  0  0  0  0  0  0  0  0  0  0  0
   20.2787   26.9807   13.8469 O   0  0  0  0  0  0  0  0  0  0  0  0
   20.4897   28.2665   14.3393 C   0  0  0  0  0  0  0  0  0  0  0  0
   20.4509   28.2601   15.7181 O   0  0  0  0  0  0  0  0  0  0  0  0
   20.2312   26.9577   16.0910 C   0  0  0  0  0  0  0  0  0  0  0  0
   20.1076   26.3831   17.3515 C   0  0  0  0  0  0  0  0  0  0  0  0
   19.9063   25.0192   17.4198 C   0  0  0  0  0  0  0  0  0  0  0  0
   19.8927   24.2380   16.2778 C   0  0  0  0  0  0  0  0  0  0  0  0
   20.0184   24.8113   15.0219 C   0  0  0  0  0  0  0  0  0  0  0  0
   17.5779   23.2203   20.2960 C   0  0  0  0  0  0  0  0  0  0  0  0
   17.6038   21.6915   20.4834 C   0  0  0  0  0  0  0  0  0  0  0  0
   17.6536   20.9830   19.1437 C   0  0  0  0  0  0  0  0  0  0  0  0
   18.8413   21.3312   21.3158 C   0  0  0  0  0  0  0  0  0  0  0  0
   15.0886   22.8739   17.4486 C   0  0  0  0  0  0  0  0  0  0  0  0
   14.3281   21.8941   18.2037 N   0  0  0  0  0  0  0  0  0  0  0  0
   14.0777   20.6438   17.8298 C   0  0  0  0  0  0  0  0  0  0  0  0
   14.4765   20.1312   16.7752 O   0  0  0  0  0  0  0  0  0  0  0  0
   13.9646   22.1825   19.0720 H   0  0  0  0  0  0  0  0  0  0  0  0
   13.3131   19.9740   18.7169 O   0  0  0  0  0  0  0  0  0  0  0  0
   13.9488   18.8870   19.3918 C   0  0  0  0  0  0  0  0  0  0  0  0
   13.8530   19.2358   20.8822 C   0  0  0  0  0  0  0  0  0  0  0  0
   12.4846   18.9692   21.2623 O   0  0  0  0  0  0  0  0  0  0  0  0
   12.0520   17.8634   20.4896 C   0  0  0  0  0  0  0  0  0  0  0  0
   10.7688   18.1850   19.9399 O   0  0  0  0  0  0  0  0  0  0  0  0
   10.9032   18.3369   18.5441 C   0  0  0  0  0  0  0  0  0  0  0  0
   12.1284   17.5122   18.1142 C   0  0  0  0  0  0  0  0  0  0  0  0
   13.0306   17.6598   19.3409 C   0  0  0  0  0  0  0  0  0  0  0  0
   14.1476   23.4931   16.4121 C   0  0  0  0  0  0  0  0  0  0  0  0
   15.8718   23.9579   14.5961 C   0  0  0  0  0  0  0  0  0  0  0  0
   16.3708   23.8429   13.3013 C   0  0  0  0  0  0  0  0  0  0  0  0
   15.7002   23.0874   12.3760 C   0  0  0  0  0  0  0  0  0  0  0  0
   14.5391   22.4573   12.7739 C   0  0  0  0  0  0  0  0  0  0  0  0
   14.0391   22.5590   14.0672 C   0  0  0  0  0  0  0  0  0  0  0  0
   14.7087   23.3343   15.0075 C   0  0  0  0  0  0  0  0  0  0  0  0
  9 17  1  0  0  0
  9 10  1  0  0  0
  9 13  2  0  0  0
 10 11  1  0  0  0
 11 12  1  0  0  0
 12 13  1  0  0  0
 13 14  1  0  0  0
 14 15  2  0  0  0
 15  6  1  0  0  0
 15 16  1  0  0  0
 16 17  2  0  0  0
  6  5  1  0  0  0
  6  7  2  0  0  0
  6  8  2  0  0  0
  5 18  1  0  0  0
  5  4  1  0  0  0
 18 19  1  0  0  0
 19 20  1  0  0  0
 19 21  1  0  0  0
  4  1  1  0  0  0
  1  2  1  0  0  0
  1 22  1  0  0  0
 22 36  1  0  0  0
 22 23  1  0  0  0
 23 24  1  0  0  0
 24 25  2  0  0  0
 24 27  1  0  0  0
 27 28  1  0  0  0
 28 29  1  0  0  0
 28 35  1  0  0  0
 29 30  1  0  0  0
 30 31  1  0  0  0
 31 32  1  0  0  0
 31 35  1  0  0  0
 32 33  1  0  0  0
 33 34  1  0  0  0
 34 35  1  0  0  0
 36 42  1  0  0  0
 37 42  1  0  0  0
 37 38  2  0  0  0
 38 39  1  0  0  0
 39 40  2  0  0  0
 40 41  1  0  0  0
 41 42  2  0  0  0
  2  3  1  0  0  0
 23 26  1  0  0  0
M  END
> <minimizedAffinity>
-10.32354

$$$$
2QD8_065_B_404


 42 46  0  0  0  0  0  0  0  0999 V2000
   17.2104   21.4951   16.8679 C   0  0  0  0  0  0  0  0  0  0  0  0
   17.9578   20.2894   16.7827 O   0  0  0  0  0  0  0  0  0  0  0  0
   18.7472   20.3581   17.3421 H   0  0  0  0  0  0  0  0  0  0  0  0
   17.9813   22.6841   16.2906 C   0  0  0  0  0  0  0  0  0  0  0  0
   17.0961   23.6381   15.6437 N   0  0  0  0  0  0  0  0  0  0  0  0
   17.3384   25.2205   16.0159 S   0  0  0  0  0  0  0  0  0  0  0  0
   16.8180   25.4394   17.3649 O   0  0  0  0  0  0  0  0  0  0  0  0
   16.6955   25.9931   14.9208 O   0  0  0  0  0  0  0  0  0  0  0  0
   21.6795   26.3996   15.9309 C   0  0  0  0  0  0  0  0  0  0  0  0
   22.9452   26.8478   16.1576 O   0  0  0  0  0  0  0  0  0  0  0  0
   23.0915   26.8887   17.5422 C   0  0  0  0  0  0  0  0  0  0  0  0
   21.9110   26.5251   18.1562 O   0  0  0  0  0  0  0  0  0  0  0  0
   21.0252   26.2381   17.1480 C   0  0  0  0  0  0  0  0  0  0  0  0
   19.6996   25.8201   17.1962 C   0  0  0  0  0  0  0  0  0  0  0  0
   19.0548   25.5861   15.9984 C   0  0  0  0  0  0  0  0  0  0  0  0
   19.7212   25.6994   14.7910 C   0  0  0  0  0  0  0  0  0  0  0  0
   21.0432   26.1139   14.7438 C   0  0  0  0  0  0  0  0  0  0  0  0
   16.7185   23.3600   14.2755 C   0  0  0  0  0  0  0  0  0  0  0  0
   15.3987   22.5812   14.1186 C   0  0  0  0  0  0  0  0  0  0  0  0
   14.3266   23.1443   15.0312 C   0  0  0  0  0  0  0  0  0  0  0  0
   14.9517   22.6852   12.6545 C   0  0  0  0  0  0  0  0  0  0  0  0
   16.7306   21.6884   18.3017 C   0  0  0  0  0  0  0  0  0  0  0  0
   15.5530   20.8583   18.4826 N   0  0  0  0  0  0  0  0  0  0  0  0
   14.3573   21.2768   18.8837 C   0  0  0  0  0  0  0  0  0  0  0  0
   14.0761   22.4533   19.1498 O   0  0  0  0  0  0  0  0  0  0  0  0
   15.6492   19.8975   18.2906 H   0  0  0  0  0  0  0  0  0  0  0  0
   13.4614   20.2744   18.9972 O   0  0  0  0  0  0  0  0  0  0  0  0
   13.9574   19.0554   19.5532 C   0  0  0  0  0  0  0  0  0  0  0  0
   13.6694   19.1594   21.0560 C   0  0  0  0  0  0  0  0  0  0  0  0
   12.2527   18.9158   21.2036 O   0  0  0  0  0  0  0  0  0  0  0  0
   11.8909   17.9798   20.2035 C   0  0  0  0  0  0  0  0  0  0  0  0
   10.7086   18.4631   19.5547 O   0  0  0  0  0  0  0  0  0  0  0  0
   11.0402   18.8341   18.2349 C   0  0  0  0  0  0  0  0  0  0  0  0
   12.2820   18.0200   17.8335 C   0  0  0  0  0  0  0  0  0  0  0  0
   13.0107   17.9100   19.1741 C   0  0  0  0  0  0  0  0  0  0  0  0
   17.7567   21.2747   19.3596 C   0  0  0  0  0  0  0  0  0  0  0  0
   19.9834   22.4567   19.7219 C   0  0  0  0  0  0  0  0  0  0  0  0
   20.7634   23.5298   20.1449 C   0  0  0  0  0  0  0  0  0  0  0  0
   20.1631   24.6513   20.6534 C   0  0  0  0  0  0  0  0  0  0  0  0
   18.7853   24.6727   20.7227 C   0  0  0  0  0  0  0  0  0  0  0  0
   17.9987   23.6097   20.2937 C   0  0  0  0  0  0  0  0  0  0  0  0
   18.6028   22.4638   19.7880 C   0  0  0  0  0  0  0  0  0  0  0  0
  9 17  1  0  0  0
  9 10  1  0  0  0
  9 13  2  0  0  0
 10 11  1  0  0  0
 11 12  1  0  0  0
 12 13  1  0  0  0
 13 14  1  0  0  0
 14 15  2  0  0  0
 15  6  1  0  0  0
 15 16  1  0  0  0
 16 17  2  0  0  0
  6  5  1  0  0  0
  6  7  2  0  0  0
  6  8  2  0  0  0
  5 18  1  0  0  0
  5  4  1  0  0  0
 18 19  1  0  0  0
 19 20  1  0  0  0
 19 21  1  0  0  0
  4  1  1  0  0  0
  1  2  1  0  0  0
  1 22  1  0  0  0
 22 36  1  0  0  0
 22 23  1  0  0  0
 23 24  1  0  0  0
 24 25  2  0  0  0
 24 27  1  0  0  0
 27 28  1  0  0  0
 28 29  1  0  0  0
 28 35  1  0  0  0
 29 30  1  0  0  0
 30 31  1  0  0  0
 31 32  1  0  0  0
 31 35  1  0  0  0
 32 33  1  0  0  0
 33 34  1  0  0  0
 34 35  1  0  0  0
 36 42  1  0  0  0
 37 42  1  0  0  0
 37 38  2  0  0  0
 38 39  1  0  0  0
 39 40  2  0  0  0
 40 41  1  0  0  0
 41 42  2  0  0  0
  2  3  1  0  0  0
 23 26  1  0  0  0
M  END
> <minimizedAffinity>
-10.30890

$$$$
2QD8_065_B_404


 42 46  0  0  0  0  0  0  0  0999 V2000
   15.1393   23.6912   18.2318 C   0  0  0  0  0  0  0  0  0  0  0  0
   13.9663   24.4624   18.4523 O   0  0  0  0  0  0  0  0  0  0  0  0
   13.7130   24.9084   17.6289 H   0  0  0  0  0  0  0  0  0  0  0  0
   16.3436   24.5719   17.8923 C   0  0  0  0  0  0  0  0  0  0  0  0
   17.3527   23.8410   17.1442 N   0  0  0  0  0  0  0  0  0  0  0  0
   17.6444   24.3669   15.6146 S   0  0  0  0  0  0  0  0  0  0  0  0
   16.5900   25.3192   15.2687 O   0  0  0  0  0  0  0  0  0  0  0  0
   17.7342   23.1406   14.7792 O   0  0  0  0  0  0  0  0  0  0  0  0
   21.5736   26.5185   15.1971 C   0  0  0  0  0  0  0  0  0  0  0  0
   22.6113   27.3948   15.0997 O   0  0  0  0  0  0  0  0  0  0  0  0
   22.1813   28.5638   15.7232 C   0  0  0  0  0  0  0  0  0  0  0  0
   20.8758   28.4247   16.1463 O   0  0  0  0  0  0  0  0  0  0  0  0
   20.4923   27.1533   15.8001 C   0  0  0  0  0  0  0  0  0  0  0  0
   19.2868   26.4859   15.9885 C   0  0  0  0  0  0  0  0  0  0  0  0
   19.1971   25.1819   15.5450 C   0  0  0  0  0  0  0  0  0  0  0  0
   20.2881   24.5363   14.9904 C   0  0  0  0  0  0  0  0  0  0  0  0
   21.4901   25.2014   14.8050 C   0  0  0  0  0  0  0  0  0  0  0  0
   18.5039   23.3699   17.8822 C   0  0  0  0  0  0  0  0  0  0  0  0
   18.7404   24.0819   19.2275 C   0  0  0  0  0  0  0  0  0  0  0  0
   18.7169   23.0913   20.3753 C   0  0  0  0  0  0  0  0  0  0  0  0
   20.1034   24.7837   19.1656 C   0  0  0  0  0  0  0  0  0  0  0  0
   14.8408   22.6049   17.2051 C   0  0  0  0  0  0  0  0  0  0  0  0
   13.9791   21.6263   17.8442 N   0  0  0  0  0  0  0  0  0  0  0  0
   14.3408   20.4126   18.2464 C   0  0  0  0  0  0  0  0  0  0  0  0
   15.4839   19.9477   18.1411 O   0  0  0  0  0  0  0  0  0  0  0  0
   13.0412   21.8858   17.9932 H   0  0  0  0  0  0  0  0  0  0  0  0
   13.3181   19.7084   18.7741 O   0  0  0  0  0  0  0  0  0  0  0  0
   13.6844   18.6068   19.6069 C   0  0  0  0  0  0  0  0  0  0  0  0
   13.1890   18.9873   21.0076 C   0  0  0  0  0  0  0  0  0  0  0  0
   11.7578   18.7894   20.9868 O   0  0  0  0  0  0  0  0  0  0  0  0
   11.5079   17.6898   20.1291 C   0  0  0  0  0  0  0  0  0  0  0  0
   10.4490   18.0582   19.2373 O   0  0  0  0  0  0  0  0  0  0  0  0
   10.9789   18.1778   17.9357 C   0  0  0  0  0  0  0  0  0  0  0  0
   12.2344   17.2912   17.8741 C   0  0  0  0  0  0  0  0  0  0  0  0
   12.7598   17.4212   19.3049 C   0  0  0  0  0  0  0  0  0  0  0  0
   14.1171   23.1148   15.9562 C   0  0  0  0  0  0  0  0  0  0  0  0
   12.6154   21.2785   15.0292 C   0  0  0  0  0  0  0  0  0  0  0  0
   12.3446   20.2084   14.1805 C   0  0  0  0  0  0  0  0  0  0  0  0
   13.2862   19.8029   13.2718 C   0  0  0  0  0  0  0  0  0  0  0  0
   14.4839   20.4866   13.2321 C   0  0  0  0  0  0  0  0  0  0  0  0
   14.7586   21.5621   14.0692 C   0  0  0  0  0  0  0  0  0  0  0  0
   13.8116   21.9706   15.0019 C   0  0  0  0  0  0  0  0  0  0  0  0
  9 17  1  0  0  0
  9 10  1  0  0  0
  9 13  2  0  0  0
 10 11  1  0  0  0
 11 12  1  0  0  0
 12 13  1  0  0  0
 13 14  1  0  0  0
 14 15  2  0  0  0
 15  6  1  0  0  0
 15 16  1  0  0  0
 16 17  2  0  0  0
  6  5  1  0  0  0
  6  7  2  0  0  0
  6  8  2  0  0  0
  5 18  1  0  0  0
  5  4  1  0  0  0
 18 19  1  0  0  0
 19 20  1  0  0  0
 19 21  1  0  0  0
  4  1  1  0  0  0
  1  2  1  0  0  0
  1 22  1  0  0  0
 22 36  1  0  0  0
 22 23  1  0  0  0
 23 24  1  0  0  0
 24 25  2  0  0  0
 24 27  1  0  0  0
 27 28  1  0  0  0
 28 29  1  0  0  0
 28 35  1  0  0  0
 29 30  1  0  0  0
 30 31  1  0  0  0
 31 32  1  0  0  0
 31 35  1  0  0  0
 32 33  1  0  0  0
 33 34  1  0  0  0
 34 35  1  0  0  0
 36 42  1  0  0  0
 37 42  1  0  0  0
 37 38  2  0  0  0
 38 39  1  0  0  0
 39 40  2  0  0  0
 40 41  1  0  0  0
 41 42  2  0  0  0
  2  3  1  0  0  0
 23 26  1  0  0  0
M  END
> <minimizedAffinity>
-10.07110

$$$$
2QD8_065_B_404


 42 46  0  0  0  0  0  0  0  0999 V2000
   15.9512   22.8526   18.3533 C   0  0  0  0  0  0  0  0  0  0  0  0
   15.4935   24.1895   18.5044 O   0  0  0  0  0  0  0  0  0  0  0  0
   15.6710   24.6860   17.6903 H   0  0  0  0  0  0  0  0  0  0  0  0
   17.4715   22.7866   18.1934 C   0  0  0  0  0  0  0  0  0  0  0  0
   18.1267   23.9420   18.7835 N   0  0  0  0  0  0  0  0  0  0  0  0
   18.7180   23.7427   20.3039 S   0  0  0  0  0  0  0  0  0  0  0  0
   18.7132   22.3093   20.5930 O   0  0  0  0  0  0  0  0  0  0  0  0
   17.8754   24.6009   21.1775 O   0  0  0  0  0  0  0  0  0  0  0  0
   22.9502   25.1974   20.7676 C   0  0  0  0  0  0  0  0  0  0  0  0
   24.2951   25.3732   20.8883 O   0  0  0  0  0  0  0  0  0  0  0  0
   24.8787   24.2483   20.3103 C   0  0  0  0  0  0  0  0  0  0  0  0
   23.9027   23.3676   19.8926 O   0  0  0  0  0  0  0  0  0  0  0  0
   22.6996   23.9540   20.1961 C   0  0  0  0  0  0  0  0  0  0  0  0
   21.3971   23.5107   19.9933 C   0  0  0  0  0  0  0  0  0  0  0  0
   20.3665   24.3385   20.3906 C   0  0  0  0  0  0  0  0  0  0  0  0
   20.6167   25.5950   20.9134 C   0  0  0  0  0  0  0  0  0  0  0  0
   21.9153   26.0372   21.1131 C   0  0  0  0  0  0  0  0  0  0  0  0
   18.9172   24.7705   17.9000 C   0  0  0  0  0  0  0  0  0  0  0  0
   18.6688   24.5291   16.3990 C   0  0  0  0  0  0  0  0  0  0  0  0
   18.0833   25.7640   15.7421 C   0  0  0  0  0  0  0  0  0  0  0  0
   20.0083   24.1689   15.7431 C   0  0  0  0  0  0  0  0  0  0  0  0
   15.1676   22.1768   17.2341 C   0  0  0  0  0  0  0  0  0  0  0  0
   14.1984   21.2910   17.8543 N   0  0  0  0  0  0  0  0  0  0  0  0
   14.4007   20.0188   18.1805 C   0  0  0  0  0  0  0  0  0  0  0  0
   15.4649   19.4089   18.0094 O   0  0  0  0  0  0  0  0  0  0  0  0
   13.3102   21.6674   18.0510 H   0  0  0  0  0  0  0  0  0  0  0  0
   13.3067   19.4326   18.7094 O   0  0  0  0  0  0  0  0  0  0  0  0
   13.5538   18.3732   19.6357 C   0  0  0  0  0  0  0  0  0  0  0  0
   12.9702   18.8657   20.9657 C   0  0  0  0  0  0  0  0  0  0  0  0
   11.5370   18.7288   20.8421 O   0  0  0  0  0  0  0  0  0  0  0  0
   11.3018   17.5872   20.0368 C   0  0  0  0  0  0  0  0  0  0  0  0
   10.3341   17.9416   19.0417 O   0  0  0  0  0  0  0  0  0  0  0  0
   10.9685   17.9526   17.7820 C   0  0  0  0  0  0  0  0  0  0  0  0
   12.1808   17.0106   17.8766 C   0  0  0  0  0  0  0  0  0  0  0  0
   12.5994   17.2113   19.3343 C   0  0  0  0  0  0  0  0  0  0  0  0
   14.3986   23.1524   16.3396 C   0  0  0  0  0  0  0  0  0  0  0  0
   15.7425   23.5231   14.2082 C   0  0  0  0  0  0  0  0  0  0  0  0
   16.0046   23.3187   12.8561 C   0  0  0  0  0  0  0  0  0  0  0  0
   15.2145   22.4680   12.1288 C   0  0  0  0  0  0  0  0  0  0  0  0
   14.1756   21.8347   12.7792 C   0  0  0  0  0  0  0  0  0  0  0  0
   13.9130   22.0258   14.1310 C   0  0  0  0  0  0  0  0  0  0  0  0
   14.7038   22.8973   14.8717 C   0  0  0  0  0  0  0  0  0  0  0  0
  9 17  1  0  0  0
  9 10  1  0  0  0
  9 13  2  0  0  0
 10 11  1  0  0  0
 11 12  1  0  0  0
 12 13  1  0  0  0
 13 14  1  0  0  0
 14 15  2  0  0  0
 15  6  1  0  0  0
 15 16  1  0  0  0
 16 17  2  0  0  0
  6  5  1  0  0  0
  6  7  2  0  0  0
  6  8  2  0  0  0
  5 18  1  0  0  0
  5  4  1  0  0  0
 18 19  1  0  0  0
 19 20  1  0  0  0
 19 21  1  0  0  0
  4  1  1  0  0  0
  1  2  1  0  0  0
  1 22  1  0  0  0
 22 36  1  0  0  0
 22 23  1  0  0  0
 23 24  1  0  0  0
 24 25  2  0  0  0
 24 27  1  0  0  0
 27 28  1  0  0  0
 28 29  1  0  0  0
 28 35  1  0  0  0
 29 30  1  0  0  0
 30 31  1  0  0  0
 31 32  1  0  0  0
 31 35  1  0  0  0
 32 33  1  0  0  0
 33 34  1  0  0  0
 34 35  1  0  0  0
 36 42  1  0  0  0
 37 42  1  0  0  0
 37 38  2  0  0  0
 38 39  1  0  0  0
 39 40  2  0  0  0
 40 41  1  0  0  0
 41 42  2  0  0  0
  2  3  1  0  0  0
 23 26  1  0  0  0
M  END
> <minimizedAffinity>
-9.82987

$$$$
2QD8_065_B_404


 42 46  0  0  0  0  0  0  0  0999 V2000
   18.1238   24.0040   19.7489 C   0  0  0  0  0  0  0  0  0  0  0  0
   17.7409   23.9894   21.1174 O   0  0  0  0  0  0  0  0  0  0  0  0
   18.2903   23.3523   21.6001 H   0  0  0  0  0  0  0  0  0  0  0  0
   17.8404   22.6650   19.0648 C   0  0  0  0  0  0  0  0  0  0  0  0
   16.4207   22.4744   18.8192 N   0  0  0  0  0  0  0  0  0  0  0  0
   15.6268   23.7394   18.1332 S   0  0  0  0  0  0  0  0  0  0  0  0
   16.3134   24.9637   18.5432 O   0  0  0  0  0  0  0  0  0  0  0  0
   14.2083   23.5987   18.5544 O   0  0  0  0  0  0  0  0  0  0  0  0
   15.9355   23.2094   13.6760 C   0  0  0  0  0  0  0  0  0  0  0  0
   15.8582   22.8401   12.3676 O   0  0  0  0  0  0  0  0  0  0  0  0
   14.6641   22.1339   12.2420 C   0  0  0  0  0  0  0  0  0  0  0  0
   14.0460   22.0224   13.4701 O   0  0  0  0  0  0  0  0  0  0  0  0
   14.8510   22.6786   14.3672 C   0  0  0  0  0  0  0  0  0  0  0  0
   14.7091   22.8795   15.7361 C   0  0  0  0  0  0  0  0  0  0  0  0
   15.6857   23.6087   16.3840 C   0  0  0  0  0  0  0  0  0  0  0  0
   16.7372   24.1773   15.6872 C   0  0  0  0  0  0  0  0  0  0  0  0
   16.8768   23.9786   14.3224 C   0  0  0  0  0  0  0  0  0  0  0  0
   15.9988   21.1573   18.3959 C   0  0  0  0  0  0  0  0  0  0  0  0
   14.7511   20.6181   19.1209 C   0  0  0  0  0  0  0  0  0  0  0  0
   14.4686   19.1840   18.7175 C   0  0  0  0  0  0  0  0  0  0  0  0
   15.0017   20.7002   20.6324 C   0  0  0  0  0  0  0  0  0  0  0  0
   19.5677   24.4788   19.6363 C   0  0  0  0  0  0  0  0  0  0  0  0
   19.6246   25.4485   18.5569 N   0  0  0  0  0  0  0  0  0  0  0  0
   19.8418   25.1769   17.2744 C   0  0  0  0  0  0  0  0  0  0  0  0
   20.0153   24.0398   16.8153 O   0  0  0  0  0  0  0  0  0  0  0  0
   19.4898   26.3937   18.7973 H   0  0  0  0  0  0  0  0  0  0  0  0
   19.8774   26.2830   16.5027 O   0  0  0  0  0  0  0  0  0  0  0  0
   20.1393   26.0663   15.1150 C   0  0  0  0  0  0  0  0  0  0  0  0
   19.1819   27.0115   14.3788 C   0  0  0  0  0  0  0  0  0  0  0  0
   19.7514   28.3327   14.5132 O   0  0  0  0  0  0  0  0  0  0  0  0
   21.1593   28.1749   14.5115 C   0  0  0  0  0  0  0  0  0  0  0  0
   21.6900   28.9415   15.5992 O   0  0  0  0  0  0  0  0  0  0  0  0
   22.1971   28.0527   16.5699 C   0  0  0  0  0  0  0  0  0  0  0  0
   22.5568   26.7452   15.8438 C   0  0  0  0  0  0  0  0  0  0  0  0
   21.4848   26.7071   14.7530 C   0  0  0  0  0  0  0  0  0  0  0  0
   20.0962   25.1606   20.9007 C   0  0  0  0  0  0  0  0  0  0  0  0
   22.3805   26.1778   21.3845 C   0  0  0  0  0  0  0  0  0  0  0  0
   23.7726   26.1507   21.3970 C   0  0  0  0  0  0  0  0  0  0  0  0
   24.4374   25.0346   20.9624 C   0  0  0  0  0  0  0  0  0  0  0  0
   23.6861   23.9628   20.5260 C   0  0  0  0  0  0  0  0  0  0  0  0
   22.2960   23.9779   20.5192 C   0  0  0  0  0  0  0  0  0  0  0  0
   21.6157   25.1125   20.9477 C   0  0  0  0  0  0  0  0  0  0  0  0
  9 17  1  0  0  0
  9 10  1  0  0  0
  9 13  2  0  0  0
 10 11  1  0  0  0
 11 12  1  0  0  0
 12 13  1  0  0  0
 13 14  1  0  0  0
 14 15  2  0  0  0
 15  6  1  0  0  0
 15 16  1  0  0  0
 16 17  2  0  0  0
  6  5  1  0  0  0
  6  7  2  0  0  0
  6  8  2  0  0  0
  5 18  1  0  0  0
  5  4  1  0  0  0
 18 19  1  0  0  0
 19 20  1  0  0  0
 19 21  1  0  0  0
  4  1  1  0  0  0
  1  2  1  0  0  0
  1 22  1  0  0  0
 22 36  1  0  0  0
 22 23  1  0  0  0
 23 24  1  0  0  0
 24 25  2  0  0  0
 24 27  1  0  0  0
 27 28  1  0  0  0
 28 29  1  0  0  0
 28 35  1  0  0  0
 29 30  1  0  0  0
 30 31  1  0  0  0
 31 32  1  0  0  0
 31 35  1  0  0  0
 32 33  1  0  0  0
 33 34  1  0  0  0
 34 35  1  0  0  0
 36 42  1  0  0  0
 37 42  1  0  0  0
 37 38  2  0  0  0
 38 39  1  0  0  0
 39 40  2  0  0  0
 40 41  1  0  0  0
 41 42  2  0  0  0
  2  3  1  0  0  0
 23 26  1  0  0  0
M  END
> <minimizedAffinity>
-9.75600

$$$$
2QD8_065_B_404


 42 46  0  0  0  0  0  0  0  0999 V2000
   17.4281   21.8147   17.1924 C   0  0  0  0  0  0  0  0  0  0  0  0
   18.0286   20.5540   16.9287 O   0  0  0  0  0  0  0  0  0  0  0  0
   18.8042   20.4395   17.4999 H   0  0  0  0  0  0  0  0  0  0  0  0
   18.3514   22.9747   16.8141 C   0  0  0  0  0  0  0  0  0  0  0  0
   17.9462   23.6023   15.5674 N   0  0  0  0  0  0  0  0  0  0  0  0
   16.4085   24.1800   15.5123 S   0  0  0  0  0  0  0  0  0  0  0  0
   16.4146   25.3646   14.6549 O   0  0  0  0  0  0  0  0  0  0  0  0
   16.0062   24.3852   16.9285 O   0  0  0  0  0  0  0  0  0  0  0  0
   13.8095   20.9137   13.8334 C   0  0  0  0  0  0  0  0  0  0  0  0
   12.9242   19.9108   13.5792 O   0  0  0  0  0  0  0  0  0  0  0  0
   11.9484   20.0055   14.5687 C   0  0  0  0  0  0  0  0  0  0  0  0
   12.2630   21.0174   15.4517 O   0  0  0  0  0  0  0  0  0  0  0  0
   13.4353   21.5709   15.0011 C   0  0  0  0  0  0  0  0  0  0  0  0
   14.1961   22.6203   15.5052 C   0  0  0  0  0  0  0  0  0  0  0  0
   15.3384   22.9755   14.8166 C   0  0  0  0  0  0  0  0  0  0  0  0
   15.6827   22.3539   13.6292 C   0  0  0  0  0  0  0  0  0  0  0  0
   14.9225   21.3095   13.1262 C   0  0  0  0  0  0  0  0  0  0  0  0
   18.9430   24.3876   14.8735 C   0  0  0  0  0  0  0  0  0  0  0  0
   20.0807   24.9169   15.7672 C   0  0  0  0  0  0  0  0  0  0  0  0
   21.2688   25.3500   14.9305 C   0  0  0  0  0  0  0  0  0  0  0  0
   19.5432   26.1063   16.5737 C   0  0  0  0  0  0  0  0  0  0  0  0
   16.9338   21.8441   18.6339 C   0  0  0  0  0  0  0  0  0  0  0  0
   15.7591   20.9937   18.7091 N   0  0  0  0  0  0  0  0  0  0  0  0
   14.5127   21.4018   18.9228 C   0  0  0  0  0  0  0  0  0  0  0  0
   14.1755   22.5836   19.0767 O   0  0  0  0  0  0  0  0  0  0  0  0
   15.8989   20.0264   18.5908 H   0  0  0  0  0  0  0  0  0  0  0  0
   13.6296   20.3833   18.9788 O   0  0  0  0  0  0  0  0  0  0  0  0
   14.1331   19.1497   19.4943 C   0  0  0  0  0  0  0  0  0  0  0  0
   13.9172   19.2364   21.0103 C   0  0  0  0  0  0  0  0  0  0  0  0
   12.5056   19.0106   21.2210 O   0  0  0  0  0  0  0  0  0  0  0  0
   12.0836   18.0942   20.2265 C   0  0  0  0  0  0  0  0  0  0  0  0
   10.8795   18.6032   19.6406 O   0  0  0  0  0  0  0  0  0  0  0  0
   11.1544   18.9883   18.3118 C   0  0  0  0  0  0  0  0  0  0  0  0
   12.3639   18.1625   17.8414 C   0  0  0  0  0  0  0  0  0  0  0  0
   13.1529   18.0232   19.1447 C   0  0  0  0  0  0  0  0  0  0  0  0
   17.9522   21.3191   19.6490 C   0  0  0  0  0  0  0  0  0  0  0  0
   18.6038   23.7094   20.2390 C   0  0  0  0  0  0  0  0  0  0  0  0
   19.5315   24.7052   20.5331 C   0  0  0  0  0  0  0  0  0  0  0  0
   20.8648   24.3977   20.5999 C   0  0  0  0  0  0  0  0  0  0  0  0
   21.2393   23.0894   20.3726 C   0  0  0  0  0  0  0  0  0  0  0  0
   20.3187   22.0872   20.0878 C   0  0  0  0  0  0  0  0  0  0  0  0
   18.9652   22.3956   20.0067 C   0  0  0  0  0  0  0  0  0  0  0  0
  9 17  1  0  0  0
  9 10  1  0  0  0
  9 13  2  0  0  0
 10 11  1  0  0  0
 11 12  1  0  0  0
 12 13  1  0  0  0
 13 14  1  0  0  0
 14 15  2  0  0  0
 15  6  1  0  0  0
 15 16  1  0  0  0
 16 17  2  0  0  0
  6  5  1  0  0  0
  6  7  2  0  0  0
  6  8  2  0  0  0
  5 18  1  0  0  0
  5  4  1  0  0  0
 18 19  1  0  0  0
 19 20  1  0  0  0
 19 21  1  0  0  0
  4  1  1  0  0  0
  1  2  1  0  0  0
  1 22  1  0  0  0
 22 36  1  0  0  0
 22 23  1  0  0  0
 23 24  1  0  0  0
 24 25  2  0  0  0
 24 27  1  0  0  0
 27 28  1  0  0  0
 28 29  1  0  0  0
 28 35  1  0  0  0
 29 30  1  0  0  0
 30 31  1  0  0  0
 31 32  1  0  0  0
 31 35  1  0  0  0
 32 33  1  0  0  0
 33 34  1  0  0  0
 34 35  1  0  0  0
 36 42  1  0  0  0
 37 42  1  0  0  0
 37 38  2  0  0  0
 38 39  1  0  0  0
 39 40  2  0  0  0
 40 41  1  0  0  0
 41 42  2  0  0  0
  2  3  1  0  0  0
 23 26  1  0  0  0
M  END
> <minimizedAffinity>
-9.72784

$$$$
2QD8_065_B_404


 42 46  0  0  0  0  0  0  0  0999 V2000
   16.1906   24.1915   17.8335 C   0  0  0  0  0  0  0  0  0  0  0  0
   15.6093   25.2460   18.5883 O   0  0  0  0  0  0  0  0  0  0  0  0
   16.1282   26.0562   18.4649 H   0  0  0  0  0  0  0  0  0  0  0  0
   17.5864   23.8286   18.3448 C   0  0  0  0  0  0  0  0  0  0  0  0
   17.5400   23.2576   19.6805 N   0  0  0  0  0  0  0  0  0  0  0  0
   17.5090   21.6167   19.7673 S   0  0  0  0  0  0  0  0  0  0  0  0
   17.9507   21.2391   21.1092 O   0  0  0  0  0  0  0  0  0  0  0  0
   18.3426   21.1392   18.6330 O   0  0  0  0  0  0  0  0  0  0  0  0
   13.4126   19.9111   19.0233 C   0  0  0  0  0  0  0  0  0  0  0  0
   12.2279   19.2399   19.0158 O   0  0  0  0  0  0  0  0  0  0  0  0
   12.0514   18.7658   20.3136 C   0  0  0  0  0  0  0  0  0  0  0  0
   13.1422   19.0931   21.0920 O   0  0  0  0  0  0  0  0  0  0  0  0
   13.9992   19.7921   20.2792 C   0  0  0  0  0  0  0  0  0  0  0  0
   15.2403   20.3609   20.5445 C   0  0  0  0  0  0  0  0  0  0  0  0
   15.8730   21.0324   19.5178 C   0  0  0  0  0  0  0  0  0  0  0  0
   15.2666   21.1921   18.2843 C   0  0  0  0  0  0  0  0  0  0  0  0
   14.0285   20.6269   18.0214 C   0  0  0  0  0  0  0  0  0  0  0  0
   18.3007   23.9319   20.7094 C   0  0  0  0  0  0  0  0  0  0  0  0
   19.6873   24.4310   20.2607 C   0  0  0  0  0  0  0  0  0  0  0  0
   20.1837   25.5386   21.1696 C   0  0  0  0  0  0  0  0  0  0  0  0
   20.6591   23.2443   20.2977 C   0  0  0  0  0  0  0  0  0  0  0  0
   16.1314   24.5426   16.3515 C   0  0  0  0  0  0  0  0  0  0  0  0
   17.1103   25.5881   16.1121 N   0  0  0  0  0  0  0  0  0  0  0  0
   18.2671   25.4429   15.4745 C   0  0  0  0  0  0  0  0  0  0  0  0
   18.6688   24.3817   14.9780 O   0  0  0  0  0  0  0  0  0  0  0  0
   16.8975   26.4867   16.4533 H   0  0  0  0  0  0  0  0  0  0  0  0
   18.9907   26.5809   15.4348 O   0  0  0  0  0  0  0  0  0  0  0  0
   20.2044   26.5216   14.6833 C   0  0  0  0  0  0  0  0  0  0  0  0
   20.3690   27.9243   14.0855 C   0  0  0  0  0  0  0  0  0  0  0  0
   20.8160   28.7659   15.1717 O   0  0  0  0  0  0  0  0  0  0  0  0
   21.6282   27.9604   16.0075 C   0  0  0  0  0  0  0  0  0  0  0  0
   21.2112   28.1701   17.3619 O   0  0  0  0  0  0  0  0  0  0  0  0
   20.6034   26.9878   17.8330 C   0  0  0  0  0  0  0  0  0  0  0  0
   21.1768   25.8232   17.0078 C   0  0  0  0  0  0  0  0  0  0  0  0
   21.3930   26.4985   15.6522 C   0  0  0  0  0  0  0  0  0  0  0  0
   16.4665   23.3722   15.4236 C   0  0  0  0  0  0  0  0  0  0  0  0
   13.9367   23.2046   15.1807 C   0  0  0  0  0  0  0  0  0  0  0  0
   12.7720   22.5847   14.7359 C   0  0  0  0  0  0  0  0  0  0  0  0
   12.8510   21.4369   13.9922 C   0  0  0  0  0  0  0  0  0  0  0  0
   14.1044   20.9360   13.7065 C   0  0  0  0  0  0  0  0  0  0  0  0
   15.2725   21.5539   14.1385 C   0  0  0  0  0  0  0  0  0  0  0  0
   15.1984   22.7124   14.9040 C   0  0  0  0  0  0  0  0  0  0  0  0
  9 17  1  0  0  0
  9 10  1  0  0  0
  9 13  2  0  0  0
 10 11  1  0  0  0
 11 12  1  0  0  0
 12 13  1  0  0  0
 13 14  1  0  0  0
 14 15  2  0  0  0
 15  6  1  0  0  0
 15 16  1  0  0  0
 16 17  2  0  0  0
  6  5  1  0  0  0
  6  7  2  0  0  0
  6  8  2  0  0  0
  5 18  1  0  0  0
  5  4  1  0  0  0
 18 19  1  0  0  0
 19 20  1  0  0  0
 19 21  1  0  0  0
  4  1  1  0  0  0
  1  2  1  0  0  0
  1 22  1  0  0  0
 22 36  1  0  0  0
 22 23  1  0  0  0
 23 24  1  0  0  0
 24 25  2  0  0  0
 24 27  1  0  0  0
 27 28  1  0  0  0
 28 29  1  0  0  0
 28 35  1  0  0  0
 29 30  1  0  0  0
 30 31  1  0  0  0
 31 32  1  0  0  0
 31 35  1  0  0  0
 32 33  1  0  0  0
 33 34  1  0  0  0
 34 35  1  0  0  0
 36 42  1  0  0  0
 37 42  1  0  0  0
 37 38  2  0  0  0
 38 39  1  0  0  0
 39 40  2  0  0  0
 40 41  1  0  0  0
 41 42  2  0  0  0
  2  3  1  0  0  0
 23 26  1  0  0  0
M  END
> <minimizedAffinity>
-9.61851

$$$$
2QD8_065_B_404


 42 46  0  0  0  0  0  0  0  0999 V2000
   16.9619   23.8211   15.1873 C   0  0  0  0  0  0  0  0  0  0  0  0
   16.8070   23.7658   13.7757 O   0  0  0  0  0  0  0  0  0  0  0  0
   16.2096   24.4737   13.4880 H   0  0  0  0  0  0  0  0  0  0  0  0
   15.6486   23.5275   15.9154 C   0  0  0  0  0  0  0  0  0  0  0  0
   15.5427   22.1282   16.2939 N   0  0  0  0  0  0  0  0  0  0  0  0
   15.4248   21.8190   17.9038 S   0  0  0  0  0  0  0  0  0  0  0  0
   14.7083   22.9378   18.5148 O   0  0  0  0  0  0  0  0  0  0  0  0
   16.8167   21.5854   18.3703 O   0  0  0  0  0  0  0  0  0  0  0  0
   13.1553   18.0441   18.8213 C   0  0  0  0  0  0  0  0  0  0  0  0
   12.2838   17.0713   19.2064 O   0  0  0  0  0  0  0  0  0  0  0  0
   11.0421   17.6936   19.3121 C   0  0  0  0  0  0  0  0  0  0  0  0
   11.1625   19.0428   19.0512 O   0  0  0  0  0  0  0  0  0  0  0  0
   12.4863   19.2625   18.7632 C   0  0  0  0  0  0  0  0  0  0  0  0
   13.1598   20.4317   18.4264 C   0  0  0  0  0  0  0  0  0  0  0  0
   14.5127   20.3430   18.1671 C   0  0  0  0  0  0  0  0  0  0  0  0
   15.1664   19.1235   18.1771 C   0  0  0  0  0  0  0  0  0  0  0  0
   14.4938   17.9581   18.5106 C   0  0  0  0  0  0  0  0  0  0  0  0
   14.7666   21.2704   15.4258 C   0  0  0  0  0  0  0  0  0  0  0  0
   13.8776   22.0163   14.4127 C   0  0  0  0  0  0  0  0  0  0  0  0
   14.1926   21.5823   12.9943 C   0  0  0  0  0  0  0  0  0  0  0  0
   12.4113   21.7091   14.7439 C   0  0  0  0  0  0  0  0  0  0  0  0
   17.6150   25.1441   15.5696 C   0  0  0  0  0  0  0  0  0  0  0  0
   18.6881   24.8470   16.5017 N   0  0  0  0  0  0  0  0  0  0  0  0
   18.5700   24.7468   17.8215 C   0  0  0  0  0  0  0  0  0  0  0  0
   17.5088   24.8825   18.4455 O   0  0  0  0  0  0  0  0  0  0  0  0
   19.5852   24.7070   16.1211 H   0  0  0  0  0  0  0  0  0  0  0  0
   19.7450   24.4980   18.4360 O   0  0  0  0  0  0  0  0  0  0  0  0
   19.6741   24.2588   19.8427 C   0  0  0  0  0  0  0  0  0  0  0  0
   20.2582   22.8539   20.0356 C   0  0  0  0  0  0  0  0  0  0  0  0
   21.6896   23.0005   19.9026 O   0  0  0  0  0  0  0  0  0  0  0  0
   22.0218   24.2751   20.4243 C   0  0  0  0  0  0  0  0  0  0  0  0
   22.8893   24.9228   19.4860 O   0  0  0  0  0  0  0  0  0  0  0  0
   22.1972   26.0081   18.9094 C   0  0  0  0  0  0  0  0  0  0  0  0
   21.1143   26.4399   19.9129 C   0  0  0  0  0  0  0  0  0  0  0  0
   20.7465   25.0978   20.5483 C   0  0  0  0  0  0  0  0  0  0  0  0
   18.2247   25.8990   14.3857 C   0  0  0  0  0  0  0  0  0  0  0  0
   19.8936   27.6950   15.0757 C   0  0  0  0  0  0  0  0  0  0  0  0
   21.1797   28.1542   15.3474 C   0  0  0  0  0  0  0  0  0  0  0  0
   22.2432   27.2948   15.2629 C   0  0  0  0  0  0  0  0  0  0  0  0
   21.9905   25.9853   14.9093 C   0  0  0  0  0  0  0  0  0  0  0  0
   20.7085   25.5164   14.6457 C   0  0  0  0  0  0  0  0  0  0  0  0
   19.6265   26.3868   14.7180 C   0  0  0  0  0  0  0  0  0  0  0  0
  9 17  1  0  0  0
  9 10  1  0  0  0
  9 13  2  0  0  0
 10 11  1  0  0  0
 11 12  1  0  0  0
 12 13  1  0  0  0
 13 14  1  0  0  0
 14 15  2  0  0  0
 15  6  1  0  0  0
 15 16  1  0  0  0
 16 17  2  0  0  0
  6  5  1  0  0  0
  6  7  2  0  0  0
  6  8  2  0  0  0
  5 18  1  0  0  0
  5  4  1  0  0  0
 18 19  1  0  0  0
 19 20  1  0  0  0
 19 21  1  0  0  0
  4  1  1  0  0  0
  1  2  1  0  0  0
  1 22  1  0  0  0
 22 36  1  0  0  0
 22 23  1  0  0  0
 23 24  1  0  0  0
 24 25  2  0  0  0
 24 27  1  0  0  0
 27 28  1  0  0  0
 28 29  1  0  0  0
 28 35  1  0  0  0
 29 30  1  0  0  0
 30 31  1  0  0  0
 31 32  1  0  0  0
 31 35  1  0  0  0
 32 33  1  0  0  0
 33 34  1  0  0  0
 34 35  1  0  0  0
 36 42  1  0  0  0
 37 42  1  0  0  0
 37 38  2  0  0  0
 38 39  1  0  0  0
 39 40  2  0  0  0
 40 41  1  0  0  0
 41 42  2  0  0  0
  2  3  1  0  0  0
 23 26  1  0  0  0
M  END
> <minimizedAffinity>
-9.59301

$$$$
