5DWR_5H7_A_401


 35 38  0  0  0  0  0  0  0  0999 V2000
  -41.5661   -2.5127   -0.9162 C   0  0  0  0  0  0  0  0  0  0  0  0
  -41.2133   -3.0656   -1.9570 O   0  0  0  0  0  0  0  0  0  0  0  0
  -40.7441   -2.2296    0.1205 N   0  0  0  0  0  0  0  0  0  0  0  0
  -41.1291   -1.6539    0.8202 H   0  0  0  0  0  0  0  0  0  0  0  0
  -43.0010   -2.1455   -0.6725 C   0  0  0  0  0  0  0  0  0  0  0  0
  -43.9113   -2.1702   -1.7236 C   0  0  0  0  0  0  0  0  0  0  0  0
  -45.2545   -2.0053   -1.4290 C   0  0  0  0  0  0  0  0  0  0  0  0
  -45.6310   -1.8021   -0.1230 C   0  0  0  0  0  0  0  0  0  0  0  0
  -44.6609   -1.7532    0.8787 C   0  0  0  0  0  0  0  0  0  0  0  0
  -46.9432   -1.6694    0.1709 F   0  0  0  0  0  0  0  0  0  0  0  0
  -43.3594   -1.9171    0.6008 N   0  0  0  0  0  0  0  0  0  0  0  0
  -45.0011   -1.5393    2.3166 C   0  0  0  0  0  0  0  0  0  0  0  0
  -45.8557   -0.5274    2.7396 C   0  0  0  0  0  0  0  0  0  0  0  0
  -46.2378   -0.3428    4.0448 C   0  0  0  0  0  0  0  0  0  0  0  0
  -45.7454   -1.2125    5.0053 C   0  0  0  0  0  0  0  0  0  0  0  0
  -44.8725   -2.2289    4.6532 C   0  0  0  0  0  0  0  0  0  0  0  0
  -44.5238   -2.3595    3.3289 C   0  0  0  0  0  0  0  0  0  0  0  0
  -43.6429   -3.3307    2.9864 F   0  0  0  0  0  0  0  0  0  0  0  0
  -46.3243    0.3257    1.8027 F   0  0  0  0  0  0  0  0  0  0  0  0
  -39.4119   -2.6433    0.3409 C   0  0  0  0  0  0  0  0  0  0  0  0
  -38.4474   -2.5920   -0.6719 C   0  0  0  0  0  0  0  0  0  0  0  0
  -37.1700   -2.9393   -0.5166 N   0  0  0  0  0  0  0  0  0  0  0  0
  -36.8099   -3.3681    0.6914 C   0  0  0  0  0  0  0  0  0  0  0  0
  -37.6728   -3.4525    1.7639 C   0  0  0  0  0  0  0  0  0  0  0  0
  -39.0049   -3.0846    1.6081 C   0  0  0  0  0  0  0  0  0  0  0  0
  -41.1859   -1.7330    4.5046 C   0  0  0  0  0  0  0  0  0  0  0  0
  -40.9613   -2.8559    5.5115 C   0  0  0  0  0  0  0  0  0  0  0  0
  -40.8060   -4.2400    4.8527 C   0  0  0  0  0  0  0  0  0  0  0  0
  -39.9654   -3.0979    2.7895 C   0  0  0  0  0  0  0  0  0  0  0  0
  -39.6529   -4.1535    3.8504 C   0  0  0  0  0  0  0  0  0  0  0  0
  -40.5332   -5.2702    5.8575 N   0  0  0  0  0  0  0  0  0  0  0  0
  -40.0687   -1.7299    3.4664 C   0  0  0  0  0  0  0  0  0  0  0  0
  -41.2945   -0.3802    5.1971 C   0  0  0  0  0  0  0  0  0  0  0  0
  -39.6710   -5.0425    6.3526 H   0  0  0  0  0  0  0  0  0  0  0  0
  -40.4326   -6.1752    5.3979 H   0  0  0  0  0  0  0  0  0  0  0  0
  2  1  2  0  0  0
  6  7  2  0  0  0
  6  5  1  0  0  0
  7  8  1  0  0  0
  1  5  1  0  0  0
  1  3  1  0  0  0
  5 11  2  0  0  0
  8 10  1  0  0  0
  8  9  2  0  0  0
 21 22  2  0  0  0
 21 20  1  0  0  0
 22 23  1  0  0  0
  3 20  1  0  0  0
 11  9  1  0  0  0
 20 25  2  0  0  0
  9 12  1  0  0  0
 23 24  2  0  0  0
 19 13  1  0  0  0
 25 24  1  0  0  0
 25 29  1  0  0  0
 12 13  2  0  0  0
 12 17  1  0  0  0
 13 14  1  0  0  0
 18 17  1  0  0  0
 29 32  1  0  0  0
 29 30  1  0  0  0
 17 16  2  0  0  0
 32 26  1  0  0  0
 14 15  2  0  0  0
 30 28  1  0  0  0
 16 15  1  0  0  0
 26 33  1  0  0  0
 26 27  1  0  0  0
 28 27  1  0  0  0
 28 31  1  0  0  0
  3  4  1  0  0  0
 31 34  1  0  0  0
 31 35  1  0  0  0
M  END
> <minimizedAffinity>
-11.30784

$$$$
5DWR_5H7_A_401


 35 38  0  0  0  0  0  0  0  0999 V2000
  -41.3358   -1.9053   -0.5806 C   0  0  0  0  0  0  0  0  0  0  0  0
  -41.3573   -0.9569   -1.3639 O   0  0  0  0  0  0  0  0  0  0  0  0
  -42.4353   -2.4910   -0.0525 N   0  0  0  0  0  0  0  0  0  0  0  0
  -42.2734   -3.3296    0.4372 H   0  0  0  0  0  0  0  0  0  0  0  0
  -40.0418   -2.4764   -0.0782 C   0  0  0  0  0  0  0  0  0  0  0  0
  -38.9614   -2.6124   -0.9433 C   0  0  0  0  0  0  0  0  0  0  0  0
  -37.7353   -2.9686   -0.4069 C   0  0  0  0  0  0  0  0  0  0  0  0
  -37.6390   -3.1948    0.9452 C   0  0  0  0  0  0  0  0  0  0  0  0
  -38.7721   -3.0750    1.7507 C   0  0  0  0  0  0  0  0  0  0  0  0
  -36.4380   -3.5147    1.4754 F   0  0  0  0  0  0  0  0  0  0  0  0
  -39.9609   -2.7256    1.2384 N   0  0  0  0  0  0  0  0  0  0  0  0
  -38.7368   -3.3033    3.2258 C   0  0  0  0  0  0  0  0  0  0  0  0
  -39.1022   -2.3238    4.1423 C   0  0  0  0  0  0  0  0  0  0  0  0
  -39.1410   -2.5210    5.5001 C   0  0  0  0  0  0  0  0  0  0  0  0
  -38.7950   -3.7686    5.9952 C   0  0  0  0  0  0  0  0  0  0  0  0
  -38.4006   -4.7819    5.1369 C   0  0  0  0  0  0  0  0  0  0  0  0
  -38.3781   -4.5208    3.7865 C   0  0  0  0  0  0  0  0  0  0  0  0
  -37.9591   -5.4988    2.9471 F   0  0  0  0  0  0  0  0  0  0  0  0
  -39.4273   -1.1056    3.6572 F   0  0  0  0  0  0  0  0  0  0  0  0
  -43.7821   -2.0695   -0.1044 C   0  0  0  0  0  0  0  0  0  0  0  0
  -44.5089   -2.0707   -1.3005 C   0  0  0  0  0  0  0  0  0  0  0  0
  -45.7886   -1.7137   -1.4070 N   0  0  0  0  0  0  0  0  0  0  0  0
  -46.3961   -1.3262   -0.2873 C   0  0  0  0  0  0  0  0  0  0  0  0
  -45.7812   -1.2930    0.9468 C   0  0  0  0  0  0  0  0  0  0  0  0
  -44.4480   -1.6711    1.0636 C   0  0  0  0  0  0  0  0  0  0  0  0
  -42.4856   -3.1059    4.0742 C   0  0  0  0  0  0  0  0  0  0  0  0
  -43.2265   -2.3915    5.1994 C   0  0  0  0  0  0  0  0  0  0  0  0
  -43.6980   -0.9765    4.8134 C   0  0  0  0  0  0  0  0  0  0  0  0
  -43.7612   -1.7142    2.4218 C   0  0  0  0  0  0  0  0  0  0  0  0
  -44.5719   -1.1000    3.5633 C   0  0  0  0  0  0  0  0  0  0  0  0
  -44.4538   -0.3603    5.9063 N   0  0  0  0  0  0  0  0  0  0  0  0
  -43.3465   -3.1331    2.8155 C   0  0  0  0  0  0  0  0  0  0  0  0
  -42.0735   -4.5135    4.4870 C   0  0  0  0  0  0  0  0  0  0  0  0
  -45.2707   -0.9327    6.1198 H   0  0  0  0  0  0  0  0  0  0  0  0
  -44.7563    0.5728    5.6267 H   0  0  0  0  0  0  0  0  0  0  0  0
  2  1  2  0  0  0
  6  7  2  0  0  0
  6  5  1  0  0  0
  7  8  1  0  0  0
  1  5  1  0  0  0
  1  3  1  0  0  0
  5 11  2  0  0  0
  8 10  1  0  0  0
  8  9  2  0  0  0
 21 22  2  0  0  0
 21 20  1  0  0  0
 22 23  1  0  0  0
  3 20  1  0  0  0
 11  9  1  0  0  0
 20 25  2  0  0  0
  9 12  1  0  0  0
 23 24  2  0  0  0
 19 13  1  0  0  0
 25 24  1  0  0  0
 25 29  1  0  0  0
 12 13  2  0  0  0
 12 17  1  0  0  0
 13 14  1  0  0  0
 18 17  1  0  0  0
 29 32  1  0  0  0
 29 30  1  0  0  0
 17 16  2  0  0  0
 32 26  1  0  0  0
 14 15  2  0  0  0
 30 28  1  0  0  0
 16 15  1  0  0  0
 26 33  1  0  0  0
 26 27  1  0  0  0
 28 27  1  0  0  0
 28 31  1  0  0  0
  3  4  1  0  0  0
 31 34  1  0  0  0
 31 35  1  0  0  0
M  END
> <minimizedAffinity>
-10.86252

$$$$
5DWR_5H7_A_401


 35 38  0  0  0  0  0  0  0  0999 V2000
  -42.6070   -2.2837    0.2709 C   0  0  0  0  0  0  0  0  0  0  0  0
  -42.8771   -3.1818   -0.5253 O   0  0  0  0  0  0  0  0  0  0  0  0
  -41.3602   -1.8128    0.5043 N   0  0  0  0  0  0  0  0  0  0  0  0
  -41.3125   -0.9960    1.0517 H   0  0  0  0  0  0  0  0  0  0  0  0
  -43.6659   -1.6515    1.1264 C   0  0  0  0  0  0  0  0  0  0  0  0
  -44.6825   -0.9085    0.5359 C   0  0  0  0  0  0  0  0  0  0  0  0
  -45.7380   -0.4963    1.3322 C   0  0  0  0  0  0  0  0  0  0  0  0
  -45.7291   -0.8145    2.6691 C   0  0  0  0  0  0  0  0  0  0  0  0
  -44.6589   -1.5327    3.2037 C   0  0  0  0  0  0  0  0  0  0  0  0
  -46.7712   -0.4382    3.4425 F   0  0  0  0  0  0  0  0  0  0  0  0
  -43.6365   -1.9391    2.4373 N   0  0  0  0  0  0  0  0  0  0  0  0
  -44.5878   -1.9140    4.6456 C   0  0  0  0  0  0  0  0  0  0  0  0
  -43.7442   -1.2743    5.5467 C   0  0  0  0  0  0  0  0  0  0  0  0
  -43.7002   -1.5577    6.8889 C   0  0  0  0  0  0  0  0  0  0  0  0
  -44.5435   -2.5404    7.3833 C   0  0  0  0  0  0  0  0  0  0  0  0
  -45.3933   -3.2309    6.5347 C   0  0  0  0  0  0  0  0  0  0  0  0
  -45.3878   -2.9037    5.1985 C   0  0  0  0  0  0  0  0  0  0  0  0
  -46.1924   -3.6012    4.3602 F   0  0  0  0  0  0  0  0  0  0  0  0
  -42.9151   -0.3254    5.0595 F   0  0  0  0  0  0  0  0  0  0  0  0
  -40.1176   -2.3274    0.0736 C   0  0  0  0  0  0  0  0  0  0  0  0
  -39.6772   -2.1809   -1.2468 C   0  0  0  0  0  0  0  0  0  0  0  0
  -38.5039   -2.6173   -1.7044 N   0  0  0  0  0  0  0  0  0  0  0  0
  -37.7151   -3.2386   -0.8300 C   0  0  0  0  0  0  0  0  0  0  0  0
  -38.0426   -3.4322    0.4957 C   0  0  0  0  0  0  0  0  0  0  0  0
  -39.2628   -2.9724    0.9790 C   0  0  0  0  0  0  0  0  0  0  0  0
  -40.0026   -1.9138    4.6267 C   0  0  0  0  0  0  0  0  0  0  0  0
  -39.3577   -3.0921    5.3486 C   0  0  0  0  0  0  0  0  0  0  0  0
  -39.4874   -4.4204    4.5788 C   0  0  0  0  0  0  0  0  0  0  0  0
  -39.6236   -3.1064    2.4522 C   0  0  0  0  0  0  0  0  0  0  0  0
  -38.8767   -4.2175    3.1905 C   0  0  0  0  0  0  0  0  0  0  0  0
  -38.8007   -5.5041    5.2856 N   0  0  0  0  0  0  0  0  0  0  0  0
  -39.4389   -1.7931    3.2147 C   0  0  0  0  0  0  0  0  0  0  0  0
  -39.8158   -0.6169    5.4043 C   0  0  0  0  0  0  0  0  0  0  0  0
  -37.8116   -5.2743    5.3815 H   0  0  0  0  0  0  0  0  0  0  0  0
  -38.8988   -6.3707    4.7568 H   0  0  0  0  0  0  0  0  0  0  0  0
  2  1  2  0  0  0
  6  7  2  0  0  0
  6  5  1  0  0  0
  7  8  1  0  0  0
  1  5  1  0  0  0
  1  3  1  0  0  0
  5 11  2  0  0  0
  8 10  1  0  0  0
  8  9  2  0  0  0
 21 22  2  0  0  0
 21 20  1  0  0  0
 22 23  1  0  0  0
  3 20  1  0  0  0
 11  9  1  0  0  0
 20 25  2  0  0  0
  9 12  1  0  0  0
 23 24  2  0  0  0
 19 13  1  0  0  0
 25 24  1  0  0  0
 25 29  1  0  0  0
 12 13  2  0  0  0
 12 17  1  0  0  0
 13 14  1  0  0  0
 18 17  1  0  0  0
 29 32  1  0  0  0
 29 30  1  0  0  0
 17 16  2  0  0  0
 32 26  1  0  0  0
 14 15  2  0  0  0
 30 28  1  0  0  0
 16 15  1  0  0  0
 26 33  1  0  0  0
 26 27  1  0  0  0
 28 27  1  0  0  0
 28 31  1  0  0  0
  3  4  1  0  0  0
 31 34  1  0  0  0
 31 35  1  0  0  0
M  END
> <minimizedAffinity>
-10.83806

$$$$
5DWR_5H7_A_401


 35 38  0  0  0  0  0  0  0  0999 V2000
  -42.5687   -2.2800    0.2062 C   0  0  0  0  0  0  0  0  0  0  0  0
  -42.8275   -3.1869   -0.5838 O   0  0  0  0  0  0  0  0  0  0  0  0
  -41.3246   -1.8112    0.4572 N   0  0  0  0  0  0  0  0  0  0  0  0
  -41.2838   -0.9877    0.9953 H   0  0  0  0  0  0  0  0  0  0  0  0
  -43.6409   -1.6330    1.0336 C   0  0  0  0  0  0  0  0  0  0  0  0
  -44.6411   -0.8905    0.4151 C   0  0  0  0  0  0  0  0  0  0  0  0
  -45.7099   -0.4641    1.1856 C   0  0  0  0  0  0  0  0  0  0  0  0
  -45.7298   -0.7685    2.5256 C   0  0  0  0  0  0  0  0  0  0  0  0
  -44.6749   -1.4871    3.0891 C   0  0  0  0  0  0  0  0  0  0  0  0
  -46.7851   -0.3782    3.2739 F   0  0  0  0  0  0  0  0  0  0  0  0
  -43.6396   -1.9072    2.3477 N   0  0  0  0  0  0  0  0  0  0  0  0
  -44.6350   -1.8537    4.5359 C   0  0  0  0  0  0  0  0  0  0  0  0
  -45.4289   -2.8606    5.0736 C   0  0  0  0  0  0  0  0  0  0  0  0
  -45.3714   -3.2642    6.3841 C   0  0  0  0  0  0  0  0  0  0  0  0
  -44.4714   -2.6340    7.2292 C   0  0  0  0  0  0  0  0  0  0  0  0
  -43.6665   -1.6081    6.7615 C   0  0  0  0  0  0  0  0  0  0  0  0
  -43.7739   -1.2464    5.4386 C   0  0  0  0  0  0  0  0  0  0  0  0
  -43.0133   -0.2199    4.9866 F   0  0  0  0  0  0  0  0  0  0  0  0
  -46.3133   -3.4645    4.2500 F   0  0  0  0  0  0  0  0  0  0  0  0
  -40.0762   -2.3360    0.0566 C   0  0  0  0  0  0  0  0  0  0  0  0
  -39.6097   -2.2063   -1.2566 C   0  0  0  0  0  0  0  0  0  0  0  0
  -38.4298   -2.6530   -1.6864 N   0  0  0  0  0  0  0  0  0  0  0  0
  -37.6608   -3.2678   -0.7899 C   0  0  0  0  0  0  0  0  0  0  0  0
  -38.0148   -3.4449    0.5312 C   0  0  0  0  0  0  0  0  0  0  0  0
  -39.2421   -2.9743    0.9855 C   0  0  0  0  0  0  0  0  0  0  0  0
  -40.0544   -1.8706    4.6043 C   0  0  0  0  0  0  0  0  0  0  0  0
  -39.4234   -3.0393    5.3535 C   0  0  0  0  0  0  0  0  0  0  0  0
  -39.5373   -4.3773    4.5981 C   0  0  0  0  0  0  0  0  0  0  0  0
  -39.6319   -3.0901    2.4529 C   0  0  0  0  0  0  0  0  0  0  0  0
  -38.8993   -4.1914    3.2197 C   0  0  0  0  0  0  0  0  0  0  0  0
  -38.8643   -5.4516    5.3319 N   0  0  0  0  0  0  0  0  0  0  0  0
  -39.4628   -1.7673    3.2024 C   0  0  0  0  0  0  0  0  0  0  0  0
  -39.8835   -0.5640    5.3691 C   0  0  0  0  0  0  0  0  0  0  0  0
  -37.8774   -5.2200    5.4444 H   0  0  0  0  0  0  0  0  0  0  0  0
  -38.9516   -6.3248    4.8121 H   0  0  0  0  0  0  0  0  0  0  0  0
  2  1  2  0  0  0
  6  7  2  0  0  0
  6  5  1  0  0  0
  7  8  1  0  0  0
  1  5  1  0  0  0
  1  3  1  0  0  0
  5 11  2  0  0  0
  8 10  1  0  0  0
  8  9  2  0  0  0
 21 22  2  0  0  0
 21 20  1  0  0  0
 22 23  1  0  0  0
  3 20  1  0  0  0
 11  9  1  0  0  0
 20 25  2  0  0  0
  9 12  1  0  0  0
 23 24  2  0  0  0
 19 13  1  0  0  0
 25 24  1  0  0  0
 25 29  1  0  0  0
 12 13  2  0  0  0
 12 17  1  0  0  0
 13 14  1  0  0  0
 18 17  1  0  0  0
 29 32  1  0  0  0
 29 30  1  0  0  0
 17 16  2  0  0  0
 32 26  1  0  0  0
 14 15  2  0  0  0
 30 28  1  0  0  0
 16 15  1  0  0  0
 26 33  1  0  0  0
 26 27  1  0  0  0
 28 27  1  0  0  0
 28 31  1  0  0  0
  3  4  1  0  0  0
 31 34  1  0  0  0
 31 35  1  0  0  0
M  END
> <minimizedAffinity>
-10.78777

$$$$
5DWR_5H7_A_401


 35 38  0  0  0  0  0  0  0  0999 V2000
  -43.7618   -2.8652    4.4172 C   0  0  0  0  0  0  0  0  0  0  0  0
  -44.4401   -3.6294    5.1023 O   0  0  0  0  0  0  0  0  0  0  0  0
  -42.6200   -2.2694    4.8321 N   0  0  0  0  0  0  0  0  0  0  0  0
  -42.1063   -1.8062    4.1316 H   0  0  0  0  0  0  0  0  0  0  0  0
  -44.1885   -2.4658    3.0347 C   0  0  0  0  0  0  0  0  0  0  0  0
  -45.4246   -1.8594    2.8383 C   0  0  0  0  0  0  0  0  0  0  0  0
  -45.7066   -1.3409    1.5855 C   0  0  0  0  0  0  0  0  0  0  0  0
  -44.7715   -1.4649    0.5861 C   0  0  0  0  0  0  0  0  0  0  0  0
  -43.5650   -2.1172    0.8426 C   0  0  0  0  0  0  0  0  0  0  0  0
  -45.0323   -0.9350   -0.6292 F   0  0  0  0  0  0  0  0  0  0  0  0
  -43.2836   -2.6170    2.0546 N   0  0  0  0  0  0  0  0  0  0  0  0
  -42.5053   -2.2837   -0.1959 C   0  0  0  0  0  0  0  0  0  0  0  0
  -41.1855   -1.9010    0.0153 C   0  0  0  0  0  0  0  0  0  0  0  0
  -40.1758   -2.0973   -0.8935 C   0  0  0  0  0  0  0  0  0  0  0  0
  -40.4826   -2.7122   -2.0972 C   0  0  0  0  0  0  0  0  0  0  0  0
  -41.7828   -3.0984   -2.3791 C   0  0  0  0  0  0  0  0  0  0  0  0
  -42.7513   -2.8704   -1.4290 C   0  0  0  0  0  0  0  0  0  0  0  0
  -44.0302   -3.2151   -1.7158 F   0  0  0  0  0  0  0  0  0  0  0  0
  -40.8923   -1.2912    1.1846 F   0  0  0  0  0  0  0  0  0  0  0  0
  -42.0610   -2.2182    6.1280 C   0  0  0  0  0  0  0  0  0  0  0  0
  -42.7468   -1.6432    7.2041 C   0  0  0  0  0  0  0  0  0  0  0  0
  -42.2852   -1.5922    8.4533 N   0  0  0  0  0  0  0  0  0  0  0  0
  -41.0840   -2.1247    8.6688 C   0  0  0  0  0  0  0  0  0  0  0  0
  -40.3234   -2.7238    7.6866 C   0  0  0  0  0  0  0  0  0  0  0  0
  -40.8042   -2.7853    6.3831 C   0  0  0  0  0  0  0  0  0  0  0  0
  -38.3019   -5.2500    4.7591 C   0  0  0  0  0  0  0  0  0  0  0  0
  -37.7896   -4.3572    3.6340 C   0  0  0  0  0  0  0  0  0  0  0  0
  -38.8670   -3.4101    3.0721 C   0  0  0  0  0  0  0  0  0  0  0  0
  -40.0216   -3.5026    5.2916 C   0  0  0  0  0  0  0  0  0  0  0  0
  -39.4122   -2.5796    4.2360 C   0  0  0  0  0  0  0  0  0  0  0  0
  -38.3078   -2.5358    2.0385 N   0  0  0  0  0  0  0  0  0  0  0  0
  -38.9206   -4.3981    5.8625 C   0  0  0  0  0  0  0  0  0  0  0  0
  -37.1944   -6.1399    5.3094 C   0  0  0  0  0  0  0  0  0  0  0  0
  -37.5538   -1.9767    2.4375 H   0  0  0  0  0  0  0  0  0  0  0  0
  -39.0381   -1.9181    1.6840 H   0  0  0  0  0  0  0  0  0  0  0  0
  2  1  2  0  0  0
  6  7  2  0  0  0
  6  5  1  0  0  0
  7  8  1  0  0  0
  1  5  1  0  0  0
  1  3  1  0  0  0
  5 11  2  0  0  0
  8 10  1  0  0  0
  8  9  2  0  0  0
 21 22  2  0  0  0
 21 20  1  0  0  0
 22 23  1  0  0  0
  3 20  1  0  0  0
 11  9  1  0  0  0
 20 25  2  0  0  0
  9 12  1  0  0  0
 23 24  2  0  0  0
 19 13  1  0  0  0
 25 24  1  0  0  0
 25 29  1  0  0  0
 12 13  2  0  0  0
 12 17  1  0  0  0
 13 14  1  0  0  0
 18 17  1  0  0  0
 29 32  1  0  0  0
 29 30  1  0  0  0
 17 16  2  0  0  0
 32 26  1  0  0  0
 14 15  2  0  0  0
 30 28  1  0  0  0
 16 15  1  0  0  0
 26 33  1  0  0  0
 26 27  1  0  0  0
 28 27  1  0  0  0
 28 31  1  0  0  0
  3  4  1  0  0  0
 31 34  1  0  0  0
 31 35  1  0  0  0
M  END
> <minimizedAffinity>
-10.22397

$$$$
5DWR_5H7_A_401


 35 38  0  0  0  0  0  0  0  0999 V2000
  -40.2018   -1.0726    4.5016 C   0  0  0  0  0  0  0  0  0  0  0  0
  -40.2478    0.1557    4.5535 O   0  0  0  0  0  0  0  0  0  0  0  0
  -40.4656   -1.8962    5.5422 N   0  0  0  0  0  0  0  0  0  0  0  0
  -40.5368   -2.8520    5.3172 H   0  0  0  0  0  0  0  0  0  0  0  0
  -39.7758   -1.7879    3.2527 C   0  0  0  0  0  0  0  0  0  0  0  0
  -38.6311   -2.5777    3.2620 C   0  0  0  0  0  0  0  0  0  0  0  0
  -38.3707   -3.3643    2.1523 C   0  0  0  0  0  0  0  0  0  0  0  0
  -39.2337   -3.3172    1.0837 C   0  0  0  0  0  0  0  0  0  0  0  0
  -40.3452   -2.4748    1.1268 C   0  0  0  0  0  0  0  0  0  0  0  0
  -38.9976   -4.1047    0.0114 F   0  0  0  0  0  0  0  0  0  0  0  0
  -40.6057   -1.7145    2.2001 N   0  0  0  0  0  0  0  0  0  0  0  0
  -41.3235   -2.3777    0.0031 C   0  0  0  0  0  0  0  0  0  0  0  0
  -40.9583   -1.9588   -1.2713 C   0  0  0  0  0  0  0  0  0  0  0  0
  -41.8181   -1.9182   -2.3404 C   0  0  0  0  0  0  0  0  0  0  0  0
  -43.1315   -2.3159   -2.1456 C   0  0  0  0  0  0  0  0  0  0  0  0
  -43.5653   -2.7239   -0.8948 C   0  0  0  0  0  0  0  0  0  0  0  0
  -42.6565   -2.7385    0.1378 C   0  0  0  0  0  0  0  0  0  0  0  0
  -43.0862   -3.1034    1.3703 F   0  0  0  0  0  0  0  0  0  0  0  0
  -39.6805   -1.5605   -1.4548 F   0  0  0  0  0  0  0  0  0  0  0  0
  -40.6533   -1.5787    6.9054 C   0  0  0  0  0  0  0  0  0  0  0  0
  -39.6081   -1.0928    7.6993 C   0  0  0  0  0  0  0  0  0  0  0  0
  -39.7306   -0.7479    8.9809 N   0  0  0  0  0  0  0  0  0  0  0  0
  -40.9375   -0.8898    9.5252 C   0  0  0  0  0  0  0  0  0  0  0  0
  -42.0399   -1.3510    8.8366 C   0  0  0  0  0  0  0  0  0  0  0  0
  -41.9181   -1.7055    7.4974 C   0  0  0  0  0  0  0  0  0  0  0  0
  -44.6574   -1.6439    4.7650 C   0  0  0  0  0  0  0  0  0  0  0  0
  -45.8214   -2.1866    5.5872 C   0  0  0  0  0  0  0  0  0  0  0  0
  -45.3895   -3.2275    6.6377 C   0  0  0  0  0  0  0  0  0  0  0  0
  -43.1304   -2.1498    6.6903 C   0  0  0  0  0  0  0  0  0  0  0  0
  -44.3325   -2.5770    7.5329 C   0  0  0  0  0  0  0  0  0  0  0  0
  -46.5341   -3.6699    7.4375 N   0  0  0  0  0  0  0  0  0  0  0  0
  -43.5803   -1.0846    5.6887 C   0  0  0  0  0  0  0  0  0  0  0  0
  -45.1253   -0.5912    3.7680 C   0  0  0  0  0  0  0  0  0  0  0  0
  -46.9438   -2.8685    7.9172 H   0  0  0  0  0  0  0  0  0  0  0  0
  -46.2233   -4.3556    8.1257 H   0  0  0  0  0  0  0  0  0  0  0  0
  2  1  2  0  0  0
  6  7  2  0  0  0
  6  5  1  0  0  0
  7  8  1  0  0  0
  1  5  1  0  0  0
  1  3  1  0  0  0
  5 11  2  0  0  0
  8 10  1  0  0  0
  8  9  2  0  0  0
 21 22  2  0  0  0
 21 20  1  0  0  0
 22 23  1  0  0  0
  3 20  1  0  0  0
 11  9  1  0  0  0
 20 25  2  0  0  0
  9 12  1  0  0  0
 23 24  2  0  0  0
 19 13  1  0  0  0
 25 24  1  0  0  0
 25 29  1  0  0  0
 12 13  2  0  0  0
 12 17  1  0  0  0
 13 14  1  0  0  0
 18 17  1  0  0  0
 29 32  1  0  0  0
 29 30  1  0  0  0
 17 16  2  0  0  0
 32 26  1  0  0  0
 14 15  2  0  0  0
 30 28  1  0  0  0
 16 15  1  0  0  0
 26 33  1  0  0  0
 26 27  1  0  0  0
 28 27  1  0  0  0
 28 31  1  0  0  0
  3  4  1  0  0  0
 31 34  1  0  0  0
 31 35  1  0  0  0
M  END
> <minimizedAffinity>
-9.86428

$$$$
5DWR_5H7_A_401


 35 38  0  0  0  0  0  0  0  0999 V2000
  -42.7119   -2.1935    2.6390 C   0  0  0  0  0  0  0  0  0  0  0  0
  -43.4678   -3.1181    2.9340 O   0  0  0  0  0  0  0  0  0  0  0  0
  -42.8092   -1.4510    1.5120 N   0  0  0  0  0  0  0  0  0  0  0  0
  -42.2333   -0.6532    1.4805 H   0  0  0  0  0  0  0  0  0  0  0  0
  -41.5388   -1.8350    3.5040 C   0  0  0  0  0  0  0  0  0  0  0  0
  -41.3419   -0.5144    3.8933 C   0  0  0  0  0  0  0  0  0  0  0  0
  -40.3618   -0.2499    4.8352 C   0  0  0  0  0  0  0  0  0  0  0  0
  -39.6116   -1.2906    5.3279 C   0  0  0  0  0  0  0  0  0  0  0  0
  -39.8384   -2.5879    4.8668 C   0  0  0  0  0  0  0  0  0  0  0  0
  -38.6740   -1.0393    6.2679 F   0  0  0  0  0  0  0  0  0  0  0  0
  -40.7891   -2.8515    3.9588 N   0  0  0  0  0  0  0  0  0  0  0  0
  -39.0625   -3.7635    5.3620 C   0  0  0  0  0  0  0  0  0  0  0  0
  -38.1100   -4.4115    4.5836 C   0  0  0  0  0  0  0  0  0  0  0  0
  -37.3361   -5.4537    5.0294 C   0  0  0  0  0  0  0  0  0  0  0  0
  -37.5096   -5.8934    6.3324 C   0  0  0  0  0  0  0  0  0  0  0  0
  -38.4573   -5.3047    7.1537 C   0  0  0  0  0  0  0  0  0  0  0  0
  -39.2049   -4.2670    6.6470 C   0  0  0  0  0  0  0  0  0  0  0  0
  -40.1570   -3.7123    7.4361 F   0  0  0  0  0  0  0  0  0  0  0  0
  -37.9518   -3.9882    3.3104 F   0  0  0  0  0  0  0  0  0  0  0  0
  -43.6201   -1.6587    0.3746 C   0  0  0  0  0  0  0  0  0  0  0  0
  -44.9166   -1.1385    0.2891 C   0  0  0  0  0  0  0  0  0  0  0  0
  -45.7170   -1.2750   -0.7678 N   0  0  0  0  0  0  0  0  0  0  0  0
  -45.2322   -1.9631   -1.7996 C   0  0  0  0  0  0  0  0  0  0  0  0
  -43.9678   -2.5130   -1.8285 C   0  0  0  0  0  0  0  0  0  0  0  0
  -43.1269   -2.3671   -0.7305 C   0  0  0  0  0  0  0  0  0  0  0  0
  -39.3970   -2.7546    0.2242 C   0  0  0  0  0  0  0  0  0  0  0  0
  -38.8228   -2.9998   -1.1670 C   0  0  0  0  0  0  0  0  0  0  0  0
  -39.7738   -3.7906   -2.0856 C   0  0  0  0  0  0  0  0  0  0  0  0
  -41.7008   -2.8999   -0.7585 C   0  0  0  0  0  0  0  0  0  0  0  0
  -41.0972   -3.0257   -2.1576 C   0  0  0  0  0  0  0  0  0  0  0  0
  -39.1997   -3.9455   -3.4243 N   0  0  0  0  0  0  0  0  0  0  0  0
  -40.7569   -2.0727    0.1162 C   0  0  0  0  0  0  0  0  0  0  0  0
  -38.4405   -1.9370    1.0833 C   0  0  0  0  0  0  0  0  0  0  0  0
  -39.0368   -3.0252   -3.8329 H   0  0  0  0  0  0  0  0  0  0  0  0
  -39.8471   -4.4693   -4.0133 H   0  0  0  0  0  0  0  0  0  0  0  0
  2  1  2  0  0  0
  6  7  2  0  0  0
  6  5  1  0  0  0
  7  8  1  0  0  0
  1  5  1  0  0  0
  1  3  1  0  0  0
  5 11  2  0  0  0
  8 10  1  0  0  0
  8  9  2  0  0  0
 21 22  2  0  0  0
 21 20  1  0  0  0
 22 23  1  0  0  0
  3 20  1  0  0  0
 11  9  1  0  0  0
 20 25  2  0  0  0
  9 12  1  0  0  0
 23 24  2  0  0  0
 19 13  1  0  0  0
 25 24  1  0  0  0
 25 29  1  0  0  0
 12 13  2  0  0  0
 12 17  1  0  0  0
 13 14  1  0  0  0
 18 17  1  0  0  0
 29 32  1  0  0  0
 29 30  1  0  0  0
 17 16  2  0  0  0
 32 26  1  0  0  0
 14 15  2  0  0  0
 30 28  1  0  0  0
 16 15  1  0  0  0
 26 33  1  0  0  0
 26 27  1  0  0  0
 28 27  1  0  0  0
 28 31  1  0  0  0
  3  4  1  0  0  0
 31 34  1  0  0  0
 31 35  1  0  0  0
M  END
> <minimizedAffinity>
-9.81764

$$$$
5DWR_5H7_A_401


 35 38  0  0  0  0  0  0  0  0999 V2000
  -44.5084   -1.8017    1.8608 C   0  0  0  0  0  0  0  0  0  0  0  0
  -45.4732   -1.3291    1.2614 O   0  0  0  0  0  0  0  0  0  0  0  0
  -43.3507   -2.1833    1.2737 N   0  0  0  0  0  0  0  0  0  0  0  0
  -42.6154   -2.4011    1.8912 H   0  0  0  0  0  0  0  0  0  0  0  0
  -44.5555   -2.0613    3.3384 C   0  0  0  0  0  0  0  0  0  0  0  0
  -45.7796   -2.2517    3.9705 C   0  0  0  0  0  0  0  0  0  0  0  0
  -45.7754   -2.6684    5.2912 C   0  0  0  0  0  0  0  0  0  0  0  0
  -44.5720   -2.8540    5.9285 C   0  0  0  0  0  0  0  0  0  0  0  0
  -43.3805   -2.6102    5.2446 C   0  0  0  0  0  0  0  0  0  0  0  0
  -44.5646   -3.2878    7.2082 F   0  0  0  0  0  0  0  0  0  0  0  0
  -43.3775   -2.2114    3.9644 N   0  0  0  0  0  0  0  0  0  0  0  0
  -42.0399   -2.7948    5.8756 C   0  0  0  0  0  0  0  0  0  0  0  0
  -41.5697   -1.9649    6.8871 C   0  0  0  0  0  0  0  0  0  0  0  0
  -40.3708   -2.1448    7.5306 C   0  0  0  0  0  0  0  0  0  0  0  0
  -39.5745   -3.2151    7.1541 C   0  0  0  0  0  0  0  0  0  0  0  0
  -39.9750   -4.0672    6.1379 C   0  0  0  0  0  0  0  0  0  0  0  0
  -41.1856   -3.8316    5.5285 C   0  0  0  0  0  0  0  0  0  0  0  0
  -41.5641   -4.6423    4.5106 F   0  0  0  0  0  0  0  0  0  0  0  0
  -42.3428   -0.9159    7.2434 F   0  0  0  0  0  0  0  0  0  0  0  0
  -43.0477   -2.3132   -0.0995 C   0  0  0  0  0  0  0  0  0  0  0  0
  -44.0066   -2.0765   -1.0911 C   0  0  0  0  0  0  0  0  0  0  0  0
  -43.7732   -2.1533   -2.4011 N   0  0  0  0  0  0  0  0  0  0  0  0
  -42.5377   -2.4863   -2.7694 C   0  0  0  0  0  0  0  0  0  0  0  0
  -41.5129   -2.7339   -1.8804 C   0  0  0  0  0  0  0  0  0  0  0  0
  -41.7503   -2.6481   -0.5128 C   0  0  0  0  0  0  0  0  0  0  0  0
  -39.6448   -2.1490    2.6952 C   0  0  0  0  0  0  0  0  0  0  0  0
  -38.2539   -2.3044    2.0898 C   0  0  0  0  0  0  0  0  0  0  0  0
  -38.2055   -3.3203    0.9325 C   0  0  0  0  0  0  0  0  0  0  0  0
  -40.6238   -2.8449    0.4926 C   0  0  0  0  0  0  0  0  0  0  0  0
  -39.2237   -2.8777   -0.1207 C   0  0  0  0  0  0  0  0  0  0  0  0
  -36.8634   -3.3861    0.3495 N   0  0  0  0  0  0  0  0  0  0  0  0
  -40.6530   -1.7967    1.6065 C   0  0  0  0  0  0  0  0  0  0  0  0
  -39.6527   -1.1078    3.8075 C   0  0  0  0  0  0  0  0  0  0  0  0
  -36.6025   -2.4671   -0.0079 H   0  0  0  0  0  0  0  0  0  0  0  0
  -36.8571   -4.0623   -0.4141 H   0  0  0  0  0  0  0  0  0  0  0  0
  2  1  2  0  0  0
  6  7  2  0  0  0
  6  5  1  0  0  0
  7  8  1  0  0  0
  1  5  1  0  0  0
  1  3  1  0  0  0
  5 11  2  0  0  0
  8 10  1  0  0  0
  8  9  2  0  0  0
 21 22  2  0  0  0
 21 20  1  0  0  0
 22 23  1  0  0  0
  3 20  1  0  0  0
 11  9  1  0  0  0
 20 25  2  0  0  0
  9 12  1  0  0  0
 23 24  2  0  0  0
 19 13  1  0  0  0
 25 24  1  0  0  0
 25 29  1  0  0  0
 12 13  2  0  0  0
 12 17  1  0  0  0
 13 14  1  0  0  0
 18 17  1  0  0  0
 29 32  1  0  0  0
 29 30  1  0  0  0
 17 16  2  0  0  0
 32 26  1  0  0  0
 14 15  2  0  0  0
 30 28  1  0  0  0
 16 15  1  0  0  0
 26 33  1  0  0  0
 26 27  1  0  0  0
 28 27  1  0  0  0
 28 31  1  0  0  0
  3  4  1  0  0  0
 31 34  1  0  0  0
 31 35  1  0  0  0
M  END
> <minimizedAffinity>
-9.61619

$$$$
5DWR_5H7_A_401


 35 38  0  0  0  0  0  0  0  0999 V2000
  -38.9963   -3.8649    3.5255 C   0  0  0  0  0  0  0  0  0  0  0  0
  -38.9767   -5.0945    3.5599 O   0  0  0  0  0  0  0  0  0  0  0  0
  -39.0479   -3.0663    4.6165 N   0  0  0  0  0  0  0  0  0  0  0  0
  -38.9062   -2.1072    4.4453 H   0  0  0  0  0  0  0  0  0  0  0  0
  -39.0267   -3.1186    2.2235 C   0  0  0  0  0  0  0  0  0  0  0  0
  -37.8366   -2.8062    1.5753 C   0  0  0  0  0  0  0  0  0  0  0  0
  -37.9075   -2.2831    0.2949 C   0  0  0  0  0  0  0  0  0  0  0  0
  -39.1414   -2.0729   -0.2725 C   0  0  0  0  0  0  0  0  0  0  0  0
  -40.2969   -2.3759    0.4486 C   0  0  0  0  0  0  0  0  0  0  0  0
  -39.2131   -1.5894   -1.5322 F   0  0  0  0  0  0  0  0  0  0  0  0
  -40.2351   -2.8872    1.6866 N   0  0  0  0  0  0  0  0  0  0  0  0
  -41.6674   -2.1751   -0.1088 C   0  0  0  0  0  0  0  0  0  0  0  0
  -42.0956   -2.7918   -1.2790 C   0  0  0  0  0  0  0  0  0  0  0  0
  -43.3668   -2.6783   -1.7841 C   0  0  0  0  0  0  0  0  0  0  0  0
  -44.2843   -1.9029   -1.0924 C   0  0  0  0  0  0  0  0  0  0  0  0
  -43.9153   -1.2441    0.0691 C   0  0  0  0  0  0  0  0  0  0  0  0
  -42.6250   -1.3940    0.5220 C   0  0  0  0  0  0  0  0  0  0  0  0
  -42.2511   -0.7228    1.6384 F   0  0  0  0  0  0  0  0  0  0  0  0
  -41.1955   -3.5370   -1.9570 F   0  0  0  0  0  0  0  0  0  0  0  0
  -39.2763   -3.4139    5.9661 C   0  0  0  0  0  0  0  0  0  0  0  0
  -38.2987   -4.0519    6.7382 C   0  0  0  0  0  0  0  0  0  0  0  0
  -38.4441   -4.3772    8.0225 N   0  0  0  0  0  0  0  0  0  0  0  0
  -39.6099   -4.0711    8.5882 C   0  0  0  0  0  0  0  0  0  0  0  0
  -40.6402   -3.4364    7.9266 C   0  0  0  0  0  0  0  0  0  0  0  0
  -40.4902   -3.0890    6.5884 C   0  0  0  0  0  0  0  0  0  0  0  0
  -43.4357   -0.6443    6.0215 C   0  0  0  0  0  0  0  0  0  0  0  0
  -44.2251   -1.4599    5.0032 C   0  0  0  0  0  0  0  0  0  0  0  0
  -43.3287   -2.2833    4.0586 C   0  0  0  0  0  0  0  0  0  0  0  0
  -41.5800   -2.3240    5.8498 C   0  0  0  0  0  0  0  0  0  0  0  0
  -42.4410   -3.1820    4.9223 C   0  0  0  0  0  0  0  0  0  0  0  0
  -44.1368   -3.0917    3.1428 N   0  0  0  0  0  0  0  0  0  0  0  0
  -42.4947   -1.5542    6.8043 C   0  0  0  0  0  0  0  0  0  0  0  0
  -44.3623    0.1215    6.9576 C   0  0  0  0  0  0  0  0  0  0  0  0
  -44.7231   -3.7304    3.6802 H   0  0  0  0  0  0  0  0  0  0  0  0
  -43.5224   -3.6281    2.5303 H   0  0  0  0  0  0  0  0  0  0  0  0
  2  1  2  0  0  0
  6  7  2  0  0  0
  6  5  1  0  0  0
  7  8  1  0  0  0
  1  5  1  0  0  0
  1  3  1  0  0  0
  5 11  2  0  0  0
  8 10  1  0  0  0
  8  9  2  0  0  0
 21 22  2  0  0  0
 21 20  1  0  0  0
 22 23  1  0  0  0
  3 20  1  0  0  0
 11  9  1  0  0  0
 20 25  2  0  0  0
  9 12  1  0  0  0
 23 24  2  0  0  0
 19 13  1  0  0  0
 25 24  1  0  0  0
 25 29  1  0  0  0
 12 13  2  0  0  0
 12 17  1  0  0  0
 13 14  1  0  0  0
 18 17  1  0  0  0
 29 32  1  0  0  0
 29 30  1  0  0  0
 17 16  2  0  0  0
 32 26  1  0  0  0
 14 15  2  0  0  0
 30 28  1  0  0  0
 16 15  1  0  0  0
 26 33  1  0  0  0
 26 27  1  0  0  0
 28 27  1  0  0  0
 28 31  1  0  0  0
  3  4  1  0  0  0
 31 34  1  0  0  0
 31 35  1  0  0  0
M  END
> <minimizedAffinity>
-9.59517

$$$$
5DWR_5H7_A_401


 35 38  0  0  0  0  0  0  0  0999 V2000
  -44.8706   -1.6302    3.2336 C   0  0  0  0  0  0  0  0  0  0  0  0
  -45.7148   -2.5102    3.0709 O   0  0  0  0  0  0  0  0  0  0  0  0
  -44.0902   -1.1228    2.2517 N   0  0  0  0  0  0  0  0  0  0  0  0
  -43.5697   -0.3237    2.4960 H   0  0  0  0  0  0  0  0  0  0  0  0
  -44.5807   -1.0656    4.5939 C   0  0  0  0  0  0  0  0  0  0  0  0
  -45.5475   -0.3145    5.2536 C   0  0  0  0  0  0  0  0  0  0  0  0
  -45.3164    0.0335    6.5740 C   0  0  0  0  0  0  0  0  0  0  0  0
  -44.1401   -0.3535    7.1698 C   0  0  0  0  0  0  0  0  0  0  0  0
  -43.1970   -1.0759    6.4380 C   0  0  0  0  0  0  0  0  0  0  0  0
  -43.9244   -0.0399    8.4664 F   0  0  0  0  0  0  0  0  0  0  0  0
  -43.4167   -1.4204    5.1609 N   0  0  0  0  0  0  0  0  0  0  0  0
  -41.9012   -1.5300    7.0245 C   0  0  0  0  0  0  0  0  0  0  0  0
  -40.6711   -1.0888    6.5502 C   0  0  0  0  0  0  0  0  0  0  0  0
  -39.4656   -1.4373    7.1063 C   0  0  0  0  0  0  0  0  0  0  0  0
  -39.4661   -2.2807    8.2062 C   0  0  0  0  0  0  0  0  0  0  0  0
  -40.6568   -2.7734    8.7149 C   0  0  0  0  0  0  0  0  0  0  0  0
  -41.8319   -2.3906    8.1108 C   0  0  0  0  0  0  0  0  0  0  0  0
  -42.9959   -2.8985    8.5840 F   0  0  0  0  0  0  0  0  0  0  0  0
  -40.6736   -0.2764    5.4708 F   0  0  0  0  0  0  0  0  0  0  0  0
  -43.9166   -1.5775    0.9260 C   0  0  0  0  0  0  0  0  0  0  0  0
  -44.9238   -1.4438   -0.0366 C   0  0  0  0  0  0  0  0  0  0  0  0
  -44.8084   -1.8252   -1.3084 N   0  0  0  0  0  0  0  0  0  0  0  0
  -43.6492   -2.3751   -1.6646 C   0  0  0  0  0  0  0  0  0  0  0  0
  -42.5863   -2.5492   -0.8032 C   0  0  0  0  0  0  0  0  0  0  0  0
  -42.7000   -2.1464    0.5230 C   0  0  0  0  0  0  0  0  0  0  0  0
  -39.0306   -2.4477    1.7142 C   0  0  0  0  0  0  0  0  0  0  0  0
  -39.2449   -3.3812    2.9008 C   0  0  0  0  0  0  0  0  0  0  0  0
  -40.5831   -3.1436    3.6263 C   0  0  0  0  0  0  0  0  0  0  0  0
  -41.5214   -2.2587    1.4805 C   0  0  0  0  0  0  0  0  0  0  0  0
  -41.7053   -3.2881    2.5960 C   0  0  0  0  0  0  0  0  0  0  0  0
  -40.7646   -4.1038    4.7174 N   0  0  0  0  0  0  0  0  0  0  0  0
  -40.2085   -2.5477    0.7505 C   0  0  0  0  0  0  0  0  0  0  0  0
  -37.7153   -2.7446    1.0049 C   0  0  0  0  0  0  0  0  0  0  0  0
  -40.7580   -5.0517    4.3407 H   0  0  0  0  0  0  0  0  0  0  0  0
  -41.6564   -3.9280    5.1802 H   0  0  0  0  0  0  0  0  0  0  0  0
  2  1  2  0  0  0
  6  7  2  0  0  0
  6  5  1  0  0  0
  7  8  1  0  0  0
  1  5  1  0  0  0
  1  3  1  0  0  0
  5 11  2  0  0  0
  8 10  1  0  0  0
  8  9  2  0  0  0
 21 22  2  0  0  0
 21 20  1  0  0  0
 22 23  1  0  0  0
  3 20  1  0  0  0
 11  9  1  0  0  0
 20 25  2  0  0  0
  9 12  1  0  0  0
 23 24  2  0  0  0
 19 13  1  0  0  0
 25 24  1  0  0  0
 25 29  1  0  0  0
 12 13  2  0  0  0
 12 17  1  0  0  0
 13 14  1  0  0  0
 18 17  1  0  0  0
 29 32  1  0  0  0
 29 30  1  0  0  0
 17 16  2  0  0  0
 32 26  1  0  0  0
 14 15  2  0  0  0
 30 28  1  0  0  0
 16 15  1  0  0  0
 26 33  1  0  0  0
 26 27  1  0  0  0
 28 27  1  0  0  0
 28 31  1  0  0  0
  3  4  1  0  0  0
 31 34  1  0  0  0
 31 35  1  0  0  0
M  END
> <minimizedAffinity>
-9.56165

$$$$
