3T0X_DIW_A_201
  RCSB PDB12061710493D
Coordinates from PDB:3T0X:A:201 Model:1 without hydrogens
 32 35  0  0  0  0            999 V2000
   20.6780   -2.8900   -8.6810   C 0  0  0  0  0  0  0  0  0  0  0  0
   22.9360   -2.7410   -9.4870   C 0  0  0  0  0  0  0  0  0  0  0  0
   22.0430   -2.7250   -8.4300   C 0  0  0  0  0  0  0  0  0  0  0  0
   22.7530   -2.5440   -7.2810   N 0  0  0  0  0  0  0  0  0  0  0  0
   24.0670   -2.4440   -7.5680   C 0  0  0  0  0  0  0  0  0  0  0  0
   24.3520   -2.5420   -9.0310   C 0  0  0  0  0  0  0  0  0  0  0  0
   25.1130   -2.2260   -6.5090   C 0  0  0  0  0  0  0  0  0  0  0  0
   26.4020   -2.1360   -6.8420   C 0  0  0  0  0  0  0  0  0  0  0  0
   27.1670   -1.9260   -5.7450   C 0  0  0  0  0  0  0  0  0  0  0  0
   28.6580   -1.8210   -5.6620   C 0  0  0  0  0  0  0  0  0  0  0  0
   29.3110   -1.7270   -4.4220   C 0  0  0  0  0  0  0  0  0  0  0  0
   30.7100   -1.6800   -4.3550   C 0  0  0  0  0  0  0  0  0  0  0  0
   31.4510   -1.7220   -5.4860   N 0  3  0  0  0  0  0  0  0  0  0  0
   30.8360   -1.8530   -6.6740   C 0  0  0  0  0  0  0  0  0  0  0  0
   29.4500   -1.9070   -6.7960   C 0  0  0  0  0  0  0  0  0  0  0  0
   31.3300   -1.5580   -3.1120   C 0  0  0  0  0  0  0  0  0  0  0  0
   30.5880   -1.4800   -1.9360   C 0  0  0  0  0  0  0  0  0  0  0  0
   29.1990   -1.5330   -2.0010   C 0  0  0  0  0  0  0  0  0  0  0  0
   28.5710   -1.6520   -3.2420   C 0  0  0  0  0  0  0  0  0  0  0  0
   32.9310   -1.7200   -5.4720   C 0  0  0  0  0  0  0  0  0  0  0  0
   33.6480   -0.5740   -4.7680   C 0  0  0  0  0  0  0  0  0  0  0  0
   34.7900   -1.0630   -3.8620   C 0  0  0  0  0  0  0  0  0  0  0  0
   36.1950   -1.4810   -4.6710   S 0  0  0  0  0  0  0  0  0  0  0  0
   25.3080   -3.6800   -9.3840   C 0  0  0  0  0  0  0  0  0  0  0  0
   24.8500   -1.1730   -9.5160   C 0  0  0  0  0  0  0  0  0  0  0  0
   22.1680   -2.4660   -5.9160   C 0  0  0  0  0  0  0  0  0  0  0  0
   20.1930   -3.0700   -9.9800   C 0  0  0  0  0  0  0  0  0  0  0  0
   37.1570   -2.0320   -3.6990   O 0  0  0  0  0  0  0  0  0  0  0  0
   21.0940   -3.0840  -11.0440   C 0  0  0  0  0  0  0  0  0  0  0  0
   36.8000   -0.2980   -5.3190   O 0  0  0  0  0  0  0  0  0  0  0  0
   22.4640   -2.9200  -10.7990   C 0  0  0  0  0  0  0  0  0  0  0  0
   35.9400   -2.5080   -5.6970   O 0  0  0  0  0  0  0  0  0  0  0  0
 27  1  2  0  0  0  0
  1  3  1  0  0  0  0
  3  2  2  0  0  0  0
 31  2  1  0  0  0  0
  2  6  1  0  0  0  0
  3  4  1  0  0  0  0
 26  4  1  0  0  0  0
  4  5  1  0  0  0  0
  5  6  1  0  0  0  0
  5  7  2  0  0  0  0
  6 25  1  0  0  0  0
  6 24  1  0  0  0  0
  7  8  1  0  0  0  0
  8  9  2  0  0  0  0
  9 10  1  0  0  0  0
 10 11  2  0  0  0  0
 10 15  1  0  0  0  0
 19 11  1  0  0  0  0
 11 12  1  0  0  0  0
 12 16  1  0  0  0  0
 12 13  2  0  0  0  0
 14 13  1  0  0  0  0
 13 20  1  0  0  0  0
 15 14  2  0  0  0  0
 17 16  2  0  0  0  0
 18 17  1  0  0  0  0
 19 18  2  0  0  0  0
 20 21  1  0  0  0  0
 21 22  1  0  0  0  0
 22 23  1  0  0  0  0
 30 23  2  0  0  0  0
 23 32  2  0  0  0  0
 23 28  1  0  0  0  0
 27 29  1  0  0  0  0
 29 31  2  0  0  0  0
M  CHG  1  13   1
A    1
C
A    2
C2
A    3
C3
A    4
N7
A    5
C8
A    6
C9
A    7
C10
A    8
C11
A    9
C12
A   10
C13
A   11
C14
A   12
C15
A   13
N16
A   14
C17
A   15
C18
A   16
C19
A   17
C20
A   18
C21
A   19
C22
A   20
C23
A   21
C24
A   22
C25
A   23
S26
A   24
C27
A   25
C28
A   26
C29
A   27
C30
A   28
O30
A   29
C31
A   30
O31
A   31
C32
A   32
O32
M  END
>  <InstanceId>
3T0X_DIW_A_201

>  <ChemCompId>
DIW

>  <PdbId>
3T0X

>  <ChainId>
A

>  <ResidueNumber>
201

>  <InsertionCode>


>  <Model>
1

>  <AltIds>


>  <MissingHeavyAtoms>
0

>  <ObservedFormula>
C26 N2 O3 S

>  <Name>
1-(3-sulfopropyl)-4-[(1E,3E)-3-(1,3,3-trimethyl-1,3-dihydro-2H-indol-2-ylidene)prop-1-en-1-yl]quinolinium

>  <SystematicName>
3-[4-[(E,3E)-3-(1,3,3-trimethylindol-2-ylidene)prop-1-enyl]quinolin-1-ium-1-yl]propane-1-sulfonic acid

>  <Synonyms>


>  <Type>
NON-POLYMER

>  <Formula>
C26 H29 N2 O3 S

>  <MolecularWeight>
449.585

>  <ModifiedDate>
2012-03-16

>  <Parent>


>  <OneLetterCode>


>  <SubcomponentList>


>  <AmbiguousFlag>
N

>  <InChI>
InChI=1S/C26H28N2O3S/c1-26(2)22-12-5-7-14-24(22)27(3)25(26)15-8-10-20-16-18-28(17-9-19-32(29,30)31)23-13-6-4-11-21(20)23/h4-8,10-16,18H,9,17,19H2,1-3H3/p+1

>  <InChIKey>
NTABMUJQZABQGD-UHFFFAOYSA-O

>  <SMILES>
CC\1(c2ccccc2N(/C1=C/C=C/c3cc[n+](c4c3cccc4)CCCS(=O)(=O)O)C)C

$$$$
