3T0X_DIW_A_201


 33 36  0  0  0  0  0  0  0  0999 V2000
   28.7643   -1.8444   -6.2099 C   0  0  0  0  0  0  0  0  0  0  0  0
   29.5093   -1.7651   -5.0218 C   0  0  0  0  0  0  0  0  0  0  0  0
   30.9086   -1.7008   -5.0610 C   0  0  0  0  0  0  0  0  0  0  0  0
   31.5612   -1.7118   -6.2460 N   0  0  0  0  0  0  0  0  0  0  0  0
   30.8585   -1.8286   -7.3858 C   0  0  0  0  0  0  0  0  0  0  0  0
   29.4679   -1.8987   -7.4026 C   0  0  0  0  0  0  0  0  0  0  0  0
   31.6207   -1.5940   -3.8669 C   0  0  0  0  0  0  0  0  0  0  0  0
   30.9702   -1.5479   -2.6363 C   0  0  0  0  0  0  0  0  0  0  0  0
   29.5810   -1.6180   -2.5960 C   0  0  0  0  0  0  0  0  0  0  0  0
   28.8611   -1.7220   -3.7874 C   0  0  0  0  0  0  0  0  0  0  0  0
   26.4227   -2.1017   -7.2259 C   0  0  0  0  0  0  0  0  0  0  0  0
   27.2726   -1.9676   -6.1807 C   0  0  0  0  0  0  0  0  0  0  0  0
   20.5984   -2.9835   -8.6449 C   0  0  0  0  0  0  0  0  0  0  0  0
   22.7826   -2.7444   -9.6157 C   0  0  0  0  0  0  0  0  0  0  0  0
   21.9733   -2.7832   -8.4938 C   0  0  0  0  0  0  0  0  0  0  0  0
   22.7640   -2.6102   -7.3975 N   0  0  0  0  0  0  0  0  0  0  0  0
   24.0487   -2.4625   -7.7806 C   0  0  0  0  0  0  0  0  0  0  0  0
   24.2231   -2.5138   -9.2633 C   0  0  0  0  0  0  0  0  0  0  0  0
   25.1663   -2.2399   -6.7985 C   0  0  0  0  0  0  0  0  0  0  0  0
   25.1814   -3.6124   -9.7198 C   0  0  0  0  0  0  0  0  0  0  0  0
   24.6429   -1.1181   -9.7460 C   0  0  0  0  0  0  0  0  0  0  0  0
   22.2836   -2.5855   -5.9903 C   0  0  0  0  0  0  0  0  0  0  0  0
   20.0203   -3.1447   -9.9078 C   0  0  0  0  0  0  0  0  0  0  0  0
   20.8370   -3.1035  -11.0372 C   0  0  0  0  0  0  0  0  0  0  0  0
   22.2165   -2.9038  -10.8925 C   0  0  0  0  0  0  0  0  0  0  0  0
   33.0378   -1.6905   -6.3451 C   0  0  0  0  0  0  0  0  0  0  0  0
   33.7478   -2.9356   -6.8633 C   0  0  0  0  0  0  0  0  0  0  0  0
   34.9893   -2.5972   -7.7050 C   0  0  0  0  0  0  0  0  0  0  0  0
   36.4482   -2.7753   -6.9030 S   0  0  0  0  0  0  0  0  0  0  0  0
   37.1499   -1.4787   -6.8995 O   0  0  0  0  0  0  0  0  0  0  0  0
   37.3014   -3.7749   -7.5801 O   0  0  0  0  0  0  0  0  0  0  0  0
   36.2458   -3.1914   -5.5036 O   0  0  0  0  0  0  0  0  0  0  0  0
   37.2934   -1.1862   -7.8132 H   0  0  0  0  0  0  0  0  0  0  0  0
 23 13  2  0  0  0
 13 15  1  0  0  0
 15 14  2  0  0  0
 25 14  1  0  0  0
 14 18  1  0  0  0
 15 16  1  0  0  0
 22 16  1  0  0  0
 16 17  1  0  0  0
 17 18  1  0  0  0
 17 19  2  0  0  0
 18 21  1  0  0  0
 18 20  1  0  0  0
 19 11  1  0  0  0
 11 12  2  0  0  0
 12  1  1  0  0  0
  1  2  2  0  0  0
  1  6  1  0  0  0
 10  2  1  0  0  0
  2  3  1  0  0  0
  3  7  1  0  0  0
  3  4  2  0  0  0
  5  4  1  0  0  0
  4 26  1  0  0  0
  6  5  2  0  0  0
  8  7  2  0  0  0
  9  8  1  0  0  0
 10  9  2  0  0  0
 26 27  1  0  0  0
 27 28  1  0  0  0
 28 29  1  0  0  0
 31 29  2  0  0  0
 29 32  2  0  0  0
 29 30  1  0  0  0
 23 24  1  0  0  0
 24 25  2  0  0  0
 30 33  1  0  0  0
M  CHG 1   4   1
M  END
> <minimizedAffinity>
-15.27220

$$$$
3T0X_DIW_A_201


 33 36  0  0  0  0  0  0  0  0999 V2000
   28.7455   -1.8385   -6.1861 C   0  0  0  0  0  0  0  0  0  0  0  0
   29.4892   -1.7553   -4.9975 C   0  0  0  0  0  0  0  0  0  0  0  0
   30.8880   -1.6792   -5.0359 C   0  0  0  0  0  0  0  0  0  0  0  0
   31.5412   -1.6823   -6.2205 N   0  0  0  0  0  0  0  0  0  0  0  0
   30.8401   -1.8028   -7.3610 C   0  0  0  0  0  0  0  0  0  0  0  0
   29.4502   -1.8844   -7.3785 C   0  0  0  0  0  0  0  0  0  0  0  0
   31.5986   -1.5688   -3.8412 C   0  0  0  0  0  0  0  0  0  0  0  0
   30.9471   -1.5306   -2.6108 C   0  0  0  0  0  0  0  0  0  0  0  0
   29.5586   -1.6125   -2.5713 C   0  0  0  0  0  0  0  0  0  0  0  0
   28.8402   -1.7201   -3.7634 C   0  0  0  0  0  0  0  0  0  0  0  0
   26.4018   -2.0598   -7.2056 C   0  0  0  0  0  0  0  0  0  0  0  0
   27.2549   -1.9742   -6.1579 C   0  0  0  0  0  0  0  0  0  0  0  0
   20.5971   -3.0371   -8.6426 C   0  0  0  0  0  0  0  0  0  0  0  0
   22.7766   -2.7395   -9.6079 C   0  0  0  0  0  0  0  0  0  0  0  0
   21.9677   -2.8114   -8.4874 C   0  0  0  0  0  0  0  0  0  0  0  0
   22.7541   -2.6391   -7.3879 N   0  0  0  0  0  0  0  0  0  0  0  0
   24.0358   -2.4598   -7.7677 C   0  0  0  0  0  0  0  0  0  0  0  0
   24.2120   -2.4854   -9.2508 C   0  0  0  0  0  0  0  0  0  0  0  0
   25.1481   -2.2296   -6.7814 C   0  0  0  0  0  0  0  0  0  0  0  0
   25.1925   -3.5575   -9.7229 C   0  0  0  0  0  0  0  0  0  0  0  0
   24.6040   -1.0744   -9.7122 C   0  0  0  0  0  0  0  0  0  0  0  0
   22.2726   -2.6452   -5.9809 C   0  0  0  0  0  0  0  0  0  0  0  0
   20.0232   -3.1908   -9.9083 C   0  0  0  0  0  0  0  0  0  0  0  0
   20.8394   -3.1163  -11.0362 C   0  0  0  0  0  0  0  0  0  0  0  0
   22.2145   -2.8911  -10.8874 C   0  0  0  0  0  0  0  0  0  0  0  0
   33.0176   -1.6485   -6.3189 C   0  0  0  0  0  0  0  0  0  0  0  0
   33.7357   -2.8727   -6.8745 C   0  0  0  0  0  0  0  0  0  0  0  0
   34.5326   -2.5579   -8.1512 C   0  0  0  0  0  0  0  0  0  0  0  0
   33.7671   -2.9862   -9.5774 S   0  0  0  0  0  0  0  0  0  0  0  0
   32.7783   -4.0409   -9.2878 O   0  0  0  0  0  0  0  0  0  0  0  0
   34.7408   -3.5058  -10.5609 O   0  0  0  0  0  0  0  0  0  0  0  0
   33.0553   -1.8403  -10.1713 O   0  0  0  0  0  0  0  0  0  0  0  0
   33.2272   -4.8060   -8.8953 H   0  0  0  0  0  0  0  0  0  0  0  0
 23 13  2  0  0  0
 13 15  1  0  0  0
 15 14  2  0  0  0
 25 14  1  0  0  0
 14 18  1  0  0  0
 15 16  1  0  0  0
 22 16  1  0  0  0
 16 17  1  0  0  0
 17 18  1  0  0  0
 17 19  2  0  0  0
 18 21  1  0  0  0
 18 20  1  0  0  0
 19 11  1  0  0  0
 11 12  2  0  0  0
 12  1  1  0  0  0
  1  2  2  0  0  0
  1  6  1  0  0  0
 10  2  1  0  0  0
  2  3  1  0  0  0
  3  7  1  0  0  0
  3  4  2  0  0  0
  5  4  1  0  0  0
  4 26  1  0  0  0
  6  5  2  0  0  0
  8  7  2  0  0  0
  9  8  1  0  0  0
 10  9  2  0  0  0
 26 27  1  0  0  0
 27 28  1  0  0  0
 28 29  1  0  0  0
 31 29  2  0  0  0
 29 32  2  0  0  0
 29 30  1  0  0  0
 23 24  1  0  0  0
 24 25  2  0  0  0
 30 33  1  0  0  0
M  CHG 1   4   1
M  END
> <minimizedAffinity>
-15.16774

$$$$
3T0X_DIW_A_201


 33 36  0  0  0  0  0  0  0  0999 V2000
   28.7086   -1.5853   -6.0345 C   0  0  0  0  0  0  0  0  0  0  0  0
   30.1057   -1.6139   -6.1762 C   0  0  0  0  0  0  0  0  0  0  0  0
   30.9375   -1.5660   -5.0494 C   0  0  0  0  0  0  0  0  0  0  0  0
   30.4046   -1.4942   -3.8081 N   0  0  0  0  0  0  0  0  0  0  0  0
   29.0698   -1.4253   -3.6654 C   0  0  0  0  0  0  0  0  0  0  0  0
   28.1991   -1.4663   -4.7512 C   0  0  0  0  0  0  0  0  0  0  0  0
   32.3203   -1.6247   -5.2188 C   0  0  0  0  0  0  0  0  0  0  0  0
   32.8920   -1.7316   -6.4843 C   0  0  0  0  0  0  0  0  0  0  0  0
   32.0671   -1.7728   -7.6042 C   0  0  0  0  0  0  0  0  0  0  0  0
   30.6817   -1.7177   -7.4424 C   0  0  0  0  0  0  0  0  0  0  0  0
   26.4796   -1.8292   -7.2808 C   0  0  0  0  0  0  0  0  0  0  0  0
   27.8097   -1.5818   -7.2315 C   0  0  0  0  0  0  0  0  0  0  0  0
   21.8434   -2.4580  -11.1311 C   0  0  0  0  0  0  0  0  0  0  0  0
   22.4892   -2.8283   -8.8472 C   0  0  0  0  0  0  0  0  0  0  0  0
   22.8056   -2.3867  -10.1199 C   0  0  0  0  0  0  0  0  0  0  0  0
   24.0913   -1.9354  -10.1020 N   0  0  0  0  0  0  0  0  0  0  0  0
   24.6058   -2.0736   -8.8630 C   0  0  0  0  0  0  0  0  0  0  0  0
   23.6425   -2.6830   -7.8977 C   0  0  0  0  0  0  0  0  0  0  0  0
   26.0161   -1.6756   -8.5226 C   0  0  0  0  0  0  0  0  0  0  0  0
   23.3679   -1.8004   -6.6815 C   0  0  0  0  0  0  0  0  0  0  0  0
   24.1609   -4.0773   -7.5175 C   0  0  0  0  0  0  0  0  0  0  0  0
   24.8193   -1.3766  -11.2722 C   0  0  0  0  0  0  0  0  0  0  0  0
   20.5650   -2.9682  -10.8851 C   0  0  0  0  0  0  0  0  0  0  0  0
   20.2485   -3.4144   -9.6026 C   0  0  0  0  0  0  0  0  0  0  0  0
   21.2085   -3.3448   -8.5841 C   0  0  0  0  0  0  0  0  0  0  0  0
   31.2347   -1.3970   -2.5866 C   0  0  0  0  0  0  0  0  0  0  0  0
   30.5645   -1.6140   -1.2351 C   0  0  0  0  0  0  0  0  0  0  0  0
   30.4420   -0.3136   -0.4239 C   0  0  0  0  0  0  0  0  0  0  0  0
   31.6787   -0.0551    0.6748 S   0  0  0  0  0  0  0  0  0  0  0  0
   32.6500   -1.1588    0.5652 O   0  0  0  0  0  0  0  0  0  0  0  0
   31.1549   -0.0192    2.0567 O   0  0  0  0  0  0  0  0  0  0  0  0
   32.3866    1.2083    0.4006 O   0  0  0  0  0  0  0  0  0  0  0  0
   32.2034   -2.0014    0.7425 H   0  0  0  0  0  0  0  0  0  0  0  0
 23 13  2  0  0  0
 13 15  1  0  0  0
 15 14  2  0  0  0
 25 14  1  0  0  0
 14 18  1  0  0  0
 15 16  1  0  0  0
 22 16  1  0  0  0
 16 17  1  0  0  0
 17 18  1  0  0  0
 17 19  2  0  0  0
 18 21  1  0  0  0
 18 20  1  0  0  0
 19 11  1  0  0  0
 11 12  2  0  0  0
 12  1  1  0  0  0
  1  2  2  0  0  0
  1  6  1  0  0  0
 10  2  1  0  0  0
  2  3  1  0  0  0
  3  7  1  0  0  0
  3  4  2  0  0  0
  5  4  1  0  0  0
  4 26  1  0  0  0
  6  5  2  0  0  0
  8  7  2  0  0  0
  9  8  1  0  0  0
 10  9  2  0  0  0
 26 27  1  0  0  0
 27 28  1  0  0  0
 28 29  1  0  0  0
 31 29  2  0  0  0
 29 32  2  0  0  0
 29 30  1  0  0  0
 23 24  1  0  0  0
 24 25  2  0  0  0
 30 33  1  0  0  0
M  CHG 1   4   1
M  END
> <minimizedAffinity>
-14.44009

$$$$
3T0X_DIW_A_201


 33 36  0  0  0  0  0  0  0  0999 V2000
   27.9375   -1.7121   -5.2036 C   0  0  0  0  0  0  0  0  0  0  0  0
   29.3363   -1.6253   -5.1111 C   0  0  0  0  0  0  0  0  0  0  0  0
   29.9647   -1.5517   -3.8607 C   0  0  0  0  0  0  0  0  0  0  0  0
   29.2310   -1.5660   -2.7243 N   0  0  0  0  0  0  0  0  0  0  0  0
   27.8899   -1.6076   -2.8045 C   0  0  0  0  0  0  0  0  0  0  0  0
   27.2159   -1.6789   -4.0209 C   0  0  0  0  0  0  0  0  0  0  0  0
   31.3566   -1.4951   -3.7986 C   0  0  0  0  0  0  0  0  0  0  0  0
   32.1353   -1.5120   -4.9531 C   0  0  0  0  0  0  0  0  0  0  0  0
   31.5120   -1.5787   -6.1955 C   0  0  0  0  0  0  0  0  0  0  0  0
   30.1191   -1.6387   -6.2656 C   0  0  0  0  0  0  0  0  0  0  0  0
   25.9477   -1.9939   -6.7982 C   0  0  0  0  0  0  0  0  0  0  0  0
   27.2503   -1.7373   -6.5334 C   0  0  0  0  0  0  0  0  0  0  0  0
   21.9545   -2.5421  -11.3224 C   0  0  0  0  0  0  0  0  0  0  0  0
   22.2071   -2.8521   -8.9537 C   0  0  0  0  0  0  0  0  0  0  0  0
   22.7462   -2.4788  -10.1723 C   0  0  0  0  0  0  0  0  0  0  0  0
   24.0361   -2.0928   -9.9621 N   0  0  0  0  0  0  0  0  0  0  0  0
   24.3385   -2.2067   -8.6527 C   0  0  0  0  0  0  0  0  0  0  0  0
   23.2011   -2.7272   -7.8362 C   0  0  0  0  0  0  0  0  0  0  0  0
   25.6969   -1.8672   -8.1026 C   0  0  0  0  0  0  0  0  0  0  0  0
   22.7870   -1.7834   -6.7087 C   0  0  0  0  0  0  0  0  0  0  0  0
   23.5731   -4.1295   -7.3335 C   0  0  0  0  0  0  0  0  0  0  0  0
   24.9712   -1.6193  -11.0171 C   0  0  0  0  0  0  0  0  0  0  0  0
   20.6266   -2.9766  -11.2693 C   0  0  0  0  0  0  0  0  0  0  0  0
   20.0856   -3.3541  -10.0409 C   0  0  0  0  0  0  0  0  0  0  0  0
   20.8738   -3.2921   -8.8839 C   0  0  0  0  0  0  0  0  0  0  0  0
   29.8381   -1.4466   -1.3798 C   0  0  0  0  0  0  0  0  0  0  0  0
   29.1816   -0.5151   -0.3677 C   0  0  0  0  0  0  0  0  0  0  0  0
   27.6949   -0.8398   -0.1475 C   0  0  0  0  0  0  0  0  0  0  0  0
   27.0904   -0.3751    1.3430 S   0  0  0  0  0  0  0  0  0  0  0  0
   25.9229    0.4998    1.1304 O   0  0  0  0  0  0  0  0  0  0  0  0
   28.1081    0.3705    2.1135 O   0  0  0  0  0  0  0  0  0  0  0  0
   26.6533   -1.5398    2.1334 O   0  0  0  0  0  0  0  0  0  0  0  0
   26.1896    1.2744    0.6110 H   0  0  0  0  0  0  0  0  0  0  0  0
 23 13  2  0  0  0
 13 15  1  0  0  0
 15 14  2  0  0  0
 25 14  1  0  0  0
 14 18  1  0  0  0
 15 16  1  0  0  0
 22 16  1  0  0  0
 16 17  1  0  0  0
 17 18  1  0  0  0
 17 19  2  0  0  0
 18 21  1  0  0  0
 18 20  1  0  0  0
 19 11  1  0  0  0
 11 12  2  0  0  0
 12  1  1  0  0  0
  1  2  2  0  0  0
  1  6  1  0  0  0
 10  2  1  0  0  0
  2  3  1  0  0  0
  3  7  1  0  0  0
  3  4  2  0  0  0
  5  4  1  0  0  0
  4 26  1  0  0  0
  6  5  2  0  0  0
  8  7  2  0  0  0
  9  8  1  0  0  0
 10  9  2  0  0  0
 26 27  1  0  0  0
 27 28  1  0  0  0
 28 29  1  0  0  0
 31 29  2  0  0  0
 29 32  2  0  0  0
 29 30  1  0  0  0
 23 24  1  0  0  0
 24 25  2  0  0  0
 30 33  1  0  0  0
M  CHG 1   4   1
M  END
> <minimizedAffinity>
-13.59970

$$$$
3T0X_DIW_A_201


 33 36  0  0  0  0  0  0  0  0999 V2000
   27.8851   -2.1791   -4.3199 C   0  0  0  0  0  0  0  0  0  0  0  0
   28.9018   -1.9739   -5.2671 C   0  0  0  0  0  0  0  0  0  0  0  0
   30.2192   -1.7292   -4.8567 C   0  0  0  0  0  0  0  0  0  0  0  0
   30.5299   -1.6899   -3.5407 N   0  0  0  0  0  0  0  0  0  0  0  0
   29.5560   -1.8445   -2.6273 C   0  0  0  0  0  0  0  0  0  0  0  0
   28.2313   -2.0872   -2.9812 C   0  0  0  0  0  0  0  0  0  0  0  0
   31.2132   -1.5575   -5.8195 C   0  0  0  0  0  0  0  0  0  0  0  0
   30.9243   -1.6259   -7.1802 C   0  0  0  0  0  0  0  0  0  0  0  0
   29.6153   -1.8626   -7.5887 C   0  0  0  0  0  0  0  0  0  0  0  0
   28.6154   -2.0386   -6.6307 C   0  0  0  0  0  0  0  0  0  0  0  0
   25.9730   -2.5021   -5.9995 C   0  0  0  0  0  0  0  0  0  0  0  0
   26.4645   -2.3882   -4.7432 C   0  0  0  0  0  0  0  0  0  0  0  0
   20.8143   -3.1001   -9.1212 C   0  0  0  0  0  0  0  0  0  0  0  0
   23.1578   -2.6406   -9.3804 C   0  0  0  0  0  0  0  0  0  0  0  0
   22.0820   -2.9269   -8.5586 C   0  0  0  0  0  0  0  0  0  0  0  0
   22.5365   -2.9889   -7.2754 N   0  0  0  0  0  0  0  0  0  0  0  0
   23.8640   -2.7522   -7.2500 C   0  0  0  0  0  0  0  0  0  0  0  0
   24.4325   -2.4808   -8.6044 C   0  0  0  0  0  0  0  0  0  0  0  0
   24.6600   -2.7387   -5.9736 C   0  0  0  0  0  0  0  0  0  0  0  0
   25.5492   -3.4476   -8.9943 C   0  0  0  0  0  0  0  0  0  0  0  0
   24.8723   -1.0106   -8.6547 C   0  0  0  0  0  0  0  0  0  0  0  0
   21.6960   -3.2724   -6.0818 C   0  0  0  0  0  0  0  0  0  0  0  0
   20.6081   -2.9890  -10.4997 C   0  0  0  0  0  0  0  0  0  0  0  0
   21.6929   -2.6987  -11.3261 C   0  0  0  0  0  0  0  0  0  0  0  0
   22.9667   -2.5246  -10.7683 C   0  0  0  0  0  0  0  0  0  0  0  0
   31.8943   -1.3922   -3.0504 C   0  0  0  0  0  0  0  0  0  0  0  0
   32.1238   -1.3169   -1.5455 C   0  0  0  0  0  0  0  0  0  0  0  0
   33.5630   -0.9090   -1.1899 C   0  0  0  0  0  0  0  0  0  0  0  0
   33.7582   -0.3141    0.3629 S   0  0  0  0  0  0  0  0  0  0  0  0
   34.1241    1.1119    0.2829 O   0  0  0  0  0  0  0  0  0  0  0  0
   34.8325   -1.0405    1.0727 O   0  0  0  0  0  0  0  0  0  0  0  0
   32.5123   -0.4253    1.1425 O   0  0  0  0  0  0  0  0  0  0  0  0
   34.9435    1.2074   -0.2273 H   0  0  0  0  0  0  0  0  0  0  0  0
 23 13  2  0  0  0
 13 15  1  0  0  0
 15 14  2  0  0  0
 25 14  1  0  0  0
 14 18  1  0  0  0
 15 16  1  0  0  0
 22 16  1  0  0  0
 16 17  1  0  0  0
 17 18  1  0  0  0
 17 19  2  0  0  0
 18 21  1  0  0  0
 18 20  1  0  0  0
 19 11  1  0  0  0
 11 12  2  0  0  0
 12  1  1  0  0  0
  1  2  2  0  0  0
  1  6  1  0  0  0
 10  2  1  0  0  0
  2  3  1  0  0  0
  3  7  1  0  0  0
  3  4  2  0  0  0
  5  4  1  0  0  0
  4 26  1  0  0  0
  6  5  2  0  0  0
  8  7  2  0  0  0
  9  8  1  0  0  0
 10  9  2  0  0  0
 26 27  1  0  0  0
 27 28  1  0  0  0
 28 29  1  0  0  0
 31 29  2  0  0  0
 29 32  2  0  0  0
 29 30  1  0  0  0
 23 24  1  0  0  0
 24 25  2  0  0  0
 30 33  1  0  0  0
M  CHG 1   4   1
M  END
> <minimizedAffinity>
-13.33940

$$$$
3T0X_DIW_A_201


 33 36  0  0  0  0  0  0  0  0999 V2000
   28.9662   -1.4557   -6.4968 C   0  0  0  0  0  0  0  0  0  0  0  0
   28.5623   -1.5160   -5.1529 C   0  0  0  0  0  0  0  0  0  0  0  0
   29.5127   -1.5345   -4.1232 C   0  0  0  0  0  0  0  0  0  0  0  0
   30.8339   -1.4918   -4.4107 N   0  0  0  0  0  0  0  0  0  0  0  0
   31.2301   -1.4752   -5.6951 C   0  0  0  0  0  0  0  0  0  0  0  0
   30.3277   -1.4586   -6.7553 C   0  0  0  0  0  0  0  0  0  0  0  0
   29.0821   -1.5658   -2.7974 C   0  0  0  0  0  0  0  0  0  0  0  0
   27.7272   -1.5772   -2.4751 C   0  0  0  0  0  0  0  0  0  0  0  0
   26.7828   -1.5653   -3.4969 C   0  0  0  0  0  0  0  0  0  0  0  0
   27.2062   -1.5309   -4.8266 C   0  0  0  0  0  0  0  0  0  0  0  0
   26.6666   -1.8738   -7.5544 C   0  0  0  0  0  0  0  0  0  0  0  0
   27.9636   -1.4894   -7.6080 C   0  0  0  0  0  0  0  0  0  0  0  0
   21.6422   -2.4373  -10.8939 C   0  0  0  0  0  0  0  0  0  0  0  0
   22.5220   -2.8238   -8.6924 C   0  0  0  0  0  0  0  0  0  0  0  0
   22.7068   -2.3804   -9.9901 C   0  0  0  0  0  0  0  0  0  0  0  0
   23.9921   -1.9429  -10.1072 N   0  0  0  0  0  0  0  0  0  0  0  0
   24.6333   -2.0916   -8.9300 C   0  0  0  0  0  0  0  0  0  0  0  0
   23.7709   -2.6948   -7.8700 C   0  0  0  0  0  0  0  0  0  0  0  0
   26.0760   -1.7101   -8.7397 C   0  0  0  0  0  0  0  0  0  0  0  0
   23.6364   -1.8143   -6.6289 C   0  0  0  0  0  0  0  0  0  0  0  0
   24.3113   -4.0961   -7.5510 C   0  0  0  0  0  0  0  0  0  0  0  0
   24.5981   -1.3871  -11.3462 C   0  0  0  0  0  0  0  0  0  0  0  0
   20.3915   -2.9349  -10.5155 C   0  0  0  0  0  0  0  0  0  0  0  0
   20.2077   -3.3830   -9.2080 C   0  0  0  0  0  0  0  0  0  0  0  0
   21.2708   -3.3278   -8.2967 C   0  0  0  0  0  0  0  0  0  0  0  0
   31.8811   -1.5530   -3.3666 C   0  0  0  0  0  0  0  0  0  0  0  0
   33.3392   -1.4326   -3.7940 C   0  0  0  0  0  0  0  0  0  0  0  0
   34.2687   -1.0812   -2.6207 C   0  0  0  0  0  0  0  0  0  0  0  0
   35.7097   -0.3527   -3.0635 S   0  0  0  0  0  0  0  0  0  0  0  0
   36.8284   -1.2083   -2.6272 O   0  0  0  0  0  0  0  0  0  0  0  0
   35.8475    0.9721   -2.4223 O   0  0  0  0  0  0  0  0  0  0  0  0
   35.8019   -0.1866   -4.5251 O   0  0  0  0  0  0  0  0  0  0  0  0
   36.7862   -1.3305   -1.6658 H   0  0  0  0  0  0  0  0  0  0  0  0
 23 13  2  0  0  0
 13 15  1  0  0  0
 15 14  2  0  0  0
 25 14  1  0  0  0
 14 18  1  0  0  0
 15 16  1  0  0  0
 22 16  1  0  0  0
 16 17  1  0  0  0
 17 18  1  0  0  0
 17 19  2  0  0  0
 18 21  1  0  0  0
 18 20  1  0  0  0
 19 11  1  0  0  0
 11 12  2  0  0  0
 12  1  1  0  0  0
  1  2  2  0  0  0
  1  6  1  0  0  0
 10  2  1  0  0  0
  2  3  1  0  0  0
  3  7  1  0  0  0
  3  4  2  0  0  0
  5  4  1  0  0  0
  4 26  1  0  0  0
  6  5  2  0  0  0
  8  7  2  0  0  0
  9  8  1  0  0  0
 10  9  2  0  0  0
 26 27  1  0  0  0
 27 28  1  0  0  0
 28 29  1  0  0  0
 31 29  2  0  0  0
 29 32  2  0  0  0
 29 30  1  0  0  0
 23 24  1  0  0  0
 24 25  2  0  0  0
 30 33  1  0  0  0
M  CHG 1   4   1
M  END
> <minimizedAffinity>
-13.03045

$$$$
3T0X_DIW_A_201


 33 36  0  0  0  0  0  0  0  0999 V2000
   29.3316   -1.8766   -4.9616 C   0  0  0  0  0  0  0  0  0  0  0  0
   29.8692   -1.6406   -3.6857 C   0  0  0  0  0  0  0  0  0  0  0  0
   31.2560   -1.5605   -3.5003 C   0  0  0  0  0  0  0  0  0  0  0  0
   32.0963   -1.7072   -4.5503 N   0  0  0  0  0  0  0  0  0  0  0  0
   31.5921   -1.9738   -5.7675 C   0  0  0  0  0  0  0  0  0  0  0  0
   30.2233   -2.0663   -6.0054 C   0  0  0  0  0  0  0  0  0  0  0  0
   31.7603   -1.2970   -2.2273 C   0  0  0  0  0  0  0  0  0  0  0  0
   30.9146   -1.1099   -1.1367 C   0  0  0  0  0  0  0  0  0  0  0  0
   29.5377   -1.1955   -1.3185 C   0  0  0  0  0  0  0  0  0  0  0  0
   29.0252   -1.4560   -2.5906 C   0  0  0  0  0  0  0  0  0  0  0  0
   27.1516   -1.8865   -6.3140 C   0  0  0  0  0  0  0  0  0  0  0  0
   27.8551   -2.0177   -5.1648 C   0  0  0  0  0  0  0  0  0  0  0  0
   21.6801   -2.8765   -8.7218 C   0  0  0  0  0  0  0  0  0  0  0  0
   23.9623   -2.4035   -9.3034 C   0  0  0  0  0  0  0  0  0  0  0  0
   22.9997   -2.6270   -8.3347 C   0  0  0  0  0  0  0  0  0  0  0  0
   23.6041   -2.5555   -7.1154 N   0  0  0  0  0  0  0  0  0  0  0  0
   24.9179   -2.2944   -7.2724 C   0  0  0  0  0  0  0  0  0  0  0  0
   25.3145   -2.1465   -8.7049 C   0  0  0  0  0  0  0  0  0  0  0  0
   25.8583   -2.1424   -6.1081 C   0  0  0  0  0  0  0  0  0  0  0  0
   26.4049   -3.1271   -9.1329 C   0  0  0  0  0  0  0  0  0  0  0  0
   25.7025   -0.6808   -8.9470 C   0  0  0  0  0  0  0  0  0  0  0  0
   22.9189   -2.7358   -5.8079 C   0  0  0  0  0  0  0  0  0  0  0  0
   21.3095   -2.9041  -10.0698 C   0  0  0  0  0  0  0  0  0  0  0  0
   22.2804   -2.6769  -11.0444 C   0  0  0  0  0  0  0  0  0  0  0  0
   23.6054   -2.4270  -10.6629 C   0  0  0  0  0  0  0  0  0  0  0  0
   33.5689   -1.6759   -4.4055 C   0  0  0  0  0  0  0  0  0  0  0  0
   34.3935   -1.0368   -5.5166 C   0  0  0  0  0  0  0  0  0  0  0  0
   35.7499   -1.7327   -5.7169 C   0  0  0  0  0  0  0  0  0  0  0  0
   35.8560   -2.6749   -7.0969 S   0  0  0  0  0  0  0  0  0  0  0  0
   34.9720   -2.1053   -8.1303 O   0  0  0  0  0  0  0  0  0  0  0  0
   35.4291   -4.0628   -6.8196 O   0  0  0  0  0  0  0  0  0  0  0  0
   37.2301   -2.6965   -7.6294 O   0  0  0  0  0  0  0  0  0  0  0  0
   34.0605   -2.0821   -7.7991 H   0  0  0  0  0  0  0  0  0  0  0  0
 23 13  2  0  0  0
 13 15  1  0  0  0
 15 14  2  0  0  0
 25 14  1  0  0  0
 14 18  1  0  0  0
 15 16  1  0  0  0
 22 16  1  0  0  0
 16 17  1  0  0  0
 17 18  1  0  0  0
 17 19  2  0  0  0
 18 21  1  0  0  0
 18 20  1  0  0  0
 19 11  1  0  0  0
 11 12  2  0  0  0
 12  1  1  0  0  0
  1  2  2  0  0  0
  1  6  1  0  0  0
 10  2  1  0  0  0
  2  3  1  0  0  0
  3  7  1  0  0  0
  3  4  2  0  0  0
  5  4  1  0  0  0
  4 26  1  0  0  0
  6  5  2  0  0  0
  8  7  2  0  0  0
  9  8  1  0  0  0
 10  9  2  0  0  0
 26 27  1  0  0  0
 27 28  1  0  0  0
 28 29  1  0  0  0
 31 29  2  0  0  0
 29 32  2  0  0  0
 29 30  1  0  0  0
 23 24  1  0  0  0
 24 25  2  0  0  0
 30 33  1  0  0  0
M  CHG 1   4   1
M  END
> <minimizedAffinity>
-12.61386

$$$$
3T0X_DIW_A_201


 33 36  0  0  0  0  0  0  0  0999 V2000
   28.3479   -2.1079   -4.5718 C   0  0  0  0  0  0  0  0  0  0  0  0
   29.3097   -2.0671   -5.5946 C   0  0  0  0  0  0  0  0  0  0  0  0
   30.6625   -1.8602   -5.2930 C   0  0  0  0  0  0  0  0  0  0  0  0
   31.0607   -1.6994   -4.0101 N   0  0  0  0  0  0  0  0  0  0  0  0
   30.1420   -1.6962   -3.0289 C   0  0  0  0  0  0  0  0  0  0  0  0
   28.7858   -1.8946   -3.2744 C   0  0  0  0  0  0  0  0  0  0  0  0
   31.5988   -1.8529   -6.3262 C   0  0  0  0  0  0  0  0  0  0  0  0
   31.2179   -2.0488   -7.6514 C   0  0  0  0  0  0  0  0  0  0  0  0
   29.8740   -2.2480   -7.9526 C   0  0  0  0  0  0  0  0  0  0  0  0
   28.9312   -2.2597   -6.9233 C   0  0  0  0  0  0  0  0  0  0  0  0
   26.2978   -2.3237   -6.0989 C   0  0  0  0  0  0  0  0  0  0  0  0
   26.8933   -2.2745   -4.8841 C   0  0  0  0  0  0  0  0  0  0  0  0
   20.9410   -3.0350   -8.8398 C   0  0  0  0  0  0  0  0  0  0  0  0
   23.2672   -2.6249   -9.2769 C   0  0  0  0  0  0  0  0  0  0  0  0
   22.2443   -2.8462   -8.3716 C   0  0  0  0  0  0  0  0  0  0  0  0
   22.7808   -2.8376   -7.1189 N   0  0  0  0  0  0  0  0  0  0  0  0
   24.1094   -2.6186   -7.1935 C   0  0  0  0  0  0  0  0  0  0  0  0
   24.5912   -2.4368   -8.5957 C   0  0  0  0  0  0  0  0  0  0  0  0
   24.9870   -2.5398   -5.9742 C   0  0  0  0  0  0  0  0  0  0  0  0
   25.6702   -3.4409   -8.9973 C   0  0  0  0  0  0  0  0  0  0  0  0
   25.0417   -0.9787   -8.7634 C   0  0  0  0  0  0  0  0  0  0  0  0
   22.0169   -3.0373   -5.8587 C   0  0  0  0  0  0  0  0  0  0  0  0
   20.6465   -3.0038  -10.2064 C   0  0  0  0  0  0  0  0  0  0  0  0
   21.6781   -2.7788  -11.1170 C   0  0  0  0  0  0  0  0  0  0  0  0
   22.9872   -2.5897  -10.6540 C   0  0  0  0  0  0  0  0  0  0  0  0
   32.4684   -1.4342   -3.6378 C   0  0  0  0  0  0  0  0  0  0  0  0
   33.4807   -1.1962   -4.7521 C   0  0  0  0  0  0  0  0  0  0  0  0
   34.8974   -1.6529   -4.3669 C   0  0  0  0  0  0  0  0  0  0  0  0
   35.8585   -2.1157   -5.6574 S   0  0  0  0  0  0  0  0  0  0  0  0
   35.0123   -2.2452   -6.8578 O   0  0  0  0  0  0  0  0  0  0  0  0
   36.5056   -3.4178   -5.3903 O   0  0  0  0  0  0  0  0  0  0  0  0
   36.9023   -1.1135   -5.9376 O   0  0  0  0  0  0  0  0  0  0  0  0
   34.3171   -2.9016   -6.6940 H   0  0  0  0  0  0  0  0  0  0  0  0
 23 13  2  0  0  0
 13 15  1  0  0  0
 15 14  2  0  0  0
 25 14  1  0  0  0
 14 18  1  0  0  0
 15 16  1  0  0  0
 22 16  1  0  0  0
 16 17  1  0  0  0
 17 18  1  0  0  0
 17 19  2  0  0  0
 18 21  1  0  0  0
 18 20  1  0  0  0
 19 11  1  0  0  0
 11 12  2  0  0  0
 12  1  1  0  0  0
  1  2  2  0  0  0
  1  6  1  0  0  0
 10  2  1  0  0  0
  2  3  1  0  0  0
  3  7  1  0  0  0
  3  4  2  0  0  0
  5  4  1  0  0  0
  4 26  1  0  0  0
  6  5  2  0  0  0
  8  7  2  0  0  0
  9  8  1  0  0  0
 10  9  2  0  0  0
 26 27  1  0  0  0
 27 28  1  0  0  0
 28 29  1  0  0  0
 31 29  2  0  0  0
 29 32  2  0  0  0
 29 30  1  0  0  0
 23 24  1  0  0  0
 24 25  2  0  0  0
 30 33  1  0  0  0
M  CHG 1   4   1
M  END
> <minimizedAffinity>
-12.32598

$$$$
