5EH5_XCZ_A_303
  RCSB PDB12061717283D
Coordinates from PDB:5EH5:A:303 Model:1 without hydrogens
 11 11  0  0  0  0            999 V2000
   17.5180    4.5090   14.4500   C 0  0  0  0  0  0  0  0  0  0  0  0
   18.2140    3.5550   15.2060   C 0  0  0  0  0  0  0  0  0  0  0  0
   16.0950    4.4570   14.4400   C 0  0  0  0  0  0  0  0  0  0  0  0
   16.1730    2.6090   15.8380   C 0  0  0  0  0  0  0  0  0  0  0  0
   15.2640    5.4480   13.6720   C 0  0  0  0  0  0  0  0  0  0  0  0
   17.5180    2.6120   15.8880   N 0  0  0  0  0  0  0  0  0  0  0  0
   15.4670    3.4790   15.1360   N 0  0  0  0  0  0  0  0  0  0  0  0
   15.8220   -0.0600   16.1160   N 0  0  0  0  0  0  0  0  0  0  0  0
   15.7790    1.5280   18.1120   O 0  0  0  0  0  0  0  0  0  0  0  0
   13.8720    1.5800   16.5520   O 0  0  0  0  0  0  0  0  0  0  0  0
   15.3230    1.3680   16.7410   S 0  0  0  0  0  0  0  0  0  0  0  0
  1  2  1  0  0  0  0
  1  3  2  0  0  0  0
  2  6  2  0  0  0  0
  3  5  1  0  0  0  0
  3  7  1  0  0  0  0
  4  6  1  0  0  0  0
  4  7  2  0  0  0  0
  4 11  1  0  0  0  0
  8 11  1  0  0  0  0
  9 11  2  0  0  0  0
 10 11  2  0  0  0  0
A    1
C11
A    2
C10
A    3
C2
A    4
C4
A    5
C1
A    6
N9
A    7
N3
A    8
N6
A    9
O7
A   10
O8
A   11
S5
M  END
>  <InstanceId>
5EH5_XCZ_A_303

>  <ChemCompId>
XCZ

>  <PdbId>
5EH5

>  <ChainId>
A

>  <ResidueNumber>
303

>  <InsertionCode>


>  <Model>
1

>  <AltIds>


>  <MissingHeavyAtoms>
0

>  <ObservedFormula>
C5 N3 O2 S

>  <Name>
1.7.6 4-methylpyrimidine-2-sulfonamide

>  <SystematicName>
4-methylpyrimidine-2-sulfonamide

>  <Synonyms>


>  <Type>
non-polymer

>  <Formula>
C5 H7 N3 O2 S

>  <MolecularWeight>
173.193

>  <ModifiedDate>
2016-02-26

>  <Parent>


>  <OneLetterCode>


>  <SubcomponentList>


>  <AmbiguousFlag>
N

>  <InChI>
InChI=1S/C5H7N3O2S/c1-4-2-3-7-5(8-4)11(6,9)10/h2-3H,1H3,(H2,6,9,10)

>  <InChIKey>
WXLNVTKRXIXEJI-UHFFFAOYSA-N

>  <SMILES>
Cc1ccnc(n1)S(=O)(=O)N

$$$$
