2GV7_672_A_245


 56 59  0  0  0  0  0  0  0  0999 V2000
   18.0406   63.5246   25.9625 C   0  0  0  0  0  0  0  0  0  0  0  0
   16.7270   62.8969   25.5661 C   0  0  0  0  0  0  0  0  0  0  0  0
   15.8837   63.4882   24.4536 N   0  0  0  0  0  0  0  0  0  0  0  0
   16.3950   64.6683   23.7906 C   0  0  0  0  0  0  0  0  0  0  0  0
   15.2313   65.6704   23.5171 C   0  0  0  0  0  0  0  0  0  0  0  0
   13.9446   64.9784   23.5315 N   0  0  0  0  0  0  0  0  0  0  0  0
   12.8982   65.4850   22.6162 C   0  0  0  0  0  0  0  0  0  0  0  0
   11.8169   64.9040   22.5487 O   0  0  0  0  0  0  0  0  0  0  0  0
   13.5337   63.8257   24.3262 C   0  0  0  0  0  0  0  0  0  0  0  0
   14.6404   62.7803   24.2153 C   0  0  0  0  0  0  0  0  0  0  0  0
   16.3405   61.8880   26.1673 O   0  0  0  0  0  0  0  0  0  0  0  0
   13.1578   66.7196   21.7851 C   0  0  0  0  0  0  0  0  0  0  0  0
   14.0137   66.2851   20.5532 C   0  0  0  0  0  0  0  0  0  0  0  0
   14.2428   67.4617   19.5852 C   0  0  0  0  0  0  0  0  0  0  0  0
   12.8537   68.0346   19.2164 N   0  0  0  0  0  0  0  0  0  0  0  0
   12.0035   68.5602   20.3596 C   0  0  0  0  0  0  0  0  0  0  0  0
   11.7856   67.3880   21.3549 C   0  0  0  0  0  0  0  0  0  0  0  0
   12.3950   68.0177   17.9342 C   0  0  0  0  0  0  0  0  0  0  0  0
   13.2538   68.1184   16.9025 N   0  0  0  0  0  0  0  0  0  0  0  0
   11.0753   67.8781   17.6668 N   0  0  0  0  0  0  0  0  0  0  0  0
   14.2181   68.2205   17.0728 H   0  0  0  0  0  0  0  0  0  0  0  0
   12.9177   68.0898   15.9776 H   0  0  0  0  0  0  0  0  0  0  0  0
   10.4287   67.8027   18.4053 H   0  0  0  0  0  0  0  0  0  0  0  0
   18.2971   63.2213   27.3765 N   0  0  0  0  0  0  0  0  0  0  0  0
   17.6724   62.4600   27.6423 H   0  0  0  0  0  0  0  0  0  0  0  0
   18.0882   64.4373   28.4772 S   0  0  0  0  0  0  0  0  0  0  0  0
   17.8995   63.8046   29.7725 O   0  0  0  0  0  0  0  0  0  0  0  0
   19.2097   65.3485   28.3484 O   0  0  0  0  0  0  0  0  0  0  0  0
   14.0744   66.5736   27.1348 C   0  0  0  0  0  0  0  0  0  0  0  0
   15.3296   67.1614   26.8812 C   0  0  0  0  0  0  0  0  0  0  0  0
   16.5542   66.5376   27.2787 C   0  0  0  0  0  0  0  0  0  0  0  0
   16.5273   65.2612   27.9590 C   0  0  0  0  0  0  0  0  0  0  0  0
   15.2211   64.6513   28.2216 C   0  0  0  0  0  0  0  0  0  0  0  0
   14.0285   65.3218   27.8017 C   0  0  0  0  0  0  0  0  0  0  0  0
   12.8024   67.3160   26.6751 C   0  0  0  0  0  0  0  0  0  0  0  0
   13.0569   68.1491   25.3973 C   0  0  0  0  0  0  0  0  0  0  0  0
   11.6587   66.3223   26.3984 C   0  0  0  0  0  0  0  0  0  0  0  0
   17.8817   67.2501   26.9546 C   0  0  0  0  0  0  0  0  0  0  0  0
   17.9914   68.6591   27.5936 C   0  0  0  0  0  0  0  0  0  0  0  0
   18.0445   67.3454   25.4120 C   0  0  0  0  0  0  0  0  0  0  0  0
   15.0668   63.2888   28.9394 C   0  0  0  0  0  0  0  0  0  0  0  0
   13.9952   62.4154   28.2398 C   0  0  0  0  0  0  0  0  0  0  0  0
   14.6736   63.4675   30.4284 C   0  0  0  0  0  0  0  0  0  0  0  0
   19.2502   63.0766   25.0841 C   0  0  0  0  0  0  0  0  0  0  0  0
   19.1462   61.6353   24.5530 C   0  0  0  0  0  0  0  0  0  0  0  0
   19.6620   60.5617   25.3465 C   0  0  0  0  0  0  0  0  0  0  0  0
   19.5656   59.2202   24.8858 C   0  0  0  0  0  0  0  0  0  0  0  0
   18.9405   58.9691   23.6192 C   0  0  0  0  0  0  0  0  0  0  0  0
   18.4315   60.0296   22.8261 C   0  0  0  0  0  0  0  0  0  0  0  0
   18.5327   61.3617   23.2814 C   0  0  0  0  0  0  0  0  0  0  0  0
   20.0837   58.1501   25.6597 C   0  0  0  0  0  0  0  0  0  0  0  0
   19.9331   56.8634   25.2556 N   0  0  0  0  0  0  0  0  0  0  0  0
   20.7589   58.3829   26.7938 N   0  0  0  0  0  0  0  0  0  0  0  0
   19.4419   56.6620   24.4265 H   0  0  0  0  0  0  0  0  0  0  0  0
   20.3152   56.1312   25.7916 H   0  0  0  0  0  0  0  0  0  0  0  0
   20.8839   59.3063   27.1115 H   0  0  0  0  0  0  0  0  0  0  0  0
 35 36  1  0  0  0
 35 29  1  0  0  0
 35 37  1  0  0  0
 29 30  2  0  0  0
 29 34  1  0  0  0
 30 31  1  0  0  0
 31 38  1  0  0  0
 31 32  2  0  0  0
 38 39  1  0  0  0
 38 40  1  0  0  0
 32 26  1  0  0  0
 32 33  1  0  0  0
 26 24  1  0  0  0
 26 27  2  0  0  0
 26 28  2  0  0  0
 24  1  1  0  0  0
  1 44  1  0  0  0
  1  2  1  0  0  0
 44 45  1  0  0  0
 45 46  2  0  0  0
 45 50  1  0  0  0
 46 47  1  0  0  0
 47 51  1  0  0  0
 47 48  2  0  0  0
 51 52  1  0  0  0
 51 53  2  0  0  0
 48 49  1  0  0  0
 49 50  2  0  0  0
  2  3  1  0  0  0
  2 11  2  0  0  0
  3  4  1  0  0  0
  3 10  1  0  0  0
  4  5  1  0  0  0
  5  6  1  0  0  0
  6  7  1  0  0  0
  6  9  1  0  0  0
  7 12  1  0  0  0
  7  8  2  0  0  0
 12 13  1  0  0  0
 12 17  1  0  0  0
 13 14  1  0  0  0
 14 15  1  0  0  0
 15 18  1  0  0  0
 15 16  1  0  0  0
 18 19  1  0  0  0
 18 20  2  0  0  0
 16 17  1  0  0  0
  9 10  1  0  0  0
 33 41  1  0  0  0
 33 34  2  0  0  0
 41 42  1  0  0  0
 41 43  1  0  0  0
 24 25  1  0  0  0
 52 54  1  0  0  0
 52 55  1  0  0  0
 53 56  1  0  0  0
 19 21  1  0  0  0
 19 22  1  0  0  0
 20 23  1  0  0  0
M  END
> <minimizedAffinity>
-9.59122

$$$$
2GV7_672_A_245


 56 59  0  0  0  0  0  0  0  0999 V2000
   18.0535   63.5216   25.9199 C   0  0  0  0  0  0  0  0  0  0  0  0
   16.7293   62.9077   25.5377 C   0  0  0  0  0  0  0  0  0  0  0  0
   15.8872   63.4991   24.4244 N   0  0  0  0  0  0  0  0  0  0  0  0
   16.4101   64.6655   23.7465 C   0  0  0  0  0  0  0  0  0  0  0  0
   15.2583   65.6805   23.4699 C   0  0  0  0  0  0  0  0  0  0  0  0
   13.9626   65.0061   23.4990 N   0  0  0  0  0  0  0  0  0  0  0  0
   12.9175   65.5175   22.5849 C   0  0  0  0  0  0  0  0  0  0  0  0
   11.8281   64.9505   22.5298 O   0  0  0  0  0  0  0  0  0  0  0  0
   13.5411   63.8670   24.3078 C   0  0  0  0  0  0  0  0  0  0  0  0
   14.6330   62.8057   24.2007 C   0  0  0  0  0  0  0  0  0  0  0  0
   16.3329   61.9102   26.1514 O   0  0  0  0  0  0  0  0  0  0  0  0
   13.1885   66.7401   21.7398 C   0  0  0  0  0  0  0  0  0  0  0  0
   14.0327   66.2822   20.5083 C   0  0  0  0  0  0  0  0  0  0  0  0
   14.2718   67.4457   19.5271 C   0  0  0  0  0  0  0  0  0  0  0  0
   12.8882   68.0324   19.1592 N   0  0  0  0  0  0  0  0  0  0  0  0
   12.0505   68.5804   20.3011 C   0  0  0  0  0  0  0  0  0  0  0  0
   11.8227   67.4214   21.3095 C   0  0  0  0  0  0  0  0  0  0  0  0
   12.4229   68.0082   17.8795 C   0  0  0  0  0  0  0  0  0  0  0  0
   13.2803   68.0478   16.8424 N   0  0  0  0  0  0  0  0  0  0  0  0
   11.0970   67.9220   17.6204 N   0  0  0  0  0  0  0  0  0  0  0  0
   14.2490   68.1104   17.0067 H   0  0  0  0  0  0  0  0  0  0  0  0
   12.9387   68.0141   15.9197 H   0  0  0  0  0  0  0  0  0  0  0  0
   10.4513   67.8917   18.3629 H   0  0  0  0  0  0  0  0  0  0  0  0
   18.3188   63.2214   27.3329 N   0  0  0  0  0  0  0  0  0  0  0  0
   17.6881   62.4683   27.6074 H   0  0  0  0  0  0  0  0  0  0  0  0
   18.1329   64.4443   28.4301 S   0  0  0  0  0  0  0  0  0  0  0  0
   17.9474   63.8192   29.7295 O   0  0  0  0  0  0  0  0  0  0  0  0
   19.2638   65.3419   28.2885 O   0  0  0  0  0  0  0  0  0  0  0  0
   14.1150   66.5966   27.1260 C   0  0  0  0  0  0  0  0  0  0  0  0
   14.0893   65.3940   27.8597 C   0  0  0  0  0  0  0  0  0  0  0  0
   15.2879   64.7246   28.2624 C   0  0  0  0  0  0  0  0  0  0  0  0
   16.5775   65.2841   27.9210 C   0  0  0  0  0  0  0  0  0  0  0  0
   16.6023   66.5350   27.1582 C   0  0  0  0  0  0  0  0  0  0  0  0
   15.3711   67.1600   26.7817 C   0  0  0  0  0  0  0  0  0  0  0  0
   12.7753   67.2509   26.7291 C   0  0  0  0  0  0  0  0  0  0  0  0
   12.8887   68.0207   25.3926 C   0  0  0  0  0  0  0  0  0  0  0  0
   11.6664   66.1903   26.5967 C   0  0  0  0  0  0  0  0  0  0  0  0
   15.1648   63.4166   29.0679 C   0  0  0  0  0  0  0  0  0  0  0  0
   14.1833   62.3973   28.4328 C   0  0  0  0  0  0  0  0  0  0  0  0
   14.7251   63.7530   30.5200 C   0  0  0  0  0  0  0  0  0  0  0  0
   17.9204   67.2285   26.7376 C   0  0  0  0  0  0  0  0  0  0  0  0
   18.2211   68.4422   27.6525 C   0  0  0  0  0  0  0  0  0  0  0  0
   17.8686   67.7115   25.2652 C   0  0  0  0  0  0  0  0  0  0  0  0
   19.2501   63.0556   25.0330 C   0  0  0  0  0  0  0  0  0  0  0  0
   19.1356   61.6056   24.5283 C   0  0  0  0  0  0  0  0  0  0  0  0
   19.6649   60.5450   25.3304 C   0  0  0  0  0  0  0  0  0  0  0  0
   19.5594   59.1961   24.8942 C   0  0  0  0  0  0  0  0  0  0  0  0
   18.9114   58.9242   23.6435 C   0  0  0  0  0  0  0  0  0  0  0  0
   18.3889   59.9716   22.8419 C   0  0  0  0  0  0  0  0  0  0  0  0
   18.4991   61.3111   23.2727 C   0  0  0  0  0  0  0  0  0  0  0  0
   20.0906   58.1387   25.6766 C   0  0  0  0  0  0  0  0  0  0  0  0
   20.7567   58.3947   26.8309 N   0  0  0  0  0  0  0  0  0  0  0  0
   19.9243   56.8598   25.3117 N   0  0  0  0  0  0  0  0  0  0  0  0
   20.8940   59.3245   27.1242 H   0  0  0  0  0  0  0  0  0  0  0  0
   21.1027   57.6508   27.3750 H   0  0  0  0  0  0  0  0  0  0  0  0
   19.4451   56.6438   24.4793 H   0  0  0  0  0  0  0  0  0  0  0  0
 35 36  1  0  0  0
 35 29  1  0  0  0
 35 37  1  0  0  0
 29 30  2  0  0  0
 29 34  1  0  0  0
 30 31  1  0  0  0
 31 38  1  0  0  0
 31 32  2  0  0  0
 38 39  1  0  0  0
 38 40  1  0  0  0
 32 26  1  0  0  0
 32 33  1  0  0  0
 26 24  1  0  0  0
 26 27  2  0  0  0
 26 28  2  0  0  0
 24  1  1  0  0  0
  1 44  1  0  0  0
  1  2  1  0  0  0
 44 45  1  0  0  0
 45 46  2  0  0  0
 45 50  1  0  0  0
 46 47  1  0  0  0
 47 51  1  0  0  0
 47 48  2  0  0  0
 51 52  1  0  0  0
 51 53  2  0  0  0
 48 49  1  0  0  0
 49 50  2  0  0  0
  2  3  1  0  0  0
  2 11  2  0  0  0
  3  4  1  0  0  0
  3 10  1  0  0  0
  4  5  1  0  0  0
  5  6  1  0  0  0
  6  7  1  0  0  0
  6  9  1  0  0  0
  7 12  1  0  0  0
  7  8  2  0  0  0
 12 13  1  0  0  0
 12 17  1  0  0  0
 13 14  1  0  0  0
 14 15  1  0  0  0
 15 18  1  0  0  0
 15 16  1  0  0  0
 18 19  1  0  0  0
 18 20  2  0  0  0
 16 17  1  0  0  0
  9 10  1  0  0  0
 33 41  1  0  0  0
 33 34  2  0  0  0
 41 42  1  0  0  0
 41 43  1  0  0  0
 24 25  1  0  0  0
 52 54  1  0  0  0
 52 55  1  0  0  0
 53 56  1  0  0  0
 19 21  1  0  0  0
 19 22  1  0  0  0
 20 23  1  0  0  0
M  END
> <minimizedAffinity>
-9.55169

$$$$
2GV7_672_A_245


 56 59  0  0  0  0  0  0  0  0999 V2000
   17.4894   63.4158   24.6814 C   0  0  0  0  0  0  0  0  0  0  0  0
   17.5354   63.9648   26.0860 C   0  0  0  0  0  0  0  0  0  0  0  0
   16.4955   63.5657   27.1145 N   0  0  0  0  0  0  0  0  0  0  0  0
   15.4692   62.6369   26.6928 C   0  0  0  0  0  0  0  0  0  0  0  0
   14.0917   63.0598   27.2902 C   0  0  0  0  0  0  0  0  0  0  0  0
   14.2807   63.9193   28.4565 N   0  0  0  0  0  0  0  0  0  0  0  0
   13.2834   63.8066   29.5437 C   0  0  0  0  0  0  0  0  0  0  0  0
   13.4272   64.4665   30.5709 O   0  0  0  0  0  0  0  0  0  0  0  0
   15.3406   64.8872   28.7185 C   0  0  0  0  0  0  0  0  0  0  0  0
   16.6684   64.2018   28.4065 C   0  0  0  0  0  0  0  0  0  0  0  0
   18.4366   64.7546   26.3904 O   0  0  0  0  0  0  0  0  0  0  0  0
   12.0886   62.8969   29.3786 C   0  0  0  0  0  0  0  0  0  0  0  0
   12.2628   61.7071   30.3751 C   0  0  0  0  0  0  0  0  0  0  0  0
   11.0365   60.7746   30.3567 C   0  0  0  0  0  0  0  0  0  0  0  0
    9.7880   61.6468   30.6292 N   0  0  0  0  0  0  0  0  0  0  0  0
    9.5070   62.7683   29.6446 C   0  0  0  0  0  0  0  0  0  0  0  0
   10.7475   63.7027   29.6369 C   0  0  0  0  0  0  0  0  0  0  0  0
    9.0101   61.4510   31.7299 C   0  0  0  0  0  0  0  0  0  0  0  0
    9.5238   61.6113   32.9639 N   0  0  0  0  0  0  0  0  0  0  0  0
    7.7043   61.1143   31.6109 N   0  0  0  0  0  0  0  0  0  0  0  0
   10.4709   61.8561   33.0748 H   0  0  0  0  0  0  0  0  0  0  0  0
    8.9524   61.4837   33.7553 H   0  0  0  0  0  0  0  0  0  0  0  0
    7.3069   60.9918   30.7186 H   0  0  0  0  0  0  0  0  0  0  0  0
   17.1080   64.4998   23.7668 N   0  0  0  0  0  0  0  0  0  0  0  0
   16.5039   65.1370   24.2857 H   0  0  0  0  0  0  0  0  0  0  0  0
   16.3143   64.0921   22.3748 S   0  0  0  0  0  0  0  0  0  0  0  0
   17.3224   63.9792   21.3332 O   0  0  0  0  0  0  0  0  0  0  0  0
   15.5180   62.9108   22.6489 O   0  0  0  0  0  0  0  0  0  0  0  0
   13.5164   67.8097   21.4648 C   0  0  0  0  0  0  0  0  0  0  0  0
   14.3189   67.2408   20.4560 C   0  0  0  0  0  0  0  0  0  0  0  0
   15.1729   66.1208   20.7067 C   0  0  0  0  0  0  0  0  0  0  0  0
   15.2268   65.5346   22.0281 C   0  0  0  0  0  0  0  0  0  0  0  0
   14.3914   66.1274   23.0759 C   0  0  0  0  0  0  0  0  0  0  0  0
   13.5567   67.2482   22.7675 C   0  0  0  0  0  0  0  0  0  0  0  0
   12.6266   69.0189   21.1096 C   0  0  0  0  0  0  0  0  0  0  0  0
   13.0737   69.6898   19.7898 C   0  0  0  0  0  0  0  0  0  0  0  0
   11.1528   68.5927   20.9735 C   0  0  0  0  0  0  0  0  0  0  0  0
   16.0114   65.5597   19.5416 C   0  0  0  0  0  0  0  0  0  0  0  0
   17.1265   66.5285   19.0687 C   0  0  0  0  0  0  0  0  0  0  0  0
   15.0671   65.2086   18.3583 C   0  0  0  0  0  0  0  0  0  0  0  0
   14.3635   65.5857   24.5254 C   0  0  0  0  0  0  0  0  0  0  0  0
   12.9193   65.2179   24.9489 C   0  0  0  0  0  0  0  0  0  0  0  0
   14.9340   66.6169   25.5329 C   0  0  0  0  0  0  0  0  0  0  0  0
   18.8234   62.7555   24.2127 C   0  0  0  0  0  0  0  0  0  0  0  0
   18.7412   61.2298   24.0233 C   0  0  0  0  0  0  0  0  0  0  0  0
   19.4693   60.3772   24.9130 C   0  0  0  0  0  0  0  0  0  0  0  0
   19.3990   58.9647   24.7688 C   0  0  0  0  0  0  0  0  0  0  0  0
   18.5845   58.4177   23.7222 C   0  0  0  0  0  0  0  0  0  0  0  0
   17.8642   59.2578   22.8345 C   0  0  0  0  0  0  0  0  0  0  0  0
   17.9390   60.6602   22.9744 C   0  0  0  0  0  0  0  0  0  0  0  0
   20.1256   58.1113   25.6385 C   0  0  0  0  0  0  0  0  0  0  0  0
   20.8633   58.6216   26.6568 N   0  0  0  0  0  0  0  0  0  0  0  0
   20.0800   56.7796   25.4949 N   0  0  0  0  0  0  0  0  0  0  0  0
   20.9154   59.5961   26.7869 H   0  0  0  0  0  0  0  0  0  0  0  0
   21.3465   58.0172   27.2656 H   0  0  0  0  0  0  0  0  0  0  0  0
   19.5529   56.3809   24.7651 H   0  0  0  0  0  0  0  0  0  0  0  0
 35 36  1  0  0  0
 35 29  1  0  0  0
 35 37  1  0  0  0
 29 30  2  0  0  0
 29 34  1  0  0  0
 30 31  1  0  0  0
 31 38  1  0  0  0
 31 32  2  0  0  0
 38 39  1  0  0  0
 38 40  1  0  0  0
 32 26  1  0  0  0
 32 33  1  0  0  0
 26 24  1  0  0  0
 26 27  2  0  0  0
 26 28  2  0  0  0
 24  1  1  0  0  0
  1 44  1  0  0  0
  1  2  1  0  0  0
 44 45  1  0  0  0
 45 46  2  0  0  0
 45 50  1  0  0  0
 46 47  1  0  0  0
 47 51  1  0  0  0
 47 48  2  0  0  0
 51 52  1  0  0  0
 51 53  2  0  0  0
 48 49  1  0  0  0
 49 50  2  0  0  0
  2  3  1  0  0  0
  2 11  2  0  0  0
  3  4  1  0  0  0
  3 10  1  0  0  0
  4  5  1  0  0  0
  5  6  1  0  0  0
  6  7  1  0  0  0
  6  9  1  0  0  0
  7 12  1  0  0  0
  7  8  2  0  0  0
 12 13  1  0  0  0
 12 17  1  0  0  0
 13 14  1  0  0  0
 14 15  1  0  0  0
 15 18  1  0  0  0
 15 16  1  0  0  0
 18 19  1  0  0  0
 18 20  2  0  0  0
 16 17  1  0  0  0
  9 10  1  0  0  0
 33 41  1  0  0  0
 33 34  2  0  0  0
 41 42  1  0  0  0
 41 43  1  0  0  0
 24 25  1  0  0  0
 52 54  1  0  0  0
 52 55  1  0  0  0
 53 56  1  0  0  0
 19 21  1  0  0  0
 19 22  1  0  0  0
 20 23  1  0  0  0
M  END
> <minimizedAffinity>
-9.50803

$$$$
2GV7_672_A_245


 56 59  0  0  0  0  0  0  0  0999 V2000
   17.4203   63.6036   24.6858 C   0  0  0  0  0  0  0  0  0  0  0  0
   17.2665   64.2358   26.0472 C   0  0  0  0  0  0  0  0  0  0  0  0
   16.2902   63.6749   27.0624 N   0  0  0  0  0  0  0  0  0  0  0  0
   15.5238   62.5115   26.6717 C   0  0  0  0  0  0  0  0  0  0  0  0
   14.0567   62.6447   27.1845 C   0  0  0  0  0  0  0  0  0  0  0  0
   13.9846   63.5962   28.2909 N   0  0  0  0  0  0  0  0  0  0  0  0
   12.9821   63.3270   29.3453 C   0  0  0  0  0  0  0  0  0  0  0  0
   12.9185   64.0656   30.3260 O   0  0  0  0  0  0  0  0  0  0  0  0
   14.7834   64.7955   28.5208 C   0  0  0  0  0  0  0  0  0  0  0  0
   16.2462   64.4136   28.3099 C   0  0  0  0  0  0  0  0  0  0  0  0
   17.9488   65.2284   26.3264 O   0  0  0  0  0  0  0  0  0  0  0  0
   12.0338   62.1596   29.2026 C   0  0  0  0  0  0  0  0  0  0  0  0
   11.9530   61.4477   30.5903 C   0  0  0  0  0  0  0  0  0  0  0  0
   10.9241   60.3011   30.5745 C   0  0  0  0  0  0  0  0  0  0  0  0
    9.5789   60.8933   30.0912 N   0  0  0  0  0  0  0  0  0  0  0  0
    9.5638   61.5216   28.7089 C   0  0  0  0  0  0  0  0  0  0  0  0
   10.6152   62.6647   28.7054 C   0  0  0  0  0  0  0  0  0  0  0  0
    8.4760   60.8984   30.8903 C   0  0  0  0  0  0  0  0  0  0  0  0
    7.6687   59.8225   30.9435 N   0  0  0  0  0  0  0  0  0  0  0  0
    8.1784   61.9699   31.6623 N   0  0  0  0  0  0  0  0  0  0  0  0
    7.8654   59.0317   30.3909 H   0  0  0  0  0  0  0  0  0  0  0  0
    6.8817   59.8263   31.5349 H   0  0  0  0  0  0  0  0  0  0  0  0
    8.7544   62.7679   31.6399 H   0  0  0  0  0  0  0  0  0  0  0  0
   17.1693   64.6271   23.6628 N   0  0  0  0  0  0  0  0  0  0  0  0
   16.7627   65.4350   24.1343 H   0  0  0  0  0  0  0  0  0  0  0  0
   16.1682   64.2341   22.4069 S   0  0  0  0  0  0  0  0  0  0  0  0
   17.0200   63.9423   21.2653 O   0  0  0  0  0  0  0  0  0  0  0  0
   15.2878   63.1729   22.8579 O   0  0  0  0  0  0  0  0  0  0  0  0
   13.6951   68.1968   21.5962 C   0  0  0  0  0  0  0  0  0  0  0  0
   13.7061   67.5958   22.8705 C   0  0  0  0  0  0  0  0  0  0  0  0
   14.4424   66.3989   23.1390 C   0  0  0  0  0  0  0  0  0  0  0  0
   15.2106   65.7715   22.0859 C   0  0  0  0  0  0  0  0  0  0  0  0
   15.1982   66.3981   20.7614 C   0  0  0  0  0  0  0  0  0  0  0  0
   14.4425   67.5951   20.5507 C   0  0  0  0  0  0  0  0  0  0  0  0
   12.8714   69.4852   21.3920 C   0  0  0  0  0  0  0  0  0  0  0  0
   12.8569   69.9259   19.9097 C   0  0  0  0  0  0  0  0  0  0  0  0
   11.4186   69.2864   21.8634 C   0  0  0  0  0  0  0  0  0  0  0  0
   14.4019   65.8145   24.5645 C   0  0  0  0  0  0  0  0  0  0  0  0
   13.0074   65.2626   24.9598 C   0  0  0  0  0  0  0  0  0  0  0  0
   14.8542   66.9056   25.5745 C   0  0  0  0  0  0  0  0  0  0  0  0
   15.9824   65.8202   19.5588 C   0  0  0  0  0  0  0  0  0  0  0  0
   17.0375   66.8343   19.0500 C   0  0  0  0  0  0  0  0  0  0  0  0
   15.0392   65.4474   18.3862 C   0  0  0  0  0  0  0  0  0  0  0  0
   18.8086   62.9310   24.4503 C   0  0  0  0  0  0  0  0  0  0  0  0
   18.7379   61.4212   24.1571 C   0  0  0  0  0  0  0  0  0  0  0  0
   19.4407   60.5123   25.0106 C   0  0  0  0  0  0  0  0  0  0  0  0
   19.3801   59.1124   24.7704 C   0  0  0  0  0  0  0  0  0  0  0  0
   18.6010   58.6353   23.6644 C   0  0  0  0  0  0  0  0  0  0  0  0
   17.9059   59.5316   22.8123 C   0  0  0  0  0  0  0  0  0  0  0  0
   17.9712   60.9217   23.0476 C   0  0  0  0  0  0  0  0  0  0  0  0
   20.0821   58.2040   25.6039 C   0  0  0  0  0  0  0  0  0  0  0  0
   20.0753   56.8726   25.3418 N   0  0  0  0  0  0  0  0  0  0  0  0
   20.7924   58.6392   26.6538 N   0  0  0  0  0  0  0  0  0  0  0  0
   19.5625   56.5240   24.5771 H   0  0  0  0  0  0  0  0  0  0  0  0
   20.5833   56.2552   25.9162 H   0  0  0  0  0  0  0  0  0  0  0  0
   20.8158   59.5998   26.8682 H   0  0  0  0  0  0  0  0  0  0  0  0
 35 36  1  0  0  0
 35 29  1  0  0  0
 35 37  1  0  0  0
 29 30  2  0  0  0
 29 34  1  0  0  0
 30 31  1  0  0  0
 31 38  1  0  0  0
 31 32  2  0  0  0
 38 39  1  0  0  0
 38 40  1  0  0  0
 32 26  1  0  0  0
 32 33  1  0  0  0
 26 24  1  0  0  0
 26 27  2  0  0  0
 26 28  2  0  0  0
 24  1  1  0  0  0
  1 44  1  0  0  0
  1  2  1  0  0  0
 44 45  1  0  0  0
 45 46  2  0  0  0
 45 50  1  0  0  0
 46 47  1  0  0  0
 47 51  1  0  0  0
 47 48  2  0  0  0
 51 52  1  0  0  0
 51 53  2  0  0  0
 48 49  1  0  0  0
 49 50  2  0  0  0
  2  3  1  0  0  0
  2 11  2  0  0  0
  3  4  1  0  0  0
  3 10  1  0  0  0
  4  5  1  0  0  0
  5  6  1  0  0  0
  6  7  1  0  0  0
  6  9  1  0  0  0
  7 12  1  0  0  0
  7  8  2  0  0  0
 12 13  1  0  0  0
 12 17  1  0  0  0
 13 14  1  0  0  0
 14 15  1  0  0  0
 15 18  1  0  0  0
 15 16  1  0  0  0
 18 19  1  0  0  0
 18 20  2  0  0  0
 16 17  1  0  0  0
  9 10  1  0  0  0
 33 41  1  0  0  0
 33 34  2  0  0  0
 41 42  1  0  0  0
 41 43  1  0  0  0
 24 25  1  0  0  0
 52 54  1  0  0  0
 52 55  1  0  0  0
 53 56  1  0  0  0
 19 21  1  0  0  0
 19 22  1  0  0  0
 20 23  1  0  0  0
M  END
> <minimizedAffinity>
-9.43159

$$$$
2GV7_672_A_245


 56 59  0  0  0  0  0  0  0  0999 V2000
   17.5456   64.5171   27.4062 C   0  0  0  0  0  0  0  0  0  0  0  0
   17.9021   63.8057   26.1242 C   0  0  0  0  0  0  0  0  0  0  0  0
   17.5696   64.4136   24.7758 N   0  0  0  0  0  0  0  0  0  0  0  0
   16.9063   65.6995   24.7744 C   0  0  0  0  0  0  0  0  0  0  0  0
   15.8092   65.7303   23.6659 C   0  0  0  0  0  0  0  0  0  0  0  0
   16.0759   64.7127   22.6520 N   0  0  0  0  0  0  0  0  0  0  0  0
   15.6907   65.0332   21.2598 C   0  0  0  0  0  0  0  0  0  0  0  0
   15.9441   64.2347   20.3602 O   0  0  0  0  0  0  0  0  0  0  0  0
   16.6922   63.3999   22.8123 C   0  0  0  0  0  0  0  0  0  0  0  0
   17.9567   63.5909   23.6457 C   0  0  0  0  0  0  0  0  0  0  0  0
   18.4697   62.7090   26.1865 O   0  0  0  0  0  0  0  0  0  0  0  0
   14.9750   66.3284   20.9555 C   0  0  0  0  0  0  0  0  0  0  0  0
   15.6097   66.9222   19.6579 C   0  0  0  0  0  0  0  0  0  0  0  0
   14.8729   68.1971   19.2047 C   0  0  0  0  0  0  0  0  0  0  0  0
   13.3737   67.8405   19.0662 N   0  0  0  0  0  0  0  0  0  0  0  0
   12.6695   67.3419   20.3157 C   0  0  0  0  0  0  0  0  0  0  0  0
   13.4187   66.0691   20.7961 C   0  0  0  0  0  0  0  0  0  0  0  0
   12.7318   67.9188   17.8676 C   0  0  0  0  0  0  0  0  0  0  0  0
   13.4348   68.0258   16.7245 N   0  0  0  0  0  0  0  0  0  0  0  0
   11.3810   67.8693   17.7946 N   0  0  0  0  0  0  0  0  0  0  0  0
   14.4181   68.0635   16.7530 H   0  0  0  0  0  0  0  0  0  0  0  0
   12.9655   68.0662   15.8600 H   0  0  0  0  0  0  0  0  0  0  0  0
   10.8461   67.7912   18.6175 H   0  0  0  0  0  0  0  0  0  0  0  0
   16.6167   63.6725   28.1682 N   0  0  0  0  0  0  0  0  0  0  0  0
   16.1272   63.0784   27.4990 H   0  0  0  0  0  0  0  0  0  0  0  0
   15.4693   64.4245   29.0910 S   0  0  0  0  0  0  0  0  0  0  0  0
   15.9743   64.4476   30.4542 O   0  0  0  0  0  0  0  0  0  0  0  0
   15.1775   65.7061   28.4770 O   0  0  0  0  0  0  0  0  0  0  0  0
   11.6924   61.5714   28.8234 C   0  0  0  0  0  0  0  0  0  0  0  0
   12.1638   62.2603   27.6883 C   0  0  0  0  0  0  0  0  0  0  0  0
   13.2995   63.1286   27.7445 C   0  0  0  0  0  0  0  0  0  0  0  0
   14.0043   63.3163   28.9937 C   0  0  0  0  0  0  0  0  0  0  0  0
   13.5129   62.5988   30.1731 C   0  0  0  0  0  0  0  0  0  0  0  0
   12.3711   61.7438   30.0577 C   0  0  0  0  0  0  0  0  0  0  0  0
   10.4584   60.6573   28.6755 C   0  0  0  0  0  0  0  0  0  0  0  0
   10.2242   59.8033   29.9435 C   0  0  0  0  0  0  0  0  0  0  0  0
    9.1919   61.4884   28.3977 C   0  0  0  0  0  0  0  0  0  0  0  0
   13.7485   63.8371   26.4516 C   0  0  0  0  0  0  0  0  0  0  0  0
   12.6636   64.7739   25.8593 C   0  0  0  0  0  0  0  0  0  0  0  0
   14.1653   62.7676   25.4040 C   0  0  0  0  0  0  0  0  0  0  0  0
   14.1856   62.7189   31.5617 C   0  0  0  0  0  0  0  0  0  0  0  0
   14.3803   61.3218   32.2027 C   0  0  0  0  0  0  0  0  0  0  0  0
   13.3527   63.6014   32.5268 C   0  0  0  0  0  0  0  0  0  0  0  0
   18.7773   64.8982   28.2856 C   0  0  0  0  0  0  0  0  0  0  0  0
   19.6377   66.0371   27.7087 C   0  0  0  0  0  0  0  0  0  0  0  0
   20.9116   65.7258   27.1352 C   0  0  0  0  0  0  0  0  0  0  0  0
   21.7194   66.7569   26.5826 C   0  0  0  0  0  0  0  0  0  0  0  0
   21.2303   68.1053   26.6089 C   0  0  0  0  0  0  0  0  0  0  0  0
   19.9704   68.4206   27.1800 C   0  0  0  0  0  0  0  0  0  0  0  0
   19.1715   67.3974   27.7337 C   0  0  0  0  0  0  0  0  0  0  0  0
   22.9883   66.4603   26.0220 C   0  0  0  0  0  0  0  0  0  0  0  0
   23.2679   65.2179   25.5530 N   0  0  0  0  0  0  0  0  0  0  0  0
   23.9329   67.4050   25.9151 N   0  0  0  0  0  0  0  0  0  0  0  0
   22.5932   64.5039   25.6180 H   0  0  0  0  0  0  0  0  0  0  0  0
   24.1453   65.0307   25.1477 H   0  0  0  0  0  0  0  0  0  0  0  0
   23.7583   68.3154   26.2466 H   0  0  0  0  0  0  0  0  0  0  0  0
 35 36  1  0  0  0
 35 29  1  0  0  0
 35 37  1  0  0  0
 29 30  2  0  0  0
 29 34  1  0  0  0
 30 31  1  0  0  0
 31 38  1  0  0  0
 31 32  2  0  0  0
 38 39  1  0  0  0
 38 40  1  0  0  0
 32 26  1  0  0  0
 32 33  1  0  0  0
 26 24  1  0  0  0
 26 27  2  0  0  0
 26 28  2  0  0  0
 24  1  1  0  0  0
  1 44  1  0  0  0
  1  2  1  0  0  0
 44 45  1  0  0  0
 45 46  2  0  0  0
 45 50  1  0  0  0
 46 47  1  0  0  0
 47 51  1  0  0  0
 47 48  2  0  0  0
 51 52  1  0  0  0
 51 53  2  0  0  0
 48 49  1  0  0  0
 49 50  2  0  0  0
  2  3  1  0  0  0
  2 11  2  0  0  0
  3  4  1  0  0  0
  3 10  1  0  0  0
  4  5  1  0  0  0
  5  6  1  0  0  0
  6  7  1  0  0  0
  6  9  1  0  0  0
  7 12  1  0  0  0
  7  8  2  0  0  0
 12 13  1  0  0  0
 12 17  1  0  0  0
 13 14  1  0  0  0
 14 15  1  0  0  0
 15 18  1  0  0  0
 15 16  1  0  0  0
 18 19  1  0  0  0
 18 20  2  0  0  0
 16 17  1  0  0  0
  9 10  1  0  0  0
 33 41  1  0  0  0
 33 34  2  0  0  0
 41 42  1  0  0  0
 41 43  1  0  0  0
 24 25  1  0  0  0
 52 54  1  0  0  0
 52 55  1  0  0  0
 53 56  1  0  0  0
 19 21  1  0  0  0
 19 22  1  0  0  0
 20 23  1  0  0  0
M  END
> <minimizedAffinity>
-9.16897

$$$$
2GV7_672_A_245


 56 59  0  0  0  0  0  0  0  0999 V2000
   17.6546   64.2215   27.3719 C   0  0  0  0  0  0  0  0  0  0  0  0
   18.0003   63.5860   26.0478 C   0  0  0  0  0  0  0  0  0  0  0  0
   17.6432   64.2641   24.7398 N   0  0  0  0  0  0  0  0  0  0  0  0
   16.9672   65.5409   24.8185 C   0  0  0  0  0  0  0  0  0  0  0  0
   15.8546   65.6214   23.7281 C   0  0  0  0  0  0  0  0  0  0  0  0
   16.1173   64.6644   22.6559 N   0  0  0  0  0  0  0  0  0  0  0  0
   15.7097   65.0574   21.2888 C   0  0  0  0  0  0  0  0  0  0  0  0
   15.9586   64.3127   20.3429 O   0  0  0  0  0  0  0  0  0  0  0  0
   16.7488   63.3513   22.7348 C   0  0  0  0  0  0  0  0  0  0  0  0
   18.0228   63.5094   23.5607 C   0  0  0  0  0  0  0  0  0  0  0  0
   18.5796   62.4937   26.0416 O   0  0  0  0  0  0  0  0  0  0  0  0
   14.9770   66.3597   21.0664 C   0  0  0  0  0  0  0  0  0  0  0  0
   15.5127   66.9788   19.7364 C   0  0  0  0  0  0  0  0  0  0  0  0
   14.7475   68.2640   19.3667 C   0  0  0  0  0  0  0  0  0  0  0  0
   13.2410   67.9128   19.3361 N   0  0  0  0  0  0  0  0  0  0  0  0
   12.6327   67.3900   20.6255 C   0  0  0  0  0  0  0  0  0  0  0  0
   13.4123   66.1064   21.0213 C   0  0  0  0  0  0  0  0  0  0  0  0
   12.5096   68.0167   18.1919 C   0  0  0  0  0  0  0  0  0  0  0  0
   13.1226   68.0724   16.9947 N   0  0  0  0  0  0  0  0  0  0  0  0
   11.1567   68.0442   18.2283 N   0  0  0  0  0  0  0  0  0  0  0  0
   14.1057   68.0538   16.9437 H   0  0  0  0  0  0  0  0  0  0  0  0
   12.5880   68.1317   16.1701 H   0  0  0  0  0  0  0  0  0  0  0  0
   10.6866   68.0046   19.0925 H   0  0  0  0  0  0  0  0  0  0  0  0
   16.6811   63.3657   28.0625 N   0  0  0  0  0  0  0  0  0  0  0  0
   16.1291   62.8938   27.3462 H   0  0  0  0  0  0  0  0  0  0  0  0
   15.6209   64.0882   29.1054 S   0  0  0  0  0  0  0  0  0  0  0  0
   16.1762   63.9388   30.4407 O   0  0  0  0  0  0  0  0  0  0  0  0
   15.3922   65.4421   28.6368 O   0  0  0  0  0  0  0  0  0  0  0  0
   11.6581   61.5102   28.7493 C   0  0  0  0  0  0  0  0  0  0  0  0
   12.3255   61.6491   29.9824 C   0  0  0  0  0  0  0  0  0  0  0  0
   13.5239   62.4193   30.1144 C   0  0  0  0  0  0  0  0  0  0  0  0
   14.0831   63.0892   28.9607 C   0  0  0  0  0  0  0  0  0  0  0  0
   13.3874   62.9440   27.6792 C   0  0  0  0  0  0  0  0  0  0  0  0
   12.1924   62.1599   27.6064 C   0  0  0  0  0  0  0  0  0  0  0  0
   10.3731   60.6582   28.6945 C   0  0  0  0  0  0  0  0  0  0  0  0
   10.1332   59.8992   30.0204 C   0  0  0  0  0  0  0  0  0  0  0  0
    9.1446   61.5389   28.3992 C   0  0  0  0  0  0  0  0  0  0  0  0
   14.1835   62.5213   31.5035 C   0  0  0  0  0  0  0  0  0  0  0  0
   14.2480   61.1639   32.2510 C   0  0  0  0  0  0  0  0  0  0  0  0
   13.4142   63.5683   32.3563 C   0  0  0  0  0  0  0  0  0  0  0  0
   13.8891   63.6150   26.3780 C   0  0  0  0  0  0  0  0  0  0  0  0
   12.8434   64.6231   25.8389 C   0  0  0  0  0  0  0  0  0  0  0  0
   14.1921   62.5689   25.2744 C   0  0  0  0  0  0  0  0  0  0  0  0
   18.8878   64.4895   28.2899 C   0  0  0  0  0  0  0  0  0  0  0  0
   19.6675   65.7709   27.9430 C   0  0  0  0  0  0  0  0  0  0  0  0
   20.7833   65.6872   27.0506 C   0  0  0  0  0  0  0  0  0  0  0  0
   21.5112   66.8578   26.7026 C   0  0  0  0  0  0  0  0  0  0  0  0
   21.1022   68.1153   27.2588 C   0  0  0  0  0  0  0  0  0  0  0  0
   19.9999   68.2038   28.1475 C   0  0  0  0  0  0  0  0  0  0  0  0
   19.2812   67.0406   28.4972 C   0  0  0  0  0  0  0  0  0  0  0  0
   22.6254   66.7838   25.8277 C   0  0  0  0  0  0  0  0  0  0  0  0
   23.0158   67.8649   25.1062 N   0  0  0  0  0  0  0  0  0  0  0  0
   23.3378   65.6544   25.7121 N   0  0  0  0  0  0  0  0  0  0  0  0
   22.5118   68.7081   25.1710 H   0  0  0  0  0  0  0  0  0  0  0  0
   23.8031   67.8060   24.5181 H   0  0  0  0  0  0  0  0  0  0  0  0
   23.0781   64.8542   26.2234 H   0  0  0  0  0  0  0  0  0  0  0  0
 35 36  1  0  0  0
 35 29  1  0  0  0
 35 37  1  0  0  0
 29 30  2  0  0  0
 29 34  1  0  0  0
 30 31  1  0  0  0
 31 38  1  0  0  0
 31 32  2  0  0  0
 38 39  1  0  0  0
 38 40  1  0  0  0
 32 26  1  0  0  0
 32 33  1  0  0  0
 26 24  1  0  0  0
 26 27  2  0  0  0
 26 28  2  0  0  0
 24  1  1  0  0  0
  1 44  1  0  0  0
  1  2  1  0  0  0
 44 45  1  0  0  0
 45 46  2  0  0  0
 45 50  1  0  0  0
 46 47  1  0  0  0
 47 51  1  0  0  0
 47 48  2  0  0  0
 51 52  1  0  0  0
 51 53  2  0  0  0
 48 49  1  0  0  0
 49 50  2  0  0  0
  2  3  1  0  0  0
  2 11  2  0  0  0
  3  4  1  0  0  0
  3 10  1  0  0  0
  4  5  1  0  0  0
  5  6  1  0  0  0
  6  7  1  0  0  0
  6  9  1  0  0  0
  7 12  1  0  0  0
  7  8  2  0  0  0
 12 13  1  0  0  0
 12 17  1  0  0  0
 13 14  1  0  0  0
 14 15  1  0  0  0
 15 18  1  0  0  0
 15 16  1  0  0  0
 18 19  1  0  0  0
 18 20  2  0  0  0
 16 17  1  0  0  0
  9 10  1  0  0  0
 33 41  1  0  0  0
 33 34  2  0  0  0
 41 42  1  0  0  0
 41 43  1  0  0  0
 24 25  1  0  0  0
 52 54  1  0  0  0
 52 55  1  0  0  0
 53 56  1  0  0  0
 19 21  1  0  0  0
 19 22  1  0  0  0
 20 23  1  0  0  0
M  END
> <minimizedAffinity>
-9.11460

$$$$
2GV7_672_A_245


 56 59  0  0  0  0  0  0  0  0999 V2000
   15.0864   66.0999   22.9925 C   0  0  0  0  0  0  0  0  0  0  0  0
   15.6843   64.8181   23.5182 C   0  0  0  0  0  0  0  0  0  0  0  0
   14.9357   63.9610   24.5198 N   0  0  0  0  0  0  0  0  0  0  0  0
   13.6299   64.4211   24.9402 C   0  0  0  0  0  0  0  0  0  0  0  0
   13.4474   64.1770   26.4700 C   0  0  0  0  0  0  0  0  0  0  0  0
   14.3720   63.1475   26.9389 N   0  0  0  0  0  0  0  0  0  0  0  0
   13.9029   62.2706   28.0344 C   0  0  0  0  0  0  0  0  0  0  0  0
   14.6202   61.3529   28.4276 O   0  0  0  0  0  0  0  0  0  0  0  0
   15.7181   62.8417   26.4661 C   0  0  0  0  0  0  0  0  0  0  0  0
   15.6602   62.7774   24.9421 C   0  0  0  0  0  0  0  0  0  0  0  0
   16.8039   64.4738   23.1225 O   0  0  0  0  0  0  0  0  0  0  0  0
   12.5564   62.5180   28.6732 C   0  0  0  0  0  0  0  0  0  0  0  0
   11.4894   61.7455   27.8342 C   0  0  0  0  0  0  0  0  0  0  0  0
   10.0903   61.8506   28.4709 C   0  0  0  0  0  0  0  0  0  0  0  0
   10.2110   61.3666   29.9355 N   0  0  0  0  0  0  0  0  0  0  0  0
   11.1657   62.1327   30.8341 C   0  0  0  0  0  0  0  0  0  0  0  0
   12.5765   62.0539   30.1894 C   0  0  0  0  0  0  0  0  0  0  0  0
    9.5338   60.2722   30.3810 C   0  0  0  0  0  0  0  0  0  0  0  0
    9.4193   59.1793   29.6034 N   0  0  0  0  0  0  0  0  0  0  0  0
    8.9816   60.2482   31.6168 N   0  0  0  0  0  0  0  0  0  0  0  0
    9.8128   59.1737   28.7010 H   0  0  0  0  0  0  0  0  0  0  0  0
    8.9419   58.3855   29.9371 H   0  0  0  0  0  0  0  0  0  0  0  0
    9.0528   61.0359   32.2031 H   0  0  0  0  0  0  0  0  0  0  0  0
   16.0783   67.1734   23.1367 N   0  0  0  0  0  0  0  0  0  0  0  0
   16.9618   66.7375   23.4011 H   0  0  0  0  0  0  0  0  0  0  0  0
   15.7690   68.3675   24.2376 S   0  0  0  0  0  0  0  0  0  0  0  0
   15.4567   67.7094   25.4958 O   0  0  0  0  0  0  0  0  0  0  0  0
   16.9001   69.2761   24.2346 O   0  0  0  0  0  0  0  0  0  0  0  0
   11.9051   70.5409   22.5573 C   0  0  0  0  0  0  0  0  0  0  0  0
   13.1270   70.5882   21.8572 C   0  0  0  0  0  0  0  0  0  0  0  0
   14.3069   69.9427   22.3450 C   0  0  0  0  0  0  0  0  0  0  0  0
   14.2664   69.2089   23.5910 C   0  0  0  0  0  0  0  0  0  0  0  0
   12.9948   69.1606   24.3176 C   0  0  0  0  0  0  0  0  0  0  0  0
   11.8467   69.8261   23.7818 C   0  0  0  0  0  0  0  0  0  0  0  0
   10.6816   71.2679   21.9617 C   0  0  0  0  0  0  0  0  0  0  0  0
    9.3572   70.5690   22.3480 C   0  0  0  0  0  0  0  0  0  0  0  0
   10.6274   72.7306   22.4408 C   0  0  0  0  0  0  0  0  0  0  0  0
   15.5984   70.0418   21.5099 C   0  0  0  0  0  0  0  0  0  0  0  0
   16.2815   71.4311   21.6028 C   0  0  0  0  0  0  0  0  0  0  0  0
   15.2739   69.7005   20.0289 C   0  0  0  0  0  0  0  0  0  0  0  0
   12.8294   68.4055   25.6583 C   0  0  0  0  0  0  0  0  0  0  0  0
   11.5576   67.5207   25.6395 C   0  0  0  0  0  0  0  0  0  0  0  0
   12.7423   69.3828   26.8588 C   0  0  0  0  0  0  0  0  0  0  0  0
   14.5936   66.0123   21.5144 C   0  0  0  0  0  0  0  0  0  0  0  0
   13.1605   66.5300   21.2941 C   0  0  0  0  0  0  0  0  0  0  0  0
   12.8641   67.2773   20.1100 C   0  0  0  0  0  0  0  0  0  0  0  0
   11.5456   67.7543   19.8755 C   0  0  0  0  0  0  0  0  0  0  0  0
   10.5261   67.4679   20.8433 C   0  0  0  0  0  0  0  0  0  0  0  0
   10.8148   66.7317   22.0211 C   0  0  0  0  0  0  0  0  0  0  0  0
   12.1253   66.2634   22.2562 C   0  0  0  0  0  0  0  0  0  0  0  0
   11.2441   68.5053   18.7104 C   0  0  0  0  0  0  0  0  0  0  0  0
   11.1401   69.8574   18.7623 N   0  0  0  0  0  0  0  0  0  0  0  0
   11.0823   67.9028   17.5242 N   0  0  0  0  0  0  0  0  0  0  0  0
   11.2543   70.3273   19.6199 H   0  0  0  0  0  0  0  0  0  0  0  0
   10.9506   70.3684   17.9424 H   0  0  0  0  0  0  0  0  0  0  0  0
   11.1521   66.9231   17.4561 H   0  0  0  0  0  0  0  0  0  0  0  0
 35 36  1  0  0  0
 35 29  1  0  0  0
 35 37  1  0  0  0
 29 30  2  0  0  0
 29 34  1  0  0  0
 30 31  1  0  0  0
 31 38  1  0  0  0
 31 32  2  0  0  0
 38 39  1  0  0  0
 38 40  1  0  0  0
 32 26  1  0  0  0
 32 33  1  0  0  0
 26 24  1  0  0  0
 26 27  2  0  0  0
 26 28  2  0  0  0
 24  1  1  0  0  0
  1 44  1  0  0  0
  1  2  1  0  0  0
 44 45  1  0  0  0
 45 46  2  0  0  0
 45 50  1  0  0  0
 46 47  1  0  0  0
 47 51  1  0  0  0
 47 48  2  0  0  0
 51 52  1  0  0  0
 51 53  2  0  0  0
 48 49  1  0  0  0
 49 50  2  0  0  0
  2  3  1  0  0  0
  2 11  2  0  0  0
  3  4  1  0  0  0
  3 10  1  0  0  0
  4  5  1  0  0  0
  5  6  1  0  0  0
  6  7  1  0  0  0
  6  9  1  0  0  0
  7 12  1  0  0  0
  7  8  2  0  0  0
 12 13  1  0  0  0
 12 17  1  0  0  0
 13 14  1  0  0  0
 14 15  1  0  0  0
 15 18  1  0  0  0
 15 16  1  0  0  0
 18 19  1  0  0  0
 18 20  2  0  0  0
 16 17  1  0  0  0
  9 10  1  0  0  0
 33 41  1  0  0  0
 33 34  2  0  0  0
 41 42  1  0  0  0
 41 43  1  0  0  0
 24 25  1  0  0  0
 52 54  1  0  0  0
 52 55  1  0  0  0
 53 56  1  0  0  0
 19 21  1  0  0  0
 19 22  1  0  0  0
 20 23  1  0  0  0
M  END
> <minimizedAffinity>
-8.70479

$$$$
2GV7_672_A_245


 56 59  0  0  0  0  0  0  0  0999 V2000
   15.1915   66.3535   21.1601 C   0  0  0  0  0  0  0  0  0  0  0  0
   15.7481   65.0169   21.5848 C   0  0  0  0  0  0  0  0  0  0  0  0
   15.1802   64.2796   22.7815 N   0  0  0  0  0  0  0  0  0  0  0  0
   14.0848   64.9078   23.4879 C   0  0  0  0  0  0  0  0  0  0  0  0
   14.2650   64.7174   25.0256 C   0  0  0  0  0  0  0  0  0  0  0  0
   15.1509   63.5890   25.3022 N   0  0  0  0  0  0  0  0  0  0  0  0
   14.8727   62.7987   26.5217 C   0  0  0  0  0  0  0  0  0  0  0  0
   15.5534   61.8057   26.7706 O   0  0  0  0  0  0  0  0  0  0  0  0
   16.2899   63.1077   24.5274 C   0  0  0  0  0  0  0  0  0  0  0  0
   15.8440   63.0226   23.0700 C   0  0  0  0  0  0  0  0  0  0  0  0
   16.6844   64.5274   20.9426 O   0  0  0  0  0  0  0  0  0  0  0  0
   13.7682   63.2252   27.4600 C   0  0  0  0  0  0  0  0  0  0  0  0
   12.4738   62.4581   27.0415 C   0  0  0  0  0  0  0  0  0  0  0  0
   11.3111   62.7478   28.0099 C   0  0  0  0  0  0  0  0  0  0  0  0
   11.8052   62.4168   29.4382 N   0  0  0  0  0  0  0  0  0  0  0  0
   13.0079   63.1935   29.9446 C   0  0  0  0  0  0  0  0  0  0  0  0
   14.1810   62.9280   28.9620 C   0  0  0  0  0  0  0  0  0  0  0  0
   11.2220   61.4374   30.1835 C   0  0  0  0  0  0  0  0  0  0  0  0
   11.1576   61.5488   31.5236 N   0  0  0  0  0  0  0  0  0  0  0  0
   10.6768   60.3456   29.5977 N   0  0  0  0  0  0  0  0  0  0  0  0
   11.5472   62.3341   31.9715 H   0  0  0  0  0  0  0  0  0  0  0  0
   10.7208   60.8449   32.0556 H   0  0  0  0  0  0  0  0  0  0  0  0
   10.7120   60.2427   28.6192 H   0  0  0  0  0  0  0  0  0  0  0  0
   16.3045   67.3014   21.0196 N   0  0  0  0  0  0  0  0  0  0  0  0
   17.1686   66.7597   21.0321 H   0  0  0  0  0  0  0  0  0  0  0  0
   16.4528   68.4920   22.1573 S   0  0  0  0  0  0  0  0  0  0  0  0
   16.3858   67.8432   23.4566 O   0  0  0  0  0  0  0  0  0  0  0  0
   17.6585   69.2417   21.8589 O   0  0  0  0  0  0  0  0  0  0  0  0
   12.6103   71.2017   21.5491 C   0  0  0  0  0  0  0  0  0  0  0  0
   12.7848   70.4424   22.7231 C   0  0  0  0  0  0  0  0  0  0  0  0
   13.9341   69.6155   22.9285 C   0  0  0  0  0  0  0  0  0  0  0  0
   14.9641   69.5451   21.9152 C   0  0  0  0  0  0  0  0  0  0  0  0
   14.7811   70.3357   20.6951 C   0  0  0  0  0  0  0  0  0  0  0  0
   13.6103   71.1446   20.5438 C   0  0  0  0  0  0  0  0  0  0  0  0
   11.3392   72.0643   21.4071 C   0  0  0  0  0  0  0  0  0  0  0  0
   10.1283   71.4204   22.1219 C   0  0  0  0  0  0  0  0  0  0  0  0
   11.5656   73.4725   21.9884 C   0  0  0  0  0  0  0  0  0  0  0  0
   14.0448   68.8239   24.2463 C   0  0  0  0  0  0  0  0  0  0  0  0
   12.7304   68.0988   24.6362 C   0  0  0  0  0  0  0  0  0  0  0  0
   14.4844   69.7879   25.3832 C   0  0  0  0  0  0  0  0  0  0  0  0
   15.8152   70.3424   19.5436 C   0  0  0  0  0  0  0  0  0  0  0  0
   16.6270   71.6620   19.5394 C   0  0  0  0  0  0  0  0  0  0  0  0
   15.1341   70.1685   18.1617 C   0  0  0  0  0  0  0  0  0  0  0  0
   14.3525   66.3040   19.8452 C   0  0  0  0  0  0  0  0  0  0  0  0
   12.9960   67.0267   19.9333 C   0  0  0  0  0  0  0  0  0  0  0  0
   12.1387   66.7653   21.0492 C   0  0  0  0  0  0  0  0  0  0  0  0
   10.8872   67.4303   21.1620 C   0  0  0  0  0  0  0  0  0  0  0  0
   10.5083   68.3651   20.1419 C   0  0  0  0  0  0  0  0  0  0  0  0
   11.3518   68.6249   19.0312 C   0  0  0  0  0  0  0  0  0  0  0  0
   12.5915   67.9601   18.9167 C   0  0  0  0  0  0  0  0  0  0  0  0
   10.0255   67.1699   22.2584 C   0  0  0  0  0  0  0  0  0  0  0  0
    8.9690   67.9804   22.5201 N   0  0  0  0  0  0  0  0  0  0  0  0
   10.2152   66.1023   23.0463 N   0  0  0  0  0  0  0  0  0  0  0  0
    8.8048   68.7719   21.9582 H   0  0  0  0  0  0  0  0  0  0  0  0
    8.3668   67.7769   23.2719 H   0  0  0  0  0  0  0  0  0  0  0  0
   10.9733   65.4966   22.8803 H   0  0  0  0  0  0  0  0  0  0  0  0
 35 36  1  0  0  0
 35 29  1  0  0  0
 35 37  1  0  0  0
 29 30  2  0  0  0
 29 34  1  0  0  0
 30 31  1  0  0  0
 31 38  1  0  0  0
 31 32  2  0  0  0
 38 39  1  0  0  0
 38 40  1  0  0  0
 32 26  1  0  0  0
 32 33  1  0  0  0
 26 24  1  0  0  0
 26 27  2  0  0  0
 26 28  2  0  0  0
 24  1  1  0  0  0
  1 44  1  0  0  0
  1  2  1  0  0  0
 44 45  1  0  0  0
 45 46  2  0  0  0
 45 50  1  0  0  0
 46 47  1  0  0  0
 47 51  1  0  0  0
 47 48  2  0  0  0
 51 52  1  0  0  0
 51 53  2  0  0  0
 48 49  1  0  0  0
 49 50  2  0  0  0
  2  3  1  0  0  0
  2 11  2  0  0  0
  3  4  1  0  0  0
  3 10  1  0  0  0
  4  5  1  0  0  0
  5  6  1  0  0  0
  6  7  1  0  0  0
  6  9  1  0  0  0
  7 12  1  0  0  0
  7  8  2  0  0  0
 12 13  1  0  0  0
 12 17  1  0  0  0
 13 14  1  0  0  0
 14 15  1  0  0  0
 15 18  1  0  0  0
 15 16  1  0  0  0
 18 19  1  0  0  0
 18 20  2  0  0  0
 16 17  1  0  0  0
  9 10  1  0  0  0
 33 41  1  0  0  0
 33 34  2  0  0  0
 41 42  1  0  0  0
 41 43  1  0  0  0
 24 25  1  0  0  0
 52 54  1  0  0  0
 52 55  1  0  0  0
 53 56  1  0  0  0
 19 21  1  0  0  0
 19 22  1  0  0  0
 20 23  1  0  0  0
M  END
> <minimizedAffinity>
-8.65258

$$$$
2GV7_672_A_245


 56 59  0  0  0  0  0  0  0  0999 V2000
   15.0639   66.3362   21.2496 C   0  0  0  0  0  0  0  0  0  0  0  0
   15.6143   65.0069   21.7043 C   0  0  0  0  0  0  0  0  0  0  0  0
   15.0060   64.2722   22.8826 N   0  0  0  0  0  0  0  0  0  0  0  0
   13.8787   64.8956   23.5417 C   0  0  0  0  0  0  0  0  0  0  0  0
   14.0003   64.7161   25.0864 C   0  0  0  0  0  0  0  0  0  0  0  0
   14.8838   63.5967   25.4046 N   0  0  0  0  0  0  0  0  0  0  0  0
   14.5645   62.8116   26.6174 C   0  0  0  0  0  0  0  0  0  0  0  0
   15.2429   61.8258   26.8990 O   0  0  0  0  0  0  0  0  0  0  0  0
   16.0560   63.1202   24.6780 C   0  0  0  0  0  0  0  0  0  0  0  0
   15.6681   63.0225   23.2049 C   0  0  0  0  0  0  0  0  0  0  0  0
   16.5788   64.5212   21.1022 O   0  0  0  0  0  0  0  0  0  0  0  0
   13.4208   63.2347   27.5091 C   0  0  0  0  0  0  0  0  0  0  0  0
   12.2668   62.2003   27.3157 C   0  0  0  0  0  0  0  0  0  0  0  0
   11.0893   62.4878   28.2667 C   0  0  0  0  0  0  0  0  0  0  0  0
   11.6573   62.5359   29.7050 N   0  0  0  0  0  0  0  0  0  0  0  0
   12.7209   63.5824   29.9873 C   0  0  0  0  0  0  0  0  0  0  0  0
   13.9044   63.3170   29.0172 C   0  0  0  0  0  0  0  0  0  0  0  0
   11.2606   61.6459   30.6565 C   0  0  0  0  0  0  0  0  0  0  0  0
   11.3736   61.9505   31.9630 N   0  0  0  0  0  0  0  0  0  0  0  0
   10.7261   60.4502   30.3144 N   0  0  0  0  0  0  0  0  0  0  0  0
   11.7593   62.8143   32.2355 H   0  0  0  0  0  0  0  0  0  0  0  0
   11.0706   61.3093   32.6459 H   0  0  0  0  0  0  0  0  0  0  0  0
   10.6336   60.2059   29.3652 H   0  0  0  0  0  0  0  0  0  0  0  0
   16.1818   67.2740   21.0830 N   0  0  0  0  0  0  0  0  0  0  0  0
   17.0418   66.7256   21.0865 H   0  0  0  0  0  0  0  0  0  0  0  0
   16.3576   68.4734   22.2074 S   0  0  0  0  0  0  0  0  0  0  0  0
   16.3369   67.8331   23.5125 O   0  0  0  0  0  0  0  0  0  0  0  0
   17.5475   69.2297   21.8656 O   0  0  0  0  0  0  0  0  0  0  0  0
   12.4881   71.1601   21.6730 C   0  0  0  0  0  0  0  0  0  0  0  0
   13.4767   71.1035   20.6707 C   0  0  0  0  0  0  0  0  0  0  0  0
   14.6539   70.3024   20.8098 C   0  0  0  0  0  0  0  0  0  0  0  0
   14.8541   69.5140   22.0061 C   0  0  0  0  0  0  0  0  0  0  0  0
   13.8248   69.5739   23.0473 C   0  0  0  0  0  0  0  0  0  0  0  0
   12.6678   70.3937   22.8538 C   0  0  0  0  0  0  0  0  0  0  0  0
   11.2508   72.0526   21.4433 C   0  0  0  0  0  0  0  0  0  0  0  0
    9.9727   71.4244   22.0464 C   0  0  0  0  0  0  0  0  0  0  0  0
   11.4582   73.4462   22.0654 C   0  0  0  0  0  0  0  0  0  0  0  0
   15.6798   70.2963   19.6598 C   0  0  0  0  0  0  0  0  0  0  0  0
   16.5292   71.5922   19.5912 C   0  0  0  0  0  0  0  0  0  0  0  0
   14.9347   70.0704   18.3148 C   0  0  0  0  0  0  0  0  0  0  0  0
   13.9280   68.7738   24.3680 C   0  0  0  0  0  0  0  0  0  0  0  0
   12.5632   68.1397   24.7366 C   0  0  0  0  0  0  0  0  0  0  0  0
   14.3989   69.6680   25.5438 C   0  0  0  0  0  0  0  0  0  0  0  0
   14.2202   66.2603   19.9390 C   0  0  0  0  0  0  0  0  0  0  0  0
   12.8707   66.9977   20.0123 C   0  0  0  0  0  0  0  0  0  0  0  0
   12.0105   66.7663   21.1326 C   0  0  0  0  0  0  0  0  0  0  0  0
   10.7655   67.4454   21.2318 C   0  0  0  0  0  0  0  0  0  0  0  0
   10.3961   68.3639   20.1936 C   0  0  0  0  0  0  0  0  0  0  0  0
   11.2424   68.5939   19.0784 C   0  0  0  0  0  0  0  0  0  0  0  0
   12.4757   67.9151   18.9776 C   0  0  0  0  0  0  0  0  0  0  0  0
    9.9009   67.2147   22.3325 C   0  0  0  0  0  0  0  0  0  0  0  0
    8.8655   68.0529   22.5909 N   0  0  0  0  0  0  0  0  0  0  0  0
   10.0666   66.1488   23.1281 N   0  0  0  0  0  0  0  0  0  0  0  0
    8.7191   68.8440   22.0234 H   0  0  0  0  0  0  0  0  0  0  0  0
    8.2607   67.8701   23.3459 H   0  0  0  0  0  0  0  0  0  0  0  0
   10.8091   65.5233   22.9647 H   0  0  0  0  0  0  0  0  0  0  0  0
 35 36  1  0  0  0
 35 29  1  0  0  0
 35 37  1  0  0  0
 29 30  2  0  0  0
 29 34  1  0  0  0
 30 31  1  0  0  0
 31 38  1  0  0  0
 31 32  2  0  0  0
 38 39  1  0  0  0
 38 40  1  0  0  0
 32 26  1  0  0  0
 32 33  1  0  0  0
 26 24  1  0  0  0
 26 27  2  0  0  0
 26 28  2  0  0  0
 24  1  1  0  0  0
  1 44  1  0  0  0
  1  2  1  0  0  0
 44 45  1  0  0  0
 45 46  2  0  0  0
 45 50  1  0  0  0
 46 47  1  0  0  0
 47 51  1  0  0  0
 47 48  2  0  0  0
 51 52  1  0  0  0
 51 53  2  0  0  0
 48 49  1  0  0  0
 49 50  2  0  0  0
  2  3  1  0  0  0
  2 11  2  0  0  0
  3  4  1  0  0  0
  3 10  1  0  0  0
  4  5  1  0  0  0
  5  6  1  0  0  0
  6  7  1  0  0  0
  6  9  1  0  0  0
  7 12  1  0  0  0
  7  8  2  0  0  0
 12 13  1  0  0  0
 12 17  1  0  0  0
 13 14  1  0  0  0
 14 15  1  0  0  0
 15 18  1  0  0  0
 15 16  1  0  0  0
 18 19  1  0  0  0
 18 20  2  0  0  0
 16 17  1  0  0  0
  9 10  1  0  0  0
 33 41  1  0  0  0
 33 34  2  0  0  0
 41 42  1  0  0  0
 41 43  1  0  0  0
 24 25  1  0  0  0
 52 54  1  0  0  0
 52 55  1  0  0  0
 53 56  1  0  0  0
 19 21  1  0  0  0
 19 22  1  0  0  0
 20 23  1  0  0  0
M  END
> <minimizedAffinity>
-8.61357

$$$$
2GV7_672_A_245


 56 59  0  0  0  0  0  0  0  0999 V2000
   14.8235   63.0389   26.9816 C   0  0  0  0  0  0  0  0  0  0  0  0
   15.8846   62.8125   25.9332 C   0  0  0  0  0  0  0  0  0  0  0  0
   16.0656   63.7839   24.7834 N   0  0  0  0  0  0  0  0  0  0  0  0
   15.1858   64.9319   24.7415 C   0  0  0  0  0  0  0  0  0  0  0  0
   14.7424   65.2083   23.2717 C   0  0  0  0  0  0  0  0  0  0  0  0
   15.6790   64.5990   22.3303 N   0  0  0  0  0  0  0  0  0  0  0  0
   15.9044   65.3084   21.0516 C   0  0  0  0  0  0  0  0  0  0  0  0
   16.7245   64.8678   20.2487 O   0  0  0  0  0  0  0  0  0  0  0  0
   16.4527   63.3703   22.4743 C   0  0  0  0  0  0  0  0  0  0  0  0
   17.1109   63.4072   23.8511 C   0  0  0  0  0  0  0  0  0  0  0  0
   16.6088   61.8142   26.0206 O   0  0  0  0  0  0  0  0  0  0  0  0
   15.1152   66.5568   20.7335 C   0  0  0  0  0  0  0  0  0  0  0  0
   15.7025   67.1615   19.4187 C   0  0  0  0  0  0  0  0  0  0  0  0
   14.8919   68.3858   18.9523 C   0  0  0  0  0  0  0  0  0  0  0  0
   13.4132   67.9451   18.8373 N   0  0  0  0  0  0  0  0  0  0  0  0
   12.7507   67.4308   20.1032 C   0  0  0  0  0  0  0  0  0  0  0  0
   13.5739   66.2097   20.5965 C   0  0  0  0  0  0  0  0  0  0  0  0
   12.7553   67.9669   17.6450 C   0  0  0  0  0  0  0  0  0  0  0  0
   13.4429   67.9601   16.4877 N   0  0  0  0  0  0  0  0  0  0  0  0
   11.4025   67.9737   17.5942 N   0  0  0  0  0  0  0  0  0  0  0  0
   14.4274   67.9551   16.5000 H   0  0  0  0  0  0  0  0  0  0  0  0
   12.9614   67.9601   15.6290 H   0  0  0  0  0  0  0  0  0  0  0  0
   10.8787   67.9788   18.4277 H   0  0  0  0  0  0  0  0  0  0  0  0
   15.3475   63.9755   27.9842 N   0  0  0  0  0  0  0  0  0  0  0  0
   16.3552   64.0415   27.8412 H   0  0  0  0  0  0  0  0  0  0  0  0
   15.0983   63.6183   29.5792 S   0  0  0  0  0  0  0  0  0  0  0  0
   14.7194   62.2161   29.6421 O   0  0  0  0  0  0  0  0  0  0  0  0
   16.2875   64.0108   30.3118 O   0  0  0  0  0  0  0  0  0  0  0  0
   11.4166   66.3341   30.8225 C   0  0  0  0  0  0  0  0  0  0  0  0
   12.3923   66.8024   29.9204 C   0  0  0  0  0  0  0  0  0  0  0  0
   13.5133   66.0029   29.5320 C   0  0  0  0  0  0  0  0  0  0  0  0
   13.6677   64.6672   30.0657 C   0  0  0  0  0  0  0  0  0  0  0  0
   12.6518   64.1817   31.0035 C   0  0  0  0  0  0  0  0  0  0  0  0
   11.5519   65.0264   31.3567 C   0  0  0  0  0  0  0  0  0  0  0  0
   10.2412   67.2632   31.1904 C   0  0  0  0  0  0  0  0  0  0  0  0
    9.4509   66.7307   32.4085 C   0  0  0  0  0  0  0  0  0  0  0  0
   10.7453   68.6831   31.5099 C   0  0  0  0  0  0  0  0  0  0  0  0
   14.5286   66.5944   28.5348 C   0  0  0  0  0  0  0  0  0  0  0  0
   15.5165   67.5951   29.1892 C   0  0  0  0  0  0  0  0  0  0  0  0
   13.7589   67.2813   27.3725 C   0  0  0  0  0  0  0  0  0  0  0  0
   12.7094   62.7710   31.6376 C   0  0  0  0  0  0  0  0  0  0  0  0
   11.2867   62.2621   31.9803 C   0  0  0  0  0  0  0  0  0  0  0  0
   13.5706   62.7576   32.9268 C   0  0  0  0  0  0  0  0  0  0  0  0
   13.4668   63.5584   26.4115 C   0  0  0  0  0  0  0  0  0  0  0  0
   12.2303   63.0996   27.2057 C   0  0  0  0  0  0  0  0  0  0  0  0
   11.2127   64.0547   27.5233 C   0  0  0  0  0  0  0  0  0  0  0  0
   10.0541   63.6540   28.2430 C   0  0  0  0  0  0  0  0  0  0  0  0
    9.9273   62.2803   28.6368 C   0  0  0  0  0  0  0  0  0  0  0  0
   10.9347   61.3301   28.3288 C   0  0  0  0  0  0  0  0  0  0  0  0
   12.0875   61.7296   27.6193 C   0  0  0  0  0  0  0  0  0  0  0  0
    9.0450   64.5952   28.5723 C   0  0  0  0  0  0  0  0  0  0  0  0
    8.7389   65.6109   27.7261 N   0  0  0  0  0  0  0  0  0  0  0  0
    8.3493   64.4898   29.7130 N   0  0  0  0  0  0  0  0  0  0  0  0
    9.2332   65.7133   26.8808 H   0  0  0  0  0  0  0  0  0  0  0  0
    8.0225   66.2454   27.9574 H   0  0  0  0  0  0  0  0  0  0  0  0
    8.5494   63.7629   30.3462 H   0  0  0  0  0  0  0  0  0  0  0  0
 35 36  1  0  0  0
 35 29  1  0  0  0
 35 37  1  0  0  0
 29 30  2  0  0  0
 29 34  1  0  0  0
 30 31  1  0  0  0
 31 38  1  0  0  0
 31 32  2  0  0  0
 38 39  1  0  0  0
 38 40  1  0  0  0
 32 26  1  0  0  0
 32 33  1  0  0  0
 26 24  1  0  0  0
 26 27  2  0  0  0
 26 28  2  0  0  0
 24  1  1  0  0  0
  1 44  1  0  0  0
  1  2  1  0  0  0
 44 45  1  0  0  0
 45 46  2  0  0  0
 45 50  1  0  0  0
 46 47  1  0  0  0
 47 51  1  0  0  0
 47 48  2  0  0  0
 51 52  1  0  0  0
 51 53  2  0  0  0
 48 49  1  0  0  0
 49 50  2  0  0  0
  2  3  1  0  0  0
  2 11  2  0  0  0
  3  4  1  0  0  0
  3 10  1  0  0  0
  4  5  1  0  0  0
  5  6  1  0  0  0
  6  7  1  0  0  0
  6  9  1  0  0  0
  7 12  1  0  0  0
  7  8  2  0  0  0
 12 13  1  0  0  0
 12 17  1  0  0  0
 13 14  1  0  0  0
 14 15  1  0  0  0
 15 18  1  0  0  0
 15 16  1  0  0  0
 18 19  1  0  0  0
 18 20  2  0  0  0
 16 17  1  0  0  0
  9 10  1  0  0  0
 33 41  1  0  0  0
 33 34  2  0  0  0
 41 42  1  0  0  0
 41 43  1  0  0  0
 24 25  1  0  0  0
 52 54  1  0  0  0
 52 55  1  0  0  0
 53 56  1  0  0  0
 19 21  1  0  0  0
 19 22  1  0  0  0
 20 23  1  0  0  0
M  END
> <minimizedAffinity>
-8.47386

$$$$
