3CJ2_SX3_A_571


 20 21  0  0  0  0  0  0  0  0999 V2000
  -19.3950    9.1240  -13.7317 Br  0  0  0  0  0  0  0  0  0  0  0  0
  -20.7530    8.5753  -14.9307 C   0  0  0  0  0  0  0  0  0  0  0  0
  -21.7477    9.5033  -15.2568 C   0  0  0  0  0  0  0  0  0  0  0  0
  -20.7607    7.2791  -15.4586 C   0  0  0  0  0  0  0  0  0  0  0  0
  -21.8062    6.9173  -16.3301 C   0  0  0  0  0  0  0  0  0  0  0  0
  -22.8197    7.8320  -16.6905 C   0  0  0  0  0  0  0  0  0  0  0  0
  -23.8212    7.4134  -17.5814 N   0  0  0  0  0  0  0  0  0  0  0  0
  -22.7805    9.1385  -16.1310 C   0  0  0  0  0  0  0  0  0  0  0  0
  -23.8068    6.4979  -17.9434 H   0  0  0  0  0  0  0  0  0  0  0  0
  -24.5377    8.0353  -17.8441 H   0  0  0  0  0  0  0  0  0  0  0  0
  -23.7682   10.1978  -16.4542 C   0  0  0  0  0  0  0  0  0  0  0  0
  -23.4039   10.9934  -17.3199 O   0  0  0  0  0  0  0  0  0  0  0  0
  -25.0488   10.3258  -15.8920 N   0  0  0  0  0  0  0  0  0  0  0  0
  -25.4077    9.5111  -14.7249 C   0  0  0  0  0  0  0  0  0  0  0  0
  -25.8366   10.3358  -13.5188 C   0  0  0  0  0  0  0  0  0  0  0  0
  -26.2723    9.3970  -12.4141 C   0  0  0  0  0  0  0  0  0  0  0  0
  -26.9496   11.2997  -13.9035 C   0  0  0  0  0  0  0  0  0  0  0  0
  -25.9696   11.4352  -16.2131 C   0  0  0  0  0  0  0  0  0  0  0  0
  -26.5039   12.2199  -15.0322 C   0  0  0  0  0  0  0  0  0  0  0  0
  -27.6798   13.0917  -15.4672 C   0  0  0  0  0  0  0  0  0  0  0  0
  1  2  1  0  0  0
  2  4  2  0  0  0
  2  3  1  0  0  0
  3  8  2  0  0  0
  4  5  1  0  0  0
  5  6  2  0  0  0
  8  6  1  0  0  0
  6  7  1  0  0  0
  8 11  1  0  0  0
 11 13  1  0  0  0
 11 12  2  0  0  0
 14 13  1  0  0  0
 13 18  1  0  0  0
 15 14  1  0  0  0
 16 15  1  0  0  0
 15 17  1  0  0  0
 17 19  1  0  0  0
 19 18  1  0  0  0
 19 20  1  0  0  0
  7  9  1  0  0  0
  7 10  1  0  0  0
M  END
> <minimizedAffinity>
-7.78455

$$$$
3CJ2_SX3_A_571


 20 21  0  0  0  0  0  0  0  0999 V2000
  -22.8855    5.1330  -19.0637 Br  0  0  0  0  0  0  0  0  0  0  0  0
  -22.3229    6.4481  -17.8241 C   0  0  0  0  0  0  0  0  0  0  0  0
  -23.1419    7.5681  -17.6463 C   0  0  0  0  0  0  0  0  0  0  0  0
  -21.1205    6.3026  -17.1227 C   0  0  0  0  0  0  0  0  0  0  0  0
  -20.7399    7.3212  -16.2278 C   0  0  0  0  0  0  0  0  0  0  0  0
  -21.5478    8.4594  -16.0145 C   0  0  0  0  0  0  0  0  0  0  0  0
  -21.1201    9.4277  -15.0917 N   0  0  0  0  0  0  0  0  0  0  0  0
  -22.7604    8.5740  -16.7480 C   0  0  0  0  0  0  0  0  0  0  0  0
  -20.2721    9.3049  -14.6068 H   0  0  0  0  0  0  0  0  0  0  0  0
  -21.6682   10.2293  -14.9297 H   0  0  0  0  0  0  0  0  0  0  0  0
  -23.7088    9.7045  -16.5911 C   0  0  0  0  0  0  0  0  0  0  0  0
  -23.3975   10.7254  -17.2043 O   0  0  0  0  0  0  0  0  0  0  0  0
  -24.9041    9.6775  -15.8545 N   0  0  0  0  0  0  0  0  0  0  0  0
  -25.1761    8.5424  -14.9644 C   0  0  0  0  0  0  0  0  0  0  0  0
  -25.4074    8.9500  -13.5156 C   0  0  0  0  0  0  0  0  0  0  0  0
  -25.7707    7.7189  -12.7130 C   0  0  0  0  0  0  0  0  0  0  0  0
  -26.4934   10.0126  -13.4300 C   0  0  0  0  0  0  0  0  0  0  0  0
  -25.7829   10.8532  -15.6887 C   0  0  0  0  0  0  0  0  0  0  0  0
  -26.1241   11.2334  -14.2623 C   0  0  0  0  0  0  0  0  0  0  0  0
  -27.2842   12.2263  -14.2447 C   0  0  0  0  0  0  0  0  0  0  0  0
  1  2  1  0  0  0
  2  4  2  0  0  0
  2  3  1  0  0  0
  3  8  2  0  0  0
  4  5  1  0  0  0
  5  6  2  0  0  0
  8  6  1  0  0  0
  6  7  1  0  0  0
  8 11  1  0  0  0
 11 13  1  0  0  0
 11 12  2  0  0  0
 14 13  1  0  0  0
 13 18  1  0  0  0
 15 14  1  0  0  0
 16 15  1  0  0  0
 15 17  1  0  0  0
 17 19  1  0  0  0
 19 18  1  0  0  0
 19 20  1  0  0  0
  7  9  1  0  0  0
  7 10  1  0  0  0
M  END
> <minimizedAffinity>
-6.60232

$$$$
3CJ2_SX3_A_571


 20 21  0  0  0  0  0  0  0  0999 V2000
  -27.1152   12.3694  -14.8181 Br  0  0  0  0  0  0  0  0  0  0  0  0
  -26.5255   10.6691  -14.2315 C   0  0  0  0  0  0  0  0  0  0  0  0
  -25.9357    9.8228  -15.1764 C   0  0  0  0  0  0  0  0  0  0  0  0
  -26.6893   10.2756  -12.8984 C   0  0  0  0  0  0  0  0  0  0  0  0
  -26.2510    8.9916  -12.5207 C   0  0  0  0  0  0  0  0  0  0  0  0
  -25.6405    8.1160  -13.4450 C   0  0  0  0  0  0  0  0  0  0  0  0
  -25.2065    6.8576  -12.9975 N   0  0  0  0  0  0  0  0  0  0  0  0
  -25.4948    8.5494  -14.7912 C   0  0  0  0  0  0  0  0  0  0  0  0
  -25.3289    6.6012  -12.0549 H   0  0  0  0  0  0  0  0  0  0  0  0
  -24.7798    6.2318  -13.6265 H   0  0  0  0  0  0  0  0  0  0  0  0
  -24.8438    7.7357  -15.8477 C   0  0  0  0  0  0  0  0  0  0  0  0
  -25.5632    6.8703  -16.3464 O   0  0  0  0  0  0  0  0  0  0  0  0
  -23.5331    7.9039  -16.3232 N   0  0  0  0  0  0  0  0  0  0  0  0
  -22.6127    8.7896  -15.5999 C   0  0  0  0  0  0  0  0  0  0  0  0
  -21.3392    8.0940  -15.1385 C   0  0  0  0  0  0  0  0  0  0  0  0
  -20.4289    9.1173  -14.4937 C   0  0  0  0  0  0  0  0  0  0  0  0
  -20.6586    7.4008  -16.3099 C   0  0  0  0  0  0  0  0  0  0  0  0
  -22.9193    7.0264  -17.3406 C   0  0  0  0  0  0  0  0  0  0  0  0
  -21.5957    6.3932  -16.9624 C   0  0  0  0  0  0  0  0  0  0  0  0
  -20.9212    5.8034  -18.1991 C   0  0  0  0  0  0  0  0  0  0  0  0
  1  2  1  0  0  0
  2  4  2  0  0  0
  2  3  1  0  0  0
  3  8  2  0  0  0
  4  5  1  0  0  0
  5  6  2  0  0  0
  8  6  1  0  0  0
  6  7  1  0  0  0
  8 11  1  0  0  0
 11 13  1  0  0  0
 11 12  2  0  0  0
 14 13  1  0  0  0
 13 18  1  0  0  0
 15 14  1  0  0  0
 16 15  1  0  0  0
 15 17  1  0  0  0
 17 19  1  0  0  0
 19 18  1  0  0  0
 19 20  1  0  0  0
  7  9  1  0  0  0
  7 10  1  0  0  0
M  END
> <minimizedAffinity>
-6.45972

$$$$
3CJ2_SX3_A_571


 20 21  0  0  0  0  0  0  0  0999 V2000
  -24.1872    5.3832  -20.1604 Br  0  0  0  0  0  0  0  0  0  0  0  0
  -23.1531    5.8595  -18.6484 C   0  0  0  0  0  0  0  0  0  0  0  0
  -23.8328    6.1631  -17.4640 C   0  0  0  0  0  0  0  0  0  0  0  0
  -21.7567    5.9155  -18.7252 C   0  0  0  0  0  0  0  0  0  0  0  0
  -21.0376    6.2957  -17.5755 C   0  0  0  0  0  0  0  0  0  0  0  0
  -21.6901    6.5971  -16.3601 C   0  0  0  0  0  0  0  0  0  0  0  0
  -20.9119    6.9484  -15.2451 N   0  0  0  0  0  0  0  0  0  0  0  0
  -23.1099    6.5330  -16.3217 C   0  0  0  0  0  0  0  0  0  0  0  0
  -19.9307    6.9793  -15.3197 H   0  0  0  0  0  0  0  0  0  0  0  0
  -21.3476    7.1637  -14.3889 H   0  0  0  0  0  0  0  0  0  0  0  0
  -23.9090    6.7965  -15.0993 C   0  0  0  0  0  0  0  0  0  0  0  0
  -24.2274    5.7898  -14.4665 O   0  0  0  0  0  0  0  0  0  0  0  0
  -24.2774    8.0625  -14.6160 N   0  0  0  0  0  0  0  0  0  0  0  0
  -24.0782    9.2434  -15.4648 C   0  0  0  0  0  0  0  0  0  0  0  0
  -25.3590   10.0238  -15.7279 C   0  0  0  0  0  0  0  0  0  0  0  0
  -25.0209   11.2638  -16.5278 C   0  0  0  0  0  0  0  0  0  0  0  0
  -26.0451   10.3757  -14.4160 C   0  0  0  0  0  0  0  0  0  0  0  0
  -25.1221    8.2614  -13.4207 C   0  0  0  0  0  0  0  0  0  0  0  0
  -26.3558    9.1198  -13.6127 C   0  0  0  0  0  0  0  0  0  0  0  0
  -26.9371    9.5178  -12.2577 C   0  0  0  0  0  0  0  0  0  0  0  0
  1  2  1  0  0  0
  2  4  2  0  0  0
  2  3  1  0  0  0
  3  8  2  0  0  0
  4  5  1  0  0  0
  5  6  2  0  0  0
  8  6  1  0  0  0
  6  7  1  0  0  0
  8 11  1  0  0  0
 11 13  1  0  0  0
 11 12  2  0  0  0
 14 13  1  0  0  0
 13 18  1  0  0  0
 15 14  1  0  0  0
 16 15  1  0  0  0
 15 17  1  0  0  0
 17 19  1  0  0  0
 19 18  1  0  0  0
 19 20  1  0  0  0
  7  9  1  0  0  0
  7 10  1  0  0  0
M  END
> <minimizedAffinity>
-6.27302

$$$$
3CJ2_SX3_A_571


 20 21  0  0  0  0  0  0  0  0999 V2000
  -18.2274    4.6973  -19.1504 Br  0  0  0  0  0  0  0  0  0  0  0  0
  -20.0886    4.3841  -19.2929 C   0  0  0  0  0  0  0  0  0  0  0  0
  -20.9527    5.4343  -18.9656 C   0  0  0  0  0  0  0  0  0  0  0  0
  -20.5752    3.1369  -19.7011 C   0  0  0  0  0  0  0  0  0  0  0  0
  -21.9697    2.9521  -19.7700 C   0  0  0  0  0  0  0  0  0  0  0  0
  -22.8708    3.9936  -19.4587 C   0  0  0  0  0  0  0  0  0  0  0  0
  -24.2493    3.7492  -19.5691 N   0  0  0  0  0  0  0  0  0  0  0  0
  -22.3392    5.2454  -19.0443 C   0  0  0  0  0  0  0  0  0  0  0  0
  -24.5707    2.8654  -19.8605 H   0  0  0  0  0  0  0  0  0  0  0  0
  -24.8942    4.4616  -19.3551 H   0  0  0  0  0  0  0  0  0  0  0  0
  -23.1791    6.4249  -18.7197 C   0  0  0  0  0  0  0  0  0  0  0  0
  -23.9751    6.7474  -19.6015 O   0  0  0  0  0  0  0  0  0  0  0  0
  -23.1556    7.1429  -17.5129 N   0  0  0  0  0  0  0  0  0  0  0  0
  -22.0788    6.8931  -16.5472 C   0  0  0  0  0  0  0  0  0  0  0  0
  -21.2752    8.1390  -16.1996 C   0  0  0  0  0  0  0  0  0  0  0  0
  -20.2620    7.7856  -15.1318 C   0  0  0  0  0  0  0  0  0  0  0  0
  -22.2008    9.2572  -15.7427 C   0  0  0  0  0  0  0  0  0  0  0  0
  -23.9779    8.3450  -17.2668 C   0  0  0  0  0  0  0  0  0  0  0  0
  -23.2290    9.5833  -16.8178 C   0  0  0  0  0  0  0  0  0  0  0  0
  -24.2077   10.6255  -16.2811 C   0  0  0  0  0  0  0  0  0  0  0  0
  1  2  1  0  0  0
  2  4  2  0  0  0
  2  3  1  0  0  0
  3  8  2  0  0  0
  4  5  1  0  0  0
  5  6  2  0  0  0
  8  6  1  0  0  0
  6  7  1  0  0  0
  8 11  1  0  0  0
 11 13  1  0  0  0
 11 12  2  0  0  0
 14 13  1  0  0  0
 13 18  1  0  0  0
 15 14  1  0  0  0
 16 15  1  0  0  0
 15 17  1  0  0  0
 17 19  1  0  0  0
 19 18  1  0  0  0
 19 20  1  0  0  0
  7  9  1  0  0  0
  7 10  1  0  0  0
M  END
> <minimizedAffinity>
-6.24128

$$$$
3CJ2_SX3_A_571


 20 21  0  0  0  0  0  0  0  0999 V2000
  -28.8426    9.6970  -12.6327 Br  0  0  0  0  0  0  0  0  0  0  0  0
  -28.2892    8.1105  -13.5041 C   0  0  0  0  0  0  0  0  0  0  0  0
  -26.9149    7.8745  -13.6162 C   0  0  0  0  0  0  0  0  0  0  0  0
  -29.2299    7.2155  -14.0264 C   0  0  0  0  0  0  0  0  0  0  0  0
  -28.7626    6.0606  -14.6832 C   0  0  0  0  0  0  0  0  0  0  0  0
  -27.3832    5.7846  -14.8040 C   0  0  0  0  0  0  0  0  0  0  0  0
  -26.9851    4.6039  -15.4519 N   0  0  0  0  0  0  0  0  0  0  0  0
  -26.4576    6.7191  -14.2642 C   0  0  0  0  0  0  0  0  0  0  0  0
  -27.6630    3.9864  -15.8101 H   0  0  0  0  0  0  0  0  0  0  0  0
  -26.0281    4.3938  -15.5480 H   0  0  0  0  0  0  0  0  0  0  0  0
  -24.9863    6.5287  -14.3001 C   0  0  0  0  0  0  0  0  0  0  0  0
  -24.5591    5.6772  -13.5205 O   0  0  0  0  0  0  0  0  0  0  0  0
  -24.0922    7.1968  -15.1523 N   0  0  0  0  0  0  0  0  0  0  0  0
  -24.5643    8.3470  -15.9326 C   0  0  0  0  0  0  0  0  0  0  0  0
  -23.7760    9.6229  -15.6692 C   0  0  0  0  0  0  0  0  0  0  0  0
  -24.2838   10.7109  -16.5912 C   0  0  0  0  0  0  0  0  0  0  0  0
  -22.2869    9.3765  -15.8636 C   0  0  0  0  0  0  0  0  0  0  0  0
  -22.6283    7.0056  -15.1049 C   0  0  0  0  0  0  0  0  0  0  0  0
  -21.7975    8.2629  -14.9473 C   0  0  0  0  0  0  0  0  0  0  0  0
  -20.3305    7.9668  -15.2513 C   0  0  0  0  0  0  0  0  0  0  0  0
  1  2  1  0  0  0
  2  4  2  0  0  0
  2  3  1  0  0  0
  3  8  2  0  0  0
  4  5  1  0  0  0
  5  6  2  0  0  0
  8  6  1  0  0  0
  6  7  1  0  0  0
  8 11  1  0  0  0
 11 13  1  0  0  0
 11 12  2  0  0  0
 14 13  1  0  0  0
 13 18  1  0  0  0
 15 14  1  0  0  0
 16 15  1  0  0  0
 15 17  1  0  0  0
 17 19  1  0  0  0
 19 18  1  0  0  0
 19 20  1  0  0  0
  7  9  1  0  0  0
  7 10  1  0  0  0
M  END
> <minimizedAffinity>
-5.74743

$$$$
3CJ2_SX3_A_571


 20 21  0  0  0  0  0  0  0  0999 V2000
  -26.8905    5.2158  -20.3200 Br  0  0  0  0  0  0  0  0  0  0  0  0
  -25.1356    4.5656  -20.0368 C   0  0  0  0  0  0  0  0  0  0  0  0
  -24.1903    5.4513  -19.5089 C   0  0  0  0  0  0  0  0  0  0  0  0
  -24.8009    3.2453  -20.3589 C   0  0  0  0  0  0  0  0  0  0  0  0
  -23.4752    2.8199  -20.1470 C   0  0  0  0  0  0  0  0  0  0  0  0
  -22.4983    3.6832  -19.6046 C   0  0  0  0  0  0  0  0  0  0  0  0
  -21.2002    3.1889  -19.3983 N   0  0  0  0  0  0  0  0  0  0  0  0
  -22.8749    5.0184  -19.2933 C   0  0  0  0  0  0  0  0  0  0  0  0
  -20.9861    2.2562  -19.6294 H   0  0  0  0  0  0  0  0  0  0  0  0
  -20.5041    3.7751  -19.0227 H   0  0  0  0  0  0  0  0  0  0  0  0
  -21.9503    6.0111  -18.6917 C   0  0  0  0  0  0  0  0  0  0  0  0
  -20.8406    6.0670  -19.2215 O   0  0  0  0  0  0  0  0  0  0  0  0
  -22.2547    6.8794  -17.6308 N   0  0  0  0  0  0  0  0  0  0  0  0
  -23.4934    6.6793  -16.8690 C   0  0  0  0  0  0  0  0  0  0  0  0
  -23.2616    6.4740  -15.3781 C   0  0  0  0  0  0  0  0  0  0  0  0
  -24.6030    6.3744  -14.6836 C   0  0  0  0  0  0  0  0  0  0  0  0
  -22.4219    7.6089  -14.8102 C   0  0  0  0  0  0  0  0  0  0  0  0
  -21.2741    7.8104  -17.0362 C   0  0  0  0  0  0  0  0  0  0  0  0
  -21.0869    7.7113  -15.5359 C   0  0  0  0  0  0  0  0  0  0  0  0
  -20.3228    8.9281  -15.0186 C   0  0  0  0  0  0  0  0  0  0  0  0
  1  2  1  0  0  0
  2  4  2  0  0  0
  2  3  1  0  0  0
  3  8  2  0  0  0
  4  5  1  0  0  0
  5  6  2  0  0  0
  8  6  1  0  0  0
  6  7  1  0  0  0
  8 11  1  0  0  0
 11 13  1  0  0  0
 11 12  2  0  0  0
 14 13  1  0  0  0
 13 18  1  0  0  0
 15 14  1  0  0  0
 16 15  1  0  0  0
 15 17  1  0  0  0
 17 19  1  0  0  0
 19 18  1  0  0  0
 19 20  1  0  0  0
  7  9  1  0  0  0
  7 10  1  0  0  0
M  END
> <minimizedAffinity>
-5.71887

$$$$
3CJ2_SX3_A_571


 20 21  0  0  0  0  0  0  0  0999 V2000
  -26.0268   12.6373  -16.5582 Br  0  0  0  0  0  0  0  0  0  0  0  0
  -25.7187   11.0602  -15.5579 C   0  0  0  0  0  0  0  0  0  0  0  0
  -24.5908   10.2967  -15.8769 C   0  0  0  0  0  0  0  0  0  0  0  0
  -26.6015   10.6723  -14.5435 C   0  0  0  0  0  0  0  0  0  0  0  0
  -26.3354    9.4789  -13.8445 C   0  0  0  0  0  0  0  0  0  0  0  0
  -25.2000    8.6901  -14.1317 C   0  0  0  0  0  0  0  0  0  0  0  0
  -24.9819    7.5228  -13.3822 N   0  0  0  0  0  0  0  0  0  0  0  0
  -24.3283    9.1144  -15.1716 C   0  0  0  0  0  0  0  0  0  0  0  0
  -25.6137    7.2690  -12.6711 H   0  0  0  0  0  0  0  0  0  0  0  0
  -24.1970    6.9581  -13.5678 H   0  0  0  0  0  0  0  0  0  0  0  0
  -23.0887    8.3905  -15.5477 C   0  0  0  0  0  0  0  0  0  0  0  0
  -22.0556    8.8560  -15.0667 O   0  0  0  0  0  0  0  0  0  0  0  0
  -23.0210    7.2387  -16.3482 N   0  0  0  0  0  0  0  0  0  0  0  0
  -24.2137    6.8019  -17.0840 C   0  0  0  0  0  0  0  0  0  0  0  0
  -23.9958    6.7027  -18.5878 C   0  0  0  0  0  0  0  0  0  0  0  0
  -25.2530    6.1557  -19.2294 C   0  0  0  0  0  0  0  0  0  0  0  0
  -22.7878    5.8288  -18.8926 C   0  0  0  0  0  0  0  0  0  0  0  0
  -21.7507    6.5917  -16.7350 C   0  0  0  0  0  0  0  0  0  0  0  0
  -21.5371    6.3787  -18.2198 C   0  0  0  0  0  0  0  0  0  0  0  0
  -20.3741    5.4167  -18.4524 C   0  0  0  0  0  0  0  0  0  0  0  0
  1  2  1  0  0  0
  2  4  2  0  0  0
  2  3  1  0  0  0
  3  8  2  0  0  0
  4  5  1  0  0  0
  5  6  2  0  0  0
  8  6  1  0  0  0
  6  7  1  0  0  0
  8 11  1  0  0  0
 11 13  1  0  0  0
 11 12  2  0  0  0
 14 13  1  0  0  0
 13 18  1  0  0  0
 15 14  1  0  0  0
 16 15  1  0  0  0
 15 17  1  0  0  0
 17 19  1  0  0  0
 19 18  1  0  0  0
 19 20  1  0  0  0
  7  9  1  0  0  0
  7 10  1  0  0  0
M  END
> <minimizedAffinity>
-5.71552

$$$$
3CJ2_SX3_A_571


 20 21  0  0  0  0  0  0  0  0999 V2000
  -29.7735    4.6986  -15.3899 Br  0  0  0  0  0  0  0  0  0  0  0  0
  -28.7132    6.0374  -14.5738 C   0  0  0  0  0  0  0  0  0  0  0  0
  -27.3245    5.8709  -14.5947 C   0  0  0  0  0  0  0  0  0  0  0  0
  -29.3078    7.1468  -13.9618 C   0  0  0  0  0  0  0  0  0  0  0  0
  -28.4724    8.1025  -13.3516 C   0  0  0  0  0  0  0  0  0  0  0  0
  -27.0665    7.9728  -13.3643 C   0  0  0  0  0  0  0  0  0  0  0  0
  -26.2906    8.9730  -12.7562 N   0  0  0  0  0  0  0  0  0  0  0  0
  -26.4992    6.8303  -13.9923 C   0  0  0  0  0  0  0  0  0  0  0  0
  -26.7286    9.7467  -12.3334 H   0  0  0  0  0  0  0  0  0  0  0  0
  -25.3088    8.9005  -12.7528 H   0  0  0  0  0  0  0  0  0  0  0  0
  -25.0379    6.5949  -14.0986 C   0  0  0  0  0  0  0  0  0  0  0  0
  -24.5920    5.7651  -13.3062 O   0  0  0  0  0  0  0  0  0  0  0  0
  -24.1740    7.1993  -15.0262 N   0  0  0  0  0  0  0  0  0  0  0  0
  -24.6565    8.3287  -15.8301 C   0  0  0  0  0  0  0  0  0  0  0  0
  -23.8204    9.5907  -15.6659 C   0  0  0  0  0  0  0  0  0  0  0  0
  -24.3480   10.6530  -16.6064 C   0  0  0  0  0  0  0  0  0  0  0  0
  -22.3515    9.2921  -15.9288 C   0  0  0  0  0  0  0  0  0  0  0  0
  -22.7154    6.9669  -15.0490 C   0  0  0  0  0  0  0  0  0  0  0  0
  -21.8431    8.2045  -14.9918 C   0  0  0  0  0  0  0  0  0  0  0  0
  -20.4037    7.8523  -15.3606 C   0  0  0  0  0  0  0  0  0  0  0  0
  1  2  1  0  0  0
  2  4  2  0  0  0
  2  3  1  0  0  0
  3  8  2  0  0  0
  4  5  1  0  0  0
  5  6  2  0  0  0
  8  6  1  0  0  0
  6  7  1  0  0  0
  8 11  1  0  0  0
 11 13  1  0  0  0
 11 12  2  0  0  0
 14 13  1  0  0  0
 13 18  1  0  0  0
 15 14  1  0  0  0
 16 15  1  0  0  0
 15 17  1  0  0  0
 17 19  1  0  0  0
 19 18  1  0  0  0
 19 20  1  0  0  0
  7  9  1  0  0  0
  7 10  1  0  0  0
M  END
> <minimizedAffinity>
-5.51829

$$$$
3CJ2_SX3_A_571


 20 21  0  0  0  0  0  0  0  0999 V2000
  -28.4194    8.0581  -18.7826 Br  0  0  0  0  0  0  0  0  0  0  0  0
  -27.6912    9.4848  -17.7743 C   0  0  0  0  0  0  0  0  0  0  0  0
  -26.3176    9.4612  -17.5104 C   0  0  0  0  0  0  0  0  0  0  0  0
  -28.5089   10.5179  -17.3021 C   0  0  0  0  0  0  0  0  0  0  0  0
  -27.9182   11.5439  -16.5393 C   0  0  0  0  0  0  0  0  0  0  0  0
  -26.5334   11.5583  -16.2641 C   0  0  0  0  0  0  0  0  0  0  0  0
  -26.0049   12.6226  -15.5157 N   0  0  0  0  0  0  0  0  0  0  0  0
  -25.7356   10.4899  -16.7573 C   0  0  0  0  0  0  0  0  0  0  0  0
  -26.5971   13.3407  -15.1950 H   0  0  0  0  0  0  0  0  0  0  0  0
  -25.0422   12.6505  -15.3116 H   0  0  0  0  0  0  0  0  0  0  0  0
  -24.2669   10.4064  -16.5619 C   0  0  0  0  0  0  0  0  0  0  0  0
  -23.6112   11.1843  -17.2549 O   0  0  0  0  0  0  0  0  0  0  0  0
  -23.6058    9.5648  -15.6526 N   0  0  0  0  0  0  0  0  0  0  0  0
  -24.3592    8.5017  -14.9767 C   0  0  0  0  0  0  0  0  0  0  0  0
  -23.7888    7.1098  -15.2138 C   0  0  0  0  0  0  0  0  0  0  0  0
  -24.5813    6.1108  -14.3980 C   0  0  0  0  0  0  0  0  0  0  0  0
  -22.3100    7.0742  -14.8565 C   0  0  0  0  0  0  0  0  0  0  0  0
  -22.1351    9.4856  -15.5406 C   0  0  0  0  0  0  0  0  0  0  0  0
  -21.5314    8.1016  -15.6674 C   0  0  0  0  0  0  0  0  0  0  0  0
  -20.0772    8.1162  -15.2013 C   0  0  0  0  0  0  0  0  0  0  0  0
  1  2  1  0  0  0
  2  4  2  0  0  0
  2  3  1  0  0  0
  3  8  2  0  0  0
  4  5  1  0  0  0
  5  6  2  0  0  0
  8  6  1  0  0  0
  6  7  1  0  0  0
  8 11  1  0  0  0
 11 13  1  0  0  0
 11 12  2  0  0  0
 14 13  1  0  0  0
 13 18  1  0  0  0
 15 14  1  0  0  0
 16 15  1  0  0  0
 15 17  1  0  0  0
 17 19  1  0  0  0
 19 18  1  0  0  0
 19 20  1  0  0  0
  7  9  1  0  0  0
  7 10  1  0  0  0
M  END
> <minimizedAffinity>
-5.50838

$$$$
