4PV5_CBW_A_202


 36 40  0  0  0  0  0  0  0  0999 V2000
   15.6698    3.5061   22.8077 C   0  0  0  0  0  0  0  0  0  0  0  0
   16.6040    3.0098   23.9102 C   0  0  0  0  0  0  0  0  0  0  0  0
   16.7248    1.5018   23.8835 C   0  0  0  0  0  0  0  0  0  0  0  0
   15.3845    0.7779   24.1100 C   0  0  0  0  0  0  0  0  0  0  0  0
   14.2359    1.8384   24.0288 C   0  0  0  0  0  0  0  0  0  0  0  0
   12.8298    1.2730   24.2334 C   0  0  0  0  0  0  0  0  0  0  0  0
   11.9069    2.3933   24.7131 C   0  0  0  0  0  0  0  0  0  0  0  0
   11.8011    3.5545   23.7121 C   0  0  0  0  0  0  0  0  0  0  0  0
   13.2278    3.9958   23.2407 C   0  0  0  0  0  0  0  0  0  0  0  0
   14.2671    2.8712   22.8514 C   0  0  0  0  0  0  0  0  0  0  0  0
   13.1083    5.1522   22.2522 C   0  0  0  0  0  0  0  0  0  0  0  0
   11.9878    6.0785   22.4480 C   0  0  0  0  0  0  0  0  0  0  0  0
   11.0379    5.9492   23.3817 C   0  0  0  0  0  0  0  0  0  0  0  0
   11.1159    4.8057   24.3990 C   0  0  0  0  0  0  0  0  0  0  0  0
    9.7275    4.3952   24.9308 C   0  0  0  0  0  0  0  0  0  0  0  0
    8.7673    5.5526   25.1227 C   0  0  0  0  0  0  0  0  0  0  0  0
    8.5469    6.3543   23.8358 C   0  0  0  0  0  0  0  0  0  0  0  0
    9.8987    6.9710   23.3933 C   0  0  0  0  0  0  0  0  0  0  0  0
   13.9917    2.2458   21.4715 C   0  0  0  0  0  0  0  0  0  0  0  0
   10.2713    8.2500   24.1671 C   0  0  0  0  0  0  0  0  0  0  0  0
    9.2059    9.3658   24.1108 C   0  0  0  0  0  0  0  0  0  0  0  0
    7.8987    8.8162   23.5223 C   0  0  0  0  0  0  0  0  0  0  0  0
    7.5233    7.4670   24.1051 C   0  0  0  0  0  0  0  0  0  0  0  0
   15.2671   -0.3882   23.1302 C   0  0  0  0  0  0  0  0  0  0  0  0
   15.3857    0.1852   25.5184 C   0  0  0  0  0  0  0  0  0  0  0  0
   10.9415    3.0687   22.5293 C   0  0  0  0  0  0  0  0  0  0  0  0
   11.9241    5.3280   25.5841 C   0  0  0  0  0  0  0  0  0  0  0  0
    7.9975    5.4323   22.7395 C   0  0  0  0  0  0  0  0  0  0  0  0
    8.9585    9.9086   25.5243 C   0  0  0  0  0  0  0  0  0  0  0  0
   17.3360    1.0932   22.6544 O   0  0  0  0  0  0  0  0  0  0  0  0
   13.8826    5.3211   21.3227 O   0  0  0  0  0  0  0  0  0  0  0  0
   16.7712    1.3538   21.9101 H   0  0  0  0  0  0  0  0  0  0  0  0
    9.5681   10.5256   23.1911 C   0  0  0  0  0  0  0  0  0  0  0  0
   10.3661   10.2378   22.1883 O   0  0  0  0  0  0  0  0  0  0  0  0
    9.0942   11.6331   23.3834 O   0  0  0  0  0  0  0  0  0  0  0  0
    8.5299   11.7804   24.1167 H   0  0  0  0  0  0  0  0  0  0  0  0
  1  2  1  0  0  0
  1 10  1  0  0  0
  2  3  1  0  0  0
  3  4  1  0  0  0
  3 30  1  0  0  0
  4  5  1  0  0  0
  4 24  1  0  0  0
  4 25  1  0  0  0
  5  6  1  0  0  0
  5 10  1  0  0  0
  6  7  1  0  0  0
  7  8  1  0  0  0
  8  9  1  0  0  0
  8 14  1  0  0  0
  8 26  1  0  0  0
  9 10  1  0  0  0
  9 11  1  0  0  0
 10 19  1  0  0  0
 11 12  1  0  0  0
 11 31  2  0  0  0
 12 13  2  0  0  0
 13 14  1  0  0  0
 13 18  1  0  0  0
 14 15  1  0  0  0
 14 27  1  0  0  0
 15 16  1  0  0  0
 16 17  1  0  0  0
 17 18  1  0  0  0
 17 23  1  0  0  0
 17 28  1  0  0  0
 18 20  1  0  0  0
 20 21  1  0  0  0
 21 22  1  0  0  0
 21 33  1  0  0  0
 21 29  1  0  0  0
 22 23  1  0  0  0
 33 34  2  0  0  0
 33 35  1  0  0  0
 30 32  1  0  0  0
 35 36  1  0  0  0
M  END
> <minimizedAffinity>
-9.55570

$$$$
4PV5_CBW_A_202


 36 40  0  0  0  0  0  0  0  0999 V2000
   13.8817    1.2400   23.3012 C   0  0  0  0  0  0  0  0  0  0  0  0
   14.1666    0.7162   21.8945 C   0  0  0  0  0  0  0  0  0  0  0  0
   15.4459    1.3061   21.3426 C   0  0  0  0  0  0  0  0  0  0  0  0
   15.4075    2.8409   21.2204 C   0  0  0  0  0  0  0  0  0  0  0  0
   14.1349    3.3596   21.9701 C   0  0  0  0  0  0  0  0  0  0  0  0
   13.9520    4.8776   21.9417 C   0  0  0  0  0  0  0  0  0  0  0  0
   12.4739    5.2057   22.1522 C   0  0  0  0  0  0  0  0  0  0  0  0
   11.9310    4.6960   23.4966 C   0  0  0  0  0  0  0  0  0  0  0  0
   12.3392    3.1999   23.7141 C   0  0  0  0  0  0  0  0  0  0  0  0
   13.8269    2.7768   23.3911 C   0  0  0  0  0  0  0  0  0  0  0  0
   11.7894    2.7053   25.0489 C   0  0  0  0  0  0  0  0  0  0  0  0
   10.5151    3.2795   25.4945 C   0  0  0  0  0  0  0  0  0  0  0  0
    9.8388    4.2399   24.8534 C   0  0  0  0  0  0  0  0  0  0  0  0
   10.3493    4.7669   23.5079 C   0  0  0  0  0  0  0  0  0  0  0  0
    9.9048    6.2189   23.2376 C   0  0  0  0  0  0  0  0  0  0  0  0
    8.5080    6.5440   23.7292 C   0  0  0  0  0  0  0  0  0  0  0  0
    8.3363    6.2835   25.2292 C   0  0  0  0  0  0  0  0  0  0  0  0
    8.5605    4.7742   25.5034 C   0  0  0  0  0  0  0  0  0  0  0  0
   14.8292    3.2199   24.4728 C   0  0  0  0  0  0  0  0  0  0  0  0
    7.3328    3.9029   25.1765 C   0  0  0  0  0  0  0  0  0  0  0  0
    6.0371    4.3241   25.9025 C   0  0  0  0  0  0  0  0  0  0  0  0
    6.2274    5.6957   26.5658 C   0  0  0  0  0  0  0  0  0  0  0  0
    6.9170    6.6904   25.6515 C   0  0  0  0  0  0  0  0  0  0  0  0
   16.7341    3.4208   21.7075 C   0  0  0  0  0  0  0  0  0  0  0  0
   15.2710    3.2062   19.7430 C   0  0  0  0  0  0  0  0  0  0  0  0
   12.5052    5.6037   24.6013 C   0  0  0  0  0  0  0  0  0  0  0  0
    9.7244    3.8880   22.4275 C   0  0  0  0  0  0  0  0  0  0  0  0
    9.3471    7.1246   26.0195 C   0  0  0  0  0  0  0  0  0  0  0  0
    4.8820    4.3836   24.8945 C   0  0  0  0  0  0  0  0  0  0  0  0
   16.5542    0.8750   22.1408 O   0  0  0  0  0  0  0  0  0  0  0  0
   12.3630    1.8821   25.7456 O   0  0  0  0  0  0  0  0  0  0  0  0
   16.4479    1.2049   23.0468 H   0  0  0  0  0  0  0  0  0  0  0  0
    5.6431    3.4068   27.0539 C   0  0  0  0  0  0  0  0  0  0  0  0
    5.2190    2.2101   26.7174 O   0  0  0  0  0  0  0  0  0  0  0  0
    5.7652    3.7825   28.2080 O   0  0  0  0  0  0  0  0  0  0  0  0
    6.0729    4.6489   28.3886 H   0  0  0  0  0  0  0  0  0  0  0  0
  1  2  1  0  0  0
  1 10  1  0  0  0
  2  3  1  0  0  0
  3  4  1  0  0  0
  3 30  1  0  0  0
  4  5  1  0  0  0
  4 24  1  0  0  0
  4 25  1  0  0  0
  5  6  1  0  0  0
  5 10  1  0  0  0
  6  7  1  0  0  0
  7  8  1  0  0  0
  8  9  1  0  0  0
  8 14  1  0  0  0
  8 26  1  0  0  0
  9 10  1  0  0  0
  9 11  1  0  0  0
 10 19  1  0  0  0
 11 12  1  0  0  0
 11 31  2  0  0  0
 12 13  2  0  0  0
 13 14  1  0  0  0
 13 18  1  0  0  0
 14 15  1  0  0  0
 14 27  1  0  0  0
 15 16  1  0  0  0
 16 17  1  0  0  0
 17 18  1  0  0  0
 17 23  1  0  0  0
 17 28  1  0  0  0
 18 20  1  0  0  0
 20 21  1  0  0  0
 21 22  1  0  0  0
 21 33  1  0  0  0
 21 29  1  0  0  0
 22 23  1  0  0  0
 33 34  2  0  0  0
 33 35  1  0  0  0
 30 32  1  0  0  0
 35 36  1  0  0  0
M  END
> <minimizedAffinity>
-8.81792

$$$$
4PV5_CBW_A_202


 36 40  0  0  0  0  0  0  0  0999 V2000
    7.5724    4.4971   28.1474 C   0  0  0  0  0  0  0  0  0  0  0  0
    6.0775    4.6823   28.4032 C   0  0  0  0  0  0  0  0  0  0  0  0
    5.2734    3.5754   27.7571 C   0  0  0  0  0  0  0  0  0  0  0  0
    5.4344    3.5174   26.2266 C   0  0  0  0  0  0  0  0  0  0  0  0
    6.6124    4.4657   25.8223 C   0  0  0  0  0  0  0  0  0  0  0  0
    6.9023    4.5192   24.3218 C   0  0  0  0  0  0  0  0  0  0  0  0
    7.6047    5.8374   23.9964 C   0  0  0  0  0  0  0  0  0  0  0  0
    8.9418    6.0040   24.7355 C   0  0  0  0  0  0  0  0  0  0  0  0
    8.7645    5.6787   26.2570 C   0  0  0  0  0  0  0  0  0  0  0  0
    7.9375    4.3924   26.6546 C   0  0  0  0  0  0  0  0  0  0  0  0
   10.0974    5.8535   26.9793 C   0  0  0  0  0  0  0  0  0  0  0  0
   11.0005    6.8878   26.4629 C   0  0  0  0  0  0  0  0  0  0  0  0
   10.7700    7.6380   25.3790 C   0  0  0  0  0  0  0  0  0  0  0  0
    9.4447    7.5010   24.6217 C   0  0  0  0  0  0  0  0  0  0  0  0
    9.5759    7.8802   23.1325 C   0  0  0  0  0  0  0  0  0  0  0  0
   10.5165    9.0388   22.8656 C   0  0  0  0  0  0  0  0  0  0  0  0
   11.9296    8.7851   23.4006 C   0  0  0  0  0  0  0  0  0  0  0  0
   11.8590    8.6196   24.9404 C   0  0  0  0  0  0  0  0  0  0  0  0
    8.7232    3.0834   26.4542 C   0  0  0  0  0  0  0  0  0  0  0  0
   11.7755    9.9586   25.6976 C   0  0  0  0  0  0  0  0  0  0  0  0
   12.9217   10.9442   25.3838 C   0  0  0  0  0  0  0  0  0  0  0  0
   13.7213   10.4521   24.1690 C   0  0  0  0  0  0  0  0  0  0  0  0
   12.8262    9.9786   23.0397 C   0  0  0  0  0  0  0  0  0  0  0  0
    5.5880    2.0620   25.7886 C   0  0  0  0  0  0  0  0  0  0  0  0
    4.1540    4.0490   25.5840 C   0  0  0  0  0  0  0  0  0  0  0  0
    9.9589    5.0565   24.0709 C   0  0  0  0  0  0  0  0  0  0  0  0
    8.4707    8.4873   25.2612 C   0  0  0  0  0  0  0  0  0  0  0  0
   12.5081    7.5195   22.7544 C   0  0  0  0  0  0  0  0  0  0  0  0
   12.3378   12.3344   25.1006 C   0  0  0  0  0  0  0  0  0  0  0  0
    5.6110    2.3228   28.3641 O   0  0  0  0  0  0  0  0  0  0  0  0
   10.4346    5.1731   27.9361 O   0  0  0  0  0  0  0  0  0  0  0  0
    6.5490    2.1307   28.2088 H   0  0  0  0  0  0  0  0  0  0  0  0
   13.9625   11.0602   26.4908 C   0  0  0  0  0  0  0  0  0  0  0  0
   13.6417   11.8316   27.5043 O   0  0  0  0  0  0  0  0  0  0  0  0
   15.0038   10.4282   26.4236 O   0  0  0  0  0  0  0  0  0  0  0  0
   15.1796    9.8931   25.6747 H   0  0  0  0  0  0  0  0  0  0  0  0
  1  2  1  0  0  0
  1 10  1  0  0  0
  2  3  1  0  0  0
  3  4  1  0  0  0
  3 30  1  0  0  0
  4  5  1  0  0  0
  4 24  1  0  0  0
  4 25  1  0  0  0
  5  6  1  0  0  0
  5 10  1  0  0  0
  6  7  1  0  0  0
  7  8  1  0  0  0
  8  9  1  0  0  0
  8 14  1  0  0  0
  8 26  1  0  0  0
  9 10  1  0  0  0
  9 11  1  0  0  0
 10 19  1  0  0  0
 11 12  1  0  0  0
 11 31  2  0  0  0
 12 13  2  0  0  0
 13 14  1  0  0  0
 13 18  1  0  0  0
 14 15  1  0  0  0
 14 27  1  0  0  0
 15 16  1  0  0  0
 16 17  1  0  0  0
 17 18  1  0  0  0
 17 23  1  0  0  0
 17 28  1  0  0  0
 18 20  1  0  0  0
 20 21  1  0  0  0
 21 22  1  0  0  0
 21 33  1  0  0  0
 21 29  1  0  0  0
 22 23  1  0  0  0
 33 34  2  0  0  0
 33 35  1  0  0  0
 30 32  1  0  0  0
 35 36  1  0  0  0
M  END
> <minimizedAffinity>
-8.66315

$$$$
4PV5_CBW_A_202


 36 40  0  0  0  0  0  0  0  0999 V2000
   10.2291    7.1387   26.1124 C   0  0  0  0  0  0  0  0  0  0  0  0
   10.6737    8.6000   26.1491 C   0  0  0  0  0  0  0  0  0  0  0  0
    9.7715    9.4652   25.2967 C   0  0  0  0  0  0  0  0  0  0  0  0
    9.7676    9.0638   23.8098 C   0  0  0  0  0  0  0  0  0  0  0  0
   10.5019    7.6881   23.6726 C   0  0  0  0  0  0  0  0  0  0  0  0
   10.5820    7.1472   22.2445 C   0  0  0  0  0  0  0  0  0  0  0  0
   11.7630    6.1820   22.1425 C   0  0  0  0  0  0  0  0  0  0  0  0
   11.6389    4.9786   23.0902 C   0  0  0  0  0  0  0  0  0  0  0  0
   11.2702    5.4610   24.5337 C   0  0  0  0  0  0  0  0  0  0  0  0
   10.1396    6.5537   24.6903 C   0  0  0  0  0  0  0  0  0  0  0  0
   11.1558    4.2575   25.4649 C   0  0  0  0  0  0  0  0  0  0  0  0
   12.0314    3.1150   25.1821 C   0  0  0  0  0  0  0  0  0  0  0  0
   12.8689    3.0274   24.1421 C   0  0  0  0  0  0  0  0  0  0  0  0
   13.0209    4.2112   23.1807 C   0  0  0  0  0  0  0  0  0  0  0  0
   13.4493    3.7696   21.7664 C   0  0  0  0  0  0  0  0  0  0  0  0
   14.4265    2.6107   21.7454 C   0  0  0  0  0  0  0  0  0  0  0  0
   13.8870    1.3725   22.4688 C   0  0  0  0  0  0  0  0  0  0  0  0
   13.6542    1.7266   23.9601 C   0  0  0  0  0  0  0  0  0  0  0  0
    8.7206    5.9853   24.5049 C   0  0  0  0  0  0  0  0  0  0  0  0
   14.9425    1.7010   24.8044 C   0  0  0  0  0  0  0  0  0  0  0  0
   15.7144    0.3649   24.7545 C   0  0  0  0  0  0  0  0  0  0  0  0
   15.1494   -0.5281   23.6408 C   0  0  0  0  0  0  0  0  0  0  0  0
   14.9116    0.2347   22.3514 C   0  0  0  0  0  0  0  0  0  0  0  0
    8.3348    9.0948   23.2809 C   0  0  0  0  0  0  0  0  0  0  0  0
   10.5611   10.1068   23.0241 C   0  0  0  0  0  0  0  0  0  0  0  0
   10.5570    4.0454   22.5137 C   0  0  0  0  0  0  0  0  0  0  0  0
   14.1343    5.0916   23.7424 C   0  0  0  0  0  0  0  0  0  0  0  0
   12.5731    0.9235   21.8163 C   0  0  0  0  0  0  0  0  0  0  0  0
   17.2019    0.6426   24.5016 C   0  0  0  0  0  0  0  0  0  0  0  0
    8.4470    9.4567   25.8417 O   0  0  0  0  0  0  0  0  0  0  0  0
   10.3739    4.2081   26.4021 O   0  0  0  0  0  0  0  0  0  0  0  0
    8.0933    8.5538   25.8176 H   0  0  0  0  0  0  0  0  0  0  0  0
   15.5756   -0.4808   26.0145 C   0  0  0  0  0  0  0  0  0  0  0  0
   16.6910   -0.9723   26.5039 O   0  0  0  0  0  0  0  0  0  0  0  0
   14.4819   -0.6374   26.5318 O   0  0  0  0  0  0  0  0  0  0  0  0
   13.7191   -0.2628   26.1372 H   0  0  0  0  0  0  0  0  0  0  0  0
  1  2  1  0  0  0
  1 10  1  0  0  0
  2  3  1  0  0  0
  3  4  1  0  0  0
  3 30  1  0  0  0
  4  5  1  0  0  0
  4 24  1  0  0  0
  4 25  1  0  0  0
  5  6  1  0  0  0
  5 10  1  0  0  0
  6  7  1  0  0  0
  7  8  1  0  0  0
  8  9  1  0  0  0
  8 14  1  0  0  0
  8 26  1  0  0  0
  9 10  1  0  0  0
  9 11  1  0  0  0
 10 19  1  0  0  0
 11 12  1  0  0  0
 11 31  2  0  0  0
 12 13  2  0  0  0
 13 14  1  0  0  0
 13 18  1  0  0  0
 14 15  1  0  0  0
 14 27  1  0  0  0
 15 16  1  0  0  0
 16 17  1  0  0  0
 17 18  1  0  0  0
 17 23  1  0  0  0
 17 28  1  0  0  0
 18 20  1  0  0  0
 20 21  1  0  0  0
 21 22  1  0  0  0
 21 33  1  0  0  0
 21 29  1  0  0  0
 22 23  1  0  0  0
 33 34  2  0  0  0
 33 35  1  0  0  0
 30 32  1  0  0  0
 35 36  1  0  0  0
M  END
> <minimizedAffinity>
-8.44373

$$$$
4PV5_CBW_A_202


 36 40  0  0  0  0  0  0  0  0999 V2000
    9.0116    5.5657   23.6217 C   0  0  0  0  0  0  0  0  0  0  0  0
    7.6163    4.9688   23.4450 C   0  0  0  0  0  0  0  0  0  0  0  0
    6.9565    4.7211   24.7838 C   0  0  0  0  0  0  0  0  0  0  0  0
    7.7298    3.7278   25.6710 C   0  0  0  0  0  0  0  0  0  0  0  0
    9.1303    3.4766   25.0183 C   0  0  0  0  0  0  0  0  0  0  0  0
   10.0273    2.5050   25.7863 C   0  0  0  0  0  0  0  0  0  0  0  0
   11.0462    1.8984   24.8216 C   0  0  0  0  0  0  0  0  0  0  0  0
   11.9537    2.9514   24.1662 C   0  0  0  0  0  0  0  0  0  0  0  0
   11.0941    4.1326   23.6023 C   0  0  0  0  0  0  0  0  0  0  0  0
    9.9407    4.7172   24.5103 C   0  0  0  0  0  0  0  0  0  0  0  0
   12.0065    5.1673   22.9499 C   0  0  0  0  0  0  0  0  0  0  0  0
   13.2274    4.6650   22.3103 C   0  0  0  0  0  0  0  0  0  0  0  0
   13.6260    3.3875   22.3115 C   0  0  0  0  0  0  0  0  0  0  0  0
   12.7424    2.3113   22.9517 C   0  0  0  0  0  0  0  0  0  0  0  0
   13.5583    1.1037   23.4567 C   0  0  0  0  0  0  0  0  0  0  0  0
   14.7322    0.7319   22.5724 C   0  0  0  0  0  0  0  0  0  0  0  0
   15.7099    1.8946   22.3722 C   0  0  0  0  0  0  0  0  0  0  0  0
   14.9686    3.0536   21.6575 C   0  0  0  0  0  0  0  0  0  0  0  0
   10.4627    5.6217   25.6420 C   0  0  0  0  0  0  0  0  0  0  0  0
   14.8412    2.8533   20.1354 C   0  0  0  0  0  0  0  0  0  0  0  0
   16.1828    2.6329   19.4040 C   0  0  0  0  0  0  0  0  0  0  0  0
   17.3038    2.3862   20.4236 C   0  0  0  0  0  0  0  0  0  0  0  0
   16.8911    1.4169   21.5149 C   0  0  0  0  0  0  0  0  0  0  0  0
    7.7625    4.2502   27.1061 C   0  0  0  0  0  0  0  0  0  0  0  0
    6.9699    2.4023   25.6908 C   0  0  0  0  0  0  0  0  0  0  0  0
   12.9468    3.4383   25.2389 C   0  0  0  0  0  0  0  0  0  0  0  0
   11.8057    1.8056   21.8575 C   0  0  0  0  0  0  0  0  0  0  0  0
   16.2437    2.3619   23.7325 C   0  0  0  0  0  0  0  0  0  0  0  0
   16.0586    1.4311   18.4584 C   0  0  0  0  0  0  0  0  0  0  0  0
    6.7538    5.9700   25.4550 O   0  0  0  0  0  0  0  0  0  0  0  0
   11.7696    6.3656   22.9531 O   0  0  0  0  0  0  0  0  0  0  0  0
    7.6122    6.3883   25.6257 H   0  0  0  0  0  0  0  0  0  0  0  0
   16.6635    3.8410   18.6092 C   0  0  0  0  0  0  0  0  0  0  0  0
   15.7755    4.7874   18.4066 O   0  0  0  0  0  0  0  0  0  0  0  0
   17.8222    3.9077   18.2337 O   0  0  0  0  0  0  0  0  0  0  0  0
   18.4122    3.2006   18.4067 H   0  0  0  0  0  0  0  0  0  0  0  0
  1  2  1  0  0  0
  1 10  1  0  0  0
  2  3  1  0  0  0
  3  4  1  0  0  0
  3 30  1  0  0  0
  4  5  1  0  0  0
  4 24  1  0  0  0
  4 25  1  0  0  0
  5  6  1  0  0  0
  5 10  1  0  0  0
  6  7  1  0  0  0
  7  8  1  0  0  0
  8  9  1  0  0  0
  8 14  1  0  0  0
  8 26  1  0  0  0
  9 10  1  0  0  0
  9 11  1  0  0  0
 10 19  1  0  0  0
 11 12  1  0  0  0
 11 31  2  0  0  0
 12 13  2  0  0  0
 13 14  1  0  0  0
 13 18  1  0  0  0
 14 15  1  0  0  0
 14 27  1  0  0  0
 15 16  1  0  0  0
 16 17  1  0  0  0
 17 18  1  0  0  0
 17 23  1  0  0  0
 17 28  1  0  0  0
 18 20  1  0  0  0
 20 21  1  0  0  0
 21 22  1  0  0  0
 21 33  1  0  0  0
 21 29  1  0  0  0
 22 23  1  0  0  0
 33 34  2  0  0  0
 33 35  1  0  0  0
 30 32  1  0  0  0
 35 36  1  0  0  0
M  END
> <minimizedAffinity>
-8.40782

$$$$
4PV5_CBW_A_202


 36 40  0  0  0  0  0  0  0  0999 V2000
   14.5914    4.3906   22.2817 C   0  0  0  0  0  0  0  0  0  0  0  0
   14.8894    3.9629   20.8455 C   0  0  0  0  0  0  0  0  0  0  0  0
   15.8214    4.9433   20.1677 C   0  0  0  0  0  0  0  0  0  0  0  0
   15.2439    6.3678   20.0713 C   0  0  0  0  0  0  0  0  0  0  0  0
   13.9570    6.4351   20.9601 C   0  0  0  0  0  0  0  0  0  0  0  0
   13.2604    7.7964   20.9723 C   0  0  0  0  0  0  0  0  0  0  0  0
   11.7907    7.6010   21.3446 C   0  0  0  0  0  0  0  0  0  0  0  0
   11.6015    6.9684   22.7323 C   0  0  0  0  0  0  0  0  0  0  0  0
   12.5207    5.7097   22.8843 C   0  0  0  0  0  0  0  0  0  0  0  0
   14.0202    5.8164   22.3979 C   0  0  0  0  0  0  0  0  0  0  0  0
   12.3188    5.0886   24.2636 C   0  0  0  0  0  0  0  0  0  0  0  0
   10.9792    5.2000   24.8511 C   0  0  0  0  0  0  0  0  0  0  0  0
    9.9499    5.8533   24.2993 C   0  0  0  0  0  0  0  0  0  0  0  0
   10.1028    6.4911   22.9142 C   0  0  0  0  0  0  0  0  0  0  0  0
    9.1594    7.6946   22.7129 C   0  0  0  0  0  0  0  0  0  0  0  0
    7.7961    7.5312   23.3559 C   0  0  0  0  0  0  0  0  0  0  0  0
    7.8838    7.2639   24.8620 C   0  0  0  0  0  0  0  0  0  0  0  0
    8.6419    5.9309   25.0899 C   0  0  0  0  0  0  0  0  0  0  0  0
   14.9165    6.6033   23.3718 C   0  0  0  0  0  0  0  0  0  0  0  0
    7.7624    4.6829   24.8847 C   0  0  0  0  0  0  0  0  0  0  0  0
    6.4851    4.6501   25.7512 C   0  0  0  0  0  0  0  0  0  0  0  0
    6.2599    6.0191   26.4088 C   0  0  0  0  0  0  0  0  0  0  0  0
    6.4642    7.1678   25.4396 C   0  0  0  0  0  0  0  0  0  0  0  0
   16.3329    7.3802   20.4213 C   0  0  0  0  0  0  0  0  0  0  0  0
   14.8350    6.6280   18.6222 C   0  0  0  0  0  0  0  0  0  0  0  0
   11.9407    8.0446   23.7814 C   0  0  0  0  0  0  0  0  0  0  0  0
    9.7089    5.4250   21.8951 C   0  0  0  0  0  0  0  0  0  0  0  0
    8.6202    8.4203   25.5507 C   0  0  0  0  0  0  0  0  0  0  0  0
    5.2809    4.2842   24.8737 C   0  0  0  0  0  0  0  0  0  0  0  0
   17.0879    4.9392   20.8365 O   0  0  0  0  0  0  0  0  0  0  0  0
   13.2110    4.5301   24.8834 O   0  0  0  0  0  0  0  0  0  0  0  0
   16.9705    5.2342   21.7531 H   0  0  0  0  0  0  0  0  0  0  0  0
    6.5550    3.6814   26.9254 C   0  0  0  0  0  0  0  0  0  0  0  0
    6.6574    4.2263   28.1161 O   0  0  0  0  0  0  0  0  0  0  0  0
    6.4776    2.4789   26.7352 O   0  0  0  0  0  0  0  0  0  0  0  0
    6.4062    2.1464   25.8621 H   0  0  0  0  0  0  0  0  0  0  0  0
  1  2  1  0  0  0
  1 10  1  0  0  0
  2  3  1  0  0  0
  3  4  1  0  0  0
  3 30  1  0  0  0
  4  5  1  0  0  0
  4 24  1  0  0  0
  4 25  1  0  0  0
  5  6  1  0  0  0
  5 10  1  0  0  0
  6  7  1  0  0  0
  7  8  1  0  0  0
  8  9  1  0  0  0
  8 14  1  0  0  0
  8 26  1  0  0  0
  9 10  1  0  0  0
  9 11  1  0  0  0
 10 19  1  0  0  0
 11 12  1  0  0  0
 11 31  2  0  0  0
 12 13  2  0  0  0
 13 14  1  0  0  0
 13 18  1  0  0  0
 14 15  1  0  0  0
 14 27  1  0  0  0
 15 16  1  0  0  0
 16 17  1  0  0  0
 17 18  1  0  0  0
 17 23  1  0  0  0
 17 28  1  0  0  0
 18 20  1  0  0  0
 20 21  1  0  0  0
 21 22  1  0  0  0
 21 33  1  0  0  0
 21 29  1  0  0  0
 22 23  1  0  0  0
 33 34  2  0  0  0
 33 35  1  0  0  0
 30 32  1  0  0  0
 35 36  1  0  0  0
M  END
> <minimizedAffinity>
-8.36549

$$$$
4PV5_CBW_A_202


 36 40  0  0  0  0  0  0  0  0999 V2000
    7.5274    6.5394   23.3191 C   0  0  0  0  0  0  0  0  0  0  0  0
    7.2832    5.0312   23.3093 C   0  0  0  0  0  0  0  0  0  0  0  0
    6.5775    4.5857   24.5714 C   0  0  0  0  0  0  0  0  0  0  0  0
    7.3803    4.8737   25.8538 C   0  0  0  0  0  0  0  0  0  0  0  0
    8.5846    5.8010   25.4791 C   0  0  0  0  0  0  0  0  0  0  0  0
    9.4857    6.1827   26.6542 C   0  0  0  0  0  0  0  0  0  0  0  0
   10.8703    6.5516   26.1215 C   0  0  0  0  0  0  0  0  0  0  0  0
   10.8426    7.7418   25.1498 C   0  0  0  0  0  0  0  0  0  0  0  0
    9.7255    7.5358   24.0718 C   0  0  0  0  0  0  0  0  0  0  0  0
    8.3068    7.0331   24.5526 C   0  0  0  0  0  0  0  0  0  0  0  0
    9.7128    8.7213   23.1109 C   0  0  0  0  0  0  0  0  0  0  0  0
   11.0006    9.3702   22.8418 C   0  0  0  0  0  0  0  0  0  0  0  0
   12.1623    9.0417   23.4191 C   0  0  0  0  0  0  0  0  0  0  0  0
   12.2263    7.8567   24.3889 C   0  0  0  0  0  0  0  0  0  0  0  0
   13.3625    8.0021   25.4218 C   0  0  0  0  0  0  0  0  0  0  0  0
   14.6253    8.6366   24.8729 C   0  0  0  0  0  0  0  0  0  0  0  0
   14.3737   10.0223   24.2696 C   0  0  0  0  0  0  0  0  0  0  0  0
   13.3970    9.8773   23.0743 C   0  0  0  0  0  0  0  0  0  0  0  0
    7.4707    8.1376   25.2251 C   0  0  0  0  0  0  0  0  0  0  0  0
   14.0805    9.3995   21.7790 C   0  0  0  0  0  0  0  0  0  0  0  0
   15.2614   10.2796   21.3158 C   0  0  0  0  0  0  0  0  0  0  0  0
   15.6471   11.2689   22.4247 C   0  0  0  0  0  0  0  0  0  0  0  0
   15.7081   10.6126   23.7909 C   0  0  0  0  0  0  0  0  0  0  0  0
    6.4414    5.4240   26.9258 C   0  0  0  0  0  0  0  0  0  0  0  0
    7.9422    3.5540   26.3806 C   0  0  0  0  0  0  0  0  0  0  0  0
   10.5945    9.0137   25.9832 C   0  0  0  0  0  0  0  0  0  0  0  0
   12.5273    6.6185   23.5483 C   0  0  0  0  0  0  0  0  0  0  0  0
   13.7770   10.9502   25.3358 C   0  0  0  0  0  0  0  0  0  0  0  0
   16.4595    9.3865   20.9682 C   0  0  0  0  0  0  0  0  0  0  0  0
    5.2763    5.1815   24.6269 O   0  0  0  0  0  0  0  0  0  0  0  0
    8.6955    9.1448   22.5837 O   0  0  0  0  0  0  0  0  0  0  0  0
    5.3640    6.1467   24.6669 H   0  0  0  0  0  0  0  0  0  0  0  0
   14.9427   11.1686   20.1199 C   0  0  0  0  0  0  0  0  0  0  0  0
   14.8781   12.4580   20.3619 O   0  0  0  0  0  0  0  0  0  0  0  0
   14.8014   10.6796   19.0113 O   0  0  0  0  0  0  0  0  0  0  0  0
   14.8579    9.7511   18.8981 H   0  0  0  0  0  0  0  0  0  0  0  0
  1  2  1  0  0  0
  1 10  1  0  0  0
  2  3  1  0  0  0
  3  4  1  0  0  0
  3 30  1  0  0  0
  4  5  1  0  0  0
  4 24  1  0  0  0
  4 25  1  0  0  0
  5  6  1  0  0  0
  5 10  1  0  0  0
  6  7  1  0  0  0
  7  8  1  0  0  0
  8  9  1  0  0  0
  8 14  1  0  0  0
  8 26  1  0  0  0
  9 10  1  0  0  0
  9 11  1  0  0  0
 10 19  1  0  0  0
 11 12  1  0  0  0
 11 31  2  0  0  0
 12 13  2  0  0  0
 13 14  1  0  0  0
 13 18  1  0  0  0
 14 15  1  0  0  0
 14 27  1  0  0  0
 15 16  1  0  0  0
 16 17  1  0  0  0
 17 18  1  0  0  0
 17 23  1  0  0  0
 17 28  1  0  0  0
 18 20  1  0  0  0
 20 21  1  0  0  0
 21 22  1  0  0  0
 21 33  1  0  0  0
 21 29  1  0  0  0
 22 23  1  0  0  0
 33 34  2  0  0  0
 33 35  1  0  0  0
 30 32  1  0  0  0
 35 36  1  0  0  0
M  END
> <minimizedAffinity>
-8.28437

$$$$
4PV5_CBW_A_202


 36 40  0  0  0  0  0  0  0  0999 V2000
   13.7976    8.5227   24.8655 C   0  0  0  0  0  0  0  0  0  0  0  0
   15.0508    7.9180   24.2343 C   0  0  0  0  0  0  0  0  0  0  0  0
   15.5246    8.7485   23.0616 C   0  0  0  0  0  0  0  0  0  0  0  0
   14.4885    8.8493   21.9267 C   0  0  0  0  0  0  0  0  0  0  0  0
   13.1296    8.2771   22.4526 C   0  0  0  0  0  0  0  0  0  0  0  0
   11.9880    8.3079   21.4356 C   0  0  0  0  0  0  0  0  0  0  0  0
   10.9557    7.2453   21.8126 C   0  0  0  0  0  0  0  0  0  0  0  0
   10.3452    7.4683   23.2052 C   0  0  0  0  0  0  0  0  0  0  0  0
   11.4754    7.7302   24.2571 C   0  0  0  0  0  0  0  0  0  0  0  0
   12.6393    8.7265   23.8708 C   0  0  0  0  0  0  0  0  0  0  0  0
   10.8562    7.9441   25.6353 C   0  0  0  0  0  0  0  0  0  0  0  0
    9.6196    7.2108   25.9275 C   0  0  0  0  0  0  0  0  0  0  0  0
    8.9689    6.4255   25.0612 C   0  0  0  0  0  0  0  0  0  0  0  0
    9.5526    6.1775   23.6660 C   0  0  0  0  0  0  0  0  0  0  0  0
    8.4648    5.8508   22.6224 C   0  0  0  0  0  0  0  0  0  0  0  0
    7.3225    5.0092   23.1565 C   0  0  0  0  0  0  0  0  0  0  0  0
    6.6259    5.6566   24.3579 C   0  0  0  0  0  0  0  0  0  0  0  0
    7.6496    5.7959   25.5139 C   0  0  0  0  0  0  0  0  0  0  0  0
   12.2160   10.2054   23.9399 C   0  0  0  0  0  0  0  0  0  0  0  0
    7.8673    4.4893   26.3004 C   0  0  0  0  0  0  0  0  0  0  0  0
    6.5791    3.8723   26.8863 C   0  0  0  0  0  0  0  0  0  0  0  0
    5.3456    4.5717   26.2977 C   0  0  0  0  0  0  0  0  0  0  0  0
    5.4524    4.7690   24.7976 C   0  0  0  0  0  0  0  0  0  0  0  0
   14.4369   10.2877   21.4147 C   0  0  0  0  0  0  0  0  0  0  0  0
   14.9554    7.9736   20.7649 C   0  0  0  0  0  0  0  0  0  0  0  0
    9.3823    8.6666   23.1017 C   0  0  0  0  0  0  0  0  0  0  0  0
   10.4586    4.9543   23.7812 C   0  0  0  0  0  0  0  0  0  0  0  0
    6.0812    7.0344   23.9595 C   0  0  0  0  0  0  0  0  0  0  0  0
    6.5372    2.3731   26.5634 C   0  0  0  0  0  0  0  0  0  0  0  0
   15.9191   10.0457   23.5233 O   0  0  0  0  0  0  0  0  0  0  0  0
   11.3327    8.6930   26.4744 O   0  0  0  0  0  0  0  0  0  0  0  0
   15.1532   10.4978   23.9104 H   0  0  0  0  0  0  0  0  0  0  0  0
    6.4288    4.0593   28.3912 C   0  0  0  0  0  0  0  0  0  0  0  0
    5.3815    3.4879   28.9407 O   0  0  0  0  0  0  0  0  0  0  0  0
    7.2722    4.6761   29.0208 O   0  0  0  0  0  0  0  0  0  0  0  0
    7.9995    5.0635   28.5748 H   0  0  0  0  0  0  0  0  0  0  0  0
  1  2  1  0  0  0
  1 10  1  0  0  0
  2  3  1  0  0  0
  3  4  1  0  0  0
  3 30  1  0  0  0
  4  5  1  0  0  0
  4 24  1  0  0  0
  4 25  1  0  0  0
  5  6  1  0  0  0
  5 10  1  0  0  0
  6  7  1  0  0  0
  7  8  1  0  0  0
  8  9  1  0  0  0
  8 14  1  0  0  0
  8 26  1  0  0  0
  9 10  1  0  0  0
  9 11  1  0  0  0
 10 19  1  0  0  0
 11 12  1  0  0  0
 11 31  2  0  0  0
 12 13  2  0  0  0
 13 14  1  0  0  0
 13 18  1  0  0  0
 14 15  1  0  0  0
 14 27  1  0  0  0
 15 16  1  0  0  0
 16 17  1  0  0  0
 17 18  1  0  0  0
 17 23  1  0  0  0
 17 28  1  0  0  0
 18 20  1  0  0  0
 20 21  1  0  0  0
 21 22  1  0  0  0
 21 33  1  0  0  0
 21 29  1  0  0  0
 22 23  1  0  0  0
 33 34  2  0  0  0
 33 35  1  0  0  0
 30 32  1  0  0  0
 35 36  1  0  0  0
M  END
> <minimizedAffinity>
-8.04266

$$$$
4PV5_CBW_A_202


 36 40  0  0  0  0  0  0  0  0999 V2000
    9.8261    7.1498   22.0237 C   0  0  0  0  0  0  0  0  0  0  0  0
   10.1784    5.6721   21.8601 C   0  0  0  0  0  0  0  0  0  0  0  0
    9.0703    4.7867   22.3868 C   0  0  0  0  0  0  0  0  0  0  0  0
    8.7887    4.9885   23.8874 C   0  0  0  0  0  0  0  0  0  0  0  0
    9.5627    6.2633   24.3632 C   0  0  0  0  0  0  0  0  0  0  0  0
    9.3837    6.6031   25.8434 C   0  0  0  0  0  0  0  0  0  0  0  0
   10.5762    7.4373   26.3113 C   0  0  0  0  0  0  0  0  0  0  0  0
   10.7215    8.7608   25.5437 C   0  0  0  0  0  0  0  0  0  0  0  0
   10.6252    8.5065   24.0015 C   0  0  0  0  0  0  0  0  0  0  0  0
    9.4853    7.5491   23.4718 C   0  0  0  0  0  0  0  0  0  0  0  0
   10.7766    9.8271   23.2518 C   0  0  0  0  0  0  0  0  0  0  0  0
   11.6448   10.8399   23.8621 C   0  0  0  0  0  0  0  0  0  0  0  0
   12.2570   10.7153   25.0454 C   0  0  0  0  0  0  0  0  0  0  0  0
   12.1374    9.4070   25.8345 C   0  0  0  0  0  0  0  0  0  0  0  0
   12.2954    9.6195   27.3540 C   0  0  0  0  0  0  0  0  0  0  0  0
   13.3172   10.6737   27.7321 C   0  0  0  0  0  0  0  0  0  0  0  0
   13.0130   12.0392   27.1072 C   0  0  0  0  0  0  0  0  0  0  0  0
   13.0672   11.9057   25.5636 C   0  0  0  0  0  0  0  0  0  0  0  0
    8.0958    8.2126   23.4612 C   0  0  0  0  0  0  0  0  0  0  0  0
   14.4994   11.9267   24.9965 C   0  0  0  0  0  0  0  0  0  0  0  0
   15.3254   13.1704   25.3891 C   0  0  0  0  0  0  0  0  0  0  0  0
   14.6015   13.9567   26.4914 C   0  0  0  0  0  0  0  0  0  0  0  0
   14.0601   13.0558   27.5850 C   0  0  0  0  0  0  0  0  0  0  0  0
    7.2791    5.0165   24.1199 C   0  0  0  0  0  0  0  0  0  0  0  0
    9.3403    3.7850   24.6503 C   0  0  0  0  0  0  0  0  0  0  0  0
    9.6042    9.7031   26.0309 C   0  0  0  0  0  0  0  0  0  0  0  0
   13.2856    8.5119   25.3755 C   0  0  0  0  0  0  0  0  0  0  0  0
   11.6239   12.5143   27.5527 C   0  0  0  0  0  0  0  0  0  0  0  0
   16.7105   12.7304   25.8806 C   0  0  0  0  0  0  0  0  0  0  0  0
    7.8874    4.9848   21.6038 O   0  0  0  0  0  0  0  0  0  0  0  0
   10.2062   10.0684   22.1989 O   0  0  0  0  0  0  0  0  0  0  0  0
    7.5922    5.9046   21.6911 H   0  0  0  0  0  0  0  0  0  0  0  0
   15.4979   14.1830   24.2634 C   0  0  0  0  0  0  0  0  0  0  0  0
   14.5558   14.1926   23.3482 O   0  0  0  0  0  0  0  0  0  0  0  0
   16.4469   14.9495   24.2667 O   0  0  0  0  0  0  0  0  0  0  0  0
   17.0897   14.8963   24.9463 H   0  0  0  0  0  0  0  0  0  0  0  0
  1  2  1  0  0  0
  1 10  1  0  0  0
  2  3  1  0  0  0
  3  4  1  0  0  0
  3 30  1  0  0  0
  4  5  1  0  0  0
  4 24  1  0  0  0
  4 25  1  0  0  0
  5  6  1  0  0  0
  5 10  1  0  0  0
  6  7  1  0  0  0
  7  8  1  0  0  0
  8  9  1  0  0  0
  8 14  1  0  0  0
  8 26  1  0  0  0
  9 10  1  0  0  0
  9 11  1  0  0  0
 10 19  1  0  0  0
 11 12  1  0  0  0
 11 31  2  0  0  0
 12 13  2  0  0  0
 13 14  1  0  0  0
 13 18  1  0  0  0
 14 15  1  0  0  0
 14 27  1  0  0  0
 15 16  1  0  0  0
 16 17  1  0  0  0
 17 18  1  0  0  0
 17 23  1  0  0  0
 17 28  1  0  0  0
 18 20  1  0  0  0
 20 21  1  0  0  0
 21 22  1  0  0  0
 21 33  1  0  0  0
 21 29  1  0  0  0
 22 23  1  0  0  0
 33 34  2  0  0  0
 33 35  1  0  0  0
 30 32  1  0  0  0
 35 36  1  0  0  0
M  END
> <minimizedAffinity>
-8.04242

$$$$
4PV5_CBW_A_202


 36 40  0  0  0  0  0  0  0  0999 V2000
   14.6156   -0.0767   24.9860 C   0  0  0  0  0  0  0  0  0  0  0  0
   15.2073   -0.5321   23.6529 C   0  0  0  0  0  0  0  0  0  0  0  0
   16.6312   -0.0457   23.4947 C   0  0  0  0  0  0  0  0  0  0  0  0
   16.7572    1.4892   23.5086 C   0  0  0  0  0  0  0  0  0  0  0  0
   15.3837    2.0886   23.9612 C   0  0  0  0  0  0  0  0  0  0  0  0
   15.3450    3.6159   24.0279 C   0  0  0  0  0  0  0  0  0  0  0  0
   13.8963    4.0843   23.8919 C   0  0  0  0  0  0  0  0  0  0  0  0
   12.9839    3.5461   25.0053 C   0  0  0  0  0  0  0  0  0  0  0  0
   13.1926    2.0038   25.1792 C   0  0  0  0  0  0  0  0  0  0  0  0
   14.6714    1.4476   25.2003 C   0  0  0  0  0  0  0  0  0  0  0  0
   12.2773    1.4819   26.2831 C   0  0  0  0  0  0  0  0  0  0  0  0
   10.9853    2.1570   26.4472 C   0  0  0  0  0  0  0  0  0  0  0  0
   10.5817    3.2247   25.7487 C   0  0  0  0  0  0  0  0  0  0  0  0
   11.4648    3.7837   24.6278 C   0  0  0  0  0  0  0  0  0  0  0  0
   11.2309    5.2896   24.3899 C   0  0  0  0  0  0  0  0  0  0  0  0
    9.7877    5.7275   24.5449 C   0  0  0  0  0  0  0  0  0  0  0  0
    9.2139    5.3865   25.9240 C   0  0  0  0  0  0  0  0  0  0  0  0
    9.2299    3.8469   26.1053 C   0  0  0  0  0  0  0  0  0  0  0  0
   15.3955    1.7080   26.5341 C   0  0  0  0  0  0  0  0  0  0  0  0
    8.0578    3.1350   25.4034 C   0  0  0  0  0  0  0  0  0  0  0  0
    6.6598    3.6418   25.8185 C   0  0  0  0  0  0  0  0  0  0  0  0
    6.7896    4.9377   26.6316 C   0  0  0  0  0  0  0  0  0  0  0  0
    7.7740    5.9126   26.0141 C   0  0  0  0  0  0  0  0  0  0  0  0
   17.9582    1.8907   24.3628 C   0  0  0  0  0  0  0  0  0  0  0  0
   17.0376    1.9654   22.0840 C   0  0  0  0  0  0  0  0  0  0  0  0
   13.3298    4.3112   26.2971 C   0  0  0  0  0  0  0  0  0  0  0  0
   11.0662    3.0508   23.3494 C   0  0  0  0  0  0  0  0  0  0  0  0
   10.0554    6.0604   27.0156 C   0  0  0  0  0  0  0  0  0  0  0  0
    5.8128    3.8913   24.5638 C   0  0  0  0  0  0  0  0  0  0  0  0
   17.4554   -0.6449   24.5012 O   0  0  0  0  0  0  0  0  0  0  0  0
   12.5795    0.5574   27.0220 O   0  0  0  0  0  0  0  0  0  0  0  0
   17.1480   -0.3672   25.3783 H   0  0  0  0  0  0  0  0  0  0  0  0
    5.9055    2.6962   26.7454 C   0  0  0  0  0  0  0  0  0  0  0  0
    5.8324    3.0614   28.0050 O   0  0  0  0  0  0  0  0  0  0  0  0
    5.3803    1.6891   26.3006 O   0  0  0  0  0  0  0  0  0  0  0  0
    5.4662    1.4783   25.3916 H   0  0  0  0  0  0  0  0  0  0  0  0
  1  2  1  0  0  0
  1 10  1  0  0  0
  2  3  1  0  0  0
  3  4  1  0  0  0
  3 30  1  0  0  0
  4  5  1  0  0  0
  4 24  1  0  0  0
  4 25  1  0  0  0
  5  6  1  0  0  0
  5 10  1  0  0  0
  6  7  1  0  0  0
  7  8  1  0  0  0
  8  9  1  0  0  0
  8 14  1  0  0  0
  8 26  1  0  0  0
  9 10  1  0  0  0
  9 11  1  0  0  0
 10 19  1  0  0  0
 11 12  1  0  0  0
 11 31  2  0  0  0
 12 13  2  0  0  0
 13 14  1  0  0  0
 13 18  1  0  0  0
 14 15  1  0  0  0
 14 27  1  0  0  0
 15 16  1  0  0  0
 16 17  1  0  0  0
 17 18  1  0  0  0
 17 23  1  0  0  0
 17 28  1  0  0  0
 18 20  1  0  0  0
 20 21  1  0  0  0
 21 22  1  0  0  0
 21 33  1  0  0  0
 21 29  1  0  0  0
 22 23  1  0  0  0
 33 34  2  0  0  0
 33 35  1  0  0  0
 30 32  1  0  0  0
 35 36  1  0  0  0
M  END
> <minimizedAffinity>
-7.82070

$$$$
