2F9K_ZOL_F_9001


 21 21  0  0  0  0  0  0  0  0999 V2000
   15.2018   78.3632   25.7750 C   0  0  0  0  0  0  0  0  0  0  0  0
   15.5874   78.2271   24.3970 O   0  0  0  0  0  0  0  0  0  0  0  0
   16.5532   78.2801   24.3248 H   0  0  0  0  0  0  0  0  0  0  0  0
   16.9750   79.9421   27.1623 O   0  0  0  0  0  0  0  0  0  0  0  0
   15.7375   80.0123   26.3380 P   0  0  0  0  0  0  0  0  0  0  0  0
   15.9523   80.9096   25.0492 O   0  0  0  0  0  0  0  0  0  0  0  0
   14.4892   80.6547   27.0900 O   0  0  0  0  0  0  0  0  0  0  0  0
   17.2281   80.8357   27.4423 H   0  0  0  0  0  0  0  0  0  0  0  0
   16.2388   81.7968   25.3170 H   0  0  0  0  0  0  0  0  0  0  0  0
   16.0505   77.1132   26.7860 P   0  0  0  0  0  0  0  0  0  0  0  0
   15.6988   75.6968   26.1256 O   0  0  0  0  0  0  0  0  0  0  0  0
   17.5889   77.3080   26.4422 O   0  0  0  0  0  0  0  0  0  0  0  0
   15.7707   77.2227   28.2385 O   0  0  0  0  0  0  0  0  0  0  0  0
   15.9136   75.7186   25.1800 H   0  0  0  0  0  0  0  0  0  0  0  0
   17.7189   77.2276   25.4843 H   0  0  0  0  0  0  0  0  0  0  0  0
   13.6555   78.2850   25.9466 C   0  0  0  0  0  0  0  0  0  0  0  0
   12.8804   77.6303   24.8905 N   0  0  0  0  0  0  0  0  0  0  0  0
   12.8369   76.3526   24.6283 C   0  0  0  0  0  0  0  0  0  0  0  0
   12.0830   76.1618   23.6495 N   0  0  0  0  0  0  0  0  0  0  0  0
   11.5434   77.4110   23.1745 C   0  0  0  0  0  0  0  0  0  0  0  0
   12.1098   78.2853   24.0366 C   0  0  0  0  0  0  0  0  0  0  0  0
  4  5  1  0  0  0
  5  6  1  0  0  0
  5  7  2  0  0  0
  5  1  1  0  0  0
  1 10  1  0  0  0
  1  2  1  0  0  0
  1 16  1  0  0  0
 10 11  1  0  0  0
 10 12  1  0  0  0
 10 13  2  0  0  0
 16 17  1  0  0  0
 17 18  1  0  0  0
 17 21  1  0  0  0
 18 19  2  0  0  0
 19 20  1  0  0  0
 20 21  2  0  0  0
  4  8  1  0  0  0
  6  9  1  0  0  0
 11 14  1  0  0  0
 12 15  1  0  0  0
  2  3  1  0  0  0
M  END
> <minimizedAffinity>
-7.96299

$$$$
2F9K_ZOL_F_9001


 21 21  0  0  0  0  0  0  0  0999 V2000
   14.9570   78.9373   25.5200 C   0  0  0  0  0  0  0  0  0  0  0  0
   15.4215   78.4871   24.2364 O   0  0  0  0  0  0  0  0  0  0  0  0
   16.3171   78.8252   24.0798 H   0  0  0  0  0  0  0  0  0  0  0  0
   14.7865   81.3433   26.8408 O   0  0  0  0  0  0  0  0  0  0  0  0
   14.8916   80.7586   25.4758 P   0  0  0  0  0  0  0  0  0  0  0  0
   16.1954   81.2647   24.7299 O   0  0  0  0  0  0  0  0  0  0  0  0
   13.6842   81.1388   24.5094 O   0  0  0  0  0  0  0  0  0  0  0  0
   14.7542   82.3106   26.7767 H   0  0  0  0  0  0  0  0  0  0  0  0
   16.1896   82.2338   24.6903 H   0  0  0  0  0  0  0  0  0  0  0  0
   16.1309   78.4413   26.8165 P   0  0  0  0  0  0  0  0  0  0  0  0
   17.1970   77.4810   26.1044 O   0  0  0  0  0  0  0  0  0  0  0  0
   16.9651   79.7592   27.1167 O   0  0  0  0  0  0  0  0  0  0  0  0
   15.4865   77.8834   28.0305 O   0  0  0  0  0  0  0  0  0  0  0  0
   17.5639   77.9269   25.3250 H   0  0  0  0  0  0  0  0  0  0  0  0
   17.3648   80.0831   26.2944 H   0  0  0  0  0  0  0  0  0  0  0  0
   13.5188   78.4204   25.8214 C   0  0  0  0  0  0  0  0  0  0  0  0
   12.8586   77.5980   24.8054 N   0  0  0  0  0  0  0  0  0  0  0  0
   13.0313   76.3213   24.5976 C   0  0  0  0  0  0  0  0  0  0  0  0
   12.3136   75.9625   23.6389 N   0  0  0  0  0  0  0  0  0  0  0  0
   11.5655   77.0800   23.1201 C   0  0  0  0  0  0  0  0  0  0  0  0
   11.9813   78.0746   23.9363 C   0  0  0  0  0  0  0  0  0  0  0  0
  4  5  1  0  0  0
  5  6  1  0  0  0
  5  7  2  0  0  0
  5  1  1  0  0  0
  1 10  1  0  0  0
  1  2  1  0  0  0
  1 16  1  0  0  0
 10 11  1  0  0  0
 10 12  1  0  0  0
 10 13  2  0  0  0
 16 17  1  0  0  0
 17 18  1  0  0  0
 17 21  1  0  0  0
 18 19  2  0  0  0
 19 20  1  0  0  0
 20 21  2  0  0  0
  4  8  1  0  0  0
  6  9  1  0  0  0
 11 14  1  0  0  0
 12 15  1  0  0  0
  2  3  1  0  0  0
M  END
> <minimizedAffinity>
-7.93332

$$$$
2F9K_ZOL_F_9001


 21 21  0  0  0  0  0  0  0  0999 V2000
   15.0506   77.2391   25.8569 C   0  0  0  0  0  0  0  0  0  0  0  0
   13.7985   77.4878   26.5175 O   0  0  0  0  0  0  0  0  0  0  0  0
   13.5942   76.7490   27.1119 H   0  0  0  0  0  0  0  0  0  0  0  0
   14.7782   74.5067   25.7090 O   0  0  0  0  0  0  0  0  0  0  0  0
   14.8572   75.7260   24.8586 P   0  0  0  0  0  0  0  0  0  0  0  0
   13.5520   75.9003   23.9765 O   0  0  0  0  0  0  0  0  0  0  0  0
   16.0646   75.7189   23.8200 O   0  0  0  0  0  0  0  0  0  0  0  0
   14.6760   73.7247   25.1442 H   0  0  0  0  0  0  0  0  0  0  0  0
   13.4216   75.1082   23.4320 H   0  0  0  0  0  0  0  0  0  0  0  0
   16.3568   76.9463   27.0869 P   0  0  0  0  0  0  0  0  0  0  0  0
   15.6250   76.3285   28.3709 O   0  0  0  0  0  0  0  0  0  0  0  0
   17.1775   75.7177   26.5040 O   0  0  0  0  0  0  0  0  0  0  0  0
   17.2104   78.1302   27.3519 O   0  0  0  0  0  0  0  0  0  0  0  0
   15.0928   75.5632   28.1027 H   0  0  0  0  0  0  0  0  0  0  0  0
   16.5767   74.9722   26.3485 H   0  0  0  0  0  0  0  0  0  0  0  0
   15.4263   78.3993   24.8877 C   0  0  0  0  0  0  0  0  0  0  0  0
   14.9282   79.7410   25.1982 N   0  0  0  0  0  0  0  0  0  0  0  0
   13.7587   80.2326   24.8920 C   0  0  0  0  0  0  0  0  0  0  0  0
   13.6903   81.4110   25.3039 N   0  0  0  0  0  0  0  0  0  0  0  0
   14.9163   81.7904   25.9599 C   0  0  0  0  0  0  0  0  0  0  0  0
   15.6384   80.6532   25.8429 C   0  0  0  0  0  0  0  0  0  0  0  0
  4  5  1  0  0  0
  5  6  1  0  0  0
  5  7  2  0  0  0
  5  1  1  0  0  0
  1 10  1  0  0  0
  1  2  1  0  0  0
  1 16  1  0  0  0
 10 11  1  0  0  0
 10 12  1  0  0  0
 10 13  2  0  0  0
 16 17  1  0  0  0
 17 18  1  0  0  0
 17 21  1  0  0  0
 18 19  2  0  0  0
 19 20  1  0  0  0
 20 21  2  0  0  0
  4  8  1  0  0  0
  6  9  1  0  0  0
 11 14  1  0  0  0
 12 15  1  0  0  0
  2  3  1  0  0  0
M  END
> <minimizedAffinity>
-7.67793

$$$$
2F9K_ZOL_F_9001


 21 21  0  0  0  0  0  0  0  0999 V2000
   15.2933   76.5088   25.3627 C   0  0  0  0  0  0  0  0  0  0  0  0
   15.8776   77.0196   24.1529 O   0  0  0  0  0  0  0  0  0  0  0  0
   15.8371   77.9887   24.1584 H   0  0  0  0  0  0  0  0  0  0  0  0
   12.6521   75.9688   24.8200 O   0  0  0  0  0  0  0  0  0  0  0  0
   13.5429   77.0175   25.3881 P   0  0  0  0  0  0  0  0  0  0  0  0
   13.1632   77.3450   26.8917 O   0  0  0  0  0  0  0  0  0  0  0  0
   13.4727   78.4146   24.6266 O   0  0  0  0  0  0  0  0  0  0  0  0
   11.7321   76.2748   24.8505 H   0  0  0  0  0  0  0  0  0  0  0  0
   12.2341   77.6197   26.9381 H   0  0  0  0  0  0  0  0  0  0  0  0
   16.1187   77.2374   26.8094 P   0  0  0  0  0  0  0  0  0  0  0  0
   17.6823   77.2595   26.4622 O   0  0  0  0  0  0  0  0  0  0  0  0
   15.7097   78.7715   26.7641 O   0  0  0  0  0  0  0  0  0  0  0  0
   15.7637   76.5885   28.0951 O   0  0  0  0  0  0  0  0  0  0  0  0
   17.8179   77.7006   25.6089 H   0  0  0  0  0  0  0  0  0  0  0  0
   15.9621   79.1483   25.9066 H   0  0  0  0  0  0  0  0  0  0  0  0
   15.3332   74.9522   25.4043 C   0  0  0  0  0  0  0  0  0  0  0  0
   16.5214   74.2820   24.8716 N   0  0  0  0  0  0  0  0  0  0  0  0
   16.7823   74.0291   23.6182 C   0  0  0  0  0  0  0  0  0  0  0  0
   17.8780   73.4321   23.5412 N   0  0  0  0  0  0  0  0  0  0  0  0
   18.4458   73.2442   24.8526 C   0  0  0  0  0  0  0  0  0  0  0  0
   17.5053   73.8261   25.6307 C   0  0  0  0  0  0  0  0  0  0  0  0
  4  5  1  0  0  0
  5  6  1  0  0  0
  5  7  2  0  0  0
  5  1  1  0  0  0
  1 10  1  0  0  0
  1  2  1  0  0  0
  1 16  1  0  0  0
 10 11  1  0  0  0
 10 12  1  0  0  0
 10 13  2  0  0  0
 16 17  1  0  0  0
 17 18  1  0  0  0
 17 21  1  0  0  0
 18 19  2  0  0  0
 19 20  1  0  0  0
 20 21  2  0  0  0
  4  8  1  0  0  0
  6  9  1  0  0  0
 11 14  1  0  0  0
 12 15  1  0  0  0
  2  3  1  0  0  0
M  END
> <minimizedAffinity>
-7.63497

$$$$
2F9K_ZOL_F_9001


 21 21  0  0  0  0  0  0  0  0999 V2000
   14.7483   77.5290   26.2873 C   0  0  0  0  0  0  0  0  0  0  0  0
   13.7925   77.1060   27.2741 O   0  0  0  0  0  0  0  0  0  0  0  0
   14.1866   76.4167   27.8312 H   0  0  0  0  0  0  0  0  0  0  0  0
   13.9211   75.2891   24.9232 O   0  0  0  0  0  0  0  0  0  0  0  0
   15.1367   76.0873   25.2413 P   0  0  0  0  0  0  0  0  0  0  0  0
   15.8336   76.6277   23.9242 O   0  0  0  0  0  0  0  0  0  0  0  0
   16.2696   75.2716   26.0079 O   0  0  0  0  0  0  0  0  0  0  0  0
   14.1670   74.5333   24.3671 H   0  0  0  0  0  0  0  0  0  0  0  0
   16.0532   75.8812   23.3451 H   0  0  0  0  0  0  0  0  0  0  0  0
   16.2816   78.0734   27.0981 P   0  0  0  0  0  0  0  0  0  0  0  0
   16.5035   77.0819   28.3365 O   0  0  0  0  0  0  0  0  0  0  0  0
   17.4314   77.6587   26.0837 O   0  0  0  0  0  0  0  0  0  0  0  0
   16.3062   79.5188   27.4306 O   0  0  0  0  0  0  0  0  0  0  0  0
   16.4716   76.1638   28.0254 H   0  0  0  0  0  0  0  0  0  0  0  0
   17.3723   76.7082   25.8991 H   0  0  0  0  0  0  0  0  0  0  0  0
   14.1637   78.6387   25.3636 C   0  0  0  0  0  0  0  0  0  0  0  0
   12.7087   78.7094   25.2126 N   0  0  0  0  0  0  0  0  0  0  0  0
   11.9969   78.2078   24.2406 C   0  0  0  0  0  0  0  0  0  0  0  0
   10.7916   78.4760   24.4363 N   0  0  0  0  0  0  0  0  0  0  0  0
   10.6321   79.2333   25.6523 C   0  0  0  0  0  0  0  0  0  0  0  0
   11.9136   79.3244   26.0738 C   0  0  0  0  0  0  0  0  0  0  0  0
  4  5  1  0  0  0
  5  6  1  0  0  0
  5  7  2  0  0  0
  5  1  1  0  0  0
  1 10  1  0  0  0
  1  2  1  0  0  0
  1 16  1  0  0  0
 10 11  1  0  0  0
 10 12  1  0  0  0
 10 13  2  0  0  0
 16 17  1  0  0  0
 17 18  1  0  0  0
 17 21  1  0  0  0
 18 19  2  0  0  0
 19 20  1  0  0  0
 20 21  2  0  0  0
  4  8  1  0  0  0
  6  9  1  0  0  0
 11 14  1  0  0  0
 12 15  1  0  0  0
  2  3  1  0  0  0
M  END
> <minimizedAffinity>
-7.45159

$$$$
2F9K_ZOL_F_9001


 21 21  0  0  0  0  0  0  0  0999 V2000
   13.8412   77.8660   25.9517 C   0  0  0  0  0  0  0  0  0  0  0  0
   12.8779   77.3338   26.8763 O   0  0  0  0  0  0  0  0  0  0  0  0
   13.0248   77.7196   27.7541 H   0  0  0  0  0  0  0  0  0  0  0  0
   16.5394   78.3607   26.1442 O   0  0  0  0  0  0  0  0  0  0  0  0
   15.4967   77.3724   26.5341 P   0  0  0  0  0  0  0  0  0  0  0  0
   15.4184   77.2064   28.1085 O   0  0  0  0  0  0  0  0  0  0  0  0
   15.7483   75.9036   25.9720 O   0  0  0  0  0  0  0  0  0  0  0  0
   17.4036   78.0647   26.4706 H   0  0  0  0  0  0  0  0  0  0  0  0
   16.2875   76.9431   28.4495 H   0  0  0  0  0  0  0  0  0  0  0  0
   13.7592   79.6820   25.9427 P   0  0  0  0  0  0  0  0  0  0  0  0
   12.2064   80.0555   26.0674 O   0  0  0  0  0  0  0  0  0  0  0  0
   14.3551   80.1096   27.3515 O   0  0  0  0  0  0  0  0  0  0  0  0
   14.4732   80.3111   24.8049 O   0  0  0  0  0  0  0  0  0  0  0  0
   11.8252   79.6010   26.8349 H   0  0  0  0  0  0  0  0  0  0  0  0
   13.8558   79.6733   28.0596 H   0  0  0  0  0  0  0  0  0  0  0  0
   13.6484   77.2768   24.5227 C   0  0  0  0  0  0  0  0  0  0  0  0
   12.2834   77.1706   24.0029 N   0  0  0  0  0  0  0  0  0  0  0  0
   11.6598   78.0403   23.2560 C   0  0  0  0  0  0  0  0  0  0  0  0
   10.5060   77.6218   23.0181 N   0  0  0  0  0  0  0  0  0  0  0  0
   10.2902   76.3443   23.6497 C   0  0  0  0  0  0  0  0  0  0  0  0
   11.4858   76.1432   24.2484 C   0  0  0  0  0  0  0  0  0  0  0  0
  4  5  1  0  0  0
  5  6  1  0  0  0
  5  7  2  0  0  0
  5  1  1  0  0  0
  1 10  1  0  0  0
  1  2  1  0  0  0
  1 16  1  0  0  0
 10 11  1  0  0  0
 10 12  1  0  0  0
 10 13  2  0  0  0
 16 17  1  0  0  0
 17 18  1  0  0  0
 17 21  1  0  0  0
 18 19  2  0  0  0
 19 20  1  0  0  0
 20 21  2  0  0  0
  4  8  1  0  0  0
  6  9  1  0  0  0
 11 14  1  0  0  0
 12 15  1  0  0  0
  2  3  1  0  0  0
M  END
> <minimizedAffinity>
-7.41614

$$$$
2F9K_ZOL_F_9001


 21 21  0  0  0  0  0  0  0  0999 V2000
   12.7520   77.4435   24.8747 C   0  0  0  0  0  0  0  0  0  0  0  0
   12.5603   76.4468   25.8924 O   0  0  0  0  0  0  0  0  0  0  0  0
   11.6626   76.5209   26.2526 H   0  0  0  0  0  0  0  0  0  0  0  0
   13.2671   79.1377   26.9787 O   0  0  0  0  0  0  0  0  0  0  0  0
   12.5745   79.0780   25.6623 P   0  0  0  0  0  0  0  0  0  0  0  0
   13.1529   80.1575   24.6561 O   0  0  0  0  0  0  0  0  0  0  0  0
   11.0108   79.3713   25.7349 O   0  0  0  0  0  0  0  0  0  0  0  0
   13.1507   80.0196   27.3655 H   0  0  0  0  0  0  0  0  0  0  0  0
   13.0723   81.0410   25.0483 H   0  0  0  0  0  0  0  0  0  0  0  0
   11.4682   77.2849   23.5974 P   0  0  0  0  0  0  0  0  0  0  0  0
   10.0922   77.0416   24.3807 O   0  0  0  0  0  0  0  0  0  0  0  0
   11.3068   78.7548   23.0174 O   0  0  0  0  0  0  0  0  0  0  0  0
   11.7846   76.2869   22.5466 O   0  0  0  0  0  0  0  0  0  0  0  0
    9.9701   77.7388   25.0440 H   0  0  0  0  0  0  0  0  0  0  0  0
   11.1013   79.3671   23.7411 H   0  0  0  0  0  0  0  0  0  0  0  0
   14.1820   77.3675   24.2619 C   0  0  0  0  0  0  0  0  0  0  0  0
   15.1272   76.4113   24.8424 N   0  0  0  0  0  0  0  0  0  0  0  0
   15.8473   76.5765   25.9181 C   0  0  0  0  0  0  0  0  0  0  0  0
   16.5483   75.5576   26.1011 N   0  0  0  0  0  0  0  0  0  0  0  0
   16.3057   74.5834   25.0669 C   0  0  0  0  0  0  0  0  0  0  0  0
   15.3800   75.2230   24.3170 C   0  0  0  0  0  0  0  0  0  0  0  0
  4  5  1  0  0  0
  5  6  1  0  0  0
  5  7  2  0  0  0
  5  1  1  0  0  0
  1 10  1  0  0  0
  1  2  1  0  0  0
  1 16  1  0  0  0
 10 11  1  0  0  0
 10 12  1  0  0  0
 10 13  2  0  0  0
 16 17  1  0  0  0
 17 18  1  0  0  0
 17 21  1  0  0  0
 18 19  2  0  0  0
 19 20  1  0  0  0
 20 21  2  0  0  0
  4  8  1  0  0  0
  6  9  1  0  0  0
 11 14  1  0  0  0
 12 15  1  0  0  0
  2  3  1  0  0  0
M  END
> <minimizedAffinity>
-7.28901

$$$$
2F9K_ZOL_F_9001


 21 21  0  0  0  0  0  0  0  0999 V2000
   13.3106   77.9661   25.5377 C   0  0  0  0  0  0  0  0  0  0  0  0
   13.1793   77.3059   26.8077 O   0  0  0  0  0  0  0  0  0  0  0  0
   12.2889   77.4584   27.1609 H   0  0  0  0  0  0  0  0  0  0  0  0
   13.5428   80.5584   24.6499 O   0  0  0  0  0  0  0  0  0  0  0  0
   13.0954   79.7542   25.8200 P   0  0  0  0  0  0  0  0  0  0  0  0
   11.5638   80.0053   26.1415 O   0  0  0  0  0  0  0  0  0  0  0  0
   13.8658   80.0885   27.1733 O   0  0  0  0  0  0  0  0  0  0  0  0
   13.4133   81.5013   24.8371 H   0  0  0  0  0  0  0  0  0  0  0  0
   11.4170   80.9514   26.2971 H   0  0  0  0  0  0  0  0  0  0  0  0
   12.0018   77.4070   24.4065 P   0  0  0  0  0  0  0  0  0  0  0  0
   12.5113   76.0180   23.7923 O   0  0  0  0  0  0  0  0  0  0  0  0
   10.8129   76.9716   25.3655 O   0  0  0  0  0  0  0  0  0  0  0  0
   11.5899   78.4271   23.4116 O   0  0  0  0  0  0  0  0  0  0  0  0
   12.7576   75.4169   24.5127 H   0  0  0  0  0  0  0  0  0  0  0  0
   11.1322   76.3060   25.9947 H   0  0  0  0  0  0  0  0  0  0  0  0
   14.7268   77.7518   24.9254 C   0  0  0  0  0  0  0  0  0  0  0  0
   15.7154   77.0221   25.7222 N   0  0  0  0  0  0  0  0  0  0  0  0
   16.0210   75.7572   25.6242 C   0  0  0  0  0  0  0  0  0  0  0  0
   16.8952   75.4809   26.4741 N   0  0  0  0  0  0  0  0  0  0  0  0
   17.2416   76.6498   27.2428 C   0  0  0  0  0  0  0  0  0  0  0  0
   16.4368   77.5801   26.6814 C   0  0  0  0  0  0  0  0  0  0  0  0
  4  5  1  0  0  0
  5  6  1  0  0  0
  5  7  2  0  0  0
  5  1  1  0  0  0
  1 10  1  0  0  0
  1  2  1  0  0  0
  1 16  1  0  0  0
 10 11  1  0  0  0
 10 12  1  0  0  0
 10 13  2  0  0  0
 16 17  1  0  0  0
 17 18  1  0  0  0
 17 21  1  0  0  0
 18 19  2  0  0  0
 19 20  1  0  0  0
 20 21  2  0  0  0
  4  8  1  0  0  0
  6  9  1  0  0  0
 11 14  1  0  0  0
 12 15  1  0  0  0
  2  3  1  0  0  0
M  END
> <minimizedAffinity>
-7.18814

$$$$
2F9K_ZOL_F_9001


 21 21  0  0  0  0  0  0  0  0999 V2000
   12.9246   77.6755   25.3279 C   0  0  0  0  0  0  0  0  0  0  0  0
   12.4841   77.7001   26.6959 O   0  0  0  0  0  0  0  0  0  0  0  0
   12.4117   76.7919   27.0287 H   0  0  0  0  0  0  0  0  0  0  0  0
   11.1313   75.6061   25.0744 O   0  0  0  0  0  0  0  0  0  0  0  0
   11.6561   76.7992   24.3551 P   0  0  0  0  0  0  0  0  0  0  0  0
   10.5001   77.8354   24.0355 O   0  0  0  0  0  0  0  0  0  0  0  0
   12.3221   76.4699   22.9463 O   0  0  0  0  0  0  0  0  0  0  0  0
   10.4611   75.1676   24.5272 H   0  0  0  0  0  0  0  0  0  0  0  0
    9.8074   77.3972   23.5168 H   0  0  0  0  0  0  0  0  0  0  0  0
   14.4846   76.7519   25.1921 P   0  0  0  0  0  0  0  0  0  0  0  0
   14.0834   75.2011   25.2063 O   0  0  0  0  0  0  0  0  0  0  0  0
   14.9572   76.9964   23.6955 O   0  0  0  0  0  0  0  0  0  0  0  0
   15.5090   77.1510   26.1878 O   0  0  0  0  0  0  0  0  0  0  0  0
   13.4121   75.0346   24.5262 H   0  0  0  0  0  0  0  0  0  0  0  0
   14.2551   76.7206   23.0856 H   0  0  0  0  0  0  0  0  0  0  0  0
   13.0577   79.1134   24.7439 C   0  0  0  0  0  0  0  0  0  0  0  0
   14.1224   79.9711   25.2688 N   0  0  0  0  0  0  0  0  0  0  0  0
   15.1799   80.3881   24.6278 C   0  0  0  0  0  0  0  0  0  0  0  0
   15.8742   81.0879   25.3966 N   0  0  0  0  0  0  0  0  0  0  0  0
   15.2576   81.1768   26.6963 C   0  0  0  0  0  0  0  0  0  0  0  0
   14.1432   80.4343   26.5085 C   0  0  0  0  0  0  0  0  0  0  0  0
  4  5  1  0  0  0
  5  6  1  0  0  0
  5  7  2  0  0  0
  5  1  1  0  0  0
  1 10  1  0  0  0
  1  2  1  0  0  0
  1 16  1  0  0  0
 10 11  1  0  0  0
 10 12  1  0  0  0
 10 13  2  0  0  0
 16 17  1  0  0  0
 17 18  1  0  0  0
 17 21  1  0  0  0
 18 19  2  0  0  0
 19 20  1  0  0  0
 20 21  2  0  0  0
  4  8  1  0  0  0
  6  9  1  0  0  0
 11 14  1  0  0  0
 12 15  1  0  0  0
  2  3  1  0  0  0
M  END
> <minimizedAffinity>
-7.09622

$$$$
2F9K_ZOL_F_9001


 21 21  0  0  0  0  0  0  0  0999 V2000
   14.0166   77.9113   26.0139 C   0  0  0  0  0  0  0  0  0  0  0  0
   13.4292   77.2862   27.1673 O   0  0  0  0  0  0  0  0  0  0  0  0
   14.1266   77.0580   27.8017 H   0  0  0  0  0  0  0  0  0  0  0  0
   16.5040   76.7550   25.8184 O   0  0  0  0  0  0  0  0  0  0  0  0
   15.1344   76.6983   25.2377 P   0  0  0  0  0  0  0  0  0  0  0  0
   14.4864   75.2641   25.4260 O   0  0  0  0  0  0  0  0  0  0  0  0
   15.0789   76.9785   23.6709 O   0  0  0  0  0  0  0  0  0  0  0  0
   17.0678   76.0975   25.3817 H   0  0  0  0  0  0  0  0  0  0  0  0
   15.0602   74.5945   25.0218 H   0  0  0  0  0  0  0  0  0  0  0  0
   15.0033   79.3517   26.5204 P   0  0  0  0  0  0  0  0  0  0  0  0
   16.1057   78.7961   27.5412 O   0  0  0  0  0  0  0  0  0  0  0  0
   15.8505   79.7217   25.2288 O   0  0  0  0  0  0  0  0  0  0  0  0
   14.1940   80.4904   27.0191 O   0  0  0  0  0  0  0  0  0  0  0  0
   16.5825   78.0574   27.1315 H   0  0  0  0  0  0  0  0  0  0  0  0
   16.3599   78.9471   24.9435 H   0  0  0  0  0  0  0  0  0  0  0  0
   12.9361   78.2989   24.9609 C   0  0  0  0  0  0  0  0  0  0  0  0
   11.8859   77.3222   24.6643 N   0  0  0  0  0  0  0  0  0  0  0  0
   11.0017   76.8455   25.4973 C   0  0  0  0  0  0  0  0  0  0  0  0
   10.2760   76.0235   24.8968 N   0  0  0  0  0  0  0  0  0  0  0  0
   10.6784   75.9053   23.5178 C   0  0  0  0  0  0  0  0  0  0  0  0
   11.7099   76.7782   23.4705 C   0  0  0  0  0  0  0  0  0  0  0  0
  4  5  1  0  0  0
  5  6  1  0  0  0
  5  7  2  0  0  0
  5  1  1  0  0  0
  1 10  1  0  0  0
  1  2  1  0  0  0
  1 16  1  0  0  0
 10 11  1  0  0  0
 10 12  1  0  0  0
 10 13  2  0  0  0
 16 17  1  0  0  0
 17 18  1  0  0  0
 17 21  1  0  0  0
 18 19  2  0  0  0
 19 20  1  0  0  0
 20 21  2  0  0  0
  4  8  1  0  0  0
  6  9  1  0  0  0
 11 14  1  0  0  0
 12 15  1  0  0  0
  2  3  1  0  0  0
M  END
> <minimizedAffinity>
-7.04795

$$$$
