5JXN_6NN_E_411


 33 33  0  0  0  0  0  0  0  0999 V2000
   12.2791   37.7388   -6.0721 O   0  0  0  0  0  0  0  0  0  0  0  0
   11.2380   38.7486   -5.6675 P   0  0  0  0  0  0  0  0  0  0  0  0
    9.8266   38.3362   -6.0657 O   0  0  0  0  0  0  0  0  0  0  0  0
    9.7986   38.1575   -7.0187 H   0  0  0  0  0  0  0  0  0  0  0  0
   11.2946   39.0729   -3.9455 N   0  0  0  0  0  0  0  0  0  0  0  0
   11.4390   40.0761   -3.8312 H   0  0  0  0  0  0  0  0  0  0  0  0
   10.1288   38.7052   -3.1319 C   0  0  0  0  0  0  0  0  0  0  0  0
    8.9186   39.5621   -3.3993 C   0  0  0  0  0  0  0  0  0  0  0  0
    7.8796   39.0345   -3.7950 O   0  0  0  0  0  0  0  0  0  0  0  0
    9.0251   40.8717   -3.1060 N   0  0  0  0  0  0  0  0  0  0  0  0
    9.8630   41.2285   -2.7320 H   0  0  0  0  0  0  0  0  0  0  0  0
    7.8881   41.7627   -3.3461 C   0  0  0  0  0  0  0  0  0  0  0  0
    8.9389   43.0666   -1.4499 C   0  0  0  0  0  0  0  0  0  0  0  0
    8.0533   43.1475   -2.7204 C   0  0  0  0  0  0  0  0  0  0  0  0
    6.7256   43.8712   -2.3677 C   0  0  0  0  0  0  0  0  0  0  0  0
    5.9856   44.3829   -3.6240 C   0  0  0  0  0  0  0  0  0  0  0  0
   10.5820   38.8896   -1.6716 C   0  0  0  0  0  0  0  0  0  0  0  0
    9.5882   38.3360   -0.6442 C   0  0  0  0  0  0  0  0  0  0  0  0
   10.0721   38.7525    0.7790 C   0  0  0  0  0  0  0  0  0  0  0  0
    9.4164   36.8077   -0.7497 C   0  0  0  0  0  0  0  0  0  0  0  0
   11.5953   40.4013   -6.3285 C   0  0  0  0  0  0  0  0  0  0  0  0
   12.3374   40.7681   -8.6120 C   0  0  0  0  0  0  0  0  0  0  0  0
   12.5920   40.2666   -7.3878 N   0  0  0  0  0  0  0  0  0  0  0  0
   11.2356   41.2104   -8.9107 O   0  0  0  0  0  0  0  0  0  0  0  0
   13.4462   39.8114   -7.2080 H   0  0  0  0  0  0  0  0  0  0  0  0
   13.0922   40.4185   -9.6535 O   0  0  0  0  0  0  0  0  0  0  0  0
   13.9946   39.2899   -9.5559 C   0  0  0  0  0  0  0  0  0  0  0  0
   14.2374   39.0346  -12.1250 C   0  0  0  0  0  0  0  0  0  0  0  0
   14.1146   38.2993  -13.2981 C   0  0  0  0  0  0  0  0  0  0  0  0
   13.6816   36.9560  -13.2740 C   0  0  0  0  0  0  0  0  0  0  0  0
   13.9209   38.4818  -10.8788 C   0  0  0  0  0  0  0  0  0  0  0  0
   13.3547   36.4101  -12.0228 C   0  0  0  0  0  0  0  0  0  0  0  0
   13.4602   37.1692  -10.8506 C   0  0  0  0  0  0  0  0  0  0  0  0
 32 33  2  0  0  0
 32 30  1  0  0  0
 33 31  1  0  0  0
 30 29  2  0  0  0
 31 27  1  0  0  0
 31 28  2  0  0  0
 29 28  1  0  0  0
 27 26  1  0  0  0
 26 22  1  0  0  0
 22 24  2  0  0  0
 22 23  1  0  0  0
 23 21  1  0  0  0
 21  2  1  0  0  0
  1  2  2  0  0  0
  3  2  1  0  0  0
  2  5  1  0  0  0
 12 10  1  0  0  0
 12 14  1  0  0  0
  5  7  1  0  0  0
 10  8  1  0  0  0
  8  9  2  0  0  0
  8  7  1  0  0  0
 15 16  1  0  0  0
 15 14  1  0  0  0
  7 17  1  0  0  0
 14 13  1  0  0  0
 17 18  1  0  0  0
 19 18  1  0  0  0
 18 20  1  0  0  0
  5  6  1  0  0  0
 10 11  1  0  0  0
  3  4  1  0  0  0
 23 25  1  0  0  0
M  END
> <minimizedAffinity>
-8.49865

$$$$
5JXN_6NN_E_411


 33 33  0  0  0  0  0  0  0  0999 V2000
   12.7476   37.7168   -9.8226 O   0  0  0  0  0  0  0  0  0  0  0  0
   13.6948   38.2617   -8.7866 P   0  0  0  0  0  0  0  0  0  0  0  0
   14.2617   37.1805   -7.8754 O   0  0  0  0  0  0  0  0  0  0  0  0
   13.5333   36.6865   -7.4677 H   0  0  0  0  0  0  0  0  0  0  0  0
   15.0073   39.1582   -9.5265 N   0  0  0  0  0  0  0  0  0  0  0  0
   15.6685   38.4758   -9.8972 H   0  0  0  0  0  0  0  0  0  0  0  0
   14.6844   40.0881  -10.6161 C   0  0  0  0  0  0  0  0  0  0  0  0
   14.9283   39.5113  -11.9865 C   0  0  0  0  0  0  0  0  0  0  0  0
   16.0282   39.6601  -12.5182 O   0  0  0  0  0  0  0  0  0  0  0  0
   13.9322   38.7830  -12.5249 N   0  0  0  0  0  0  0  0  0  0  0  0
   13.0948   38.6447  -12.0260 H   0  0  0  0  0  0  0  0  0  0  0  0
   14.1008   38.1976  -13.8564 C   0  0  0  0  0  0  0  0  0  0  0  0
   13.5813   36.0326  -15.0576 C   0  0  0  0  0  0  0  0  0  0  0  0
   14.2877   36.6806  -13.8385 C   0  0  0  0  0  0  0  0  0  0  0  0
   13.8083   35.9753  -12.5410 C   0  0  0  0  0  0  0  0  0  0  0  0
   14.9717   35.6908  -11.5646 C   0  0  0  0  0  0  0  0  0  0  0  0
   15.6035   41.3038  -10.3943 C   0  0  0  0  0  0  0  0  0  0  0  0
   15.1288   42.2384   -9.2760 C   0  0  0  0  0  0  0  0  0  0  0  0
   13.6993   42.7476   -9.6370 C   0  0  0  0  0  0  0  0  0  0  0  0
   16.0958   43.4148   -9.0364 C   0  0  0  0  0  0  0  0  0  0  0  0
   12.9302   39.5638   -7.7787 C   0  0  0  0  0  0  0  0  0  0  0  0
   11.5464   38.4786   -6.1032 C   0  0  0  0  0  0  0  0  0  0  0  0
   12.7263   39.0405   -6.4302 N   0  0  0  0  0  0  0  0  0  0  0  0
   10.5828   38.5185   -6.8573 O   0  0  0  0  0  0  0  0  0  0  0  0
   13.4480   39.0983   -5.7631 H   0  0  0  0  0  0  0  0  0  0  0  0
   11.2383   38.2538   -4.8260 O   0  0  0  0  0  0  0  0  0  0  0  0
   10.4912   39.2380   -4.0704 C   0  0  0  0  0  0  0  0  0  0  0  0
    9.5451   37.3719   -2.5384 C   0  0  0  0  0  0  0  0  0  0  0  0
    9.1924   36.8774   -1.2883 C   0  0  0  0  0  0  0  0  0  0  0  0
    9.4334   37.6242   -0.1149 C   0  0  0  0  0  0  0  0  0  0  0  0
   10.1345   38.6327   -2.6867 C   0  0  0  0  0  0  0  0  0  0  0  0
   10.0143   38.8926   -0.2701 C   0  0  0  0  0  0  0  0  0  0  0  0
   10.3433   39.3892   -1.5377 C   0  0  0  0  0  0  0  0  0  0  0  0
 32 33  2  0  0  0
 32 30  1  0  0  0
 33 31  1  0  0  0
 30 29  2  0  0  0
 31 27  1  0  0  0
 31 28  2  0  0  0
 29 28  1  0  0  0
 27 26  1  0  0  0
 26 22  1  0  0  0
 22 24  2  0  0  0
 22 23  1  0  0  0
 23 21  1  0  0  0
 21  2  1  0  0  0
  1  2  2  0  0  0
  3  2  1  0  0  0
  2  5  1  0  0  0
 12 10  1  0  0  0
 12 14  1  0  0  0
  5  7  1  0  0  0
 10  8  1  0  0  0
  8  9  2  0  0  0
  8  7  1  0  0  0
 15 16  1  0  0  0
 15 14  1  0  0  0
  7 17  1  0  0  0
 14 13  1  0  0  0
 17 18  1  0  0  0
 19 18  1  0  0  0
 18 20  1  0  0  0
  5  6  1  0  0  0
 10 11  1  0  0  0
  3  4  1  0  0  0
 23 25  1  0  0  0
M  END
> <minimizedAffinity>
-8.19467

$$$$
5JXN_6NN_E_411


 33 33  0  0  0  0  0  0  0  0999 V2000
   12.8072   41.3568   -6.6181 O   0  0  0  0  0  0  0  0  0  0  0  0
   12.6713   40.5962   -7.9106 P   0  0  0  0  0  0  0  0  0  0  0  0
   11.3339   40.8344   -8.6002 O   0  0  0  0  0  0  0  0  0  0  0  0
   10.6121   40.6263   -7.9864 H   0  0  0  0  0  0  0  0  0  0  0  0
   13.9800   40.9707   -9.0154 N   0  0  0  0  0  0  0  0  0  0  0  0
   14.3802   40.0839   -9.3220 H   0  0  0  0  0  0  0  0  0  0  0  0
   13.6684   41.7480  -10.2216 C   0  0  0  0  0  0  0  0  0  0  0  0
   13.8319   40.9635  -11.4975 C   0  0  0  0  0  0  0  0  0  0  0  0
   13.8200   41.5550  -12.5767 O   0  0  0  0  0  0  0  0  0  0  0  0
   14.0666   39.6437  -11.3730 N   0  0  0  0  0  0  0  0  0  0  0  0
   14.1279   39.2341  -10.4799 H   0  0  0  0  0  0  0  0  0  0  0  0
   14.2303   38.8206  -12.5730 C   0  0  0  0  0  0  0  0  0  0  0  0
   13.4502   37.0125  -10.9849 C   0  0  0  0  0  0  0  0  0  0  0  0
   13.5653   37.4482  -12.4688 C   0  0  0  0  0  0  0  0  0  0  0  0
   14.2606   36.3189  -13.2763 C   0  0  0  0  0  0  0  0  0  0  0  0
   13.8668   36.3391  -14.7704 C   0  0  0  0  0  0  0  0  0  0  0  0
   14.6586   42.9275  -10.2079 C   0  0  0  0  0  0  0  0  0  0  0  0
   15.9510   42.6374   -9.4366 C   0  0  0  0  0  0  0  0  0  0  0  0
   16.1966   43.8073   -8.4346 C   0  0  0  0  0  0  0  0  0  0  0  0
   17.1637   42.4360  -10.3668 C   0  0  0  0  0  0  0  0  0  0  0  0
   12.9273   38.8132   -7.6848 C   0  0  0  0  0  0  0  0  0  0  0  0
   11.4904   38.2627   -5.8054 C   0  0  0  0  0  0  0  0  0  0  0  0
   12.7323   38.4964   -6.2722 N   0  0  0  0  0  0  0  0  0  0  0  0
   10.4970   38.4470   -6.4968 O   0  0  0  0  0  0  0  0  0  0  0  0
   13.5052   38.4539   -5.6638 H   0  0  0  0  0  0  0  0  0  0  0  0
   11.2549   38.2513   -4.4935 O   0  0  0  0  0  0  0  0  0  0  0  0
   10.2005   39.0711   -3.9332 C   0  0  0  0  0  0  0  0  0  0  0  0
    9.4313   37.3430   -2.1593 C   0  0  0  0  0  0  0  0  0  0  0  0
    9.1597   36.9761   -0.8465 C   0  0  0  0  0  0  0  0  0  0  0  0
    9.4021   37.8646    0.2233 C   0  0  0  0  0  0  0  0  0  0  0  0
    9.9369   38.6093   -2.4752 C   0  0  0  0  0  0  0  0  0  0  0  0
    9.8984   39.1372   -0.1000 C   0  0  0  0  0  0  0  0  0  0  0  0
   10.1456   39.5029   -1.4292 C   0  0  0  0  0  0  0  0  0  0  0  0
 32 33  2  0  0  0
 32 30  1  0  0  0
 33 31  1  0  0  0
 30 29  2  0  0  0
 31 27  1  0  0  0
 31 28  2  0  0  0
 29 28  1  0  0  0
 27 26  1  0  0  0
 26 22  1  0  0  0
 22 24  2  0  0  0
 22 23  1  0  0  0
 23 21  1  0  0  0
 21  2  1  0  0  0
  1  2  2  0  0  0
  3  2  1  0  0  0
  2  5  1  0  0  0
 12 10  1  0  0  0
 12 14  1  0  0  0
  5  7  1  0  0  0
 10  8  1  0  0  0
  8  9  2  0  0  0
  8  7  1  0  0  0
 15 16  1  0  0  0
 15 14  1  0  0  0
  7 17  1  0  0  0
 14 13  1  0  0  0
 17 18  1  0  0  0
 19 18  1  0  0  0
 18 20  1  0  0  0
  5  6  1  0  0  0
 10 11  1  0  0  0
  3  4  1  0  0  0
 23 25  1  0  0  0
M  END
> <minimizedAffinity>
-7.99813

$$$$
5JXN_6NN_E_411


 33 33  0  0  0  0  0  0  0  0999 V2000
   13.2358   42.2299   -6.7568 O   0  0  0  0  0  0  0  0  0  0  0  0
   12.1156   41.7155   -7.6216 P   0  0  0  0  0  0  0  0  0  0  0  0
   10.9196   42.6580   -7.6643 O   0  0  0  0  0  0  0  0  0  0  0  0
   10.6179   42.8388   -6.7603 H   0  0  0  0  0  0  0  0  0  0  0  0
   12.6654   41.3850   -9.2532 N   0  0  0  0  0  0  0  0  0  0  0  0
   12.8607   42.2836   -9.6945 H   0  0  0  0  0  0  0  0  0  0  0  0
   13.8582   40.5463   -9.4266 C   0  0  0  0  0  0  0  0  0  0  0  0
   15.0791   41.3226   -9.8475 C   0  0  0  0  0  0  0  0  0  0  0  0
   15.6614   41.0166  -10.8876 O   0  0  0  0  0  0  0  0  0  0  0  0
   15.4199   42.3786   -9.0851 N   0  0  0  0  0  0  0  0  0  0  0  0
   14.8793   42.6149   -8.2969 H   0  0  0  0  0  0  0  0  0  0  0  0
   16.5987   43.1739   -9.4342 C   0  0  0  0  0  0  0  0  0  0  0  0
   15.6777   45.0917   -8.0655 C   0  0  0  0  0  0  0  0  0  0  0  0
   16.9365   44.2517   -8.4043 C   0  0  0  0  0  0  0  0  0  0  0  0
   18.0904   45.2084   -8.8095 C   0  0  0  0  0  0  0  0  0  0  0  0
   18.5664   46.0850   -7.6294 C   0  0  0  0  0  0  0  0  0  0  0  0
   13.4833   39.5344  -10.5254 C   0  0  0  0  0  0  0  0  0  0  0  0
   13.1968   38.1258   -9.9931 C   0  0  0  0  0  0  0  0  0  0  0  0
   14.1093   37.8759   -8.7529 C   0  0  0  0  0  0  0  0  0  0  0  0
   13.3997   37.0352  -11.0634 C   0  0  0  0  0  0  0  0  0  0  0  0
   11.5654   40.0612   -7.1152 C   0  0  0  0  0  0  0  0  0  0  0  0
   11.4038   38.8966   -4.9898 C   0  0  0  0  0  0  0  0  0  0  0  0
   11.3826   40.0616   -5.6659 N   0  0  0  0  0  0  0  0  0  0  0  0
   11.4290   37.8171   -5.5668 O   0  0  0  0  0  0  0  0  0  0  0  0
   11.2444   40.9097   -5.1853 H   0  0  0  0  0  0  0  0  0  0  0  0
   10.9659   38.8396   -3.7321 O   0  0  0  0  0  0  0  0  0  0  0  0
    9.7896   38.0617   -3.4024 C   0  0  0  0  0  0  0  0  0  0  0  0
    8.8390   37.1356   -1.1746 C   0  0  0  0  0  0  0  0  0  0  0  0
    8.6377   37.2195    0.1981 C   0  0  0  0  0  0  0  0  0  0  0  0
    9.2011   38.2701    0.9541 C   0  0  0  0  0  0  0  0  0  0  0  0
    9.5899   38.0947   -1.8638 C   0  0  0  0  0  0  0  0  0  0  0  0
    9.9438   39.2354    0.2564 C   0  0  0  0  0  0  0  0  0  0  0  0
   10.1194   39.1522   -1.1306 C   0  0  0  0  0  0  0  0  0  0  0  0
 32 33  2  0  0  0
 32 30  1  0  0  0
 33 31  1  0  0  0
 30 29  2  0  0  0
 31 27  1  0  0  0
 31 28  2  0  0  0
 29 28  1  0  0  0
 27 26  1  0  0  0
 26 22  1  0  0  0
 22 24  2  0  0  0
 22 23  1  0  0  0
 23 21  1  0  0  0
 21  2  1  0  0  0
  1  2  2  0  0  0
  3  2  1  0  0  0
  2  5  1  0  0  0
 12 10  1  0  0  0
 12 14  1  0  0  0
  5  7  1  0  0  0
 10  8  1  0  0  0
  8  9  2  0  0  0
  8  7  1  0  0  0
 15 16  1  0  0  0
 15 14  1  0  0  0
  7 17  1  0  0  0
 14 13  1  0  0  0
 17 18  1  0  0  0
 19 18  1  0  0  0
 18 20  1  0  0  0
  5  6  1  0  0  0
 10 11  1  0  0  0
  3  4  1  0  0  0
 23 25  1  0  0  0
M  END
> <minimizedAffinity>
-7.76888

$$$$
5JXN_6NN_E_411


 33 33  0  0  0  0  0  0  0  0999 V2000
   13.3195   41.4186   -7.1809 O   0  0  0  0  0  0  0  0  0  0  0  0
   12.5275   40.4758   -8.0476 P   0  0  0  0  0  0  0  0  0  0  0  0
   11.0299   40.7530   -8.0096 O   0  0  0  0  0  0  0  0  0  0  0  0
   10.7213   40.7365   -7.0901 H   0  0  0  0  0  0  0  0  0  0  0  0
   13.0911   40.5044   -9.7075 N   0  0  0  0  0  0  0  0  0  0  0  0
   13.3534   41.4666   -9.9214 H   0  0  0  0  0  0  0  0  0  0  0  0
   14.2313   39.6520  -10.0675 C   0  0  0  0  0  0  0  0  0  0  0  0
   15.4764   40.4301  -10.4059 C   0  0  0  0  0  0  0  0  0  0  0  0
   15.7800   41.4105   -9.7267 O   0  0  0  0  0  0  0  0  0  0  0  0
   16.2416   39.9478  -11.4030 N   0  0  0  0  0  0  0  0  0  0  0  0
   15.9812   39.1221  -11.8716 H   0  0  0  0  0  0  0  0  0  0  0  0
   17.4634   40.6578  -11.7870 C   0  0  0  0  0  0  0  0  0  0  0  0
   16.6480   42.6750  -13.0776 C   0  0  0  0  0  0  0  0  0  0  0  0
   17.3829   41.3122  -13.1660 C   0  0  0  0  0  0  0  0  0  0  0  0
   16.7126   40.4452  -14.2660 C   0  0  0  0  0  0  0  0  0  0  0  0
   15.3584   41.0288  -14.7279 C   0  0  0  0  0  0  0  0  0  0  0  0
   13.7661   38.8563  -11.3013 C   0  0  0  0  0  0  0  0  0  0  0  0
   13.4732   37.3807  -11.0075 C   0  0  0  0  0  0  0  0  0  0  0  0
   14.6061   36.8302  -10.0874 C   0  0  0  0  0  0  0  0  0  0  0  0
   13.3373   36.5367  -12.2903 C   0  0  0  0  0  0  0  0  0  0  0  0
   12.8327   38.7373   -7.6232 C   0  0  0  0  0  0  0  0  0  0  0  0
   11.4507   38.3530   -5.6631 C   0  0  0  0  0  0  0  0  0  0  0  0
   12.6737   38.5822   -6.1794 N   0  0  0  0  0  0  0  0  0  0  0  0
   10.4396   38.4116   -6.3509 O   0  0  0  0  0  0  0  0  0  0  0  0
   13.4569   38.6450   -5.5863 H   0  0  0  0  0  0  0  0  0  0  0  0
   11.2361   38.4871   -4.3544 O   0  0  0  0  0  0  0  0  0  0  0  0
    9.9863   39.0372   -3.8715 C   0  0  0  0  0  0  0  0  0  0  0  0
    9.2994   37.3463   -2.0294 C   0  0  0  0  0  0  0  0  0  0  0  0
    9.0917   37.0053   -0.6981 C   0  0  0  0  0  0  0  0  0  0  0  0
    9.3900   37.9125    0.3414 C   0  0  0  0  0  0  0  0  0  0  0  0
    9.7934   38.6041   -2.3938 C   0  0  0  0  0  0  0  0  0  0  0  0
    9.8745   39.1765   -0.0301 C   0  0  0  0  0  0  0  0  0  0  0  0
   10.0570   39.5161   -1.3765 C   0  0  0  0  0  0  0  0  0  0  0  0
 32 33  2  0  0  0
 32 30  1  0  0  0
 33 31  1  0  0  0
 30 29  2  0  0  0
 31 27  1  0  0  0
 31 28  2  0  0  0
 29 28  1  0  0  0
 27 26  1  0  0  0
 26 22  1  0  0  0
 22 24  2  0  0  0
 22 23  1  0  0  0
 23 21  1  0  0  0
 21  2  1  0  0  0
  1  2  2  0  0  0
  3  2  1  0  0  0
  2  5  1  0  0  0
 12 10  1  0  0  0
 12 14  1  0  0  0
  5  7  1  0  0  0
 10  8  1  0  0  0
  8  9  2  0  0  0
  8  7  1  0  0  0
 15 16  1  0  0  0
 15 14  1  0  0  0
  7 17  1  0  0  0
 14 13  1  0  0  0
 17 18  1  0  0  0
 19 18  1  0  0  0
 18 20  1  0  0  0
  5  6  1  0  0  0
 10 11  1  0  0  0
  3  4  1  0  0  0
 23 25  1  0  0  0
M  END
> <minimizedAffinity>
-7.59243

$$$$
5JXN_6NN_E_411


 33 33  0  0  0  0  0  0  0  0999 V2000
   13.6557   41.5474   -7.8016 O   0  0  0  0  0  0  0  0  0  0  0  0
   12.7725   40.5200   -8.4587 P   0  0  0  0  0  0  0  0  0  0  0  0
   11.2886   40.8268   -8.3012 O   0  0  0  0  0  0  0  0  0  0  0  0
   11.0776   40.9287   -7.3599 H   0  0  0  0  0  0  0  0  0  0  0  0
   13.1598   40.3347  -10.1585 N   0  0  0  0  0  0  0  0  0  0  0  0
   13.3565   41.2652  -10.5272 H   0  0  0  0  0  0  0  0  0  0  0  0
   14.2927   39.4740  -10.5218 C   0  0  0  0  0  0  0  0  0  0  0  0
   15.5401   40.2433  -10.8720 C   0  0  0  0  0  0  0  0  0  0  0  0
   16.1209   40.0041  -11.9304 O   0  0  0  0  0  0  0  0  0  0  0  0
   15.9069   41.2233  -10.0250 N   0  0  0  0  0  0  0  0  0  0  0  0
   15.3676   41.4121   -9.2233 H   0  0  0  0  0  0  0  0  0  0  0  0
   17.1123   42.0070  -10.3025 C   0  0  0  0  0  0  0  0  0  0  0  0
   16.6874   43.8567   -8.6298 C   0  0  0  0  0  0  0  0  0  0  0  0
   16.9175   43.5126  -10.1244 C   0  0  0  0  0  0  0  0  0  0  0  0
   15.7708   44.1308  -10.9693 C   0  0  0  0  0  0  0  0  0  0  0  0
   16.2513   44.5844  -12.3661 C   0  0  0  0  0  0  0  0  0  0  0  0
   13.8148   38.6752  -11.7488 C   0  0  0  0  0  0  0  0  0  0  0  0
   13.5033   37.2058  -11.4433 C   0  0  0  0  0  0  0  0  0  0  0  0
   14.5897   36.6685  -10.4615 C   0  0  0  0  0  0  0  0  0  0  0  0
   13.4247   36.3397  -12.7161 C   0  0  0  0  0  0  0  0  0  0  0  0
   13.1113   38.8413   -7.8561 C   0  0  0  0  0  0  0  0  0  0  0  0
   11.5588   38.5023   -6.0191 C   0  0  0  0  0  0  0  0  0  0  0  0
   12.8084   38.7962   -6.4278 N   0  0  0  0  0  0  0  0  0  0  0  0
   10.6275   38.4105   -6.8085 O   0  0  0  0  0  0  0  0  0  0  0  0
   13.5144   38.9798   -5.7667 H   0  0  0  0  0  0  0  0  0  0  0  0
   11.1922   38.7276   -4.7575 O   0  0  0  0  0  0  0  0  0  0  0  0
    9.8104   38.5601   -4.3571 C   0  0  0  0  0  0  0  0  0  0  0  0
   10.0361   39.5407   -1.9671 C   0  0  0  0  0  0  0  0  0  0  0  0
   10.0235   39.4065   -0.5837 C   0  0  0  0  0  0  0  0  0  0  0  0
    9.7051   38.1737    0.0257 C   0  0  0  0  0  0  0  0  0  0  0  0
    9.7527   38.4595   -2.8095 C   0  0  0  0  0  0  0  0  0  0  0  0
    9.4328   37.0899   -0.8237 C   0  0  0  0  0  0  0  0  0  0  0  0
    9.4720   37.2325   -2.2164 C   0  0  0  0  0  0  0  0  0  0  0  0
 32 33  2  0  0  0
 32 30  1  0  0  0
 33 31  1  0  0  0
 30 29  2  0  0  0
 31 27  1  0  0  0
 31 28  2  0  0  0
 29 28  1  0  0  0
 27 26  1  0  0  0
 26 22  1  0  0  0
 22 24  2  0  0  0
 22 23  1  0  0  0
 23 21  1  0  0  0
 21  2  1  0  0  0
  1  2  2  0  0  0
  3  2  1  0  0  0
  2  5  1  0  0  0
 12 10  1  0  0  0
 12 14  1  0  0  0
  5  7  1  0  0  0
 10  8  1  0  0  0
  8  9  2  0  0  0
  8  7  1  0  0  0
 15 16  1  0  0  0
 15 14  1  0  0  0
  7 17  1  0  0  0
 14 13  1  0  0  0
 17 18  1  0  0  0
 19 18  1  0  0  0
 18 20  1  0  0  0
  5  6  1  0  0  0
 10 11  1  0  0  0
  3  4  1  0  0  0
 23 25  1  0  0  0
M  END
> <minimizedAffinity>
-7.51173

$$$$
5JXN_6NN_E_411


 33 33  0  0  0  0  0  0  0  0999 V2000
   11.8126   37.9223   -5.1096 O   0  0  0  0  0  0  0  0  0  0  0  0
   10.7470   38.8928   -5.5456 P   0  0  0  0  0  0  0  0  0  0  0  0
    9.4586   38.2035   -5.9766 O   0  0  0  0  0  0  0  0  0  0  0  0
    9.6554   37.5547   -6.6703 H   0  0  0  0  0  0  0  0  0  0  0  0
   10.3973   40.0669   -4.2914 N   0  0  0  0  0  0  0  0  0  0  0  0
   10.5296   40.9928   -4.6985 H   0  0  0  0  0  0  0  0  0  0  0  0
    9.0641   40.0482   -3.6762 C   0  0  0  0  0  0  0  0  0  0  0  0
    8.2948   41.3281   -3.8768 C   0  0  0  0  0  0  0  0  0  0  0  0
    8.6113   42.0866   -4.7929 O   0  0  0  0  0  0  0  0  0  0  0  0
    7.2333   41.5307   -3.0739 N   0  0  0  0  0  0  0  0  0  0  0  0
    6.9888   40.8583   -2.3977 H   0  0  0  0  0  0  0  0  0  0  0  0
    6.4443   42.7565   -3.2117 C   0  0  0  0  0  0  0  0  0  0  0  0
    5.1650   43.5661   -5.2384 C   0  0  0  0  0  0  0  0  0  0  0  0
    5.1750   42.5767   -4.0442 C   0  0  0  0  0  0  0  0  0  0  0  0
    3.8460   42.7216   -3.2546 C   0  0  0  0  0  0  0  0  0  0  0  0
    2.7837   41.6922   -3.7016 C   0  0  0  0  0  0  0  0  0  0  0  0
    9.3168   39.8254   -2.1734 C   0  0  0  0  0  0  0  0  0  0  0  0
   10.1938   38.6052   -1.8709 C   0  0  0  0  0  0  0  0  0  0  0  0
    9.3233   37.5500   -1.1214 C   0  0  0  0  0  0  0  0  0  0  0  0
   11.4532   38.9672   -1.0591 C   0  0  0  0  0  0  0  0  0  0  0  0
   11.3219   39.9878   -6.8745 C   0  0  0  0  0  0  0  0  0  0  0  0
   13.0014   39.8422   -8.6232 C   0  0  0  0  0  0  0  0  0  0  0  0
   12.1634   39.2090   -7.7796 N   0  0  0  0  0  0  0  0  0  0  0  0
   12.9804   41.0587   -8.7599 O   0  0  0  0  0  0  0  0  0  0  0  0
   12.1183   38.2256   -7.7732 H   0  0  0  0  0  0  0  0  0  0  0  0
   13.5620   39.1829   -9.6370 O   0  0  0  0  0  0  0  0  0  0  0  0
   13.1928   37.8089   -9.9084 C   0  0  0  0  0  0  0  0  0  0  0  0
   13.9295   38.4777  -12.3030 C   0  0  0  0  0  0  0  0  0  0  0  0
   14.1393   38.1835  -13.6452 C   0  0  0  0  0  0  0  0  0  0  0  0
   13.9324   36.8801  -14.1462 C   0  0  0  0  0  0  0  0  0  0  0  0
   13.4888   37.5028  -11.4007 C   0  0  0  0  0  0  0  0  0  0  0  0
   13.4797   35.9089  -13.2395 C   0  0  0  0  0  0  0  0  0  0  0  0
   13.2493   36.2241  -11.8945 C   0  0  0  0  0  0  0  0  0  0  0  0
 32 33  2  0  0  0
 32 30  1  0  0  0
 33 31  1  0  0  0
 30 29  2  0  0  0
 31 27  1  0  0  0
 31 28  2  0  0  0
 29 28  1  0  0  0
 27 26  1  0  0  0
 26 22  1  0  0  0
 22 24  2  0  0  0
 22 23  1  0  0  0
 23 21  1  0  0  0
 21  2  1  0  0  0
  1  2  2  0  0  0
  3  2  1  0  0  0
  2  5  1  0  0  0
 12 10  1  0  0  0
 12 14  1  0  0  0
  5  7  1  0  0  0
 10  8  1  0  0  0
  8  9  2  0  0  0
  8  7  1  0  0  0
 15 16  1  0  0  0
 15 14  1  0  0  0
  7 17  1  0  0  0
 14 13  1  0  0  0
 17 18  1  0  0  0
 19 18  1  0  0  0
 18 20  1  0  0  0
  5  6  1  0  0  0
 10 11  1  0  0  0
  3  4  1  0  0  0
 23 25  1  0  0  0
M  END
> <minimizedAffinity>
-7.49591

$$$$
5JXN_6NN_E_411


 33 33  0  0  0  0  0  0  0  0999 V2000
    9.7088   38.9021   -2.3285 O   0  0  0  0  0  0  0  0  0  0  0  0
    9.5116   39.1614   -3.7986 P   0  0  0  0  0  0  0  0  0  0  0  0
    8.2790   38.4662   -4.3626 O   0  0  0  0  0  0  0  0  0  0  0  0
    8.3276   37.5165   -4.1714 H   0  0  0  0  0  0  0  0  0  0  0  0
    9.4292   40.8789   -4.1412 N   0  0  0  0  0  0  0  0  0  0  0  0
    9.9231   41.0362   -5.0197 H   0  0  0  0  0  0  0  0  0  0  0  0
    8.1038   41.4976   -4.2700 C   0  0  0  0  0  0  0  0  0  0  0  0
    8.1078   42.7521   -5.1045 C   0  0  0  0  0  0  0  0  0  0  0  0
    9.1800   43.2832   -5.3926 O   0  0  0  0  0  0  0  0  0  0  0  0
    6.9165   43.1810   -5.5619 N   0  0  0  0  0  0  0  0  0  0  0  0
    6.0959   42.6797   -5.3510 H   0  0  0  0  0  0  0  0  0  0  0  0
    6.8477   44.3969   -6.3749 C   0  0  0  0  0  0  0  0  0  0  0  0
    5.3554   46.4176   -6.6739 C   0  0  0  0  0  0  0  0  0  0  0  0
    5.4201   44.8683   -6.6508 C   0  0  0  0  0  0  0  0  0  0  0  0
    4.3489   44.3308   -5.6637 C   0  0  0  0  0  0  0  0  0  0  0  0
    3.0386   43.9337   -6.3801 C   0  0  0  0  0  0  0  0  0  0  0  0
    7.6745   41.8344   -2.8298 C   0  0  0  0  0  0  0  0  0  0  0  0
    8.5191   42.9345   -2.1772 C   0  0  0  0  0  0  0  0  0  0  0  0
    9.4668   42.2693   -1.1320 C   0  0  0  0  0  0  0  0  0  0  0  0
    7.6581   44.0359   -1.5275 C   0  0  0  0  0  0  0  0  0  0  0  0
   10.9692   38.6975   -4.7762 C   0  0  0  0  0  0  0  0  0  0  0  0
   11.4192   39.7001   -6.9423 C   0  0  0  0  0  0  0  0  0  0  0  0
   11.3495   39.8393   -5.6041 N   0  0  0  0  0  0  0  0  0  0  0  0
   11.3130   38.6068   -7.4828 O   0  0  0  0  0  0  0  0  0  0  0  0
   11.5539   40.7068   -5.1860 H   0  0  0  0  0  0  0  0  0  0  0  0
   12.0256   40.6260   -7.6851 O   0  0  0  0  0  0  0  0  0  0  0  0
   12.3292   41.9274   -7.1265 C   0  0  0  0  0  0  0  0  0  0  0  0
   14.4266   43.4520   -7.1517 C   0  0  0  0  0  0  0  0  0  0  0  0
   15.6024   43.9052   -7.7384 C   0  0  0  0  0  0  0  0  0  0  0  0
   16.0919   43.3274   -8.9297 C   0  0  0  0  0  0  0  0  0  0  0  0
   13.6733   42.4211   -7.7249 C   0  0  0  0  0  0  0  0  0  0  0  0
   15.3267   42.3016   -9.5064 C   0  0  0  0  0  0  0  0  0  0  0  0
   14.1313   41.8702   -8.9178 C   0  0  0  0  0  0  0  0  0  0  0  0
 32 33  2  0  0  0
 32 30  1  0  0  0
 33 31  1  0  0  0
 30 29  2  0  0  0
 31 27  1  0  0  0
 31 28  2  0  0  0
 29 28  1  0  0  0
 27 26  1  0  0  0
 26 22  1  0  0  0
 22 24  2  0  0  0
 22 23  1  0  0  0
 23 21  1  0  0  0
 21  2  1  0  0  0
  1  2  2  0  0  0
  3  2  1  0  0  0
  2  5  1  0  0  0
 12 10  1  0  0  0
 12 14  1  0  0  0
  5  7  1  0  0  0
 10  8  1  0  0  0
  8  9  2  0  0  0
  8  7  1  0  0  0
 15 16  1  0  0  0
 15 14  1  0  0  0
  7 17  1  0  0  0
 14 13  1  0  0  0
 17 18  1  0  0  0
 19 18  1  0  0  0
 18 20  1  0  0  0
  5  6  1  0  0  0
 10 11  1  0  0  0
  3  4  1  0  0  0
 23 25  1  0  0  0
M  END
> <minimizedAffinity>
-7.21415

$$$$
5JXN_6NN_E_411


 33 33  0  0  0  0  0  0  0  0999 V2000
   12.7514   37.7128   -9.8518 O   0  0  0  0  0  0  0  0  0  0  0  0
   13.7123   38.3552   -8.8868 P   0  0  0  0  0  0  0  0  0  0  0  0
   14.3876   37.3480   -7.9645 O   0  0  0  0  0  0  0  0  0  0  0  0
   13.7111   36.8290   -7.5019 H   0  0  0  0  0  0  0  0  0  0  0  0
   14.9304   39.2964   -9.7259 N   0  0  0  0  0  0  0  0  0  0  0  0
   15.7693   38.7193   -9.7875 H   0  0  0  0  0  0  0  0  0  0  0  0
   14.6277   39.7708  -11.0821 C   0  0  0  0  0  0  0  0  0  0  0  0
   15.4292   39.0755  -12.1519 C   0  0  0  0  0  0  0  0  0  0  0  0
   15.1639   37.9099  -12.4447 O   0  0  0  0  0  0  0  0  0  0  0  0
   16.3551   39.8132  -12.7929 N   0  0  0  0  0  0  0  0  0  0  0  0
   16.4816   40.7610  -12.5588 H   0  0  0  0  0  0  0  0  0  0  0  0
   17.1731   39.1984  -13.8403 C   0  0  0  0  0  0  0  0  0  0  0  0
   16.3279   41.1656  -15.1878 C   0  0  0  0  0  0  0  0  0  0  0  0
   16.8511   39.7069  -15.2455 C   0  0  0  0  0  0  0  0  0  0  0  0
   15.8417   38.8374  -16.0429 C   0  0  0  0  0  0  0  0  0  0  0  0
   14.3763   39.2516  -15.7805 C   0  0  0  0  0  0  0  0  0  0  0  0
   14.9717   41.2720  -11.0702 C   0  0  0  0  0  0  0  0  0  0  0  0
   15.8129   41.7011   -9.8629 C   0  0  0  0  0  0  0  0  0  0  0  0
   14.9909   42.7379   -9.0368 C   0  0  0  0  0  0  0  0  0  0  0  0
   17.1847   42.2743  -10.2701 C   0  0  0  0  0  0  0  0  0  0  0  0
   12.9190   39.6502   -7.8921 C   0  0  0  0  0  0  0  0  0  0  0  0
   11.5805   38.5251   -6.2064 C   0  0  0  0  0  0  0  0  0  0  0  0
   12.7332   39.1391   -6.5364 N   0  0  0  0  0  0  0  0  0  0  0  0
   10.6204   38.5056   -6.9658 O   0  0  0  0  0  0  0  0  0  0  0  0
   13.4474   39.2428   -5.8668 H   0  0  0  0  0  0  0  0  0  0  0  0
   11.2763   38.3057   -4.9272 O   0  0  0  0  0  0  0  0  0  0  0  0
    9.9153   38.4723   -4.4608 C   0  0  0  0  0  0  0  0  0  0  0  0
    9.5175   37.1350   -2.2749 C   0  0  0  0  0  0  0  0  0  0  0  0
    9.4667   37.0438   -0.8889 C   0  0  0  0  0  0  0  0  0  0  0  0
    9.8177   38.1411   -0.0733 C   0  0  0  0  0  0  0  0  0  0  0  0
    9.8994   38.3188   -2.9166 C   0  0  0  0  0  0  0  0  0  0  0  0
   10.1892   39.3293   -0.7219 C   0  0  0  0  0  0  0  0  0  0  0  0
   10.2134   39.4153   -2.1196 C   0  0  0  0  0  0  0  0  0  0  0  0
 32 33  2  0  0  0
 32 30  1  0  0  0
 33 31  1  0  0  0
 30 29  2  0  0  0
 31 27  1  0  0  0
 31 28  2  0  0  0
 29 28  1  0  0  0
 27 26  1  0  0  0
 26 22  1  0  0  0
 22 24  2  0  0  0
 22 23  1  0  0  0
 23 21  1  0  0  0
 21  2  1  0  0  0
  1  2  2  0  0  0
  3  2  1  0  0  0
  2  5  1  0  0  0
 12 10  1  0  0  0
 12 14  1  0  0  0
  5  7  1  0  0  0
 10  8  1  0  0  0
  8  9  2  0  0  0
  8  7  1  0  0  0
 15 16  1  0  0  0
 15 14  1  0  0  0
  7 17  1  0  0  0
 14 13  1  0  0  0
 17 18  1  0  0  0
 19 18  1  0  0  0
 18 20  1  0  0  0
  5  6  1  0  0  0
 10 11  1  0  0  0
  3  4  1  0  0  0
 23 25  1  0  0  0
M  END
> <minimizedAffinity>
-7.12083

$$$$
5JXN_6NN_E_411


 33 33  0  0  0  0  0  0  0  0999 V2000
   13.8413   42.6297   -6.4288 O   0  0  0  0  0  0  0  0  0  0  0  0
   12.7455   42.6285   -7.4615 P   0  0  0  0  0  0  0  0  0  0  0  0
   11.6890   43.6957   -7.2052 O   0  0  0  0  0  0  0  0  0  0  0  0
   11.3340   43.5905   -6.3087 H   0  0  0  0  0  0  0  0  0  0  0  0
   13.3909   42.8137   -9.0811 N   0  0  0  0  0  0  0  0  0  0  0  0
   14.3971   42.6557   -9.0257 H   0  0  0  0  0  0  0  0  0  0  0  0
   12.8703   41.9388  -10.1393 C   0  0  0  0  0  0  0  0  0  0  0  0
   13.9426   41.3968  -11.0486 C   0  0  0  0  0  0  0  0  0  0  0  0
   14.8218   42.1514  -11.4636 O   0  0  0  0  0  0  0  0  0  0  0  0
   13.9195   40.0731  -11.2931 N   0  0  0  0  0  0  0  0  0  0  0  0
   13.2270   39.5062  -10.8828 H   0  0  0  0  0  0  0  0  0  0  0  0
   14.9296   39.4811  -12.1725 C   0  0  0  0  0  0  0  0  0  0  0  0
   14.1976   37.9839  -14.0758 C   0  0  0  0  0  0  0  0  0  0  0  0
   14.6155   38.0427  -12.5835 C   0  0  0  0  0  0  0  0  0  0  0  0
   13.5312   37.3366  -11.7252 C   0  0  0  0  0  0  0  0  0  0  0  0
   13.1442   35.9525  -12.2929 C   0  0  0  0  0  0  0  0  0  0  0  0
   11.9001   42.8189  -10.9491 C   0  0  0  0  0  0  0  0  0  0  0  0
   12.1637   44.3218  -10.8020 C   0  0  0  0  0  0  0  0  0  0  0  0
   10.8255   45.0170  -10.4032 C   0  0  0  0  0  0  0  0  0  0  0  0
   12.7577   44.9471  -12.0797 C   0  0  0  0  0  0  0  0  0  0  0  0
   11.9447   41.0058   -7.6068 C   0  0  0  0  0  0  0  0  0  0  0  0
   11.4033   39.1740   -6.1065 C   0  0  0  0  0  0  0  0  0  0  0  0
   11.7564   40.4646   -6.2632 N   0  0  0  0  0  0  0  0  0  0  0  0
   11.0937   38.4704   -7.0593 O   0  0  0  0  0  0  0  0  0  0  0  0
   11.8869   41.0405   -5.4754 H   0  0  0  0  0  0  0  0  0  0  0  0
   10.9569   38.7359   -4.9294 O   0  0  0  0  0  0  0  0  0  0  0  0
    9.8593   39.4101   -4.2672 C   0  0  0  0  0  0  0  0  0  0  0  0
    9.9547   39.7023   -1.6924 C   0  0  0  0  0  0  0  0  0  0  0  0
    9.9090   39.1907   -0.4008 C   0  0  0  0  0  0  0  0  0  0  0  0
    9.6469   37.8234   -0.1676 C   0  0  0  0  0  0  0  0  0  0  0  0
    9.7617   38.8832   -2.8107 C   0  0  0  0  0  0  0  0  0  0  0  0
    9.4653   37.0044   -1.2930 C   0  0  0  0  0  0  0  0  0  0  0  0
    9.5373   37.5278   -2.5901 C   0  0  0  0  0  0  0  0  0  0  0  0
 32 33  2  0  0  0
 32 30  1  0  0  0
 33 31  1  0  0  0
 30 29  2  0  0  0
 31 27  1  0  0  0
 31 28  2  0  0  0
 29 28  1  0  0  0
 27 26  1  0  0  0
 26 22  1  0  0  0
 22 24  2  0  0  0
 22 23  1  0  0  0
 23 21  1  0  0  0
 21  2  1  0  0  0
  1  2  2  0  0  0
  3  2  1  0  0  0
  2  5  1  0  0  0
 12 10  1  0  0  0
 12 14  1  0  0  0
  5  7  1  0  0  0
 10  8  1  0  0  0
  8  9  2  0  0  0
  8  7  1  0  0  0
 15 16  1  0  0  0
 15 14  1  0  0  0
  7 17  1  0  0  0
 14 13  1  0  0  0
 17 18  1  0  0  0
 19 18  1  0  0  0
 18 20  1  0  0  0
  5  6  1  0  0  0
 10 11  1  0  0  0
  3  4  1  0  0  0
 23 25  1  0  0  0
M  END
> <minimizedAffinity>
-6.88391

$$$$
