1NFX_RDR_A_301


 34 38  0  0  0  0  0  0  0  0999 V2000
    5.1312    7.4650   22.2984 N   0  0  0  0  0  0  0  0  0  0  0  0
    4.3861    6.5196   22.9996 C   0  0  0  0  0  0  0  0  0  0  0  0
    4.1183    6.6154   24.1895 O   0  0  0  0  0  0  0  0  0  0  0  0
    3.8784    5.2949   22.1979 C   0  0  0  0  0  0  0  0  0  0  0  0
    4.5909    5.0030   20.9335 N   0  0  0  0  0  0  0  0  0  0  0  0
    4.6618    6.2339   20.1105 C   0  0  0  0  0  0  0  0  0  0  0  0
    5.4564    7.3335   20.8422 C   0  0  0  0  0  0  0  0  0  0  0  0
    3.9481    3.5902   20.0676 S   0  0  0  0  0  0  0  0  0  0  0  0
    3.1652    4.1365   18.9900 O   0  0  0  0  0  0  0  0  0  0  0  0
    3.2924    2.8392   21.1059 O   0  0  0  0  0  0  0  0  0  0  0  0
    5.2440    2.6561   19.4287 C   0  0  0  0  0  0  0  0  0  0  0  0
    6.5168    2.6989   20.0242 C   0  0  0  0  0  0  0  0  0  0  0  0
    7.4609    1.8185   19.3496 C   0  0  0  0  0  0  0  0  0  0  0  0
    6.8127    1.1409   18.2426 C   0  0  0  0  0  0  0  0  0  0  0  0
    5.1816    1.6040   18.0971 S   0  0  0  0  0  0  0  0  0  0  0  0
    7.5427    0.2392   17.4732 C   0  0  0  0  0  0  0  0  0  0  0  0
    8.8991   -0.0092   17.7823 C   0  0  0  0  0  0  0  0  0  0  0  0
    9.7752   -1.1438   16.8351 Cl  0  0  0  0  0  0  0  0  0  0  0  0
    9.5478    0.6479   18.8541 C   0  0  0  0  0  0  0  0  0  0  0  0
    8.8034    1.5650   19.6351 C   0  0  0  0  0  0  0  0  0  0  0  0
    5.6421    8.6616   23.0159 C   0  0  0  0  0  0  0  0  0  0  0  0
    8.0956    9.2454   23.4383 N   0  0  0  0  0  0  0  0  0  0  0  0
    9.1416    8.9383   24.3280 C   0  0  0  0  0  0  0  0  0  0  0  0
    8.6295    7.9994   25.2786 C   0  0  0  0  0  0  0  0  0  0  0  0
    9.4800    7.5307   26.2814 C   0  0  0  0  0  0  0  0  0  0  0  0
   10.7863    7.9493   26.3777 N   0  0  0  0  0  0  0  0  0  0  0  0
   11.2736    8.8460   25.4730 C   0  0  0  0  0  0  0  0  0  0  0  0
   10.4760    9.3638   24.4286 C   0  0  0  0  0  0  0  0  0  0  0  0
    7.2499    7.7515   24.9339 C   0  0  0  0  0  0  0  0  0  0  0  0
    6.9675    8.5422   23.7981 C   0  0  0  0  0  0  0  0  0  0  0  0
    8.2910   10.2076   22.3033 C   0  0  0  0  0  0  0  0  0  0  0  0
    9.8643    9.0774   20.8654 O   0  0  0  0  0  0  0  0  0  0  0  0
    8.5157    9.5267   20.9314 C   0  0  0  0  0  0  0  0  0  0  0  0
   10.0204    8.6478   20.0098 H   0  0  0  0  0  0  0  0  0  0  0  0
 32 33  1  0  0  0
 33 31  1  0  0  0
 31 22  1  0  0  0
 22 23  1  0  0  0
 22 30  1  0  0  0
 23 24  2  0  0  0
 23 28  1  0  0  0
 24 25  1  0  0  0
 24 29  1  0  0  0
 25 26  2  0  0  0
 26 27  1  0  0  0
 27 28  2  0  0  0
 29 30  2  0  0  0
 30 21  1  0  0  0
 21  1  1  0  0  0
  1  2  1  0  0  0
  1  7  1  0  0  0
  2  3  2  0  0  0
  2  4  1  0  0  0
  4  5  1  0  0  0
  5  6  1  0  0  0
  5  8  1  0  0  0
  6  7  1  0  0  0
  8  9  2  0  0  0
  8 10  2  0  0  0
  8 11  1  0  0  0
 11 12  2  0  0  0
 11 15  1  0  0  0
 12 13  1  0  0  0
 13 14  2  0  0  0
 13 20  1  0  0  0
 14 15  1  0  0  0
 14 16  1  0  0  0
 16 17  2  0  0  0
 17 18  1  0  0  0
 17 19  1  0  0  0
 19 20  2  0  0  0
 32 34  1  0  0  0
M  END
> <minimizedAffinity>
-9.90404

$$$$
1NFX_RDR_A_301


 34 38  0  0  0  0  0  0  0  0999 V2000
    5.4926    4.7480   21.5432 N   0  0  0  0  0  0  0  0  0  0  0  0
    4.9209    5.1293   22.7550 C   0  0  0  0  0  0  0  0  0  0  0  0
    4.0823    4.4639   23.3472 O   0  0  0  0  0  0  0  0  0  0  0  0
    5.3997    6.4719   23.3622 C   0  0  0  0  0  0  0  0  0  0  0  0
    6.0376    7.4212   22.4224 N   0  0  0  0  0  0  0  0  0  0  0  0
    7.1048    6.7251   21.6648 C   0  0  0  0  0  0  0  0  0  0  0  0
    6.5152    5.5744   20.8256 C   0  0  0  0  0  0  0  0  0  0  0  0
    6.5662    8.9334   23.1924 S   0  0  0  0  0  0  0  0  0  0  0  0
    5.5078    9.2779   24.1056 O   0  0  0  0  0  0  0  0  0  0  0  0
    6.8394    9.7945   22.0717 O   0  0  0  0  0  0  0  0  0  0  0  0
    8.0238    8.6664   24.0666 C   0  0  0  0  0  0  0  0  0  0  0  0
    7.9949    8.0655   25.3373 C   0  0  0  0  0  0  0  0  0  0  0  0
    9.3320    7.9065   25.8925 C   0  0  0  0  0  0  0  0  0  0  0  0
   10.3243    8.4196   24.9667 C   0  0  0  0  0  0  0  0  0  0  0  0
    9.6003    9.0392   23.5568 S   0  0  0  0  0  0  0  0  0  0  0  0
   11.6730    8.3487   25.3043 C   0  0  0  0  0  0  0  0  0  0  0  0
   12.0583    7.7744   26.5367 C   0  0  0  0  0  0  0  0  0  0  0  0
   13.7295    7.6749   26.9231 Cl  0  0  0  0  0  0  0  0  0  0  0  0
   11.1031    7.2756   27.4533 C   0  0  0  0  0  0  0  0  0  0  0  0
    9.7318    7.3490   27.1079 C   0  0  0  0  0  0  0  0  0  0  0  0
    5.0730    3.4684   20.9153 C   0  0  0  0  0  0  0  0  0  0  0  0
    5.8676    2.0137   18.9681 N   0  0  0  0  0  0  0  0  0  0  0  0
    7.0150    1.3266   18.5307 C   0  0  0  0  0  0  0  0  0  0  0  0
    8.0337    1.5306   19.5146 C   0  0  0  0  0  0  0  0  0  0  0  0
    9.2851    0.9455   19.3137 C   0  0  0  0  0  0  0  0  0  0  0  0
    9.5598    0.1869   18.2002 N   0  0  0  0  0  0  0  0  0  0  0  0
    8.5895   -0.0055   17.2612 C   0  0  0  0  0  0  0  0  0  0  0  0
    7.2982    0.5513   17.3947 C   0  0  0  0  0  0  0  0  0  0  0  0
    7.4658    2.3567   20.5531 C   0  0  0  0  0  0  0  0  0  0  0  0
    6.1338    2.6299   20.1706 C   0  0  0  0  0  0  0  0  0  0  0  0
    4.5990    2.0082   18.1662 C   0  0  0  0  0  0  0  0  0  0  0  0
    5.3706    4.1510   17.3706 O   0  0  0  0  0  0  0  0  0  0  0  0
    4.5880    3.0228   16.9972 C   0  0  0  0  0  0  0  0  0  0  0  0
    5.3730    4.7967   16.6467 H   0  0  0  0  0  0  0  0  0  0  0  0
 32 33  1  0  0  0
 33 31  1  0  0  0
 31 22  1  0  0  0
 22 23  1  0  0  0
 22 30  1  0  0  0
 23 24  2  0  0  0
 23 28  1  0  0  0
 24 25  1  0  0  0
 24 29  1  0  0  0
 25 26  2  0  0  0
 26 27  1  0  0  0
 27 28  2  0  0  0
 29 30  2  0  0  0
 30 21  1  0  0  0
 21  1  1  0  0  0
  1  2  1  0  0  0
  1  7  1  0  0  0
  2  3  2  0  0  0
  2  4  1  0  0  0
  4  5  1  0  0  0
  5  6  1  0  0  0
  5  8  1  0  0  0
  6  7  1  0  0  0
  8  9  2  0  0  0
  8 10  2  0  0  0
  8 11  1  0  0  0
 11 12  2  0  0  0
 11 15  1  0  0  0
 12 13  1  0  0  0
 13 14  2  0  0  0
 13 20  1  0  0  0
 14 15  1  0  0  0
 14 16  1  0  0  0
 16 17  2  0  0  0
 17 18  1  0  0  0
 17 19  1  0  0  0
 19 20  2  0  0  0
 32 34  1  0  0  0
M  END
> <minimizedAffinity>
-9.84418

$$$$
1NFX_RDR_A_301


 34 38  0  0  0  0  0  0  0  0999 V2000
    5.4283    7.9751   21.3519 N   0  0  0  0  0  0  0  0  0  0  0  0
    4.0738    7.6789   21.4881 C   0  0  0  0  0  0  0  0  0  0  0  0
    3.2851    8.3836   22.1029 O   0  0  0  0  0  0  0  0  0  0  0  0
    3.5696    6.3822   20.8064 C   0  0  0  0  0  0  0  0  0  0  0  0
    4.6018    5.3699   20.4880 N   0  0  0  0  0  0  0  0  0  0  0  0
    5.7107    6.0120   19.7426 C   0  0  0  0  0  0  0  0  0  0  0  0
    6.3847    7.1011   20.6003 C   0  0  0  0  0  0  0  0  0  0  0  0
    3.9492    3.9153   19.7021 S   0  0  0  0  0  0  0  0  0  0  0  0
    3.2122    4.4031   18.5657 O   0  0  0  0  0  0  0  0  0  0  0  0
    3.2448    3.2538   20.7690 O   0  0  0  0  0  0  0  0  0  0  0  0
    5.2394    2.9093   19.1696 C   0  0  0  0  0  0  0  0  0  0  0  0
    6.4521    2.8670   19.8795 C   0  0  0  0  0  0  0  0  0  0  0  0
    7.3991    1.9367   19.2802 C   0  0  0  0  0  0  0  0  0  0  0  0
    6.8158    1.3121   18.1079 C   0  0  0  0  0  0  0  0  0  0  0  0
    5.2362    1.8768   17.8213 S   0  0  0  0  0  0  0  0  0  0  0  0
    7.5575    0.3749   17.3942 C   0  0  0  0  0  0  0  0  0  0  0  0
    8.8620    0.0397   17.8220 C   0  0  0  0  0  0  0  0  0  0  0  0
    9.7511   -1.1373   16.9409 Cl  0  0  0  0  0  0  0  0  0  0  0  0
    9.4478    0.6443   18.9589 C   0  0  0  0  0  0  0  0  0  0  0  0
    8.6916    1.5976   19.6831 C   0  0  0  0  0  0  0  0  0  0  0  0
    5.9672    9.2075   21.9829 C   0  0  0  0  0  0  0  0  0  0  0  0
    7.1330    8.2593   24.0519 N   0  0  0  0  0  0  0  0  0  0  0  0
    8.3601    8.3455   24.7354 C   0  0  0  0  0  0  0  0  0  0  0  0
    9.1856    9.2643   24.0130 C   0  0  0  0  0  0  0  0  0  0  0  0
   10.4707    9.5274   24.4905 C   0  0  0  0  0  0  0  0  0  0  0  0
   10.9582    8.9268   25.6274 N   0  0  0  0  0  0  0  0  0  0  0  0
   10.1721    8.0492   26.3144 C   0  0  0  0  0  0  0  0  0  0  0  0
    8.8604    7.7338   25.8961 C   0  0  0  0  0  0  0  0  0  0  0  0
    8.4203    9.7269   22.8801 C   0  0  0  0  0  0  0  0  0  0  0  0
    7.1670    9.0788   22.9456 C   0  0  0  0  0  0  0  0  0  0  0  0
    6.0238    7.3763   24.5437 C   0  0  0  0  0  0  0  0  0  0  0  0
    3.6405    7.4886   24.9007 O   0  0  0  0  0  0  0  0  0  0  0  0
    4.8626    8.1421   25.2230 C   0  0  0  0  0  0  0  0  0  0  0  0
    2.9024    7.9579   25.3201 H   0  0  0  0  0  0  0  0  0  0  0  0
 32 33  1  0  0  0
 33 31  1  0  0  0
 31 22  1  0  0  0
 22 23  1  0  0  0
 22 30  1  0  0  0
 23 24  2  0  0  0
 23 28  1  0  0  0
 24 25  1  0  0  0
 24 29  1  0  0  0
 25 26  2  0  0  0
 26 27  1  0  0  0
 27 28  2  0  0  0
 29 30  2  0  0  0
 30 21  1  0  0  0
 21  1  1  0  0  0
  1  2  1  0  0  0
  1  7  1  0  0  0
  2  3  2  0  0  0
  2  4  1  0  0  0
  4  5  1  0  0  0
  5  6  1  0  0  0
  5  8  1  0  0  0
  6  7  1  0  0  0
  8  9  2  0  0  0
  8 10  2  0  0  0
  8 11  1  0  0  0
 11 12  2  0  0  0
 11 15  1  0  0  0
 12 13  1  0  0  0
 13 14  2  0  0  0
 13 20  1  0  0  0
 14 15  1  0  0  0
 14 16  1  0  0  0
 16 17  2  0  0  0
 17 18  1  0  0  0
 17 19  1  0  0  0
 19 20  2  0  0  0
 32 34  1  0  0  0
M  END
> <minimizedAffinity>
-8.89200

$$$$
1NFX_RDR_A_301


 34 38  0  0  0  0  0  0  0  0999 V2000
    5.1731    4.2990   19.7727 N   0  0  0  0  0  0  0  0  0  0  0  0
    5.3313    5.4679   19.0315 C   0  0  0  0  0  0  0  0  0  0  0  0
    5.3381    5.4986   17.8085 O   0  0  0  0  0  0  0  0  0  0  0  0
    5.4989    6.7849   19.8302 C   0  0  0  0  0  0  0  0  0  0  0  0
    5.9337    6.6421   21.2381 N   0  0  0  0  0  0  0  0  0  0  0  0
    5.0599    5.6637   21.9285 C   0  0  0  0  0  0  0  0  0  0  0  0
    5.1714    4.2744   21.2703 C   0  0  0  0  0  0  0  0  0  0  0  0
    6.0968    8.1934   22.0902 S   0  0  0  0  0  0  0  0  0  0  0  0
    4.8340    8.3905   22.7529 O   0  0  0  0  0  0  0  0  0  0  0  0
    6.4952    9.1010   21.0464 O   0  0  0  0  0  0  0  0  0  0  0  0
    7.3559    8.0898   23.2582 C   0  0  0  0  0  0  0  0  0  0  0  0
    8.5787    8.7516   23.0510 C   0  0  0  0  0  0  0  0  0  0  0  0
    9.4953    8.5591   24.1664 C   0  0  0  0  0  0  0  0  0  0  0  0
    8.8795    7.7294   25.1848 C   0  0  0  0  0  0  0  0  0  0  0  0
    7.3082    7.2545   24.7360 S   0  0  0  0  0  0  0  0  0  0  0  0
    9.5889    7.4358   26.3461 C   0  0  0  0  0  0  0  0  0  0  0  0
   10.8925    7.9523   26.5212 C   0  0  0  0  0  0  0  0  0  0  0  0
   11.7413    7.5977   27.9723 Cl  0  0  0  0  0  0  0  0  0  0  0  0
   11.5099    8.7573   25.5351 C   0  0  0  0  0  0  0  0  0  0  0  0
   10.7865    9.0544   24.3545 C   0  0  0  0  0  0  0  0  0  0  0  0
    5.0057    3.0063   19.0595 C   0  0  0  0  0  0  0  0  0  0  0  0
    6.2943    1.2112   17.7726 N   0  0  0  0  0  0  0  0  0  0  0  0
    7.5586    0.5936   17.7531 C   0  0  0  0  0  0  0  0  0  0  0  0
    8.3364    1.1838   18.7991 C   0  0  0  0  0  0  0  0  0  0  0  0
    9.6458    0.7398   18.9915 C   0  0  0  0  0  0  0  0  0  0  0  0
   10.2014   -0.2409   18.2038 N   0  0  0  0  0  0  0  0  0  0  0  0
    9.4607   -0.8016   17.2053 C   0  0  0  0  0  0  0  0  0  0  0  0
    8.1284   -0.4077   16.9503 C   0  0  0  0  0  0  0  0  0  0  0  0
    7.5043    2.1698   19.4462 C   0  0  0  0  0  0  0  0  0  0  0  0
    6.2600    2.1517   18.7780 C   0  0  0  0  0  0  0  0  0  0  0  0
    5.2197    0.8250   16.7989 C   0  0  0  0  0  0  0  0  0  0  0  0
    5.3939    0.5867   14.4045 O   0  0  0  0  0  0  0  0  0  0  0  0
    5.3075    1.5597   15.4392 C   0  0  0  0  0  0  0  0  0  0  0  0
    5.4496    1.0329   13.5450 H   0  0  0  0  0  0  0  0  0  0  0  0
 32 33  1  0  0  0
 33 31  1  0  0  0
 31 22  1  0  0  0
 22 23  1  0  0  0
 22 30  1  0  0  0
 23 24  2  0  0  0
 23 28  1  0  0  0
 24 25  1  0  0  0
 24 29  1  0  0  0
 25 26  2  0  0  0
 26 27  1  0  0  0
 27 28  2  0  0  0
 29 30  2  0  0  0
 30 21  1  0  0  0
 21  1  1  0  0  0
  1  2  1  0  0  0
  1  7  1  0  0  0
  2  3  2  0  0  0
  2  4  1  0  0  0
  4  5  1  0  0  0
  5  6  1  0  0  0
  5  8  1  0  0  0
  6  7  1  0  0  0
  8  9  2  0  0  0
  8 10  2  0  0  0
  8 11  1  0  0  0
 11 12  2  0  0  0
 11 15  1  0  0  0
 12 13  1  0  0  0
 13 14  2  0  0  0
 13 20  1  0  0  0
 14 15  1  0  0  0
 14 16  1  0  0  0
 16 17  2  0  0  0
 17 18  1  0  0  0
 17 19  1  0  0  0
 19 20  2  0  0  0
 32 34  1  0  0  0
M  END
> <minimizedAffinity>
-8.40839

$$$$
1NFX_RDR_A_301


 34 38  0  0  0  0  0  0  0  0999 V2000
    5.5670    7.6005   24.0309 N   0  0  0  0  0  0  0  0  0  0  0  0
    4.2702    7.3195   24.4551 C   0  0  0  0  0  0  0  0  0  0  0  0
    3.6839    7.9643   25.3137 O   0  0  0  0  0  0  0  0  0  0  0  0
    3.5570    6.1222   23.7780 C   0  0  0  0  0  0  0  0  0  0  0  0
    4.4346    5.1322   23.1138 N   0  0  0  0  0  0  0  0  0  0  0  0
    5.3663    5.8330   22.1983 C   0  0  0  0  0  0  0  0  0  0  0  0
    6.2757    6.7999   22.9819 C   0  0  0  0  0  0  0  0  0  0  0  0
    3.5453    3.7935   22.3547 S   0  0  0  0  0  0  0  0  0  0  0  0
    2.2026    4.2848   22.1859 O   0  0  0  0  0  0  0  0  0  0  0  0
    3.7861    2.6910   23.2483 O   0  0  0  0  0  0  0  0  0  0  0  0
    4.2297    3.4335   20.8178 C   0  0  0  0  0  0  0  0  0  0  0  0
    5.1661    2.3941   20.6786 C   0  0  0  0  0  0  0  0  0  0  0  0
    5.6002    2.2368   19.2972 C   0  0  0  0  0  0  0  0  0  0  0  0
    4.9364    3.2084   18.4486 C   0  0  0  0  0  0  0  0  0  0  0  0
    3.8877    4.2054   19.3443 S   0  0  0  0  0  0  0  0  0  0  0  0
    5.2044    3.2167   17.0826 C   0  0  0  0  0  0  0  0  0  0  0  0
    6.1111    2.2784   16.5399 C   0  0  0  0  0  0  0  0  0  0  0  0
    6.4093    2.2902   14.8479 Cl  0  0  0  0  0  0  0  0  0  0  0  0
    6.7716    1.3288   17.3545 C   0  0  0  0  0  0  0  0  0  0  0  0
    6.4978    1.3225   18.7438 C   0  0  0  0  0  0  0  0  0  0  0  0
    6.2987    8.7391   24.6439 C   0  0  0  0  0  0  0  0  0  0  0  0
    8.8098    9.0559   24.2786 N   0  0  0  0  0  0  0  0  0  0  0  0
   10.0393    8.7179   24.8737 C   0  0  0  0  0  0  0  0  0  0  0  0
    9.7476    7.9565   26.0495 C   0  0  0  0  0  0  0  0  0  0  0  0
   10.8099    7.4955   26.8290 C   0  0  0  0  0  0  0  0  0  0  0  0
   12.1186    7.7567   26.4975 N   0  0  0  0  0  0  0  0  0  0  0  0
   12.3964    8.4846   25.3781 C   0  0  0  0  0  0  0  0  0  0  0  0
   11.3766    8.9831   24.5375 C   0  0  0  0  0  0  0  0  0  0  0  0
    8.3114    7.8462   26.1420 C   0  0  0  0  0  0  0  0  0  0  0  0
    7.7794    8.5403   25.0328 C   0  0  0  0  0  0  0  0  0  0  0  0
    8.7479    9.8600   23.0130 C   0  0  0  0  0  0  0  0  0  0  0  0
    9.9299    9.2132   21.0118 O   0  0  0  0  0  0  0  0  0  0  0  0
    8.7156    9.0041   21.7235 C   0  0  0  0  0  0  0  0  0  0  0  0
    9.9242    8.6824   20.1999 H   0  0  0  0  0  0  0  0  0  0  0  0
 32 33  1  0  0  0
 33 31  1  0  0  0
 31 22  1  0  0  0
 22 23  1  0  0  0
 22 30  1  0  0  0
 23 24  2  0  0  0
 23 28  1  0  0  0
 24 25  1  0  0  0
 24 29  1  0  0  0
 25 26  2  0  0  0
 26 27  1  0  0  0
 27 28  2  0  0  0
 29 30  2  0  0  0
 30 21  1  0  0  0
 21  1  1  0  0  0
  1  2  1  0  0  0
  1  7  1  0  0  0
  2  3  2  0  0  0
  2  4  1  0  0  0
  4  5  1  0  0  0
  5  6  1  0  0  0
  5  8  1  0  0  0
  6  7  1  0  0  0
  8  9  2  0  0  0
  8 10  2  0  0  0
  8 11  1  0  0  0
 11 12  2  0  0  0
 11 15  1  0  0  0
 12 13  1  0  0  0
 13 14  2  0  0  0
 13 20  1  0  0  0
 14 15  1  0  0  0
 14 16  1  0  0  0
 16 17  2  0  0  0
 17 18  1  0  0  0
 17 19  1  0  0  0
 19 20  2  0  0  0
 32 34  1  0  0  0
M  END
> <minimizedAffinity>
-8.38422

$$$$
1NFX_RDR_A_301


 34 38  0  0  0  0  0  0  0  0999 V2000
    4.0906    4.5101   21.2182 N   0  0  0  0  0  0  0  0  0  0  0  0
    4.2640    4.8012   22.5694 C   0  0  0  0  0  0  0  0  0  0  0  0
    4.0878    3.9872   23.4655 O   0  0  0  0  0  0  0  0  0  0  0  0
    4.7109    6.2421   22.9225 C   0  0  0  0  0  0  0  0  0  0  0  0
    4.4677    7.2717   21.8870 N   0  0  0  0  0  0  0  0  0  0  0  0
    5.0140    6.8069   20.5897 C   0  0  0  0  0  0  0  0  0  0  0  0
    4.3049    5.5175   20.1306 C   0  0  0  0  0  0  0  0  0  0  0  0
    5.0127    8.8958   22.3607 S   0  0  0  0  0  0  0  0  0  0  0  0
    4.0443    9.3487   23.3250 O   0  0  0  0  0  0  0  0  0  0  0  0
    5.1293    9.5833   21.1015 O   0  0  0  0  0  0  0  0  0  0  0  0
    6.5649    8.8005   23.0969 C   0  0  0  0  0  0  0  0  0  0  0  0
    6.6901    8.4905   24.4624 C   0  0  0  0  0  0  0  0  0  0  0  0
    8.0843    8.4334   24.8799 C   0  0  0  0  0  0  0  0  0  0  0  0
    8.9569    8.7164   23.7559 C   0  0  0  0  0  0  0  0  0  0  0  0
    8.0675    9.0272   22.3388 S   0  0  0  0  0  0  0  0  0  0  0  0
   10.3364    8.6979   23.9419 C   0  0  0  0  0  0  0  0  0  0  0  0
   10.8683    8.3986   25.2165 C   0  0  0  0  0  0  0  0  0  0  0  0
   12.5740    8.3573   25.4188 Cl  0  0  0  0  0  0  0  0  0  0  0  0
   10.0313    8.1268   26.3242 C   0  0  0  0  0  0  0  0  0  0  0  0
    8.6284    8.1466   26.1327 C   0  0  0  0  0  0  0  0  0  0  0  0
    3.6650    3.1432   20.8207 C   0  0  0  0  0  0  0  0  0  0  0  0
    5.8734    2.1966   19.9453 N   0  0  0  0  0  0  0  0  0  0  0  0
    6.3789    1.4664   18.8538 C   0  0  0  0  0  0  0  0  0  0  0  0
    5.2786    1.1875   17.9826 C   0  0  0  0  0  0  0  0  0  0  0  0
    5.5180    0.4652   16.8123 C   0  0  0  0  0  0  0  0  0  0  0  0
    6.7753    0.0169   16.4819 N   0  0  0  0  0  0  0  0  0  0  0  0
    7.8235    0.2808   17.3136 C   0  0  0  0  0  0  0  0  0  0  0  0
    7.6617    1.0076   18.5139 C   0  0  0  0  0  0  0  0  0  0  0  0
    4.1015    1.7708   18.5804 C   0  0  0  0  0  0  0  0  0  0  0  0
    4.5174    2.3771   19.7864 C   0  0  0  0  0  0  0  0  0  0  0  0
    6.7672    2.6591   21.0586 C   0  0  0  0  0  0  0  0  0  0  0  0
    7.6529    4.8872   21.3252 O   0  0  0  0  0  0  0  0  0  0  0  0
    7.8531    3.6697   20.6164 C   0  0  0  0  0  0  0  0  0  0  0  0
    8.3271    5.5314   21.0581 H   0  0  0  0  0  0  0  0  0  0  0  0
 32 33  1  0  0  0
 33 31  1  0  0  0
 31 22  1  0  0  0
 22 23  1  0  0  0
 22 30  1  0  0  0
 23 24  2  0  0  0
 23 28  1  0  0  0
 24 25  1  0  0  0
 24 29  1  0  0  0
 25 26  2  0  0  0
 26 27  1  0  0  0
 27 28  2  0  0  0
 29 30  2  0  0  0
 30 21  1  0  0  0
 21  1  1  0  0  0
  1  2  1  0  0  0
  1  7  1  0  0  0
  2  3  2  0  0  0
  2  4  1  0  0  0
  4  5  1  0  0  0
  5  6  1  0  0  0
  5  8  1  0  0  0
  6  7  1  0  0  0
  8  9  2  0  0  0
  8 10  2  0  0  0
  8 11  1  0  0  0
 11 12  2  0  0  0
 11 15  1  0  0  0
 12 13  1  0  0  0
 13 14  2  0  0  0
 13 20  1  0  0  0
 14 15  1  0  0  0
 14 16  1  0  0  0
 16 17  2  0  0  0
 17 18  1  0  0  0
 17 19  1  0  0  0
 19 20  2  0  0  0
 32 34  1  0  0  0
M  END
> <minimizedAffinity>
-8.18071

$$$$
1NFX_RDR_A_301


 34 38  0  0  0  0  0  0  0  0999 V2000
    4.0638    6.5542   19.7064 N   0  0  0  0  0  0  0  0  0  0  0  0
    4.8263    6.1902   18.5988 C   0  0  0  0  0  0  0  0  0  0  0  0
    5.5741    6.9584   18.0095 O   0  0  0  0  0  0  0  0  0  0  0  0
    4.7024    4.7232   18.1161 C   0  0  0  0  0  0  0  0  0  0  0  0
    3.4894    3.9946   18.5512 N   0  0  0  0  0  0  0  0  0  0  0  0
    3.3330    4.1271   20.0194 C   0  0  0  0  0  0  0  0  0  0  0  0
    3.1481    5.6050   20.4163 C   0  0  0  0  0  0  0  0  0  0  0  0
    3.4215    2.3179   17.9652 S   0  0  0  0  0  0  0  0  0  0  0  0
    2.8854    2.4091   16.6322 O   0  0  0  0  0  0  0  0  0  0  0  0
    2.6631    1.6438   18.9862 O   0  0  0  0  0  0  0  0  0  0  0  0
    5.0074    1.6530   17.9094 C   0  0  0  0  0  0  0  0  0  0  0  0
    5.9587    1.9913   18.8876 C   0  0  0  0  0  0  0  0  0  0  0  0
    7.2242    1.3025   18.6744 C   0  0  0  0  0  0  0  0  0  0  0  0
    7.1426    0.4544   17.5001 C   0  0  0  0  0  0  0  0  0  0  0  0
    5.6113    0.5537   16.7644 S   0  0  0  0  0  0  0  0  0  0  0  0
    8.2488   -0.3048   17.1290 C   0  0  0  0  0  0  0  0  0  0  0  0
    9.4311   -0.2456   17.9010 C   0  0  0  0  0  0  0  0  0  0  0  0
   10.7766   -1.2091   17.4393 Cl  0  0  0  0  0  0  0  0  0  0  0  0
    9.5292    0.5810   19.0448 C   0  0  0  0  0  0  0  0  0  0  0  0
    8.4028    1.3527   19.4202 C   0  0  0  0  0  0  0  0  0  0  0  0
    4.1446    7.9479   20.2149 C   0  0  0  0  0  0  0  0  0  0  0  0
    6.3675    8.9165   21.0272 N   0  0  0  0  0  0  0  0  0  0  0  0
    7.1066    9.0779   22.2137 C   0  0  0  0  0  0  0  0  0  0  0  0
    6.3372    8.5047   23.2753 C   0  0  0  0  0  0  0  0  0  0  0  0
    6.8559    8.5369   24.5708 C   0  0  0  0  0  0  0  0  0  0  0  0
    8.0773    9.1046   24.8483 N   0  0  0  0  0  0  0  0  0  0  0  0
    8.8094    9.6530   23.8368 C   0  0  0  0  0  0  0  0  0  0  0  0
    8.3535    9.6567   22.4999 C   0  0  0  0  0  0  0  0  0  0  0  0
    5.1188    7.9948   22.6931 C   0  0  0  0  0  0  0  0  0  0  0  0
    5.1826    8.2742   21.3100 C   0  0  0  0  0  0  0  0  0  0  0  0
    6.8881    9.4078   19.7082 C   0  0  0  0  0  0  0  0  0  0  0  0
    7.7418   11.6628   19.6301 O   0  0  0  0  0  0  0  0  0  0  0  0
    6.5642   10.8931   19.4166 C   0  0  0  0  0  0  0  0  0  0  0  0
    7.5541   12.5974   19.4509 H   0  0  0  0  0  0  0  0  0  0  0  0
 32 33  1  0  0  0
 33 31  1  0  0  0
 31 22  1  0  0  0
 22 23  1  0  0  0
 22 30  1  0  0  0
 23 24  2  0  0  0
 23 28  1  0  0  0
 24 25  1  0  0  0
 24 29  1  0  0  0
 25 26  2  0  0  0
 26 27  1  0  0  0
 27 28  2  0  0  0
 29 30  2  0  0  0
 30 21  1  0  0  0
 21  1  1  0  0  0
  1  2  1  0  0  0
  1  7  1  0  0  0
  2  3  2  0  0  0
  2  4  1  0  0  0
  4  5  1  0  0  0
  5  6  1  0  0  0
  5  8  1  0  0  0
  6  7  1  0  0  0
  8  9  2  0  0  0
  8 10  2  0  0  0
  8 11  1  0  0  0
 11 12  2  0  0  0
 11 15  1  0  0  0
 12 13  1  0  0  0
 13 14  2  0  0  0
 13 20  1  0  0  0
 14 15  1  0  0  0
 14 16  1  0  0  0
 16 17  2  0  0  0
 17 18  1  0  0  0
 17 19  1  0  0  0
 19 20  2  0  0  0
 32 34  1  0  0  0
M  END
> <minimizedAffinity>
-7.36696

$$$$
1NFX_RDR_A_301


 34 38  0  0  0  0  0  0  0  0999 V2000
    5.4065    6.8130   22.0954 N   0  0  0  0  0  0  0  0  0  0  0  0
    5.8726    6.4890   20.8231 C   0  0  0  0  0  0  0  0  0  0  0  0
    6.5887    7.2238   20.1569 O   0  0  0  0  0  0  0  0  0  0  0  0
    5.4476    5.1128   20.2523 C   0  0  0  0  0  0  0  0  0  0  0  0
    4.2552    4.4909   20.8712 N   0  0  0  0  0  0  0  0  0  0  0  0
    4.4160    4.4721   22.3447 C   0  0  0  0  0  0  0  0  0  0  0  0
    4.5259    5.9063   22.8990 C   0  0  0  0  0  0  0  0  0  0  0  0
    3.8341    2.9131   20.1697 S   0  0  0  0  0  0  0  0  0  0  0  0
    5.0959    2.2928   19.8600 O   0  0  0  0  0  0  0  0  0  0  0  0
    2.9362    3.2589   19.0991 O   0  0  0  0  0  0  0  0  0  0  0  0
    2.9893    1.9638   21.3296 C   0  0  0  0  0  0  0  0  0  0  0  0
    3.6492    0.9406   22.0325 C   0  0  0  0  0  0  0  0  0  0  0  0
    2.7657    0.2782   22.9823 C   0  0  0  0  0  0  0  0  0  0  0  0
    1.4413    0.8685   22.9319 C   0  0  0  0  0  0  0  0  0  0  0  0
    1.3603    2.1212   21.7829 S   0  0  0  0  0  0  0  0  0  0  0  0
    0.4465    0.3847   23.7770 C   0  0  0  0  0  0  0  0  0  0  0  0
    0.7389   -0.6668   24.6747 C   0  0  0  0  0  0  0  0  0  0  0  0
   -0.4967   -1.2326   25.7259 Cl  0  0  0  0  0  0  0  0  0  0  0  0
    2.0230   -1.2576   24.7317 C   0  0  0  0  0  0  0  0  0  0  0  0
    3.0334   -0.7642   23.8709 C   0  0  0  0  0  0  0  0  0  0  0  0
    5.7844    8.1193   22.6941 C   0  0  0  0  0  0  0  0  0  0  0  0
    8.0923    9.0415   23.2963 N   0  0  0  0  0  0  0  0  0  0  0  0
    9.0989    8.8846   24.2670 C   0  0  0  0  0  0  0  0  0  0  0  0
    8.6509    7.8839   25.1864 C   0  0  0  0  0  0  0  0  0  0  0  0
    9.4783    7.5397   26.2566 C   0  0  0  0  0  0  0  0  0  0  0  0
   10.7019    8.1373   26.4478 N   0  0  0  0  0  0  0  0  0  0  0  0
   11.1278    9.0929   25.5728 C   0  0  0  0  0  0  0  0  0  0  0  0
   10.3489    9.4930   24.4644 C   0  0  0  0  0  0  0  0  0  0  0  0
    7.3504    7.4448   24.7400 C   0  0  0  0  0  0  0  0  0  0  0  0
    7.0490    8.1874   23.5768 C   0  0  0  0  0  0  0  0  0  0  0  0
    8.2385   10.0207   22.1685 C   0  0  0  0  0  0  0  0  0  0  0  0
    9.3426    8.1137   21.1864 O   0  0  0  0  0  0  0  0  0  0  0  0
    8.8520    9.4145   20.8831 C   0  0  0  0  0  0  0  0  0  0  0  0
    9.7307    7.7205   20.3891 H   0  0  0  0  0  0  0  0  0  0  0  0
 32 33  1  0  0  0
 33 31  1  0  0  0
 31 22  1  0  0  0
 22 23  1  0  0  0
 22 30  1  0  0  0
 23 24  2  0  0  0
 23 28  1  0  0  0
 24 25  1  0  0  0
 24 29  1  0  0  0
 25 26  2  0  0  0
 26 27  1  0  0  0
 27 28  2  0  0  0
 29 30  2  0  0  0
 30 21  1  0  0  0
 21  1  1  0  0  0
  1  2  1  0  0  0
  1  7  1  0  0  0
  2  3  2  0  0  0
  2  4  1  0  0  0
  4  5  1  0  0  0
  5  6  1  0  0  0
  5  8  1  0  0  0
  6  7  1  0  0  0
  8  9  2  0  0  0
  8 10  2  0  0  0
  8 11  1  0  0  0
 11 12  2  0  0  0
 11 15  1  0  0  0
 12 13  1  0  0  0
 13 14  2  0  0  0
 13 20  1  0  0  0
 14 15  1  0  0  0
 14 16  1  0  0  0
 16 17  2  0  0  0
 17 18  1  0  0  0
 17 19  1  0  0  0
 19 20  2  0  0  0
 32 34  1  0  0  0
M  END
> <minimizedAffinity>
-7.16973

$$$$
1NFX_RDR_A_301


 34 38  0  0  0  0  0  0  0  0999 V2000
    5.8488    5.8069   20.0126 N   0  0  0  0  0  0  0  0  0  0  0  0
    5.3379    7.0748   19.7441 C   0  0  0  0  0  0  0  0  0  0  0  0
    4.6929    7.3464   18.7407 O   0  0  0  0  0  0  0  0  0  0  0  0
    5.6139    8.1772   20.7972 C   0  0  0  0  0  0  0  0  0  0  0  0
    6.7436    7.9276   21.7208 N   0  0  0  0  0  0  0  0  0  0  0  0
    6.5983    6.5829   22.3275 C   0  0  0  0  0  0  0  0  0  0  0  0
    6.6413    5.4884   21.2430 C   0  0  0  0  0  0  0  0  0  0  0  0
    6.9937    9.2311   22.9030 S   0  0  0  0  0  0  0  0  0  0  0  0
    5.7859    9.2628   23.6858 O   0  0  0  0  0  0  0  0  0  0  0  0
    7.3301   10.3620   22.0784 O   0  0  0  0  0  0  0  0  0  0  0  0
    8.3326    8.8535   23.9155 C   0  0  0  0  0  0  0  0  0  0  0  0
    8.1342    8.2252   25.1574 C   0  0  0  0  0  0  0  0  0  0  0  0
    9.3935    7.9706   25.8436 C   0  0  0  0  0  0  0  0  0  0  0  0
   10.5065    8.4436   25.0422 C   0  0  0  0  0  0  0  0  0  0  0  0
    9.9732    9.1405   23.5841 S   0  0  0  0  0  0  0  0  0  0  0  0
   11.8054    8.2815   25.5159 C   0  0  0  0  0  0  0  0  0  0  0  0
   12.0239    7.6550   26.7636 C   0  0  0  0  0  0  0  0  0  0  0  0
   13.6361    7.4431   27.3186 Cl  0  0  0  0  0  0  0  0  0  0  0  0
   10.9495    7.1941   27.5602 C   0  0  0  0  0  0  0  0  0  0  0  0
    9.6290    7.3605   27.0765 C   0  0  0  0  0  0  0  0  0  0  0  0
    5.6127    4.7099   19.0387 C   0  0  0  0  0  0  0  0  0  0  0  0
    4.3768    2.5097   18.6253 N   0  0  0  0  0  0  0  0  0  0  0  0
    3.2925    1.7681   19.1300 C   0  0  0  0  0  0  0  0  0  0  0  0
    2.7324    2.5170   20.2129 C   0  0  0  0  0  0  0  0  0  0  0  0
    1.6315    1.9914   20.8913 C   0  0  0  0  0  0  0  0  0  0  0  0
    1.0796    0.7797   20.5477 N   0  0  0  0  0  0  0  0  0  0  0  0
    1.6150    0.0649   19.5170 C   0  0  0  0  0  0  0  0  0  0  0  0
    2.7269    0.5312   18.7811 C   0  0  0  0  0  0  0  0  0  0  0  0
    3.5088    3.7269   20.3426 C   0  0  0  0  0  0  0  0  0  0  0  0
    4.5094    3.6751   19.3470 C   0  0  0  0  0  0  0  0  0  0  0  0
    5.1962    2.0110   17.4712 C   0  0  0  0  0  0  0  0  0  0  0  0
    7.1779    1.5215   18.7570 O   0  0  0  0  0  0  0  0  0  0  0  0
    6.2421    0.9375   17.8581 C   0  0  0  0  0  0  0  0  0  0  0  0
    7.8407    0.8596   19.0088 H   0  0  0  0  0  0  0  0  0  0  0  0
 32 33  1  0  0  0
 33 31  1  0  0  0
 31 22  1  0  0  0
 22 23  1  0  0  0
 22 30  1  0  0  0
 23 24  2  0  0  0
 23 28  1  0  0  0
 24 25  1  0  0  0
 24 29  1  0  0  0
 25 26  2  0  0  0
 26 27  1  0  0  0
 27 28  2  0  0  0
 29 30  2  0  0  0
 30 21  1  0  0  0
 21  1  1  0  0  0
  1  2  1  0  0  0
  1  7  1  0  0  0
  2  3  2  0  0  0
  2  4  1  0  0  0
  4  5  1  0  0  0
  5  6  1  0  0  0
  5  8  1  0  0  0
  6  7  1  0  0  0
  8  9  2  0  0  0
  8 10  2  0  0  0
  8 11  1  0  0  0
 11 12  2  0  0  0
 11 15  1  0  0  0
 12 13  1  0  0  0
 13 14  2  0  0  0
 13 20  1  0  0  0
 14 15  1  0  0  0
 14 16  1  0  0  0
 16 17  2  0  0  0
 17 18  1  0  0  0
 17 19  1  0  0  0
 19 20  2  0  0  0
 32 34  1  0  0  0
M  END
> <minimizedAffinity>
-7.04208

$$$$
