5E2P_7P0_A_301


 44 48  0  0  0  0  0  0  0  0999 V2000
   40.7302  -20.7137   28.8432 C   0  0  0  0  0  0  0  0  0  0  0  0
   43.1429  -20.9121   29.2944 C   0  0  0  0  0  0  0  0  0  0  0  0
   43.4438  -20.5883   28.1485 O   0  0  0  0  0  0  0  0  0  0  0  0
   41.8608  -20.9663   29.7196 N   0  0  0  0  0  0  0  0  0  0  0  0
   41.6859  -21.1862   30.6631 H   0  0  0  0  0  0  0  0  0  0  0  0
   44.2047  -21.2865   30.2784 C   0  0  0  0  0  0  0  0  0  0  0  0
   43.8990  -21.9987   31.4409 C   0  0  0  0  0  0  0  0  0  0  0  0
   44.8899  -22.3406   32.3438 C   0  0  0  0  0  0  0  0  0  0  0  0
   46.2273  -22.0242   32.0817 C   0  0  0  0  0  0  0  0  0  0  0  0
   46.5586  -21.3393   30.8929 C   0  0  0  0  0  0  0  0  0  0  0  0
   45.5325  -20.9539   30.0134 C   0  0  0  0  0  0  0  0  0  0  0  0
   47.9736  -21.1377   30.6469 C   0  0  0  0  0  0  0  0  0  0  0  0
   48.9098  -21.5613   31.5344 C   0  0  0  0  0  0  0  0  0  0  0  0
   48.5750  -22.2126   32.7606 C   0  0  0  0  0  0  0  0  0  0  0  0
   49.3957  -22.5206   33.6328 O   0  0  0  0  0  0  0  0  0  0  0  0
   47.2401  -22.4243   32.9620 N   0  0  0  0  0  0  0  0  0  0  0  0
   48.2685  -20.5478   29.5157 O   0  0  0  0  0  0  0  0  0  0  0  0
   46.9710  -22.8919   33.7855 H   0  0  0  0  0  0  0  0  0  0  0  0
   47.5838  -20.2743   28.9375 H   0  0  0  0  0  0  0  0  0  0  0  0
   39.9448  -19.5422   29.4106 C   0  0  0  0  0  0  0  0  0  0  0  0
   39.9725  -19.3025   30.6166 O   0  0  0  0  0  0  0  0  0  0  0  0
   39.2110  -18.8509   28.5439 N   0  0  0  0  0  0  0  0  0  0  0  0
   39.2106  -19.1252   27.5984 H   0  0  0  0  0  0  0  0  0  0  0  0
   38.4087  -17.7046   28.9405 C   0  0  0  0  0  0  0  0  0  0  0  0
   37.1899  -17.5525   28.0782 C   0  0  0  0  0  0  0  0  0  0  0  0
   36.6461  -13.8677   27.2265 C   0  0  0  0  0  0  0  0  0  0  0  0
   35.5856  -13.5673   28.0697 C   0  0  0  0  0  0  0  0  0  0  0  0
   35.1175  -14.5336   28.9350 C   0  0  0  0  0  0  0  0  0  0  0  0
   35.6685  -15.7978   28.9695 C   0  0  0  0  0  0  0  0  0  0  0  0
   36.7038  -16.1267   28.0994 C   0  0  0  0  0  0  0  0  0  0  0  0
   37.2011  -15.1459   27.2309 C   0  0  0  0  0  0  0  0  0  0  0  0
   33.7915  -14.1518   30.0141 Cl  0  0  0  0  0  0  0  0  0  0  0  0
   38.2485  -15.4508   26.3094 N   0  0  0  0  0  0  0  0  0  0  0  0
   38.2350  -15.8250   25.0203 C   0  0  0  0  0  0  0  0  0  0  0  0
   39.4567  -16.0306   24.6125 N   0  0  0  0  0  0  0  0  0  0  0  0
   40.2509  -15.7708   25.6817 N   0  0  0  0  0  0  0  0  0  0  0  0
   39.5434  -15.4193   26.7088 N   0  0  0  0  0  0  0  0  0  0  0  0
   39.7998  -21.9359   28.7195 C   0  0  0  0  0  0  0  0  0  0  0  0
   40.4643  -23.2481   29.0569 C   0  0  0  0  0  0  0  0  0  0  0  0
   41.2572  -23.8965   28.1205 C   0  0  0  0  0  0  0  0  0  0  0  0
   40.1826  -23.8985   30.2507 C   0  0  0  0  0  0  0  0  0  0  0  0
   41.6902  -25.1926   28.3318 C   0  0  0  0  0  0  0  0  0  0  0  0
   40.6274  -25.1922   30.4729 C   0  0  0  0  0  0  0  0  0  0  0  0
   41.3680  -25.8498   29.5045 C   0  0  0  0  0  0  0  0  0  0  0  0
  2  6  1  0  0  0
  2  3  2  0  0  0
  2  4  1  0  0  0
  6  7  1  0  0  0
  6 11  2  0  0  0
  7  8  2  0  0  0
  8  9  1  0  0  0
 11 10  1  0  0  0
 10  9  2  0  0  0
 10 12  1  0  0  0
  9 16  1  0  0  0
 16 14  1  0  0  0
 14 13  1  0  0  0
 14 15  2  0  0  0
 13 12  2  0  0  0
  4  1  1  0  0  0
  1 20  1  0  0  0
  1 38  1  0  0  0
 20 21  2  0  0  0
 20 22  1  0  0  0
 38 39  1  0  0  0
 39 40  1  0  0  0
 39 41  2  0  0  0
 40 42  2  0  0  0
 41 43  1  0  0  0
 42 44  1  0  0  0
 43 44  2  0  0  0
 26 27  1  0  0  0
 26 31  2  0  0  0
 27 28  2  0  0  0
 28 29  1  0  0  0
 28 32  1  0  0  0
 29 30  2  0  0  0
 30 31  1  0  0  0
 30 25  1  0  0  0
 31 33  1  0  0  0
 33 34  1  0  0  0
 33 37  1  0  0  0
 34 35  2  0  0  0
 35 36  1  0  0  0
 36 37  2  0  0  0
 25 24  1  0  0  0
 24 22  1  0  0  0
 12 17  1  0  0  0
 16 18  1  0  0  0
 17 19  1  0  0  0
  4  5  1  0  0  0
 22 23  1  0  0  0
M  END
> <minimizedAffinity>
-10.89072

$$$$
5E2P_7P0_A_301


 44 48  0  0  0  0  0  0  0  0999 V2000
   38.6472  -17.5945   28.4874 C   0  0  0  0  0  0  0  0  0  0  0  0
   37.9796  -18.0742   26.1661 C   0  0  0  0  0  0  0  0  0  0  0  0
   38.7133  -17.2000   25.7122 O   0  0  0  0  0  0  0  0  0  0  0  0
   37.9125  -18.3501   27.4879 N   0  0  0  0  0  0  0  0  0  0  0  0
   37.3414  -19.0947   27.7856 H   0  0  0  0  0  0  0  0  0  0  0  0
   37.0989  -18.8701   25.2571 C   0  0  0  0  0  0  0  0  0  0  0  0
   36.5531  -18.3088   24.0998 C   0  0  0  0  0  0  0  0  0  0  0  0
   35.7402  -19.0552   23.2655 C   0  0  0  0  0  0  0  0  0  0  0  0
   35.4925  -20.4048   23.5391 C   0  0  0  0  0  0  0  0  0  0  0  0
   36.0678  -20.9982   24.6831 C   0  0  0  0  0  0  0  0  0  0  0  0
   36.8477  -20.2106   25.5471 C   0  0  0  0  0  0  0  0  0  0  0  0
   35.8460  -22.4226   24.8419 C   0  0  0  0  0  0  0  0  0  0  0  0
   35.0993  -23.1226   23.9495 C   0  0  0  0  0  0  0  0  0  0  0  0
   34.4768  -22.5153   22.8166 C   0  0  0  0  0  0  0  0  0  0  0  0
   33.7119  -23.1034   22.0431 O   0  0  0  0  0  0  0  0  0  0  0  0
   34.7224  -21.1799   22.6633 N   0  0  0  0  0  0  0  0  0  0  0  0
   36.4289  -22.9697   25.8789 O   0  0  0  0  0  0  0  0  0  0  0  0
   34.3296  -20.7302   21.8805 H   0  0  0  0  0  0  0  0  0  0  0  0
   36.9339  -22.4414   26.4653 H   0  0  0  0  0  0  0  0  0  0  0  0
   39.5109  -18.5668   29.2747 C   0  0  0  0  0  0  0  0  0  0  0  0
   39.5877  -18.4774   30.4989 O   0  0  0  0  0  0  0  0  0  0  0  0
   40.1930  -19.4579   28.5618 N   0  0  0  0  0  0  0  0  0  0  0  0
   40.1088  -19.4449   27.5810 H   0  0  0  0  0  0  0  0  0  0  0  0
   41.0590  -20.4512   29.1770 C   0  0  0  0  0  0  0  0  0  0  0  0
   41.9308  -21.1341   28.1641 C   0  0  0  0  0  0  0  0  0  0  0  0
   42.2303  -24.8429   29.0325 C   0  0  0  0  0  0  0  0  0  0  0  0
   41.1086  -25.3448   28.3876 C   0  0  0  0  0  0  0  0  0  0  0  0
   40.3244  -24.4935   27.6379 C   0  0  0  0  0  0  0  0  0  0  0  0
   40.6203  -23.1506   27.5282 C   0  0  0  0  0  0  0  0  0  0  0  0
   41.7172  -22.6249   28.2045 C   0  0  0  0  0  0  0  0  0  0  0  0
   42.5328  -23.4850   28.9519 C   0  0  0  0  0  0  0  0  0  0  0  0
   38.9186  -25.1274   26.8071 Cl  0  0  0  0  0  0  0  0  0  0  0  0
   43.6551  -22.9800   29.6761 N   0  0  0  0  0  0  0  0  0  0  0  0
   43.7762  -22.4734   30.9133 C   0  0  0  0  0  0  0  0  0  0  0  0
   45.0107  -22.1040   31.1150 N   0  0  0  0  0  0  0  0  0  0  0  0
   45.6748  -22.3955   29.9681 N   0  0  0  0  0  0  0  0  0  0  0  0
   44.8778  -22.9239   29.0937 N   0  0  0  0  0  0  0  0  0  0  0  0
   37.7144  -16.8442   29.4578 C   0  0  0  0  0  0  0  0  0  0  0  0
   36.9606  -15.7017   28.8225 C   0  0  0  0  0  0  0  0  0  0  0  0
   37.6158  -14.7995   27.9962 C   0  0  0  0  0  0  0  0  0  0  0  0
   35.6386  -15.4489   29.1630 C   0  0  0  0  0  0  0  0  0  0  0  0
   36.9971  -13.6327   27.5864 C   0  0  0  0  0  0  0  0  0  0  0  0
   35.0098  -14.2878   28.7419 C   0  0  0  0  0  0  0  0  0  0  0  0
   35.6949  -13.3669   27.9666 C   0  0  0  0  0  0  0  0  0  0  0  0
  2  6  1  0  0  0
  2  3  2  0  0  0
  2  4  1  0  0  0
  6  7  1  0  0  0
  6 11  2  0  0  0
  7  8  2  0  0  0
  8  9  1  0  0  0
 11 10  1  0  0  0
 10  9  2  0  0  0
 10 12  1  0  0  0
  9 16  1  0  0  0
 16 14  1  0  0  0
 14 13  1  0  0  0
 14 15  2  0  0  0
 13 12  2  0  0  0
  4  1  1  0  0  0
  1 20  1  0  0  0
  1 38  1  0  0  0
 20 21  2  0  0  0
 20 22  1  0  0  0
 38 39  1  0  0  0
 39 40  1  0  0  0
 39 41  2  0  0  0
 40 42  2  0  0  0
 41 43  1  0  0  0
 42 44  1  0  0  0
 43 44  2  0  0  0
 26 27  1  0  0  0
 26 31  2  0  0  0
 27 28  2  0  0  0
 28 29  1  0  0  0
 28 32  1  0  0  0
 29 30  2  0  0  0
 30 31  1  0  0  0
 30 25  1  0  0  0
 31 33  1  0  0  0
 33 34  1  0  0  0
 33 37  1  0  0  0
 34 35  2  0  0  0
 35 36  1  0  0  0
 36 37  2  0  0  0
 25 24  1  0  0  0
 24 22  1  0  0  0
 12 17  1  0  0  0
 16 18  1  0  0  0
 17 19  1  0  0  0
  4  5  1  0  0  0
 22 23  1  0  0  0
M  END
> <minimizedAffinity>
-10.22832

$$$$
5E2P_7P0_A_301


 44 48  0  0  0  0  0  0  0  0999 V2000
   37.8884  -17.9026   27.0753 C   0  0  0  0  0  0  0  0  0  0  0  0
   39.3270  -19.7471   27.8451 C   0  0  0  0  0  0  0  0  0  0  0  0
   38.3998  -20.3070   28.4241 O   0  0  0  0  0  0  0  0  0  0  0  0
   39.1593  -18.6025   27.1455 N   0  0  0  0  0  0  0  0  0  0  0  0
   39.9312  -18.2274   26.6632 H   0  0  0  0  0  0  0  0  0  0  0  0
   40.7103  -20.3109   27.9099 C   0  0  0  0  0  0  0  0  0  0  0  0
   41.5346  -20.3444   26.7822 C   0  0  0  0  0  0  0  0  0  0  0  0
   42.8132  -20.8676   26.8542 C   0  0  0  0  0  0  0  0  0  0  0  0
   43.3239  -21.3255   28.0737 C   0  0  0  0  0  0  0  0  0  0  0  0
   42.5185  -21.2630   29.2310 C   0  0  0  0  0  0  0  0  0  0  0  0
   41.2039  -20.7771   29.1277 C   0  0  0  0  0  0  0  0  0  0  0  0
   43.1541  -21.6624   30.4719 C   0  0  0  0  0  0  0  0  0  0  0  0
   44.4396  -22.0988   30.4958 C   0  0  0  0  0  0  0  0  0  0  0  0
   45.2418  -22.2078   29.3192 C   0  0  0  0  0  0  0  0  0  0  0  0
   46.3788  -22.6934   29.2934 O   0  0  0  0  0  0  0  0  0  0  0  0
   44.6395  -21.7967   28.1635 N   0  0  0  0  0  0  0  0  0  0  0  0
   42.4119  -21.5497   31.5447 O   0  0  0  0  0  0  0  0  0  0  0  0
   45.1687  -21.8346   27.3342 H   0  0  0  0  0  0  0  0  0  0  0  0
   41.5293  -21.2431   31.4738 H   0  0  0  0  0  0  0  0  0  0  0  0
   37.1098  -18.4540   25.8917 C   0  0  0  0  0  0  0  0  0  0  0  0
   36.9701  -17.7798   24.8726 O   0  0  0  0  0  0  0  0  0  0  0  0
   36.5670  -19.6569   26.0534 N   0  0  0  0  0  0  0  0  0  0  0  0
   36.6916  -20.1215   26.9124 H   0  0  0  0  0  0  0  0  0  0  0  0
   35.7961  -20.3118   25.0086 C   0  0  0  0  0  0  0  0  0  0  0  0
   36.6687  -21.1294   24.1017 C   0  0  0  0  0  0  0  0  0  0  0  0
   36.6445  -24.8839   24.8099 C   0  0  0  0  0  0  0  0  0  0  0  0
   37.6657  -24.9712   25.7455 C   0  0  0  0  0  0  0  0  0  0  0  0
   38.2889  -23.8178   26.1731 C   0  0  0  0  0  0  0  0  0  0  0  0
   37.9316  -22.5803   25.6791 C   0  0  0  0  0  0  0  0  0  0  0  0
   36.9390  -22.4815   24.7085 C   0  0  0  0  0  0  0  0  0  0  0  0
   36.2848  -23.6453   24.2825 C   0  0  0  0  0  0  0  0  0  0  0  0
   39.5653  -23.9225   27.3681 Cl  0  0  0  0  0  0  0  0  0  0  0  0
   35.2756  -23.5871   23.2739 N   0  0  0  0  0  0  0  0  0  0  0  0
   35.3179  -23.7673   21.9444 C   0  0  0  0  0  0  0  0  0  0  0  0
   34.1323  -23.5678   21.4387 N   0  0  0  0  0  0  0  0  0  0  0  0
   33.3307  -23.2591   22.4892 N   0  0  0  0  0  0  0  0  0  0  0  0
   33.9991  -23.2678   23.5993 N   0  0  0  0  0  0  0  0  0  0  0  0
   38.0655  -16.3817   26.9019 C   0  0  0  0  0  0  0  0  0  0  0  0
   36.9291  -15.5645   27.4658 C   0  0  0  0  0  0  0  0  0  0  0  0
   36.7363  -14.2520   27.0581 C   0  0  0  0  0  0  0  0  0  0  0  0
   36.1468  -16.0585   28.5009 C   0  0  0  0  0  0  0  0  0  0  0  0
   35.8453  -13.4265   27.7190 C   0  0  0  0  0  0  0  0  0  0  0  0
   35.2417  -15.2386   29.1562 C   0  0  0  0  0  0  0  0  0  0  0  0
   35.1020  -13.9135   28.7780 C   0  0  0  0  0  0  0  0  0  0  0  0
  2  6  1  0  0  0
  2  3  2  0  0  0
  2  4  1  0  0  0
  6  7  1  0  0  0
  6 11  2  0  0  0
  7  8  2  0  0  0
  8  9  1  0  0  0
 11 10  1  0  0  0
 10  9  2  0  0  0
 10 12  1  0  0  0
  9 16  1  0  0  0
 16 14  1  0  0  0
 14 13  1  0  0  0
 14 15  2  0  0  0
 13 12  2  0  0  0
  4  1  1  0  0  0
  1 20  1  0  0  0
  1 38  1  0  0  0
 20 21  2  0  0  0
 20 22  1  0  0  0
 38 39  1  0  0  0
 39 40  1  0  0  0
 39 41  2  0  0  0
 40 42  2  0  0  0
 41 43  1  0  0  0
 42 44  1  0  0  0
 43 44  2  0  0  0
 26 27  1  0  0  0
 26 31  2  0  0  0
 27 28  2  0  0  0
 28 29  1  0  0  0
 28 32  1  0  0  0
 29 30  2  0  0  0
 30 31  1  0  0  0
 30 25  1  0  0  0
 31 33  1  0  0  0
 33 34  1  0  0  0
 33 37  1  0  0  0
 34 35  2  0  0  0
 35 36  1  0  0  0
 36 37  2  0  0  0
 25 24  1  0  0  0
 24 22  1  0  0  0
 12 17  1  0  0  0
 16 18  1  0  0  0
 17 19  1  0  0  0
  4  5  1  0  0  0
 22 23  1  0  0  0
M  END
> <minimizedAffinity>
-10.08976

$$$$
5E2P_7P0_A_301


 44 48  0  0  0  0  0  0  0  0999 V2000
   41.2255  -21.2248   27.9985 C   0  0  0  0  0  0  0  0  0  0  0  0
   40.0549  -19.1314   27.4403 C   0  0  0  0  0  0  0  0  0  0  0  0
   40.6044  -19.0472   26.3450 O   0  0  0  0  0  0  0  0  0  0  0  0
   40.2741  -20.1648   28.2838 N   0  0  0  0  0  0  0  0  0  0  0  0
   39.7674  -20.2006   29.1271 H   0  0  0  0  0  0  0  0  0  0  0  0
   39.1180  -18.0611   27.9011 C   0  0  0  0  0  0  0  0  0  0  0  0
   38.7250  -17.9663   29.2385 C   0  0  0  0  0  0  0  0  0  0  0  0
   37.8584  -16.9711   29.6537 C   0  0  0  0  0  0  0  0  0  0  0  0
   37.4005  -16.0072   28.7489 C   0  0  0  0  0  0  0  0  0  0  0  0
   37.8187  -16.0651   27.4021 C   0  0  0  0  0  0  0  0  0  0  0  0
   38.6571  -17.1140   26.9876 C   0  0  0  0  0  0  0  0  0  0  0  0
   37.3817  -14.9745   26.5518 C   0  0  0  0  0  0  0  0  0  0  0  0
   36.5904  -13.9810   27.0319 C   0  0  0  0  0  0  0  0  0  0  0  0
   36.1270  -13.9452   28.3824 C   0  0  0  0  0  0  0  0  0  0  0  0
   35.3276  -13.1108   28.8230 O   0  0  0  0  0  0  0  0  0  0  0  0
   36.5742  -14.9616   29.1787 N   0  0  0  0  0  0  0  0  0  0  0  0
   37.8200  -15.0135   25.3186 O   0  0  0  0  0  0  0  0  0  0  0  0
   36.2953  -14.9586   30.1229 H   0  0  0  0  0  0  0  0  0  0  0  0
   38.3642  -15.7224   25.0369 H   0  0  0  0  0  0  0  0  0  0  0  0
   40.4879  -22.3402   27.2755 C   0  0  0  0  0  0  0  0  0  0  0  0
   40.9178  -23.4920   27.3093 O   0  0  0  0  0  0  0  0  0  0  0  0
   39.4092  -21.9817   26.5860 N   0  0  0  0  0  0  0  0  0  0  0  0
   39.1466  -21.0329   26.5761 H   0  0  0  0  0  0  0  0  0  0  0  0
   38.6026  -22.9390   25.8457 C   0  0  0  0  0  0  0  0  0  0  0  0
   37.1346  -22.7208   26.0684 C   0  0  0  0  0  0  0  0  0  0  0  0
   35.1221  -21.7114   22.9814 C   0  0  0  0  0  0  0  0  0  0  0  0
   35.3137  -20.3370   22.9931 C   0  0  0  0  0  0  0  0  0  0  0  0
   36.1356  -19.7789   23.9495 C   0  0  0  0  0  0  0  0  0  0  0  0
   36.7584  -20.5542   24.9055 C   0  0  0  0  0  0  0  0  0  0  0  0
   36.5412  -21.9287   24.9327 C   0  0  0  0  0  0  0  0  0  0  0  0
   35.7246  -22.5086   23.9526 C   0  0  0  0  0  0  0  0  0  0  0  0
   36.3948  -18.0465   23.9555 Cl  0  0  0  0  0  0  0  0  0  0  0  0
   35.4614  -23.9121   23.9595 N   0  0  0  0  0  0  0  0  0  0  0  0
   36.1674  -24.9642   23.5162 C   0  0  0  0  0  0  0  0  0  0  0  0
   35.4868  -26.0599   23.7102 N   0  0  0  0  0  0  0  0  0  0  0  0
   34.3254  -25.6735   24.2961 N   0  0  0  0  0  0  0  0  0  0  0  0
   34.2932  -24.3879   24.4556 N   0  0  0  0  0  0  0  0  0  0  0  0
   41.8734  -21.7906   29.2771 C   0  0  0  0  0  0  0  0  0  0  0  0
   43.3145  -21.3842   29.4649 C   0  0  0  0  0  0  0  0  0  0  0  0
   43.8914  -21.4003   30.7270 C   0  0  0  0  0  0  0  0  0  0  0  0
   44.0442  -20.8539   28.4095 C   0  0  0  0  0  0  0  0  0  0  0  0
   45.1303  -20.8277   30.9491 C   0  0  0  0  0  0  0  0  0  0  0  0
   45.2929  -20.2924   28.6251 C   0  0  0  0  0  0  0  0  0  0  0  0
   45.8316  -20.2616   29.9009 C   0  0  0  0  0  0  0  0  0  0  0  0
  2  6  1  0  0  0
  2  3  2  0  0  0
  2  4  1  0  0  0
  6  7  1  0  0  0
  6 11  2  0  0  0
  7  8  2  0  0  0
  8  9  1  0  0  0
 11 10  1  0  0  0
 10  9  2  0  0  0
 10 12  1  0  0  0
  9 16  1  0  0  0
 16 14  1  0  0  0
 14 13  1  0  0  0
 14 15  2  0  0  0
 13 12  2  0  0  0
  4  1  1  0  0  0
  1 20  1  0  0  0
  1 38  1  0  0  0
 20 21  2  0  0  0
 20 22  1  0  0  0
 38 39  1  0  0  0
 39 40  1  0  0  0
 39 41  2  0  0  0
 40 42  2  0  0  0
 41 43  1  0  0  0
 42 44  1  0  0  0
 43 44  2  0  0  0
 26 27  1  0  0  0
 26 31  2  0  0  0
 27 28  2  0  0  0
 28 29  1  0  0  0
 28 32  1  0  0  0
 29 30  2  0  0  0
 30 31  1  0  0  0
 30 25  1  0  0  0
 31 33  1  0  0  0
 33 34  1  0  0  0
 33 37  1  0  0  0
 34 35  2  0  0  0
 35 36  1  0  0  0
 36 37  2  0  0  0
 25 24  1  0  0  0
 24 22  1  0  0  0
 12 17  1  0  0  0
 16 18  1  0  0  0
 17 19  1  0  0  0
  4  5  1  0  0  0
 22 23  1  0  0  0
M  END
> <minimizedAffinity>
-10.05232

$$$$
5E2P_7P0_A_301


 44 48  0  0  0  0  0  0  0  0999 V2000
   37.4980  -20.3530   24.6328 C   0  0  0  0  0  0  0  0  0  0  0  0
   39.3649  -21.8257   25.2731 C   0  0  0  0  0  0  0  0  0  0  0  0
   39.3054  -22.4567   24.2210 O   0  0  0  0  0  0  0  0  0  0  0  0
   38.5523  -20.7780   25.5370 N   0  0  0  0  0  0  0  0  0  0  0  0
   38.6805  -20.2821   26.3778 H   0  0  0  0  0  0  0  0  0  0  0  0
   40.3456  -22.2129   26.3332 C   0  0  0  0  0  0  0  0  0  0  0  0
   41.5609  -21.5392   26.4794 C   0  0  0  0  0  0  0  0  0  0  0  0
   42.4602  -21.9056   27.4647 C   0  0  0  0  0  0  0  0  0  0  0  0
   42.1446  -22.9259   28.3685 C   0  0  0  0  0  0  0  0  0  0  0  0
   40.9044  -23.5908   28.2595 C   0  0  0  0  0  0  0  0  0  0  0  0
   40.0262  -23.2405   27.2197 C   0  0  0  0  0  0  0  0  0  0  0  0
   40.6106  -24.5649   29.2930 C   0  0  0  0  0  0  0  0  0  0  0  0
   41.5015  -24.8322   30.2822 C   0  0  0  0  0  0  0  0  0  0  0  0
   42.7768  -24.1951   30.3679 C   0  0  0  0  0  0  0  0  0  0  0  0
   43.6476  -24.4871   31.1961 O   0  0  0  0  0  0  0  0  0  0  0  0
   43.0248  -23.2566   29.4061 N   0  0  0  0  0  0  0  0  0  0  0  0
   39.4352  -25.1358   29.2090 O   0  0  0  0  0  0  0  0  0  0  0  0
   43.8845  -22.7784   29.4455 H   0  0  0  0  0  0  0  0  0  0  0  0
   38.8567  -24.9158   28.5055 H   0  0  0  0  0  0  0  0  0  0  0  0
   37.5232  -18.8348   24.5575 C   0  0  0  0  0  0  0  0  0  0  0  0
   36.6249  -18.2274   23.9771 O   0  0  0  0  0  0  0  0  0  0  0  0
   38.5776  -18.2362   25.1027 N   0  0  0  0  0  0  0  0  0  0  0  0
   39.2758  -18.7920   25.5185 H   0  0  0  0  0  0  0  0  0  0  0  0
   38.7380  -16.7908   25.1079 C   0  0  0  0  0  0  0  0  0  0  0  0
   39.1016  -16.2754   26.4698 C   0  0  0  0  0  0  0  0  0  0  0  0
   36.3389  -16.5730   29.0923 C   0  0  0  0  0  0  0  0  0  0  0  0
   35.6716  -15.3725   28.8937 C   0  0  0  0  0  0  0  0  0  0  0  0
   36.0839  -14.5312   27.8818 C   0  0  0  0  0  0  0  0  0  0  0  0
   37.1556  -14.8482   27.0731 C   0  0  0  0  0  0  0  0  0  0  0  0
   37.8613  -16.0284   27.2883 C   0  0  0  0  0  0  0  0  0  0  0  0
   37.4376  -16.9003   28.3002 C   0  0  0  0  0  0  0  0  0  0  0  0
   35.2320  -13.0239   27.6161 Cl  0  0  0  0  0  0  0  0  0  0  0  0
   38.1479  -18.1105   28.5649 N   0  0  0  0  0  0  0  0  0  0  0  0
   39.2805  -18.3622   29.2401 C   0  0  0  0  0  0  0  0  0  0  0  0
   39.5561  -19.6353   29.1714 N   0  0  0  0  0  0  0  0  0  0  0  0
   38.5601  -20.1888   28.4345 N   0  0  0  0  0  0  0  0  0  0  0  0
   37.7045  -19.2891   28.0634 N   0  0  0  0  0  0  0  0  0  0  0  0
   36.1038  -20.8148   25.0995 C   0  0  0  0  0  0  0  0  0  0  0  0
   35.5788  -22.0209   24.3602 C   0  0  0  0  0  0  0  0  0  0  0  0
   34.7530  -21.8648   23.2557 C   0  0  0  0  0  0  0  0  0  0  0  0
   35.7930  -23.3016   24.8515 C   0  0  0  0  0  0  0  0  0  0  0  0
   34.0911  -22.9468   22.7050 C   0  0  0  0  0  0  0  0  0  0  0  0
   35.1433  -24.3910   24.2928 C   0  0  0  0  0  0  0  0  0  0  0  0
   34.2752  -24.2130   23.2282 C   0  0  0  0  0  0  0  0  0  0  0  0
  2  6  1  0  0  0
  2  3  2  0  0  0
  2  4  1  0  0  0
  6  7  1  0  0  0
  6 11  2  0  0  0
  7  8  2  0  0  0
  8  9  1  0  0  0
 11 10  1  0  0  0
 10  9  2  0  0  0
 10 12  1  0  0  0
  9 16  1  0  0  0
 16 14  1  0  0  0
 14 13  1  0  0  0
 14 15  2  0  0  0
 13 12  2  0  0  0
  4  1  1  0  0  0
  1 20  1  0  0  0
  1 38  1  0  0  0
 20 21  2  0  0  0
 20 22  1  0  0  0
 38 39  1  0  0  0
 39 40  1  0  0  0
 39 41  2  0  0  0
 40 42  2  0  0  0
 41 43  1  0  0  0
 42 44  1  0  0  0
 43 44  2  0  0  0
 26 27  1  0  0  0
 26 31  2  0  0  0
 27 28  2  0  0  0
 28 29  1  0  0  0
 28 32  1  0  0  0
 29 30  2  0  0  0
 30 31  1  0  0  0
 30 25  1  0  0  0
 31 33  1  0  0  0
 33 34  1  0  0  0
 33 37  1  0  0  0
 34 35  2  0  0  0
 35 36  1  0  0  0
 36 37  2  0  0  0
 25 24  1  0  0  0
 24 22  1  0  0  0
 12 17  1  0  0  0
 16 18  1  0  0  0
 17 19  1  0  0  0
  4  5  1  0  0  0
 22 23  1  0  0  0
M  END
> <minimizedAffinity>
-10.01173

$$$$
5E2P_7P0_A_301


 44 48  0  0  0  0  0  0  0  0999 V2000
   37.9224  -17.5888   28.0432 C   0  0  0  0  0  0  0  0  0  0  0  0
   37.2535  -18.1337   25.7367 C   0  0  0  0  0  0  0  0  0  0  0  0
   37.7176  -17.0870   25.2921 O   0  0  0  0  0  0  0  0  0  0  0  0
   37.3384  -18.4668   27.0441 N   0  0  0  0  0  0  0  0  0  0  0  0
   36.9896  -19.3415   27.3314 H   0  0  0  0  0  0  0  0  0  0  0  0
   36.5439  -19.0907   24.8332 C   0  0  0  0  0  0  0  0  0  0  0  0
   36.0123  -18.6760   23.6094 C   0  0  0  0  0  0  0  0  0  0  0  0
   35.3586  -19.5706   22.7811 C   0  0  0  0  0  0  0  0  0  0  0  0
   35.2643  -20.9219   23.1313 C   0  0  0  0  0  0  0  0  0  0  0  0
   35.8301  -21.3654   24.3459 C   0  0  0  0  0  0  0  0  0  0  0  0
   36.4439  -20.4324   25.1989 C   0  0  0  0  0  0  0  0  0  0  0  0
   35.7787  -22.7943   24.5884 C   0  0  0  0  0  0  0  0  0  0  0  0
   35.1885  -23.6379   23.7031 C   0  0  0  0  0  0  0  0  0  0  0  0
   34.5736  -23.1862   22.4958 C   0  0  0  0  0  0  0  0  0  0  0  0
   33.9433  -23.9143   21.7200 O   0  0  0  0  0  0  0  0  0  0  0  0
   34.6594  -21.8419   22.2662 N   0  0  0  0  0  0  0  0  0  0  0  0
   36.3534  -23.1974   25.6937 O   0  0  0  0  0  0  0  0  0  0  0  0
   34.2676  -21.4951   21.4322 H   0  0  0  0  0  0  0  0  0  0  0  0
   36.7468  -22.5736   26.2717 H   0  0  0  0  0  0  0  0  0  0  0  0
   39.0242  -18.3537   28.7587 C   0  0  0  0  0  0  0  0  0  0  0  0
   39.1571  -18.2552   29.9775 O   0  0  0  0  0  0  0  0  0  0  0  0
   39.8367  -19.0721   27.9898 N   0  0  0  0  0  0  0  0  0  0  0  0
   39.6898  -19.0733   27.0163 H   0  0  0  0  0  0  0  0  0  0  0  0
   40.9343  -19.8562   28.5331 C   0  0  0  0  0  0  0  0  0  0  0  0
   41.0470  -21.1951   27.8645 C   0  0  0  0  0  0  0  0  0  0  0  0
   42.1270  -24.4751   29.4997 C   0  0  0  0  0  0  0  0  0  0  0  0
   43.0096  -24.0003   30.4596 C   0  0  0  0  0  0  0  0  0  0  0  0
   43.1842  -22.6397   30.6010 C   0  0  0  0  0  0  0  0  0  0  0  0
   42.5139  -21.7401   29.7982 C   0  0  0  0  0  0  0  0  0  0  0  0
   41.6585  -22.2029   28.8025 C   0  0  0  0  0  0  0  0  0  0  0  0
   41.4579  -23.5828   28.6643 C   0  0  0  0  0  0  0  0  0  0  0  0
   44.2830  -22.0364   31.8245 Cl  0  0  0  0  0  0  0  0  0  0  0  0
   40.6041  -24.0970   27.6416 N   0  0  0  0  0  0  0  0  0  0  0  0
   39.2885  -24.3620   27.6139 C   0  0  0  0  0  0  0  0  0  0  0  0
   38.9685  -24.8645   26.4536 N   0  0  0  0  0  0  0  0  0  0  0  0
   40.1218  -24.9071   25.7397 N   0  0  0  0  0  0  0  0  0  0  0  0
   41.1139  -24.4485   26.4358 N   0  0  0  0  0  0  0  0  0  0  0  0
   36.8864  -17.1058   29.0767 C   0  0  0  0  0  0  0  0  0  0  0  0
   36.2109  -15.8082   28.7065 C   0  0  0  0  0  0  0  0  0  0  0  0
   36.8293  -14.9142   27.8437 C   0  0  0  0  0  0  0  0  0  0  0  0
   35.0316  -15.4209   29.3283 C   0  0  0  0  0  0  0  0  0  0  0  0
   36.3311  -13.6363   27.6681 C   0  0  0  0  0  0  0  0  0  0  0  0
   34.5206  -14.1459   29.1432 C   0  0  0  0  0  0  0  0  0  0  0  0
   35.1804  -13.2432   28.3257 C   0  0  0  0  0  0  0  0  0  0  0  0
  2  6  1  0  0  0
  2  3  2  0  0  0
  2  4  1  0  0  0
  6  7  1  0  0  0
  6 11  2  0  0  0
  7  8  2  0  0  0
  8  9  1  0  0  0
 11 10  1  0  0  0
 10  9  2  0  0  0
 10 12  1  0  0  0
  9 16  1  0  0  0
 16 14  1  0  0  0
 14 13  1  0  0  0
 14 15  2  0  0  0
 13 12  2  0  0  0
  4  1  1  0  0  0
  1 20  1  0  0  0
  1 38  1  0  0  0
 20 21  2  0  0  0
 20 22  1  0  0  0
 38 39  1  0  0  0
 39 40  1  0  0  0
 39 41  2  0  0  0
 40 42  2  0  0  0
 41 43  1  0  0  0
 42 44  1  0  0  0
 43 44  2  0  0  0
 26 27  1  0  0  0
 26 31  2  0  0  0
 27 28  2  0  0  0
 28 29  1  0  0  0
 28 32  1  0  0  0
 29 30  2  0  0  0
 30 31  1  0  0  0
 30 25  1  0  0  0
 31 33  1  0  0  0
 33 34  1  0  0  0
 33 37  1  0  0  0
 34 35  2  0  0  0
 35 36  1  0  0  0
 36 37  2  0  0  0
 25 24  1  0  0  0
 24 22  1  0  0  0
 12 17  1  0  0  0
 16 18  1  0  0  0
 17 19  1  0  0  0
  4  5  1  0  0  0
 22 23  1  0  0  0
M  END
> <minimizedAffinity>
-9.86127

$$$$
5E2P_7P0_A_301


 44 48  0  0  0  0  0  0  0  0999 V2000
   38.7045  -23.1099   26.8958 C   0  0  0  0  0  0  0  0  0  0  0  0
   37.3443  -21.0663   26.7016 C   0  0  0  0  0  0  0  0  0  0  0  0
   36.3095  -21.7019   26.5174 O   0  0  0  0  0  0  0  0  0  0  0  0
   38.5346  -21.6676   26.9236 N   0  0  0  0  0  0  0  0  0  0  0  0
   39.3195  -21.1040   27.1120 H   0  0  0  0  0  0  0  0  0  0  0  0
   37.3306  -19.5716   26.6663 C   0  0  0  0  0  0  0  0  0  0  0  0
   37.0348  -18.8755   25.4915 C   0  0  0  0  0  0  0  0  0  0  0  0
   37.0241  -17.4923   25.4709 C   0  0  0  0  0  0  0  0  0  0  0  0
   37.2582  -16.7642   26.6426 C   0  0  0  0  0  0  0  0  0  0  0  0
   37.5201  -17.4522   27.8468 C   0  0  0  0  0  0  0  0  0  0  0  0
   37.5790  -18.8563   27.8370 C   0  0  0  0  0  0  0  0  0  0  0  0
   37.6523  -16.6303   29.0344 C   0  0  0  0  0  0  0  0  0  0  0  0
   37.5585  -15.2774   28.9682 C   0  0  0  0  0  0  0  0  0  0  0  0
   37.3406  -14.5758   27.7435 C   0  0  0  0  0  0  0  0  0  0  0  0
   37.3491  -13.3439   27.6349 O   0  0  0  0  0  0  0  0  0  0  0  0
   37.1855  -15.3659   26.6394 N   0  0  0  0  0  0  0  0  0  0  0  0
   37.8428  -17.2851   30.1522 O   0  0  0  0  0  0  0  0  0  0  0  0
   37.0099  -14.9197   25.7795 H   0  0  0  0  0  0  0  0  0  0  0  0
   37.9003  -18.2203   30.1434 H   0  0  0  0  0  0  0  0  0  0  0  0
   39.9309  -23.4574   27.7243 C   0  0  0  0  0  0  0  0  0  0  0  0
   40.8118  -24.1773   27.2568 O   0  0  0  0  0  0  0  0  0  0  0  0
   39.9555  -22.9836   28.9662 N   0  0  0  0  0  0  0  0  0  0  0  0
   39.1955  -22.4438   29.2827 H   0  0  0  0  0  0  0  0  0  0  0  0
   41.0634  -23.2330   29.8747 C   0  0  0  0  0  0  0  0  0  0  0  0
   41.4539  -21.9962   30.6299 C   0  0  0  0  0  0  0  0  0  0  0  0
   44.6729  -20.6305   29.0900 C   0  0  0  0  0  0  0  0  0  0  0  0
   45.5737  -20.8940   30.1123 C   0  0  0  0  0  0  0  0  0  0  0  0
   45.1394  -21.5610   31.2384 C   0  0  0  0  0  0  0  0  0  0  0  0
   43.8256  -21.9574   31.3791 C   0  0  0  0  0  0  0  0  0  0  0  0
   42.9016  -21.6618   30.3812 C   0  0  0  0  0  0  0  0  0  0  0  0
   43.3369  -21.0031   29.2235 C   0  0  0  0  0  0  0  0  0  0  0  0
   46.2780  -21.9120   32.5225 Cl  0  0  0  0  0  0  0  0  0  0  0  0
   42.4151  -20.6643   28.1867 N   0  0  0  0  0  0  0  0  0  0  0  0
   42.3882  -20.9495   26.8753 C   0  0  0  0  0  0  0  0  0  0  0  0
   41.3533  -20.3772   26.3251 N   0  0  0  0  0  0  0  0  0  0  0  0
   40.7178  -19.7214   27.3288 N   0  0  0  0  0  0  0  0  0  0  0  0
   41.3395  -19.8840   28.4540 N   0  0  0  0  0  0  0  0  0  0  0  0
   38.8890  -23.6510   25.4648 C   0  0  0  0  0  0  0  0  0  0  0  0
   37.8500  -24.6657   25.0550 C   0  0  0  0  0  0  0  0  0  0  0  0
   36.7979  -24.3004   24.2269 C   0  0  0  0  0  0  0  0  0  0  0  0
   37.8462  -25.9388   25.6087 C   0  0  0  0  0  0  0  0  0  0  0  0
   35.7272  -25.1510   24.0215 C   0  0  0  0  0  0  0  0  0  0  0  0
   36.7820  -26.8003   25.3931 C   0  0  0  0  0  0  0  0  0  0  0  0
   35.7098  -26.4006   24.6125 C   0  0  0  0  0  0  0  0  0  0  0  0
  2  6  1  0  0  0
  2  3  2  0  0  0
  2  4  1  0  0  0
  6  7  1  0  0  0
  6 11  2  0  0  0
  7  8  2  0  0  0
  8  9  1  0  0  0
 11 10  1  0  0  0
 10  9  2  0  0  0
 10 12  1  0  0  0
  9 16  1  0  0  0
 16 14  1  0  0  0
 14 13  1  0  0  0
 14 15  2  0  0  0
 13 12  2  0  0  0
  4  1  1  0  0  0
  1 20  1  0  0  0
  1 38  1  0  0  0
 20 21  2  0  0  0
 20 22  1  0  0  0
 38 39  1  0  0  0
 39 40  1  0  0  0
 39 41  2  0  0  0
 40 42  2  0  0  0
 41 43  1  0  0  0
 42 44  1  0  0  0
 43 44  2  0  0  0
 26 27  1  0  0  0
 26 31  2  0  0  0
 27 28  2  0  0  0
 28 29  1  0  0  0
 28 32  1  0  0  0
 29 30  2  0  0  0
 30 31  1  0  0  0
 30 25  1  0  0  0
 31 33  1  0  0  0
 33 34  1  0  0  0
 33 37  1  0  0  0
 34 35  2  0  0  0
 35 36  1  0  0  0
 36 37  2  0  0  0
 25 24  1  0  0  0
 24 22  1  0  0  0
 12 17  1  0  0  0
 16 18  1  0  0  0
 17 19  1  0  0  0
  4  5  1  0  0  0
 22 23  1  0  0  0
M  END
> <minimizedAffinity>
-9.71401

$$$$
5E2P_7P0_A_301


 44 48  0  0  0  0  0  0  0  0999 V2000
   40.4475  -20.7957   28.8888 C   0  0  0  0  0  0  0  0  0  0  0  0
   39.1942  -21.3843   26.8524 C   0  0  0  0  0  0  0  0  0  0  0  0
   39.7389  -20.5038   26.1916 O   0  0  0  0  0  0  0  0  0  0  0  0
   39.5011  -21.6124   28.1491 N   0  0  0  0  0  0  0  0  0  0  0  0
   39.0646  -22.3639   28.6117 H   0  0  0  0  0  0  0  0  0  0  0  0
   38.1336  -22.2427   26.2408 C   0  0  0  0  0  0  0  0  0  0  0  0
   37.0357  -21.6825   25.5829 C   0  0  0  0  0  0  0  0  0  0  0  0
   36.0609  -22.4866   25.0198 C   0  0  0  0  0  0  0  0  0  0  0  0
   36.1850  -23.8798   25.0534 C   0  0  0  0  0  0  0  0  0  0  0  0
   37.3079  -24.4619   25.6799 C   0  0  0  0  0  0  0  0  0  0  0  0
   38.2608  -23.6302   26.2923 C   0  0  0  0  0  0  0  0  0  0  0  0
   37.4138  -25.9052   25.5845 C   0  0  0  0  0  0  0  0  0  0  0  0
   36.4628  -26.6407   24.9534 C   0  0  0  0  0  0  0  0  0  0  0  0
   35.3017  -26.0585   24.3597 C   0  0  0  0  0  0  0  0  0  0  0  0
   34.3716  -26.7071   23.8663 O   0  0  0  0  0  0  0  0  0  0  0  0
   35.2332  -24.6955   24.4293 N   0  0  0  0  0  0  0  0  0  0  0  0
   38.4867  -26.4264   26.1246 O   0  0  0  0  0  0  0  0  0  0  0  0
   34.4587  -24.2551   24.0104 H   0  0  0  0  0  0  0  0  0  0  0  0
   39.1133  -25.8740   26.5490 H   0  0  0  0  0  0  0  0  0  0  0  0
   39.7088  -19.5759   29.4156 C   0  0  0  0  0  0  0  0  0  0  0  0
   39.9524  -19.1409   30.5399 O   0  0  0  0  0  0  0  0  0  0  0  0
   38.7766  -19.0629   28.6186 N   0  0  0  0  0  0  0  0  0  0  0  0
   38.6126  -19.4884   27.7460 H   0  0  0  0  0  0  0  0  0  0  0  0
   37.9902  -17.8966   28.9875 C   0  0  0  0  0  0  0  0  0  0  0  0
   37.0528  -17.4866   27.8896 C   0  0  0  0  0  0  0  0  0  0  0  0
   36.8108  -13.6984   27.4543 C   0  0  0  0  0  0  0  0  0  0  0  0
   35.7042  -13.4234   28.2454 C   0  0  0  0  0  0  0  0  0  0  0  0
   35.1066  -14.4480   28.9486 C   0  0  0  0  0  0  0  0  0  0  0  0
   35.5736  -15.7437   28.8705 C   0  0  0  0  0  0  0  0  0  0  0  0
   36.6557  -16.0420   28.0475 C   0  0  0  0  0  0  0  0  0  0  0  0
   37.2834  -15.0047   27.3450 C   0  0  0  0  0  0  0  0  0  0  0  0
   33.7213  -14.1009   29.9630 Cl  0  0  0  0  0  0  0  0  0  0  0  0
   38.3833  -15.2741   26.4750 N   0  0  0  0  0  0  0  0  0  0  0  0
   38.4712  -15.3845   25.1401 C   0  0  0  0  0  0  0  0  0  0  0  0
   39.6963  -15.6830   24.8063 N   0  0  0  0  0  0  0  0  0  0  0  0
   40.3886  -15.7548   25.9712 N   0  0  0  0  0  0  0  0  0  0  0  0
   39.6174  -15.5103   26.9834 N   0  0  0  0  0  0  0  0  0  0  0  0
   41.6311  -20.3344   28.0163 C   0  0  0  0  0  0  0  0  0  0  0  0
   42.9760  -20.8121   28.5063 C   0  0  0  0  0  0  0  0  0  0  0  0
   44.0348  -20.9614   27.6215 C   0  0  0  0  0  0  0  0  0  0  0  0
   43.1402  -21.2450   29.8151 C   0  0  0  0  0  0  0  0  0  0  0  0
   45.1985  -21.6007   28.0077 C   0  0  0  0  0  0  0  0  0  0  0  0
   44.3109  -21.8728   30.2105 C   0  0  0  0  0  0  0  0  0  0  0  0
   45.3372  -22.0687   29.3011 C   0  0  0  0  0  0  0  0  0  0  0  0
  2  6  1  0  0  0
  2  3  2  0  0  0
  2  4  1  0  0  0
  6  7  1  0  0  0
  6 11  2  0  0  0
  7  8  2  0  0  0
  8  9  1  0  0  0
 11 10  1  0  0  0
 10  9  2  0  0  0
 10 12  1  0  0  0
  9 16  1  0  0  0
 16 14  1  0  0  0
 14 13  1  0  0  0
 14 15  2  0  0  0
 13 12  2  0  0  0
  4  1  1  0  0  0
  1 20  1  0  0  0
  1 38  1  0  0  0
 20 21  2  0  0  0
 20 22  1  0  0  0
 38 39  1  0  0  0
 39 40  1  0  0  0
 39 41  2  0  0  0
 40 42  2  0  0  0
 41 43  1  0  0  0
 42 44  1  0  0  0
 43 44  2  0  0  0
 26 27  1  0  0  0
 26 31  2  0  0  0
 27 28  2  0  0  0
 28 29  1  0  0  0
 28 32  1  0  0  0
 29 30  2  0  0  0
 30 31  1  0  0  0
 30 25  1  0  0  0
 31 33  1  0  0  0
 33 34  1  0  0  0
 33 37  1  0  0  0
 34 35  2  0  0  0
 35 36  1  0  0  0
 36 37  2  0  0  0
 25 24  1  0  0  0
 24 22  1  0  0  0
 12 17  1  0  0  0
 16 18  1  0  0  0
 17 19  1  0  0  0
  4  5  1  0  0  0
 22 23  1  0  0  0
M  END
> <minimizedAffinity>
-9.64255

$$$$
5E2P_7P0_A_301


 44 48  0  0  0  0  0  0  0  0999 V2000
   40.1196  -19.9497   27.5894 C   0  0  0  0  0  0  0  0  0  0  0  0
   41.8506  -20.8373   29.0994 C   0  0  0  0  0  0  0  0  0  0  0  0
   41.0218  -21.2130   29.9244 O   0  0  0  0  0  0  0  0  0  0  0  0
   41.4985  -20.2489   27.9343 N   0  0  0  0  0  0  0  0  0  0  0  0
   42.2068  -20.0133   27.2924 H   0  0  0  0  0  0  0  0  0  0  0  0
   43.3125  -21.0014   29.3668 C   0  0  0  0  0  0  0  0  0  0  0  0
   44.2692  -20.6568   28.4087 C   0  0  0  0  0  0  0  0  0  0  0  0
   45.6194  -20.8119   28.6676 C   0  0  0  0  0  0  0  0  0  0  0  0
   46.0535  -21.2684   29.9169 C   0  0  0  0  0  0  0  0  0  0  0  0
   45.1015  -21.5840   30.9099 C   0  0  0  0  0  0  0  0  0  0  0  0
   43.7331  -21.4703   30.6107 C   0  0  0  0  0  0  0  0  0  0  0  0
   45.6331  -21.9533   32.2078 C   0  0  0  0  0  0  0  0  0  0  0  0
   46.9714  -22.0176   32.4280 C   0  0  0  0  0  0  0  0  0  0  0  0
   47.9369  -21.7445   31.4116 C   0  0  0  0  0  0  0  0  0  0  0  0
   49.1569  -21.8900   31.5521 O   0  0  0  0  0  0  0  0  0  0  0  0
   47.4205  -21.3663   30.2043 N   0  0  0  0  0  0  0  0  0  0  0  0
   44.7387  -22.1925   33.1337 O   0  0  0  0  0  0  0  0  0  0  0  0
   48.0553  -21.1467   29.4846 H   0  0  0  0  0  0  0  0  0  0  0  0
   43.8260  -22.1345   32.9296 H   0  0  0  0  0  0  0  0  0  0  0  0
   39.7124  -20.8569   26.4395 C   0  0  0  0  0  0  0  0  0  0  0  0
   40.1068  -20.6262   25.2976 O   0  0  0  0  0  0  0  0  0  0  0  0
   38.8860  -21.8539   26.7407 N   0  0  0  0  0  0  0  0  0  0  0  0
   38.5837  -21.9537   27.6723 H   0  0  0  0  0  0  0  0  0  0  0  0
   38.4121  -22.8023   25.7454 C   0  0  0  0  0  0  0  0  0  0  0  0
   36.9199  -22.9560   25.7883 C   0  0  0  0  0  0  0  0  0  0  0  0
   34.7930  -21.9769   22.7689 C   0  0  0  0  0  0  0  0  0  0  0  0
   34.9612  -20.5994   22.7774 C   0  0  0  0  0  0  0  0  0  0  0  0
   35.8033  -20.0286   23.7083 C   0  0  0  0  0  0  0  0  0  0  0  0
   36.4695  -20.7945   24.6425 C   0  0  0  0  0  0  0  0  0  0  0  0
   36.2770  -22.1725   24.6736 C   0  0  0  0  0  0  0  0  0  0  0  0
   35.4399  -22.7650   23.7188 C   0  0  0  0  0  0  0  0  0  0  0  0
   36.0326  -18.2920   23.7097 Cl  0  0  0  0  0  0  0  0  0  0  0  0
   35.2013  -24.1729   23.7311 N   0  0  0  0  0  0  0  0  0  0  0  0
   35.7866  -25.1925   23.0832 C   0  0  0  0  0  0  0  0  0  0  0  0
   35.1868  -26.3085   23.3927 N   0  0  0  0  0  0  0  0  0  0  0  0
   34.2025  -25.9689   24.2630 N   0  0  0  0  0  0  0  0  0  0  0  0
   34.1972  -24.6914   24.4797 N   0  0  0  0  0  0  0  0  0  0  0  0
   39.9261  -18.4799   27.1690 C   0  0  0  0  0  0  0  0  0  0  0  0
   38.7101  -17.8242   27.7761 C   0  0  0  0  0  0  0  0  0  0  0  0
   37.7816  -17.1806   26.9701 C   0  0  0  0  0  0  0  0  0  0  0  0
   38.5706  -17.7285   29.1541 C   0  0  0  0  0  0  0  0  0  0  0  0
   36.7874  -16.3931   27.5211 C   0  0  0  0  0  0  0  0  0  0  0  0
   37.5662  -16.9524   29.7107 C   0  0  0  0  0  0  0  0  0  0  0  0
   36.6822  -16.2671   28.8937 C   0  0  0  0  0  0  0  0  0  0  0  0
  2  6  1  0  0  0
  2  3  2  0  0  0
  2  4  1  0  0  0
  6  7  1  0  0  0
  6 11  2  0  0  0
  7  8  2  0  0  0
  8  9  1  0  0  0
 11 10  1  0  0  0
 10  9  2  0  0  0
 10 12  1  0  0  0
  9 16  1  0  0  0
 16 14  1  0  0  0
 14 13  1  0  0  0
 14 15  2  0  0  0
 13 12  2  0  0  0
  4  1  1  0  0  0
  1 20  1  0  0  0
  1 38  1  0  0  0
 20 21  2  0  0  0
 20 22  1  0  0  0
 38 39  1  0  0  0
 39 40  1  0  0  0
 39 41  2  0  0  0
 40 42  2  0  0  0
 41 43  1  0  0  0
 42 44  1  0  0  0
 43 44  2  0  0  0
 26 27  1  0  0  0
 26 31  2  0  0  0
 27 28  2  0  0  0
 28 29  1  0  0  0
 28 32  1  0  0  0
 29 30  2  0  0  0
 30 31  1  0  0  0
 30 25  1  0  0  0
 31 33  1  0  0  0
 33 34  1  0  0  0
 33 37  1  0  0  0
 34 35  2  0  0  0
 35 36  1  0  0  0
 36 37  2  0  0  0
 25 24  1  0  0  0
 24 22  1  0  0  0
 12 17  1  0  0  0
 16 18  1  0  0  0
 17 19  1  0  0  0
  4  5  1  0  0  0
 22 23  1  0  0  0
M  END
> <minimizedAffinity>
-9.62182

$$$$
5E2P_7P0_A_301


 44 48  0  0  0  0  0  0  0  0999 V2000
   39.8393  -20.5321   24.8853 C   0  0  0  0  0  0  0  0  0  0  0  0
   42.1754  -20.9723   25.5278 C   0  0  0  0  0  0  0  0  0  0  0  0
   42.5563  -20.9835   24.3601 O   0  0  0  0  0  0  0  0  0  0  0  0
   40.8897  -20.7307   25.8687 N   0  0  0  0  0  0  0  0  0  0  0  0
   40.6555  -20.6875   26.8240 H   0  0  0  0  0  0  0  0  0  0  0  0
   43.1355  -21.2514   26.6396 C   0  0  0  0  0  0  0  0  0  0  0  0
   44.5039  -21.3970   26.3981 C   0  0  0  0  0  0  0  0  0  0  0  0
   45.3832  -21.6541   27.4348 C   0  0  0  0  0  0  0  0  0  0  0  0
   44.9228  -21.7206   28.7544 C   0  0  0  0  0  0  0  0  0  0  0  0
   43.5490  -21.5370   29.0205 C   0  0  0  0  0  0  0  0  0  0  0  0
   42.6635  -21.3293   27.9492 C   0  0  0  0  0  0  0  0  0  0  0  0
   43.1676  -21.5206   30.4196 C   0  0  0  0  0  0  0  0  0  0  0  0
   44.0867  -21.7045   31.4020 C   0  0  0  0  0  0  0  0  0  0  0  0
   45.4700  -21.9376   31.1338 C   0  0  0  0  0  0  0  0  0  0  0  0
   46.3120  -22.2064   31.9987 O   0  0  0  0  0  0  0  0  0  0  0  0
   45.8185  -21.9174   29.8126 N   0  0  0  0  0  0  0  0  0  0  0  0
   41.8987  -21.2972   30.6534 O   0  0  0  0  0  0  0  0  0  0  0  0
   46.7678  -22.0508   29.5886 H   0  0  0  0  0  0  0  0  0  0  0  0
   41.3048  -21.1768   29.9387 H   0  0  0  0  0  0  0  0  0  0  0  0
   39.7031  -19.0390   24.6340 C   0  0  0  0  0  0  0  0  0  0  0  0
   39.6768  -18.6032   23.4842 O   0  0  0  0  0  0  0  0  0  0  0  0
   39.6667  -18.2618   25.7121 N   0  0  0  0  0  0  0  0  0  0  0  0
   39.7294  -18.6809   26.6008 H   0  0  0  0  0  0  0  0  0  0  0  0
   39.5378  -16.8157   25.6275 C   0  0  0  0  0  0  0  0  0  0  0  0
   39.6389  -16.1675   26.9772 C   0  0  0  0  0  0  0  0  0  0  0  0
   36.5446  -16.7554   29.1402 C   0  0  0  0  0  0  0  0  0  0  0  0
   35.8262  -15.5983   28.8734 C   0  0  0  0  0  0  0  0  0  0  0  0
   36.3211  -14.6934   27.9580 C   0  0  0  0  0  0  0  0  0  0  0  0
   37.5226  -14.9041   27.3139 C   0  0  0  0  0  0  0  0  0  0  0  0
   38.2748  -16.0387   27.6036 C   0  0  0  0  0  0  0  0  0  0  0  0
   37.7711  -16.9750   28.5164 C   0  0  0  0  0  0  0  0  0  0  0  0
   35.4076  -13.2411   27.6047 Cl  0  0  0  0  0  0  0  0  0  0  0  0
   38.5227  -18.1411   28.8549 N   0  0  0  0  0  0  0  0  0  0  0  0
   39.4566  -18.3718   29.7912 C   0  0  0  0  0  0  0  0  0  0  0  0
   39.8882  -19.5980   29.6846 N   0  0  0  0  0  0  0  0  0  0  0  0
   39.1961  -20.1441   28.6529 N   0  0  0  0  0  0  0  0  0  0  0  0
   38.3703  -19.2850   28.1439 N   0  0  0  0  0  0  0  0  0  0  0  0
   38.4831  -21.0934   25.3548 C   0  0  0  0  0  0  0  0  0  0  0  0
   37.4319  -21.1398   24.2731 C   0  0  0  0  0  0  0  0  0  0  0  0
   36.1507  -20.6651   24.5162 C   0  0  0  0  0  0  0  0  0  0  0  0
   37.6825  -21.7839   23.0691 C   0  0  0  0  0  0  0  0  0  0  0  0
   35.1245  -20.8985   23.6193 C   0  0  0  0  0  0  0  0  0  0  0  0
   36.6599  -22.0067   22.1604 C   0  0  0  0  0  0  0  0  0  0  0  0
   35.3727  -21.5798   22.4423 C   0  0  0  0  0  0  0  0  0  0  0  0
  2  6  1  0  0  0
  2  3  2  0  0  0
  2  4  1  0  0  0
  6  7  1  0  0  0
  6 11  2  0  0  0
  7  8  2  0  0  0
  8  9  1  0  0  0
 11 10  1  0  0  0
 10  9  2  0  0  0
 10 12  1  0  0  0
  9 16  1  0  0  0
 16 14  1  0  0  0
 14 13  1  0  0  0
 14 15  2  0  0  0
 13 12  2  0  0  0
  4  1  1  0  0  0
  1 20  1  0  0  0
  1 38  1  0  0  0
 20 21  2  0  0  0
 20 22  1  0  0  0
 38 39  1  0  0  0
 39 40  1  0  0  0
 39 41  2  0  0  0
 40 42  2  0  0  0
 41 43  1  0  0  0
 42 44  1  0  0  0
 43 44  2  0  0  0
 26 27  1  0  0  0
 26 31  2  0  0  0
 27 28  2  0  0  0
 28 29  1  0  0  0
 28 32  1  0  0  0
 29 30  2  0  0  0
 30 31  1  0  0  0
 30 25  1  0  0  0
 31 33  1  0  0  0
 33 34  1  0  0  0
 33 37  1  0  0  0
 34 35  2  0  0  0
 35 36  1  0  0  0
 36 37  2  0  0  0
 25 24  1  0  0  0
 24 22  1  0  0  0
 12 17  1  0  0  0
 16 18  1  0  0  0
 17 19  1  0  0  0
  4  5  1  0  0  0
 22 23  1  0  0  0
M  END
> <minimizedAffinity>
-9.57432

$$$$
