4B7J_G39_A_1470
  RCSB PDB12061711473D
Coordinates from PDB:4B7J:A:1470 Model:1 without hydrogens
 20 20  0  0  0  0            999 V2000
   28.9340   -5.5650   11.8320   C 0  0  0  0  0  0  0  0  0  0  0  0
   29.7840   -4.6730   11.6030   O 0  0  0  0  0  0  0  0  0  0  0  0
   27.7010   -5.2850   11.7910   O 0  0  0  0  0  0  0  0  0  0  0  0
   29.3720   -6.9820   12.1710   C 0  0  0  0  0  0  0  0  0  0  0  0
   30.7800   -6.9540   12.6950   C 0  0  0  0  0  0  0  0  0  0  0  0
   31.0620   -7.8390   13.8680   C 0  0  0  0  0  0  0  0  0  0  0  0
   30.1770   -9.0360   13.8980   C 0  0  0  0  0  0  0  0  0  0  0  0
   30.5290   -9.8660   15.0460   N 0  0  0  0  0  0  0  0  0  0  0  0
   30.9970  -11.2220   14.8760   C 0  0  0  0  0  0  0  0  0  0  0  0
   31.1110  -11.6980   13.7610   O 0  0  0  0  0  0  0  0  0  0  0  0
   31.3450  -12.0410   16.0930   C 0  0  0  0  0  0  0  0  0  0  0  0
   28.7450   -8.6330   14.0390   C 0  0  0  0  0  0  0  0  0  0  0  0
   28.3260   -7.5590   13.0850   C 0  0  0  0  0  0  0  0  0  0  0  0
   27.9120   -9.7560   13.8850   O 0  0  0  0  0  0  0  0  0  0  0  0
   27.1360  -10.2160   14.9680   C 0  0  0  0  0  0  0  0  0  0  0  0
   26.1610   -9.1810   15.5290   C 0  0  0  0  0  0  0  0  0  0  0  0
   26.5080  -11.5760   14.7160   C 0  0  0  0  0  0  0  0  0  0  0  0
   27.4420  -12.7560   14.6270   C 0  0  0  0  0  0  0  0  0  0  0  0
   25.0590   -8.6950   14.6300   C 0  0  0  0  0  0  0  0  0  0  0  0
   32.4550   -8.2690   13.8310   N 0  0  0  0  0  0  0  0  0  0  0  0
  1  2  2  0  0  0  0
  1  3  1  0  0  0  0
  1  4  1  0  0  0  0
  4  5  1  0  0  0  0
  4 13  2  0  0  0  0
  5  6  1  0  0  0  0
  6  7  1  0  0  0  0
  6 20  1  0  0  0  0
  7  8  1  0  0  0  0
  7 12  1  0  0  0  0
  8  9  1  0  0  0  0
  9 10  2  0  0  0  0
  9 11  1  0  0  0  0
 12 13  1  0  0  0  0
 12 14  1  0  0  0  0
 14 15  1  0  0  0  0
 15 16  1  0  0  0  0
 15 17  1  0  0  0  0
 16 19  1  0  0  0  0
 17 18  1  0  0  0  0
A    1
C1
A    2
O1A
A    3
O1B
A    4
C2
A    5
C3
A    6
C4
A    7
C5
A    8
N5
A    9
C10
A   10
O10
A   11
C11
A   12
C6
A   13
C7
A   14
O7
A   15
C8
A   16
C9
A   17
C81
A   18
C82
A   19
C91
A   20
N4
M  END
>  <InstanceId>
4B7J_G39_A_1470

>  <ChemCompId>
G39

>  <PdbId>
4B7J

>  <ChainId>
A

>  <ResidueNumber>
1470

>  <InsertionCode>


>  <Model>
1

>  <AltIds>


>  <MissingHeavyAtoms>
0

>  <ObservedFormula>
C14 N2 O4

>  <Name>
(3R,4R,5S)-4-(acetylamino)-5-amino-3-(pentan-3-yloxy)cyclohex-1-ene-1-carboxylic acid

>  <SystematicName>
(3R,4R,5S)-4-acetamido-5-azanyl-3-pentan-3-yloxy-cyclohexene-1-carboxylic acid

>  <Synonyms>
Oseltamivir carboxylate

>  <Type>
NON-POLYMER

>  <Formula>
C14 H24 N2 O4

>  <MolecularWeight>
284.351

>  <ModifiedDate>
2011-06-04

>  <Parent>


>  <OneLetterCode>


>  <SubcomponentList>


>  <AmbiguousFlag>
N

>  <InChI>
InChI=1S/C14H24N2O4/c1-4-10(5-2)20-12-7-9(14(18)19)6-11(15)13(12)16-8(3)17/h7,10-13H,4-6,15H2,1-3H3,(H,16,17)(H,18,19)/t11-,12+,13+/m0/s1

>  <InChIKey>
NENPYTRHICXVCS-YNEHKIRRSA-N

>  <SMILES>
CCC(CC)O[C@@H]1C=C(C[C@@H]([C@H]1NC(=O)C)N)C(=O)O

$$$$
