6D2O_4MZ_A_302
  RCSB PDB09151803293D
Coordinates from PDB:6D2O:A:302 Model:1 without hydrogens
  6  6  0  0  0  0            999 V2000
  -27.9070    9.6610  -16.6420   C 0  0  0  0  0  0  0  0  0  0  0  0
  -29.1730    9.9460  -16.9740   N 0  0  0  0  0  0  0  0  0  0  0  0
  -27.8320    9.4990  -15.2480   C 0  0  0  0  0  0  0  0  0  0  0  0
  -29.8580    9.9720  -15.8400   C 0  0  0  0  0  0  0  0  0  0  0  0
  -29.0770    9.7090  -14.7960   N 0  0  0  0  0  0  0  0  0  0  0  0
  -26.7720    9.5130  -17.5970   C 0  0  0  0  0  0  0  0  0  0  0  0
  1  2  1  0  0  0  0
  1  3  2  0  0  0  0
  1  6  1  0  0  0  0
  2  4  2  0  0  0  0
  3  5  1  0  0  0  0
  4  5  1  0  0  0  0
A    1
CG
A    2
ND1
A    3
CD2
A    4
CE1
A    5
NE2
A    6
C4
M  END
>  <InstanceId>
6D2O_4MZ_A_302

>  <ChemCompId>
4MZ

>  <PdbId>
6D2O

>  <ChainId>
A

>  <ResidueNumber>
302

>  <InsertionCode>


>  <Model>
1

>  <AltIds>


>  <MissingHeavyAtoms>
0

>  <ObservedFormula>
C4 N2

>  <Name>
4-METHYLIMIDAZOLE

>  <SystematicName>
4-methyl-1H-imidazole

>  <Synonyms>


>  <Type>
NON-POLYMER

>  <Formula>
C4 H6 N2

>  <MolecularWeight>
82.104

>  <ModifiedDate>
2011-06-04

>  <Parent>


>  <OneLetterCode>


>  <SubcomponentList>


>  <AmbiguousFlag>
N

>  <InChI>
InChI=1S/C4H6N2/c1-4-2-5-3-6-4/h2-3H,1H3,(H,5,6)

>  <InChIKey>
XLSZMDLNRCVEIJ-UHFFFAOYSA-N

>  <SMILES>
Cc1c[nH]cn1

$$$$
