1XGI_NST_B_416


 23 24  0  0  0  0  0  0  0  0999 V2000
   78.0234    5.3520   30.2626 S   0  0  0  0  0  0  0  0  0  0  0  0
   76.9473    5.0732   31.1917 O   0  0  0  0  0  0  0  0  0  0  0  0
   78.3488    4.1602   29.5492 O   0  0  0  0  0  0  0  0  0  0  0  0
   79.4915    5.9085   31.2491 C   0  0  0  0  0  0  0  0  0  0  0  0
   80.8078    6.1034   30.7867 C   0  0  0  0  0  0  0  0  0  0  0  0
   79.4731    6.2144   32.6278 C   0  0  0  0  0  0  0  0  0  0  0  0
   81.6092    6.5408   31.9142 S   0  0  0  0  0  0  0  0  0  0  0  0
   80.7601    6.5962   33.0352 C   0  0  0  0  0  0  0  0  0  0  0  0
   81.3047    5.9025   29.3801 C   0  0  0  0  0  0  0  0  0  0  0  0
   80.9809    4.8140   28.6762 O   0  0  0  0  0  0  0  0  0  0  0  0
   82.0241    6.7474   28.8756 O   0  0  0  0  0  0  0  0  0  0  0  0
   80.4286    4.1585   29.0546 H   0  0  0  0  0  0  0  0  0  0  0  0
   77.4308    6.5391   29.1494 N   0  0  0  0  0  0  0  0  0  0  0  0
   76.5540    6.9576   29.3082 H   0  0  0  0  0  0  0  0  0  0  0  0
   78.1839    6.9147   28.0209 C   0  0  0  0  0  0  0  0  0  0  0  0
   78.9352    8.1513   28.0118 C   0  0  0  0  0  0  0  0  0  0  0  0
   78.2014    6.0378   26.8894 C   0  0  0  0  0  0  0  0  0  0  0  0
   79.7073    8.5012   26.8439 C   0  0  0  0  0  0  0  0  0  0  0  0
   78.9721    6.3771   25.7231 C   0  0  0  0  0  0  0  0  0  0  0  0
   79.7271    7.6140   25.7052 C   0  0  0  0  0  0  0  0  0  0  0  0
   78.9942    5.5282   24.6435 N   0  0  0  0  0  0  0  0  0  0  0  0
   79.9203    5.5646   23.8414 O   0  0  0  0  0  0  0  0  0  0  0  0
   78.0877    4.7308   24.4699 O   0  0  0  0  0  0  0  0  0  0  0  0
 13 15  1  0  0  0
 13  1  1  0  0  0
 15 16  2  0  0  0
 15 17  1  0  0  0
 16 18  1  0  0  0
 17 19  2  0  0  0
 18 20  2  0  0  0
 19 20  1  0  0  0
 19 21  1  0  0  0
 21 22  1  0  0  0
 21 23  2  0  0  0
  1  4  1  0  0  0
  1  2  2  0  0  0
  1  3  2  0  0  0
  4  5  2  0  0  0
  4  6  1  0  0  0
  5  7  1  0  0  0
  5  9  1  0  0  0
  6  8  2  0  0  0
  7  8  1  0  0  0
  9 10  1  0  0  0
  9 11  2  0  0  0
 13 14  1  0  0  0
 10 12  1  0  0  0
M  CHG 1  21   1
M  CHG 1  22  -1
M  END
> <minimizedAffinity>
-7.58861

$$$$
1XGI_NST_B_416


 23 24  0  0  0  0  0  0  0  0999 V2000
   78.7414    5.8857   30.5875 S   0  0  0  0  0  0  0  0  0  0  0  0
   77.4348    5.2934   30.7889 O   0  0  0  0  0  0  0  0  0  0  0  0
   78.9443    6.9160   31.5530 O   0  0  0  0  0  0  0  0  0  0  0  0
   78.7747    6.6140   28.8825 C   0  0  0  0  0  0  0  0  0  0  0  0
   78.8933    5.9236   27.6603 C   0  0  0  0  0  0  0  0  0  0  0  0
   78.6836    7.9922   28.5878 C   0  0  0  0  0  0  0  0  0  0  0  0
   78.8720    6.9087   26.5955 S   0  0  0  0  0  0  0  0  0  0  0  0
   78.7456    8.1743   27.1981 C   0  0  0  0  0  0  0  0  0  0  0  0
   79.0158    4.4344   27.4782 C   0  0  0  0  0  0  0  0  0  0  0  0
   78.7103    3.5851   28.4633 O   0  0  0  0  0  0  0  0  0  0  0  0
   79.4097    3.9947   26.4118 O   0  0  0  0  0  0  0  0  0  0  0  0
   78.4066    3.9127   29.2870 H   0  0  0  0  0  0  0  0  0  0  0  0
   79.9067    4.6296   30.8405 N   0  0  0  0  0  0  0  0  0  0  0  0
   79.8615    3.8098   30.2973 H   0  0  0  0  0  0  0  0  0  0  0  0
   80.9175    4.7631   31.8112 C   0  0  0  0  0  0  0  0  0  0  0  0
   80.6856    4.3568   33.1805 C   0  0  0  0  0  0  0  0  0  0  0  0
   82.1841    5.2954   31.4088 C   0  0  0  0  0  0  0  0  0  0  0  0
   81.7468    4.4951   34.1486 C   0  0  0  0  0  0  0  0  0  0  0  0
   83.2485    5.4323   32.3667 C   0  0  0  0  0  0  0  0  0  0  0  0
   83.0248    5.0283   33.7404 C   0  0  0  0  0  0  0  0  0  0  0  0
   84.4654    5.9342   31.9743 N   0  0  0  0  0  0  0  0  0  0  0  0
   85.0426    6.7728   32.6569 O   0  0  0  0  0  0  0  0  0  0  0  0
   84.9827    5.5521   30.9380 O   0  0  0  0  0  0  0  0  0  0  0  0
 13 15  1  0  0  0
 13  1  1  0  0  0
 15 16  2  0  0  0
 15 17  1  0  0  0
 16 18  1  0  0  0
 17 19  2  0  0  0
 18 20  2  0  0  0
 19 20  1  0  0  0
 19 21  1  0  0  0
 21 22  1  0  0  0
 21 23  2  0  0  0
  1  4  1  0  0  0
  1  2  2  0  0  0
  1  3  2  0  0  0
  4  5  2  0  0  0
  4  6  1  0  0  0
  5  7  1  0  0  0
  5  9  1  0  0  0
  6  8  2  0  0  0
  7  8  1  0  0  0
  9 10  1  0  0  0
  9 11  2  0  0  0
 13 14  1  0  0  0
 10 12  1  0  0  0
M  CHG 1  21   1
M  CHG 1  22  -1
M  END
> <minimizedAffinity>
-7.55764

$$$$
1XGI_NST_B_416


 23 24  0  0  0  0  0  0  0  0999 V2000
   78.3698    5.3323   30.3449 S   0  0  0  0  0  0  0  0  0  0  0  0
   77.7799    5.6301   31.6341 O   0  0  0  0  0  0  0  0  0  0  0  0
   78.1036    3.9716   30.0093 O   0  0  0  0  0  0  0  0  0  0  0  0
   80.2002    5.5926   30.4875 C   0  0  0  0  0  0  0  0  0  0  0  0
   80.9319    5.8978   31.6519 C   0  0  0  0  0  0  0  0  0  0  0  0
   81.1159    5.5159   29.4150 C   0  0  0  0  0  0  0  0  0  0  0  0
   82.3289    6.0078   31.2764 S   0  0  0  0  0  0  0  0  0  0  0  0
   82.4105    5.7710   29.8915 C   0  0  0  0  0  0  0  0  0  0  0  0
   80.3779    6.0757   33.0401 C   0  0  0  0  0  0  0  0  0  0  0  0
   79.5838    7.1057   33.3461 O   0  0  0  0  0  0  0  0  0  0  0  0
   80.6664    5.2669   33.9052 O   0  0  0  0  0  0  0  0  0  0  0  0
   79.3559    7.7331   32.6884 H   0  0  0  0  0  0  0  0  0  0  0  0
   77.5985    6.3660   29.1889 N   0  0  0  0  0  0  0  0  0  0  0  0
   76.6709    6.6578   29.3424 H   0  0  0  0  0  0  0  0  0  0  0  0
   78.2778    6.7953   28.0332 C   0  0  0  0  0  0  0  0  0  0  0  0
   78.9335    8.0847   27.9972 C   0  0  0  0  0  0  0  0  0  0  0  0
   78.3179    5.9205   26.9005 C   0  0  0  0  0  0  0  0  0  0  0  0
   79.6321    8.4898   26.8013 C   0  0  0  0  0  0  0  0  0  0  0  0
   79.0160    6.3150   25.7063 C   0  0  0  0  0  0  0  0  0  0  0  0
   79.6750    7.6049   25.6614 C   0  0  0  0  0  0  0  0  0  0  0  0
   79.0605    5.4686   24.6253 N   0  0  0  0  0  0  0  0  0  0  0  0
   78.1923    4.6185   24.4637 O   0  0  0  0  0  0  0  0  0  0  0  0
   79.9690    5.5524   23.8159 O   0  0  0  0  0  0  0  0  0  0  0  0
 13 15  1  0  0  0
 13  1  1  0  0  0
 15 16  2  0  0  0
 15 17  1  0  0  0
 16 18  1  0  0  0
 17 19  2  0  0  0
 18 20  2  0  0  0
 19 20  1  0  0  0
 19 21  1  0  0  0
 21 22  1  0  0  0
 21 23  2  0  0  0
  1  4  1  0  0  0
  1  2  2  0  0  0
  1  3  2  0  0  0
  4  5  2  0  0  0
  4  6  1  0  0  0
  5  7  1  0  0  0
  5  9  1  0  0  0
  6  8  2  0  0  0
  7  8  1  0  0  0
  9 10  1  0  0  0
  9 11  2  0  0  0
 13 14  1  0  0  0
 10 12  1  0  0  0
M  CHG 1  21   1
M  CHG 1  22  -1
M  END
> <minimizedAffinity>
-7.41322

$$$$
1XGI_NST_B_416


 23 24  0  0  0  0  0  0  0  0999 V2000
   78.7290    5.8817   30.5786 S   0  0  0  0  0  0  0  0  0  0  0  0
   77.4434    5.2390   30.7600 O   0  0  0  0  0  0  0  0  0  0  0  0
   78.8724    6.9255   31.5405 O   0  0  0  0  0  0  0  0  0  0  0  0
   78.7654    6.5999   28.8695 C   0  0  0  0  0  0  0  0  0  0  0  0
   78.8968    5.9031   27.6522 C   0  0  0  0  0  0  0  0  0  0  0  0
   78.6638    7.9754   28.5657 C   0  0  0  0  0  0  0  0  0  0  0  0
   78.8729    6.8815   26.5813 S   0  0  0  0  0  0  0  0  0  0  0  0
   78.7320    8.1495   27.1753 C   0  0  0  0  0  0  0  0  0  0  0  0
   79.0335    4.4140   27.4799 C   0  0  0  0  0  0  0  0  0  0  0  0
   78.7436    3.5687   28.4733 O   0  0  0  0  0  0  0  0  0  0  0  0
   79.4245    3.9706   26.4140 O   0  0  0  0  0  0  0  0  0  0  0  0
   78.4423    3.8992   29.2967 H   0  0  0  0  0  0  0  0  0  0  0  0
   79.9384    4.6749   30.8623 N   0  0  0  0  0  0  0  0  0  0  0  0
   79.6728    3.7295   30.9323 H   0  0  0  0  0  0  0  0  0  0  0  0
   81.2954    5.0252   30.9943 C   0  0  0  0  0  0  0  0  0  0  0  0
   82.0852    5.3737   29.8331 C   0  0  0  0  0  0  0  0  0  0  0  0
   81.8711    5.0434   32.3050 C   0  0  0  0  0  0  0  0  0  0  0  0
   83.4704    5.7404   30.0039 C   0  0  0  0  0  0  0  0  0  0  0  0
   83.2499    5.4122   32.4843 C   0  0  0  0  0  0  0  0  0  0  0  0
   84.0484    5.7622   31.3266 C   0  0  0  0  0  0  0  0  0  0  0  0
   83.7958    5.4380   33.7445 N   0  0  0  0  0  0  0  0  0  0  0  0
   83.1708    5.9161   34.6843 O   0  0  0  0  0  0  0  0  0  0  0  0
   84.9124    4.9880   33.9401 O   0  0  0  0  0  0  0  0  0  0  0  0
 13 15  1  0  0  0
 13  1  1  0  0  0
 15 16  2  0  0  0
 15 17  1  0  0  0
 16 18  1  0  0  0
 17 19  2  0  0  0
 18 20  2  0  0  0
 19 20  1  0  0  0
 19 21  1  0  0  0
 21 22  1  0  0  0
 21 23  2  0  0  0
  1  4  1  0  0  0
  1  2  2  0  0  0
  1  3  2  0  0  0
  4  5  2  0  0  0
  4  6  1  0  0  0
  5  7  1  0  0  0
  5  9  1  0  0  0
  6  8  2  0  0  0
  7  8  1  0  0  0
  9 10  1  0  0  0
  9 11  2  0  0  0
 13 14  1  0  0  0
 10 12  1  0  0  0
M  CHG 1  21   1
M  CHG 1  22  -1
M  END
> <minimizedAffinity>
-7.27209

$$$$
1XGI_NST_B_416


 23 24  0  0  0  0  0  0  0  0999 V2000
   78.8244    5.5451   30.1774 S   0  0  0  0  0  0  0  0  0  0  0  0
   78.9484    6.8832   29.6362 O   0  0  0  0  0  0  0  0  0  0  0  0
   77.5723    5.4245   30.8504 O   0  0  0  0  0  0  0  0  0  0  0  0
   80.2082    5.2940   31.3858 C   0  0  0  0  0  0  0  0  0  0  0  0
   81.4750    5.9102   31.3746 C   0  0  0  0  0  0  0  0  0  0  0  0
   80.1641    4.4277   32.5003 C   0  0  0  0  0  0  0  0  0  0  0  0
   82.2188    5.4056   32.5134 S   0  0  0  0  0  0  0  0  0  0  0  0
   81.3865    4.4915   33.1858 C   0  0  0  0  0  0  0  0  0  0  0  0
   81.9765    6.9146   30.3718 C   0  0  0  0  0  0  0  0  0  0  0  0
   81.3899    8.1063   30.2271 O   0  0  0  0  0  0  0  0  0  0  0  0
   82.9332    6.6313   29.6717 O   0  0  0  0  0  0  0  0  0  0  0  0
   80.6538    8.3340   30.7603 H   0  0  0  0  0  0  0  0  0  0  0  0
   78.8561    4.4543   28.8324 N   0  0  0  0  0  0  0  0  0  0  0  0
   78.5316    3.5321   28.9484 H   0  0  0  0  0  0  0  0  0  0  0  0
   79.3388    4.8664   27.5759 C   0  0  0  0  0  0  0  0  0  0  0  0
   80.7238    5.2491   27.4053 C   0  0  0  0  0  0  0  0  0  0  0  0
   78.4317    4.8831   26.4684 C   0  0  0  0  0  0  0  0  0  0  0  0
   81.1900    5.6546   26.1013 C   0  0  0  0  0  0  0  0  0  0  0  0
   78.8897    5.2818   25.1643 C   0  0  0  0  0  0  0  0  0  0  0  0
   80.2751    5.6672   24.9846 C   0  0  0  0  0  0  0  0  0  0  0  0
   78.0186    5.2870   24.1023 N   0  0  0  0  0  0  0  0  0  0  0  0
   76.8359    5.0097   24.2654 O   0  0  0  0  0  0  0  0  0  0  0  0
   78.4158    5.5643   22.9829 O   0  0  0  0  0  0  0  0  0  0  0  0
 13 15  1  0  0  0
 13  1  1  0  0  0
 15 16  2  0  0  0
 15 17  1  0  0  0
 16 18  1  0  0  0
 17 19  2  0  0  0
 18 20  2  0  0  0
 19 20  1  0  0  0
 19 21  1  0  0  0
 21 22  1  0  0  0
 21 23  2  0  0  0
  1  4  1  0  0  0
  1  2  2  0  0  0
  1  3  2  0  0  0
  4  5  2  0  0  0
  4  6  1  0  0  0
  5  7  1  0  0  0
  5  9  1  0  0  0
  6  8  2  0  0  0
  7  8  1  0  0  0
  9 10  1  0  0  0
  9 11  2  0  0  0
 13 14  1  0  0  0
 10 12  1  0  0  0
M  CHG 1  21   1
M  CHG 1  22  -1
M  END
> <minimizedAffinity>
-7.04886

$$$$
1XGI_NST_B_416


 23 24  0  0  0  0  0  0  0  0999 V2000
   80.2924    8.4331   27.3851 S   0  0  0  0  0  0  0  0  0  0  0  0
   81.0558    9.6548   27.5383 O   0  0  0  0  0  0  0  0  0  0  0  0
   78.9013    8.7323   27.4878 O   0  0  0  0  0  0  0  0  0  0  0  0
   80.7854    7.2835   28.7539 C   0  0  0  0  0  0  0  0  0  0  0  0
   80.1510    6.0842   29.1330 C   0  0  0  0  0  0  0  0  0  0  0  0
   81.8903    7.4727   29.6131 C   0  0  0  0  0  0  0  0  0  0  0  0
   80.8913    5.5301   30.2508 S   0  0  0  0  0  0  0  0  0  0  0  0
   81.9550    6.4095   30.5261 C   0  0  0  0  0  0  0  0  0  0  0  0
   78.9293    5.4750   28.4989 C   0  0  0  0  0  0  0  0  0  0  0  0
   77.8067    6.1802   28.3317 O   0  0  0  0  0  0  0  0  0  0  0  0
   78.9626    4.3114   28.1377 O   0  0  0  0  0  0  0  0  0  0  0  0
   77.7706    7.0754   28.6060 H   0  0  0  0  0  0  0  0  0  0  0  0
   80.6294    7.8258   25.7985 N   0  0  0  0  0  0  0  0  0  0  0  0
   81.2401    8.3239   25.2084 H   0  0  0  0  0  0  0  0  0  0  0  0
   80.0435    6.6309   25.3399 C   0  0  0  0  0  0  0  0  0  0  0  0
   80.8047    5.4009   25.3033 C   0  0  0  0  0  0  0  0  0  0  0  0
   78.6734    6.6579   24.9253 C   0  0  0  0  0  0  0  0  0  0  0  0
   80.1708    4.1903   24.8395 C   0  0  0  0  0  0  0  0  0  0  0  0
   78.0329    5.4546   24.4659 C   0  0  0  0  0  0  0  0  0  0  0  0
   78.7880    4.2183   24.4256 C   0  0  0  0  0  0  0  0  0  0  0  0
   76.7154    5.4826   24.0784 N   0  0  0  0  0  0  0  0  0  0  0  0
   76.2493    6.4732   23.5271 O   0  0  0  0  0  0  0  0  0  0  0  0
   75.9937    4.5210   24.2835 O   0  0  0  0  0  0  0  0  0  0  0  0
 13 15  1  0  0  0
 13  1  1  0  0  0
 15 16  2  0  0  0
 15 17  1  0  0  0
 16 18  1  0  0  0
 17 19  2  0  0  0
 18 20  2  0  0  0
 19 20  1  0  0  0
 19 21  1  0  0  0
 21 22  1  0  0  0
 21 23  2  0  0  0
  1  4  1  0  0  0
  1  2  2  0  0  0
  1  3  2  0  0  0
  4  5  2  0  0  0
  4  6  1  0  0  0
  5  7  1  0  0  0
  5  9  1  0  0  0
  6  8  2  0  0  0
  7  8  1  0  0  0
  9 10  1  0  0  0
  9 11  2  0  0  0
 13 14  1  0  0  0
 10 12  1  0  0  0
M  CHG 1  21   1
M  CHG 1  22  -1
M  END
> <minimizedAffinity>
-7.00575

$$$$
1XGI_NST_B_416


 23 24  0  0  0  0  0  0  0  0999 V2000
   78.9641    4.9592   30.7221 S   0  0  0  0  0  0  0  0  0  0  0  0
   78.1533    3.9734   30.0369 O   0  0  0  0  0  0  0  0  0  0  0  0
   78.1185    5.9834   31.2427 O   0  0  0  0  0  0  0  0  0  0  0  0
   80.1350    5.6879   29.4826 C   0  0  0  0  0  0  0  0  0  0  0  0
   80.0279    5.6468   28.0786 C   0  0  0  0  0  0  0  0  0  0  0  0
   81.3155    6.3950   29.8007 C   0  0  0  0  0  0  0  0  0  0  0  0
   81.1728    6.3488   27.5301 S   0  0  0  0  0  0  0  0  0  0  0  0
   81.9499    6.7952   28.6152 C   0  0  0  0  0  0  0  0  0  0  0  0
   78.9282    4.9995   27.2803 C   0  0  0  0  0  0  0  0  0  0  0  0
   77.7020    5.5278   27.2283 O   0  0  0  0  0  0  0  0  0  0  0  0
   79.1594    3.9671   26.6748 O   0  0  0  0  0  0  0  0  0  0  0  0
   77.5137    6.3211   27.6901 H   0  0  0  0  0  0  0  0  0  0  0  0
   79.7451    4.1426   32.0347 N   0  0  0  0  0  0  0  0  0  0  0  0
   79.6781    3.1629   32.1048 H   0  0  0  0  0  0  0  0  0  0  0  0
   80.4741    4.8585   33.0030 C   0  0  0  0  0  0  0  0  0  0  0  0
   80.0849    6.2006   33.3784 C   0  0  0  0  0  0  0  0  0  0  0  0
   81.5995    4.2223   33.6181 C   0  0  0  0  0  0  0  0  0  0  0  0
   80.8460    6.9027   34.3836 C   0  0  0  0  0  0  0  0  0  0  0  0
   82.3606    4.9136   34.6242 C   0  0  0  0  0  0  0  0  0  0  0  0
   81.9781    6.2583   35.0059 C   0  0  0  0  0  0  0  0  0  0  0  0
   83.4337    4.2959   35.2190 N   0  0  0  0  0  0  0  0  0  0  0  0
   84.1846    3.5834   34.5627 O   0  0  0  0  0  0  0  0  0  0  0  0
   83.6476    4.4477   36.4102 O   0  0  0  0  0  0  0  0  0  0  0  0
 13 15  1  0  0  0
 13  1  1  0  0  0
 15 16  2  0  0  0
 15 17  1  0  0  0
 16 18  1  0  0  0
 17 19  2  0  0  0
 18 20  2  0  0  0
 19 20  1  0  0  0
 19 21  1  0  0  0
 21 22  1  0  0  0
 21 23  2  0  0  0
  1  4  1  0  0  0
  1  2  2  0  0  0
  1  3  2  0  0  0
  4  5  2  0  0  0
  4  6  1  0  0  0
  5  7  1  0  0  0
  5  9  1  0  0  0
  6  8  2  0  0  0
  7  8  1  0  0  0
  9 10  1  0  0  0
  9 11  2  0  0  0
 13 14  1  0  0  0
 10 12  1  0  0  0
M  CHG 1  21   1
M  CHG 1  22  -1
M  END
> <minimizedAffinity>
-6.99310

$$$$
1XGI_NST_B_416


 23 24  0  0  0  0  0  0  0  0999 V2000
   81.3098    5.6291   29.9653 S   0  0  0  0  0  0  0  0  0  0  0  0
   81.6186    6.9937   30.3411 O   0  0  0  0  0  0  0  0  0  0  0  0
   82.5162    4.9543   29.6129 O   0  0  0  0  0  0  0  0  0  0  0  0
   80.1780    5.6898   28.4977 C   0  0  0  0  0  0  0  0  0  0  0  0
   78.8265    6.0864   28.4764 C   0  0  0  0  0  0  0  0  0  0  0  0
   80.5400    5.3346   27.1796 C   0  0  0  0  0  0  0  0  0  0  0  0
   78.3562    5.9704   27.1089 S   0  0  0  0  0  0  0  0  0  0  0  0
   79.4332    5.5014   26.3339 C   0  0  0  0  0  0  0  0  0  0  0  0
   78.0086    6.5525   29.6510 C   0  0  0  0  0  0  0  0  0  0  0  0
   77.6447    7.8314   29.7823 O   0  0  0  0  0  0  0  0  0  0  0  0
   77.6782    5.7473   30.5044 O   0  0  0  0  0  0  0  0  0  0  0  0
   77.8935    8.4584   29.1320 H   0  0  0  0  0  0  0  0  0  0  0  0
   80.6173    4.8688   31.3588 N   0  0  0  0  0  0  0  0  0  0  0  0
   79.9512    4.1536   31.2401 H   0  0  0  0  0  0  0  0  0  0  0  0
   80.9924    5.2577   32.6587 C   0  0  0  0  0  0  0  0  0  0  0  0
   80.3001    6.3318   33.3376 C   0  0  0  0  0  0  0  0  0  0  0  0
   82.0639    4.5562   33.2985 C   0  0  0  0  0  0  0  0  0  0  0  0
   80.7009    6.6978   34.6746 C   0  0  0  0  0  0  0  0  0  0  0  0
   82.4666    4.9119   34.6328 C   0  0  0  0  0  0  0  0  0  0  0  0
   81.7789    5.9868   35.3200 C   0  0  0  0  0  0  0  0  0  0  0  0
   83.4885    4.2297   35.2469 N   0  0  0  0  0  0  0  0  0  0  0  0
   84.1195    3.3731   34.6383 O   0  0  0  0  0  0  0  0  0  0  0  0
   83.7758    4.4677   36.4081 O   0  0  0  0  0  0  0  0  0  0  0  0
 13 15  1  0  0  0
 13  1  1  0  0  0
 15 16  2  0  0  0
 15 17  1  0  0  0
 16 18  1  0  0  0
 17 19  2  0  0  0
 18 20  2  0  0  0
 19 20  1  0  0  0
 19 21  1  0  0  0
 21 22  1  0  0  0
 21 23  2  0  0  0
  1  4  1  0  0  0
  1  2  2  0  0  0
  1  3  2  0  0  0
  4  5  2  0  0  0
  4  6  1  0  0  0
  5  7  1  0  0  0
  5  9  1  0  0  0
  6  8  2  0  0  0
  7  8  1  0  0  0
  9 10  1  0  0  0
  9 11  2  0  0  0
 13 14  1  0  0  0
 10 12  1  0  0  0
M  CHG 1  21   1
M  CHG 1  22  -1
M  END
> <minimizedAffinity>
-6.92330

$$$$
1XGI_NST_B_416


 23 24  0  0  0  0  0  0  0  0999 V2000
   81.2123    5.9310   30.5939 S   0  0  0  0  0  0  0  0  0  0  0  0
   81.4911    7.3430   30.7588 O   0  0  0  0  0  0  0  0  0  0  0  0
   82.4429    5.2106   30.5525 O   0  0  0  0  0  0  0  0  0  0  0  0
   80.3106    5.7171   28.9878 C   0  0  0  0  0  0  0  0  0  0  0  0
   78.9506    5.9786   28.7297 C   0  0  0  0  0  0  0  0  0  0  0  0
   80.8914    5.2509   27.7878 C   0  0  0  0  0  0  0  0  0  0  0  0
   78.6998    5.6642   27.3358 S   0  0  0  0  0  0  0  0  0  0  0  0
   79.9134    5.2149   26.7827 C   0  0  0  0  0  0  0  0  0  0  0  0
   77.9332    6.4949   29.7116 C   0  0  0  0  0  0  0  0  0  0  0  0
   77.5411    7.7722   29.7010 O   0  0  0  0  0  0  0  0  0  0  0  0
   77.4630    5.7331   30.5388 O   0  0  0  0  0  0  0  0  0  0  0  0
   77.8964    8.3661   29.0692 H   0  0  0  0  0  0  0  0  0  0  0  0
   80.3061    5.4324   31.9831 N   0  0  0  0  0  0  0  0  0  0  0  0
   79.4464    4.9687   31.8603 H   0  0  0  0  0  0  0  0  0  0  0  0
   80.7802    5.6799   33.2852 C   0  0  0  0  0  0  0  0  0  0  0  0
   81.5752    4.6923   33.9827 C   0  0  0  0  0  0  0  0  0  0  0  0
   80.4706    6.9368   33.8968 C   0  0  0  0  0  0  0  0  0  0  0  0
   82.0565    4.9822   35.3118 C   0  0  0  0  0  0  0  0  0  0  0  0
   80.9504    7.2353   35.2197 C   0  0  0  0  0  0  0  0  0  0  0  0
   81.7468    6.2517   35.9256 C   0  0  0  0  0  0  0  0  0  0  0  0
   80.6594    8.4463   35.7989 N   0  0  0  0  0  0  0  0  0  0  0  0
   79.7761    8.5364   36.6439 O   0  0  0  0  0  0  0  0  0  0  0  0
   81.2763    9.4471   35.4740 O   0  0  0  0  0  0  0  0  0  0  0  0
 13 15  1  0  0  0
 13  1  1  0  0  0
 15 16  2  0  0  0
 15 17  1  0  0  0
 16 18  1  0  0  0
 17 19  2  0  0  0
 18 20  2  0  0  0
 19 20  1  0  0  0
 19 21  1  0  0  0
 21 22  1  0  0  0
 21 23  2  0  0  0
  1  4  1  0  0  0
  1  2  2  0  0  0
  1  3  2  0  0  0
  4  5  2  0  0  0
  4  6  1  0  0  0
  5  7  1  0  0  0
  5  9  1  0  0  0
  6  8  2  0  0  0
  7  8  1  0  0  0
  9 10  1  0  0  0
  9 11  2  0  0  0
 13 14  1  0  0  0
 10 12  1  0  0  0
M  CHG 1  21   1
M  CHG 1  22  -1
M  END
> <minimizedAffinity>
-6.81357

$$$$
1XGI_NST_B_416


 23 24  0  0  0  0  0  0  0  0999 V2000
   81.3915    6.2145   28.6943 S   0  0  0  0  0  0  0  0  0  0  0  0
   80.6171    7.4305   28.8367 O   0  0  0  0  0  0  0  0  0  0  0  0
   82.7650    6.4988   28.9546 O   0  0  0  0  0  0  0  0  0  0  0  0
   81.1977    5.6227   26.9477 C   0  0  0  0  0  0  0  0  0  0  0  0
   80.0828    4.9711   26.3847 C   0  0  0  0  0  0  0  0  0  0  0  0
   82.1725    5.7544   25.9342 C   0  0  0  0  0  0  0  0  0  0  0  0
   80.3884    4.7016   24.9924 S   0  0  0  0  0  0  0  0  0  0  0  0
   81.6841    5.1923   24.7452 C   0  0  0  0  0  0  0  0  0  0  0  0
   78.7998    4.6172   27.0878 C   0  0  0  0  0  0  0  0  0  0  0  0
   78.7660    3.6914   28.0506 O   0  0  0  0  0  0  0  0  0  0  0  0
   77.7685    5.1818   26.7663 O   0  0  0  0  0  0  0  0  0  0  0  0
   79.5531    3.2514   28.3054 H   0  0  0  0  0  0  0  0  0  0  0  0
   80.8038    5.1024   29.8849 N   0  0  0  0  0  0  0  0  0  0  0  0
   80.3917    4.2562   29.5962 H   0  0  0  0  0  0  0  0  0  0  0  0
   80.9064    5.3900   31.2590 C   0  0  0  0  0  0  0  0  0  0  0  0
   79.8465    6.0940   31.9480 C   0  0  0  0  0  0  0  0  0  0  0  0
   82.0762    4.9566   31.9615 C   0  0  0  0  0  0  0  0  0  0  0  0
   79.9769    6.3623   33.3599 C   0  0  0  0  0  0  0  0  0  0  0  0
   82.2119    5.2162   33.3699 C   0  0  0  0  0  0  0  0  0  0  0  0
   81.1553    5.9211   34.0678 C   0  0  0  0  0  0  0  0  0  0  0  0
   83.3312    4.7900   34.0422 N   0  0  0  0  0  0  0  0  0  0  0  0
   83.5227    3.5954   34.2387 O   0  0  0  0  0  0  0  0  0  0  0  0
   84.1456    5.5988   34.4548 O   0  0  0  0  0  0  0  0  0  0  0  0
 13 15  1  0  0  0
 13  1  1  0  0  0
 15 16  2  0  0  0
 15 17  1  0  0  0
 16 18  1  0  0  0
 17 19  2  0  0  0
 18 20  2  0  0  0
 19 20  1  0  0  0
 19 21  1  0  0  0
 21 22  1  0  0  0
 21 23  2  0  0  0
  1  4  1  0  0  0
  1  2  2  0  0  0
  1  3  2  0  0  0
  4  5  2  0  0  0
  4  6  1  0  0  0
  5  7  1  0  0  0
  5  9  1  0  0  0
  6  8  2  0  0  0
  7  8  1  0  0  0
  9 10  1  0  0  0
  9 11  2  0  0  0
 13 14  1  0  0  0
 10 12  1  0  0  0
M  CHG 1  21   1
M  CHG 1  22  -1
M  END
> <minimizedAffinity>
-6.76103

$$$$
