5K0M_6PU_A_501


 34 38  0  0  0  0  0  0  0  0999 V2000
  -16.1380  -25.1551   21.6388 N   0  0  0  0  0  0  0  0  0  0  0  0
  -16.7751  -23.9625   22.2083 C   0  0  0  0  0  0  0  0  0  0  0  0
  -18.0102  -24.5036   22.9352 C   0  0  0  0  0  0  0  0  0  0  0  0
  -17.2923  -25.7983   20.9887 C   0  0  0  0  0  0  0  0  0  0  0  0
  -18.3542  -25.7690   22.0826 C   0  0  0  0  0  0  0  0  0  0  0  0
  -14.9977  -24.8541   20.7429 C   0  0  0  0  0  0  0  0  0  0  0  0
  -12.8998  -25.2907   21.7733 C   0  0  0  0  0  0  0  0  0  0  0  0
  -11.7879  -26.0377   22.1521 C   0  0  0  0  0  0  0  0  0  0  0  0
  -11.6141  -27.3297   21.6826 C   0  0  0  0  0  0  0  0  0  0  0  0
  -13.6518  -27.1381   20.4982 C   0  0  0  0  0  0  0  0  0  0  0  0
  -14.5897  -27.7024   19.7111 F   0  0  0  0  0  0  0  0  0  0  0  0
  -12.5560  -27.8898   20.8401 C   0  0  0  0  0  0  0  0  0  0  0  0
  -13.8731  -25.8421   20.9380 C   0  0  0  0  0  0  0  0  0  0  0  0
  -13.2451  -23.8644   22.1052 C   0  0  0  0  0  0  0  0  0  0  0  0
  -14.2831  -23.5230   21.0279 C   0  0  0  0  0  0  0  0  0  0  0  0
  -17.7676  -24.8129   24.4003 C   0  0  0  0  0  0  0  0  0  0  0  0
  -16.4773  -24.9285   24.9016 C   0  0  0  0  0  0  0  0  0  0  0  0
  -16.2482  -25.1898   26.2384 C   0  0  0  0  0  0  0  0  0  0  0  0
  -18.6145  -25.2103   26.6257 C   0  0  0  0  0  0  0  0  0  0  0  0
  -18.8280  -24.9697   25.2785 C   0  0  0  0  0  0  0  0  0  0  0  0
  -17.3134  -25.3234   27.1321 C   0  0  0  0  0  0  0  0  0  0  0  0
  -16.2603  -26.2253   31.1610 N   0  0  0  0  0  0  0  0  0  0  0  0
  -16.1238  -24.8363   30.6729 C   0  0  0  0  0  0  0  0  0  0  0  0
  -17.0047  -26.9143   28.9378 C   0  0  0  0  0  0  0  0  0  0  0  0
  -17.0726  -25.5171   28.5120 N   0  0  0  0  0  0  0  0  0  0  0  0
  -17.2569  -27.0208   30.4176 C   0  0  0  0  0  0  0  0  0  0  0  0
  -15.9686  -24.8104   29.1649 C   0  0  0  0  0  0  0  0  0  0  0  0
  -15.5821  -26.6370   32.5889 S   0  0  0  0  0  0  0  0  0  0  0  0
  -14.9687  -25.4534   33.0988 O   0  0  0  0  0  0  0  0  0  0  0  0
  -16.8677  -27.0965   33.6830 C   0  0  0  0  0  0  0  0  0  0  0  0
  -14.7648  -27.7814   32.3490 O   0  0  0  0  0  0  0  0  0  0  0  0
  -19.7423  -25.7439   21.5791 N   0  0  0  0  0  0  0  0  0  0  0  0
  -20.6851  -26.5134   22.3970 C   0  0  0  0  0  0  0  0  0  0  0  0
  -20.2282  -24.3706   21.3566 C   0  0  0  0  0  0  0  0  0  0  0  0
 11 10  1  0  0  0
 12 10  2  0  0  0
 12  9  1  0  0  0
 10 13  1  0  0  0
  9  8  2  0  0  0
 33 32  1  0  0  0
 13  6  1  0  0  0
 13  7  2  0  0  0
  6 15  1  0  0  0
  6  1  1  0  0  0
  4  1  1  0  0  0
  4  5  1  0  0  0
  8  7  1  0  0  0
 32  5  1  0  0  0
 32 34  1  0  0  0
  7 14  1  0  0  0
 15 14  1  0  0  0
  1  2  1  0  0  0
  5  3  1  0  0  0
  2  3  1  0  0  0
  3 16  1  0  0  0
 16 17  2  0  0  0
 16 20  1  0  0  0
 17 18  1  0  0  0
 20 19  2  0  0  0
 18 21  2  0  0  0
 19 21  1  0  0  0
 21 25  1  0  0  0
 25 24  1  0  0  0
 25 27  1  0  0  0
 24 26  1  0  0  0
 27 23  1  0  0  0
 26 22  1  0  0  0
 23 22  1  0  0  0
 22 28  1  0  0  0
 28 30  1  0  0  0
 28 31  2  0  0  0
 28 29  2  0  0  0
M  END
> <minimizedAffinity>
-10.95440

$$$$
5K0M_6PU_A_501


 34 38  0  0  0  0  0  0  0  0999 V2000
  -15.8013  -24.7169   22.2651 N   0  0  0  0  0  0  0  0  0  0  0  0
  -16.4509  -23.5201   22.8113 C   0  0  0  0  0  0  0  0  0  0  0  0
  -17.7032  -24.0555   23.5123 C   0  0  0  0  0  0  0  0  0  0  0  0
  -16.9403  -25.3638   21.5922 C   0  0  0  0  0  0  0  0  0  0  0  0
  -18.0279  -25.3265   22.6604 C   0  0  0  0  0  0  0  0  0  0  0  0
  -14.6398  -24.4227   21.3946 C   0  0  0  0  0  0  0  0  0  0  0  0
  -12.7527  -25.7702   21.9203 C   0  0  0  0  0  0  0  0  0  0  0  0
  -11.9111  -26.8775   21.8609 C   0  0  0  0  0  0  0  0  0  0  0  0
  -12.1433  -27.8905   20.9444 C   0  0  0  0  0  0  0  0  0  0  0  0
  -14.0497  -26.7178   20.1812 C   0  0  0  0  0  0  0  0  0  0  0  0
  -15.1282  -26.6640   19.3741 F   0  0  0  0  0  0  0  0  0  0  0  0
  -13.2254  -27.8108   20.0880 C   0  0  0  0  0  0  0  0  0  0  0  0
  -13.8620  -25.6771   21.0778 C   0  0  0  0  0  0  0  0  0  0  0  0
  -12.6460  -24.5397   22.7794 C   0  0  0  0  0  0  0  0  0  0  0  0
  -13.5522  -23.5475   22.0385 C   0  0  0  0  0  0  0  0  0  0  0  0
  -17.4958  -24.3551   24.9848 C   0  0  0  0  0  0  0  0  0  0  0  0
  -16.4499  -25.1653   25.4082 C   0  0  0  0  0  0  0  0  0  0  0  0
  -16.2424  -25.4262   26.7487 C   0  0  0  0  0  0  0  0  0  0  0  0
  -18.1264  -24.0468   27.2945 C   0  0  0  0  0  0  0  0  0  0  0  0
  -18.3344  -23.8125   25.9454 C   0  0  0  0  0  0  0  0  0  0  0  0
  -17.0697  -24.8610   27.7220 C   0  0  0  0  0  0  0  0  0  0  0  0
  -16.0679  -25.8962   31.7319 N   0  0  0  0  0  0  0  0  0  0  0  0
  -15.5738  -24.6205   31.1708 C   0  0  0  0  0  0  0  0  0  0  0  0
  -17.1133  -26.4148   29.5849 C   0  0  0  0  0  0  0  0  0  0  0  0
  -16.8087  -25.0710   29.0958 N   0  0  0  0  0  0  0  0  0  0  0  0
  -17.2932  -26.3973   31.0789 C   0  0  0  0  0  0  0  0  0  0  0  0
  -15.5114  -24.6885   29.6574 C   0  0  0  0  0  0  0  0  0  0  0  0
  -15.4472  -26.4384   33.1421 S   0  0  0  0  0  0  0  0  0  0  0  0
  -14.4532  -27.4037   32.7992 O   0  0  0  0  0  0  0  0  0  0  0  0
  -14.6502  -25.0957   33.9313 C   0  0  0  0  0  0  0  0  0  0  0  0
  -16.5471  -26.8484   33.9529 O   0  0  0  0  0  0  0  0  0  0  0  0
  -19.4036  -25.3038   22.1239 N   0  0  0  0  0  0  0  0  0  0  0  0
  -19.7114  -24.1119   21.3274 C   0  0  0  0  0  0  0  0  0  0  0  0
  -19.7332  -26.5365   21.3865 C   0  0  0  0  0  0  0  0  0  0  0  0
 11 10  1  0  0  0
 12 10  2  0  0  0
 12  9  1  0  0  0
 10 13  1  0  0  0
  9  8  2  0  0  0
 33 32  1  0  0  0
 13  6  1  0  0  0
 13  7  2  0  0  0
  6 15  1  0  0  0
  6  1  1  0  0  0
  4  1  1  0  0  0
  4  5  1  0  0  0
  8  7  1  0  0  0
 32  5  1  0  0  0
 32 34  1  0  0  0
  7 14  1  0  0  0
 15 14  1  0  0  0
  1  2  1  0  0  0
  5  3  1  0  0  0
  2  3  1  0  0  0
  3 16  1  0  0  0
 16 17  2  0  0  0
 16 20  1  0  0  0
 17 18  1  0  0  0
 20 19  2  0  0  0
 18 21  2  0  0  0
 19 21  1  0  0  0
 21 25  1  0  0  0
 25 24  1  0  0  0
 25 27  1  0  0  0
 24 26  1  0  0  0
 27 23  1  0  0  0
 26 22  1  0  0  0
 23 22  1  0  0  0
 22 28  1  0  0  0
 28 30  1  0  0  0
 28 31  2  0  0  0
 28 29  2  0  0  0
M  END
> <minimizedAffinity>
-10.52424

$$$$
5K0M_6PU_A_501


 34 38  0  0  0  0  0  0  0  0999 V2000
  -16.0677  -24.6300   22.3801 N   0  0  0  0  0  0  0  0  0  0  0  0
  -16.3937  -23.5853   23.3574 C   0  0  0  0  0  0  0  0  0  0  0  0
  -17.6865  -24.0745   24.0176 C   0  0  0  0  0  0  0  0  0  0  0  0
  -17.3644  -24.7820   21.6989 C   0  0  0  0  0  0  0  0  0  0  0  0
  -18.3441  -24.8980   22.8617 C   0  0  0  0  0  0  0  0  0  0  0  0
  -14.9287  -24.2888   21.4971 C   0  0  0  0  0  0  0  0  0  0  0  0
  -13.0340  -25.6698   21.8927 C   0  0  0  0  0  0  0  0  0  0  0  0
  -12.1990  -26.7740   21.7464 C   0  0  0  0  0  0  0  0  0  0  0  0
  -12.4601  -27.7314   20.7793 C   0  0  0  0  0  0  0  0  0  0  0  0
  -14.3811  -26.5110   20.1371 C   0  0  0  0  0  0  0  0  0  0  0  0
  -15.4805  -26.4074   19.3638 F   0  0  0  0  0  0  0  0  0  0  0  0
  -13.5643  -27.5990   19.9584 C   0  0  0  0  0  0  0  0  0  0  0  0
  -14.1650  -25.5248   21.0872 C   0  0  0  0  0  0  0  0  0  0  0  0
  -12.8990  -24.4916   22.8186 C   0  0  0  0  0  0  0  0  0  0  0  0
  -13.8204  -23.4555   22.1613 C   0  0  0  0  0  0  0  0  0  0  0  0
  -17.4571  -24.8852   25.2789 C   0  0  0  0  0  0  0  0  0  0  0  0
  -18.5209  -25.4654   25.9582 C   0  0  0  0  0  0  0  0  0  0  0  0
  -18.3181  -26.2219   27.0960 C   0  0  0  0  0  0  0  0  0  0  0  0
  -15.9563  -25.8562   26.9013 C   0  0  0  0  0  0  0  0  0  0  0  0
  -16.1780  -25.0822   25.7743 C   0  0  0  0  0  0  0  0  0  0  0  0
  -17.0285  -26.4442   27.5845 C   0  0  0  0  0  0  0  0  0  0  0  0
  -16.8705  -28.9513   31.0260 N   0  0  0  0  0  0  0  0  0  0  0  0
  -16.3416  -29.4556   29.7407 C   0  0  0  0  0  0  0  0  0  0  0  0
  -17.5256  -26.8729   29.9203 C   0  0  0  0  0  0  0  0  0  0  0  0
  -16.8200  -27.2798   28.7060 N   0  0  0  0  0  0  0  0  0  0  0  0
  -16.8700  -27.4790   31.1318 C   0  0  0  0  0  0  0  0  0  0  0  0
  -16.9830  -28.7292   28.5746 C   0  0  0  0  0  0  0  0  0  0  0  0
  -17.0909  -29.9975   32.2610 S   0  0  0  0  0  0  0  0  0  0  0  0
  -17.7920  -29.2794   33.2759 O   0  0  0  0  0  0  0  0  0  0  0  0
  -18.1276  -31.2881   31.6948 C   0  0  0  0  0  0  0  0  0  0  0  0
  -15.8135  -30.5505   32.5734 O   0  0  0  0  0  0  0  0  0  0  0  0
  -19.7110  -24.4332   22.5511 N   0  0  0  0  0  0  0  0  0  0  0  0
  -19.7865  -23.5449   21.3870 C   0  0  0  0  0  0  0  0  0  0  0  0
  -20.6643  -25.5505   22.4309 C   0  0  0  0  0  0  0  0  0  0  0  0
 11 10  1  0  0  0
 12 10  2  0  0  0
 12  9  1  0  0  0
 10 13  1  0  0  0
  9  8  2  0  0  0
 33 32  1  0  0  0
 13  6  1  0  0  0
 13  7  2  0  0  0
  6 15  1  0  0  0
  6  1  1  0  0  0
  4  1  1  0  0  0
  4  5  1  0  0  0
  8  7  1  0  0  0
 32  5  1  0  0  0
 32 34  1  0  0  0
  7 14  1  0  0  0
 15 14  1  0  0  0
  1  2  1  0  0  0
  5  3  1  0  0  0
  2  3  1  0  0  0
  3 16  1  0  0  0
 16 17  2  0  0  0
 16 20  1  0  0  0
 17 18  1  0  0  0
 20 19  2  0  0  0
 18 21  2  0  0  0
 19 21  1  0  0  0
 21 25  1  0  0  0
 25 24  1  0  0  0
 25 27  1  0  0  0
 24 26  1  0  0  0
 27 23  1  0  0  0
 26 22  1  0  0  0
 23 22  1  0  0  0
 22 28  1  0  0  0
 28 30  1  0  0  0
 28 31  2  0  0  0
 28 29  2  0  0  0
M  END
> <minimizedAffinity>
-10.33448

$$$$
5K0M_6PU_A_501


 34 38  0  0  0  0  0  0  0  0999 V2000
  -18.1508  -25.0264   23.5694 N   0  0  0  0  0  0  0  0  0  0  0  0
  -18.8289  -24.2375   24.6041 C   0  0  0  0  0  0  0  0  0  0  0  0
  -19.7196  -25.2507   25.3299 C   0  0  0  0  0  0  0  0  0  0  0  0
  -19.2952  -25.7337   22.9704 C   0  0  0  0  0  0  0  0  0  0  0  0
  -20.0322  -26.2756   24.1904 C   0  0  0  0  0  0  0  0  0  0  0  0
  -17.3494  -24.2131   22.6262 C   0  0  0  0  0  0  0  0  0  0  0  0
  -15.0973  -24.9610   22.4768 C   0  0  0  0  0  0  0  0  0  0  0  0
  -14.0227  -25.7071   22.0008 C   0  0  0  0  0  0  0  0  0  0  0  0
  -14.1754  -26.5431   20.9064 C   0  0  0  0  0  0  0  0  0  0  0  0
  -16.4528  -25.9174   20.7879 C   0  0  0  0  0  0  0  0  0  0  0  0
  -17.6617  -26.0560   20.2075 F   0  0  0  0  0  0  0  0  0  0  0  0
  -15.4061  -26.6493   20.2861 C   0  0  0  0  0  0  0  0  0  0  0  0
  -16.3539  -25.0661   21.8777 C   0  0  0  0  0  0  0  0  0  0  0  0
  -15.1346  -23.9523   23.5925 C   0  0  0  0  0  0  0  0  0  0  0  0
  -16.4238  -23.1784   23.2868 C   0  0  0  0  0  0  0  0  0  0  0  0
  -19.0615  -25.8811   26.5424 C   0  0  0  0  0  0  0  0  0  0  0  0
  -17.7621  -25.5485   26.9035 C   0  0  0  0  0  0  0  0  0  0  0  0
  -17.1632  -26.1029   28.0179 C   0  0  0  0  0  0  0  0  0  0  0  0
  -19.1690  -27.3393   28.4632 C   0  0  0  0  0  0  0  0  0  0  0  0
  -19.7477  -26.7913   27.3306 C   0  0  0  0  0  0  0  0  0  0  0  0
  -17.8598  -27.0014   28.8295 C   0  0  0  0  0  0  0  0  0  0  0  0
  -15.6681  -28.5276   32.1494 N   0  0  0  0  0  0  0  0  0  0  0  0
  -16.4082  -27.2561   32.2962 C   0  0  0  0  0  0  0  0  0  0  0  0
  -16.3709  -28.6459   29.8119 C   0  0  0  0  0  0  0  0  0  0  0  0
  -17.2691  -27.5092   30.0096 N   0  0  0  0  0  0  0  0  0  0  0  0
  -16.2082  -29.4112   31.0975 C   0  0  0  0  0  0  0  0  0  0  0  0
  -16.6125  -26.5954   30.9469 C   0  0  0  0  0  0  0  0  0  0  0  0
  -14.5929  -28.9598   33.3006 S   0  0  0  0  0  0  0  0  0  0  0  0
  -15.0419  -28.3600   34.5155 O   0  0  0  0  0  0  0  0  0  0  0  0
  -14.6761  -30.6971   33.4901 C   0  0  0  0  0  0  0  0  0  0  0  0
  -13.2966  -28.6222   32.8100 O   0  0  0  0  0  0  0  0  0  0  0  0
  -21.4831  -26.4622   23.9884 N   0  0  0  0  0  0  0  0  0  0  0  0
  -22.3166  -25.6551   24.8849 C   0  0  0  0  0  0  0  0  0  0  0  0
  -21.8774  -26.2732   22.5811 C   0  0  0  0  0  0  0  0  0  0  0  0
 11 10  1  0  0  0
 12 10  2  0  0  0
 12  9  1  0  0  0
 10 13  1  0  0  0
  9  8  2  0  0  0
 33 32  1  0  0  0
 13  6  1  0  0  0
 13  7  2  0  0  0
  6 15  1  0  0  0
  6  1  1  0  0  0
  4  1  1  0  0  0
  4  5  1  0  0  0
  8  7  1  0  0  0
 32  5  1  0  0  0
 32 34  1  0  0  0
  7 14  1  0  0  0
 15 14  1  0  0  0
  1  2  1  0  0  0
  5  3  1  0  0  0
  2  3  1  0  0  0
  3 16  1  0  0  0
 16 17  2  0  0  0
 16 20  1  0  0  0
 17 18  1  0  0  0
 20 19  2  0  0  0
 18 21  2  0  0  0
 19 21  1  0  0  0
 21 25  1  0  0  0
 25 24  1  0  0  0
 25 27  1  0  0  0
 24 26  1  0  0  0
 27 23  1  0  0  0
 26 22  1  0  0  0
 23 22  1  0  0  0
 22 28  1  0  0  0
 28 30  1  0  0  0
 28 31  2  0  0  0
 28 29  2  0  0  0
M  END
> <minimizedAffinity>
-8.00834

$$$$
5K0M_6PU_A_501


 34 38  0  0  0  0  0  0  0  0999 V2000
  -22.8018  -25.3193   24.0565 N   0  0  0  0  0  0  0  0  0  0  0  0
  -22.6140  -25.5144   22.6145 C   0  0  0  0  0  0  0  0  0  0  0  0
  -21.7886  -24.3019   22.1727 C   0  0  0  0  0  0  0  0  0  0  0  0
  -23.2635  -23.9213   24.0859 C   0  0  0  0  0  0  0  0  0  0  0  0
  -22.2476  -23.2123   23.1968 C   0  0  0  0  0  0  0  0  0  0  0  0
  -23.7216  -26.2995   24.6781 C   0  0  0  0  0  0  0  0  0  0  0  0
  -22.6069  -28.2949   25.3332 C   0  0  0  0  0  0  0  0  0  0  0  0
  -21.8949  -29.1508   26.1689 C   0  0  0  0  0  0  0  0  0  0  0  0
  -21.6344  -28.7968   27.4830 C   0  0  0  0  0  0  0  0  0  0  0  0
  -22.7555  -26.7469   27.1182 C   0  0  0  0  0  0  0  0  0  0  0  0
  -23.1443  -25.5425   27.5828 F   0  0  0  0  0  0  0  0  0  0  0  0
  -22.0730  -27.5794   27.9691 C   0  0  0  0  0  0  0  0  0  0  0  0
  -23.0438  -27.0527   25.7970 C   0  0  0  0  0  0  0  0  0  0  0  0
  -23.0550  -28.5079   23.9128 C   0  0  0  0  0  0  0  0  0  0  0  0
  -24.1580  -27.4523   23.7591 C   0  0  0  0  0  0  0  0  0  0  0  0
  -20.2917  -24.5469   22.1851 C   0  0  0  0  0  0  0  0  0  0  0  0
  -19.4362  -23.7055   22.8850 C   0  0  0  0  0  0  0  0  0  0  0  0
  -18.0744  -23.9337   22.9178 C   0  0  0  0  0  0  0  0  0  0  0  0
  -18.3822  -25.8822   21.5544 C   0  0  0  0  0  0  0  0  0  0  0  0
  -19.7429  -25.6274   21.5131 C   0  0  0  0  0  0  0  0  0  0  0  0
  -17.5196  -25.0359   22.2630 C   0  0  0  0  0  0  0  0  0  0  0  0
  -13.2863  -25.5179   22.2268 N   0  0  0  0  0  0  0  0  0  0  0  0
  -13.9595  -25.1443   23.4892 C   0  0  0  0  0  0  0  0  0  0  0  0
  -15.4447  -25.4679   21.0821 C   0  0  0  0  0  0  0  0  0  0  0  0
  -16.1353  -25.3069   22.3608 N   0  0  0  0  0  0  0  0  0  0  0  0
  -14.1615  -26.2301   21.2752 C   0  0  0  0  0  0  0  0  0  0  0  0
  -15.2869  -24.4673   23.2093 C   0  0  0  0  0  0  0  0  0  0  0  0
  -11.6594  -25.4087   22.1303 S   0  0  0  0  0  0  0  0  0  0  0  0
  -11.3807  -24.2811   21.3007 O   0  0  0  0  0  0  0  0  0  0  0  0
  -11.0466  -25.0678   23.7332 C   0  0  0  0  0  0  0  0  0  0  0  0
  -11.1775  -26.6896   21.7272 O   0  0  0  0  0  0  0  0  0  0  0  0
  -22.7667  -22.0012   22.5301 N   0  0  0  0  0  0  0  0  0  0  0  0
  -23.1365  -20.9256   23.4554 C   0  0  0  0  0  0  0  0  0  0  0  0
  -21.8559  -21.5107   21.4805 C   0  0  0  0  0  0  0  0  0  0  0  0
 11 10  1  0  0  0
 12 10  2  0  0  0
 12  9  1  0  0  0
 10 13  1  0  0  0
  9  8  2  0  0  0
 33 32  1  0  0  0
 13  6  1  0  0  0
 13  7  2  0  0  0
  6 15  1  0  0  0
  6  1  1  0  0  0
  4  1  1  0  0  0
  4  5  1  0  0  0
  8  7  1  0  0  0
 32  5  1  0  0  0
 32 34  1  0  0  0
  7 14  1  0  0  0
 15 14  1  0  0  0
  1  2  1  0  0  0
  5  3  1  0  0  0
  2  3  1  0  0  0
  3 16  1  0  0  0
 16 17  2  0  0  0
 16 20  1  0  0  0
 17 18  1  0  0  0
 20 19  2  0  0  0
 18 21  2  0  0  0
 19 21  1  0  0  0
 21 25  1  0  0  0
 25 24  1  0  0  0
 25 27  1  0  0  0
 24 26  1  0  0  0
 27 23  1  0  0  0
 26 22  1  0  0  0
 23 22  1  0  0  0
 22 28  1  0  0  0
 28 30  1  0  0  0
 28 31  2  0  0  0
 28 29  2  0  0  0
M  END
> <minimizedAffinity>
-7.98996

$$$$
