2XN5_FUN_A_1356
  RCSB PDB12061707283D
Coordinates from PDB:2XN5:A:1356 Model:1 without hydrogens
 21 22  0  0  0  0            999 V2000
  -13.4550  -16.2240    8.7700   N 0  0  0  0  0  0  0  0  0  0  0  0
  -12.8680  -17.1600    7.7040   S 0  0  0  0  0  0  0  0  0  0  0  0
  -12.5820  -18.4340    8.3890   O 0  0  0  0  0  0  0  0  0  0  0  0
  -13.8290  -17.3080    6.6020   O 0  0  0  0  0  0  0  0  0  0  0  0
  -11.4940  -16.4860    7.1550   C 0  0  0  0  0  0  0  0  0  0  0  0
  -11.4840  -15.4150    6.2670   C 0  0  0  0  0  0  0  0  0  0  0  0
  -12.9700  -14.6510    5.6370  Cl 0  0  0  0  0  0  0  0  0  0  0  0
  -10.2950  -14.8550    5.8130   C 0  0  0  0  0  0  0  0  0  0  0  0
   -9.0590  -15.3520    6.2260   C 0  0  0  0  0  0  0  0  0  0  0  0
   -7.8990  -14.7940    5.7840   N 0  0  0  0  0  0  0  0  0  0  0  0
   -7.8170  -13.6250    4.9220   C 0  0  0  0  0  0  0  0  0  0  0  0
   -7.9260  -13.9630    3.4530   C 0  0  0  0  0  0  0  0  0  0  0  0
   -8.3780  -15.1480    2.8900   C 0  0  0  0  0  0  0  0  0  0  0  0
   -8.3170  -15.0250    1.5160   C 0  0  0  0  0  0  0  0  0  0  0  0
   -7.8310  -13.7690    1.2320   C 0  0  0  0  0  0  0  0  0  0  0  0
   -7.5960  -13.1220    2.4260   O 0  0  0  0  0  0  0  0  0  0  0  0
   -9.0430  -16.4340    7.1210   C 0  0  0  0  0  0  0  0  0  0  0  0
  -10.2560  -16.9810    7.5650   C 0  0  0  0  0  0  0  0  0  0  0  0
   -7.7600  -17.0170    7.6540   C 0  0  0  0  0  0  0  0  0  0  0  0
   -7.7810  -17.8170    8.6330   O 0  0  0  0  0  0  0  0  0  0  0  0
   -6.6770  -16.6440    7.1500   O 0  0  0  0  0  0  0  0  0  0  0  0
  1  2  1  0  0  0  0
  2  3  2  0  0  0  0
  2  4  2  0  0  0  0
  2  5  1  0  0  0  0
  5  6  2  0  0  0  0
  5 18  1  0  0  0  0
  6  7  1  0  0  0  0
  6  8  1  0  0  0  0
  8  9  2  0  0  0  0
  9 10  1  0  0  0  0
  9 17  1  0  0  0  0
 10 11  1  0  0  0  0
 11 12  1  0  0  0  0
 12 13  2  0  0  0  0
 12 16  1  0  0  0  0
 13 14  1  0  0  0  0
 14 15  2  0  0  0  0
 15 16  1  0  0  0  0
 17 18  2  0  0  0  0
 17 19  1  0  0  0  0
 19 20  1  0  0  0  0
 19 21  2  0  0  0  0
A    1
N1
A    2
S1
A    3
O1
A    4
O2
A    5
C1
A    6
C2
A    7
CL1
A    8
C3
A    9
C4
A   10
N2
A   11
C5
A   12
C6
A   13
C7
A   14
C8
A   15
C9
A   16
O3
A   17
C10
A   18
C11
A   19
C12
A   20
O4
A   21
O5
M  END
>  <InstanceId>
2XN5_FUN_A_1356

>  <ChemCompId>
FUN

>  <PdbId>
2XN5

>  <ChainId>
A

>  <ResidueNumber>
1356

>  <InsertionCode>


>  <Model>
1

>  <AltIds>


>  <MissingHeavyAtoms>
0

>  <ObservedFormula>
C12 N2 O5 S Cl

>  <Name>
5-(AMINOSULFONYL)-4-CHLORO-2-[(2-FURYLMETHYL)AMINO]BENZOIC ACID

>  <SystematicName>
4-chloro-2-(furan-2-ylmethylamino)-5-sulfamoyl-benzoic acid

>  <Synonyms>
Furosemide

>  <Type>
NON-POLYMER

>  <Formula>
C12 H11 Cl N2 O5 S

>  <MolecularWeight>
330.744

>  <ModifiedDate>
2011-06-04

>  <Parent>


>  <OneLetterCode>


>  <SubcomponentList>


>  <AmbiguousFlag>
N

>  <InChI>
InChI=1S/C12H11ClN2O5S/c13-9-5-10(15-6-7-2-1-3-20-7)8(12(16)17)4-11(9)21(14,18)19/h1-5,15H,6H2,(H,16,17)(H2,14,18,19)

>  <InChIKey>
ZZUFCTLCJUWOSV-UHFFFAOYSA-N

>  <SMILES>
c1cc(oc1)CNc2cc(c(cc2C(=O)O)S(=O)(=O)N)Cl

$$$$
