1F4E_TPR_A_301


 19 20  0  0  0  0  0  0  0  0999 V2000
   37.3929   59.4365   81.8393 S   0  0  0  0  0  0  0  0  0  0  0  0
   38.4299   60.1957   82.7631 O   0  0  0  0  0  0  0  0  0  0  0  0
   37.3284   57.9105   82.2666 O   0  0  0  0  0  0  0  0  0  0  0  0
   37.7927   60.8306   78.0947 C   0  0  0  0  0  0  0  0  0  0  0  0
   38.4982   59.8063   77.4521 C   0  0  0  0  0  0  0  0  0  0  0  0
   38.8650   58.6620   78.1767 C   0  0  0  0  0  0  0  0  0  0  0  0
   38.5378   58.5299   79.5317 C   0  0  0  0  0  0  0  0  0  0  0  0
   37.8490   59.5671   80.1487 C   0  0  0  0  0  0  0  0  0  0  0  0
   37.4660   60.7059   79.4467 C   0  0  0  0  0  0  0  0  0  0  0  0
   38.8840   59.9045   75.9805 C   0  0  0  0  0  0  0  0  0  0  0  0
   35.8270   60.1929   82.1114 N   0  0  0  0  0  0  0  0  0  0  0  0
   34.6733   59.2783   82.0369 C   0  0  0  0  0  0  0  0  0  0  0  0
   34.0007   59.4246   83.3911 C   0  0  0  0  0  0  0  0  0  0  0  0
   34.3171   60.8579   83.8135 C   0  0  0  0  0  0  0  0  0  0  0  0
   35.6996   61.1697   83.1987 C   0  0  0  0  0  0  0  0  0  0  0  0
   35.9469   62.6232   82.7432 C   0  0  0  0  0  0  0  0  0  0  0  0
   37.0026   62.9790   82.2090 O   0  0  0  0  0  0  0  0  0  0  0  0
   34.9432   63.5311   82.9345 O   0  0  0  0  0  0  0  0  0  0  0  0
   34.1413   63.2646   83.3393 H   0  0  0  0  0  0  0  0  0  0  0  0
  4  5  2  0  0  0
  4  9  1  0  0  0
  5  6  1  0  0  0
  5 10  1  0  0  0
  6  7  2  0  0  0
  7  8  1  0  0  0
  8  9  2  0  0  0
  8  1  1  0  0  0
  1  2  2  0  0  0
  1  3  2  0  0  0
  1 11  1  0  0  0
 11 12  1  0  0  0
 11 15  1  0  0  0
 12 13  1  0  0  0
 13 14  1  0  0  0
 14 15  1  0  0  0
 15 16  1  0  0  0
 16 17  2  0  0  0
 16 18  1  0  0  0
 18 19  1  0  0  0
M  END
> <minimizedAffinity>
-7.37683

$$$$
1F4E_TPR_A_301


 19 20  0  0  0  0  0  0  0  0999 V2000
   34.9952   60.4993   80.8732 S   0  0  0  0  0  0  0  0  0  0  0  0
   33.5512   60.6707   80.2482 O   0  0  0  0  0  0  0  0  0  0  0  0
   35.4495   61.8702   81.5286 O   0  0  0  0  0  0  0  0  0  0  0  0
   37.9887   60.5965   78.1984 C   0  0  0  0  0  0  0  0  0  0  0  0
   37.9776   59.3011   77.6678 C   0  0  0  0  0  0  0  0  0  0  0  0
   37.0370   58.3717   78.1373 C   0  0  0  0  0  0  0  0  0  0  0  0
   36.1113   58.7194   79.1285 C   0  0  0  0  0  0  0  0  0  0  0  0
   36.1526   60.0077   79.6477 C   0  0  0  0  0  0  0  0  0  0  0  0
   37.0697   60.9484   79.1892 C   0  0  0  0  0  0  0  0  0  0  0  0
   38.9685   58.8709   76.5919 C   0  0  0  0  0  0  0  0  0  0  0  0
   34.8616   59.2640   82.1200 N   0  0  0  0  0  0  0  0  0  0  0  0
   35.8045   59.4101   83.2436 C   0  0  0  0  0  0  0  0  0  0  0  0
   34.9076   59.5007   84.4664 C   0  0  0  0  0  0  0  0  0  0  0  0
   33.6747   58.6824   84.0879 C   0  0  0  0  0  0  0  0  0  0  0  0
   33.5234   58.8537   82.5600 C   0  0  0  0  0  0  0  0  0  0  0  0
   32.9686   57.6460   81.7759 C   0  0  0  0  0  0  0  0  0  0  0  0
   33.0745   56.4853   82.1857 O   0  0  0  0  0  0  0  0  0  0  0  0
   32.3281   57.8928   80.5939 O   0  0  0  0  0  0  0  0  0  0  0  0
   32.2460   58.7718   80.2801 H   0  0  0  0  0  0  0  0  0  0  0  0
  4  5  2  0  0  0
  4  9  1  0  0  0
  5  6  1  0  0  0
  5 10  1  0  0  0
  6  7  2  0  0  0
  7  8  1  0  0  0
  8  9  2  0  0  0
  8  1  1  0  0  0
  1  2  2  0  0  0
  1  3  2  0  0  0
  1 11  1  0  0  0
 11 12  1  0  0  0
 11 15  1  0  0  0
 12 13  1  0  0  0
 13 14  1  0  0  0
 14 15  1  0  0  0
 15 16  1  0  0  0
 16 17  2  0  0  0
 16 18  1  0  0  0
 18 19  1  0  0  0
M  END
> <minimizedAffinity>
-7.33975

$$$$
1F4E_TPR_A_301


 19 20  0  0  0  0  0  0  0  0999 V2000
   36.7761   61.1230   81.2715 S   0  0  0  0  0  0  0  0  0  0  0  0
   36.8796   62.6933   81.1020 O   0  0  0  0  0  0  0  0  0  0  0  0
   37.5062   60.6905   82.6115 O   0  0  0  0  0  0  0  0  0  0  0  0
   38.6700   58.3700   79.0446 C   0  0  0  0  0  0  0  0  0  0  0  0
   38.7070   58.9630   77.7770 C   0  0  0  0  0  0  0  0  0  0  0  0
   38.1387   60.2327   77.5930 C   0  0  0  0  0  0  0  0  0  0  0  0
   37.5343   60.9141   78.6563 C   0  0  0  0  0  0  0  0  0  0  0  0
   37.4993   60.2972   79.9010 C   0  0  0  0  0  0  0  0  0  0  0  0
   38.0661   59.0435   80.1085 C   0  0  0  0  0  0  0  0  0  0  0  0
   39.3473   58.2599   76.5854 C   0  0  0  0  0  0  0  0  0  0  0  0
   35.0618   60.7397   81.3826 N   0  0  0  0  0  0  0  0  0  0  0  0
   34.4550   60.2370   80.1368 C   0  0  0  0  0  0  0  0  0  0  0  0
   33.8892   58.8816   80.5246 C   0  0  0  0  0  0  0  0  0  0  0  0
   33.5414   59.0306   82.0044 C   0  0  0  0  0  0  0  0  0  0  0  0
   34.5782   60.0264   82.5700 C   0  0  0  0  0  0  0  0  0  0  0  0
   34.0970   60.9694   83.6926 C   0  0  0  0  0  0  0  0  0  0  0  0
   34.1387   60.6531   84.8863 O   0  0  0  0  0  0  0  0  0  0  0  0
   33.6238   62.2001   83.3327 O   0  0  0  0  0  0  0  0  0  0  0  0
   33.5907   62.4432   82.4283 H   0  0  0  0  0  0  0  0  0  0  0  0
  4  5  2  0  0  0
  4  9  1  0  0  0
  5  6  1  0  0  0
  5 10  1  0  0  0
  6  7  2  0  0  0
  7  8  1  0  0  0
  8  9  2  0  0  0
  8  1  1  0  0  0
  1  2  2  0  0  0
  1  3  2  0  0  0
  1 11  1  0  0  0
 11 12  1  0  0  0
 11 15  1  0  0  0
 12 13  1  0  0  0
 13 14  1  0  0  0
 14 15  1  0  0  0
 15 16  1  0  0  0
 16 17  2  0  0  0
 16 18  1  0  0  0
 18 19  1  0  0  0
M  END
> <minimizedAffinity>
-7.33195

$$$$
1F4E_TPR_A_301


 19 20  0  0  0  0  0  0  0  0999 V2000
   36.9979   58.9348   80.1906 S   0  0  0  0  0  0  0  0  0  0  0  0
   38.0228   59.2047   81.3662 O   0  0  0  0  0  0  0  0  0  0  0  0
   36.7076   57.3786   80.0944 O   0  0  0  0  0  0  0  0  0  0  0  0
   38.9050   59.0888   76.6601 C   0  0  0  0  0  0  0  0  0  0  0  0
   38.7044   60.4129   76.2525 C   0  0  0  0  0  0  0  0  0  0  0  0
   37.9673   61.2822   77.0711 C   0  0  0  0  0  0  0  0  0  0  0  0
   37.4286   60.8453   78.2874 C   0  0  0  0  0  0  0  0  0  0  0  0
   37.6310   59.5225   78.6619 C   0  0  0  0  0  0  0  0  0  0  0  0
   38.3677   58.6464   77.8708 C   0  0  0  0  0  0  0  0  0  0  0  0
   39.2644   60.9358   74.9345 C   0  0  0  0  0  0  0  0  0  0  0  0
   35.5158   59.7876   80.6081 N   0  0  0  0  0  0  0  0  0  0  0  0
   34.3069   59.3106   79.9123 C   0  0  0  0  0  0  0  0  0  0  0  0
   33.3652   58.9197   81.0384 C   0  0  0  0  0  0  0  0  0  0  0  0
   33.7492   59.8496   82.1875 C   0  0  0  0  0  0  0  0  0  0  0  0
   35.2632   60.1057   82.0179 C   0  0  0  0  0  0  0  0  0  0  0  0
   35.7839   61.4986   82.4303 C   0  0  0  0  0  0  0  0  0  0  0  0
   35.0307   62.4009   82.8112 O   0  0  0  0  0  0  0  0  0  0  0  0
   37.1322   61.7167   82.3779 O   0  0  0  0  0  0  0  0  0  0  0  0
   37.7062   61.0347   82.0894 H   0  0  0  0  0  0  0  0  0  0  0  0
  4  5  2  0  0  0
  4  9  1  0  0  0
  5  6  1  0  0  0
  5 10  1  0  0  0
  6  7  2  0  0  0
  7  8  1  0  0  0
  8  9  2  0  0  0
  8  1  1  0  0  0
  1  2  2  0  0  0
  1  3  2  0  0  0
  1 11  1  0  0  0
 11 12  1  0  0  0
 11 15  1  0  0  0
 12 13  1  0  0  0
 13 14  1  0  0  0
 14 15  1  0  0  0
 15 16  1  0  0  0
 16 17  2  0  0  0
 16 18  1  0  0  0
 18 19  1  0  0  0
M  END
> <minimizedAffinity>
-7.10770

$$$$
1F4E_TPR_A_301


 19 20  0  0  0  0  0  0  0  0999 V2000
   36.9943   60.2723   82.3742 S   0  0  0  0  0  0  0  0  0  0  0  0
   36.5495   61.7631   82.6656 O   0  0  0  0  0  0  0  0  0  0  0  0
   38.2027   59.8892   83.3274 O   0  0  0  0  0  0  0  0  0  0  0  0
   38.7238   58.8496   79.0410 C   0  0  0  0  0  0  0  0  0  0  0  0
   38.3004   59.7520   78.0581 C   0  0  0  0  0  0  0  0  0  0  0  0
   37.4644   60.8203   78.4170 C   0  0  0  0  0  0  0  0  0  0  0  0
   37.0464   60.9963   79.7416 C   0  0  0  0  0  0  0  0  0  0  0  0
   37.4702   60.0787   80.6952 C   0  0  0  0  0  0  0  0  0  0  0  0
   38.3080   59.0183   80.3635 C   0  0  0  0  0  0  0  0  0  0  0  0
   38.7221   59.6005   76.6009 C   0  0  0  0  0  0  0  0  0  0  0  0
   35.6074   59.2518   82.7393 N   0  0  0  0  0  0  0  0  0  0  0  0
   35.7668   58.3856   83.9214 C   0  0  0  0  0  0  0  0  0  0  0  0
   34.6098   58.7791   84.8238 C   0  0  0  0  0  0  0  0  0  0  0  0
   33.5168   59.2290   83.8564 C   0  0  0  0  0  0  0  0  0  0  0  0
   34.2642   59.8350   82.6479 C   0  0  0  0  0  0  0  0  0  0  0  0
   33.6127   59.6481   81.2616 C   0  0  0  0  0  0  0  0  0  0  0  0
   33.6810   60.5076   80.3767 O   0  0  0  0  0  0  0  0  0  0  0  0
   32.9523   58.4760   81.0200 O   0  0  0  0  0  0  0  0  0  0  0  0
   32.8986   57.8220   81.6889 H   0  0  0  0  0  0  0  0  0  0  0  0
  4  5  2  0  0  0
  4  9  1  0  0  0
  5  6  1  0  0  0
  5 10  1  0  0  0
  6  7  2  0  0  0
  7  8  1  0  0  0
  8  9  2  0  0  0
  8  1  1  0  0  0
  1  2  2  0  0  0
  1  3  2  0  0  0
  1 11  1  0  0  0
 11 12  1  0  0  0
 11 15  1  0  0  0
 12 13  1  0  0  0
 13 14  1  0  0  0
 14 15  1  0  0  0
 15 16  1  0  0  0
 16 17  2  0  0  0
 16 18  1  0  0  0
 18 19  1  0  0  0
M  END
> <minimizedAffinity>
-7.10693

$$$$
1F4E_TPR_A_301


 19 20  0  0  0  0  0  0  0  0999 V2000
   36.3598   59.3454   85.1572 S   0  0  0  0  0  0  0  0  0  0  0  0
   34.8948   59.7463   85.6025 O   0  0  0  0  0  0  0  0  0  0  0  0
   37.4110   60.0678   86.0998 O   0  0  0  0  0  0  0  0  0  0  0  0
   38.2195   60.1037   81.6799 C   0  0  0  0  0  0  0  0  0  0  0  0
   37.1757   60.5374   80.8539 C   0  0  0  0  0  0  0  0  0  0  0  0
   35.8708   60.5985   81.3663 C   0  0  0  0  0  0  0  0  0  0  0  0
   35.5969   60.2312   82.6892 C   0  0  0  0  0  0  0  0  0  0  0  0
   36.6488   59.7916   83.4838 C   0  0  0  0  0  0  0  0  0  0  0  0
   37.9520   59.7334   82.9996 C   0  0  0  0  0  0  0  0  0  0  0  0
   37.4206   60.9421   79.4046 C   0  0  0  0  0  0  0  0  0  0  0  0
   36.4879   57.6013   85.3570 N   0  0  0  0  0  0  0  0  0  0  0  0
   35.4575   56.8173   84.6523 C   0  0  0  0  0  0  0  0  0  0  0  0
   36.2542   55.8934   83.7469 C   0  0  0  0  0  0  0  0  0  0  0  0
   37.5655   55.6724   84.4982 C   0  0  0  0  0  0  0  0  0  0  0  0
   37.8158   56.9821   85.2783 C   0  0  0  0  0  0  0  0  0  0  0  0
   38.5094   56.8530   86.6507 C   0  0  0  0  0  0  0  0  0  0  0  0
   38.8875   55.7667   87.1018 O   0  0  0  0  0  0  0  0  0  0  0  0
   38.7158   57.9961   87.3711 O   0  0  0  0  0  0  0  0  0  0  0  0
   38.4303   58.8216   87.0319 H   0  0  0  0  0  0  0  0  0  0  0  0
  4  5  2  0  0  0
  4  9  1  0  0  0
  5  6  1  0  0  0
  5 10  1  0  0  0
  6  7  2  0  0  0
  7  8  1  0  0  0
  8  9  2  0  0  0
  8  1  1  0  0  0
  1  2  2  0  0  0
  1  3  2  0  0  0
  1 11  1  0  0  0
 11 12  1  0  0  0
 11 15  1  0  0  0
 12 13  1  0  0  0
 13 14  1  0  0  0
 14 15  1  0  0  0
 15 16  1  0  0  0
 16 17  2  0  0  0
 16 18  1  0  0  0
 18 19  1  0  0  0
M  END
> <minimizedAffinity>
-7.05371

$$$$
1F4E_TPR_A_301


 19 20  0  0  0  0  0  0  0  0999 V2000
   36.5926   58.6005   81.4651 S   0  0  0  0  0  0  0  0  0  0  0  0
   37.5642   58.9583   82.6623 O   0  0  0  0  0  0  0  0  0  0  0  0
   36.5222   57.0248   81.2992 O   0  0  0  0  0  0  0  0  0  0  0  0
   38.1061   59.0632   77.7745 C   0  0  0  0  0  0  0  0  0  0  0  0
   38.0841   60.4518   77.5981 C   0  0  0  0  0  0  0  0  0  0  0  0
   37.5935   61.2699   78.6272 C   0  0  0  0  0  0  0  0  0  0  0  0
   37.1247   60.7190   79.8259 C   0  0  0  0  0  0  0  0  0  0  0  0
   37.1451   59.3370   79.9700 C   0  0  0  0  0  0  0  0  0  0  0  0
   37.6372   58.5076   78.9669 C   0  0  0  0  0  0  0  0  0  0  0  0
   38.5771   61.1004   76.3095 C   0  0  0  0  0  0  0  0  0  0  0  0
   35.0041   59.2200   81.9025 N   0  0  0  0  0  0  0  0  0  0  0  0
   33.8744   58.3442   81.5426 C   0  0  0  0  0  0  0  0  0  0  0  0
   33.1734   58.0866   82.8656 C   0  0  0  0  0  0  0  0  0  0  0  0
   33.4474   59.3456   83.6857 C   0  0  0  0  0  0  0  0  0  0  0  0
   34.8331   59.8442   83.2192 C   0  0  0  0  0  0  0  0  0  0  0  0
   35.0537   61.3714   83.2021 C   0  0  0  0  0  0  0  0  0  0  0  0
   34.1159   62.1758   83.1966 O   0  0  0  0  0  0  0  0  0  0  0  0
   36.3413   61.8300   83.2073 O   0  0  0  0  0  0  0  0  0  0  0  0
   37.0549   61.2227   83.2115 H   0  0  0  0  0  0  0  0  0  0  0  0
  4  5  2  0  0  0
  4  9  1  0  0  0
  5  6  1  0  0  0
  5 10  1  0  0  0
  6  7  2  0  0  0
  7  8  1  0  0  0
  8  9  2  0  0  0
  8  1  1  0  0  0
  1  2  2  0  0  0
  1  3  2  0  0  0
  1 11  1  0  0  0
 11 12  1  0  0  0
 11 15  1  0  0  0
 12 13  1  0  0  0
 13 14  1  0  0  0
 14 15  1  0  0  0
 15 16  1  0  0  0
 16 17  2  0  0  0
 16 18  1  0  0  0
 18 19  1  0  0  0
M  END
> <minimizedAffinity>
-6.97386

$$$$
1F4E_TPR_A_301


 19 20  0  0  0  0  0  0  0  0999 V2000
   37.4581   59.0287   82.8370 S   0  0  0  0  0  0  0  0  0  0  0  0
   37.7309   58.2497   81.4864 O   0  0  0  0  0  0  0  0  0  0  0  0
   38.3595   60.3330   82.8819 O   0  0  0  0  0  0  0  0  0  0  0  0
   38.1582   55.7991   85.1185 C   0  0  0  0  0  0  0  0  0  0  0  0
   38.3004   56.3449   86.3998 C   0  0  0  0  0  0  0  0  0  0  0  0
   38.1833   57.7322   86.5752 C   0  0  0  0  0  0  0  0  0  0  0  0
   37.9281   58.5781   85.4891 C   0  0  0  0  0  0  0  0  0  0  0  0
   37.8046   58.0121   84.2261 C   0  0  0  0  0  0  0  0  0  0  0  0
   37.9064   56.6381   84.0308 C   0  0  0  0  0  0  0  0  0  0  0  0
   38.5852   55.4677   87.6137 C   0  0  0  0  0  0  0  0  0  0  0  0
   35.7584   59.4855   82.8211 N   0  0  0  0  0  0  0  0  0  0  0  0
   34.8128   58.3694   83.0034 C   0  0  0  0  0  0  0  0  0  0  0  0
   34.0067   58.7673   84.2280 C   0  0  0  0  0  0  0  0  0  0  0  0
   34.0034   60.2943   84.1942 C   0  0  0  0  0  0  0  0  0  0  0  0
   35.3496   60.6920   83.5492 C   0  0  0  0  0  0  0  0  0  0  0  0
   35.3532   61.9622   82.6729 C   0  0  0  0  0  0  0  0  0  0  0  0
   34.9196   63.0463   83.0768 O   0  0  0  0  0  0  0  0  0  0  0  0
   35.8718   61.8657   81.4120 O   0  0  0  0  0  0  0  0  0  0  0  0
   36.2015   61.0450   81.1025 H   0  0  0  0  0  0  0  0  0  0  0  0
  4  5  2  0  0  0
  4  9  1  0  0  0
  5  6  1  0  0  0
  5 10  1  0  0  0
  6  7  2  0  0  0
  7  8  1  0  0  0
  8  9  2  0  0  0
  8  1  1  0  0  0
  1  2  2  0  0  0
  1  3  2  0  0  0
  1 11  1  0  0  0
 11 12  1  0  0  0
 11 15  1  0  0  0
 12 13  1  0  0  0
 13 14  1  0  0  0
 14 15  1  0  0  0
 15 16  1  0  0  0
 16 17  2  0  0  0
 16 18  1  0  0  0
 18 19  1  0  0  0
M  END
> <minimizedAffinity>
-6.89479

$$$$
1F4E_TPR_A_301


 19 20  0  0  0  0  0  0  0  0999 V2000
   34.4902   59.3823   80.5531 S   0  0  0  0  0  0  0  0  0  0  0  0
   33.5892   58.0824   80.4933 O   0  0  0  0  0  0  0  0  0  0  0  0
   33.5980   60.6544   80.2353 O   0  0  0  0  0  0  0  0  0  0  0  0
   37.5798   60.3900   78.1941 C   0  0  0  0  0  0  0  0  0  0  0  0
   37.8940   59.1840   77.5563 C   0  0  0  0  0  0  0  0  0  0  0  0
   37.1488   58.0326   77.8529 C   0  0  0  0  0  0  0  0  0  0  0  0
   36.0980   58.0710   78.7773 C   0  0  0  0  0  0  0  0  0  0  0  0
   35.8156   59.2776   79.4062 C   0  0  0  0  0  0  0  0  0  0  0  0
   36.5345   60.4339   79.1192 C   0  0  0  0  0  0  0  0  0  0  0  0
   39.0326   59.0881   76.5471 C   0  0  0  0  0  0  0  0  0  0  0  0
   35.1099   59.4911   82.1970 N   0  0  0  0  0  0  0  0  0  0  0  0
   35.4189   58.1971   82.8319 C   0  0  0  0  0  0  0  0  0  0  0  0
   36.8875   58.3114   83.2030 C   0  0  0  0  0  0  0  0  0  0  0  0
   37.0953   59.8036   83.4540 C   0  0  0  0  0  0  0  0  0  0  0  0
   36.1109   60.5193   82.5024 C   0  0  0  0  0  0  0  0  0  0  0  0
   35.4924   61.8403   83.0060 C   0  0  0  0  0  0  0  0  0  0  0  0
   36.1799   62.8250   83.2961 O   0  0  0  0  0  0  0  0  0  0  0  0
   34.1315   61.9068   83.1147 O   0  0  0  0  0  0  0  0  0  0  0  0
   33.6071   61.1618   82.8955 H   0  0  0  0  0  0  0  0  0  0  0  0
  4  5  2  0  0  0
  4  9  1  0  0  0
  5  6  1  0  0  0
  5 10  1  0  0  0
  6  7  2  0  0  0
  7  8  1  0  0  0
  8  9  2  0  0  0
  8  1  1  0  0  0
  1  2  2  0  0  0
  1  3  2  0  0  0
  1 11  1  0  0  0
 11 12  1  0  0  0
 11 15  1  0  0  0
 12 13  1  0  0  0
 13 14  1  0  0  0
 14 15  1  0  0  0
 15 16  1  0  0  0
 16 17  2  0  0  0
 16 18  1  0  0  0
 18 19  1  0  0  0
M  END
> <minimizedAffinity>
-6.88601

$$$$
1F4E_TPR_A_301


 19 20  0  0  0  0  0  0  0  0999 V2000
   35.8494   58.1358   81.6810 S   0  0  0  0  0  0  0  0  0  0  0  0
   36.7886   56.9899   82.2380 O   0  0  0  0  0  0  0  0  0  0  0  0
   34.4616   57.5083   81.2387 O   0  0  0  0  0  0  0  0  0  0  0  0
   37.6875   60.9203   79.4463 C   0  0  0  0  0  0  0  0  0  0  0  0
   37.7528   60.3171   78.1847 C   0  0  0  0  0  0  0  0  0  0  0  0
   37.2267   59.0283   78.0084 C   0  0  0  0  0  0  0  0  0  0  0  0
   36.6394   58.3364   79.0746 C   0  0  0  0  0  0  0  0  0  0  0  0
   36.5995   58.9524   80.3195 C   0  0  0  0  0  0  0  0  0  0  0  0
   37.1054   60.2340   80.5143 C   0  0  0  0  0  0  0  0  0  0  0  0
   38.3878   61.0257   76.9934 C   0  0  0  0  0  0  0  0  0  0  0  0
   35.5916   59.2651   83.0062 N   0  0  0  0  0  0  0  0  0  0  0  0
   34.2650   59.9077   83.0264 C   0  0  0  0  0  0  0  0  0  0  0  0
   33.6990   59.5388   84.3870 C   0  0  0  0  0  0  0  0  0  0  0  0
   34.9307   59.3964   85.2789 C   0  0  0  0  0  0  0  0  0  0  0  0
   36.0540   58.8901   84.3472 C   0  0  0  0  0  0  0  0  0  0  0  0
   37.4858   59.3763   84.6553 C   0  0  0  0  0  0  0  0  0  0  0  0
   38.3356   59.5343   83.7726 O   0  0  0  0  0  0  0  0  0  0  0  0
   37.8003   59.6494   85.9571 O   0  0  0  0  0  0  0  0  0  0  0  0
   37.1582   59.5306   86.6291 H   0  0  0  0  0  0  0  0  0  0  0  0
  4  5  2  0  0  0
  4  9  1  0  0  0
  5  6  1  0  0  0
  5 10  1  0  0  0
  6  7  2  0  0  0
  7  8  1  0  0  0
  8  9  2  0  0  0
  8  1  1  0  0  0
  1  2  2  0  0  0
  1  3  2  0  0  0
  1 11  1  0  0  0
 11 12  1  0  0  0
 11 15  1  0  0  0
 12 13  1  0  0  0
 13 14  1  0  0  0
 14 15  1  0  0  0
 15 16  1  0  0  0
 16 17  2  0  0  0
 16 18  1  0  0  0
 18 19  1  0  0  0
M  END
> <minimizedAffinity>
-6.77635

$$$$
