5AHW_CMP_A_1148
  RCSB PDB12061716493D
Coordinates from PDB:5AHW:A:1148 Model:1 without hydrogens
 22 25  0  0  0  0            999 V2000
   -6.6840   -6.9490   20.1540   P 0  0  0  0  0  0  0  0  0  0  0  0
   -6.1010   -5.6650   20.6660   O 0  0  0  0  0  0  0  0  0  0  0  0
   -8.1180   -7.1850   20.0430   O 0  0  0  0  0  0  0  0  0  0  0  0
   -6.2750   -8.0940   21.2060   O 0  0  0  0  0  0  0  0  0  0  0  0
   -6.1680   -9.4470   20.8610   C 0  0  0  0  0  0  0  0  0  0  0  0
   -5.3130   -9.5050   19.6050   C 0  0  0  0  0  0  0  0  0  0  0  0
   -5.1930  -10.7850   19.0620   O 0  0  0  0  0  0  0  0  0  0  0  0
   -5.9380   -8.6960   18.4740   C 0  0  0  0  0  0  0  0  0  0  0  0
   -5.7940   -7.3550   18.8700   O 0  0  0  0  0  0  0  0  0  0  0  0
   -5.1930   -9.2360   17.2810   C 0  0  0  0  0  0  0  0  0  0  0  0
   -3.9120   -8.6890   17.1150   O 0  0  0  0  0  0  0  0  0  0  0  0
   -5.1170  -10.7300   17.6290   C 0  0  0  0  0  0  0  0  0  0  0  0
   -6.2580  -11.4520   17.0100   N 0  0  0  0  0  0  0  0  0  0  0  0
   -7.3890  -11.8500   17.5630   C 0  0  0  0  0  0  0  0  0  0  0  0
   -8.1820  -12.4630   16.6410   N 0  0  0  0  0  0  0  0  0  0  0  0
   -7.5490  -12.4370   15.4660   C 0  0  0  0  0  0  0  0  0  0  0  0
   -7.7870  -12.8270   14.0350   C 0  0  0  0  0  0  0  0  0  0  0  0
   -8.8790  -13.4500   13.6380   N 0  0  0  0  0  0  0  0  0  0  0  0
   -6.8690  -12.5700   13.1090   N 0  0  0  0  0  0  0  0  0  0  0  0
   -5.7140  -12.0010   13.4310   C 0  0  0  0  0  0  0  0  0  0  0  0
   -5.4530  -11.5610   14.6730   N 0  0  0  0  0  0  0  0  0  0  0  0
   -6.3090  -11.7530   15.7150   C 0  0  0  0  0  0  0  0  0  0  0  0
  1  2  2  0  0  0  0
  1  3  1  0  0  0  0
  1  4  1  0  0  0  0
  1  9  1  0  0  0  0
  4  5  1  0  0  0  0
  5  6  1  0  0  0  0
  6  7  1  0  0  0  0
  6  8  1  0  0  0  0
  7 12  1  0  0  0  0
  8  9  1  0  0  0  0
  8 10  1  0  0  0  0
 10 11  1  0  0  0  0
 10 12  1  0  0  0  0
 12 13  1  0  0  0  0
 13 14  1  0  0  0  0
 13 22  1  0  0  0  0
 14 15  2  0  0  0  0
 15 16  1  0  0  0  0
 16 17  1  0  0  0  0
 16 22  2  0  0  0  0
 17 18  1  0  0  0  0
 17 19  2  0  0  0  0
 19 20  1  0  0  0  0
 20 21  2  0  0  0  0
 21 22  1  0  0  0  0
A    1
P
A    2
O1P
A    3
O2P
A    4
O5'
A    5
C5'
A    6
C4'
A    7
O4'
A    8
C3'
A    9
O3'
A   10
C2'
A   11
O2'
A   12
C1'
A   13
N9
A   14
C8
A   15
N7
A   16
C5
A   17
C6
A   18
N6
A   19
N1
A   20
C2
A   21
N3
A   22
C4
M  END
>  <InstanceId>
5AHW_CMP_A_1148

>  <ChemCompId>
CMP

>  <PdbId>
5AHW

>  <ChainId>
A

>  <ResidueNumber>
1148

>  <InsertionCode>


>  <Model>
1

>  <AltIds>


>  <MissingHeavyAtoms>
0

>  <ObservedFormula>
C10 N5 O6 P

>  <Name>
ADENOSINE-3',5'-CYCLIC-MONOPHOSPHATE

>  <SystematicName>
(1R,4R,6S,7R,8R)-8-(6-aminopurin-9-yl)-4-hydroxy-4-oxo-3,5,9-trioxa-4$l^{5}-phosphabicyclo[4.3.0]nonan-7-ol

>  <Synonyms>
CYCLIC AMP; CAMP

>  <Type>
NON-POLYMER

>  <Formula>
C10 H12 N5 O6 P

>  <MolecularWeight>
329.206

>  <ModifiedDate>
2011-06-04

>  <Parent>


>  <OneLetterCode>


>  <SubcomponentList>


>  <AmbiguousFlag>
N

>  <InChI>
InChI=1S/C10H12N5O6P/c11-8-5-9(13-2-12-8)15(3-14-5)10-6(16)7-4(20-10)1-19-22(17,18)21-7/h2-4,6-7,10,16H,1H2,(H,17,18)(H2,11,12,13)/t4-,6-,7-,10-/m1/s1

>  <InChIKey>
IVOMOUWHDPKRLL-KQYNXXCUSA-N

>  <SMILES>
c1nc(c2c(n1)n(cn2)[C@H]3[C@@H]([C@H]4[C@H](O3)CO[P@](=O)(O4)O)O)N

$$$$
