3G3R_ANP_A_1000


 19 18  0  0  0  0  0  0  0  0999 V2000
   11.7768   15.2289   15.4545 P   0  0  0  0  0  0  0  0  0  0  0  0
   11.9056   15.3089   13.8789 O   0  0  0  0  0  0  0  0  0  0  0  0
   10.4773   15.0301   16.1321 O   0  0  0  0  0  0  0  0  0  0  0  0
   10.0842   14.1933   15.8386 H   0  0  0  0  0  0  0  0  0  0  0  0
   12.6036   13.8144   15.6750 N   0  0  0  0  0  0  0  0  0  0  0  0
   13.5941   14.0416   15.5879 H   0  0  0  0  0  0  0  0  0  0  0  0
   12.3341   12.5027   14.6977 P   0  0  0  0  0  0  0  0  0  0  0  0
   12.4297   11.2156   15.4140 O   0  0  0  0  0  0  0  0  0  0  0  0
   10.8192   12.5913   14.1789 O   0  0  0  0  0  0  0  0  0  0  0  0
   13.0260   12.7038   13.2889 O   0  0  0  0  0  0  0  0  0  0  0  0
   10.6302   11.8346   13.6022 H   0  0  0  0  0  0  0  0  0  0  0  0
   12.8575   11.9275   12.7322 H   0  0  0  0  0  0  0  0  0  0  0  0
   12.4976   16.5764   15.8727 O   0  0  0  0  0  0  0  0  0  0  0  0
   13.2166   17.1393   17.1546 P   0  0  0  0  0  0  0  0  0  0  0  0
   13.1490   15.9445   18.1694 O   0  0  0  0  0  0  0  0  0  0  0  0
   12.4265   18.2285   17.9559 O   0  0  0  0  0  0  0  0  0  0  0  0
   14.5469   17.5626   16.6886 O   0  0  0  0  0  0  0  0  0  0  0  0
   11.5657   17.8713   18.2247 H   0  0  0  0  0  0  0  0  0  0  0  0
   15.0509   17.9240   17.4345 H   0  0  0  0  0  0  0  0  0  0  0  0
  7  8  2  0  0  0
  7  9  1  0  0  0
  7 10  1  0  0  0
  7  5  1  0  0  0
  1  2  2  0  0  0
  1  3  1  0  0  0
  1  5  1  0  0  0
  1 13  1  0  0  0
 14 15  2  0  0  0
 14 16  1  0  0  0
 14 13  1  0  0  0
 14 17  1  0  0  0
  9 11  1  0  0  0
 10 12  1  0  0  0
  3  4  1  0  0  0
  5  6  1  0  0  0
 16 18  1  0  0  0
 17 19  1  0  0  0
M  END
> <minimizedAffinity>
-8.55562

$$$$
3G3R_ANP_A_1000


 19 18  0  0  0  0  0  0  0  0999 V2000
   11.5402   15.1725   15.1735 P   0  0  0  0  0  0  0  0  0  0  0  0
   11.2556   14.9275   13.6358 O   0  0  0  0  0  0  0  0  0  0  0  0
   10.4859   15.0439   16.2027 O   0  0  0  0  0  0  0  0  0  0  0  0
   10.1283   14.1424   16.1883 H   0  0  0  0  0  0  0  0  0  0  0  0
   12.5500   13.8873   15.4217 N   0  0  0  0  0  0  0  0  0  0  0  0
   13.4897   14.2085   15.1891 H   0  0  0  0  0  0  0  0  0  0  0  0
   12.3292   12.4557   14.6155 P   0  0  0  0  0  0  0  0  0  0  0  0
   12.5402   11.2702   15.4692 O   0  0  0  0  0  0  0  0  0  0  0  0
   10.7918   12.3887   14.1641 O   0  0  0  0  0  0  0  0  0  0  0  0
   12.9477   12.5320   13.1611 O   0  0  0  0  0  0  0  0  0  0  0  0
   10.6305   11.5592   13.6879 H   0  0  0  0  0  0  0  0  0  0  0  0
   12.8090   11.6868   12.7059 H   0  0  0  0  0  0  0  0  0  0  0  0
   12.1868   16.6181   15.1214 O   0  0  0  0  0  0  0  0  0  0  0  0
   13.5783   17.2625   15.4755 P   0  0  0  0  0  0  0  0  0  0  0  0
   13.3347   17.9158   16.8812 O   0  0  0  0  0  0  0  0  0  0  0  0
   13.9729   18.5305   14.6453 O   0  0  0  0  0  0  0  0  0  0  0  0
   14.5415   16.1524   15.3981 O   0  0  0  0  0  0  0  0  0  0  0  0
   13.2896   19.2109   14.7499 H   0  0  0  0  0  0  0  0  0  0  0  0
   15.4302   16.4802   15.6069 H   0  0  0  0  0  0  0  0  0  0  0  0
  7  8  2  0  0  0
  7  9  1  0  0  0
  7 10  1  0  0  0
  7  5  1  0  0  0
  1  2  2  0  0  0
  1  3  1  0  0  0
  1  5  1  0  0  0
  1 13  1  0  0  0
 14 15  2  0  0  0
 14 16  1  0  0  0
 14 13  1  0  0  0
 14 17  1  0  0  0
  9 11  1  0  0  0
 10 12  1  0  0  0
  3  4  1  0  0  0
  5  6  1  0  0  0
 16 18  1  0  0  0
 17 19  1  0  0  0
M  END
> <minimizedAffinity>
-8.45071

$$$$
3G3R_ANP_A_1000


 19 18  0  0  0  0  0  0  0  0999 V2000
   13.2865   16.9674   14.9208 P   0  0  0  0  0  0  0  0  0  0  0  0
   14.5340   16.0828   15.3290 O   0  0  0  0  0  0  0  0  0  0  0  0
   13.3846   18.0644   13.9337 O   0  0  0  0  0  0  0  0  0  0  0  0
   13.6867   17.7083   13.0835 H   0  0  0  0  0  0  0  0  0  0  0  0
   12.4090   15.7840   14.1707 N   0  0  0  0  0  0  0  0  0  0  0  0
   11.7175   16.2598   13.5912 H   0  0  0  0  0  0  0  0  0  0  0  0
   11.5841   14.6433   15.0463 P   0  0  0  0  0  0  0  0  0  0  0  0
   11.0457   13.5498   14.2137 O   0  0  0  0  0  0  0  0  0  0  0  0
   12.6329   13.9469   16.0398 O   0  0  0  0  0  0  0  0  0  0  0  0
   10.6968   15.3294   16.1624 O   0  0  0  0  0  0  0  0  0  0  0  0
   12.1787   13.2719   16.5680 H   0  0  0  0  0  0  0  0  0  0  0  0
   10.2227   14.6472   16.6632 H   0  0  0  0  0  0  0  0  0  0  0  0
   12.7980   17.4548   16.3470 O   0  0  0  0  0  0  0  0  0  0  0  0
   13.2790   17.2960   17.8371 P   0  0  0  0  0  0  0  0  0  0  0  0
   12.4682   18.3981   18.6053 O   0  0  0  0  0  0  0  0  0  0  0  0
   14.7417   17.7697   18.1351 O   0  0  0  0  0  0  0  0  0  0  0  0
   13.0067   15.8899   18.1761 O   0  0  0  0  0  0  0  0  0  0  0  0
   14.8369   18.7020   17.8846 H   0  0  0  0  0  0  0  0  0  0  0  0
   13.2814   15.7187   19.0906 H   0  0  0  0  0  0  0  0  0  0  0  0
  7  8  2  0  0  0
  7  9  1  0  0  0
  7 10  1  0  0  0
  7  5  1  0  0  0
  1  2  2  0  0  0
  1  3  1  0  0  0
  1  5  1  0  0  0
  1 13  1  0  0  0
 14 15  2  0  0  0
 14 16  1  0  0  0
 14 13  1  0  0  0
 14 17  1  0  0  0
  9 11  1  0  0  0
 10 12  1  0  0  0
  3  4  1  0  0  0
  5  6  1  0  0  0
 16 18  1  0  0  0
 17 19  1  0  0  0
M  END
> <minimizedAffinity>
-8.32615

$$$$
3G3R_ANP_A_1000


 19 18  0  0  0  0  0  0  0  0999 V2000
   12.0094   15.4957   15.1246 P   0  0  0  0  0  0  0  0  0  0  0  0
   10.5022   15.1019   14.8441 O   0  0  0  0  0  0  0  0  0  0  0  0
   12.7510   16.4452   14.2668 O   0  0  0  0  0  0  0  0  0  0  0  0
   12.2980   17.3030   14.2672 H   0  0  0  0  0  0  0  0  0  0  0  0
   11.7700   16.2943   16.5522 N   0  0  0  0  0  0  0  0  0  0  0  0
   11.1032   17.0412   16.3576 H   0  0  0  0  0  0  0  0  0  0  0  0
   13.0342   16.9927   17.3661 P   0  0  0  0  0  0  0  0  0  0  0  0
   12.6999   18.3133   17.9345 O   0  0  0  0  0  0  0  0  0  0  0  0
   13.3715   16.0587   18.6254 O   0  0  0  0  0  0  0  0  0  0  0  0
   14.3942   16.7603   16.5916 O   0  0  0  0  0  0  0  0  0  0  0  0
   14.1101   16.4422   19.1237 H   0  0  0  0  0  0  0  0  0  0  0  0
   15.1208   17.1753   17.0823 H   0  0  0  0  0  0  0  0  0  0  0  0
   12.6771   14.0602   15.1866 O   0  0  0  0  0  0  0  0  0  0  0  0
   12.3442   12.6193   14.6480 P   0  0  0  0  0  0  0  0  0  0  0  0
   13.0341   12.5843   13.2391 O   0  0  0  0  0  0  0  0  0  0  0  0
   10.8541   12.3743   14.2331 O   0  0  0  0  0  0  0  0  0  0  0  0
   12.8546   11.7014   15.6791 O   0  0  0  0  0  0  0  0  0  0  0  0
   10.5978   13.0174   13.5537 H   0  0  0  0  0  0  0  0  0  0  0  0
   12.6818   10.7854   15.4107 H   0  0  0  0  0  0  0  0  0  0  0  0
  7  8  2  0  0  0
  7  9  1  0  0  0
  7 10  1  0  0  0
  7  5  1  0  0  0
  1  2  2  0  0  0
  1  3  1  0  0  0
  1  5  1  0  0  0
  1 13  1  0  0  0
 14 15  2  0  0  0
 14 16  1  0  0  0
 14 13  1  0  0  0
 14 17  1  0  0  0
  9 11  1  0  0  0
 10 12  1  0  0  0
  3  4  1  0  0  0
  5  6  1  0  0  0
 16 18  1  0  0  0
 17 19  1  0  0  0
M  END
> <minimizedAffinity>
-8.14703

$$$$
3G3R_ANP_A_1000


 19 18  0  0  0  0  0  0  0  0999 V2000
   13.5070   16.8322   15.4517 P   0  0  0  0  0  0  0  0  0  0  0  0
   12.1597   17.4991   15.9473 O   0  0  0  0  0  0  0  0  0  0  0  0
   14.2023   17.2739   14.2233 O   0  0  0  0  0  0  0  0  0  0  0  0
   14.4403   18.2107   14.3056 H   0  0  0  0  0  0  0  0  0  0  0  0
   14.4727   17.3248   16.6997 N   0  0  0  0  0  0  0  0  0  0  0  0
   15.3338   16.7823   16.6308 H   0  0  0  0  0  0  0  0  0  0  0  0
   13.9664   17.2057   18.2738 P   0  0  0  0  0  0  0  0  0  0  0  0
   15.0003   17.6067   19.2481 O   0  0  0  0  0  0  0  0  0  0  0  0
   12.7641   18.2479   18.4736 O   0  0  0  0  0  0  0  0  0  0  0  0
   13.1119   15.8913   18.4882 O   0  0  0  0  0  0  0  0  0  0  0  0
   12.4449   18.2018   19.3885 H   0  0  0  0  0  0  0  0  0  0  0  0
   12.8252   15.8393   19.4134 H   0  0  0  0  0  0  0  0  0  0  0  0
   13.0772   15.3078   15.4101 O   0  0  0  0  0  0  0  0  0  0  0  0
   11.7269   14.5003   15.3701 P   0  0  0  0  0  0  0  0  0  0  0  0
   11.2009   14.7342   13.9103 O   0  0  0  0  0  0  0  0  0  0  0  0
   10.5427   15.1119   16.1925 O   0  0  0  0  0  0  0  0  0  0  0  0
   12.0946   13.1267   15.7496 O   0  0  0  0  0  0  0  0  0  0  0  0
   10.3649   16.0134   15.8818 H   0  0  0  0  0  0  0  0  0  0  0  0
   11.3022   12.5671   15.7459 H   0  0  0  0  0  0  0  0  0  0  0  0
  7  8  2  0  0  0
  7  9  1  0  0  0
  7 10  1  0  0  0
  7  5  1  0  0  0
  1  2  2  0  0  0
  1  3  1  0  0  0
  1  5  1  0  0  0
  1 13  1  0  0  0
 14 15  2  0  0  0
 14 16  1  0  0  0
 14 13  1  0  0  0
 14 17  1  0  0  0
  9 11  1  0  0  0
 10 12  1  0  0  0
  3  4  1  0  0  0
  5  6  1  0  0  0
 16 18  1  0  0  0
 17 19  1  0  0  0
M  END
> <minimizedAffinity>
-7.82311

$$$$
3G3R_ANP_A_1000


 19 18  0  0  0  0  0  0  0  0999 V2000
   11.7792   15.2842   15.4724 P   0  0  0  0  0  0  0  0  0  0  0  0
   12.2566   15.5479   16.9583 O   0  0  0  0  0  0  0  0  0  0  0  0
   10.3532   15.1138   15.1189 O   0  0  0  0  0  0  0  0  0  0  0  0
    9.8609   15.9117   15.3676 H   0  0  0  0  0  0  0  0  0  0  0  0
   12.2140   16.7463   14.8349 N   0  0  0  0  0  0  0  0  0  0  0  0
   12.1323   16.6562   13.8222 H   0  0  0  0  0  0  0  0  0  0  0  0
   13.7088   17.3996   15.1301 P   0  0  0  0  0  0  0  0  0  0  0  0
   14.0397   18.5219   14.2303 O   0  0  0  0  0  0  0  0  0  0  0  0
   13.6771   18.0294   16.6046 O   0  0  0  0  0  0  0  0  0  0  0  0
   14.7655   16.2621   15.4355 O   0  0  0  0  0  0  0  0  0  0  0  0
   14.5409   18.4210   16.8075 H   0  0  0  0  0  0  0  0  0  0  0  0
   15.6322   16.6632   15.6053 H   0  0  0  0  0  0  0  0  0  0  0  0
   12.6674   14.0256   15.1020 O   0  0  0  0  0  0  0  0  0  0  0  0
   12.4186   12.5693   14.5596 P   0  0  0  0  0  0  0  0  0  0  0  0
   12.9303   11.6502   15.7240 O   0  0  0  0  0  0  0  0  0  0  0  0
   13.3645   12.1025   13.4020 O   0  0  0  0  0  0  0  0  0  0  0  0
   10.9833   12.5243   14.2372 O   0  0  0  0  0  0  0  0  0  0  0  0
   14.2874   12.1622   13.6945 H   0  0  0  0  0  0  0  0  0  0  0  0
   10.7564   11.6460   13.8937 H   0  0  0  0  0  0  0  0  0  0  0  0
  7  8  2  0  0  0
  7  9  1  0  0  0
  7 10  1  0  0  0
  7  5  1  0  0  0
  1  2  2  0  0  0
  1  3  1  0  0  0
  1  5  1  0  0  0
  1 13  1  0  0  0
 14 15  2  0  0  0
 14 16  1  0  0  0
 14 13  1  0  0  0
 14 17  1  0  0  0
  9 11  1  0  0  0
 10 12  1  0  0  0
  3  4  1  0  0  0
  5  6  1  0  0  0
 16 18  1  0  0  0
 17 19  1  0  0  0
M  END
> <minimizedAffinity>
-7.57882

$$$$
3G3R_ANP_A_1000


 19 18  0  0  0  0  0  0  0  0999 V2000
   12.4315   12.5631   14.6513 P   0  0  0  0  0  0  0  0  0  0  0  0
   10.9187   12.5481   14.1859 O   0  0  0  0  0  0  0  0  0  0  0  0
   13.0385   11.4428   15.4023 O   0  0  0  0  0  0  0  0  0  0  0  0
   12.9810   10.6310   14.8745 H   0  0  0  0  0  0  0  0  0  0  0  0
   13.1272   12.5101   13.1526 N   0  0  0  0  0  0  0  0  0  0  0  0
   12.3821   12.6948   12.4810 H   0  0  0  0  0  0  0  0  0  0  0  0
   13.9141   11.1514   12.6204 P   0  0  0  0  0  0  0  0  0  0  0  0
   15.1524   10.8660   13.3714 O   0  0  0  0  0  0  0  0  0  0  0  0
   12.9508    9.8986   12.8933 O   0  0  0  0  0  0  0  0  0  0  0  0
   13.8831   11.0703   11.0405 O   0  0  0  0  0  0  0  0  0  0  0  0
   13.3848    9.0853   12.5914 H   0  0  0  0  0  0  0  0  0  0  0  0
   14.3474   10.2702   10.7487 H   0  0  0  0  0  0  0  0  0  0  0  0
   12.4790   13.9379   15.4374 O   0  0  0  0  0  0  0  0  0  0  0  0
   11.7861   15.3464   15.3220 P   0  0  0  0  0  0  0  0  0  0  0  0
   11.7893   15.8803   16.7976 O   0  0  0  0  0  0  0  0  0  0  0  0
   10.2462   15.3269   15.0376 O   0  0  0  0  0  0  0  0  0  0  0  0
   12.5857   16.0826   14.3297 O   0  0  0  0  0  0  0  0  0  0  0  0
    9.7951   14.8245   15.7341 H   0  0  0  0  0  0  0  0  0  0  0  0
   12.2121   16.9693   14.2070 H   0  0  0  0  0  0  0  0  0  0  0  0
  7  8  2  0  0  0
  7  9  1  0  0  0
  7 10  1  0  0  0
  7  5  1  0  0  0
  1  2  2  0  0  0
  1  3  1  0  0  0
  1  5  1  0  0  0
  1 13  1  0  0  0
 14 15  2  0  0  0
 14 16  1  0  0  0
 14 13  1  0  0  0
 14 17  1  0  0  0
  9 11  1  0  0  0
 10 12  1  0  0  0
  3  4  1  0  0  0
  5  6  1  0  0  0
 16 18  1  0  0  0
 17 19  1  0  0  0
M  END
> <minimizedAffinity>
-7.32797

$$$$
3G3R_ANP_A_1000


 19 18  0  0  0  0  0  0  0  0999 V2000
   12.5114   12.4876   14.6867 P   0  0  0  0  0  0  0  0  0  0  0  0
   13.1890   11.5933   15.8032 O   0  0  0  0  0  0  0  0  0  0  0  0
   11.1011   12.3086   14.2788 O   0  0  0  0  0  0  0  0  0  0  0  0
   10.5230   12.4429   15.0461 H   0  0  0  0  0  0  0  0  0  0  0  0
   12.5503   13.9270   15.4989 N   0  0  0  0  0  0  0  0  0  0  0  0
   12.5095   13.6999   16.4924 H   0  0  0  0  0  0  0  0  0  0  0  0
   11.4001   15.0914   15.2350 P   0  0  0  0  0  0  0  0  0  0  0  0
   10.5343   15.3282   16.4068 O   0  0  0  0  0  0  0  0  0  0  0  0
   12.1663   16.4775   14.9830 O   0  0  0  0  0  0  0  0  0  0  0  0
   10.7855   14.9512   13.7837 O   0  0  0  0  0  0  0  0  0  0  0  0
   11.5179   17.1813   14.8249 H   0  0  0  0  0  0  0  0  0  0  0  0
   10.1159   15.6398   13.6482 H   0  0  0  0  0  0  0  0  0  0  0  0
   13.5350   12.2868   13.4941 O   0  0  0  0  0  0  0  0  0  0  0  0
   14.3885   11.1025   12.9060 P   0  0  0  0  0  0  0  0  0  0  0  0
   13.3185   10.1828   12.2195 O   0  0  0  0  0  0  0  0  0  0  0  0
   14.9807   10.1026   13.9558 O   0  0  0  0  0  0  0  0  0  0  0  0
   15.3878   11.7484   12.0398 O   0  0  0  0  0  0  0  0  0  0  0  0
   14.2604    9.7230   14.4830 H   0  0  0  0  0  0  0  0  0  0  0  0
   15.9549   11.0708   11.6395 H   0  0  0  0  0  0  0  0  0  0  0  0
  7  8  2  0  0  0
  7  9  1  0  0  0
  7 10  1  0  0  0
  7  5  1  0  0  0
  1  2  2  0  0  0
  1  3  1  0  0  0
  1  5  1  0  0  0
  1 13  1  0  0  0
 14 15  2  0  0  0
 14 16  1  0  0  0
 14 13  1  0  0  0
 14 17  1  0  0  0
  9 11  1  0  0  0
 10 12  1  0  0  0
  3  4  1  0  0  0
  5  6  1  0  0  0
 16 18  1  0  0  0
 17 19  1  0  0  0
M  END
> <minimizedAffinity>
-7.05182

$$$$
3G3R_ANP_A_1000


 19 18  0  0  0  0  0  0  0  0999 V2000
   13.0849   16.9437   16.9382 P   0  0  0  0  0  0  0  0  0  0  0  0
   11.8639   17.8628   17.3503 O   0  0  0  0  0  0  0  0  0  0  0  0
   14.4542   17.4768   16.7705 O   0  0  0  0  0  0  0  0  0  0  0  0
   14.7514   17.8729   17.6045 H   0  0  0  0  0  0  0  0  0  0  0  0
   13.1421   16.0203   18.3083 N   0  0  0  0  0  0  0  0  0  0  0  0
   12.1746   15.8374   18.5746 H   0  0  0  0  0  0  0  0  0  0  0  0
   13.9120   16.5595   19.6738 P   0  0  0  0  0  0  0  0  0  0  0  0
   13.7071   15.6799   20.8414 O   0  0  0  0  0  0  0  0  0  0  0  0
   15.4889   16.5241   19.3840 O   0  0  0  0  0  0  0  0  0  0  0  0
   13.7815   18.1309   19.8055 O   0  0  0  0  0  0  0  0  0  0  0  0
   15.9687   16.8352   20.1675 H   0  0  0  0  0  0  0  0  0  0  0  0
   14.2373   18.4270   20.6089 H   0  0  0  0  0  0  0  0  0  0  0  0
   12.5117   16.2739   15.6218 O   0  0  0  0  0  0  0  0  0  0  0  0
   11.6327   15.0175   15.2666 P   0  0  0  0  0  0  0  0  0  0  0  0
   12.6724   13.8434   15.2148 O   0  0  0  0  0  0  0  0  0  0  0  0
   11.0811   14.9640   13.8019 O   0  0  0  0  0  0  0  0  0  0  0  0
   10.6008   14.9676   16.3148 O   0  0  0  0  0  0  0  0  0  0  0  0
   11.8212   15.0015   13.1761 H   0  0  0  0  0  0  0  0  0  0  0  0
   10.0167   14.2094   16.1576 H   0  0  0  0  0  0  0  0  0  0  0  0
  7  8  2  0  0  0
  7  9  1  0  0  0
  7 10  1  0  0  0
  7  5  1  0  0  0
  1  2  2  0  0  0
  1  3  1  0  0  0
  1  5  1  0  0  0
  1 13  1  0  0  0
 14 15  2  0  0  0
 14 16  1  0  0  0
 14 13  1  0  0  0
 14 17  1  0  0  0
  9 11  1  0  0  0
 10 12  1  0  0  0
  3  4  1  0  0  0
  5  6  1  0  0  0
 16 18  1  0  0  0
 17 19  1  0  0  0
M  END
> <minimizedAffinity>
-6.98716

$$$$
3G3R_ANP_A_1000


 19 18  0  0  0  0  0  0  0  0999 V2000
   11.9541   13.7492   14.4676 P   0  0  0  0  0  0  0  0  0  0  0  0
   11.4858   12.7965   15.6418 O   0  0  0  0  0  0  0  0  0  0  0  0
   11.0220   14.6624   13.7714 O   0  0  0  0  0  0  0  0  0  0  0  0
   10.6355   15.2798   14.4119 H   0  0  0  0  0  0  0  0  0  0  0  0
   12.9427   14.7312   15.3571 N   0  0  0  0  0  0  0  0  0  0  0  0
   13.3496   14.1471   16.0876 H   0  0  0  0  0  0  0  0  0  0  0  0
   12.3530   16.0847   16.1111 P   0  0  0  0  0  0  0  0  0  0  0  0
   12.3549   17.2795   15.2442 O   0  0  0  0  0  0  0  0  0  0  0  0
   10.8113   15.8107   16.4573 O   0  0  0  0  0  0  0  0  0  0  0  0
   12.8690   16.1620   17.6049 O   0  0  0  0  0  0  0  0  0  0  0  0
   10.4365   16.5876   16.9010 H   0  0  0  0  0  0  0  0  0  0  0  0
   12.5141   16.9590   18.0288 H   0  0  0  0  0  0  0  0  0  0  0  0
   12.6377   12.6990   13.4980 O   0  0  0  0  0  0  0  0  0  0  0  0
   13.6843   11.5311   13.6311 P   0  0  0  0  0  0  0  0  0  0  0  0
   12.7955   10.2380   13.6274 O   0  0  0  0  0  0  0  0  0  0  0  0
   14.3733   11.3898   15.0303 O   0  0  0  0  0  0  0  0  0  0  0  0
   14.6123   11.7228   12.5049 O   0  0  0  0  0  0  0  0  0  0  0  0
   13.6957   11.2675   15.7135 H   0  0  0  0  0  0  0  0  0  0  0  0
   15.2916   11.0306   12.5244 H   0  0  0  0  0  0  0  0  0  0  0  0
  7  8  2  0  0  0
  7  9  1  0  0  0
  7 10  1  0  0  0
  7  5  1  0  0  0
  1  2  2  0  0  0
  1  3  1  0  0  0
  1  5  1  0  0  0
  1 13  1  0  0  0
 14 15  2  0  0  0
 14 16  1  0  0  0
 14 13  1  0  0  0
 14 17  1  0  0  0
  9 11  1  0  0  0
 10 12  1  0  0  0
  3  4  1  0  0  0
  5  6  1  0  0  0
 16 18  1  0  0  0
 17 19  1  0  0  0
M  END
> <minimizedAffinity>
-6.87344

$$$$
