5NKH_8ZQ_A_1001


 45 49  0  0  0  0  0  0  0  0999 V2000
  121.3529   14.2979   47.0649 C   0  0  0  0  0  0  0  0  0  0  0  0
  122.6065   14.5174   46.5125 C   0  0  0  0  0  0  0  0  0  0  0  0
  120.2650   14.4757   46.2672 C   0  0  0  0  0  0  0  0  0  0  0  0
  120.4110   14.8530   44.9478 C   0  0  0  0  0  0  0  0  0  0  0  0
  121.6951   15.0739   44.4604 C   0  0  0  0  0  0  0  0  0  0  0  0
  122.8329   14.8966   45.2151 C   0  0  0  0  0  0  0  0  0  0  0  0
  119.2925   14.9939   44.0815 C   0  0  0  0  0  0  0  0  0  0  0  0
  118.6690   16.2472   43.9674 C   0  0  0  0  0  0  0  0  0  0  0  0
  117.5851   16.4256   43.1231 C   0  0  0  0  0  0  0  0  0  0  0  0
  117.1011   15.3972   42.3579 C   0  0  0  0  0  0  0  0  0  0  0  0
  117.7038   14.2109   42.4476 C   0  0  0  0  0  0  0  0  0  0  0  0
  118.7730   14.0066   43.2573 C   0  0  0  0  0  0  0  0  0  0  0  0
  119.3311   12.8446   43.2849 N   0  0  0  0  0  0  0  0  0  0  0  0
  120.1076   12.6853   43.8688 H   0  0  0  0  0  0  0  0  0  0  0  0
  118.9808   12.1168   42.7221 H   0  0  0  0  0  0  0  0  0  0  0  0
  122.1117   14.5611   49.1127 N   0  0  0  0  0  0  0  0  0  0  0  0
  121.2665   13.9310   48.4177 C   0  0  0  0  0  0  0  0  0  0  0  0
  120.7358   12.9269   48.8213 O   0  0  0  0  0  0  0  0  0  0  0  0
  122.6284   15.2693   48.6646 H   0  0  0  0  0  0  0  0  0  0  0  0
  121.7456   15.4401   51.1566 C   0  0  0  0  0  0  0  0  0  0  0  0
  122.4530   15.6154   52.4263 C   0  0  0  0  0  0  0  0  0  0  0  0
  123.8972   15.7641   52.2255 N   0  0  0  0  0  0  0  0  0  0  0  0
  124.3570   14.5122   51.7837 C   0  0  0  0  0  0  0  0  0  0  0  0
  123.8184   14.4353   50.3993 C   0  0  0  0  0  0  0  0  0  0  0  0
  122.3702   14.3365   50.4528 C   0  0  0  0  0  0  0  0  0  0  0  0
  124.3525   16.0200   53.1017 H   0  0  0  0  0  0  0  0  0  0  0  0
  124.1385   15.0587   44.8136 N   0  0  0  0  0  0  0  0  0  0  0  0
  124.3426   14.9113   43.8618 H   0  0  0  0  0  0  0  0  0  0  0  0
  125.1647   15.4053   45.6261 C   0  0  0  0  0  0  0  0  0  0  0  0
  125.1006   16.4070   47.0534 S   0  0  0  0  0  0  0  0  0  0  0  0
  126.4422   15.0587   45.4381 N   0  0  0  0  0  0  0  0  0  0  0  0
  127.3418   15.4917   46.3451 C   0  0  0  0  0  0  0  0  0  0  0  0
  126.8536   16.2598   47.3332 C   0  0  0  0  0  0  0  0  0  0  0  0
  127.4173   16.8387   48.3952 C   0  0  0  0  0  0  0  0  0  0  0  0
  126.7080   17.1339   49.3116 O   0  0  0  0  0  0  0  0  0  0  0  0
  128.7445   17.0565   48.4489 N   0  0  0  0  0  0  0  0  0  0  0  0
  129.3107   16.7898   47.6889 H   0  0  0  0  0  0  0  0  0  0  0  0
  129.3231   17.6478   49.5526 C   0  0  0  0  0  0  0  0  0  0  0  0
  129.7909   16.8353   50.5684 C   0  0  0  0  0  0  0  0  0  0  0  0
  129.6889   15.1149   50.4569 Cl  0  0  0  0  0  0  0  0  0  0  0  0
  130.3807   17.3788   51.6807 C   0  0  0  0  0  0  0  0  0  0  0  0
  130.5445   18.7342   51.7405 C   0  0  0  0  0  0  0  0  0  0  0  0
  130.0577   19.5475   50.7381 C   0  0  0  0  0  0  0  0  0  0  0  0
  129.4583   19.0328   49.6153 C   0  0  0  0  0  0  0  0  0  0  0  0
  128.9943   19.9458   48.5433 C   0  0  0  0  0  0  0  0  0  0  0  0
 21 20  1  0  0  0
 21 22  1  0  0  0
 23 22  1  0  0  0
 23 24  1  0  0  0
 20 25  1  0  0  0
 18 17  2  0  0  0
 25 24  1  0  0  0
 25 16  1  0  0  0
 17 16  1  0  0  0
 17  1  1  0  0  0
  2  1  2  0  0  0
  2  6  1  0  0  0
  1  3  1  0  0  0
 27  6  1  0  0  0
 27 29  1  0  0  0
 31 29  2  0  0  0
 31 32  1  0  0  0
  6  5  2  0  0  0
  3  4  2  0  0  0
 29 30  1  0  0  0
 32 33  2  0  0  0
  5  4  1  0  0  0
  4  7  1  0  0  0
 33 30  1  0  0  0
 33 34  1  0  0  0
  7 12  2  0  0  0
  7  8  1  0  0  0
 13 12  1  0  0  0
 45 44  1  0  0  0
 36 34  1  0  0  0
 36 38  1  0  0  0
 34 35  2  0  0  0
 12 11  1  0  0  0
  8  9  2  0  0  0
 44 38  2  0  0  0
 44 43  1  0  0  0
 38 39  1  0  0  0
 11 10  2  0  0  0
  9 10  1  0  0  0
 40 39  1  0  0  0
 39 41  2  0  0  0
 43 42  2  0  0  0
 42 41  1  0  0  0
 22 26  1  0  0  0
 16 19  1  0  0  0
 13 14  1  0  0  0
 13 15  1  0  0  0
 27 28  1  0  0  0
 36 37  1  0  0  0
M  END
> <minimizedAffinity>
-10.49584

$$$$
5NKH_8ZQ_A_1001


 45 49  0  0  0  0  0  0  0  0999 V2000
  120.1640   14.4400   44.5936 C   0  0  0  0  0  0  0  0  0  0  0  0
  121.4983   14.6816   44.3003 C   0  0  0  0  0  0  0  0  0  0  0  0
  119.7905   14.4317   45.9020 C   0  0  0  0  0  0  0  0  0  0  0  0
  120.7130   14.6671   46.9011 C   0  0  0  0  0  0  0  0  0  0  0  0
  122.0387   14.8857   46.5403 C   0  0  0  0  0  0  0  0  0  0  0  0
  122.4727   14.9196   45.2342 C   0  0  0  0  0  0  0  0  0  0  0  0
  120.3364   14.7153   48.2712 C   0  0  0  0  0  0  0  0  0  0  0  0
  120.5317   13.5802   49.0748 C   0  0  0  0  0  0  0  0  0  0  0  0
  120.1893   13.5945   50.4173 C   0  0  0  0  0  0  0  0  0  0  0  0
  119.6724   14.7171   51.0088 C   0  0  0  0  0  0  0  0  0  0  0  0
  119.5052   15.8037   50.2539 C   0  0  0  0  0  0  0  0  0  0  0  0
  119.8396   15.8247   48.9393 C   0  0  0  0  0  0  0  0  0  0  0  0
  119.6789   16.9115   48.2643 N   0  0  0  0  0  0  0  0  0  0  0  0
  119.9183   16.9380   47.3097 H   0  0  0  0  0  0  0  0  0  0  0  0
  119.3169   17.7148   48.7035 H   0  0  0  0  0  0  0  0  0  0  0  0
  118.5260   13.2083   43.7946 N   0  0  0  0  0  0  0  0  0  0  0  0
  119.2750   14.1913   43.5354 C   0  0  0  0  0  0  0  0  0  0  0  0
  119.4201   14.5987   42.4103 O   0  0  0  0  0  0  0  0  0  0  0  0
  118.5818   12.8227   44.6987 H   0  0  0  0  0  0  0  0  0  0  0  0
  116.3217   12.8420   43.4919 C   0  0  0  0  0  0  0  0  0  0  0  0
  115.4359   11.7915   42.9871 C   0  0  0  0  0  0  0  0  0  0  0  0
  115.9928   10.4557   43.2192 N   0  0  0  0  0  0  0  0  0  0  0  0
  117.1112   10.3514   42.3753 C   0  0  0  0  0  0  0  0  0  0  0  0
  118.0966   11.2576   43.0238 C   0  0  0  0  0  0  0  0  0  0  0  0
  117.6334   12.6297   42.9105 C   0  0  0  0  0  0  0  0  0  0  0  0
  115.3049    9.7395   42.9863 H   0  0  0  0  0  0  0  0  0  0  0  0
  123.7494   15.1586   44.7815 N   0  0  0  0  0  0  0  0  0  0  0  0
  123.9034   15.1100   43.8103 H   0  0  0  0  0  0  0  0  0  0  0  0
  124.8107   15.4555   45.5681 C   0  0  0  0  0  0  0  0  0  0  0  0
  124.8267   16.4458   47.0047 S   0  0  0  0  0  0  0  0  0  0  0  0
  126.0674   15.0587   45.3423 N   0  0  0  0  0  0  0  0  0  0  0  0
  127.0083   15.4462   46.2276 C   0  0  0  0  0  0  0  0  0  0  0  0
  126.5791   16.2246   47.2348 C   0  0  0  0  0  0  0  0  0  0  0  0
  127.1948   16.7702   48.2856 C   0  0  0  0  0  0  0  0  0  0  0  0
  126.5372   17.0089   49.2554 O   0  0  0  0  0  0  0  0  0  0  0  0
  128.5180   17.0166   48.2685 N   0  0  0  0  0  0  0  0  0  0  0  0
  129.0419   16.7963   47.4646 H   0  0  0  0  0  0  0  0  0  0  0  0
  129.1509   17.5732   49.3605 C   0  0  0  0  0  0  0  0  0  0  0  0
  129.6572   16.7297   50.3316 C   0  0  0  0  0  0  0  0  0  0  0  0
  129.5357   15.0138   50.1782 Cl  0  0  0  0  0  0  0  0  0  0  0  0
  130.3013   17.2382   51.4303 C   0  0  0  0  0  0  0  0  0  0  0  0
  130.4791   18.5903   51.5193 C   0  0  0  0  0  0  0  0  0  0  0  0
  129.9544   19.4342   50.5625 C   0  0  0  0  0  0  0  0  0  0  0  0
  129.3005   18.9549   49.4546 C   0  0  0  0  0  0  0  0  0  0  0  0
  128.7962   19.9004   48.4299 C   0  0  0  0  0  0  0  0  0  0  0  0
 21 20  1  0  0  0
 21 22  1  0  0  0
 23 22  1  0  0  0
 23 24  1  0  0  0
 20 25  1  0  0  0
 18 17  2  0  0  0
 25 24  1  0  0  0
 25 16  1  0  0  0
 17 16  1  0  0  0
 17  1  1  0  0  0
  2  1  2  0  0  0
  2  6  1  0  0  0
  1  3  1  0  0  0
 27  6  1  0  0  0
 27 29  1  0  0  0
 31 29  2  0  0  0
 31 32  1  0  0  0
  6  5  2  0  0  0
  3  4  2  0  0  0
 29 30  1  0  0  0
 32 33  2  0  0  0
  5  4  1  0  0  0
  4  7  1  0  0  0
 33 30  1  0  0  0
 33 34  1  0  0  0
  7 12  2  0  0  0
  7  8  1  0  0  0
 13 12  1  0  0  0
 45 44  1  0  0  0
 36 34  1  0  0  0
 36 38  1  0  0  0
 34 35  2  0  0  0
 12 11  1  0  0  0
  8  9  2  0  0  0
 44 38  2  0  0  0
 44 43  1  0  0  0
 38 39  1  0  0  0
 11 10  2  0  0  0
  9 10  1  0  0  0
 40 39  1  0  0  0
 39 41  2  0  0  0
 43 42  2  0  0  0
 42 41  1  0  0  0
 22 26  1  0  0  0
 16 19  1  0  0  0
 13 14  1  0  0  0
 13 15  1  0  0  0
 27 28  1  0  0  0
 36 37  1  0  0  0
M  END
> <minimizedAffinity>
-10.34291

$$$$
5NKH_8ZQ_A_1001


 45 49  0  0  0  0  0  0  0  0999 V2000
  121.1449   14.1579   47.0640 C   0  0  0  0  0  0  0  0  0  0  0  0
  122.4001   14.3501   46.5053 C   0  0  0  0  0  0  0  0  0  0  0  0
  120.0612   14.5776   46.3562 C   0  0  0  0  0  0  0  0  0  0  0  0
  120.2120   15.1663   45.1171 C   0  0  0  0  0  0  0  0  0  0  0  0
  121.4994   15.3453   44.6212 C   0  0  0  0  0  0  0  0  0  0  0  0
  122.6316   14.9290   45.2848 C   0  0  0  0  0  0  0  0  0  0  0  0
  119.0925   15.5648   44.3366 C   0  0  0  0  0  0  0  0  0  0  0  0
  118.1956   16.5105   44.8598 C   0  0  0  0  0  0  0  0  0  0  0  0
  117.1009   16.9328   44.1229 C   0  0  0  0  0  0  0  0  0  0  0  0
  116.8696   16.4621   42.8571 C   0  0  0  0  0  0  0  0  0  0  0  0
  117.7308   15.5799   42.3486 C   0  0  0  0  0  0  0  0  0  0  0  0
  118.8171   15.1540   43.0407 C   0  0  0  0  0  0  0  0  0  0  0  0
  119.6294   14.3184   42.4890 N   0  0  0  0  0  0  0  0  0  0  0  0
  120.4209   14.0027   42.9821 H   0  0  0  0  0  0  0  0  0  0  0  0
  119.4582   13.9960   41.5747 H   0  0  0  0  0  0  0  0  0  0  0  0
  119.9478   13.8331   48.8807 N   0  0  0  0  0  0  0  0  0  0  0  0
  121.0553   13.5679   48.3352 C   0  0  0  0  0  0  0  0  0  0  0  0
  121.9984   13.1732   48.9738 O   0  0  0  0  0  0  0  0  0  0  0  0
  119.2776   14.3070   48.3372 H   0  0  0  0  0  0  0  0  0  0  0  0
  118.3704   12.7502   50.0738 C   0  0  0  0  0  0  0  0  0  0  0  0
  117.6444   12.8993   51.3363 C   0  0  0  0  0  0  0  0  0  0  0  0
  117.4562   14.3093   51.6896 N   0  0  0  0  0  0  0  0  0  0  0  0
  118.7333   14.8024   52.0053 C   0  0  0  0  0  0  0  0  0  0  0  0
  119.3994   14.8615   50.6765 C   0  0  0  0  0  0  0  0  0  0  0  0
  119.6005   13.5113   50.1802 C   0  0  0  0  0  0  0  0  0  0  0  0
  116.8348   14.3933   52.4941 H   0  0  0  0  0  0  0  0  0  0  0  0
  123.9365   15.0332   44.8623 N   0  0  0  0  0  0  0  0  0  0  0  0
  124.1245   14.8375   43.9160 H   0  0  0  0  0  0  0  0  0  0  0  0
  124.9824   15.3842   45.6473 C   0  0  0  0  0  0  0  0  0  0  0  0
  124.9511   16.3814   47.0790 S   0  0  0  0  0  0  0  0  0  0  0  0
  126.2565   15.0466   45.4232 N   0  0  0  0  0  0  0  0  0  0  0  0
  127.1779   15.4829   46.3065 C   0  0  0  0  0  0  0  0  0  0  0  0
  126.7121   16.2450   47.3099 C   0  0  0  0  0  0  0  0  0  0  0  0
  127.3010   16.8245   48.3578 C   0  0  0  0  0  0  0  0  0  0  0  0
  126.6151   17.1134   49.2938 O   0  0  0  0  0  0  0  0  0  0  0  0
  128.6279   17.0498   48.3761 N   0  0  0  0  0  0  0  0  0  0  0  0
  129.1749   16.7882   47.6004 H   0  0  0  0  0  0  0  0  0  0  0  0
  129.2328   17.6417   49.4653 C   0  0  0  0  0  0  0  0  0  0  0  0
  129.7034   16.8311   50.4813 C   0  0  0  0  0  0  0  0  0  0  0  0
  129.5723   15.1116   50.3874 Cl  0  0  0  0  0  0  0  0  0  0  0  0
  130.3189   17.3752   51.5793 C   0  0  0  0  0  0  0  0  0  0  0  0
  130.5050   18.7283   51.6240 C   0  0  0  0  0  0  0  0  0  0  0  0
  130.0157   19.5401   50.6217 C   0  0  0  0  0  0  0  0  0  0  0  0
  129.3909   19.0249   49.5131 C   0  0  0  0  0  0  0  0  0  0  0  0
  128.9249   19.9355   48.4398 C   0  0  0  0  0  0  0  0  0  0  0  0
 21 20  1  0  0  0
 21 22  1  0  0  0
 23 22  1  0  0  0
 23 24  1  0  0  0
 20 25  1  0  0  0
 18 17  2  0  0  0
 25 24  1  0  0  0
 25 16  1  0  0  0
 17 16  1  0  0  0
 17  1  1  0  0  0
  2  1  2  0  0  0
  2  6  1  0  0  0
  1  3  1  0  0  0
 27  6  1  0  0  0
 27 29  1  0  0  0
 31 29  2  0  0  0
 31 32  1  0  0  0
  6  5  2  0  0  0
  3  4  2  0  0  0
 29 30  1  0  0  0
 32 33  2  0  0  0
  5  4  1  0  0  0
  4  7  1  0  0  0
 33 30  1  0  0  0
 33 34  1  0  0  0
  7 12  2  0  0  0
  7  8  1  0  0  0
 13 12  1  0  0  0
 45 44  1  0  0  0
 36 34  1  0  0  0
 36 38  1  0  0  0
 34 35  2  0  0  0
 12 11  1  0  0  0
  8  9  2  0  0  0
 44 38  2  0  0  0
 44 43  1  0  0  0
 38 39  1  0  0  0
 11 10  2  0  0  0
  9 10  1  0  0  0
 40 39  1  0  0  0
 39 41  2  0  0  0
 43 42  2  0  0  0
 42 41  1  0  0  0
 22 26  1  0  0  0
 16 19  1  0  0  0
 13 14  1  0  0  0
 13 15  1  0  0  0
 27 28  1  0  0  0
 36 37  1  0  0  0
M  END
> <minimizedAffinity>
-9.98448

$$$$
5NKH_8ZQ_A_1001


 45 49  0  0  0  0  0  0  0  0999 V2000
  120.0377   15.4744   44.5779 C   0  0  0  0  0  0  0  0  0  0  0  0
  121.3828   15.1879   44.3953 C   0  0  0  0  0  0  0  0  0  0  0  0
  119.5845   15.6206   45.8525 C   0  0  0  0  0  0  0  0  0  0  0  0
  120.4433   15.4966   46.9257 C   0  0  0  0  0  0  0  0  0  0  0  0
  121.7771   15.1915   46.6747 C   0  0  0  0  0  0  0  0  0  0  0  0
  122.2956   15.0459   45.4077 C   0  0  0  0  0  0  0  0  0  0  0  0
  120.0037   15.6968   48.2629 C   0  0  0  0  0  0  0  0  0  0  0  0
  120.0555   16.9875   48.8142 C   0  0  0  0  0  0  0  0  0  0  0  0
  119.6232   17.2232   50.1093 C   0  0  0  0  0  0  0  0  0  0  0  0
  119.1123   16.2154   50.8843 C   0  0  0  0  0  0  0  0  0  0  0  0
  119.0418   14.9925   50.3570 C   0  0  0  0  0  0  0  0  0  0  0  0
  119.4476   14.7313   49.0891 C   0  0  0  0  0  0  0  0  0  0  0  0
  119.3329   13.5345   48.6234 N   0  0  0  0  0  0  0  0  0  0  0  0
  119.6243   13.3338   47.7046 H   0  0  0  0  0  0  0  0  0  0  0  0
  118.9540   12.8214   49.1865 H   0  0  0  0  0  0  0  0  0  0  0  0
  118.1375   16.1805   43.7238 N   0  0  0  0  0  0  0  0  0  0  0  0
  119.2095   15.5729   43.4480 C   0  0  0  0  0  0  0  0  0  0  0  0
  119.3148   14.8886   42.4613 O   0  0  0  0  0  0  0  0  0  0  0  0
  118.0617   16.5806   44.6201 H   0  0  0  0  0  0  0  0  0  0  0  0
  116.8198   17.7574   42.7957 C   0  0  0  0  0  0  0  0  0  0  0  0
  115.4122   17.9537   42.4444 C   0  0  0  0  0  0  0  0  0  0  0  0
  114.5206   17.2339   43.3583 N   0  0  0  0  0  0  0  0  0  0  0  0
  114.7190   15.8680   43.0958 C   0  0  0  0  0  0  0  0  0  0  0  0
  116.0724   15.6190   43.6606 C   0  0  0  0  0  0  0  0  0  0  0  0
  117.0611   16.3291   42.8680 C   0  0  0  0  0  0  0  0  0  0  0  0
  113.5495   17.4913   43.1822 H   0  0  0  0  0  0  0  0  0  0  0  0
  123.5995   14.7774   45.0616 N   0  0  0  0  0  0  0  0  0  0  0  0
  123.7529   14.2408   44.2506 H   0  0  0  0  0  0  0  0  0  0  0  0
  124.6884   15.1941   45.7501 C   0  0  0  0  0  0  0  0  0  0  0  0
  124.7231   16.0536   47.2683 S   0  0  0  0  0  0  0  0  0  0  0  0
  125.9542   15.0459   45.3458 N   0  0  0  0  0  0  0  0  0  0  0  0
  126.9230   15.5223   46.1544 C   0  0  0  0  0  0  0  0  0  0  0  0
  126.5027   16.1292   47.2768 C   0  0  0  0  0  0  0  0  0  0  0  0
  127.1483   16.6898   48.3015 C   0  0  0  0  0  0  0  0  0  0  0  0
  126.5235   16.9233   49.2939 O   0  0  0  0  0  0  0  0  0  0  0  0
  128.4660   16.9564   48.2341 N   0  0  0  0  0  0  0  0  0  0  0  0
  128.9631   16.7399   47.4124 H   0  0  0  0  0  0  0  0  0  0  0  0
  129.1301   17.5282   49.2993 C   0  0  0  0  0  0  0  0  0  0  0  0
  129.7053   16.6974   50.2425 C   0  0  0  0  0  0  0  0  0  0  0  0
  129.6294   14.9791   50.0864 Cl  0  0  0  0  0  0  0  0  0  0  0  0
  130.3824   17.2216   51.3136 C   0  0  0  0  0  0  0  0  0  0  0  0
  130.5226   18.5781   51.4012 C   0  0  0  0  0  0  0  0  0  0  0  0
  129.9298   19.4089   50.4730 C   0  0  0  0  0  0  0  0  0  0  0  0
  129.2416   18.9136   49.3932 C   0  0  0  0  0  0  0  0  0  0  0  0
  128.6630   19.8467   48.3968 C   0  0  0  0  0  0  0  0  0  0  0  0
 21 20  1  0  0  0
 21 22  1  0  0  0
 23 22  1  0  0  0
 23 24  1  0  0  0
 20 25  1  0  0  0
 18 17  2  0  0  0
 25 24  1  0  0  0
 25 16  1  0  0  0
 17 16  1  0  0  0
 17  1  1  0  0  0
  2  1  2  0  0  0
  2  6  1  0  0  0
  1  3  1  0  0  0
 27  6  1  0  0  0
 27 29  1  0  0  0
 31 29  2  0  0  0
 31 32  1  0  0  0
  6  5  2  0  0  0
  3  4  2  0  0  0
 29 30  1  0  0  0
 32 33  2  0  0  0
  5  4  1  0  0  0
  4  7  1  0  0  0
 33 30  1  0  0  0
 33 34  1  0  0  0
  7 12  2  0  0  0
  7  8  1  0  0  0
 13 12  1  0  0  0
 45 44  1  0  0  0
 36 34  1  0  0  0
 36 38  1  0  0  0
 34 35  2  0  0  0
 12 11  1  0  0  0
  8  9  2  0  0  0
 44 38  2  0  0  0
 44 43  1  0  0  0
 38 39  1  0  0  0
 11 10  2  0  0  0
  9 10  1  0  0  0
 40 39  1  0  0  0
 39 41  2  0  0  0
 43 42  2  0  0  0
 42 41  1  0  0  0
 22 26  1  0  0  0
 16 19  1  0  0  0
 13 14  1  0  0  0
 13 15  1  0  0  0
 27 28  1  0  0  0
 36 37  1  0  0  0
M  END
> <minimizedAffinity>
-9.93418

$$$$
5NKH_8ZQ_A_1001


 45 49  0  0  0  0  0  0  0  0999 V2000
  120.4737   15.1918   45.2095 C   0  0  0  0  0  0  0  0  0  0  0  0
  121.7918   15.0393   44.8042 C   0  0  0  0  0  0  0  0  0  0  0  0
  120.2417   15.5559   46.4998 C   0  0  0  0  0  0  0  0  0  0  0  0
  121.2895   15.7751   47.3709 C   0  0  0  0  0  0  0  0  0  0  0  0
  122.5873   15.5882   46.9060 C   0  0  0  0  0  0  0  0  0  0  0  0
  122.8839   15.2344   45.6089 C   0  0  0  0  0  0  0  0  0  0  0  0
  121.0733   16.2067   48.7081 C   0  0  0  0  0  0  0  0  0  0  0  0
  121.1324   17.5788   49.0022 C   0  0  0  0  0  0  0  0  0  0  0  0
  120.9137   18.0376   50.2912 C   0  0  0  0  0  0  0  0  0  0  0  0
  120.6118   17.1757   51.3126 C   0  0  0  0  0  0  0  0  0  0  0  0
  120.5339   15.8741   51.0330 C   0  0  0  0  0  0  0  0  0  0  0  0
  120.7330   15.3944   49.7797 C   0  0  0  0  0  0  0  0  0  0  0  0
  120.6205   14.1283   49.5630 N   0  0  0  0  0  0  0  0  0  0  0  0
  120.7628   13.7694   48.6574 H   0  0  0  0  0  0  0  0  0  0  0  0
  120.3923   13.5206   50.3032 H   0  0  0  0  0  0  0  0  0  0  0  0
  118.5338   14.2395   44.7987 N   0  0  0  0  0  0  0  0  0  0  0  0
  119.4494   14.9393   44.2826 C   0  0  0  0  0  0  0  0  0  0  0  0
  119.5656   15.0504   43.0880 O   0  0  0  0  0  0  0  0  0  0  0  0
  118.5952   14.0542   45.7637 H   0  0  0  0  0  0  0  0  0  0  0  0
  116.3243   14.5520   44.4749 C   0  0  0  0  0  0  0  0  0  0  0  0
  115.1073   13.7535   44.3179 C   0  0  0  0  0  0  0  0  0  0  0  0
  115.1858   12.4944   45.0641 N   0  0  0  0  0  0  0  0  0  0  0  0
  116.1548   11.7164   44.4085 C   0  0  0  0  0  0  0  0  0  0  0  0
  117.4234   12.4094   44.7592 C   0  0  0  0  0  0  0  0  0  0  0  0
  117.4516   13.7123   44.1176 C   0  0  0  0  0  0  0  0  0  0  0  0
  114.2833   12.0193   45.0537 H   0  0  0  0  0  0  0  0  0  0  0  0
  124.1294   15.0587   45.0522 N   0  0  0  0  0  0  0  0  0  0  0  0
  124.1707   14.7104   44.1323 H   0  0  0  0  0  0  0  0  0  0  0  0
  125.3031   15.3276   45.6715 C   0  0  0  0  0  0  0  0  0  0  0  0
  125.5397   16.1441   47.1955 S   0  0  0  0  0  0  0  0  0  0  0  0
  126.5128   15.0382   45.1811 N   0  0  0  0  0  0  0  0  0  0  0  0
  127.5824   15.3782   45.9292 C   0  0  0  0  0  0  0  0  0  0  0  0
  127.3122   16.0067   47.0854 C   0  0  0  0  0  0  0  0  0  0  0  0
  128.0859   16.4641   48.0718 C   0  0  0  0  0  0  0  0  0  0  0  0
  129.1905   16.0162   48.1677 O   0  0  0  0  0  0  0  0  0  0  0  0
  127.6510   17.4201   48.9136 N   0  0  0  0  0  0  0  0  0  0  0  0
  126.7433   17.7857   48.8048 H   0  0  0  0  0  0  0  0  0  0  0  0
  128.4578   17.8952   49.9265 C   0  0  0  0  0  0  0  0  0  0  0  0
  129.2144   19.0281   49.6922 C   0  0  0  0  0  0  0  0  0  0  0  0
  129.1367   19.8591   48.1802 Cl  0  0  0  0  0  0  0  0  0  0  0  0
  130.0246   19.5408   50.6726 C   0  0  0  0  0  0  0  0  0  0  0  0
  130.0284   18.9415   51.9008 C   0  0  0  0  0  0  0  0  0  0  0  0
  129.2913   17.7979   52.1287 C   0  0  0  0  0  0  0  0  0  0  0  0
  128.4753   17.2585   51.1653 C   0  0  0  0  0  0  0  0  0  0  0  0
  127.6660   16.0552   51.4742 C   0  0  0  0  0  0  0  0  0  0  0  0
 21 20  1  0  0  0
 21 22  1  0  0  0
 23 22  1  0  0  0
 23 24  1  0  0  0
 20 25  1  0  0  0
 18 17  2  0  0  0
 25 24  1  0  0  0
 25 16  1  0  0  0
 17 16  1  0  0  0
 17  1  1  0  0  0
  2  1  2  0  0  0
  2  6  1  0  0  0
  1  3  1  0  0  0
 27  6  1  0  0  0
 27 29  1  0  0  0
 31 29  2  0  0  0
 31 32  1  0  0  0
  6  5  2  0  0  0
  3  4  2  0  0  0
 29 30  1  0  0  0
 32 33  2  0  0  0
  5  4  1  0  0  0
  4  7  1  0  0  0
 33 30  1  0  0  0
 33 34  1  0  0  0
  7 12  2  0  0  0
  7  8  1  0  0  0
 13 12  1  0  0  0
 45 44  1  0  0  0
 36 34  1  0  0  0
 36 38  1  0  0  0
 34 35  2  0  0  0
 12 11  1  0  0  0
  8  9  2  0  0  0
 44 38  2  0  0  0
 44 43  1  0  0  0
 38 39  1  0  0  0
 11 10  2  0  0  0
  9 10  1  0  0  0
 40 39  1  0  0  0
 39 41  2  0  0  0
 43 42  2  0  0  0
 42 41  1  0  0  0
 22 26  1  0  0  0
 16 19  1  0  0  0
 13 14  1  0  0  0
 13 15  1  0  0  0
 27 28  1  0  0  0
 36 37  1  0  0  0
M  END
> <minimizedAffinity>
-9.79268

$$$$
5NKH_8ZQ_A_1001


 45 49  0  0  0  0  0  0  0  0999 V2000
  121.3536   16.4140   47.7733 C   0  0  0  0  0  0  0  0  0  0  0  0
  122.4832   15.8799   47.1704 C   0  0  0  0  0  0  0  0  0  0  0  0
  120.1546   16.2292   47.1571 C   0  0  0  0  0  0  0  0  0  0  0  0
  120.0700   15.5227   45.9746 C   0  0  0  0  0  0  0  0  0  0  0  0
  121.2428   15.0279   45.4134 C   0  0  0  0  0  0  0  0  0  0  0  0
  122.4814   15.1713   45.9973 C   0  0  0  0  0  0  0  0  0  0  0  0
  118.8226   15.2721   45.3402 C   0  0  0  0  0  0  0  0  0  0  0  0
  118.3732   16.1525   44.3426 C   0  0  0  0  0  0  0  0  0  0  0  0
  117.1692   15.9330   43.6930 C   0  0  0  0  0  0  0  0  0  0  0  0
  116.3910   14.8434   43.9840 C   0  0  0  0  0  0  0  0  0  0  0  0
  116.8246   13.9935   44.9159 C   0  0  0  0  0  0  0  0  0  0  0  0
  118.0031   14.1752   45.5627 C   0  0  0  0  0  0  0  0  0  0  0  0
  118.3838   13.3074   46.4371 N   0  0  0  0  0  0  0  0  0  0  0  0
  119.2372   13.4293   46.9125 H   0  0  0  0  0  0  0  0  0  0  0  0
  117.8209   12.5229   46.6294 H   0  0  0  0  0  0  0  0  0  0  0  0
  122.3877   16.6158   49.7043 N   0  0  0  0  0  0  0  0  0  0  0  0
  121.5043   17.1369   48.9678 C   0  0  0  0  0  0  0  0  0  0  0  0
  120.6923   17.9136   49.4041 O   0  0  0  0  0  0  0  0  0  0  0  0
  122.9078   15.8692   49.3281 H   0  0  0  0  0  0  0  0  0  0  0  0
  124.1309   17.0799   51.0571 C   0  0  0  0  0  0  0  0  0  0  0  0
  124.5281   16.8854   52.4527 C   0  0  0  0  0  0  0  0  0  0  0  0
  123.9574   15.6567   53.0120 N   0  0  0  0  0  0  0  0  0  0  0  0
  122.5744   15.8832   53.1111 C   0  0  0  0  0  0  0  0  0  0  0  0
  122.1354   15.8564   51.6901 C   0  0  0  0  0  0  0  0  0  0  0  0
  122.6835   17.0092   50.9969 C   0  0  0  0  0  0  0  0  0  0  0  0
  124.3530   15.4695   53.9333 H   0  0  0  0  0  0  0  0  0  0  0  0
  123.6856   14.6921   45.5364 N   0  0  0  0  0  0  0  0  0  0  0  0
  123.6619   14.0217   44.8159 H   0  0  0  0  0  0  0  0  0  0  0  0
  124.9011   15.0712   45.9972 C   0  0  0  0  0  0  0  0  0  0  0  0
  125.2828   15.7524   47.5577 S   0  0  0  0  0  0  0  0  0  0  0  0
  126.0372   15.0215   45.2940 N   0  0  0  0  0  0  0  0  0  0  0  0
  127.1636   15.4413   45.9059 C   0  0  0  0  0  0  0  0  0  0  0  0
  127.0130   15.8985   47.1601 C   0  0  0  0  0  0  0  0  0  0  0  0
  127.8754   16.3640   48.0658 C   0  0  0  0  0  0  0  0  0  0  0  0
  128.9973   15.9518   48.0312 O   0  0  0  0  0  0  0  0  0  0  0  0
  127.5055   17.2897   48.9703 N   0  0  0  0  0  0  0  0  0  0  0  0
  126.5804   17.6265   48.9688 H   0  0  0  0  0  0  0  0  0  0  0  0
  128.4032   17.7736   49.8991 C   0  0  0  0  0  0  0  0  0  0  0  0
  129.0740   18.9494   49.6195 C   0  0  0  0  0  0  0  0  0  0  0  0
  128.7807   19.8210   48.1576 Cl  0  0  0  0  0  0  0  0  0  0  0  0
  129.9694   19.4720   50.5171 C   0  0  0  0  0  0  0  0  0  0  0  0
  130.1452   18.8366   51.7141 C   0  0  0  0  0  0  0  0  0  0  0  0
  129.4936   17.6512   51.9848 C   0  0  0  0  0  0  0  0  0  0  0  0
  128.5956   17.1012   51.1038 C   0  0  0  0  0  0  0  0  0  0  0  0
  127.8845   15.8502   51.4610 C   0  0  0  0  0  0  0  0  0  0  0  0
 21 20  1  0  0  0
 21 22  1  0  0  0
 23 22  1  0  0  0
 23 24  1  0  0  0
 20 25  1  0  0  0
 18 17  2  0  0  0
 25 24  1  0  0  0
 25 16  1  0  0  0
 17 16  1  0  0  0
 17  1  1  0  0  0
  2  1  2  0  0  0
  2  6  1  0  0  0
  1  3  1  0  0  0
 27  6  1  0  0  0
 27 29  1  0  0  0
 31 29  2  0  0  0
 31 32  1  0  0  0
  6  5  2  0  0  0
  3  4  2  0  0  0
 29 30  1  0  0  0
 32 33  2  0  0  0
  5  4  1  0  0  0
  4  7  1  0  0  0
 33 30  1  0  0  0
 33 34  1  0  0  0
  7 12  2  0  0  0
  7  8  1  0  0  0
 13 12  1  0  0  0
 45 44  1  0  0  0
 36 34  1  0  0  0
 36 38  1  0  0  0
 34 35  2  0  0  0
 12 11  1  0  0  0
  8  9  2  0  0  0
 44 38  2  0  0  0
 44 43  1  0  0  0
 38 39  1  0  0  0
 11 10  2  0  0  0
  9 10  1  0  0  0
 40 39  1  0  0  0
 39 41  2  0  0  0
 43 42  2  0  0  0
 42 41  1  0  0  0
 22 26  1  0  0  0
 16 19  1  0  0  0
 13 14  1  0  0  0
 13 15  1  0  0  0
 27 28  1  0  0  0
 36 37  1  0  0  0
M  END
> <minimizedAffinity>
-9.39350

$$$$
5NKH_8ZQ_A_1001


 45 49  0  0  0  0  0  0  0  0999 V2000
  121.0258   14.8594   47.0243 C   0  0  0  0  0  0  0  0  0  0  0  0
  122.2593   15.1209   46.4456 C   0  0  0  0  0  0  0  0  0  0  0  0
  119.9979   14.5109   46.2037 C   0  0  0  0  0  0  0  0  0  0  0  0
  120.1854   14.4125   44.8400 C   0  0  0  0  0  0  0  0  0  0  0  0
  121.4428   14.7047   44.3216 C   0  0  0  0  0  0  0  0  0  0  0  0
  122.5231   15.0487   45.1026 C   0  0  0  0  0  0  0  0  0  0  0  0
  119.1405   13.9994   43.9689 C   0  0  0  0  0  0  0  0  0  0  0  0
  118.9059   12.6270   43.7843 C   0  0  0  0  0  0  0  0  0  0  0  0
  117.8879   12.1872   42.9536 C   0  0  0  0  0  0  0  0  0  0  0  0
  117.0655   13.0707   42.3052 C   0  0  0  0  0  0  0  0  0  0  0  0
  117.2717   14.3747   42.4946 C   0  0  0  0  0  0  0  0  0  0  0  0
  118.2533   14.8369   43.3089 C   0  0  0  0  0  0  0  0  0  0  0  0
  118.3904   16.1084   43.4736 N   0  0  0  0  0  0  0  0  0  0  0  0
  119.0994   16.4548   44.0623 H   0  0  0  0  0  0  0  0  0  0  0  0
  117.7861   16.7327   43.0108 H   0  0  0  0  0  0  0  0  0  0  0  0
  119.7761   14.5492   48.8077 N   0  0  0  0  0  0  0  0  0  0  0  0
  120.8919   14.9917   48.4159 C   0  0  0  0  0  0  0  0  0  0  0  0
  121.5580   15.7273   49.1001 O   0  0  0  0  0  0  0  0  0  0  0  0
  119.2102   14.0953   48.1421 H   0  0  0  0  0  0  0  0  0  0  0  0
  119.1603   13.2859   50.5710 C   0  0  0  0  0  0  0  0  0  0  0  0
  118.1301   13.2685   51.6111 C   0  0  0  0  0  0  0  0  0  0  0  0
  116.8759   13.8636   51.1409 N   0  0  0  0  0  0  0  0  0  0  0  0
  117.1345   15.2354   50.9824 C   0  0  0  0  0  0  0  0  0  0  0  0
  118.0084   15.2671   49.7790 C   0  0  0  0  0  0  0  0  0  0  0  0
  119.2847   14.6508   50.0967 C   0  0  0  0  0  0  0  0  0  0  0  0
  116.1357   13.7194   51.8277 H   0  0  0  0  0  0  0  0  0  0  0  0
  123.8051   15.3225   44.6859 N   0  0  0  0  0  0  0  0  0  0  0  0
  123.9707   15.3525   43.7159 H   0  0  0  0  0  0  0  0  0  0  0  0
  124.8568   15.5542   45.5066 C   0  0  0  0  0  0  0  0  0  0  0  0
  124.8923   16.5573   46.9340 S   0  0  0  0  0  0  0  0  0  0  0  0
  126.0898   15.0689   45.3285 N   0  0  0  0  0  0  0  0  0  0  0  0
  127.0245   15.4004   46.2427 C   0  0  0  0  0  0  0  0  0  0  0  0
  126.6162   16.2179   47.2273 C   0  0  0  0  0  0  0  0  0  0  0  0
  127.2318   16.7315   48.2941 C   0  0  0  0  0  0  0  0  0  0  0  0
  126.5681   16.9719   49.2593 O   0  0  0  0  0  0  0  0  0  0  0  0
  128.5609   16.9444   48.2974 N   0  0  0  0  0  0  0  0  0  0  0  0
  129.0894   16.7233   47.4968 H   0  0  0  0  0  0  0  0  0  0  0  0
  129.1936   17.4678   49.4058 C   0  0  0  0  0  0  0  0  0  0  0  0
  129.2857   18.8417   49.5267 C   0  0  0  0  0  0  0  0  0  0  0  0
  128.6002   19.8924   48.3399 Cl  0  0  0  0  0  0  0  0  0  0  0  0
  129.8987   19.4065   50.6157 C   0  0  0  0  0  0  0  0  0  0  0  0
  130.3684   18.5866   51.6029 C   0  0  0  0  0  0  0  0  0  0  0  0
  130.2974   17.2150   51.4726 C   0  0  0  0  0  0  0  0  0  0  0  0
  129.6944   16.6208   50.3918 C   0  0  0  0  0  0  0  0  0  0  0  0
  129.6006   15.1428   50.3205 C   0  0  0  0  0  0  0  0  0  0  0  0
 21 20  1  0  0  0
 21 22  1  0  0  0
 23 22  1  0  0  0
 23 24  1  0  0  0
 20 25  1  0  0  0
 18 17  2  0  0  0
 25 24  1  0  0  0
 25 16  1  0  0  0
 17 16  1  0  0  0
 17  1  1  0  0  0
  2  1  2  0  0  0
  2  6  1  0  0  0
  1  3  1  0  0  0
 27  6  1  0  0  0
 27 29  1  0  0  0
 31 29  2  0  0  0
 31 32  1  0  0  0
  6  5  2  0  0  0
  3  4  2  0  0  0
 29 30  1  0  0  0
 32 33  2  0  0  0
  5  4  1  0  0  0
  4  7  1  0  0  0
 33 30  1  0  0  0
 33 34  1  0  0  0
  7 12  2  0  0  0
  7  8  1  0  0  0
 13 12  1  0  0  0
 45 44  1  0  0  0
 36 34  1  0  0  0
 36 38  1  0  0  0
 34 35  2  0  0  0
 12 11  1  0  0  0
  8  9  2  0  0  0
 44 38  2  0  0  0
 44 43  1  0  0  0
 38 39  1  0  0  0
 11 10  2  0  0  0
  9 10  1  0  0  0
 40 39  1  0  0  0
 39 41  2  0  0  0
 43 42  2  0  0  0
 42 41  1  0  0  0
 22 26  1  0  0  0
 16 19  1  0  0  0
 13 14  1  0  0  0
 13 15  1  0  0  0
 27 28  1  0  0  0
 36 37  1  0  0  0
M  END
> <minimizedAffinity>
-9.17433

$$$$
5NKH_8ZQ_A_1001


 45 49  0  0  0  0  0  0  0  0999 V2000
  120.7698   13.6364   49.1332 C   0  0  0  0  0  0  0  0  0  0  0  0
  121.5478   14.4660   48.3385 C   0  0  0  0  0  0  0  0  0  0  0  0
  119.7254   12.9896   48.5482 C   0  0  0  0  0  0  0  0  0  0  0  0
  119.4594   13.1500   47.2035 C   0  0  0  0  0  0  0  0  0  0  0  0
  120.2675   14.0098   46.4666 C   0  0  0  0  0  0  0  0  0  0  0  0
  121.3456   14.6797   47.0000 C   0  0  0  0  0  0  0  0  0  0  0  0
  118.4065   12.4444   46.5595 C   0  0  0  0  0  0  0  0  0  0  0  0
  118.4159   11.0400   46.5724 C   0  0  0  0  0  0  0  0  0  0  0  0
  117.3996   10.3186   45.9670 C   0  0  0  0  0  0  0  0  0  0  0  0
  116.3451   10.9468   45.3581 C   0  0  0  0  0  0  0  0  0  0  0  0
  116.3217   12.2802   45.3622 C   0  0  0  0  0  0  0  0  0  0  0  0
  117.2962   13.0149   45.9547 C   0  0  0  0  0  0  0  0  0  0  0  0
  117.2086   14.3013   45.9492 N   0  0  0  0  0  0  0  0  0  0  0  0
  117.9101   14.8443   46.3762 H   0  0  0  0  0  0  0  0  0  0  0  0
  116.4403   14.7406   45.5180 H   0  0  0  0  0  0  0  0  0  0  0  0
  122.2995   13.7744   50.7079 N   0  0  0  0  0  0  0  0  0  0  0  0
  121.0794   13.5256   50.4984 C   0  0  0  0  0  0  0  0  0  0  0  0
  120.4033   12.9417   51.3077 O   0  0  0  0  0  0  0  0  0  0  0  0
  122.8323   14.0996   49.9465 H   0  0  0  0  0  0  0  0  0  0  0  0
  123.3156   14.9696   52.3275 C   0  0  0  0  0  0  0  0  0  0  0  0
  124.4738   14.8636   53.2167 C   0  0  0  0  0  0  0  0  0  0  0  0
  125.5610   14.0975   52.6008 N   0  0  0  0  0  0  0  0  0  0  0  0
  125.1045   12.7709   52.5253 C   0  0  0  0  0  0  0  0  0  0  0  0
  124.0752   12.8392   51.4536 C   0  0  0  0  0  0  0  0  0  0  0  0
  122.9478   13.6270   51.9208 C   0  0  0  0  0  0  0  0  0  0  0  0
  126.4021   14.1508   53.1754 H   0  0  0  0  0  0  0  0  0  0  0  0
  122.2162   15.5208   46.3468 N   0  0  0  0  0  0  0  0  0  0  0  0
  121.8393   16.1276   45.6694 H   0  0  0  0  0  0  0  0  0  0  0  0
  123.5515   15.5787   46.5636 C   0  0  0  0  0  0  0  0  0  0  0  0
  124.4030   16.5999   47.6936 S   0  0  0  0  0  0  0  0  0  0  0  0
  124.4680   14.8693   45.8969 N   0  0  0  0  0  0  0  0  0  0  0  0
  125.7603   15.0497   46.2385 C   0  0  0  0  0  0  0  0  0  0  0  0
  125.9900   15.9573   47.2018 C   0  0  0  0  0  0  0  0  0  0  0  0
  127.1037   16.3800   47.8034 C   0  0  0  0  0  0  0  0  0  0  0  0
  128.1360   16.2641   47.2111 O   0  0  0  0  0  0  0  0  0  0  0  0
  127.0655   16.9464   49.0239 N   0  0  0  0  0  0  0  0  0  0  0  0
  126.2016   17.0462   49.4853 H   0  0  0  0  0  0  0  0  0  0  0  0
  128.2188   17.3891   49.6377 C   0  0  0  0  0  0  0  0  0  0  0  0
  128.6179   18.6961   49.4302 C   0  0  0  0  0  0  0  0  0  0  0  0
  127.6856   19.7718   48.4522 Cl  0  0  0  0  0  0  0  0  0  0  0  0
  129.7532   19.1818   50.0266 C   0  0  0  0  0  0  0  0  0  0  0  0
  130.4515   18.3653   50.8711 C   0  0  0  0  0  0  0  0  0  0  0  0
  130.0670   17.0541   51.0610 C   0  0  0  0  0  0  0  0  0  0  0  0
  128.9384   16.5383   50.4736 C   0  0  0  0  0  0  0  0  0  0  0  0
  128.5404   15.1364   50.7468 C   0  0  0  0  0  0  0  0  0  0  0  0
 21 20  1  0  0  0
 21 22  1  0  0  0
 23 22  1  0  0  0
 23 24  1  0  0  0
 20 25  1  0  0  0
 18 17  2  0  0  0
 25 24  1  0  0  0
 25 16  1  0  0  0
 17 16  1  0  0  0
 17  1  1  0  0  0
  2  1  2  0  0  0
  2  6  1  0  0  0
  1  3  1  0  0  0
 27  6  1  0  0  0
 27 29  1  0  0  0
 31 29  2  0  0  0
 31 32  1  0  0  0
  6  5  2  0  0  0
  3  4  2  0  0  0
 29 30  1  0  0  0
 32 33  2  0  0  0
  5  4  1  0  0  0
  4  7  1  0  0  0
 33 30  1  0  0  0
 33 34  1  0  0  0
  7 12  2  0  0  0
  7  8  1  0  0  0
 13 12  1  0  0  0
 45 44  1  0  0  0
 36 34  1  0  0  0
 36 38  1  0  0  0
 34 35  2  0  0  0
 12 11  1  0  0  0
  8  9  2  0  0  0
 44 38  2  0  0  0
 44 43  1  0  0  0
 38 39  1  0  0  0
 11 10  2  0  0  0
  9 10  1  0  0  0
 40 39  1  0  0  0
 39 41  2  0  0  0
 43 42  2  0  0  0
 42 41  1  0  0  0
 22 26  1  0  0  0
 16 19  1  0  0  0
 13 14  1  0  0  0
 13 15  1  0  0  0
 27 28  1  0  0  0
 36 37  1  0  0  0
M  END
> <minimizedAffinity>
-9.07338

$$$$
5NKH_8ZQ_A_1001


 45 49  0  0  0  0  0  0  0  0999 V2000
  120.7069   13.3056   50.3591 C   0  0  0  0  0  0  0  0  0  0  0  0
  121.8062   13.1946   51.1981 C   0  0  0  0  0  0  0  0  0  0  0  0
  119.5309   12.7614   50.7741 C   0  0  0  0  0  0  0  0  0  0  0  0
  119.4384   12.1288   51.9971 C   0  0  0  0  0  0  0  0  0  0  0  0
  120.5824   12.0367   52.7833 C   0  0  0  0  0  0  0  0  0  0  0  0
  121.7951   12.5796   52.4228 C   0  0  0  0  0  0  0  0  0  0  0  0
  118.2084   11.5991   52.4745 C   0  0  0  0  0  0  0  0  0  0  0  0
  118.0147   10.2080   52.4694 C   0  0  0  0  0  0  0  0  0  0  0  0
  116.8345    9.6549   52.9394 C   0  0  0  0  0  0  0  0  0  0  0  0
  115.8308   10.4398   53.4432 C   0  0  0  0  0  0  0  0  0  0  0  0
  116.0195   11.7597   53.4692 C   0  0  0  0  0  0  0  0  0  0  0  0
  117.1672   12.3312   53.0257 C   0  0  0  0  0  0  0  0  0  0  0  0
  117.3041   13.6112   53.0981 N   0  0  0  0  0  0  0  0  0  0  0  0
  118.1327   14.0365   52.7792 H   0  0  0  0  0  0  0  0  0  0  0  0
  116.5799   14.1634   53.4723 H   0  0  0  0  0  0  0  0  0  0  0  0
  122.0332   14.4130   48.9976 N   0  0  0  0  0  0  0  0  0  0  0  0
  120.8662   13.9464   49.1197 C   0  0  0  0  0  0  0  0  0  0  0  0
  119.9576   14.3201   48.4213 O   0  0  0  0  0  0  0  0  0  0  0  0
  122.6846   14.1929   49.7022 H   0  0  0  0  0  0  0  0  0  0  0  0
  122.8728   14.2873   46.9087 C   0  0  0  0  0  0  0  0  0  0  0  0
  123.8655   14.9671   46.0747 C   0  0  0  0  0  0  0  0  0  0  0  0
  124.9729   15.4978   46.8748 N   0  0  0  0  0  0  0  0  0  0  0  0
  124.4321   16.5492   47.6338 C   0  0  0  0  0  0  0  0  0  0  0  0
  123.5919   15.8344   48.6317 C   0  0  0  0  0  0  0  0  0  0  0  0
  122.4699   15.2086   47.9539 C   0  0  0  0  0  0  0  0  0  0  0  0
  125.7151   15.8445   46.2671 H   0  0  0  0  0  0  0  0  0  0  0  0
  122.9664   12.5669   53.1440 N   0  0  0  0  0  0  0  0  0  0  0  0
  122.9698   12.0739   53.9962 H   0  0  0  0  0  0  0  0  0  0  0  0
  124.1151   13.1799   52.7725 C   0  0  0  0  0  0  0  0  0  0  0  0
  124.5526   14.8528   53.0067 S   0  0  0  0  0  0  0  0  0  0  0  0
  125.1166   12.5941   52.1080 N   0  0  0  0  0  0  0  0  0  0  0  0
  126.1923   13.3527   51.8135 C   0  0  0  0  0  0  0  0  0  0  0  0
  126.1249   14.6383   52.1974 C   0  0  0  0  0  0  0  0  0  0  0  0
  126.9790   15.6593   52.1033 C   0  0  0  0  0  0  0  0  0  0  0  0
  127.1276   16.3528   53.0661 O   0  0  0  0  0  0  0  0  0  0  0  0
  127.6746   15.8853   50.9733 N   0  0  0  0  0  0  0  0  0  0  0  0
  127.5478   15.2909   50.1988 H   0  0  0  0  0  0  0  0  0  0  0  0
  128.5624   16.9373   50.8843 C   0  0  0  0  0  0  0  0  0  0  0  0
  129.8745   16.7287   51.2660 C   0  0  0  0  0  0  0  0  0  0  0  0
  130.4118   15.1815   51.8139 Cl  0  0  0  0  0  0  0  0  0  0  0  0
  130.7936   17.7433   51.1866 C   0  0  0  0  0  0  0  0  0  0  0  0
  130.3997   18.9470   50.6734 C   0  0  0  0  0  0  0  0  0  0  0  0
  129.0855   19.1631   50.3136 C   0  0  0  0  0  0  0  0  0  0  0  0
  128.1420   18.1685   50.3867 C   0  0  0  0  0  0  0  0  0  0  0  0
  126.7529   18.4364   49.9429 C   0  0  0  0  0  0  0  0  0  0  0  0
 21 20  1  0  0  0
 21 22  1  0  0  0
 23 22  1  0  0  0
 23 24  1  0  0  0
 20 25  1  0  0  0
 18 17  2  0  0  0
 25 24  1  0  0  0
 25 16  1  0  0  0
 17 16  1  0  0  0
 17  1  1  0  0  0
  2  1  2  0  0  0
  2  6  1  0  0  0
  1  3  1  0  0  0
 27  6  1  0  0  0
 27 29  1  0  0  0
 31 29  2  0  0  0
 31 32  1  0  0  0
  6  5  2  0  0  0
  3  4  2  0  0  0
 29 30  1  0  0  0
 32 33  2  0  0  0
  5  4  1  0  0  0
  4  7  1  0  0  0
 33 30  1  0  0  0
 33 34  1  0  0  0
  7 12  2  0  0  0
  7  8  1  0  0  0
 13 12  1  0  0  0
 45 44  1  0  0  0
 36 34  1  0  0  0
 36 38  1  0  0  0
 34 35  2  0  0  0
 12 11  1  0  0  0
  8  9  2  0  0  0
 44 38  2  0  0  0
 44 43  1  0  0  0
 38 39  1  0  0  0
 11 10  2  0  0  0
  9 10  1  0  0  0
 40 39  1  0  0  0
 39 41  2  0  0  0
 43 42  2  0  0  0
 42 41  1  0  0  0
 22 26  1  0  0  0
 16 19  1  0  0  0
 13 14  1  0  0  0
 13 15  1  0  0  0
 27 28  1  0  0  0
 36 37  1  0  0  0
M  END
> <minimizedAffinity>
-8.71299

$$$$
5NKH_8ZQ_A_1001


 45 49  0  0  0  0  0  0  0  0999 V2000
  125.4278   17.5447   53.0356 C   0  0  0  0  0  0  0  0  0  0  0  0
  125.0679   16.2842   52.5812 C   0  0  0  0  0  0  0  0  0  0  0  0
  126.3494   18.2420   52.3175 C   0  0  0  0  0  0  0  0  0  0  0  0
  126.8981   17.7106   51.1680 C   0  0  0  0  0  0  0  0  0  0  0  0
  126.5071   16.4343   50.7763 C   0  0  0  0  0  0  0  0  0  0  0  0
  125.5697   15.6877   51.4540 C   0  0  0  0  0  0  0  0  0  0  0  0
  127.8231   18.4413   50.3732 C   0  0  0  0  0  0  0  0  0  0  0  0
  127.3915   18.9968   49.1577 C   0  0  0  0  0  0  0  0  0  0  0  0
  128.2610   19.7265   48.3632 C   0  0  0  0  0  0  0  0  0  0  0  0
  129.5580   19.9491   48.7447 C   0  0  0  0  0  0  0  0  0  0  0  0
  129.9658   19.4412   49.9085 C   0  0  0  0  0  0  0  0  0  0  0  0
  129.1364   18.7308   50.7133 C   0  0  0  0  0  0  0  0  0  0  0  0
  129.5786   18.2846   51.8393 N   0  0  0  0  0  0  0  0  0  0  0  0
  128.9854   17.7678   52.4312 H   0  0  0  0  0  0  0  0  0  0  0  0
  130.5094   18.4606   52.1072 H   0  0  0  0  0  0  0  0  0  0  0  0
  124.0687   18.9913   53.9838 N   0  0  0  0  0  0  0  0  0  0  0  0
  124.8474   18.0258   54.2204 C   0  0  0  0  0  0  0  0  0  0  0  0
  125.2751   17.8126   55.3270 O   0  0  0  0  0  0  0  0  0  0  0  0
  123.8923   19.2098   53.0402 H   0  0  0  0  0  0  0  0  0  0  0  0
  122.0221   19.5800   54.7248 C   0  0  0  0  0  0  0  0  0  0  0  0
  121.3331   20.7636   55.2421 C   0  0  0  0  0  0  0  0  0  0  0  0
  121.8771   21.9993   54.6718 N   0  0  0  0  0  0  0  0  0  0  0  0
  123.1700   22.1345   55.2047 C   0  0  0  0  0  0  0  0  0  0  0  0
  123.9272   21.0635   54.5030 C   0  0  0  0  0  0  0  0  0  0  0  0
  123.4436   19.7667   54.9436 C   0  0  0  0  0  0  0  0  0  0  0  0
  121.2991   22.7968   54.9372 H   0  0  0  0  0  0  0  0  0  0  0  0
  125.0987   14.4373   51.1272 N   0  0  0  0  0  0  0  0  0  0  0  0
  125.6360   13.6617   51.4083 H   0  0  0  0  0  0  0  0  0  0  0  0
  123.9532   14.1905   50.4488 C   0  0  0  0  0  0  0  0  0  0  0  0
  123.3637   15.0062   49.0232 S   0  0  0  0  0  0  0  0  0  0  0  0
  123.0378   13.2796   50.7953 N   0  0  0  0  0  0  0  0  0  0  0  0
  121.9493   13.1639   50.0072 C   0  0  0  0  0  0  0  0  0  0  0  0
  121.8887   14.0092   48.9649 C   0  0  0  0  0  0  0  0  0  0  0  0
  121.0026   14.1741   47.9807 C   0  0  0  0  0  0  0  0  0  0  0  0
  120.2857   13.2545   47.7157 O   0  0  0  0  0  0  0  0  0  0  0  0
  120.8960   15.3459   47.3270 N   0  0  0  0  0  0  0  0  0  0  0  0
  121.4859   16.0944   47.5740 H   0  0  0  0  0  0  0  0  0  0  0  0
  119.9726   15.5136   46.3160 C   0  0  0  0  0  0  0  0  0  0  0  0
  118.6791   15.8644   46.6541 C   0  0  0  0  0  0  0  0  0  0  0  0
  118.2228   16.1216   48.2998 Cl  0  0  0  0  0  0  0  0  0  0  0  0
  117.7299   16.0497   45.6819 C   0  0  0  0  0  0  0  0  0  0  0  0
  118.1010   15.9332   44.3718 C   0  0  0  0  0  0  0  0  0  0  0  0
  119.3857   15.5610   44.0341 C   0  0  0  0  0  0  0  0  0  0  0  0
  120.3559   15.3636   44.9852 C   0  0  0  0  0  0  0  0  0  0  0  0
  121.7347   15.0111   44.5694 C   0  0  0  0  0  0  0  0  0  0  0  0
 21 20  1  0  0  0
 21 22  1  0  0  0
 23 22  1  0  0  0
 23 24  1  0  0  0
 20 25  1  0  0  0
 18 17  2  0  0  0
 25 24  1  0  0  0
 25 16  1  0  0  0
 17 16  1  0  0  0
 17  1  1  0  0  0
  2  1  2  0  0  0
  2  6  1  0  0  0
  1  3  1  0  0  0
 27  6  1  0  0  0
 27 29  1  0  0  0
 31 29  2  0  0  0
 31 32  1  0  0  0
  6  5  2  0  0  0
  3  4  2  0  0  0
 29 30  1  0  0  0
 32 33  2  0  0  0
  5  4  1  0  0  0
  4  7  1  0  0  0
 33 30  1  0  0  0
 33 34  1  0  0  0
  7 12  2  0  0  0
  7  8  1  0  0  0
 13 12  1  0  0  0
 45 44  1  0  0  0
 36 34  1  0  0  0
 36 38  1  0  0  0
 34 35  2  0  0  0
 12 11  1  0  0  0
  8  9  2  0  0  0
 44 38  2  0  0  0
 44 43  1  0  0  0
 38 39  1  0  0  0
 11 10  2  0  0  0
  9 10  1  0  0  0
 40 39  1  0  0  0
 39 41  2  0  0  0
 43 42  2  0  0  0
 42 41  1  0  0  0
 22 26  1  0  0  0
 16 19  1  0  0  0
 13 14  1  0  0  0
 13 15  1  0  0  0
 27 28  1  0  0  0
 36 37  1  0  0  0
M  END
> <minimizedAffinity>
-8.70516

$$$$
