5VKC_9EA_A_401


 58 65  0  0  0  0  0  0  0  0999 V2000
  -31.0132    7.9527    6.9728 C   0  0  0  0  0  0  0  0  0  0  0  0
  -30.2776    7.8186    9.2589 C   0  0  0  0  0  0  0  0  0  0  0  0
  -32.1596    7.2591    7.3214 C   0  0  0  0  0  0  0  0  0  0  0  0
  -31.4176    7.1517    9.6390 C   0  0  0  0  0  0  0  0  0  0  0  0
  -32.3565    6.8805    8.6452 C   0  0  0  0  0  0  0  0  0  0  0  0
  -30.0812    8.2070    7.9548 C   0  0  0  0  0  0  0  0  0  0  0  0
  -33.2741    6.8417    6.5416 C   0  0  0  0  0  0  0  0  0  0  0  0
  -34.1509    6.2043    7.3932 C   0  0  0  0  0  0  0  0  0  0  0  0
  -33.5707    6.2339    8.6423 N   0  0  0  0  0  0  0  0  0  0  0  0
  -31.5748    6.8414   11.0472 C   0  0  0  0  0  0  0  0  0  0  0  0
  -32.1425    7.6703   12.0492 C   0  0  0  0  0  0  0  0  0  0  0  0
  -31.1586    5.6972   11.7057 C   0  0  0  0  0  0  0  0  0  0  0  0
  -30.4833    4.4589   11.2580 C   0  0  0  0  0  0  0  0  0  0  0  0
  -31.3605    4.9709   14.1186 C   0  0  0  0  0  0  0  0  0  0  0  0
  -32.1212    7.0738   13.2441 N   0  0  0  0  0  0  0  0  0  0  0  0
  -31.5333    5.8909   13.0080 N   0  0  0  0  0  0  0  0  0  0  0  0
  -32.7119    9.0239   11.9116 C   0  0  0  0  0  0  0  0  0  0  0  0
  -33.3086    9.3952   13.1415 O   0  0  0  0  0  0  0  0  0  0  0  0
  -36.6475   10.9737   13.6038 C   0  0  0  0  0  0  0  0  0  0  0  0
  -34.3767   11.1811   12.1074 C   0  0  0  0  0  0  0  0  0  0  0  0
  -34.4526   10.1931   13.0613 C   0  0  0  0  0  0  0  0  0  0  0  0
  -35.4205   12.0579   11.9118 C   0  0  0  0  0  0  0  0  0  0  0  0
  -35.6095   10.0881   13.8095 C   0  0  0  0  0  0  0  0  0  0  0  0
  -36.5872   11.9931   12.6638 C   0  0  0  0  0  0  0  0  0  0  0  0
  -40.2704   15.7697   10.8005 C   0  0  0  0  0  0  0  0  0  0  0  0
  -38.5196   12.5702   11.3161 C   0  0  0  0  0  0  0  0  0  0  0  0
  -37.2401   14.3248   12.3765 C   0  0  0  0  0  0  0  0  0  0  0  0
  -39.7721   13.4282   11.3144 C   0  0  0  0  0  0  0  0  0  0  0  0
  -38.4450   15.2482   12.4050 C   0  0  0  0  0  0  0  0  0  0  0  0
  -40.7020   16.8997   11.6912 C   0  0  0  0  0  0  0  0  0  0  0  0
  -37.6602   12.9265   12.4502 N   0  0  0  0  0  0  0  0  0  0  0  0
  -39.4600   14.8436   11.4432 N   0  0  0  0  0  0  0  0  0  0  0  0
  -40.6548   15.7065    9.6362 O   0  0  0  0  0  0  0  0  0  0  0  0
  -35.4462    5.6295    7.1089 C   0  0  0  0  0  0  0  0  0  0  0  0
  -35.6698    4.4568    6.8719 O   0  0  0  0  0  0  0  0  0  0  0  0
  -36.4477    6.5198    7.1312 O   0  0  0  0  0  0  0  0  0  0  0  0
  -34.9655    3.8390    6.8577 H   0  0  0  0  0  0  0  0  0  0  0  0
  -33.4668    7.1139    5.0910 C   0  0  0  0  0  0  0  0  0  0  0  0
  -33.4819    5.9050    4.1737 C   0  0  0  0  0  0  0  0  0  0  0  0
  -32.0897    5.4307    3.8320 C   0  0  0  0  0  0  0  0  0  0  0  0
  -31.2836    6.5450    3.4777 O   0  0  0  0  0  0  0  0  0  0  0  0
  -27.9688    4.9397    3.0759 C   0  0  0  0  0  0  0  0  0  0  0  0
  -27.3977    7.9958    1.1742 C   0  0  0  0  0  0  0  0  0  0  0  0
  -30.0032    8.3830    1.9627 C   0  0  0  0  0  0  0  0  0  0  0  0
  -29.3418    7.2262    2.3477 C   0  0  0  0  0  0  0  0  0  0  0  0
  -28.0596    9.1440    0.7998 C   0  0  0  0  0  0  0  0  0  0  0  0
  -29.3692    9.3316    1.1914 C   0  0  0  0  0  0  0  0  0  0  0  0
  -27.3452    5.9009    2.3095 C   0  0  0  0  0  0  0  0  0  0  0  0
  -29.2759    5.1046    3.4825 C   0  0  0  0  0  0  0  0  0  0  0  0
  -28.0315    7.0414    1.9423 C   0  0  0  0  0  0  0  0  0  0  0  0
  -29.9637    6.2567    3.1208 C   0  0  0  0  0  0  0  0  0  0  0  0
  -34.1403    5.5016    9.7647 C   0  0  0  0  0  0  0  0  0  0  0  0
  -36.6860    8.0740   10.8890 C   0  0  0  0  0  0  0  0  0  0  0  0
  -37.7440    7.2233   11.0957 C   0  0  0  0  0  0  0  0  0  0  0  0
  -35.3884    6.1785   10.2358 C   0  0  0  0  0  0  0  0  0  0  0  0
  -35.4913    7.5442   10.4537 C   0  0  0  0  0  0  0  0  0  0  0  0
  -36.5136    5.4189   10.4737 C   0  0  0  0  0  0  0  0  0  0  0  0
  -37.6856    5.9025   10.9006 N   0  0  0  0  0  0  0  0  0  0  0  0
 46 43  2  0  0  0
 46 47  1  0  0  0
 43 50  1  0  0  0
 47 44  2  0  0  0
 50 48  2  0  0  0
 50 45  1  0  0  0
 44 45  1  0  0  0
 48 42  1  0  0  0
 45 51  2  0  0  0
 42 49  2  0  0  0
 51 49  1  0  0  0
 51 41  1  0  0  0
 41 40  1  0  0  0
 40 39  1  0  0  0
 39 38  1  0  0  0
 38  7  1  0  0  0
  1  3  2  0  0  0
  1  6  1  0  0  0
  7  3  1  0  0  0
  7  8  2  0  0  0
 36 34  2  0  0  0
  3  5  1  0  0  0
  6  2  2  0  0  0
 34  8  1  0  0  0
 34 35  1  0  0  0
  8  9  1  0  0  0
  5  9  1  0  0  0
  5  4  2  0  0  0
  2  4  1  0  0  0
  9 52  1  0  0  0
  4 10  1  0  0  0
 56 53  2  0  0  0
 56 55  1  0  0  0
 53 54  1  0  0  0
 52 55  1  0  0  0
 33 25  2  0  0  0
 55 57  2  0  0  0
 25 30  1  0  0  0
 25 32  1  0  0  0
 27 29  1  0  0  0
 27 31  1  0  0  0
 29 32  1  0  0  0
 10 12  2  0  0  0
 10 11  1  0  0  0
 32 28  1  0  0  0
 54 58  2  0  0  0
 19 23  2  0  0  0
 19 24  1  0  0  0
 23 21  1  0  0  0
 13 12  1  0  0  0
 17 11  1  0  0  0
 17 18  1  0  0  0
 12 16  1  0  0  0
 57 58  1  0  0  0
 31 26  1  0  0  0
 31 24  1  0  0  0
 11 15  2  0  0  0
 26 28  1  0  0  0
 24 22  2  0  0  0
 21 18  1  0  0  0
 21 20  2  0  0  0
 22 20  1  0  0  0
 16 15  1  0  0  0
 16 14  1  0  0  0
 35 37  1  0  0  0
M  END
> <minimizedAffinity>
-12.20029

$$$$
5VKC_9EA_A_401


 58 65  0  0  0  0  0  0  0  0999 V2000
  -30.8534    7.8709    7.0484 C   0  0  0  0  0  0  0  0  0  0  0  0
  -30.0644    8.0011    9.3168 C   0  0  0  0  0  0  0  0  0  0  0  0
  -32.0366    7.3216    7.5121 C   0  0  0  0  0  0  0  0  0  0  0  0
  -31.2384    7.4821    9.8078 C   0  0  0  0  0  0  0  0  0  0  0  0
  -32.2226    7.1471    8.8794 C   0  0  0  0  0  0  0  0  0  0  0  0
  -29.8777    8.1880    7.9677 C   0  0  0  0  0  0  0  0  0  0  0  0
  -33.2003    6.8854    6.8192 C   0  0  0  0  0  0  0  0  0  0  0  0
  -34.0963    6.4412    7.7680 C   0  0  0  0  0  0  0  0  0  0  0  0
  -33.4801    6.6004    8.9897 N   0  0  0  0  0  0  0  0  0  0  0  0
  -31.3774    7.3838   11.2483 C   0  0  0  0  0  0  0  0  0  0  0  0
  -32.1788    8.1983   12.0895 C   0  0  0  0  0  0  0  0  0  0  0  0
  -30.7196    6.5101   12.0969 C   0  0  0  0  0  0  0  0  0  0  0  0
  -29.7373    5.4263   11.8731 C   0  0  0  0  0  0  0  0  0  0  0  0
  -30.8440    6.1734   14.5992 C   0  0  0  0  0  0  0  0  0  0  0  0
  -32.0641    7.8366   13.3702 N   0  0  0  0  0  0  0  0  0  0  0  0
  -31.1897    6.8190   13.3449 N   0  0  0  0  0  0  0  0  0  0  0  0
  -33.0607    9.3203   11.7170 C   0  0  0  0  0  0  0  0  0  0  0  0
  -34.3896    8.9987   12.0875 O   0  0  0  0  0  0  0  0  0  0  0  0
  -36.0551   12.3271   12.1329 C   0  0  0  0  0  0  0  0  0  0  0  0
  -36.6169    9.6582   12.1464 C   0  0  0  0  0  0  0  0  0  0  0  0
  -35.3011   10.0572   12.1129 C   0  0  0  0  0  0  0  0  0  0  0  0
  -37.6369   10.5834   12.1645 C   0  0  0  0  0  0  0  0  0  0  0  0
  -35.0235   11.4108   12.1155 C   0  0  0  0  0  0  0  0  0  0  0  0
  -37.3910   11.9508   12.1440 C   0  0  0  0  0  0  0  0  0  0  0  0
  -41.7952   15.2428   11.1111 C   0  0  0  0  0  0  0  0  0  0  0  0
  -39.7886   12.2768   11.9740 C   0  0  0  0  0  0  0  0  0  0  0  0
  -38.2934   14.0280   11.2405 C   0  0  0  0  0  0  0  0  0  0  0  0
  -40.8895   13.2814   12.2633 C   0  0  0  0  0  0  0  0  0  0  0  0
  -39.3440   15.0940   11.4960 C   0  0  0  0  0  0  0  0  0  0  0  0
  -41.7412   16.7015   11.4658 C   0  0  0  0  0  0  0  0  0  0  0  0
  -38.4721   12.8991   12.1518 N   0  0  0  0  0  0  0  0  0  0  0  0
  -40.6855   14.5310   11.5463 N   0  0  0  0  0  0  0  0  0  0  0  0
  -42.7660   14.7759   10.5222 O   0  0  0  0  0  0  0  0  0  0  0  0
  -35.4375    5.9324    7.5911 C   0  0  0  0  0  0  0  0  0  0  0  0
  -36.4671    6.5472    7.7997 O   0  0  0  0  0  0  0  0  0  0  0  0
  -35.4805    4.6680    7.1490 O   0  0  0  0  0  0  0  0  0  0  0  0
  -36.4306    7.4310    8.1087 H   0  0  0  0  0  0  0  0  0  0  0  0
  -33.4142    6.9667    5.3485 C   0  0  0  0  0  0  0  0  0  0  0  0
  -33.4231    5.6500    4.5939 C   0  0  0  0  0  0  0  0  0  0  0  0
  -32.0390    5.2338    4.1566 C   0  0  0  0  0  0  0  0  0  0  0  0
  -31.2808    6.3876    3.8237 O   0  0  0  0  0  0  0  0  0  0  0  0
  -27.9360    4.9358    3.1672 C   0  0  0  0  0  0  0  0  0  0  0  0
  -27.6904    7.9622    1.1515 C   0  0  0  0  0  0  0  0  0  0  0  0
  -30.2334    8.2432    2.1587 C   0  0  0  0  0  0  0  0  0  0  0  0
  -29.4826    7.1314    2.5104 C   0  0  0  0  0  0  0  0  0  0  0  0
  -28.4403    9.0658    0.8105 C   0  0  0  0  0  0  0  0  0  0  0  0
  -29.7186    9.1999    1.3121 C   0  0  0  0  0  0  0  0  0  0  0  0
  -27.4318    5.9048    2.3263 C   0  0  0  0  0  0  0  0  0  0  0  0
  -29.2093    5.0478    3.6841 C   0  0  0  0  0  0  0  0  0  0  0  0
  -28.2050    6.9996    1.9949 C   0  0  0  0  0  0  0  0  0  0  0  0
  -29.9841    6.1544    3.3580 C   0  0  0  0  0  0  0  0  0  0  0  0
  -34.0689    6.0770   10.2143 C   0  0  0  0  0  0  0  0  0  0  0  0
  -32.4262    2.6637   10.3299 C   0  0  0  0  0  0  0  0  0  0  0  0
  -33.5579    1.9095   10.5199 C   0  0  0  0  0  0  0  0  0  0  0  0
  -33.8157    4.6060   10.3149 C   0  0  0  0  0  0  0  0  0  0  0  0
  -32.5569    4.0311   10.2252 C   0  0  0  0  0  0  0  0  0  0  0  0
  -34.8820    3.7542   10.5076 C   0  0  0  0  0  0  0  0  0  0  0  0
  -34.7882    2.4236   10.6086 N   0  0  0  0  0  0  0  0  0  0  0  0
 46 43  2  0  0  0
 46 47  1  0  0  0
 43 50  1  0  0  0
 47 44  2  0  0  0
 50 48  2  0  0  0
 50 45  1  0  0  0
 44 45  1  0  0  0
 48 42  1  0  0  0
 45 51  2  0  0  0
 42 49  2  0  0  0
 51 49  1  0  0  0
 51 41  1  0  0  0
 41 40  1  0  0  0
 40 39  1  0  0  0
 39 38  1  0  0  0
 38  7  1  0  0  0
  1  3  2  0  0  0
  1  6  1  0  0  0
  7  3  1  0  0  0
  7  8  2  0  0  0
 36 34  2  0  0  0
  3  5  1  0  0  0
  6  2  2  0  0  0
 34  8  1  0  0  0
 34 35  1  0  0  0
  8  9  1  0  0  0
  5  9  1  0  0  0
  5  4  2  0  0  0
  2  4  1  0  0  0
  9 52  1  0  0  0
  4 10  1  0  0  0
 56 53  2  0  0  0
 56 55  1  0  0  0
 53 54  1  0  0  0
 52 55  1  0  0  0
 33 25  2  0  0  0
 55 57  2  0  0  0
 25 30  1  0  0  0
 25 32  1  0  0  0
 27 29  1  0  0  0
 27 31  1  0  0  0
 29 32  1  0  0  0
 10 12  2  0  0  0
 10 11  1  0  0  0
 32 28  1  0  0  0
 54 58  2  0  0  0
 19 23  2  0  0  0
 19 24  1  0  0  0
 23 21  1  0  0  0
 13 12  1  0  0  0
 17 11  1  0  0  0
 17 18  1  0  0  0
 12 16  1  0  0  0
 57 58  1  0  0  0
 31 26  1  0  0  0
 31 24  1  0  0  0
 11 15  2  0  0  0
 26 28  1  0  0  0
 24 22  2  0  0  0
 21 18  1  0  0  0
 21 20  2  0  0  0
 22 20  1  0  0  0
 16 15  1  0  0  0
 16 14  1  0  0  0
 35 37  1  0  0  0
M  END
> <minimizedAffinity>
-11.98933

$$$$
5VKC_9EA_A_401


 58 65  0  0  0  0  0  0  0  0999 V2000
  -30.9058    7.9653    7.3557 C   0  0  0  0  0  0  0  0  0  0  0  0
  -29.8390    7.9421    9.5114 C   0  0  0  0  0  0  0  0  0  0  0  0
  -31.9879    7.2996    7.9057 C   0  0  0  0  0  0  0  0  0  0  0  0
  -30.9102    7.3046   10.0902 C   0  0  0  0  0  0  0  0  0  0  0  0
  -31.9863    6.9906    9.2619 C   0  0  0  0  0  0  0  0  0  0  0  0
  -29.8382    8.2618    8.1743 C   0  0  0  0  0  0  0  0  0  0  0  0
  -33.2060    6.8519    7.3223 C   0  0  0  0  0  0  0  0  0  0  0  0
  -33.9469    6.2658    8.3262 C   0  0  0  0  0  0  0  0  0  0  0  0
  -33.1878    6.3544    9.4723 N   0  0  0  0  0  0  0  0  0  0  0  0
  -30.8568    7.0678   11.5203 C   0  0  0  0  0  0  0  0  0  0  0  0
  -31.5750    7.7582   12.5306 C   0  0  0  0  0  0  0  0  0  0  0  0
  -30.0591    6.1565   12.1905 C   0  0  0  0  0  0  0  0  0  0  0  0
  -29.0704    5.1515   11.7407 C   0  0  0  0  0  0  0  0  0  0  0  0
  -29.8434    5.5864   14.6438 C   0  0  0  0  0  0  0  0  0  0  0  0
  -31.2801    7.2876   13.7454 N   0  0  0  0  0  0  0  0  0  0  0  0
  -30.3754    6.3246   13.5117 N   0  0  0  0  0  0  0  0  0  0  0  0
  -32.5432    8.8609   12.3828 C   0  0  0  0  0  0  0  0  0  0  0  0
  -33.8252    8.3975   12.7678 O   0  0  0  0  0  0  0  0  0  0  0  0
  -37.1013   10.1602   12.8861 C   0  0  0  0  0  0  0  0  0  0  0  0
  -34.4703   10.5809   12.3033 C   0  0  0  0  0  0  0  0  0  0  0  0
  -34.8663    9.3270   12.7063 C   0  0  0  0  0  0  0  0  0  0  0  0
  -35.3782   11.6115   12.2017 C   0  0  0  0  0  0  0  0  0  0  0  0
  -36.2023    9.1186   12.9912 C   0  0  0  0  0  0  0  0  0  0  0  0
  -36.7236   11.4398   12.5037 C   0  0  0  0  0  0  0  0  0  0  0  0
  -40.0493   15.6766   10.9904 C   0  0  0  0  0  0  0  0  0  0  0  0
  -38.7713   12.2588   11.4938 C   0  0  0  0  0  0  0  0  0  0  0  0
  -37.0354   13.8251   12.1052 C   0  0  0  0  0  0  0  0  0  0  0  0
  -39.8420   13.3251   11.6403 C   0  0  0  0  0  0  0  0  0  0  0  0
  -38.0435   14.9491   12.2654 C   0  0  0  0  0  0  0  0  0  0  0  0
  -40.1011   16.9247   11.8246 C   0  0  0  0  0  0  0  0  0  0  0  0
  -37.6521   12.5332   12.4015 N   0  0  0  0  0  0  0  0  0  0  0  0
  -39.2854   14.6671   11.5604 N   0  0  0  0  0  0  0  0  0  0  0  0
  -40.6686   15.6027    9.9328 O   0  0  0  0  0  0  0  0  0  0  0  0
  -35.2702    5.6877    8.2670 C   0  0  0  0  0  0  0  0  0  0  0  0
  -35.5365    4.5475    7.9344 O   0  0  0  0  0  0  0  0  0  0  0  0
  -36.2446    6.5330    8.6305 O   0  0  0  0  0  0  0  0  0  0  0  0
  -34.8509    3.9611    7.6813 H   0  0  0  0  0  0  0  0  0  0  0  0
  -33.6118    7.0513    5.9042 C   0  0  0  0  0  0  0  0  0  0  0  0
  -33.8917    5.7955    5.0993 C   0  0  0  0  0  0  0  0  0  0  0  0
  -32.7898    5.4932    4.1121 C   0  0  0  0  0  0  0  0  0  0  0  0
  -31.5775    6.0810    4.5612 O   0  0  0  0  0  0  0  0  0  0  0  0
  -30.4512    8.6634    2.1552 C   0  0  0  0  0  0  0  0  0  0  0  0
  -27.7426    6.2551    1.7730 C   0  0  0  0  0  0  0  0  0  0  0  0
  -29.2805    4.9753    3.6591 C   0  0  0  0  0  0  0  0  0  0  0  0
  -29.6916    6.2059    3.1687 C   0  0  0  0  0  0  0  0  0  0  0  0
  -27.3434    5.0308    2.2613 C   0  0  0  0  0  0  0  0  0  0  0  0
  -28.1139    4.3949    3.2128 C   0  0  0  0  0  0  0  0  0  0  0  0
  -29.2896    8.0671    1.7132 C   0  0  0  0  0  0  0  0  0  0  0  0
  -31.2402    8.0473    3.1033 C   0  0  0  0  0  0  0  0  0  0  0  0
  -28.9076    6.8416    2.2217 C   0  0  0  0  0  0  0  0  0  0  0  0
  -30.8607    6.8094    3.6082 C   0  0  0  0  0  0  0  0  0  0  0  0
  -33.5847    5.6850   10.7030 C   0  0  0  0  0  0  0  0  0  0  0  0
  -33.9063    1.9089   10.7105 C   0  0  0  0  0  0  0  0  0  0  0  0
  -32.6139    1.6029   10.3616 C   0  0  0  0  0  0  0  0  0  0  0  0
  -33.3086    4.2184   10.5988 C   0  0  0  0  0  0  0  0  0  0  0  0
  -34.2585    3.2351   10.8316 C   0  0  0  0  0  0  0  0  0  0  0  0
  -32.0424    3.7979   10.2529 C   0  0  0  0  0  0  0  0  0  0  0  0
  -31.6686    2.5191   10.1318 N   0  0  0  0  0  0  0  0  0  0  0  0
 46 43  2  0  0  0
 46 47  1  0  0  0
 43 50  1  0  0  0
 47 44  2  0  0  0
 50 48  2  0  0  0
 50 45  1  0  0  0
 44 45  1  0  0  0
 48 42  1  0  0  0
 45 51  2  0  0  0
 42 49  2  0  0  0
 51 49  1  0  0  0
 51 41  1  0  0  0
 41 40  1  0  0  0
 40 39  1  0  0  0
 39 38  1  0  0  0
 38  7  1  0  0  0
  1  3  2  0  0  0
  1  6  1  0  0  0
  7  3  1  0  0  0
  7  8  2  0  0  0
 36 34  2  0  0  0
  3  5  1  0  0  0
  6  2  2  0  0  0
 34  8  1  0  0  0
 34 35  1  0  0  0
  8  9  1  0  0  0
  5  9  1  0  0  0
  5  4  2  0  0  0
  2  4  1  0  0  0
  9 52  1  0  0  0
  4 10  1  0  0  0
 56 53  2  0  0  0
 56 55  1  0  0  0
 53 54  1  0  0  0
 52 55  1  0  0  0
 33 25  2  0  0  0
 55 57  2  0  0  0
 25 30  1  0  0  0
 25 32  1  0  0  0
 27 29  1  0  0  0
 27 31  1  0  0  0
 29 32  1  0  0  0
 10 12  2  0  0  0
 10 11  1  0  0  0
 32 28  1  0  0  0
 54 58  2  0  0  0
 19 23  2  0  0  0
 19 24  1  0  0  0
 23 21  1  0  0  0
 13 12  1  0  0  0
 17 11  1  0  0  0
 17 18  1  0  0  0
 12 16  1  0  0  0
 57 58  1  0  0  0
 31 26  1  0  0  0
 31 24  1  0  0  0
 11 15  2  0  0  0
 26 28  1  0  0  0
 24 22  2  0  0  0
 21 18  1  0  0  0
 21 20  2  0  0  0
 22 20  1  0  0  0
 16 15  1  0  0  0
 16 14  1  0  0  0
 35 37  1  0  0  0
M  END
> <minimizedAffinity>
-11.31703

$$$$
5VKC_9EA_A_401


 58 65  0  0  0  0  0  0  0  0999 V2000
  -34.1567    7.6181    6.2226 C   0  0  0  0  0  0  0  0  0  0  0  0
  -36.2054    7.1247    7.3824 C   0  0  0  0  0  0  0  0  0  0  0  0
  -33.4577    7.3675    7.3911 C   0  0  0  0  0  0  0  0  0  0  0  0
  -35.5358    6.8444    8.5493 C   0  0  0  0  0  0  0  0  0  0  0  0
  -34.1479    6.9714    8.5320 C   0  0  0  0  0  0  0  0  0  0  0  0
  -35.5294    7.5049    6.2472 C   0  0  0  0  0  0  0  0  0  0  0  0
  -32.0647    7.4163    7.6768 C   0  0  0  0  0  0  0  0  0  0  0  0
  -31.9069    7.0517    8.9968 C   0  0  0  0  0  0  0  0  0  0  0  0
  -33.1705    6.8014    9.4850 N   0  0  0  0  0  0  0  0  0  0  0  0
  -36.3208    6.3833    9.6786 C   0  0  0  0  0  0  0  0  0  0  0  0
  -37.1508    7.1662   10.5220 C   0  0  0  0  0  0  0  0  0  0  0  0
  -36.3795    5.0987   10.1909 C   0  0  0  0  0  0  0  0  0  0  0  0
  -35.7440    3.8211    9.7988 C   0  0  0  0  0  0  0  0  0  0  0  0
  -37.6893    4.1062   12.1116 C   0  0  0  0  0  0  0  0  0  0  0  0
  -37.7218    6.4201   11.4716 N   0  0  0  0  0  0  0  0  0  0  0  0
  -37.2481    5.1853   11.2453 N   0  0  0  0  0  0  0  0  0  0  0  0
  -37.4255    8.6139   10.4580 C   0  0  0  0  0  0  0  0  0  0  0  0
  -37.4610    9.1305   11.7765 O   0  0  0  0  0  0  0  0  0  0  0  0
  -37.5701   12.8017   12.3797 C   0  0  0  0  0  0  0  0  0  0  0  0
  -39.1473   10.7189   11.5966 C   0  0  0  0  0  0  0  0  0  0  0  0
  -37.8310   10.4711   11.9089 C   0  0  0  0  0  0  0  0  0  0  0  0
  -39.6639   11.9936   11.6677 C   0  0  0  0  0  0  0  0  0  0  0  0
  -37.0401   11.5294   12.3136 C   0  0  0  0  0  0  0  0  0  0  0  0
  -38.8884   13.0821   12.0483 C   0  0  0  0  0  0  0  0  0  0  0  0
  -41.9543   17.7510   11.7292 C   0  0  0  0  0  0  0  0  0  0  0  0
  -40.7064   14.4723   12.8520 C   0  0  0  0  0  0  0  0  0  0  0  0
  -39.5657   15.0682   10.8065 C   0  0  0  0  0  0  0  0  0  0  0  0
  -41.0935   15.9182   13.1056 C   0  0  0  0  0  0  0  0  0  0  0  0
  -39.9194   16.5341   10.9832 C   0  0  0  0  0  0  0  0  0  0  0  0
  -41.3147   19.0408   11.3005 C   0  0  0  0  0  0  0  0  0  0  0  0
  -39.4459   14.4065   12.1045 N   0  0  0  0  0  0  0  0  0  0  0  0
  -41.0449   16.7142   11.8886 N   0  0  0  0  0  0  0  0  0  0  0  0
  -43.1630   17.6881   11.9350 O   0  0  0  0  0  0  0  0  0  0  0  0
  -30.6918    6.9069    9.7660 C   0  0  0  0  0  0  0  0  0  0  0  0
  -29.8268    7.7528    9.8993 O   0  0  0  0  0  0  0  0  0  0  0  0
  -30.5726    5.7147   10.3663 O   0  0  0  0  0  0  0  0  0  0  0  0
  -29.9158    8.5845    9.4770 H   0  0  0  0  0  0  0  0  0  0  0  0
  -30.9906    7.7379    6.6979 C   0  0  0  0  0  0  0  0  0  0  0  0
  -30.2988    6.5568    6.0426 C   0  0  0  0  0  0  0  0  0  0  0  0
  -31.2565    5.7071    5.2419 C   0  0  0  0  0  0  0  0  0  0  0  0
  -31.1456    6.0383    3.8653 O   0  0  0  0  0  0  0  0  0  0  0  0
  -27.8584    4.6795    2.8292 C   0  0  0  0  0  0  0  0  0  0  0  0
  -27.7214    7.9253    1.1773 C   0  0  0  0  0  0  0  0  0  0  0  0
  -30.1938    8.0808    2.3703 C   0  0  0  0  0  0  0  0  0  0  0  0
  -29.4293    6.9359    2.5385 C   0  0  0  0  0  0  0  0  0  0  0  0
  -28.4844    9.0608    1.0187 C   0  0  0  0  0  0  0  0  0  0  0  0
  -29.7274    9.1324    1.6129 C   0  0  0  0  0  0  0  0  0  0  0  0
  -27.4021    5.7426    2.0795 C   0  0  0  0  0  0  0  0  0  0  0  0
  -29.0957    4.7274    3.4356 C   0  0  0  0  0  0  0  0  0  0  0  0
  -28.1877    6.8682    1.9308 C   0  0  0  0  0  0  0  0  0  0  0  0
  -29.8825    5.8641    3.2937 C   0  0  0  0  0  0  0  0  0  0  0  0
  -33.4053    6.5528   10.9004 C   0  0  0  0  0  0  0  0  0  0  0  0
  -33.0171   10.1524   12.0202 C   0  0  0  0  0  0  0  0  0  0  0  0
  -33.8709   10.1149   13.0951 C   0  0  0  0  0  0  0  0  0  0  0  0
  -33.5245    7.8508   11.6343 C   0  0  0  0  0  0  0  0  0  0  0  0
  -32.8408    9.0042   11.2799 C   0  0  0  0  0  0  0  0  0  0  0  0
  -34.3568    7.9269   12.7303 C   0  0  0  0  0  0  0  0  0  0  0  0
  -34.5457    9.0245   13.4714 N   0  0  0  0  0  0  0  0  0  0  0  0
 46 43  2  0  0  0
 46 47  1  0  0  0
 43 50  1  0  0  0
 47 44  2  0  0  0
 50 48  2  0  0  0
 50 45  1  0  0  0
 44 45  1  0  0  0
 48 42  1  0  0  0
 45 51  2  0  0  0
 42 49  2  0  0  0
 51 49  1  0  0  0
 51 41  1  0  0  0
 41 40  1  0  0  0
 40 39  1  0  0  0
 39 38  1  0  0  0
 38  7  1  0  0  0
  1  3  2  0  0  0
  1  6  1  0  0  0
  7  3  1  0  0  0
  7  8  2  0  0  0
 36 34  2  0  0  0
  3  5  1  0  0  0
  6  2  2  0  0  0
 34  8  1  0  0  0
 34 35  1  0  0  0
  8  9  1  0  0  0
  5  9  1  0  0  0
  5  4  2  0  0  0
  2  4  1  0  0  0
  9 52  1  0  0  0
  4 10  1  0  0  0
 56 53  2  0  0  0
 56 55  1  0  0  0
 53 54  1  0  0  0
 52 55  1  0  0  0
 33 25  2  0  0  0
 55 57  2  0  0  0
 25 30  1  0  0  0
 25 32  1  0  0  0
 27 29  1  0  0  0
 27 31  1  0  0  0
 29 32  1  0  0  0
 10 12  2  0  0  0
 10 11  1  0  0  0
 32 28  1  0  0  0
 54 58  2  0  0  0
 19 23  2  0  0  0
 19 24  1  0  0  0
 23 21  1  0  0  0
 13 12  1  0  0  0
 17 11  1  0  0  0
 17 18  1  0  0  0
 12 16  1  0  0  0
 57 58  1  0  0  0
 31 26  1  0  0  0
 31 24  1  0  0  0
 11 15  2  0  0  0
 26 28  1  0  0  0
 24 22  2  0  0  0
 21 18  1  0  0  0
 21 20  2  0  0  0
 22 20  1  0  0  0
 16 15  1  0  0  0
 16 14  1  0  0  0
 35 37  1  0  0  0
M  END
> <minimizedAffinity>
-10.69551

$$$$
5VKC_9EA_A_401


 58 65  0  0  0  0  0  0  0  0999 V2000
  -31.4724    7.5747    9.8654 C   0  0  0  0  0  0  0  0  0  0  0  0
  -32.5833    7.6961   11.9954 C   0  0  0  0  0  0  0  0  0  0  0  0
  -32.6708    7.1971    9.2840 C   0  0  0  0  0  0  0  0  0  0  0  0
  -33.7919    7.3485   11.4412 C   0  0  0  0  0  0  0  0  0  0  0  0
  -33.8148    7.1025   10.0694 C   0  0  0  0  0  0  0  0  0  0  0  0
  -31.4507    7.8037   11.2237 C   0  0  0  0  0  0  0  0  0  0  0  0
  -32.9983    6.8827    7.9354 C   0  0  0  0  0  0  0  0  0  0  0  0
  -34.3455    6.5928    7.9007 C   0  0  0  0  0  0  0  0  0  0  0  0
  -34.8048    6.7226    9.1930 N   0  0  0  0  0  0  0  0  0  0  0  0
  -34.9490    7.3264   12.3157 C   0  0  0  0  0  0  0  0  0  0  0  0
  -35.9147    8.3521   12.4852 C   0  0  0  0  0  0  0  0  0  0  0  0
  -35.3161    6.3234   13.1961 C   0  0  0  0  0  0  0  0  0  0  0  0
  -34.7360    5.0029   13.5273 C   0  0  0  0  0  0  0  0  0  0  0  0
  -37.2839    6.0930   14.7661 C   0  0  0  0  0  0  0  0  0  0  0  0
  -36.8444    8.0025   13.3782 N   0  0  0  0  0  0  0  0  0  0  0  0
  -36.4655    6.7804   13.7826 N   0  0  0  0  0  0  0  0  0  0  0  0
  -35.9882    9.6672   11.8216 C   0  0  0  0  0  0  0  0  0  0  0  0
  -35.6771   10.6741   12.7682 O   0  0  0  0  0  0  0  0  0  0  0  0
  -38.3444   13.0885   13.7222 C   0  0  0  0  0  0  0  0  0  0  0  0
  -36.4071   12.6784   11.8467 C   0  0  0  0  0  0  0  0  0  0  0  0
  -36.5665   11.7485   12.8476 C   0  0  0  0  0  0  0  0  0  0  0  0
  -37.2017   13.8019   11.7911 C   0  0  0  0  0  0  0  0  0  0  0  0
  -37.5559   11.9581   13.7891 C   0  0  0  0  0  0  0  0  0  0  0  0
  -38.1890   14.0529   12.7361 C   0  0  0  0  0  0  0  0  0  0  0  0
  -42.0981   17.9740   11.9332 C   0  0  0  0  0  0  0  0  0  0  0  0
  -40.2836   15.1042   13.3615 C   0  0  0  0  0  0  0  0  0  0  0  0
  -39.1833   15.7660   11.3141 C   0  0  0  0  0  0  0  0  0  0  0  0
  -40.9611   16.4573   13.4830 C   0  0  0  0  0  0  0  0  0  0  0  0
  -39.8282   17.1398   11.3586 C   0  0  0  0  0  0  0  0  0  0  0  0
  -41.7057   19.3311   11.4227 C   0  0  0  0  0  0  0  0  0  0  0  0
  -38.9995   15.2387   12.6651 N   0  0  0  0  0  0  0  0  0  0  0  0
  -41.0106   17.1557   12.2075 N   0  0  0  0  0  0  0  0  0  0  0  0
  -43.2792   17.6846   12.1023 O   0  0  0  0  0  0  0  0  0  0  0  0
  -35.1777    6.2494    6.7700 C   0  0  0  0  0  0  0  0  0  0  0  0
  -35.4972    5.1237    6.4351 O   0  0  0  0  0  0  0  0  0  0  0  0
  -35.6084    7.3115    6.0753 O   0  0  0  0  0  0  0  0  0  0  0  0
  -35.1929    4.3851    6.9248 H   0  0  0  0  0  0  0  0  0  0  0  0
  -32.0587    6.9309    6.7821 C   0  0  0  0  0  0  0  0  0  0  0  0
  -31.9606    8.2546    6.0463 C   0  0  0  0  0  0  0  0  0  0  0  0
  -32.3936    8.1391    4.6043 C   0  0  0  0  0  0  0  0  0  0  0  0
  -31.7040    7.0614    3.9879 O   0  0  0  0  0  0  0  0  0  0  0  0
  -29.5787    8.8239    1.5175 C   0  0  0  0  0  0  0  0  0  0  0  0
  -27.5741    5.8203    2.0093 C   0  0  0  0  0  0  0  0  0  0  0  0
  -29.6678    5.3030    3.7150 C   0  0  0  0  0  0  0  0  0  0  0  0
  -29.6593    6.4847    2.9888 C   0  0  0  0  0  0  0  0  0  0  0  0
  -27.5919    4.6470    2.7302 C   0  0  0  0  0  0  0  0  0  0  0  0
  -28.6405    4.3941    3.5904 C   0  0  0  0  0  0  0  0  0  0  0  0
  -28.5610    7.9019    1.3984 C   0  0  0  0  0  0  0  0  0  0  0  0
  -30.6393    8.5936    2.3679 C   0  0  0  0  0  0  0  0  0  0  0  0
  -28.5987    6.7351    2.1357 C   0  0  0  0  0  0  0  0  0  0  0  0
  -30.6819    7.4150    3.1030 C   0  0  0  0  0  0  0  0  0  0  0  0
  -36.1558    6.3268    9.5651 C   0  0  0  0  0  0  0  0  0  0  0  0
  -35.2456    2.7078   10.2260 C   0  0  0  0  0  0  0  0  0  0  0  0
  -36.3563    2.3576   10.9535 C   0  0  0  0  0  0  0  0  0  0  0  0
  -36.1624    4.9041   10.0275 C   0  0  0  0  0  0  0  0  0  0  0  0
  -35.1475    3.9989    9.7557 C   0  0  0  0  0  0  0  0  0  0  0  0
  -37.2304    4.4452   10.7681 C   0  0  0  0  0  0  0  0  0  0  0  0
  -37.3568    3.1978   11.2346 N   0  0  0  0  0  0  0  0  0  0  0  0
 46 43  2  0  0  0
 46 47  1  0  0  0
 43 50  1  0  0  0
 47 44  2  0  0  0
 50 48  2  0  0  0
 50 45  1  0  0  0
 44 45  1  0  0  0
 48 42  1  0  0  0
 45 51  2  0  0  0
 42 49  2  0  0  0
 51 49  1  0  0  0
 51 41  1  0  0  0
 41 40  1  0  0  0
 40 39  1  0  0  0
 39 38  1  0  0  0
 38  7  1  0  0  0
  1  3  2  0  0  0
  1  6  1  0  0  0
  7  3  1  0  0  0
  7  8  2  0  0  0
 36 34  2  0  0  0
  3  5  1  0  0  0
  6  2  2  0  0  0
 34  8  1  0  0  0
 34 35  1  0  0  0
  8  9  1  0  0  0
  5  9  1  0  0  0
  5  4  2  0  0  0
  2  4  1  0  0  0
  9 52  1  0  0  0
  4 10  1  0  0  0
 56 53  2  0  0  0
 56 55  1  0  0  0
 53 54  1  0  0  0
 52 55  1  0  0  0
 33 25  2  0  0  0
 55 57  2  0  0  0
 25 30  1  0  0  0
 25 32  1  0  0  0
 27 29  1  0  0  0
 27 31  1  0  0  0
 29 32  1  0  0  0
 10 12  2  0  0  0
 10 11  1  0  0  0
 32 28  1  0  0  0
 54 58  2  0  0  0
 19 23  2  0  0  0
 19 24  1  0  0  0
 23 21  1  0  0  0
 13 12  1  0  0  0
 17 11  1  0  0  0
 17 18  1  0  0  0
 12 16  1  0  0  0
 57 58  1  0  0  0
 31 26  1  0  0  0
 31 24  1  0  0  0
 11 15  2  0  0  0
 26 28  1  0  0  0
 24 22  2  0  0  0
 21 18  1  0  0  0
 21 20  2  0  0  0
 22 20  1  0  0  0
 16 15  1  0  0  0
 16 14  1  0  0  0
 35 37  1  0  0  0
M  END
> <minimizedAffinity>
-10.28621

$$$$
5VKC_9EA_A_401


 58 65  0  0  0  0  0  0  0  0999 V2000
  -34.6458    6.9702    6.7004 C   0  0  0  0  0  0  0  0  0  0  0  0
  -36.6774    7.2320    7.9612 C   0  0  0  0  0  0  0  0  0  0  0  0
  -33.9843    6.6424    7.8716 C   0  0  0  0  0  0  0  0  0  0  0  0
  -36.0527    6.8847    9.1350 C   0  0  0  0  0  0  0  0  0  0  0  0
  -34.6923    6.5888    9.0676 C   0  0  0  0  0  0  0  0  0  0  0  0
  -35.9872    7.2754    6.7730 C   0  0  0  0  0  0  0  0  0  0  0  0
  -32.6242    6.3016    8.1140 C   0  0  0  0  0  0  0  0  0  0  0  0
  -32.5037    6.0426    9.4626 C   0  0  0  0  0  0  0  0  0  0  0  0
  -33.7542    6.2324   10.0085 N   0  0  0  0  0  0  0  0  0  0  0  0
  -36.8711    6.7965   10.3294 C   0  0  0  0  0  0  0  0  0  0  0  0
  -37.3390    7.8713   11.1289 C   0  0  0  0  0  0  0  0  0  0  0  0
  -37.3180    5.6466   10.9572 C   0  0  0  0  0  0  0  0  0  0  0  0
  -37.1676    4.2050   10.6586 C   0  0  0  0  0  0  0  0  0  0  0  0
  -38.7550    5.2925   13.0065 C   0  0  0  0  0  0  0  0  0  0  0  0
  -38.0617    7.4307   12.1622 N   0  0  0  0  0  0  0  0  0  0  0  0
  -38.0388    6.0955   12.0308 N   0  0  0  0  0  0  0  0  0  0  0  0
  -37.1230    9.3186   10.9448 C   0  0  0  0  0  0  0  0  0  0  0  0
  -37.4664    9.9876   12.1452 O   0  0  0  0  0  0  0  0  0  0  0  0
  -39.5365   13.0386   11.6349 C   0  0  0  0  0  0  0  0  0  0  0  0
  -36.9848   12.2602   12.2021 C   0  0  0  0  0  0  0  0  0  0  0  0
  -37.9450   11.2936   12.0138 C   0  0  0  0  0  0  0  0  0  0  0  0
  -37.3004   13.5979   12.1156 C   0  0  0  0  0  0  0  0  0  0  0  0
  -39.2337   11.6949   11.7178 C   0  0  0  0  0  0  0  0  0  0  0  0
  -38.5914   14.0336   11.8428 C   0  0  0  0  0  0  0  0  0  0  0  0
  -40.3237   19.3047   12.5606 C   0  0  0  0  0  0  0  0  0  0  0  0
  -38.3548   16.2090   12.8893 C   0  0  0  0  0  0  0  0  0  0  0  0
  -40.3171   15.7331   11.5614 C   0  0  0  0  0  0  0  0  0  0  0  0
  -38.4781   17.6967   12.6128 C   0  0  0  0  0  0  0  0  0  0  0  0
  -40.5149   17.2047   11.2445 C   0  0  0  0  0  0  0  0  0  0  0  0
  -40.9402   20.0546   11.4142 C   0  0  0  0  0  0  0  0  0  0  0  0
  -38.9008   15.4360   11.7685 N   0  0  0  0  0  0  0  0  0  0  0  0
  -39.8240   18.0614   12.1973 N   0  0  0  0  0  0  0  0  0  0  0  0
  -40.2664   19.8060   13.6798 O   0  0  0  0  0  0  0  0  0  0  0  0
  -31.3421    5.6205   10.2119 C   0  0  0  0  0  0  0  0  0  0  0  0
  -30.4458    6.3436   10.6060 O   0  0  0  0  0  0  0  0  0  0  0  0
  -31.3147    4.3054   10.4685 O   0  0  0  0  0  0  0  0  0  0  0  0
  -30.4705    7.2624   10.4235 H   0  0  0  0  0  0  0  0  0  0  0  0
  -31.5623    6.1863    7.0776 C   0  0  0  0  0  0  0  0  0  0  0  0
  -30.9879    7.4889    6.5519 C   0  0  0  0  0  0  0  0  0  0  0  0
  -31.7638    8.0186    5.3696 C   0  0  0  0  0  0  0  0  0  0  0  0
  -31.6544    7.1079    4.2854 O   0  0  0  0  0  0  0  0  0  0  0  0
  -29.7387    8.8081    1.6085 C   0  0  0  0  0  0  0  0  0  0  0  0
  -27.7543    5.7691    1.9384 C   0  0  0  0  0  0  0  0  0  0  0  0
  -29.6870    5.3071    3.8388 C   0  0  0  0  0  0  0  0  0  0  0  0
  -29.7246    6.4826    3.1036 C   0  0  0  0  0  0  0  0  0  0  0  0
  -27.7263    4.6022    2.6692 C   0  0  0  0  0  0  0  0  0  0  0  0
  -28.6936    4.3770    3.6268 C   0  0  0  0  0  0  0  0  0  0  0  0
  -28.7546    7.8650    1.4029 C   0  0  0  0  0  0  0  0  0  0  0  0
  -30.7184    8.6057    2.5574 C   0  0  0  0  0  0  0  0  0  0  0  0
  -28.7447    6.7051    2.1519 C   0  0  0  0  0  0  0  0  0  0  0  0
  -30.7139    7.4340    3.3047 C   0  0  0  0  0  0  0  0  0  0  0  0
  -33.9684    6.2105   11.4486 C   0  0  0  0  0  0  0  0  0  0  0  0
  -33.1851    9.8516   12.1489 C   0  0  0  0  0  0  0  0  0  0  0  0
  -32.4817    9.6785   13.3154 C   0  0  0  0  0  0  0  0  0  0  0  0
  -33.4701    7.4822   12.0587 C   0  0  0  0  0  0  0  0  0  0  0  0
  -33.6857    8.7380   11.5111 C   0  0  0  0  0  0  0  0  0  0  0  0
  -32.7520    7.4253   13.2338 C   0  0  0  0  0  0  0  0  0  0  0  0
  -32.2495    8.4869   13.8742 N   0  0  0  0  0  0  0  0  0  0  0  0
 46 43  2  0  0  0
 46 47  1  0  0  0
 43 50  1  0  0  0
 47 44  2  0  0  0
 50 48  2  0  0  0
 50 45  1  0  0  0
 44 45  1  0  0  0
 48 42  1  0  0  0
 45 51  2  0  0  0
 42 49  2  0  0  0
 51 49  1  0  0  0
 51 41  1  0  0  0
 41 40  1  0  0  0
 40 39  1  0  0  0
 39 38  1  0  0  0
 38  7  1  0  0  0
  1  3  2  0  0  0
  1  6  1  0  0  0
  7  3  1  0  0  0
  7  8  2  0  0  0
 36 34  2  0  0  0
  3  5  1  0  0  0
  6  2  2  0  0  0
 34  8  1  0  0  0
 34 35  1  0  0  0
  8  9  1  0  0  0
  5  9  1  0  0  0
  5  4  2  0  0  0
  2  4  1  0  0  0
  9 52  1  0  0  0
  4 10  1  0  0  0
 56 53  2  0  0  0
 56 55  1  0  0  0
 53 54  1  0  0  0
 52 55  1  0  0  0
 33 25  2  0  0  0
 55 57  2  0  0  0
 25 30  1  0  0  0
 25 32  1  0  0  0
 27 29  1  0  0  0
 27 31  1  0  0  0
 29 32  1  0  0  0
 10 12  2  0  0  0
 10 11  1  0  0  0
 32 28  1  0  0  0
 54 58  2  0  0  0
 19 23  2  0  0  0
 19 24  1  0  0  0
 23 21  1  0  0  0
 13 12  1  0  0  0
 17 11  1  0  0  0
 17 18  1  0  0  0
 12 16  1  0  0  0
 57 58  1  0  0  0
 31 26  1  0  0  0
 31 24  1  0  0  0
 11 15  2  0  0  0
 26 28  1  0  0  0
 24 22  2  0  0  0
 21 18  1  0  0  0
 21 20  2  0  0  0
 22 20  1  0  0  0
 16 15  1  0  0  0
 16 14  1  0  0  0
 35 37  1  0  0  0
M  END
> <minimizedAffinity>
-10.19093

$$$$
5VKC_9EA_A_401


 58 65  0  0  0  0  0  0  0  0999 V2000
  -30.8054    8.0517   10.0297 C   0  0  0  0  0  0  0  0  0  0  0  0
  -31.9363    8.0145   12.1523 C   0  0  0  0  0  0  0  0  0  0  0  0
  -31.9837    7.6603    9.4172 C   0  0  0  0  0  0  0  0  0  0  0  0
  -33.1262    7.6511   11.5684 C   0  0  0  0  0  0  0  0  0  0  0  0
  -33.1291    7.4791   10.1852 C   0  0  0  0  0  0  0  0  0  0  0  0
  -30.8029    8.2074   11.3985 C   0  0  0  0  0  0  0  0  0  0  0  0
  -32.2884    7.4071    8.0505 C   0  0  0  0  0  0  0  0  0  0  0  0
  -33.6230    7.0678    7.9872 C   0  0  0  0  0  0  0  0  0  0  0  0
  -34.0968    7.1094    9.2801 N   0  0  0  0  0  0  0  0  0  0  0  0
  -34.2882    7.5371   12.4292 C   0  0  0  0  0  0  0  0  0  0  0  0
  -35.2982    8.5112   12.6389 C   0  0  0  0  0  0  0  0  0  0  0  0
  -34.6190    6.4773   13.2559 C   0  0  0  0  0  0  0  0  0  0  0  0
  -33.9855    5.1679   13.5280 C   0  0  0  0  0  0  0  0  0  0  0  0
  -36.5874    6.0868   14.7930 C   0  0  0  0  0  0  0  0  0  0  0  0
  -36.2192    8.0791   13.5045 N   0  0  0  0  0  0  0  0  0  0  0  0
  -35.7914    6.8558   13.8525 N   0  0  0  0  0  0  0  0  0  0  0  0
  -35.4227    9.8532   12.0396 C   0  0  0  0  0  0  0  0  0  0  0  0
  -36.7912   10.1128   11.7821 O   0  0  0  0  0  0  0  0  0  0  0  0
  -36.9564   13.8218   12.0466 C   0  0  0  0  0  0  0  0  0  0  0  0
  -38.5370   11.6387   11.6291 C   0  0  0  0  0  0  0  0  0  0  0  0
  -37.1887   11.4515   11.8258 C   0  0  0  0  0  0  0  0  0  0  0  0
  -39.0843   12.9025   11.6333 C   0  0  0  0  0  0  0  0  0  0  0  0
  -36.3953   12.5612   12.0458 C   0  0  0  0  0  0  0  0  0  0  0  0
  -38.3097   14.0395   11.8281 C   0  0  0  0  0  0  0  0  0  0  0  0
  -41.4066   18.6556   12.4616 C   0  0  0  0  0  0  0  0  0  0  0  0
  -39.0057   15.9489   13.1523 C   0  0  0  0  0  0  0  0  0  0  0  0
  -40.1707   15.4356   11.0982 C   0  0  0  0  0  0  0  0  0  0  0  0
  -39.3764   17.4171   13.0439 C   0  0  0  0  0  0  0  0  0  0  0  0
  -40.5898   16.8842   10.9211 C   0  0  0  0  0  0  0  0  0  0  0  0
  -41.7249   19.5148   11.2712 C   0  0  0  0  0  0  0  0  0  0  0  0
  -38.9007   15.3505   11.8171 N   0  0  0  0  0  0  0  0  0  0  0  0
  -40.5235   17.6239   12.1730 N   0  0  0  0  0  0  0  0  0  0  0  0
  -41.8845   18.9087   13.5638 O   0  0  0  0  0  0  0  0  0  0  0  0
  -34.4325    6.7544    6.8316 C   0  0  0  0  0  0  0  0  0  0  0  0
  -34.7654    5.6393    6.4749 O   0  0  0  0  0  0  0  0  0  0  0  0
  -34.8244    7.8329    6.1393 O   0  0  0  0  0  0  0  0  0  0  0  0
  -34.4883    4.8890    6.9630 H   0  0  0  0  0  0  0  0  0  0  0  0
  -31.3426    7.5540    6.9107 C   0  0  0  0  0  0  0  0  0  0  0  0
  -31.4634    6.5300    5.7972 C   0  0  0  0  0  0  0  0  0  0  0  0
  -31.5346    7.1753    4.4339 C   0  0  0  0  0  0  0  0  0  0  0  0
  -31.2336    6.2098    3.4369 O   0  0  0  0  0  0  0  0  0  0  0  0
  -27.7491    5.0055    3.0707 C   0  0  0  0  0  0  0  0  0  0  0  0
  -27.5115    8.1273    1.2051 C   0  0  0  0  0  0  0  0  0  0  0  0
  -30.1552    8.2002    1.9577 C   0  0  0  0  0  0  0  0  0  0  0  0
  -29.3689    7.1243    2.3423 C   0  0  0  0  0  0  0  0  0  0  0  0
  -28.2975    9.1945    0.8309 C   0  0  0  0  0  0  0  0  0  0  0  0
  -29.6253    9.2243    1.2044 C   0  0  0  0  0  0  0  0  0  0  0  0
  -27.2311    6.0409    2.3224 C   0  0  0  0  0  0  0  0  0  0  0  0
  -29.0720    5.0128    3.4590 C   0  0  0  0  0  0  0  0  0  0  0  0
  -28.0404    7.0975    1.9550 C   0  0  0  0  0  0  0  0  0  0  0  0
  -29.8842    6.0809    3.0973 C   0  0  0  0  0  0  0  0  0  0  0  0
  -35.4341    6.6422    9.6171 C   0  0  0  0  0  0  0  0  0  0  0  0
  -34.3178    3.0711   10.2194 C   0  0  0  0  0  0  0  0  0  0  0  0
  -35.5478    2.5267   10.4955 C   0  0  0  0  0  0  0  0  0  0  0  0
  -35.4023    5.1778    9.9209 C   0  0  0  0  0  0  0  0  0  0  0  0
  -34.2439    4.4152    9.9273 C   0  0  0  0  0  0  0  0  0  0  0  0
  -36.5822    4.5285   10.2140 C   0  0  0  0  0  0  0  0  0  0  0  0
  -36.6871    3.2252   10.4969 N   0  0  0  0  0  0  0  0  0  0  0  0
 46 43  2  0  0  0
 46 47  1  0  0  0
 43 50  1  0  0  0
 47 44  2  0  0  0
 50 48  2  0  0  0
 50 45  1  0  0  0
 44 45  1  0  0  0
 48 42  1  0  0  0
 45 51  2  0  0  0
 42 49  2  0  0  0
 51 49  1  0  0  0
 51 41  1  0  0  0
 41 40  1  0  0  0
 40 39  1  0  0  0
 39 38  1  0  0  0
 38  7  1  0  0  0
  1  3  2  0  0  0
  1  6  1  0  0  0
  7  3  1  0  0  0
  7  8  2  0  0  0
 36 34  2  0  0  0
  3  5  1  0  0  0
  6  2  2  0  0  0
 34  8  1  0  0  0
 34 35  1  0  0  0
  8  9  1  0  0  0
  5  9  1  0  0  0
  5  4  2  0  0  0
  2  4  1  0  0  0
  9 52  1  0  0  0
  4 10  1  0  0  0
 56 53  2  0  0  0
 56 55  1  0  0  0
 53 54  1  0  0  0
 52 55  1  0  0  0
 33 25  2  0  0  0
 55 57  2  0  0  0
 25 30  1  0  0  0
 25 32  1  0  0  0
 27 29  1  0  0  0
 27 31  1  0  0  0
 29 32  1  0  0  0
 10 12  2  0  0  0
 10 11  1  0  0  0
 32 28  1  0  0  0
 54 58  2  0  0  0
 19 23  2  0  0  0
 19 24  1  0  0  0
 23 21  1  0  0  0
 13 12  1  0  0  0
 17 11  1  0  0  0
 17 18  1  0  0  0
 12 16  1  0  0  0
 57 58  1  0  0  0
 31 26  1  0  0  0
 31 24  1  0  0  0
 11 15  2  0  0  0
 26 28  1  0  0  0
 24 22  2  0  0  0
 21 18  1  0  0  0
 21 20  2  0  0  0
 22 20  1  0  0  0
 16 15  1  0  0  0
 16 14  1  0  0  0
 35 37  1  0  0  0
M  END
> <minimizedAffinity>
-10.01764

$$$$
5VKC_9EA_A_401


 58 65  0  0  0  0  0  0  0  0999 V2000
  -35.9819    6.0242    8.6574 C   0  0  0  0  0  0  0  0  0  0  0  0
  -35.8567    6.7603   10.9439 C   0  0  0  0  0  0  0  0  0  0  0  0
  -34.6612    6.4016    8.4841 C   0  0  0  0  0  0  0  0  0  0  0  0
  -34.5372    7.1198   10.8083 C   0  0  0  0  0  0  0  0  0  0  0  0
  -33.9516    6.9287    9.5580 C   0  0  0  0  0  0  0  0  0  0  0  0
  -36.5613    6.2272    9.8906 C   0  0  0  0  0  0  0  0  0  0  0  0
  -33.8104    6.3336    7.3456 C   0  0  0  0  0  0  0  0  0  0  0  0
  -32.5799    6.8238    7.7272 C   0  0  0  0  0  0  0  0  0  0  0  0
  -32.6975    7.1814    9.0524 N   0  0  0  0  0  0  0  0  0  0  0  0
  -33.8509    7.6089   11.9889 C   0  0  0  0  0  0  0  0  0  0  0  0
  -33.5356    8.9569   12.3000 C   0  0  0  0  0  0  0  0  0  0  0  0
  -33.3221    6.8570   13.0238 C   0  0  0  0  0  0  0  0  0  0  0  0
  -33.2854    5.4047   13.3056 C   0  0  0  0  0  0  0  0  0  0  0  0
  -32.1272    7.5184   15.1509 C   0  0  0  0  0  0  0  0  0  0  0  0
  -32.8905    9.0493   13.4660 N   0  0  0  0  0  0  0  0  0  0  0  0
  -32.7825    7.7778   13.8810 N   0  0  0  0  0  0  0  0  0  0  0  0
  -33.8286   10.1750   11.5217 C   0  0  0  0  0  0  0  0  0  0  0  0
  -34.1978   11.2100   12.4155 O   0  0  0  0  0  0  0  0  0  0  0  0
  -37.8807   11.3705   12.9294 C   0  0  0  0  0  0  0  0  0  0  0  0
  -35.8216   12.7504   11.7915 C   0  0  0  0  0  0  0  0  0  0  0  0
  -35.5491   11.5642   12.4320 C   0  0  0  0  0  0  0  0  0  0  0  0
  -37.1065   13.2424   11.7291 C   0  0  0  0  0  0  0  0  0  0  0  0
  -36.5983   10.8658   12.9984 C   0  0  0  0  0  0  0  0  0  0  0  0
  -38.1790   12.5757   12.3089 C   0  0  0  0  0  0  0  0  0  0  0  0
  -43.3539   14.2348   10.9792 C   0  0  0  0  0  0  0  0  0  0  0  0
  -40.5356   12.0928   11.9973 C   0  0  0  0  0  0  0  0  0  0  0  0
  -39.6615   14.2436   11.3261 C   0  0  0  0  0  0  0  0  0  0  0  0
  -41.9212   12.6760   12.2089 C   0  0  0  0  0  0  0  0  0  0  0  0
  -41.0180   14.9015   11.5059 C   0  0  0  0  0  0  0  0  0  0  0  0
  -43.8051   15.6275   11.3159 C   0  0  0  0  0  0  0  0  0  0  0  0
  -39.5109   13.1138   12.2415 N   0  0  0  0  0  0  0  0  0  0  0  0
  -42.0991   13.9269   11.4873 N   0  0  0  0  0  0  0  0  0  0  0  0
  -44.0800   13.4769   10.3423 O   0  0  0  0  0  0  0  0  0  0  0  0
  -31.3621    6.9365    6.9570 C   0  0  0  0  0  0  0  0  0  0  0  0
  -30.9249    7.9575    6.4589 O   0  0  0  0  0  0  0  0  0  0  0  0
  -30.6996    5.7792    6.8233 O   0  0  0  0  0  0  0  0  0  0  0  0
  -31.3926    8.7636    6.5557 H   0  0  0  0  0  0  0  0  0  0  0  0
  -34.1823    5.7707    6.0189 C   0  0  0  0  0  0  0  0  0  0  0  0
  -33.8398    6.6170    4.8066 C   0  0  0  0  0  0  0  0  0  0  0  0
  -32.7510    5.9946    3.9655 C   0  0  0  0  0  0  0  0  0  0  0  0
  -31.7215    6.9473    3.7433 O   0  0  0  0  0  0  0  0  0  0  0  0
  -28.7557    4.7957    3.1956 C   0  0  0  0  0  0  0  0  0  0  0  0
  -27.7908    7.6814    1.1895 C   0  0  0  0  0  0  0  0  0  0  0  0
  -30.2417    8.5179    2.1136 C   0  0  0  0  0  0  0  0  0  0  0  0
  -29.7635    7.2714    2.4893 C   0  0  0  0  0  0  0  0  0  0  0  0
  -28.2703    8.9197    0.8245 C   0  0  0  0  0  0  0  0  0  0  0  0
  -29.5036    9.3332    1.2844 C   0  0  0  0  0  0  0  0  0  0  0  0
  -28.0254    5.6253    2.3717 C   0  0  0  0  0  0  0  0  0  0  0  0
  -29.9895    5.1866    3.6709 C   0  0  0  0  0  0  0  0  0  0  0  0
  -28.5298    6.8602    2.0155 C   0  0  0  0  0  0  0  0  0  0  0  0
  -30.4930    6.4334    3.3200 C   0  0  0  0  0  0  0  0  0  0  0  0
  -31.6359    7.8974    9.7457 C   0  0  0  0  0  0  0  0  0  0  0  0
  -30.1855    4.7709   11.3216 C   0  0  0  0  0  0  0  0  0  0  0  0
  -29.2814    5.3765   12.1590 C   0  0  0  0  0  0  0  0  0  0  0  0
  -30.8327    6.9444   10.5731 C   0  0  0  0  0  0  0  0  0  0  0  0
  -30.9728    5.5658   10.5179 C   0  0  0  0  0  0  0  0  0  0  0  0
  -29.8931    7.4448   11.4486 C   0  0  0  0  0  0  0  0  0  0  0  0
  -29.1175    6.7001   12.2445 N   0  0  0  0  0  0  0  0  0  0  0  0
 46 43  2  0  0  0
 46 47  1  0  0  0
 43 50  1  0  0  0
 47 44  2  0  0  0
 50 48  2  0  0  0
 50 45  1  0  0  0
 44 45  1  0  0  0
 48 42  1  0  0  0
 45 51  2  0  0  0
 42 49  2  0  0  0
 51 49  1  0  0  0
 51 41  1  0  0  0
 41 40  1  0  0  0
 40 39  1  0  0  0
 39 38  1  0  0  0
 38  7  1  0  0  0
  1  3  2  0  0  0
  1  6  1  0  0  0
  7  3  1  0  0  0
  7  8  2  0  0  0
 36 34  2  0  0  0
  3  5  1  0  0  0
  6  2  2  0  0  0
 34  8  1  0  0  0
 34 35  1  0  0  0
  8  9  1  0  0  0
  5  9  1  0  0  0
  5  4  2  0  0  0
  2  4  1  0  0  0
  9 52  1  0  0  0
  4 10  1  0  0  0
 56 53  2  0  0  0
 56 55  1  0  0  0
 53 54  1  0  0  0
 52 55  1  0  0  0
 33 25  2  0  0  0
 55 57  2  0  0  0
 25 30  1  0  0  0
 25 32  1  0  0  0
 27 29  1  0  0  0
 27 31  1  0  0  0
 29 32  1  0  0  0
 10 12  2  0  0  0
 10 11  1  0  0  0
 32 28  1  0  0  0
 54 58  2  0  0  0
 19 23  2  0  0  0
 19 24  1  0  0  0
 23 21  1  0  0  0
 13 12  1  0  0  0
 17 11  1  0  0  0
 17 18  1  0  0  0
 12 16  1  0  0  0
 57 58  1  0  0  0
 31 26  1  0  0  0
 31 24  1  0  0  0
 11 15  2  0  0  0
 26 28  1  0  0  0
 24 22  2  0  0  0
 21 18  1  0  0  0
 21 20  2  0  0  0
 22 20  1  0  0  0
 16 15  1  0  0  0
 16 14  1  0  0  0
 35 37  1  0  0  0
M  END
> <minimizedAffinity>
-9.79859

$$$$
5VKC_9EA_A_401


 58 65  0  0  0  0  0  0  0  0999 V2000
  -32.1105    7.7876   10.3302 C   0  0  0  0  0  0  0  0  0  0  0  0
  -33.3015    8.1549   12.3874 C   0  0  0  0  0  0  0  0  0  0  0  0
  -33.2820    7.3223    9.7578 C   0  0  0  0  0  0  0  0  0  0  0  0
  -34.4846    7.7225   11.8379 C   0  0  0  0  0  0  0  0  0  0  0  0
  -34.4535    7.3079   10.5075 C   0  0  0  0  0  0  0  0  0  0  0  0
  -32.1420    8.1836   11.6492 C   0  0  0  0  0  0  0  0  0  0  0  0
  -33.5553    6.8380    8.4480 C   0  0  0  0  0  0  0  0  0  0  0  0
  -34.8970    6.5251    8.4016 C   0  0  0  0  0  0  0  0  0  0  0  0
  -35.4057    6.8069    9.6504 N   0  0  0  0  0  0  0  0  0  0  0  0
  -35.6733    7.7910   12.6664 C   0  0  0  0  0  0  0  0  0  0  0  0
  -36.6719    8.7987   12.6506 C   0  0  0  0  0  0  0  0  0  0  0  0
  -36.0467    6.9158   13.6717 C   0  0  0  0  0  0  0  0  0  0  0  0
  -35.4445    5.6771   14.2128 C   0  0  0  0  0  0  0  0  0  0  0  0
  -38.0662    6.8537   15.1909 C   0  0  0  0  0  0  0  0  0  0  0  0
  -37.6255    8.5534   13.5533 N   0  0  0  0  0  0  0  0  0  0  0  0
  -37.2296    7.4163   14.1454 N   0  0  0  0  0  0  0  0  0  0  0  0
  -36.7553   10.0000   11.7989 C   0  0  0  0  0  0  0  0  0  0  0  0
  -36.6240   11.1492   12.6166 O   0  0  0  0  0  0  0  0  0  0  0  0
  -38.2809   14.3197   11.5887 C   0  0  0  0  0  0  0  0  0  0  0  0
  -38.7982   11.9431   12.8226 C   0  0  0  0  0  0  0  0  0  0  0  0
  -37.5222   12.1912   12.3729 C   0  0  0  0  0  0  0  0  0  0  0  0
  -39.8026   12.8692   12.6491 C   0  0  0  0  0  0  0  0  0  0  0  0
  -37.2652   13.4010   11.7569 C   0  0  0  0  0  0  0  0  0  0  0  0
  -39.5814   14.0845   12.0128 C   0  0  0  0  0  0  0  0  0  0  0  0
  -43.9735   17.5272   12.4101 C   0  0  0  0  0  0  0  0  0  0  0  0
  -40.5608   16.1811   12.7401 C   0  0  0  0  0  0  0  0  0  0  0  0
  -41.9871   14.4462   11.8479 C   0  0  0  0  0  0  0  0  0  0  0  0
  -41.5414   17.2608   12.3189 C   0  0  0  0  0  0  0  0  0  0  0  0
  -43.0222   15.4637   11.4024 C   0  0  0  0  0  0  0  0  0  0  0  0
  -44.9986   17.5653   11.3127 C   0  0  0  0  0  0  0  0  0  0  0  0
  -40.6480   15.0322   11.8322 N   0  0  0  0  0  0  0  0  0  0  0  0
  -42.8790   16.7274   12.1106 N   0  0  0  0  0  0  0  0  0  0  0  0
  -44.1270   18.1852   13.4351 O   0  0  0  0  0  0  0  0  0  0  0  0
  -35.6825    6.0313    7.2934 C   0  0  0  0  0  0  0  0  0  0  0  0
  -36.5357    6.6551    6.6896 O   0  0  0  0  0  0  0  0  0  0  0  0
  -35.3906    4.7705    6.9452 O   0  0  0  0  0  0  0  0  0  0  0  0
  -36.7353    7.5363    6.9377 H   0  0  0  0  0  0  0  0  0  0  0  0
  -32.5738    6.7575    7.3320 C   0  0  0  0  0  0  0  0  0  0  0  0
  -32.7720    7.7337    6.1871 C   0  0  0  0  0  0  0  0  0  0  0  0
  -33.1126    7.0339    4.8931 C   0  0  0  0  0  0  0  0  0  0  0  0
  -32.2399    7.4844    3.8674 O   0  0  0  0  0  0  0  0  0  0  0  0
  -29.7576    4.7342    3.8427 C   0  0  0  0  0  0  0  0  0  0  0  0
  -28.0329    7.1276    1.7028 C   0  0  0  0  0  0  0  0  0  0  0  0
  -30.3242    8.5360    2.2745 C   0  0  0  0  0  0  0  0  0  0  0  0
  -30.1546    7.2682    2.8108 C   0  0  0  0  0  0  0  0  0  0  0  0
  -28.2064    8.3889    1.1777 C   0  0  0  0  0  0  0  0  0  0  0  0
  -29.3606    9.0897    1.4610 C   0  0  0  0  0  0  0  0  0  0  0  0
  -28.7991    5.3040    3.0323 C   0  0  0  0  0  0  0  0  0  0  0  0
  -30.9183    5.4149    4.1432 C   0  0  0  0  0  0  0  0  0  0  0  0
  -28.9983    6.5680    2.5136 C   0  0  0  0  0  0  0  0  0  0  0  0
  -31.1147    6.6908    3.6287 C   0  0  0  0  0  0  0  0  0  0  0  0
  -36.7653    6.4393   10.0203 C   0  0  0  0  0  0  0  0  0  0  0  0
  -35.8382    2.9401   11.1421 C   0  0  0  0  0  0  0  0  0  0  0  0
  -36.9798    2.6536   11.8493 C   0  0  0  0  0  0  0  0  0  0  0  0
  -36.7751    5.0797   10.6441 C   0  0  0  0  0  0  0  0  0  0  0  0
  -35.7346    4.1700   10.5303 C   0  0  0  0  0  0  0  0  0  0  0  0
  -37.8733    4.6877   11.3791 C   0  0  0  0  0  0  0  0  0  0  0  0
  -38.0056    3.5002   11.9807 N   0  0  0  0  0  0  0  0  0  0  0  0
 46 43  2  0  0  0
 46 47  1  0  0  0
 43 50  1  0  0  0
 47 44  2  0  0  0
 50 48  2  0  0  0
 50 45  1  0  0  0
 44 45  1  0  0  0
 48 42  1  0  0  0
 45 51  2  0  0  0
 42 49  2  0  0  0
 51 49  1  0  0  0
 51 41  1  0  0  0
 41 40  1  0  0  0
 40 39  1  0  0  0
 39 38  1  0  0  0
 38  7  1  0  0  0
  1  3  2  0  0  0
  1  6  1  0  0  0
  7  3  1  0  0  0
  7  8  2  0  0  0
 36 34  2  0  0  0
  3  5  1  0  0  0
  6  2  2  0  0  0
 34  8  1  0  0  0
 34 35  1  0  0  0
  8  9  1  0  0  0
  5  9  1  0  0  0
  5  4  2  0  0  0
  2  4  1  0  0  0
  9 52  1  0  0  0
  4 10  1  0  0  0
 56 53  2  0  0  0
 56 55  1  0  0  0
 53 54  1  0  0  0
 52 55  1  0  0  0
 33 25  2  0  0  0
 55 57  2  0  0  0
 25 30  1  0  0  0
 25 32  1  0  0  0
 27 29  1  0  0  0
 27 31  1  0  0  0
 29 32  1  0  0  0
 10 12  2  0  0  0
 10 11  1  0  0  0
 32 28  1  0  0  0
 54 58  2  0  0  0
 19 23  2  0  0  0
 19 24  1  0  0  0
 23 21  1  0  0  0
 13 12  1  0  0  0
 17 11  1  0  0  0
 17 18  1  0  0  0
 12 16  1  0  0  0
 57 58  1  0  0  0
 31 26  1  0  0  0
 31 24  1  0  0  0
 11 15  2  0  0  0
 26 28  1  0  0  0
 24 22  2  0  0  0
 21 18  1  0  0  0
 21 20  2  0  0  0
 22 20  1  0  0  0
 16 15  1  0  0  0
 16 14  1  0  0  0
 35 37  1  0  0  0
M  END
> <minimizedAffinity>
-9.58715

$$$$
5VKC_9EA_A_401


 58 65  0  0  0  0  0  0  0  0999 V2000
  -34.5878    6.4467    7.7566 C   0  0  0  0  0  0  0  0  0  0  0  0
  -35.9856    6.6832    9.6997 C   0  0  0  0  0  0  0  0  0  0  0  0
  -33.5038    6.8642    8.5097 C   0  0  0  0  0  0  0  0  0  0  0  0
  -34.9230    7.0753   10.4780 C   0  0  0  0  0  0  0  0  0  0  0  0
  -33.6775    7.1585    9.8580 C   0  0  0  0  0  0  0  0  0  0  0  0
  -35.8198    6.3788    8.3693 C   0  0  0  0  0  0  0  0  0  0  0  0
  -32.1365    7.0464    8.1604 C   0  0  0  0  0  0  0  0  0  0  0  0
  -31.4766    7.4560    9.2993 C   0  0  0  0  0  0  0  0  0  0  0  0
  -32.4255    7.5238   10.2956 N   0  0  0  0  0  0  0  0  0  0  0  0
  -35.1746    7.3096   11.8873 C   0  0  0  0  0  0  0  0  0  0  0  0
  -35.4156    8.5571   12.5188 C   0  0  0  0  0  0  0  0  0  0  0  0
  -35.1808    6.3721   12.9056 C   0  0  0  0  0  0  0  0  0  0  0  0
  -34.9797    4.9063   12.9351 C   0  0  0  0  0  0  0  0  0  0  0  0
  -35.6162    6.5788   15.3871 C   0  0  0  0  0  0  0  0  0  0  0  0
  -35.6000    8.4096   13.8336 N   0  0  0  0  0  0  0  0  0  0  0  0
  -35.4611    7.0905   14.0366 N   0  0  0  0  0  0  0  0  0  0  0  0
  -35.4788    9.9000   11.9122 C   0  0  0  0  0  0  0  0  0  0  0  0
  -36.8053   10.1431   11.4788 O   0  0  0  0  0  0  0  0  0  0  0  0
  -37.3082   13.7262   12.3517 C   0  0  0  0  0  0  0  0  0  0  0  0
  -38.6905   11.4951   11.6101 C   0  0  0  0  0  0  0  0  0  0  0  0
  -37.3247   11.4116   11.7489 C   0  0  0  0  0  0  0  0  0  0  0  0
  -39.3534   12.6818   11.8317 C   0  0  0  0  0  0  0  0  0  0  0  0
  -36.6318   12.5435   12.1337 C   0  0  0  0  0  0  0  0  0  0  0  0
  -38.6826   13.8427   12.1965 C   0  0  0  0  0  0  0  0  0  0  0  0
  -40.9990   18.9321   12.0161 C   0  0  0  0  0  0  0  0  0  0  0  0
  -40.3869   15.3579   11.3700 C   0  0  0  0  0  0  0  0  0  0  0  0
  -38.5371   16.2331   12.6555 C   0  0  0  0  0  0  0  0  0  0  0  0
  -41.2800   16.5101   11.7937 C   0  0  0  0  0  0  0  0  0  0  0  0
  -39.3620   17.4208   13.1182 C   0  0  0  0  0  0  0  0  0  0  0  0
  -40.9774   19.8100   13.2349 C   0  0  0  0  0  0  0  0  0  0  0  0
  -39.3939   15.0740   12.4117 N   0  0  0  0  0  0  0  0  0  0  0  0
  -40.5076   17.6552   12.2512 N   0  0  0  0  0  0  0  0  0  0  0  0
  -41.4490   19.3472   10.9519 O   0  0  0  0  0  0  0  0  0  0  0  0
  -30.0723    7.7402    9.4897 C   0  0  0  0  0  0  0  0  0  0  0  0
  -29.3899    7.3689   10.4267 O   0  0  0  0  0  0  0  0  0  0  0  0
  -29.5332    8.4758    8.5077 O   0  0  0  0  0  0  0  0  0  0  0  0
  -29.7725    6.8548   11.1103 H   0  0  0  0  0  0  0  0  0  0  0  0
  -31.5401    6.7738    6.8243 C   0  0  0  0  0  0  0  0  0  0  0  0
  -31.9292    7.7223    5.7052 C   0  0  0  0  0  0  0  0  0  0  0  0
  -32.3663    6.9874    4.4606 C   0  0  0  0  0  0  0  0  0  0  0  0
  -31.6032    7.4394    3.3515 O   0  0  0  0  0  0  0  0  0  0  0  0
  -28.8523    4.9578    3.3322 C   0  0  0  0  0  0  0  0  0  0  0  0
  -27.3345    7.5622    1.2840 C   0  0  0  0  0  0  0  0  0  0  0  0
  -29.7703    8.7164    1.8276 C   0  0  0  0  0  0  0  0  0  0  0  0
  -29.4837    7.4607    2.3422 C   0  0  0  0  0  0  0  0  0  0  0  0
  -27.6246    8.8107    0.7803 C   0  0  0  0  0  0  0  0  0  0  0  0
  -28.8505    9.3837    1.0493 C   0  0  0  0  0  0  0  0  0  0  0  0
  -27.9394    5.6405    2.5573 C   0  0  0  0  0  0  0  0  0  0  0  0
  -30.0832    5.5096    3.6179 C   0  0  0  0  0  0  0  0  0  0  0  0
  -28.2555    6.8889    2.0594 C   0  0  0  0  0  0  0  0  0  0  0  0
  -30.3977    6.7702    3.1245 C   0  0  0  0  0  0  0  0  0  0  0  0
  -32.1188    8.0865   11.6032 C   0  0  0  0  0  0  0  0  0  0  0  0
  -31.3207    4.7364   13.1849 C   0  0  0  0  0  0  0  0  0  0  0  0
  -31.3494    5.1304   14.5001 C   0  0  0  0  0  0  0  0  0  0  0  0
  -31.8365    6.9880   12.5786 C   0  0  0  0  0  0  0  0  0  0  0  0
  -31.5685    5.6781   12.2105 C   0  0  0  0  0  0  0  0  0  0  0  0
  -31.8384    7.2727   13.9272 C   0  0  0  0  0  0  0  0  0  0  0  0
  -31.6062    6.3804   14.8966 N   0  0  0  0  0  0  0  0  0  0  0  0
 46 43  2  0  0  0
 46 47  1  0  0  0
 43 50  1  0  0  0
 47 44  2  0  0  0
 50 48  2  0  0  0
 50 45  1  0  0  0
 44 45  1  0  0  0
 48 42  1  0  0  0
 45 51  2  0  0  0
 42 49  2  0  0  0
 51 49  1  0  0  0
 51 41  1  0  0  0
 41 40  1  0  0  0
 40 39  1  0  0  0
 39 38  1  0  0  0
 38  7  1  0  0  0
  1  3  2  0  0  0
  1  6  1  0  0  0
  7  3  1  0  0  0
  7  8  2  0  0  0
 36 34  2  0  0  0
  3  5  1  0  0  0
  6  2  2  0  0  0
 34  8  1  0  0  0
 34 35  1  0  0  0
  8  9  1  0  0  0
  5  9  1  0  0  0
  5  4  2  0  0  0
  2  4  1  0  0  0
  9 52  1  0  0  0
  4 10  1  0  0  0
 56 53  2  0  0  0
 56 55  1  0  0  0
 53 54  1  0  0  0
 52 55  1  0  0  0
 33 25  2  0  0  0
 55 57  2  0  0  0
 25 30  1  0  0  0
 25 32  1  0  0  0
 27 29  1  0  0  0
 27 31  1  0  0  0
 29 32  1  0  0  0
 10 12  2  0  0  0
 10 11  1  0  0  0
 32 28  1  0  0  0
 54 58  2  0  0  0
 19 23  2  0  0  0
 19 24  1  0  0  0
 23 21  1  0  0  0
 13 12  1  0  0  0
 17 11  1  0  0  0
 17 18  1  0  0  0
 12 16  1  0  0  0
 57 58  1  0  0  0
 31 26  1  0  0  0
 31 24  1  0  0  0
 11 15  2  0  0  0
 26 28  1  0  0  0
 24 22  2  0  0  0
 21 18  1  0  0  0
 21 20  2  0  0  0
 22 20  1  0  0  0
 16 15  1  0  0  0
 16 14  1  0  0  0
 35 37  1  0  0  0
M  END
> <minimizedAffinity>
-9.56493

$$$$
