4Z1J_4KC_A_302
  RCSB PDB12061716323D
Coordinates from PDB:4Z1J:A:302 Model:1 without hydrogens
 22 24  0  0  0  0            999 V2000
   18.6380   11.1480   11.6990   C 0  0  0  0  0  0  0  0  0  0  0  0
   18.5440    9.9870   12.4930   C 0  0  0  0  0  0  0  0  0  0  0  0
   16.3930    7.2090   13.0610   C 0  0  0  0  0  0  0  0  0  0  0  0
   16.1480    6.0820   14.0040   C 0  0  0  0  0  0  0  0  0  0  0  0
   17.8630    8.7660   11.8870   C 0  0  0  0  0  0  0  0  0  0  0  0
   18.7110    7.6220   13.8490   C 0  0  0  0  0  0  0  0  0  0  0  0
   18.9580    8.8490   14.6960   C 0  0  0  0  0  0  0  0  0  0  0  0
   19.0420   10.0220   13.8310   C 0  0  0  0  0  0  0  0  0  0  0  0
   15.4060    7.5740   12.3780   O 0  0  0  0  0  0  0  0  0  0  0  0
   16.9990    4.9470   14.0180   C 0  0  0  0  0  0  0  0  0  0  0  0
   16.6790    3.8920   14.8830   C 0  0  0  0  0  0  0  0  0  0  0  0
   15.0400    6.1380   14.8220   C 0  0  0  0  0  0  0  0  0  0  0  0
   14.7470    5.0770   15.6480   C 0  0  0  0  0  0  0  0  0  0  0  0
   15.5550    3.9210   15.7300   C 0  0  0  0  0  0  0  0  0  0  0  0
   15.1130    2.6380   16.7860   S 0  0  0  0  0  0  0  0  0  0  0  0
   15.6950    1.2800   16.1550   N 0  0  0  0  0  0  0  0  0  0  0  0
   13.6400    2.6720   16.7860   O 0  0  0  0  0  0  0  0  0  0  0  0
   15.7510    2.8730   18.0340   O 0  0  0  0  0  0  0  0  0  0  0  0
   17.6270    7.7680   12.9110   N 0  0  0  0  0  0  0  0  0  0  0  0
   19.6650   11.1630   14.3780   C 0  0  0  0  0  0  0  0  0  0  0  0
   19.7610   12.3090   13.5780   C 0  0  0  0  0  0  0  0  0  0  0  0
   19.2480   12.2900   12.2550   C 0  0  0  0  0  0  0  0  0  0  0  0
  1 22  2  0  0  0  0
  1  2  1  0  0  0  0
  5  2  1  0  0  0  0
  5 19  1  0  0  0  0
 22 21  1  0  0  0  0
  9  3  2  0  0  0  0
  2  8  2  0  0  0  0
 19  3  1  0  0  0  0
 19  6  1  0  0  0  0
  3  4  1  0  0  0  0
 21 20  2  0  0  0  0
  8 20  1  0  0  0  0
  8  7  1  0  0  0  0
  6  7  1  0  0  0  0
  4 10  2  0  0  0  0
  4 12  1  0  0  0  0
 10 11  1  0  0  0  0
 12 13  2  0  0  0  0
 11 14  2  0  0  0  0
 13 14  1  0  0  0  0
 14 15  1  0  0  0  0
 16 15  1  0  0  0  0
 15 17  2  0  0  0  0
 15 18  2  0  0  0  0
A    1
C3
A    2
C4
A    3
C9
A    4
C10
A    5
C5
A    6
C6
A    7
C7
A    8
C8
A    9
O
A   10
C11
A   11
C12
A   12
C15
A   13
C14
A   14
C13
A   15
S
A   16
N1
A   17
O1
A   18
O2
A   19
N
A   20
C18
A   21
C17
A   22
C16
M  END
>  <InstanceId>
4Z1J_4KC_A_302

>  <ChemCompId>
4KC

>  <PdbId>
4Z1J

>  <ChainId>
A

>  <ResidueNumber>
302

>  <InsertionCode>


>  <Model>
1

>  <AltIds>


>  <MissingHeavyAtoms>
0

>  <ObservedFormula>
C16 N2 O3 S

>  <Name>
4-(3,4-dihydroisoquinolin-2(1H)-ylcarbonyl)benzenesulfonamide

>  <SystematicName>
4-(3,4-dihydro-1H-isoquinolin-2-ylcarbonyl)benzenesulfonamide

>  <Synonyms>


>  <Type>
NON-POLYMER

>  <Formula>
C16 H16 N2 O3 S

>  <MolecularWeight>
316.375

>  <ModifiedDate>
2015-08-21

>  <Parent>


>  <OneLetterCode>


>  <SubcomponentList>


>  <AmbiguousFlag>
N

>  <InChI>
InChI=1S/C16H16N2O3S/c17-22(20,21)15-7-5-13(6-8-15)16(19)18-10-9-12-3-1-2-4-14(12)11-18/h1-8H,9-11H2,(H2,17,20,21)

>  <InChIKey>
FNPLXMFGUKXYIB-UHFFFAOYSA-N

>  <SMILES>
c1ccc2c(c1)CCN(C2)C(=O)c3ccc(cc3)S(=O)(=O)N

$$$$
