1I9N_IOA_A_555
  RCSB PDB12061702493D
Coordinates from PDB:1I9N:A:555 Model:1 without hydrogens
 22 23  0  0  0  0            999 V2000
   -3.8580    2.6650   14.6340   C 0  0  0  0  0  0  0  0  0  0  0  0
   -4.2550    1.6000   15.4550   C 0  0  0  0  0  0  0  0  0  0  0  0
   -5.6300    1.5110   15.8800   C 0  0  0  0  0  0  0  0  0  0  0  0
   -6.5210    2.5060   15.4670   C 0  0  0  0  0  0  0  0  0  0  0  0
   -6.0910    3.5650   14.6510   C 0  0  0  0  0  0  0  0  0  0  0  0
   -4.7660    3.6560   14.2180   C 0  0  0  0  0  0  0  0  0  0  0  0
   -4.2940    4.7950   13.3100   C 0  0  0  0  0  0  0  0  0  0  0  0
   -5.1660    5.6310   12.9800   O 0  0  0  0  0  0  0  0  0  0  0  0
   -2.9430    4.9470   12.8050   N 0  0  0  0  0  0  0  0  0  0  0  0
   -2.5340    6.2940   12.4270   C 0  0  0  0  0  0  0  0  0  0  0  0
   -6.0970    0.1220   16.9150   S 0  0  0  0  0  0  0  0  0  0  0  0
   -5.6460   -1.3760   16.2760   N 0  0  0  0  0  0  0  0  0  0  0  0
   -7.5310    0.3470   17.0640   O 0  0  0  0  0  0  0  0  0  0  0  0
   -5.4160    0.4830   18.1730   O 0  0  0  0  0  0  0  0  0  0  0  0
   -1.8730    7.1420   13.3370   C 0  0  0  0  0  0  0  0  0  0  0  0
   -2.1550    7.0100   14.7610   C 0  0  0  0  0  0  0  0  0  0  0  0
   -1.4740    7.8960   15.7000   C 0  0  0  0  0  0  0  0  0  0  0  0
   -0.5340    8.8880   15.2000   C 0  0  0  0  0  0  0  0  0  0  0  0
   -0.2600    9.0020   13.7600   C 0  0  0  0  0  0  0  0  0  0  0  0
   -0.9230    8.1380   12.8340   C 0  0  0  0  0  0  0  0  0  0  0  0
   -0.6810    8.2560   11.6550   F 0  0  0  0  0  0  0  0  0  0  0  0
   -1.7210    7.7970   17.0360   F 0  0  0  0  0  0  0  0  0  0  0  0
  1  2  2  0  0  0  0
  1  6  1  0  0  0  0
  2  3  1  0  0  0  0
  3  4  2  0  0  0  0
  3 11  1  0  0  0  0
  4  5  1  0  0  0  0
  5  6  2  0  0  0  0
  6  7  1  0  0  0  0
  7  8  2  0  0  0  0
  7  9  1  0  0  0  0
  9 10  1  0  0  0  0
 10 15  1  0  0  0  0
 11 12  1  0  0  0  0
 11 13  2  0  0  0  0
 11 14  2  0  0  0  0
 15 16  2  0  0  0  0
 15 20  1  0  0  0  0
 16 17  1  0  0  0  0
 17 18  2  0  0  0  0
 17 22  1  0  0  0  0
 18 19  1  0  0  0  0
 19 20  2  0  0  0  0
 20 21  1  0  0  0  0
A    1
C01
A    2
C02
A    3
C03
A    4
C04
A    5
C05
A    6
C06
A    7
C07
A    8
O08
A    9
N09
A   10
C10
A   11
S11
A   12
NP2
A   13
O13
A   14
O14
A   15
C15
A   16
C16
A   17
C17
A   18
C18
A   19
C19
A   20
C20
A   21
F21
A   22
F22
M  END
>  <InstanceId>
1I9N_IOA_A_555

>  <ChemCompId>
IOA

>  <PdbId>
1I9N

>  <ChainId>
A

>  <ResidueNumber>
555

>  <InsertionCode>


>  <Model>
1

>  <AltIds>


>  <MissingHeavyAtoms>
0

>  <ObservedFormula>
C14 N2 O3 S F2

>  <Name>
4-(AMINOSULFONYL)-N-[(2,5-DIFLUOROPHENYL)METHYL]-BENZAMIDE

>  <SystematicName>
N-[(2,5-difluorophenyl)methyl]-4-sulfamoyl-benzamide

>  <Synonyms>


>  <Type>
NON-POLYMER

>  <Formula>
C14 H12 F2 N2 O3 S

>  <MolecularWeight>
326.318

>  <ModifiedDate>
2011-06-04

>  <Parent>


>  <OneLetterCode>


>  <SubcomponentList>


>  <AmbiguousFlag>
N

>  <InChI>
InChI=1S/C14H12F2N2O3S/c15-11-3-6-13(16)10(7-11)8-18-14(19)9-1-4-12(5-2-9)22(17,20)21/h1-7H,8H2,(H,18,19)(H2,17,20,21)

>  <InChIKey>
KEGUALXMKQVDIO-UHFFFAOYSA-N

>  <SMILES>
c1cc(ccc1C(=O)NCc2cc(ccc2F)F)S(=O)(=O)N

$$$$
