1C70_L75_B_423
  RCSB PDB12061702093D
Coordinates from PDB:1C70:B:423 Model:1 without hydrogens
 48 53  0  0  0  0            999 V2000
    9.2130   23.9200    2.6960   N 0  0  0  0  0  0  0  0  0  0  0  0
    9.2320   23.8990    4.1620   C 0  0  0  0  0  0  0  0  0  0  0  0
   10.3950   24.7820    4.6440   C 0  0  0  0  0  0  0  0  0  0  0  0
   10.3890   24.8560    6.1620   C 0  0  0  0  0  0  0  0  0  0  0  0
   10.7510   23.8540    6.8230   O 0  0  0  0  0  0  0  0  0  0  0  0
   10.0480   26.0520    6.6740   N 0  0  0  0  0  0  0  0  0  0  0  0
   10.0400   26.3380    8.1330   C 0  0  0  0  0  0  0  0  0  0  0  0
    9.5350   27.7760    8.3410   C 0  0  0  0  0  0  0  0  0  0  0  0
   11.4640   26.2560    8.6960   C 0  0  0  0  0  0  0  0  0  0  0  0
    9.0790   25.3510    8.8630   C 0  0  0  0  0  0  0  0  0  0  0  0
   11.6710   24.2400    4.1300   N 0  0  0  0  0  0  0  0  0  0  0  0
   11.6610   24.1760    2.6430   C 0  0  0  0  0  0  0  0  0  0  0  0
   10.4460   23.3390    2.1640   C 0  0  0  0  0  0  0  0  0  0  0  0
   12.7950   25.0880    4.5620   C 0  0  0  0  0  0  0  0  0  0  0  0
   13.9980   24.2240    4.8280   C 0  0  0  0  0  0  0  0  0  0  0  0
   15.1190   24.9000    4.3380   O 0  0  0  0  0  0  0  0  0  0  0  0
   14.2440   23.9660    6.2840   C 0  0  0  0  0  0  0  0  0  0  0  0
   15.4490   23.1300    6.7380   C 0  0  0  0  0  0  0  0  0  0  0  0
   15.5560   23.1740    8.2650   C 0  0  0  0  0  0  0  0  0  0  0  0
   16.5840   22.1750    8.8200   C 0  0  0  0  0  0  0  0  0  0  0  0
   17.9720   22.3160    8.5250   C 0  0  0  0  0  0  0  0  0  0  0  0
   18.8750   21.4040    9.0630   C 0  0  0  0  0  0  0  0  0  0  0  0
   18.4030   20.3540    9.8720   C 0  0  0  0  0  0  0  0  0  0  0  0
   17.0430   20.1910   10.1550   C 0  0  0  0  0  0  0  0  0  0  0  0
   16.1260   21.1030    9.6350   C 0  0  0  0  0  0  0  0  0  0  0  0
   15.3170   21.6910    6.2250   C 0  0  0  0  0  0  0  0  0  0  0  0
   14.2920   21.0510    6.4710   O 0  0  0  0  0  0  0  0  0  0  0  0
   16.3950   21.2200    5.5770   N 0  0  0  0  0  0  0  0  0  0  0  0
   16.5420   19.7620    5.4030   C 0  0  0  0  0  0  0  0  0  0  0  0
   17.9850   19.3260    5.8830   C 0  0  0  0  0  0  0  0  0  0  0  0
   18.9080   20.2670    5.3540   O 0  0  0  0  0  0  0  0  0  0  0  0
   18.1730   18.0050    5.0670   C 0  0  0  0  0  0  0  0  0  0  0  0
   17.3740   18.2930    3.8190   C 0  0  0  0  0  0  0  0  0  0  0  0
   17.6360   17.7740    2.5530   C 0  0  0  0  0  0  0  0  0  0  0  0
   16.9120   18.2950    1.4880   C 0  0  0  0  0  0  0  0  0  0  0  0
   15.9700   19.3330    1.7130   C 0  0  0  0  0  0  0  0  0  0  0  0
   15.7440   19.8340    2.9960   C 0  0  0  0  0  0  0  0  0  0  0  0
   16.5100   19.3110    4.0150   C 0  0  0  0  0  0  0  0  0  0  0  0
    8.0010   23.2110    2.1710   C 0  0  0  0  0  0  0  0  0  0  0  0
    8.9420   17.2010    2.1820   C 0  0  0  0  0  0  0  0  0  0  0  0
    9.5700   18.4780    1.9380   C 0  0  0  0  0  0  0  0  0  0  0  0
    8.7650   19.6210    2.1370   C 0  0  0  0  0  0  0  0  0  0  0  0
    7.4530   19.5700    2.5920   C 0  0  0  0  0  0  0  0  0  0  0  0
    6.7990   18.3310    2.7810   C 0  0  0  0  0  0  0  0  0  0  0  0
    7.5540   17.1370    2.5700   C 0  0  0  0  0  0  0  0  0  0  0  0
    9.1560   20.8990    1.9530   O 0  0  0  0  0  0  0  0  0  0  0  0
    8.0760   21.6860    2.3730   C 0  0  0  0  0  0  0  0  0  0  0  0
    6.9360   20.8970    2.8340   C 0  0  0  0  0  0  0  0  0  0  0  0
  1  2  1  0  0  0  0
  1 13  1  0  0  0  0
  1 39  1  0  0  0  0
  2  3  1  0  0  0  0
  3  4  1  0  0  0  0
  3 11  1  0  0  0  0
  4  5  2  0  0  0  0
  4  6  1  0  0  0  0
  6  7  1  0  0  0  0
  7  8  1  0  0  0  0
  7  9  1  0  0  0  0
  7 10  1  0  0  0  0
 11 12  1  0  0  0  0
 11 14  1  0  0  0  0
 12 13  1  0  0  0  0
 14 15  1  0  0  0  0
 15 16  1  0  0  0  0
 15 17  1  0  0  0  0
 17 18  1  0  0  0  0
 18 19  1  0  0  0  0
 18 26  1  0  0  0  0
 19 20  1  0  0  0  0
 20 21  2  0  0  0  0
 20 25  1  0  0  0  0
 21 22  1  0  0  0  0
 22 23  2  0  0  0  0
 23 24  1  0  0  0  0
 24 25  2  0  0  0  0
 26 27  2  0  0  0  0
 26 28  1  0  0  0  0
 28 29  1  0  0  0  0
 29 30  1  0  0  0  0
 29 38  1  0  0  0  0
 30 31  1  0  0  0  0
 30 32  1  0  0  0  0
 32 33  1  0  0  0  0
 33 34  2  0  0  0  0
 33 38  1  0  0  0  0
 34 35  1  0  0  0  0
 35 36  2  0  0  0  0
 36 37  1  0  0  0  0
 37 38  2  0  0  0  0
 39 47  1  0  0  0  0
 40 41  2  0  0  0  0
 40 45  1  0  0  0  0
 41 42  1  0  0  0  0
 42 43  2  0  0  0  0
 42 46  1  0  0  0  0
 43 44  1  0  0  0  0
 43 48  1  0  0  0  0
 44 45  2  0  0  0  0
 46 47  1  0  0  0  0
 47 48  2  0  0  0  0
A    1
N1
A    2
C1
A    3
C2
A    4
C3
A    5
O1
A    6
N2
A    7
C4
A    8
C5
A    9
C6
A   10
C7
A   11
N3
A   12
C8
A   13
C9
A   14
C10
A   15
C11
A   16
O2
A   17
C12
A   18
C13
A   19
C14
A   20
C15
A   21
C16
A   22
C17
A   23
C18
A   24
C19
A   25
C20
A   26
C21
A   27
O3
A   28
N4
A   29
C22
A   30
C23
A   31
O4
A   32
C24
A   33
C25
A   34
C26
A   35
C27
A   36
C28
A   37
C29
A   38
C30
A   39
C31
A   40
C32
A   41
C33
A   42
C34
A   43
C35
A   44
C36
A   45
C37
A   46
O5
A   47
C38
A   48
C39
M  END
>  <InstanceId>
1C70_L75_B_423

>  <ChemCompId>
L75

>  <PdbId>
1C70

>  <ChainId>
B

>  <ResidueNumber>
423

>  <InsertionCode>


>  <Model>
1

>  <AltIds>


>  <MissingHeavyAtoms>
0

>  <ObservedFormula>
C39 N4 O5

>  <Name>
N-[2(R)-HYDROXY-1(S)-INDANYL]-2(R)-PHENYLMETHYL-4(S)-HYDROXY-5-[4-[2-BENZOFURANYLMETHYL]-2(S)-[TERT-BUTYLAMINOCARBONYL]-PIPERAZINYL]-PENTANEAMIDE

>  <SystematicName>
(1S,2S,4R)-4-(1-benzofuran-2-ylmethyl)-N-tert-butyl-1-[(2S,4R)-2-hydroxy-5-[[(1S,2R)-2-hydroxy-2,3-dihydro-1H-inden-1-yl]amino]-5-oxo-4-(phenylmethyl)pentyl]piperazine-2-carboxamide

>  <Synonyms>
L-756,423

>  <Type>
NON-POLYMER

>  <Formula>
C39 H48 N4 O5

>  <MolecularWeight>
652.822

>  <ModifiedDate>
2011-06-04

>  <Parent>


>  <OneLetterCode>


>  <SubcomponentList>


>  <AmbiguousFlag>
N

>  <InChI>
InChI=1S/C39H48N4O5/c1-39(2,3)41-38(47)33-25-42(24-31-21-28-14-8-10-16-35(28)48-31)17-18-43(33)23-30(44)20-29(19-26-11-5-4-6-12-26)37(46)40-36-32-15-9-7-13-27(32)22-34(36)45/h4-16,21,29-30,33-34,36,44-45H,17-20,22-25H2,1-3H3,(H,40,46)(H,41,47)/t29-,30+,33+,34-,36+/m1/s1

>  <InChIKey>
AOMZDQMIOCTPQP-QHQMVRJISA-N

>  <SMILES>
CC(C)(C)NC(=O)[C@@H]1C[N@@](CC[N@]1C[C@H](C[C@@H](Cc2ccccc2)C(=O)N[C@H]3c4ccccc4C[C@H]3O)O)Cc5cc6ccccc6o5

$$$$
