1C70_L75_B_423


 52 57  0  0  0  0  0  0  0  0999 V2000
   13.9248   24.3469    4.9627 C   0  0  0  0  0  0  0  0  0  0  0  0
   15.1358   24.9063    4.5452 O   0  0  0  0  0  0  0  0  0  0  0  0
   15.3162   25.7081    5.0603 H   0  0  0  0  0  0  0  0  0  0  0  0
   12.8429   25.3593    4.7000 C   0  0  0  0  0  0  0  0  0  0  0  0
    9.1558   24.7412    2.7764 N   0  0  0  0  0  0  0  0  0  0  0  0
    9.1835   24.5492    4.2298 C   0  0  0  0  0  0  0  0  0  0  0  0
   10.4257   25.2625    4.7890 C   0  0  0  0  0  0  0  0  0  0  0  0
   11.6431   24.6713    4.1938 N   0  0  0  0  0  0  0  0  0  0  0  0
   11.6165   24.7809    2.7096 C   0  0  0  0  0  0  0  0  0  0  0  0
   10.3268   24.1173    2.1596 C   0  0  0  0  0  0  0  0  0  0  0  0
   10.4375   25.1607    6.3054 C   0  0  0  0  0  0  0  0  0  0  0  0
   10.6066   24.0394    6.8401 O   0  0  0  0  0  0  0  0  0  0  0  0
   10.3284   26.3321    6.9572 N   0  0  0  0  0  0  0  0  0  0  0  0
   10.2102   27.1539    6.4282 H   0  0  0  0  0  0  0  0  0  0  0  0
   10.3779   26.4443    8.4389 C   0  0  0  0  0  0  0  0  0  0  0  0
   10.1094   27.9096    8.8220 C   0  0  0  0  0  0  0  0  0  0  0  0
   11.7754   26.0751    8.9510 C   0  0  0  0  0  0  0  0  0  0  0  0
    9.2784   25.5421    9.0774 C   0  0  0  0  0  0  0  0  0  0  0  0
    7.8805   24.2094    2.1952 C   0  0  0  0  0  0  0  0  0  0  0  0
    7.6730   18.1497    2.6885 C   0  0  0  0  0  0  0  0  0  0  0  0
    8.5340   19.2636    2.3685 C   0  0  0  0  0  0  0  0  0  0  0  0
    7.9554   20.5488    2.4557 C   0  0  0  0  0  0  0  0  0  0  0  0
    6.6501   20.7798    2.8725 C   0  0  0  0  0  0  0  0  0  0  0  0
    5.7716   19.7035    3.1341 C   0  0  0  0  0  0  0  0  0  0  0  0
    6.2916   18.3767    3.0371 C   0  0  0  0  0  0  0  0  0  0  0  0
    8.5830   21.7127    2.1880 O   0  0  0  0  0  0  0  0  0  0  0  0
    7.6638   22.7182    2.5139 C   0  0  0  0  0  0  0  0  0  0  0  0
    6.3883   22.1949    2.9976 C   0  0  0  0  0  0  0  0  0  0  0  0
   14.0814   23.9950    6.4114 C   0  0  0  0  0  0  0  0  0  0  0  0
   15.2898   23.1793    6.8924 C   0  0  0  0  0  0  0  0  0  0  0  0
   15.1917   21.7375    6.3799 C   0  0  0  0  0  0  0  0  0  0  0  0
   14.2074   21.0550    6.6736 O   0  0  0  0  0  0  0  0  0  0  0  0
   16.2545   21.3131    5.6770 N   0  0  0  0  0  0  0  0  0  0  0  0
   16.8910   21.9589    5.2934 H   0  0  0  0  0  0  0  0  0  0  0  0
   16.4525   19.8629    5.4891 C   0  0  0  0  0  0  0  0  0  0  0  0
   17.9229   19.4796    5.9294 C   0  0  0  0  0  0  0  0  0  0  0  0
   18.7955   20.4584    5.3838 O   0  0  0  0  0  0  0  0  0  0  0  0
   18.1403   18.1717    5.0996 C   0  0  0  0  0  0  0  0  0  0  0  0
   17.2993   18.4364    3.8743 C   0  0  0  0  0  0  0  0  0  0  0  0
   17.5485   17.9355    2.5985 C   0  0  0  0  0  0  0  0  0  0  0  0
   16.7782   18.4348    1.5558 C   0  0  0  0  0  0  0  0  0  0  0  0
   15.8033   19.4346    1.8118 C   0  0  0  0  0  0  0  0  0  0  0  0
   15.5912   19.9188    3.1036 C   0  0  0  0  0  0  0  0  0  0  0  0
   16.4024   19.4194    4.0992 C   0  0  0  0  0  0  0  0  0  0  0  0
   18.6468   20.5273    4.4278 H   0  0  0  0  0  0  0  0  0  0  0  0
   15.3639   23.2279    8.4213 C   0  0  0  0  0  0  0  0  0  0  0  0
   16.3497   22.2022    9.0036 C   0  0  0  0  0  0  0  0  0  0  0  0
   15.8992   21.1748    9.8839 C   0  0  0  0  0  0  0  0  0  0  0  0
   16.8179   20.2517   10.3741 C   0  0  0  0  0  0  0  0  0  0  0  0
   18.1721   20.3574   10.0070 C   0  0  0  0  0  0  0  0  0  0  0  0
   18.6329   21.3705    9.1599 C   0  0  0  0  0  0  0  0  0  0  0  0
   17.7240   22.2959    8.6492 C   0  0  0  0  0  0  0  0  0  0  0  0
  5  6  1  0  0  0
  5 10  1  0  0  0
  5 19  1  0  0  0
  6  7  1  0  0  0
  7 11  1  0  0  0
  7  8  1  0  0  0
 11 12  2  0  0  0
 11 13  1  0  0  0
 13 15  1  0  0  0
 15 16  1  0  0  0
 15 17  1  0  0  0
 15 18  1  0  0  0
  8  9  1  0  0  0
  8  4  1  0  0  0
  9 10  1  0  0  0
  4  1  1  0  0  0
  1  2  1  0  0  0
  1 29  1  0  0  0
 29 30  1  0  0  0
 30 46  1  0  0  0
 30 31  1  0  0  0
 46 47  1  0  0  0
 47 48  2  0  0  0
 47 52  1  0  0  0
 48 49  1  0  0  0
 49 50  2  0  0  0
 50 51  1  0  0  0
 51 52  2  0  0  0
 31 32  2  0  0  0
 31 33  1  0  0  0
 33 35  1  0  0  0
 35 36  1  0  0  0
 35 44  1  0  0  0
 36 37  1  0  0  0
 36 38  1  0  0  0
 38 39  1  0  0  0
 39 40  2  0  0  0
 39 44  1  0  0  0
 40 41  1  0  0  0
 41 42  2  0  0  0
 42 43  1  0  0  0
 43 44  2  0  0  0
 19 27  1  0  0  0
 20 21  2  0  0  0
 20 25  1  0  0  0
 21 22  1  0  0  0
 22 23  2  0  0  0
 22 26  1  0  0  0
 23 24  1  0  0  0
 23 28  1  0  0  0
 24 25  2  0  0  0
 26 27  1  0  0  0
 27 28  2  0  0  0
 13 14  1  0  0  0
  2  3  1  0  0  0
 33 34  1  0  0  0
 37 45  1  0  0  0
M  END
> <minimizedAffinity>
-12.28518

$$$$
1C70_L75_B_423


 52 57  0  0  0  0  0  0  0  0999 V2000
   13.8887   24.3287    5.0342 C   0  0  0  0  0  0  0  0  0  0  0  0
   15.1425   24.7525    4.5845 O   0  0  0  0  0  0  0  0  0  0  0  0
   15.4297   25.5200    5.1035 H   0  0  0  0  0  0  0  0  0  0  0  0
   12.9228   25.4624    4.8195 C   0  0  0  0  0  0  0  0  0  0  0  0
    9.4308   25.3893    2.4790 N   0  0  0  0  0  0  0  0  0  0  0  0
    9.2682   25.1500    3.9165 C   0  0  0  0  0  0  0  0  0  0  0  0
   10.5183   25.6780    4.6398 C   0  0  0  0  0  0  0  0  0  0  0  0
   11.7116   24.9524    4.1546 N   0  0  0  0  0  0  0  0  0  0  0  0
   11.8684   25.1108    2.6830 C   0  0  0  0  0  0  0  0  0  0  0  0
   10.5767   24.6381    1.9658 C   0  0  0  0  0  0  0  0  0  0  0  0
   10.3442   25.5281    6.1422 C   0  0  0  0  0  0  0  0  0  0  0  0
   10.3658   24.3808    6.6473 O   0  0  0  0  0  0  0  0  0  0  0  0
   10.2463   26.6835    6.8237 N   0  0  0  0  0  0  0  0  0  0  0  0
   10.2522   27.5282    6.3181 H   0  0  0  0  0  0  0  0  0  0  0  0
   10.1295   26.7450    8.3046 C   0  0  0  0  0  0  0  0  0  0  0  0
    8.9436   25.8639    8.7331 C   0  0  0  0  0  0  0  0  0  0  0  0
    9.8314   28.1810    8.7525 C   0  0  0  0  0  0  0  0  0  0  0  0
   11.4327   26.1995    8.9639 C   0  0  0  0  0  0  0  0  0  0  0  0
    8.1733   25.0463    1.7386 C   0  0  0  0  0  0  0  0  0  0  0  0
    4.7159   20.6826    4.1903 C   0  0  0  0  0  0  0  0  0  0  0  0
    5.9238   20.9269    3.4379 C   0  0  0  0  0  0  0  0  0  0  0  0
    6.2293   22.2779    3.1634 C   0  0  0  0  0  0  0  0  0  0  0  0
    5.4673   23.3479    3.6167 C   0  0  0  0  0  0  0  0  0  0  0  0
    4.2507   23.1319    4.3037 C   0  0  0  0  0  0  0  0  0  0  0  0
    3.8737   21.7840    4.5888 C   0  0  0  0  0  0  0  0  0  0  0  0
    7.2995   22.7159    2.4685 O   0  0  0  0  0  0  0  0  0  0  0  0
    7.2499   24.1137    2.5447 C   0  0  0  0  0  0  0  0  0  0  0  0
    6.1022   24.6068    3.3026 C   0  0  0  0  0  0  0  0  0  0  0  0
   14.0485   23.9378    6.4725 C   0  0  0  0  0  0  0  0  0  0  0  0
   15.2685   23.1272    6.9323 C   0  0  0  0  0  0  0  0  0  0  0  0
   15.1809   21.6923    6.3987 C   0  0  0  0  0  0  0  0  0  0  0  0
   14.1957   21.0027    6.6717 O   0  0  0  0  0  0  0  0  0  0  0  0
   16.2530   21.2812    5.7019 N   0  0  0  0  0  0  0  0  0  0  0  0
   16.8916   21.9342    5.3346 H   0  0  0  0  0  0  0  0  0  0  0  0
   16.4579   19.8343    5.4961 C   0  0  0  0  0  0  0  0  0  0  0  0
   17.9302   19.4527    5.9315 C   0  0  0  0  0  0  0  0  0  0  0  0
   18.7980   20.4423    5.3980 O   0  0  0  0  0  0  0  0  0  0  0  0
   18.1537   18.1562    5.0856 C   0  0  0  0  0  0  0  0  0  0  0  0
   17.3112   18.4320    3.8637 C   0  0  0  0  0  0  0  0  0  0  0  0
   17.5627   17.9481    2.5818 C   0  0  0  0  0  0  0  0  0  0  0  0
   16.7898   18.4566    1.5454 C   0  0  0  0  0  0  0  0  0  0  0  0
   15.8102   19.4485    1.8138 C   0  0  0  0  0  0  0  0  0  0  0  0
   15.5960   19.9157    3.1115 C   0  0  0  0  0  0  0  0  0  0  0  0
   16.4097   19.4078    4.1008 C   0  0  0  0  0  0  0  0  0  0  0  0
   18.6489   20.5223    4.4429 H   0  0  0  0  0  0  0  0  0  0  0  0
   15.3534   23.1533    8.4611 C   0  0  0  0  0  0  0  0  0  0  0  0
   16.3754   22.1498    9.0191 C   0  0  0  0  0  0  0  0  0  0  0  0
   17.7550   22.2425    8.6702 C   0  0  0  0  0  0  0  0  0  0  0  0
   18.6537   21.3285    9.2121 C   0  0  0  0  0  0  0  0  0  0  0  0
   18.1850   20.3236   10.0783 C   0  0  0  0  0  0  0  0  0  0  0  0
   16.8324   20.2078   10.4150 C   0  0  0  0  0  0  0  0  0  0  0  0
   15.9204   21.1228    9.8916 C   0  0  0  0  0  0  0  0  0  0  0  0
  5  6  1  0  0  0
  5 10  1  0  0  0
  5 19  1  0  0  0
  6  7  1  0  0  0
  7 11  1  0  0  0
  7  8  1  0  0  0
 11 12  2  0  0  0
 11 13  1  0  0  0
 13 15  1  0  0  0
 15 16  1  0  0  0
 15 17  1  0  0  0
 15 18  1  0  0  0
  8  9  1  0  0  0
  8  4  1  0  0  0
  9 10  1  0  0  0
  4  1  1  0  0  0
  1  2  1  0  0  0
  1 29  1  0  0  0
 29 30  1  0  0  0
 30 46  1  0  0  0
 30 31  1  0  0  0
 46 47  1  0  0  0
 47 48  2  0  0  0
 47 52  1  0  0  0
 48 49  1  0  0  0
 49 50  2  0  0  0
 50 51  1  0  0  0
 51 52  2  0  0  0
 31 32  2  0  0  0
 31 33  1  0  0  0
 33 35  1  0  0  0
 35 36  1  0  0  0
 35 44  1  0  0  0
 36 37  1  0  0  0
 36 38  1  0  0  0
 38 39  1  0  0  0
 39 40  2  0  0  0
 39 44  1  0  0  0
 40 41  1  0  0  0
 41 42  2  0  0  0
 42 43  1  0  0  0
 43 44  2  0  0  0
 19 27  1  0  0  0
 20 21  2  0  0  0
 20 25  1  0  0  0
 21 22  1  0  0  0
 22 23  2  0  0  0
 22 26  1  0  0  0
 23 24  1  0  0  0
 23 28  1  0  0  0
 24 25  2  0  0  0
 26 27  1  0  0  0
 27 28  2  0  0  0
 13 14  1  0  0  0
  2  3  1  0  0  0
 33 34  1  0  0  0
 37 45  1  0  0  0
M  END
> <minimizedAffinity>
-11.95289

$$$$
1C70_L75_B_423


 52 57  0  0  0  0  0  0  0  0999 V2000
   13.8728   24.3466    4.9486 C   0  0  0  0  0  0  0  0  0  0  0  0
   15.0630   24.9384    4.5165 O   0  0  0  0  0  0  0  0  0  0  0  0
   15.2187   25.7545    5.0170 H   0  0  0  0  0  0  0  0  0  0  0  0
   12.7570   25.3180    4.6733 C   0  0  0  0  0  0  0  0  0  0  0  0
    9.1023   24.5472    2.7431 N   0  0  0  0  0  0  0  0  0  0  0  0
    9.1270   24.3862    4.2003 C   0  0  0  0  0  0  0  0  0  0  0  0
   10.3433   25.1489    4.7512 C   0  0  0  0  0  0  0  0  0  0  0  0
   11.5819   24.5831    4.1750 N   0  0  0  0  0  0  0  0  0  0  0  0
   11.5610   24.6610    2.6888 C   0  0  0  0  0  0  0  0  0  0  0  0
   10.2955   23.9469    2.1458 C   0  0  0  0  0  0  0  0  0  0  0  0
   10.3491   25.0789    6.2694 C   0  0  0  0  0  0  0  0  0  0  0  0
   10.5220   23.9699    6.8283 O   0  0  0  0  0  0  0  0  0  0  0  0
   10.2307   26.2630    6.8960 N   0  0  0  0  0  0  0  0  0  0  0  0
   10.1103   27.0730    6.3495 H   0  0  0  0  0  0  0  0  0  0  0  0
   10.2731   26.4065    8.3753 C   0  0  0  0  0  0  0  0  0  0  0  0
   10.0026   27.8795    8.7260 C   0  0  0  0  0  0  0  0  0  0  0  0
   11.6682   26.0486    8.9017 C   0  0  0  0  0  0  0  0  0  0  0  0
    9.1707   25.5177    9.0275 C   0  0  0  0  0  0  0  0  0  0  0  0
    7.8473   23.9645    2.1663 C   0  0  0  0  0  0  0  0  0  0  0  0
    3.4253   26.6333    5.3802 C   0  0  0  0  0  0  0  0  0  0  0  0
    4.5801   26.8887    4.5520 C   0  0  0  0  0  0  0  0  0  0  0  0
    5.2462   25.7547    4.0377 C   0  0  0  0  0  0  0  0  0  0  0  0
    4.8193   24.4491    4.2473 C   0  0  0  0  0  0  0  0  0  0  0  0
    3.7275   24.1717    5.1016 C   0  0  0  0  0  0  0  0  0  0  0  0
    3.0282   25.2778    5.6739 C   0  0  0  0  0  0  0  0  0  0  0  0
    6.3462   25.7767    3.2570 O   0  0  0  0  0  0  0  0  0  0  0  0
    6.5821   24.4419    2.9035 C   0  0  0  0  0  0  0  0  0  0  0  0
    5.6129   23.5148    3.4830 C   0  0  0  0  0  0  0  0  0  0  0  0
   14.0463   24.0251    6.4024 C   0  0  0  0  0  0  0  0  0  0  0  0
   15.2565   23.2132    6.8854 C   0  0  0  0  0  0  0  0  0  0  0  0
   15.1631   21.7707    6.3738 C   0  0  0  0  0  0  0  0  0  0  0  0
   14.1719   21.0916    6.6515 O   0  0  0  0  0  0  0  0  0  0  0  0
   16.2367   21.3420    5.6901 N   0  0  0  0  0  0  0  0  0  0  0  0
   16.8816   21.9852    5.3165 H   0  0  0  0  0  0  0  0  0  0  0  0
   16.4337   19.8909    5.5082 C   0  0  0  0  0  0  0  0  0  0  0  0
   17.9019   19.5074    5.9556 C   0  0  0  0  0  0  0  0  0  0  0  0
   18.7778   20.4833    5.4099 O   0  0  0  0  0  0  0  0  0  0  0  0
   18.1209   18.1963    5.1314 C   0  0  0  0  0  0  0  0  0  0  0  0
   17.2850   18.4576    3.9018 C   0  0  0  0  0  0  0  0  0  0  0  0
   17.5385   17.9518    2.6288 C   0  0  0  0  0  0  0  0  0  0  0  0
   16.7729   18.4483    1.5813 C   0  0  0  0  0  0  0  0  0  0  0  0
   15.7983   19.4501    1.8300 C   0  0  0  0  0  0  0  0  0  0  0  0
   15.5817   19.9392    3.1192 C   0  0  0  0  0  0  0  0  0  0  0  0
   16.3884   19.4424    4.1197 C   0  0  0  0  0  0  0  0  0  0  0  0
   18.6329   20.5489    4.4531 H   0  0  0  0  0  0  0  0  0  0  0  0
   15.3287   23.2630    8.4143 C   0  0  0  0  0  0  0  0  0  0  0  0
   16.3216   22.2450    8.9980 C   0  0  0  0  0  0  0  0  0  0  0  0
   15.8792   21.2197    9.8850 C   0  0  0  0  0  0  0  0  0  0  0  0
   16.8043   20.3035   10.3764 C   0  0  0  0  0  0  0  0  0  0  0  0
   18.1566   20.4140   10.0039 C   0  0  0  0  0  0  0  0  0  0  0  0
   18.6093   21.4251    9.1501 C   0  0  0  0  0  0  0  0  0  0  0  0
   17.6941   22.3435    8.6383 C   0  0  0  0  0  0  0  0  0  0  0  0
  5  6  1  0  0  0
  5 10  1  0  0  0
  5 19  1  0  0  0
  6  7  1  0  0  0
  7 11  1  0  0  0
  7  8  1  0  0  0
 11 12  2  0  0  0
 11 13  1  0  0  0
 13 15  1  0  0  0
 15 16  1  0  0  0
 15 17  1  0  0  0
 15 18  1  0  0  0
  8  9  1  0  0  0
  8  4  1  0  0  0
  9 10  1  0  0  0
  4  1  1  0  0  0
  1  2  1  0  0  0
  1 29  1  0  0  0
 29 30  1  0  0  0
 30 46  1  0  0  0
 30 31  1  0  0  0
 46 47  1  0  0  0
 47 48  2  0  0  0
 47 52  1  0  0  0
 48 49  1  0  0  0
 49 50  2  0  0  0
 50 51  1  0  0  0
 51 52  2  0  0  0
 31 32  2  0  0  0
 31 33  1  0  0  0
 33 35  1  0  0  0
 35 36  1  0  0  0
 35 44  1  0  0  0
 36 37  1  0  0  0
 36 38  1  0  0  0
 38 39  1  0  0  0
 39 40  2  0  0  0
 39 44  1  0  0  0
 40 41  1  0  0  0
 41 42  2  0  0  0
 42 43  1  0  0  0
 43 44  2  0  0  0
 19 27  1  0  0  0
 20 21  2  0  0  0
 20 25  1  0  0  0
 21 22  1  0  0  0
 22 23  2  0  0  0
 22 26  1  0  0  0
 23 24  1  0  0  0
 23 28  1  0  0  0
 24 25  2  0  0  0
 26 27  1  0  0  0
 27 28  2  0  0  0
 13 14  1  0  0  0
  2  3  1  0  0  0
 33 34  1  0  0  0
 37 45  1  0  0  0
M  END
> <minimizedAffinity>
-11.92420

$$$$
1C70_L75_B_423


 52 57  0  0  0  0  0  0  0  0999 V2000
   14.4113   22.8827    7.1801 C   0  0  0  0  0  0  0  0  0  0  0  0
   13.8587   21.7661    7.8137 O   0  0  0  0  0  0  0  0  0  0  0  0
   14.2180   21.6931    8.7117 H   0  0  0  0  0  0  0  0  0  0  0  0
   15.8991   22.6708    7.1034 C   0  0  0  0  0  0  0  0  0  0  0  0
   18.2835   19.8732    9.1443 N   0  0  0  0  0  0  0  0  0  0  0  0
   17.4546   19.3609    8.0487 C   0  0  0  0  0  0  0  0  0  0  0  0
   17.0531   20.5433    7.1513 C   0  0  0  0  0  0  0  0  0  0  0  0
   16.2718   21.5186    7.9416 N   0  0  0  0  0  0  0  0  0  0  0  0
   17.0556   22.0068    9.1089 C   0  0  0  0  0  0  0  0  0  0  0  0
   17.5133   20.8019    9.9721 C   0  0  0  0  0  0  0  0  0  0  0  0
   16.2675   20.0356    5.9534 C   0  0  0  0  0  0  0  0  0  0  0  0
   15.0153   20.0118    6.0109 O   0  0  0  0  0  0  0  0  0  0  0  0
   17.0098   19.7099    4.8803 N   0  0  0  0  0  0  0  0  0  0  0  0
   17.9894   19.7796    4.9489 H   0  0  0  0  0  0  0  0  0  0  0  0
   16.4207   19.2494    3.5952 C   0  0  0  0  0  0  0  0  0  0  0  0
   17.5667   18.9998    2.5999 C   0  0  0  0  0  0  0  0  0  0  0  0
   15.5183   20.3402    3.0059 C   0  0  0  0  0  0  0  0  0  0  0  0
   15.6394   17.9183    3.8152 C   0  0  0  0  0  0  0  0  0  0  0  0
   18.8420   18.7456    9.9590 C   0  0  0  0  0  0  0  0  0  0  0  0
   20.4852   14.6231    5.7983 C   0  0  0  0  0  0  0  0  0  0  0  0
   20.6919   15.9837    6.2351 C   0  0  0  0  0  0  0  0  0  0  0  0
   19.9690   16.3924    7.3772 C   0  0  0  0  0  0  0  0  0  0  0  0
   19.1343   15.5512    8.1029 C   0  0  0  0  0  0  0  0  0  0  0  0
   18.8709   14.2343    7.6613 C   0  0  0  0  0  0  0  0  0  0  0  0
   19.5531   13.7707    6.4952 C   0  0  0  0  0  0  0  0  0  0  0  0
   20.0116   17.6194    7.9364 O   0  0  0  0  0  0  0  0  0  0  0  0
   19.2308   17.5306    9.0960 C   0  0  0  0  0  0  0  0  0  0  0  0
   18.6472   16.2060    9.2949 C   0  0  0  0  0  0  0  0  0  0  0  0
   14.0147   24.0837    7.9847 C   0  0  0  0  0  0  0  0  0  0  0  0
   12.6001   24.6694    7.8714 C   0  0  0  0  0  0  0  0  0  0  0  0
   12.3480   25.1690    6.4437 C   0  0  0  0  0  0  0  0  0  0  0  0
   13.1208   25.9891    5.9428 O   0  0  0  0  0  0  0  0  0  0  0  0
   11.2333   24.6923    5.8658 N   0  0  0  0  0  0  0  0  0  0  0  0
   10.7904   23.8879    6.2208 H   0  0  0  0  0  0  0  0  0  0  0  0
   10.6833   25.3942    4.6901 C   0  0  0  0  0  0  0  0  0  0  0  0
    9.4294   26.2492    5.1369 C   0  0  0  0  0  0  0  0  0  0  0  0
    8.6422   25.4300    5.9893 O   0  0  0  0  0  0  0  0  0  0  0  0
    8.6576   26.3587    3.7810 C   0  0  0  0  0  0  0  0  0  0  0  0
    9.0294   25.0613    3.1049 C   0  0  0  0  0  0  0  0  0  0  0  0
    8.2339   24.3650    2.1976 C   0  0  0  0  0  0  0  0  0  0  0  0
    8.6569   23.0964    1.8213 C   0  0  0  0  0  0  0  0  0  0  0  0
    9.8431   22.5514    2.3793 C   0  0  0  0  0  0  0  0  0  0  0  0
   10.6072   23.2771    3.2945 C   0  0  0  0  0  0  0  0  0  0  0  0
   10.1300   24.5158    3.6638 C   0  0  0  0  0  0  0  0  0  0  0  0
    8.4430   24.5936    5.5403 H   0  0  0  0  0  0  0  0  0  0  0  0
   12.4277   25.7926    8.8978 C   0  0  0  0  0  0  0  0  0  0  0  0
   10.9862   26.3219    8.9665 C   0  0  0  0  0  0  0  0  0  0  0  0
   10.6924   27.6824    8.6562 C   0  0  0  0  0  0  0  0  0  0  0  0
    9.3722   28.1194    8.7091 C   0  0  0  0  0  0  0  0  0  0  0  0
    8.3569   27.2194    9.0817 C   0  0  0  0  0  0  0  0  0  0  0  0
    8.6312   25.8871    9.4074 C   0  0  0  0  0  0  0  0  0  0  0  0
    9.9464   25.4291    9.3471 C   0  0  0  0  0  0  0  0  0  0  0  0
  5  6  1  0  0  0
  5 10  1  0  0  0
  5 19  1  0  0  0
  6  7  1  0  0  0
  7 11  1  0  0  0
  7  8  1  0  0  0
 11 12  2  0  0  0
 11 13  1  0  0  0
 13 15  1  0  0  0
 15 16  1  0  0  0
 15 17  1  0  0  0
 15 18  1  0  0  0
  8  9  1  0  0  0
  8  4  1  0  0  0
  9 10  1  0  0  0
  4  1  1  0  0  0
  1  2  1  0  0  0
  1 29  1  0  0  0
 29 30  1  0  0  0
 30 46  1  0  0  0
 30 31  1  0  0  0
 46 47  1  0  0  0
 47 48  2  0  0  0
 47 52  1  0  0  0
 48 49  1  0  0  0
 49 50  2  0  0  0
 50 51  1  0  0  0
 51 52  2  0  0  0
 31 32  2  0  0  0
 31 33  1  0  0  0
 33 35  1  0  0  0
 35 36  1  0  0  0
 35 44  1  0  0  0
 36 37  1  0  0  0
 36 38  1  0  0  0
 38 39  1  0  0  0
 39 40  2  0  0  0
 39 44  1  0  0  0
 40 41  1  0  0  0
 41 42  2  0  0  0
 42 43  1  0  0  0
 43 44  2  0  0  0
 19 27  1  0  0  0
 20 21  2  0  0  0
 20 25  1  0  0  0
 21 22  1  0  0  0
 22 23  2  0  0  0
 22 26  1  0  0  0
 23 24  1  0  0  0
 23 28  1  0  0  0
 24 25  2  0  0  0
 26 27  1  0  0  0
 27 28  2  0  0  0
 13 14  1  0  0  0
  2  3  1  0  0  0
 33 34  1  0  0  0
 37 45  1  0  0  0
M  END
> <minimizedAffinity>
-10.69718

$$$$
1C70_L75_B_423


 52 57  0  0  0  0  0  0  0  0999 V2000
   12.4657   23.5243    7.5077 C   0  0  0  0  0  0  0  0  0  0  0  0
   11.7276   22.3650    7.2528 O   0  0  0  0  0  0  0  0  0  0  0  0
   12.1786   21.8369    6.5756 H   0  0  0  0  0  0  0  0  0  0  0  0
   12.5311   24.3113    6.2267 C   0  0  0  0  0  0  0  0  0  0  0  0
    9.5080   26.9895    7.3950 N   0  0  0  0  0  0  0  0  0  0  0  0
    9.6717   26.7647    5.9553 C   0  0  0  0  0  0  0  0  0  0  0  0
   10.4492   25.4532    5.7553 C   0  0  0  0  0  0  0  0  0  0  0  0
   11.7808   25.5685    6.3874 N   0  0  0  0  0  0  0  0  0  0  0  0
   11.6558   25.8713    7.8393 C   0  0  0  0  0  0  0  0  0  0  0  0
   10.8133   27.1591    8.0340 C   0  0  0  0  0  0  0  0  0  0  0  0
   10.5586   25.1419    4.2717 C   0  0  0  0  0  0  0  0  0  0  0  0
   11.6799   25.2112    3.7150 O   0  0  0  0  0  0  0  0  0  0  0  0
    9.4156   24.7424    3.6863 N   0  0  0  0  0  0  0  0  0  0  0  0
    8.5948   24.7162    4.2293 H   0  0  0  0  0  0  0  0  0  0  0  0
    9.3332   24.3383    2.2579 C   0  0  0  0  0  0  0  0  0  0  0  0
    7.8774   23.9498    1.9485 C   0  0  0  0  0  0  0  0  0  0  0  0
   10.2103   23.1061    2.0052 C   0  0  0  0  0  0  0  0  0  0  0  0
    9.7464   25.5314    1.3432 C   0  0  0  0  0  0  0  0  0  0  0  0
    8.6149   28.1663    7.6499 C   0  0  0  0  0  0  0  0  0  0  0  0
    2.9252   28.3225    5.5031 C   0  0  0  0  0  0  0  0  0  0  0  0
    4.2078   28.9837    5.4530 C   0  0  0  0  0  0  0  0  0  0  0  0
    5.2378   28.4144    6.2334 C   0  0  0  0  0  0  0  0  0  0  0  0
    5.0857   27.2536    6.9820 C   0  0  0  0  0  0  0  0  0  0  0  0
    3.8255   26.6227    7.0931 C   0  0  0  0  0  0  0  0  0  0  0  0
    2.7364   27.1676    6.3467 C   0  0  0  0  0  0  0  0  0  0  0  0
    6.4985   28.8842    6.3338 O   0  0  0  0  0  0  0  0  0  0  0  0
    7.1862   27.9488    7.1175 C   0  0  0  0  0  0  0  0  0  0  0  0
    6.3446   26.8377    7.5557 C   0  0  0  0  0  0  0  0  0  0  0  0
   13.8068   23.0870    8.0149 C   0  0  0  0  0  0  0  0  0  0  0  0
   14.9964   22.9398    7.0556 C   0  0  0  0  0  0  0  0  0  0  0  0
   15.0191   21.5291    6.4549 C   0  0  0  0  0  0  0  0  0  0  0  0
   14.0850   20.7573    6.6838 O   0  0  0  0  0  0  0  0  0  0  0  0
   16.1244   21.2308    5.7526 N   0  0  0  0  0  0  0  0  0  0  0  0
   16.7163   21.9454    5.4236 H   0  0  0  0  0  0  0  0  0  0  0  0
   16.4370   19.8142    5.4822 C   0  0  0  0  0  0  0  0  0  0  0  0
   17.9446   19.5332    5.8705 C   0  0  0  0  0  0  0  0  0  0  0  0
   18.7192   20.6091    5.3609 O   0  0  0  0  0  0  0  0  0  0  0  0
   18.2485   18.2934    4.9667 C   0  0  0  0  0  0  0  0  0  0  0  0
   17.3578   18.5503    3.7752 C   0  0  0  0  0  0  0  0  0  0  0  0
   17.6154   18.1396    2.4692 C   0  0  0  0  0  0  0  0  0  0  0  0
   16.7804   18.6263    1.4713 C   0  0  0  0  0  0  0  0  0  0  0  0
   15.7329   19.5259    1.8014 C   0  0  0  0  0  0  0  0  0  0  0  0
   15.5141   19.9223    3.1217 C   0  0  0  0  0  0  0  0  0  0  0  0
   16.3886   19.4414    4.0717 C   0  0  0  0  0  0  0  0  0  0  0  0
   18.5413   20.7151    4.4132 H   0  0  0  0  0  0  0  0  0  0  0  0
   16.2967   23.2535    7.8012 C   0  0  0  0  0  0  0  0  0  0  0  0
   16.7040   22.1433    8.7832 C   0  0  0  0  0  0  0  0  0  0  0  0
   15.7802   21.6492    9.7506 C   0  0  0  0  0  0  0  0  0  0  0  0
   16.1789   20.6287   10.6087 C   0  0  0  0  0  0  0  0  0  0  0  0
   17.4859   20.1156   10.5177 C   0  0  0  0  0  0  0  0  0  0  0  0
   18.4096   20.6025    9.5871 C   0  0  0  0  0  0  0  0  0  0  0  0
   18.0229   21.6156    8.7112 C   0  0  0  0  0  0  0  0  0  0  0  0
  5  6  1  0  0  0
  5 10  1  0  0  0
  5 19  1  0  0  0
  6  7  1  0  0  0
  7 11  1  0  0  0
  7  8  1  0  0  0
 11 12  2  0  0  0
 11 13  1  0  0  0
 13 15  1  0  0  0
 15 16  1  0  0  0
 15 17  1  0  0  0
 15 18  1  0  0  0
  8  9  1  0  0  0
  8  4  1  0  0  0
  9 10  1  0  0  0
  4  1  1  0  0  0
  1  2  1  0  0  0
  1 29  1  0  0  0
 29 30  1  0  0  0
 30 46  1  0  0  0
 30 31  1  0  0  0
 46 47  1  0  0  0
 47 48  2  0  0  0
 47 52  1  0  0  0
 48 49  1  0  0  0
 49 50  2  0  0  0
 50 51  1  0  0  0
 51 52  2  0  0  0
 31 32  2  0  0  0
 31 33  1  0  0  0
 33 35  1  0  0  0
 35 36  1  0  0  0
 35 44  1  0  0  0
 36 37  1  0  0  0
 36 38  1  0  0  0
 38 39  1  0  0  0
 39 40  2  0  0  0
 39 44  1  0  0  0
 40 41  1  0  0  0
 41 42  2  0  0  0
 42 43  1  0  0  0
 43 44  2  0  0  0
 19 27  1  0  0  0
 20 21  2  0  0  0
 20 25  1  0  0  0
 21 22  1  0  0  0
 22 23  2  0  0  0
 22 26  1  0  0  0
 23 24  1  0  0  0
 23 28  1  0  0  0
 24 25  2  0  0  0
 26 27  1  0  0  0
 27 28  2  0  0  0
 13 14  1  0  0  0
  2  3  1  0  0  0
 33 34  1  0  0  0
 37 45  1  0  0  0
M  END
> <minimizedAffinity>
-10.35999

$$$$
1C70_L75_B_423


 52 57  0  0  0  0  0  0  0  0999 V2000
   11.4351   24.2749    3.4492 C   0  0  0  0  0  0  0  0  0  0  0  0
   12.0887   25.1233    2.5511 O   0  0  0  0  0  0  0  0  0  0  0  0
   12.6145   25.7726    3.0439 H   0  0  0  0  0  0  0  0  0  0  0  0
   10.5174   25.1225    4.2881 C   0  0  0  0  0  0  0  0  0  0  0  0
    6.8005   23.7195    2.9121 N   0  0  0  0  0  0  0  0  0  0  0  0
    6.7761   24.8525    3.8426 C   0  0  0  0  0  0  0  0  0  0  0  0
    8.1681   25.5057    3.8469 C   0  0  0  0  0  0  0  0  0  0  0  0
    9.1731   24.5208    4.3010 N   0  0  0  0  0  0  0  0  0  0  0  0
    9.1757   23.3198    3.4218 C   0  0  0  0  0  0  0  0  0  0  0  0
    7.7517   22.7066    3.3705 C   0  0  0  0  0  0  0  0  0  0  0  0
    8.1536   26.7402    4.7333 C   0  0  0  0  0  0  0  0  0  0  0  0
    8.4883   27.8455    4.2453 O   0  0  0  0  0  0  0  0  0  0  0  0
    7.7039   26.5393    5.9848 N   0  0  0  0  0  0  0  0  0  0  0  0
    7.4579   25.6247    6.2537 H   0  0  0  0  0  0  0  0  0  0  0  0
    7.5608   27.6332    6.9814 C   0  0  0  0  0  0  0  0  0  0  0  0
    8.9510   28.2402    7.2361 C   0  0  0  0  0  0  0  0  0  0  0  0
    7.0440   27.0726    8.3119 C   0  0  0  0  0  0  0  0  0  0  0  0
    6.6168   28.7412    6.4228 C   0  0  0  0  0  0  0  0  0  0  0  0
    5.4268   23.1445    2.7402 C   0  0  0  0  0  0  0  0  0  0  0  0
    4.9402   17.2362    4.1041 C   0  0  0  0  0  0  0  0  0  0  0  0
    5.5226   18.1724    3.1720 C   0  0  0  0  0  0  0  0  0  0  0  0
    5.2643   19.5397    3.4125 C   0  0  0  0  0  0  0  0  0  0  0  0
    4.5395   20.0072    4.5021 C   0  0  0  0  0  0  0  0  0  0  0  0
    3.9109   19.1083    5.3940 C   0  0  0  0  0  0  0  0  0  0  0  0
    4.1136   17.7096    5.1875 C   0  0  0  0  0  0  0  0  0  0  0  0
    5.7041   20.5671    2.6569 O   0  0  0  0  0  0  0  0  0  0  0  0
    5.3023   21.7275    3.3307 C   0  0  0  0  0  0  0  0  0  0  0  0
    4.5635   21.4504    4.5604 C   0  0  0  0  0  0  0  0  0  0  0  0
   12.4971   23.5727    4.2404 C   0  0  0  0  0  0  0  0  0  0  0  0
   12.8245   24.0129    5.6743 C   0  0  0  0  0  0  0  0  0  0  0  0
   14.3133   23.7922    5.9677 C   0  0  0  0  0  0  0  0  0  0  0  0
   15.1582   24.4072    5.3130 O   0  0  0  0  0  0  0  0  0  0  0  0
   14.5741   22.8711    6.9098 N   0  0  0  0  0  0  0  0  0  0  0  0
   13.8726   22.5866    7.5392 H   0  0  0  0  0  0  0  0  0  0  0  0
   15.9295   22.2926    6.9858 C   0  0  0  0  0  0  0  0  0  0  0  0
   16.0545   21.1250    5.9257 C   0  0  0  0  0  0  0  0  0  0  0  0
   14.8718   20.3439    6.0168 O   0  0  0  0  0  0  0  0  0  0  0  0
   17.2029   20.2773    6.5650 C   0  0  0  0  0  0  0  0  0  0  0  0
   16.9895   20.5243    8.0389 C   0  0  0  0  0  0  0  0  0  0  0  0
   17.3002   19.6315    9.0621 C   0  0  0  0  0  0  0  0  0  0  0  0
   16.8623   19.9503   10.3413 C   0  0  0  0  0  0  0  0  0  0  0  0
   16.1075   21.1332   10.5567 C   0  0  0  0  0  0  0  0  0  0  0  0
   15.8073   21.9972    9.5024 C   0  0  0  0  0  0  0  0  0  0  0  0
   16.2325   21.6221    8.2466 C   0  0  0  0  0  0  0  0  0  0  0  0
   14.7384   20.0652    6.9363 H   0  0  0  0  0  0  0  0  0  0  0  0
   11.9384   23.2457    6.6599 C   0  0  0  0  0  0  0  0  0  0  0  0
   11.3258   24.1510    7.7406 C   0  0  0  0  0  0  0  0  0  0  0  0
    9.9295   24.1049    8.0262 C   0  0  0  0  0  0  0  0  0  0  0  0
    9.4151   24.9245    9.0263 C   0  0  0  0  0  0  0  0  0  0  0  0
   10.2753   25.7922    9.7242 C   0  0  0  0  0  0  0  0  0  0  0  0
   11.6435   25.8629    9.4429 C   0  0  0  0  0  0  0  0  0  0  0  0
   12.1779   25.0395    8.4532 C   0  0  0  0  0  0  0  0  0  0  0  0
  5  6  1  0  0  0
  5 10  1  0  0  0
  5 19  1  0  0  0
  6  7  1  0  0  0
  7 11  1  0  0  0
  7  8  1  0  0  0
 11 12  2  0  0  0
 11 13  1  0  0  0
 13 15  1  0  0  0
 15 16  1  0  0  0
 15 17  1  0  0  0
 15 18  1  0  0  0
  8  9  1  0  0  0
  8  4  1  0  0  0
  9 10  1  0  0  0
  4  1  1  0  0  0
  1  2  1  0  0  0
  1 29  1  0  0  0
 29 30  1  0  0  0
 30 46  1  0  0  0
 30 31  1  0  0  0
 46 47  1  0  0  0
 47 48  2  0  0  0
 47 52  1  0  0  0
 48 49  1  0  0  0
 49 50  2  0  0  0
 50 51  1  0  0  0
 51 52  2  0  0  0
 31 32  2  0  0  0
 31 33  1  0  0  0
 33 35  1  0  0  0
 35 36  1  0  0  0
 35 44  1  0  0  0
 36 37  1  0  0  0
 36 38  1  0  0  0
 38 39  1  0  0  0
 39 40  2  0  0  0
 39 44  1  0  0  0
 40 41  1  0  0  0
 41 42  2  0  0  0
 42 43  1  0  0  0
 43 44  2  0  0  0
 19 27  1  0  0  0
 20 21  2  0  0  0
 20 25  1  0  0  0
 21 22  1  0  0  0
 22 23  2  0  0  0
 22 26  1  0  0  0
 23 24  1  0  0  0
 23 28  1  0  0  0
 24 25  2  0  0  0
 26 27  1  0  0  0
 27 28  2  0  0  0
 13 14  1  0  0  0
  2  3  1  0  0  0
 33 34  1  0  0  0
 37 45  1  0  0  0
M  END
> <minimizedAffinity>
-10.24051

$$$$
1C70_L75_B_423


 52 57  0  0  0  0  0  0  0  0999 V2000
   10.8884   24.4845    4.3966 C   0  0  0  0  0  0  0  0  0  0  0  0
   10.2803   23.8642    5.4916 O   0  0  0  0  0  0  0  0  0  0  0  0
    9.7765   24.5214    5.9968 H   0  0  0  0  0  0  0  0  0  0  0  0
   11.8312   25.5279    4.9321 C   0  0  0  0  0  0  0  0  0  0  0  0
   14.5859   22.5254    5.9685 N   0  0  0  0  0  0  0  0  0  0  0  0
   14.2556   23.5065    7.0070 C   0  0  0  0  0  0  0  0  0  0  0  0
   12.9335   24.1916    6.6231 C   0  0  0  0  0  0  0  0  0  0  0  0
   13.0962   24.8857    5.3278 N   0  0  0  0  0  0  0  0  0  0  0  0
   13.5053   23.9318    4.2610 C   0  0  0  0  0  0  0  0  0  0  0  0
   14.8032   23.1968    4.6867 C   0  0  0  0  0  0  0  0  0  0  0  0
   12.5137   25.1515    7.7241 C   0  0  0  0  0  0  0  0  0  0  0  0
   13.3223   26.0288    8.1095 O   0  0  0  0  0  0  0  0  0  0  0  0
   11.2467   25.0102    8.1525 N   0  0  0  0  0  0  0  0  0  0  0  0
   10.6989   24.2888    7.7668 H   0  0  0  0  0  0  0  0  0  0  0  0
   10.6344   25.8920    9.1810 C   0  0  0  0  0  0  0  0  0  0  0  0
   11.4971   25.8230   10.4527 C   0  0  0  0  0  0  0  0  0  0  0  0
    9.2305   25.3904    9.5401 C   0  0  0  0  0  0  0  0  0  0  0  0
   10.6016   27.3639    8.6681 C   0  0  0  0  0  0  0  0  0  0  0  0
   15.7775   21.7091    6.3696 C   0  0  0  0  0  0  0  0  0  0  0  0
   16.7503   17.8529    1.7665 C   0  0  0  0  0  0  0  0  0  0  0  0
   15.8273   18.8315    2.2912 C   0  0  0  0  0  0  0  0  0  0  0  0
   16.1968   19.4557    3.5028 C   0  0  0  0  0  0  0  0  0  0  0  0
   17.3959   19.2116    4.1612 C   0  0  0  0  0  0  0  0  0  0  0  0
   18.2873   18.2165    3.6987 C   0  0  0  0  0  0  0  0  0  0  0  0
   17.9558   17.5307    2.4904 C   0  0  0  0  0  0  0  0  0  0  0  0
   15.4722   20.3838    4.1612 O   0  0  0  0  0  0  0  0  0  0  0  0
   16.2725   20.7915    5.2361 C   0  0  0  0  0  0  0  0  0  0  0  0
   17.5572   20.0976    5.2907 C   0  0  0  0  0  0  0  0  0  0  0  0
    9.7897   25.0457    3.5453 C   0  0  0  0  0  0  0  0  0  0  0  0
    8.3179   24.7745    3.8880 C   0  0  0  0  0  0  0  0  0  0  0  0
    7.7769   23.6286    3.0244 C   0  0  0  0  0  0  0  0  0  0  0  0
    7.9018   23.6817    1.7988 O   0  0  0  0  0  0  0  0  0  0  0  0
    7.1412   22.6597    3.7033 N   0  0  0  0  0  0  0  0  0  0  0  0
    7.2689   22.5629    4.6747 H   0  0  0  0  0  0  0  0  0  0  0  0
    6.2480   21.7427    2.9692 C   0  0  0  0  0  0  0  0  0  0  0  0
    4.9420   21.4947    3.8268 C   0  0  0  0  0  0  0  0  0  0  0  0
    5.3539   21.2683    5.1671 O   0  0  0  0  0  0  0  0  0  0  0  0
    4.4826   20.1118    3.2585 C   0  0  0  0  0  0  0  0  0  0  0  0
    5.7998   19.4729    2.8903 C   0  0  0  0  0  0  0  0  0  0  0  0
    6.0644   18.1051    2.8938 C   0  0  0  0  0  0  0  0  0  0  0  0
    7.3835   17.7104    2.7093 C   0  0  0  0  0  0  0  0  0  0  0  0
    8.3999   18.6892    2.5535 C   0  0  0  0  0  0  0  0  0  0  0  0
    8.0954   20.0513    2.5668 C   0  0  0  0  0  0  0  0  0  0  0  0
    6.7795   20.3953    2.7874 C   0  0  0  0  0  0  0  0  0  0  0  0
    6.0123   20.5562    5.1871 H   0  0  0  0  0  0  0  0  0  0  0  0
    7.5029   26.0564    3.6943 C   0  0  0  0  0  0  0  0  0  0  0  0
    7.1930   26.7721    5.0189 C   0  0  0  0  0  0  0  0  0  0  0  0
    8.0772   27.7635    5.5373 C   0  0  0  0  0  0  0  0  0  0  0  0
    7.7522   28.4048    6.7288 C   0  0  0  0  0  0  0  0  0  0  0  0
    6.5700   28.0540    7.4064 C   0  0  0  0  0  0  0  0  0  0  0  0
    5.7022   27.0704    6.9209 C   0  0  0  0  0  0  0  0  0  0  0  0
    6.0057   26.4272    5.7221 C   0  0  0  0  0  0  0  0  0  0  0  0
  5  6  1  0  0  0
  5 10  1  0  0  0
  5 19  1  0  0  0
  6  7  1  0  0  0
  7 11  1  0  0  0
  7  8  1  0  0  0
 11 12  2  0  0  0
 11 13  1  0  0  0
 13 15  1  0  0  0
 15 16  1  0  0  0
 15 17  1  0  0  0
 15 18  1  0  0  0
  8  9  1  0  0  0
  8  4  1  0  0  0
  9 10  1  0  0  0
  4  1  1  0  0  0
  1  2  1  0  0  0
  1 29  1  0  0  0
 29 30  1  0  0  0
 30 46  1  0  0  0
 30 31  1  0  0  0
 46 47  1  0  0  0
 47 48  2  0  0  0
 47 52  1  0  0  0
 48 49  1  0  0  0
 49 50  2  0  0  0
 50 51  1  0  0  0
 51 52  2  0  0  0
 31 32  2  0  0  0
 31 33  1  0  0  0
 33 35  1  0  0  0
 35 36  1  0  0  0
 35 44  1  0  0  0
 36 37  1  0  0  0
 36 38  1  0  0  0
 38 39  1  0  0  0
 39 40  2  0  0  0
 39 44  1  0  0  0
 40 41  1  0  0  0
 41 42  2  0  0  0
 42 43  1  0  0  0
 43 44  2  0  0  0
 19 27  1  0  0  0
 20 21  2  0  0  0
 20 25  1  0  0  0
 21 22  1  0  0  0
 22 23  2  0  0  0
 22 26  1  0  0  0
 23 24  1  0  0  0
 23 28  1  0  0  0
 24 25  2  0  0  0
 26 27  1  0  0  0
 27 28  2  0  0  0
 13 14  1  0  0  0
  2  3  1  0  0  0
 33 34  1  0  0  0
 37 45  1  0  0  0
M  END
> <minimizedAffinity>
-10.03811

$$$$
1C70_L75_B_423


 52 57  0  0  0  0  0  0  0  0999 V2000
   15.3508   22.5983    5.8130 C   0  0  0  0  0  0  0  0  0  0  0  0
   15.8526   23.9001    5.8975 O   0  0  0  0  0  0  0  0  0  0  0  0
   15.6291   24.2772    6.7628 H   0  0  0  0  0  0  0  0  0  0  0  0
   13.8542   22.6793    5.9474 C   0  0  0  0  0  0  0  0  0  0  0  0
   11.8032   25.4920    8.3051 N   0  0  0  0  0  0  0  0  0  0  0  0
   11.7394   25.6756    6.8518 C   0  0  0  0  0  0  0  0  0  0  0  0
   12.1122   24.3444    6.1785 C   0  0  0  0  0  0  0  0  0  0  0  0
   13.4885   23.9657    6.5642 N   0  0  0  0  0  0  0  0  0  0  0  0
   13.6116   23.8422    8.0424 C   0  0  0  0  0  0  0  0  0  0  0  0
   13.1695   25.1676    8.7162 C   0  0  0  0  0  0  0  0  0  0  0  0
   11.9684   24.4730    4.6710 C   0  0  0  0  0  0  0  0  0  0  0  0
   12.8123   25.1459    4.0330 O   0  0  0  0  0  0  0  0  0  0  0  0
   10.9528   23.7747    4.1327 N   0  0  0  0  0  0  0  0  0  0  0  0
   10.3586   23.2713    4.7349 H   0  0  0  0  0  0  0  0  0  0  0  0
   10.6852   23.7273    2.6710 C   0  0  0  0  0  0  0  0  0  0  0  0
   12.0260   23.5436    1.9398 C   0  0  0  0  0  0  0  0  0  0  0  0
   10.0740   25.0530    2.2017 C   0  0  0  0  0  0  0  0  0  0  0  0
    9.7558   22.5203    2.3395 C   0  0  0  0  0  0  0  0  0  0  0  0
   11.2900   26.7076    9.0165 C   0  0  0  0  0  0  0  0  0  0  0  0
    5.5611   27.2488    7.0435 C   0  0  0  0  0  0  0  0  0  0  0  0
    6.4759   26.3750    7.7393 C   0  0  0  0  0  0  0  0  0  0  0  0
    7.7906   26.8580    7.9187 C   0  0  0  0  0  0  0  0  0  0  0  0
    8.2110   28.1183    7.5117 C   0  0  0  0  0  0  0  0  0  0  0  0
    7.3513   28.9671    6.7775 C   0  0  0  0  0  0  0  0  0  0  0  0
    6.0146   28.5227    6.5408 C   0  0  0  0  0  0  0  0  0  0  0  0
    8.7946   26.1951    8.5291 O   0  0  0  0  0  0  0  0  0  0  0  0
    9.8673   27.0949    8.5713 C   0  0  0  0  0  0  0  0  0  0  0  0
    9.5596   28.3839    7.9562 C   0  0  0  0  0  0  0  0  0  0  0  0
   16.0107   21.8032    6.8990 C   0  0  0  0  0  0  0  0  0  0  0  0
   16.7882   20.5213    6.5683 C   0  0  0  0  0  0  0  0  0  0  0  0
   17.7643   20.1879    7.7029 C   0  0  0  0  0  0  0  0  0  0  0  0
   18.7230   20.9335    7.9170 O   0  0  0  0  0  0  0  0  0  0  0  0
   17.5088   19.0391    8.3501 N   0  0  0  0  0  0  0  0  0  0  0  0
   16.6230   18.6144    8.2849 H   0  0  0  0  0  0  0  0  0  0  0  0
   18.5777   18.4240    9.1605 C   0  0  0  0  0  0  0  0  0  0  0  0
   19.4045   17.4247    8.2546 C   0  0  0  0  0  0  0  0  0  0  0  0
   18.4696   16.6668    7.5004 O   0  0  0  0  0  0  0  0  0  0  0  0
   19.9874   16.4645    9.3429 C   0  0  0  0  0  0  0  0  0  0  0  0
   18.9064   16.4942   10.3962 C   0  0  0  0  0  0  0  0  0  0  0  0
   18.5965   15.4518   11.2669 C   0  0  0  0  0  0  0  0  0  0  0  0
   17.4507   15.5867   12.0406 C   0  0  0  0  0  0  0  0  0  0  0  0
   16.6366   16.7418   11.9044 C   0  0  0  0  0  0  0  0  0  0  0  0
   16.9758   17.7600   11.0121 C   0  0  0  0  0  0  0  0  0  0  0  0
   18.1014   17.5662   10.2413 C   0  0  0  0  0  0  0  0  0  0  0  0
   17.8265   16.2575    8.1001 H   0  0  0  0  0  0  0  0  0  0  0  0
   17.5178   20.6956    5.2332 C   0  0  0  0  0  0  0  0  0  0  0  0
   17.1156   19.6394    4.1913 C   0  0  0  0  0  0  0  0  0  0  0  0
   15.8342   19.6806    3.5671 C   0  0  0  0  0  0  0  0  0  0  0  0
   15.5141   18.7194    2.6130 C   0  0  0  0  0  0  0  0  0  0  0  0
   16.4504   17.7186    2.2940 C   0  0  0  0  0  0  0  0  0  0  0  0
   17.7039   17.6534    2.9111 C   0  0  0  0  0  0  0  0  0  0  0  0
   18.0460   18.6159    3.8596 C   0  0  0  0  0  0  0  0  0  0  0  0
  5  6  1  0  0  0
  5 10  1  0  0  0
  5 19  1  0  0  0
  6  7  1  0  0  0
  7 11  1  0  0  0
  7  8  1  0  0  0
 11 12  2  0  0  0
 11 13  1  0  0  0
 13 15  1  0  0  0
 15 16  1  0  0  0
 15 17  1  0  0  0
 15 18  1  0  0  0
  8  9  1  0  0  0
  8  4  1  0  0  0
  9 10  1  0  0  0
  4  1  1  0  0  0
  1  2  1  0  0  0
  1 29  1  0  0  0
 29 30  1  0  0  0
 30 46  1  0  0  0
 30 31  1  0  0  0
 46 47  1  0  0  0
 47 48  2  0  0  0
 47 52  1  0  0  0
 48 49  1  0  0  0
 49 50  2  0  0  0
 50 51  1  0  0  0
 51 52  2  0  0  0
 31 32  2  0  0  0
 31 33  1  0  0  0
 33 35  1  0  0  0
 35 36  1  0  0  0
 35 44  1  0  0  0
 36 37  1  0  0  0
 36 38  1  0  0  0
 38 39  1  0  0  0
 39 40  2  0  0  0
 39 44  1  0  0  0
 40 41  1  0  0  0
 41 42  2  0  0  0
 42 43  1  0  0  0
 43 44  2  0  0  0
 19 27  1  0  0  0
 20 21  2  0  0  0
 20 25  1  0  0  0
 21 22  1  0  0  0
 22 23  2  0  0  0
 22 26  1  0  0  0
 23 24  1  0  0  0
 23 28  1  0  0  0
 24 25  2  0  0  0
 26 27  1  0  0  0
 27 28  2  0  0  0
 13 14  1  0  0  0
  2  3  1  0  0  0
 33 34  1  0  0  0
 37 45  1  0  0  0
M  END
> <minimizedAffinity>
-9.97966

$$$$
1C70_L75_B_423


 52 57  0  0  0  0  0  0  0  0999 V2000
   14.6500   22.7375    7.6016 C   0  0  0  0  0  0  0  0  0  0  0  0
   14.3093   22.0040    8.7416 O   0  0  0  0  0  0  0  0  0  0  0  0
   14.8116   22.3363    9.5020 H   0  0  0  0  0  0  0  0  0  0  0  0
   16.1200   22.5330    7.3530 C   0  0  0  0  0  0  0  0  0  0  0  0
   18.6783   19.5910    8.9268 N   0  0  0  0  0  0  0  0  0  0  0  0
   17.7801   19.1757    7.8448 C   0  0  0  0  0  0  0  0  0  0  0  0
   17.3011   20.4346    7.1030 C   0  0  0  0  0  0  0  0  0  0  0  0
   16.5657   21.3095    8.0411 N   0  0  0  0  0  0  0  0  0  0  0  0
   17.4243   21.6926    9.1949 C   0  0  0  0  0  0  0  0  0  0  0  0
   17.9572   20.4159    9.8966 C   0  0  0  0  0  0  0  0  0  0  0  0
   16.4388   20.0352    5.9169 C   0  0  0  0  0  0  0  0  0  0  0  0
   15.1937   20.1580    5.9991 O   0  0  0  0  0  0  0  0  0  0  0  0
   17.1173   19.6357    4.8265 N   0  0  0  0  0  0  0  0  0  0  0  0
   18.0994   19.5892    4.8762 H   0  0  0  0  0  0  0  0  0  0  0  0
   16.4540   19.2610    3.5498 C   0  0  0  0  0  0  0  0  0  0  0  0
   15.6792   17.9511    3.7737 C   0  0  0  0  0  0  0  0  0  0  0  0
   17.5050   19.0032    2.4633 C   0  0  0  0  0  0  0  0  0  0  0  0
   15.4528   20.3774    3.1232 C   0  0  0  0  0  0  0  0  0  0  0  0
   19.3074   18.3980    9.5812 C   0  0  0  0  0  0  0  0  0  0  0  0
   16.6681   15.5386   14.2571 C   0  0  0  0  0  0  0  0  0  0  0  0
   17.9094   16.1112   13.7923 C   0  0  0  0  0  0  0  0  0  0  0  0
   17.8877   16.6968   12.5075 C   0  0  0  0  0  0  0  0  0  0  0  0
   16.7460   16.7865   11.7205 C   0  0  0  0  0  0  0  0  0  0  0  0
   15.5350   16.1819   12.1286 C   0  0  0  0  0  0  0  0  0  0  0  0
   15.5010   15.5502   13.4092 C   0  0  0  0  0  0  0  0  0  0  0  0
   18.9393   17.2723   11.8886 O   0  0  0  0  0  0  0  0  0  0  0  0
   18.4282   17.8060   10.6986 C   0  0  0  0  0  0  0  0  0  0  0  0
   16.9983   17.5599   10.5268 C   0  0  0  0  0  0  0  0  0  0  0  0
   14.2778   24.1643    7.8715 C   0  0  0  0  0  0  0  0  0  0  0  0
   12.8166   24.6244    7.7705 C   0  0  0  0  0  0  0  0  0  0  0  0
   12.5163   25.1223    6.3516 C   0  0  0  0  0  0  0  0  0  0  0  0
   13.2871   25.9201    5.8130 O   0  0  0  0  0  0  0  0  0  0  0  0
   11.3666   24.6703    5.8246 N   0  0  0  0  0  0  0  0  0  0  0  0
   10.9196   23.8791    6.2033 H   0  0  0  0  0  0  0  0  0  0  0  0
   10.7846   25.3793    4.6687 C   0  0  0  0  0  0  0  0  0  0  0  0
    9.5037   26.1778    5.1423 C   0  0  0  0  0  0  0  0  0  0  0  0
    8.7516   25.3112    5.9793 O   0  0  0  0  0  0  0  0  0  0  0  0
    8.7200   26.2911    3.7935 C   0  0  0  0  0  0  0  0  0  0  0  0
    9.1339   25.0241    3.0849 C   0  0  0  0  0  0  0  0  0  0  0  0
    8.3583   24.3210    2.1657 C   0  0  0  0  0  0  0  0  0  0  0  0
    8.8242   23.0775    1.7574 C   0  0  0  0  0  0  0  0  0  0  0  0
   10.0326   22.5627    2.2961 C   0  0  0  0  0  0  0  0  0  0  0  0
   10.7759   23.2939    3.2241 C   0  0  0  0  0  0  0  0  0  0  0  0
   10.2568   24.5057    3.6250 C   0  0  0  0  0  0  0  0  0  0  0  0
    8.5798   24.4788    5.5118 H   0  0  0  0  0  0  0  0  0  0  0  0
   12.5493   25.7117    8.8153 C   0  0  0  0  0  0  0  0  0  0  0  0
   11.0657   26.1046    8.9012 C   0  0  0  0  0  0  0  0  0  0  0  0
   10.6471   27.4402    8.6282 C   0  0  0  0  0  0  0  0  0  0  0  0
    9.2928   27.7528    8.6956 C   0  0  0  0  0  0  0  0  0  0  0  0
    8.3659   26.7539    9.0459 C   0  0  0  0  0  0  0  0  0  0  0  0
    8.7625   25.4442    9.3350 C   0  0  0  0  0  0  0  0  0  0  0  0
   10.1137   25.1104    9.2596 C   0  0  0  0  0  0  0  0  0  0  0  0
  5  6  1  0  0  0
  5 10  1  0  0  0
  5 19  1  0  0  0
  6  7  1  0  0  0
  7 11  1  0  0  0
  7  8  1  0  0  0
 11 12  2  0  0  0
 11 13  1  0  0  0
 13 15  1  0  0  0
 15 16  1  0  0  0
 15 17  1  0  0  0
 15 18  1  0  0  0
  8  9  1  0  0  0
  8  4  1  0  0  0
  9 10  1  0  0  0
  4  1  1  0  0  0
  1  2  1  0  0  0
  1 29  1  0  0  0
 29 30  1  0  0  0
 30 46  1  0  0  0
 30 31  1  0  0  0
 46 47  1  0  0  0
 47 48  2  0  0  0
 47 52  1  0  0  0
 48 49  1  0  0  0
 49 50  2  0  0  0
 50 51  1  0  0  0
 51 52  2  0  0  0
 31 32  2  0  0  0
 31 33  1  0  0  0
 33 35  1  0  0  0
 35 36  1  0  0  0
 35 44  1  0  0  0
 36 37  1  0  0  0
 36 38  1  0  0  0
 38 39  1  0  0  0
 39 40  2  0  0  0
 39 44  1  0  0  0
 40 41  1  0  0  0
 41 42  2  0  0  0
 42 43  1  0  0  0
 43 44  2  0  0  0
 19 27  1  0  0  0
 20 21  2  0  0  0
 20 25  1  0  0  0
 21 22  1  0  0  0
 22 23  2  0  0  0
 22 26  1  0  0  0
 23 24  1  0  0  0
 23 28  1  0  0  0
 24 25  2  0  0  0
 26 27  1  0  0  0
 27 28  2  0  0  0
 13 14  1  0  0  0
  2  3  1  0  0  0
 33 34  1  0  0  0
 37 45  1  0  0  0
M  END
> <minimizedAffinity>
-9.95363

$$$$
1C70_L75_B_423


 52 57  0  0  0  0  0  0  0  0999 V2000
   15.1719   22.9966    4.7241 C   0  0  0  0  0  0  0  0  0  0  0  0
   15.9548   24.1182    4.4365 O   0  0  0  0  0  0  0  0  0  0  0  0
   16.3901   24.4251    5.2472 H   0  0  0  0  0  0  0  0  0  0  0  0
   14.1255   23.4171    5.7205 C   0  0  0  0  0  0  0  0  0  0  0  0
   11.2915   24.7696    2.9247 N   0  0  0  0  0  0  0  0  0  0  0  0
   11.0959   25.1841    4.3175 C   0  0  0  0  0  0  0  0  0  0  0  0
   12.4291   25.0149    5.0650 C   0  0  0  0  0  0  0  0  0  0  0  0
   12.8369   23.5941    5.0296 N   0  0  0  0  0  0  0  0  0  0  0  0
   12.9736   23.1148    3.6271 C   0  0  0  0  0  0  0  0  0  0  0  0
   11.6450   23.3511    2.8622 C   0  0  0  0  0  0  0  0  0  0  0  0
   12.2866   25.5213    6.4908 C   0  0  0  0  0  0  0  0  0  0  0  0
   13.2438   26.1357    7.0184 O   0  0  0  0  0  0  0  0  0  0  0  0
   11.0819   25.3155    7.0521 N   0  0  0  0  0  0  0  0  0  0  0  0
   10.4006   24.8281    6.5350 H   0  0  0  0  0  0  0  0  0  0  0  0
   10.7305   25.7895    8.4168 C   0  0  0  0  0  0  0  0  0  0  0  0
    9.5501   24.9482    8.9318 C   0  0  0  0  0  0  0  0  0  0  0  0
   10.2759   27.2532    8.3678 C   0  0  0  0  0  0  0  0  0  0  0  0
   11.9459   25.6002    9.3747 C   0  0  0  0  0  0  0  0  0  0  0  0
   10.0715   25.0679    2.1063 C   0  0  0  0  0  0  0  0  0  0  0  0
    5.1736   22.0318    4.0552 C   0  0  0  0  0  0  0  0  0  0  0  0
    6.5476   21.8815    3.6380 C   0  0  0  0  0  0  0  0  0  0  0  0
    7.2297   23.0670    3.2866 C   0  0  0  0  0  0  0  0  0  0  0  0
    6.6666   24.3345    3.3723 C   0  0  0  0  0  0  0  0  0  0  0  0
    5.3068   24.5014    3.7212 C   0  0  0  0  0  0  0  0  0  0  0  0
    4.5557   23.3355    4.0626 C   0  0  0  0  0  0  0  0  0  0  0  0
    8.5079   23.1414    2.8616 O   0  0  0  0  0  0  0  0  0  0  0  0
    8.7842   24.5093    2.7410 C   0  0  0  0  0  0  0  0  0  0  0  0
    7.6454   25.3574    3.0853 C   0  0  0  0  0  0  0  0  0  0  0  0
   16.0985   21.9352    5.2357 C   0  0  0  0  0  0  0  0  0  0  0  0
   15.6564   20.9847    6.3573 C   0  0  0  0  0  0  0  0  0  0  0  0
   16.7665   20.8539    7.4071 C   0  0  0  0  0  0  0  0  0  0  0  0
   17.5834   21.7677    7.5430 O   0  0  0  0  0  0  0  0  0  0  0  0
   16.7833   19.6863    8.0706 N   0  0  0  0  0  0  0  0  0  0  0  0
   15.9900   19.1033    8.0777 H   0  0  0  0  0  0  0  0  0  0  0  0
   18.0105   19.2918    8.7890 C   0  0  0  0  0  0  0  0  0  0  0  0
   18.9640   18.5124    7.7960 C   0  0  0  0  0  0  0  0  0  0  0  0
   18.1591   17.5924    7.0728 O   0  0  0  0  0  0  0  0  0  0  0  0
   19.8085   17.6711    8.8085 C   0  0  0  0  0  0  0  0  0  0  0  0
   18.8203   17.4457    9.9271 C   0  0  0  0  0  0  0  0  0  0  0  0
   18.7962   16.3405   10.7748 C   0  0  0  0  0  0  0  0  0  0  0  0
   17.7035   16.2110   11.6228 C   0  0  0  0  0  0  0  0  0  0  0  0
   16.6581   17.1706   11.5817 C   0  0  0  0  0  0  0  0  0  0  0  0
   16.7143   18.2590   10.7096 C   0  0  0  0  0  0  0  0  0  0  0  0
   17.7999   18.3266    9.8637 C   0  0  0  0  0  0  0  0  0  0  0  0
   17.6588   17.0418    7.6952 H   0  0  0  0  0  0  0  0  0  0  0  0
   15.2866   19.6244    5.7590 C   0  0  0  0  0  0  0  0  0  0  0  0
   16.0005   19.3447    4.4267 C   0  0  0  0  0  0  0  0  0  0  0  0
   15.3440   19.5805    3.1830 C   0  0  0  0  0  0  0  0  0  0  0  0
   16.0303   19.3353    1.9975 C   0  0  0  0  0  0  0  0  0  0  0  0
   17.3486   18.8460    2.0465 C   0  0  0  0  0  0  0  0  0  0  0  0
   17.9995   18.5915    3.2580 C   0  0  0  0  0  0  0  0  0  0  0  0
   17.3315   18.8439    4.4552 C   0  0  0  0  0  0  0  0  0  0  0  0
  5  6  1  0  0  0
  5 10  1  0  0  0
  5 19  1  0  0  0
  6  7  1  0  0  0
  7 11  1  0  0  0
  7  8  1  0  0  0
 11 12  2  0  0  0
 11 13  1  0  0  0
 13 15  1  0  0  0
 15 16  1  0  0  0
 15 17  1  0  0  0
 15 18  1  0  0  0
  8  9  1  0  0  0
  8  4  1  0  0  0
  9 10  1  0  0  0
  4  1  1  0  0  0
  1  2  1  0  0  0
  1 29  1  0  0  0
 29 30  1  0  0  0
 30 46  1  0  0  0
 30 31  1  0  0  0
 46 47  1  0  0  0
 47 48  2  0  0  0
 47 52  1  0  0  0
 48 49  1  0  0  0
 49 50  2  0  0  0
 50 51  1  0  0  0
 51 52  2  0  0  0
 31 32  2  0  0  0
 31 33  1  0  0  0
 33 35  1  0  0  0
 35 36  1  0  0  0
 35 44  1  0  0  0
 36 37  1  0  0  0
 36 38  1  0  0  0
 38 39  1  0  0  0
 39 40  2  0  0  0
 39 44  1  0  0  0
 40 41  1  0  0  0
 41 42  2  0  0  0
 42 43  1  0  0  0
 43 44  2  0  0  0
 19 27  1  0  0  0
 20 21  2  0  0  0
 20 25  1  0  0  0
 21 22  1  0  0  0
 22 23  2  0  0  0
 22 26  1  0  0  0
 23 24  1  0  0  0
 23 28  1  0  0  0
 24 25  2  0  0  0
 26 27  1  0  0  0
 27 28  2  0  0  0
 13 14  1  0  0  0
  2  3  1  0  0  0
 33 34  1  0  0  0
 37 45  1  0  0  0
M  END
> <minimizedAffinity>
-9.49594

$$$$
