2XDE_1B0_A_1148
  RCSB PDB12061707253D
Coordinates from PDB:2XDE:A:1148 Model:1 without hydrogens
 32 35  0  0  0  0            999 V2000
    1.1970    4.6210   18.6350   O 0  0  0  0  0  0  0  0  0  0  0  0
    0.0920    4.1490   18.4170   C 0  0  0  0  0  0  0  0  0  0  0  0
   -0.1120    2.8540   18.1640   N 0  0  0  0  0  0  0  0  0  0  0  0
    0.9840    1.9240   17.9150   C 0  0  0  0  0  0  0  0  0  0  0  0
    1.4780    2.0460   16.4950   C 0  0  0  0  0  0  0  0  0  0  0  0
    2.8010    2.0990   16.2580   N 0  0  0  0  0  0  0  0  0  0  0  0
    3.7260    1.9350   17.3050   C 0  0  0  0  0  0  0  0  0  0  0  0
    4.1510    0.6480   17.6590   C 0  0  0  0  0  0  0  0  0  0  0  0
    5.0650    0.4890   18.6900   C 0  0  0  0  0  0  0  0  0  0  0  0
    5.5620    1.6070   19.3640   C 0  0  0  0  0  0  0  0  0  0  0  0
    5.1510    2.8890   19.0110   C 0  0  0  0  0  0  0  0  0  0  0  0
    4.2300    3.0580   17.9770   C 0  0  0  0  0  0  0  0  0  0  0  0
    3.3740    2.3470   14.9390   C 0  0  0  0  0  0  0  0  0  0  0  0
    0.6690    2.1180   15.5870   O 0  0  0  0  0  0  0  0  0  0  0  0
    0.5610    0.4810   18.2020   C 0  0  0  0  0  0  0  0  0  0  0  0
    0.2680    0.3300   19.6780   C 0  0  0  0  0  0  0  0  0  0  0  0
    1.2810    0.0130   20.5840   C 0  0  0  0  0  0  0  0  0  0  0  0
    1.0030   -0.1170   21.9410   C 0  0  0  0  0  0  0  0  0  0  0  0
   -0.2960    0.0810   22.4060   C 0  0  0  0  0  0  0  0  0  0  0  0
   -1.3050    0.4000   21.5030   C 0  0  0  0  0  0  0  0  0  0  0  0
   -1.0310    0.5220   20.1430   C 0  0  0  0  0  0  0  0  0  0  0  0
   -1.1250    5.0430   18.4380   C 0  0  0  0  0  0  0  0  0  0  0  0
   -1.0650    5.8400   19.7220   C 0  0  0  0  0  0  0  0  0  0  0  0
   -1.0220    5.2950   21.1000   C 0  0  0  0  0  0  0  0  0  0  0  0
   -1.0310    3.9810   21.5670   C 0  0  0  0  0  0  0  0  0  0  0  0
   -0.9850    3.7570   22.9430   C 0  0  0  0  0  0  0  0  0  0  0  0
   -0.9290    4.8410   23.8240   C 0  0  0  0  0  0  0  0  0  0  0  0
   -0.9210    6.1490   23.3350   C 0  0  0  0  0  0  0  0  0  0  0  0
   -0.9620    6.3790   21.9600   C 0  0  0  0  0  0  0  0  0  0  0  0
   -0.9650    7.5120   21.2070   N 0  0  0  0  0  0  0  0  0  0  0  0
   -1.0230    7.2260   19.8770   C 0  0  0  0  0  0  0  0  0  0  0  0
   -1.0390    8.2540   18.7750   C 0  0  0  0  0  0  0  0  0  0  0  0
  1  2  2  0  0  0  0
  2  3  1  0  0  0  0
  2 22  1  0  0  0  0
  3  4  1  0  0  0  0
  4  5  1  0  0  0  0
  4 15  1  0  0  0  0
  5  6  1  0  0  0  0
  5 14  2  0  0  0  0
  6  7  1  0  0  0  0
  6 13  1  0  0  0  0
  7  8  1  0  0  0  0
  7 12  2  0  0  0  0
  8  9  2  0  0  0  0
  9 10  1  0  0  0  0
 10 11  2  0  0  0  0
 11 12  1  0  0  0  0
 15 16  1  0  0  0  0
 16 17  1  0  0  0  0
 16 21  2  0  0  0  0
 17 18  2  0  0  0  0
 18 19  1  0  0  0  0
 19 20  2  0  0  0  0
 20 21  1  0  0  0  0
 22 23  1  0  0  0  0
 23 24  1  0  0  0  0
 23 31  2  0  0  0  0
 24 25  1  0  0  0  0
 24 29  2  0  0  0  0
 25 26  2  0  0  0  0
 26 27  1  0  0  0  0
 27 28  2  0  0  0  0
 28 29  1  0  0  0  0
 29 30  1  0  0  0  0
 30 31  1  0  0  0  0
 31 32  1  0  0  0  0
A    1
O24
A    2
C23
A    3
N4
A    4
C5
A    5
C13
A    6
N15
A    7
C17
A    8
C22
A    9
C21
A   10
C20
A   11
C19
A   12
C18
A   13
C16
A   14
O14
A   15
C6
A   16
C7
A   17
C12
A   18
C11
A   19
C10
A   20
C9
A   21
C8
A   22
C25
A   23
C1
A   24
C26
A   25
C31
A   26
C30
A   27
C29
A   28
C28
A   29
C27
A   30
N3
A   31
C2
A   32
C32
M  END
>  <InstanceId>
2XDE_1B0_A_1148

>  <ChemCompId>
1B0

>  <PdbId>
2XDE

>  <ChainId>
A

>  <ResidueNumber>
1148

>  <InsertionCode>


>  <Model>
1

>  <AltIds>


>  <MissingHeavyAtoms>
0

>  <ObservedFormula>
C27 N3 O2

>  <Name>
N-METHYL-NALPHA-[(2-METHYL-1H-INDOL-3-YL)ACETYL]-N-PHENYL-L-PHENYLALANINAMIDE

>  <SystematicName>
(2S)-N-methyl-2-[2-(2-methyl-1H-indol-3-yl)ethanoylamino]-N,3-diphenyl-propanamide

>  <Synonyms>


>  <Type>
non-polymer

>  <Formula>
C27 H27 N3 O2

>  <MolecularWeight>
425.522

>  <ModifiedDate>
2011-06-04

>  <Parent>


>  <OneLetterCode>


>  <SubcomponentList>


>  <AmbiguousFlag>
N

>  <InChI>
InChI=1S/C27H27N3O2/c1-19-23(22-15-9-10-16-24(22)28-19)18-26(31)29-25(17-20-11-5-3-6-12-20)27(32)30(2)21-13-7-4-8-14-21/h3-16,25,28H,17-18H2,1-2H3,(H,29,31)/t25-/m0/s1

>  <InChIKey>
ACDFWSNAQWFRRF-VWLOTQADSA-N

>  <SMILES>
Cc1c(c2ccccc2[nH]1)CC(=O)N[C@@H](Cc3ccccc3)C(=O)N(C)c4ccccc4

$$$$
