2XDE_1B0_A_1148


 34 37  0  0  0  0  0  0  0  0999 V2000
    1.0764    1.7865   17.7650 C   0  0  0  0  0  0  0  0  0  0  0  0
    1.4774    4.4207   18.6238 O   0  0  0  0  0  0  0  0  0  0  0  0
    0.3574    4.0685   18.2880 C   0  0  0  0  0  0  0  0  0  0  0  0
    0.0554    2.8103   17.9589 N   0  0  0  0  0  0  0  0  0  0  0  0
   -0.8908    2.5644   17.8429 H   0  0  0  0  0  0  0  0  0  0  0  0
   -0.7659    5.0769   18.2427 C   0  0  0  0  0  0  0  0  0  0  0  0
   -0.7863    5.7754   19.5840 C   0  0  0  0  0  0  0  0  0  0  0  0
   -0.8251    5.1287   20.9174 C   0  0  0  0  0  0  0  0  0  0  0  0
   -0.8583    3.7834   21.2833 C   0  0  0  0  0  0  0  0  0  0  0  0
   -0.8950    3.4569   22.6389 C   0  0  0  0  0  0  0  0  0  0  0  0
   -0.8958    4.4718   23.6004 C   0  0  0  0  0  0  0  0  0  0  0  0
   -0.8623    5.8127   23.2121 C   0  0  0  0  0  0  0  0  0  0  0  0
   -0.8206    6.1451   21.8582 C   0  0  0  0  0  0  0  0  0  0  0  0
   -0.7815    7.3313   21.1933 N   0  0  0  0  0  0  0  0  0  0  0  0
   -0.7580    7.1459   19.8446 C   0  0  0  0  0  0  0  0  0  0  0  0
   -0.7104    8.2535   18.8237 C   0  0  0  0  0  0  0  0  0  0  0  0
   -0.7715    8.2127   21.6320 H   0  0  0  0  0  0  0  0  0  0  0  0
    1.6189    1.8305   16.3582 C   0  0  0  0  0  0  0  0  0  0  0  0
    2.9475    1.9123   16.1647 N   0  0  0  0  0  0  0  0  0  0  0  0
    3.5612    2.0914   14.8529 C   0  0  0  0  0  0  0  0  0  0  0  0
    0.8424    1.8147   15.4196 O   0  0  0  0  0  0  0  0  0  0  0  0
    3.8375    1.8495   17.2522 C   0  0  0  0  0  0  0  0  0  0  0  0
    4.2873    0.6039   17.7086 C   0  0  0  0  0  0  0  0  0  0  0  0
    5.1668    0.5446   18.7794 C   0  0  0  0  0  0  0  0  0  0  0  0
    5.6049    1.7212   19.3918 C   0  0  0  0  0  0  0  0  0  0  0  0
    5.1692    2.9624   18.9372 C   0  0  0  0  0  0  0  0  0  0  0  0
    4.2825    3.0312   17.8625 C   0  0  0  0  0  0  0  0  0  0  0  0
    0.5262    0.3914   18.0725 C   0  0  0  0  0  0  0  0  0  0  0  0
    0.4774    0.1922   19.5709 C   0  0  0  0  0  0  0  0  0  0  0  0
   -0.7376    0.1899   20.2574 C   0  0  0  0  0  0  0  0  0  0  0  0
   -0.7729   -0.0010   21.6350 C   0  0  0  0  0  0  0  0  0  0  0  0
    0.4131   -0.2030   22.3389 C   0  0  0  0  0  0  0  0  0  0  0  0
    1.6238   -0.2037   21.6539 C   0  0  0  0  0  0  0  0  0  0  0  0
    1.6626   -0.0040   20.2761 C   0  0  0  0  0  0  0  0  0  0  0  0
  2  3  2  0  0  0
  3  4  1  0  0  0
  3  6  1  0  0  0
  4  1  1  0  0  0
  1 18  1  0  0  0
  1 28  1  0  0  0
 18 19  1  0  0  0
 18 21  2  0  0  0
 19 22  1  0  0  0
 19 20  1  0  0  0
 22 23  1  0  0  0
 22 27  2  0  0  0
 23 24  2  0  0  0
 24 25  1  0  0  0
 25 26  2  0  0  0
 26 27  1  0  0  0
 28 29  1  0  0  0
 29 30  1  0  0  0
 29 34  2  0  0  0
 30 31  2  0  0  0
 31 32  1  0  0  0
 32 33  2  0  0  0
 33 34  1  0  0  0
  6  7  1  0  0  0
  7  8  1  0  0  0
  7 15  2  0  0  0
  8  9  1  0  0  0
  8 13  2  0  0  0
  9 10  2  0  0  0
 10 11  1  0  0  0
 11 12  2  0  0  0
 12 13  1  0  0  0
 13 14  1  0  0  0
 14 15  1  0  0  0
 15 16  1  0  0  0
  4  5  1  0  0  0
 14 17  1  0  0  0
M  END
> <minimizedAffinity>
-8.25134

$$$$
2XDE_1B0_A_1148


 34 37  0  0  0  0  0  0  0  0999 V2000
    1.0361    1.8639   17.7422 C   0  0  0  0  0  0  0  0  0  0  0  0
    1.5647    4.4717   18.6127 O   0  0  0  0  0  0  0  0  0  0  0  0
    0.4449    4.1937   18.2125 C   0  0  0  0  0  0  0  0  0  0  0  0
    0.0778    2.9562   17.8711 N   0  0  0  0  0  0  0  0  0  0  0  0
   -0.8745    2.7742   17.7002 H   0  0  0  0  0  0  0  0  0  0  0  0
   -0.6023    5.2756   18.0966 C   0  0  0  0  0  0  0  0  0  0  0  0
   -1.7096    4.9234   19.0648 C   0  0  0  0  0  0  0  0  0  0  0  0
   -1.5523    4.5539   20.4919 C   0  0  0  0  0  0  0  0  0  0  0  0
   -0.4131    4.4296   21.2866 C   0  0  0  0  0  0  0  0  0  0  0  0
   -0.5635    4.0570   22.6223 C   0  0  0  0  0  0  0  0  0  0  0  0
   -1.8402    3.8184   23.1397 C   0  0  0  0  0  0  0  0  0  0  0  0
   -2.9677    3.9486   22.3262 C   0  0  0  0  0  0  0  0  0  0  0  0
   -2.8238    4.3256   20.9912 C   0  0  0  0  0  0  0  0  0  0  0  0
   -3.7132    4.5298   19.9822 N   0  0  0  0  0  0  0  0  0  0  0  0
   -3.0843    4.8874   18.8286 C   0  0  0  0  0  0  0  0  0  0  0  0
   -3.7801    5.1882   17.5260 C   0  0  0  0  0  0  0  0  0  0  0  0
   -4.6884    4.4314   20.0744 H   0  0  0  0  0  0  0  0  0  0  0  0
    1.6057    1.8129   16.3463 C   0  0  0  0  0  0  0  0  0  0  0  0
    2.9391    1.8579   16.1748 N   0  0  0  0  0  0  0  0  0  0  0  0
    3.5807    1.9461   14.8671 C   0  0  0  0  0  0  0  0  0  0  0  0
    0.8468    1.7552   15.3951 O   0  0  0  0  0  0  0  0  0  0  0  0
    3.8071    1.8441   17.2816 C   0  0  0  0  0  0  0  0  0  0  0  0
    4.2068    0.6202   17.8336 C   0  0  0  0  0  0  0  0  0  0  0  0
    5.0647    0.6091   18.9234 C   0  0  0  0  0  0  0  0  0  0  0  0
    5.5310    1.8115   19.4599 C   0  0  0  0  0  0  0  0  0  0  0  0
    5.1453    3.0306   18.9104 C   0  0  0  0  0  0  0  0  0  0  0  0
    4.2806    3.0512   17.8159 C   0  0  0  0  0  0  0  0  0  0  0  0
    0.3944    0.5202   18.0972 C   0  0  0  0  0  0  0  0  0  0  0  0
    0.3479    0.3702   19.6014 C   0  0  0  0  0  0  0  0  0  0  0  0
   -0.8207    0.6381   20.3155 C   0  0  0  0  0  0  0  0  0  0  0  0
   -0.8558    0.4905   21.6985 C   0  0  0  0  0  0  0  0  0  0  0  0
    0.2815    0.0608   22.3802 C   0  0  0  0  0  0  0  0  0  0  0  0
    1.4454   -0.2092   21.6677 C   0  0  0  0  0  0  0  0  0  0  0  0
    1.4856   -0.0537   20.2843 C   0  0  0  0  0  0  0  0  0  0  0  0
  2  3  2  0  0  0
  3  4  1  0  0  0
  3  6  1  0  0  0
  4  1  1  0  0  0
  1 18  1  0  0  0
  1 28  1  0  0  0
 18 19  1  0  0  0
 18 21  2  0  0  0
 19 22  1  0  0  0
 19 20  1  0  0  0
 22 23  1  0  0  0
 22 27  2  0  0  0
 23 24  2  0  0  0
 24 25  1  0  0  0
 25 26  2  0  0  0
 26 27  1  0  0  0
 28 29  1  0  0  0
 29 30  1  0  0  0
 29 34  2  0  0  0
 30 31  2  0  0  0
 31 32  1  0  0  0
 32 33  2  0  0  0
 33 34  1  0  0  0
  6  7  1  0  0  0
  7  8  1  0  0  0
  7 15  2  0  0  0
  8  9  1  0  0  0
  8 13  2  0  0  0
  9 10  2  0  0  0
 10 11  1  0  0  0
 11 12  2  0  0  0
 12 13  1  0  0  0
 13 14  1  0  0  0
 14 15  1  0  0  0
 15 16  1  0  0  0
  4  5  1  0  0  0
 14 17  1  0  0  0
M  END
> <minimizedAffinity>
-8.19729

$$$$
2XDE_1B0_A_1148


 34 37  0  0  0  0  0  0  0  0999 V2000
    1.0015    2.1038   18.0032 C   0  0  0  0  0  0  0  0  0  0  0  0
    0.6286    3.6934   20.2773 O   0  0  0  0  0  0  0  0  0  0  0  0
   -0.1818    3.7593   19.3662 C   0  0  0  0  0  0  0  0  0  0  0  0
   -0.1369    2.9697   18.2904 N   0  0  0  0  0  0  0  0  0  0  0  0
   -0.8999    2.9720   17.6683 H   0  0  0  0  0  0  0  0  0  0  0  0
   -1.3080    4.7632   19.4327 C   0  0  0  0  0  0  0  0  0  0  0  0
   -1.9455    4.6215   20.7969 C   0  0  0  0  0  0  0  0  0  0  0  0
   -1.8452    5.5796   21.9237 C   0  0  0  0  0  0  0  0  0  0  0  0
   -1.1734    6.7966   22.0355 C   0  0  0  0  0  0  0  0  0  0  0  0
   -1.2511    7.4986   23.2384 C   0  0  0  0  0  0  0  0  0  0  0  0
   -1.9949    6.9787   24.3018 C   0  0  0  0  0  0  0  0  0  0  0  0
   -2.6600    5.7580   24.1685 C   0  0  0  0  0  0  0  0  0  0  0  0
   -2.5898    5.0540   22.9666 C   0  0  0  0  0  0  0  0  0  0  0  0
   -3.1188    3.8720   22.5497 N   0  0  0  0  0  0  0  0  0  0  0  0
   -2.7574    3.5891   21.2678 C   0  0  0  0  0  0  0  0  0  0  0  0
   -3.1770    2.3579   20.5065 C   0  0  0  0  0  0  0  0  0  0  0  0
   -3.6908    3.2942   23.1048 H   0  0  0  0  0  0  0  0  0  0  0  0
    1.5274    2.3543   16.6118 C   0  0  0  0  0  0  0  0  0  0  0  0
    2.8551    2.3459   16.3959 N   0  0  0  0  0  0  0  0  0  0  0  0
    3.4663    2.7044   15.1202 C   0  0  0  0  0  0  0  0  0  0  0  0
    0.7411    2.5834   15.7100 O   0  0  0  0  0  0  0  0  0  0  0  0
    3.7488    2.0020   17.4263 C   0  0  0  0  0  0  0  0  0  0  0  0
    4.1296    2.9695   18.3650 C   0  0  0  0  0  0  0  0  0  0  0  0
    5.0089    2.6274   19.3816 C   0  0  0  0  0  0  0  0  0  0  0  0
    5.5040    1.3242   19.4703 C   0  0  0  0  0  0  0  0  0  0  0  0
    5.1223    0.3558   18.5465 C   0  0  0  0  0  0  0  0  0  0  0  0
    4.2403    0.6918   17.5192 C   0  0  0  0  0  0  0  0  0  0  0  0
    0.6289    0.6280   18.1663 C   0  0  0  0  0  0  0  0  0  0  0  0
    0.6657    0.2622   19.6333 C   0  0  0  0  0  0  0  0  0  0  0  0
    1.8747    0.0021   20.2799 C   0  0  0  0  0  0  0  0  0  0  0  0
    1.8991   -0.3269   21.6315 C   0  0  0  0  0  0  0  0  0  0  0  0
    0.7081   -0.3879   22.3531 C   0  0  0  0  0  0  0  0  0  0  0  0
   -0.4967   -0.1256   21.7089 C   0  0  0  0  0  0  0  0  0  0  0  0
   -0.5245    0.1953   20.3540 C   0  0  0  0  0  0  0  0  0  0  0  0
  2  3  2  0  0  0
  3  4  1  0  0  0
  3  6  1  0  0  0
  4  1  1  0  0  0
  1 18  1  0  0  0
  1 28  1  0  0  0
 18 19  1  0  0  0
 18 21  2  0  0  0
 19 22  1  0  0  0
 19 20  1  0  0  0
 22 23  1  0  0  0
 22 27  2  0  0  0
 23 24  2  0  0  0
 24 25  1  0  0  0
 25 26  2  0  0  0
 26 27  1  0  0  0
 28 29  1  0  0  0
 29 30  1  0  0  0
 29 34  2  0  0  0
 30 31  2  0  0  0
 31 32  1  0  0  0
 32 33  2  0  0  0
 33 34  1  0  0  0
  6  7  1  0  0  0
  7  8  1  0  0  0
  7 15  2  0  0  0
  8  9  1  0  0  0
  8 13  2  0  0  0
  9 10  2  0  0  0
 10 11  1  0  0  0
 11 12  2  0  0  0
 12 13  1  0  0  0
 13 14  1  0  0  0
 14 15  1  0  0  0
 15 16  1  0  0  0
  4  5  1  0  0  0
 14 17  1  0  0  0
M  END
> <minimizedAffinity>
-7.52728

$$$$
2XDE_1B0_A_1148


 34 37  0  0  0  0  0  0  0  0999 V2000
   -2.5510    5.0023   20.0726 C   0  0  0  0  0  0  0  0  0  0  0  0
    0.2435    4.9152   20.2176 O   0  0  0  0  0  0  0  0  0  0  0  0
   -0.3244    4.3163   19.3175 C   0  0  0  0  0  0  0  0  0  0  0  0
   -1.6424    4.3821   19.1145 N   0  0  0  0  0  0  0  0  0  0  0  0
   -2.0147    3.9981   18.2880 H   0  0  0  0  0  0  0  0  0  0  0  0
    0.4738    3.4600   18.3635 C   0  0  0  0  0  0  0  0  0  0  0  0
    1.2375    2.4594   19.2020 C   0  0  0  0  0  0  0  0  0  0  0  0
    0.6639    1.5045   20.1801 C   0  0  0  0  0  0  0  0  0  0  0  0
   -0.6536    1.2812   20.5792 C   0  0  0  0  0  0  0  0  0  0  0  0
   -0.9076    0.3018   21.5393 C   0  0  0  0  0  0  0  0  0  0  0  0
    0.1502   -0.4351   22.0799 C   0  0  0  0  0  0  0  0  0  0  0  0
    1.4622   -0.1953   21.6662 C   0  0  0  0  0  0  0  0  0  0  0  0
    1.7218    0.7795   20.7030 C   0  0  0  0  0  0  0  0  0  0  0  0
    2.8656    1.2249   20.1164 N   0  0  0  0  0  0  0  0  0  0  0  0
    2.6117    2.2184   19.2206 C   0  0  0  0  0  0  0  0  0  0  0  0
    3.6588    2.9252   18.3987 C   0  0  0  0  0  0  0  0  0  0  0  0
    3.7636    0.8733   20.3146 H   0  0  0  0  0  0  0  0  0  0  0  0
   -3.7256    4.1002   20.3585 C   0  0  0  0  0  0  0  0  0  0  0  0
   -4.0348    3.8020   21.6332 N   0  0  0  0  0  0  0  0  0  0  0  0
   -5.0655    2.8394   22.0083 C   0  0  0  0  0  0  0  0  0  0  0  0
   -4.3614    3.6372   19.4281 O   0  0  0  0  0  0  0  0  0  0  0  0
   -3.3443    4.4048   22.7002 C   0  0  0  0  0  0  0  0  0  0  0  0
   -4.0345    5.2389   23.5892 C   0  0  0  0  0  0  0  0  0  0  0  0
   -3.3521    5.8301   24.6420 C   0  0  0  0  0  0  0  0  0  0  0  0
   -1.9875    5.5877   24.8163 C   0  0  0  0  0  0  0  0  0  0  0  0
   -1.2979    4.7526   23.9422 C   0  0  0  0  0  0  0  0  0  0  0  0
   -1.9758    4.1559   22.8790 C   0  0  0  0  0  0  0  0  0  0  0  0
   -3.0429    6.3615   19.5685 C   0  0  0  0  0  0  0  0  0  0  0  0
   -3.0520    7.3469   20.7158 C   0  0  0  0  0  0  0  0  0  0  0  0
   -4.2340    7.9678   21.1217 C   0  0  0  0  0  0  0  0  0  0  0  0
   -4.2337    8.8677   22.1827 C   0  0  0  0  0  0  0  0  0  0  0  0
   -3.0458    9.1466   22.8566 C   0  0  0  0  0  0  0  0  0  0  0  0
   -1.8682    8.5251   22.4537 C   0  0  0  0  0  0  0  0  0  0  0  0
   -1.8644    7.6307   21.3862 C   0  0  0  0  0  0  0  0  0  0  0  0
  2  3  2  0  0  0
  3  4  1  0  0  0
  3  6  1  0  0  0
  4  1  1  0  0  0
  1 18  1  0  0  0
  1 28  1  0  0  0
 18 19  1  0  0  0
 18 21  2  0  0  0
 19 22  1  0  0  0
 19 20  1  0  0  0
 22 23  1  0  0  0
 22 27  2  0  0  0
 23 24  2  0  0  0
 24 25  1  0  0  0
 25 26  2  0  0  0
 26 27  1  0  0  0
 28 29  1  0  0  0
 29 30  1  0  0  0
 29 34  2  0  0  0
 30 31  2  0  0  0
 31 32  1  0  0  0
 32 33  2  0  0  0
 33 34  1  0  0  0
  6  7  1  0  0  0
  7  8  1  0  0  0
  7 15  2  0  0  0
  8  9  1  0  0  0
  8 13  2  0  0  0
  9 10  2  0  0  0
 10 11  1  0  0  0
 11 12  2  0  0  0
 12 13  1  0  0  0
 13 14  1  0  0  0
 14 15  1  0  0  0
 15 16  1  0  0  0
  4  5  1  0  0  0
 14 17  1  0  0  0
M  END
> <minimizedAffinity>
-7.32726

$$$$
2XDE_1B0_A_1148


 34 37  0  0  0  0  0  0  0  0999 V2000
   -0.6426    3.8897   20.4738 C   0  0  0  0  0  0  0  0  0  0  0  0
   -0.7562    4.5536   17.7565 O   0  0  0  0  0  0  0  0  0  0  0  0
    0.3327    4.4658   18.3024 C   0  0  0  0  0  0  0  0  0  0  0  0
    0.4859    4.0606   19.5653 N   0  0  0  0  0  0  0  0  0  0  0  0
    1.3937    3.8702   19.8955 H   0  0  0  0  0  0  0  0  0  0  0  0
    1.5875    4.8137   17.5374 C   0  0  0  0  0  0  0  0  0  0  0  0
    2.1733    3.5128   17.0354 C   0  0  0  0  0  0  0  0  0  0  0  0
    3.1629    2.6599   17.7360 C   0  0  0  0  0  0  0  0  0  0  0  0
    3.7940    2.8123   18.9703 C   0  0  0  0  0  0  0  0  0  0  0  0
    4.7010    1.8373   19.3857 C   0  0  0  0  0  0  0  0  0  0  0  0
    4.9597    0.7328   18.5686 C   0  0  0  0  0  0  0  0  0  0  0  0
    4.3167    0.5998   17.3362 C   0  0  0  0  0  0  0  0  0  0  0  0
    3.4052    1.5690   16.9177 C   0  0  0  0  0  0  0  0  0  0  0  0
    2.6436    1.7070   15.7990 N   0  0  0  0  0  0  0  0  0  0  0  0
    1.9007    2.8474   15.8397 C   0  0  0  0  0  0  0  0  0  0  0  0
    0.9498    3.2948   14.7593 C   0  0  0  0  0  0  0  0  0  0  0  0
    2.6311    1.0635   15.0540 H   0  0  0  0  0  0  0  0  0  0  0  0
   -0.9284    5.1692   21.2197 C   0  0  0  0  0  0  0  0  0  0  0  0
   -2.2039    5.5275   21.4524 N   0  0  0  0  0  0  0  0  0  0  0  0
   -2.5866    6.8041   22.0469 C   0  0  0  0  0  0  0  0  0  0  0  0
    0.0013    5.8697   21.5791 O   0  0  0  0  0  0  0  0  0  0  0  0
   -3.2656    4.6731   21.1038 C   0  0  0  0  0  0  0  0  0  0  0  0
   -3.7993    3.8037   22.0638 C   0  0  0  0  0  0  0  0  0  0  0  0
   -4.8478    2.9640   21.7183 C   0  0  0  0  0  0  0  0  0  0  0  0
   -5.3705    2.9925   20.4233 C   0  0  0  0  0  0  0  0  0  0  0  0
   -4.8510    3.8606   19.4675 C   0  0  0  0  0  0  0  0  0  0  0  0
   -3.7947    4.7068   19.8055 C   0  0  0  0  0  0  0  0  0  0  0  0
   -0.3880    2.7501   21.4638 C   0  0  0  0  0  0  0  0  0  0  0  0
    0.2475    1.5872   20.7350 C   0  0  0  0  0  0  0  0  0  0  0  0
   -0.2634    1.1353   19.5175 C   0  0  0  0  0  0  0  0  0  0  0  0
    0.3323    0.0691   18.8510 C   0  0  0  0  0  0  0  0  0  0  0  0
    1.4565   -0.5495   19.3953 C   0  0  0  0  0  0  0  0  0  0  0  0
    1.9673   -0.0967   20.6075 C   0  0  0  0  0  0  0  0  0  0  0  0
    1.3676    0.9646   21.2810 C   0  0  0  0  0  0  0  0  0  0  0  0
  2  3  2  0  0  0
  3  4  1  0  0  0
  3  6  1  0  0  0
  4  1  1  0  0  0
  1 18  1  0  0  0
  1 28  1  0  0  0
 18 19  1  0  0  0
 18 21  2  0  0  0
 19 22  1  0  0  0
 19 20  1  0  0  0
 22 23  1  0  0  0
 22 27  2  0  0  0
 23 24  2  0  0  0
 24 25  1  0  0  0
 25 26  2  0  0  0
 26 27  1  0  0  0
 28 29  1  0  0  0
 29 30  1  0  0  0
 29 34  2  0  0  0
 30 31  2  0  0  0
 31 32  1  0  0  0
 32 33  2  0  0  0
 33 34  1  0  0  0
  6  7  1  0  0  0
  7  8  1  0  0  0
  7 15  2  0  0  0
  8  9  1  0  0  0
  8 13  2  0  0  0
  9 10  2  0  0  0
 10 11  1  0  0  0
 11 12  2  0  0  0
 12 13  1  0  0  0
 13 14  1  0  0  0
 14 15  1  0  0  0
 15 16  1  0  0  0
  4  5  1  0  0  0
 14 17  1  0  0  0
M  END
> <minimizedAffinity>
-7.00955

$$$$
2XDE_1B0_A_1148


 34 37  0  0  0  0  0  0  0  0999 V2000
    1.0383    1.8272   17.6122 C   0  0  0  0  0  0  0  0  0  0  0  0
    1.1455    4.0199   19.3496 O   0  0  0  0  0  0  0  0  0  0  0  0
    0.2395    3.9512   18.5336 C   0  0  0  0  0  0  0  0  0  0  0  0
    0.0549    2.8978   17.7343 N   0  0  0  0  0  0  0  0  0  0  0  0
   -0.7753    2.8415   17.2081 H   0  0  0  0  0  0  0  0  0  0  0  0
   -0.7438    5.0901   18.4042 C   0  0  0  0  0  0  0  0  0  0  0  0
   -0.5072    5.7260   17.0525 C   0  0  0  0  0  0  0  0  0  0  0  0
    0.6488    6.5676   16.6612 C   0  0  0  0  0  0  0  0  0  0  0  0
    1.7648    6.9863   17.3850 C   0  0  0  0  0  0  0  0  0  0  0  0
    2.7119    7.7918   16.7527 C   0  0  0  0  0  0  0  0  0  0  0  0
    2.5316    8.1617   15.4167 C   0  0  0  0  0  0  0  0  0  0  0  0
    1.4065    7.7313   14.7102 C   0  0  0  0  0  0  0  0  0  0  0  0
    0.4586    6.9218   15.3358 C   0  0  0  0  0  0  0  0  0  0  0  0
   -0.7072    6.3608   14.9152 N   0  0  0  0  0  0  0  0  0  0  0  0
   -1.3019    5.6440   15.9086 C   0  0  0  0  0  0  0  0  0  0  0  0
   -2.6031    4.8962   15.7704 C   0  0  0  0  0  0  0  0  0  0  0  0
   -1.0745    6.4604   14.0073 H   0  0  0  0  0  0  0  0  0  0  0  0
    1.6145    1.7854   16.2188 C   0  0  0  0  0  0  0  0  0  0  0  0
    2.9484    1.8374   16.0537 N   0  0  0  0  0  0  0  0  0  0  0  0
    3.5957    1.9346   14.7494 C   0  0  0  0  0  0  0  0  0  0  0  0
    0.8603    1.7286   15.2638 O   0  0  0  0  0  0  0  0  0  0  0  0
    3.8114    1.8223   17.1644 C   0  0  0  0  0  0  0  0  0  0  0  0
    4.1448    3.0257   17.7993 C   0  0  0  0  0  0  0  0  0  0  0  0
    4.9939    3.0080   18.8958 C   0  0  0  0  0  0  0  0  0  0  0  0
    5.5057    1.7963   19.3659 C   0  0  0  0  0  0  0  0  0  0  0  0
    5.1709    0.5963   18.7455 C   0  0  0  0  0  0  0  0  0  0  0  0
    4.3197    0.6050   17.6404 C   0  0  0  0  0  0  0  0  0  0  0  0
    0.4258    0.4702   17.9684 C   0  0  0  0  0  0  0  0  0  0  0  0
    0.4741    0.2779   19.4677 C   0  0  0  0  0  0  0  0  0  0  0  0
   -0.6682    0.4450   20.2518 C   0  0  0  0  0  0  0  0  0  0  0  0
   -0.6155    0.2591   21.6296 C   0  0  0  0  0  0  0  0  0  0  0  0
    0.5849   -0.1081   22.2356 C   0  0  0  0  0  0  0  0  0  0  0  0
    1.7227   -0.2775   21.4533 C   0  0  0  0  0  0  0  0  0  0  0  0
    1.6745   -0.0834   20.0750 C   0  0  0  0  0  0  0  0  0  0  0  0
  2  3  2  0  0  0
  3  4  1  0  0  0
  3  6  1  0  0  0
  4  1  1  0  0  0
  1 18  1  0  0  0
  1 28  1  0  0  0
 18 19  1  0  0  0
 18 21  2  0  0  0
 19 22  1  0  0  0
 19 20  1  0  0  0
 22 23  1  0  0  0
 22 27  2  0  0  0
 23 24  2  0  0  0
 24 25  1  0  0  0
 25 26  2  0  0  0
 26 27  1  0  0  0
 28 29  1  0  0  0
 29 30  1  0  0  0
 29 34  2  0  0  0
 30 31  2  0  0  0
 31 32  1  0  0  0
 32 33  2  0  0  0
 33 34  1  0  0  0
  6  7  1  0  0  0
  7  8  1  0  0  0
  7 15  2  0  0  0
  8  9  1  0  0  0
  8 13  2  0  0  0
  9 10  2  0  0  0
 10 11  1  0  0  0
 11 12  2  0  0  0
 12 13  1  0  0  0
 13 14  1  0  0  0
 14 15  1  0  0  0
 15 16  1  0  0  0
  4  5  1  0  0  0
 14 17  1  0  0  0
M  END
> <minimizedAffinity>
-6.94116

$$$$
2XDE_1B0_A_1148


 34 37  0  0  0  0  0  0  0  0999 V2000
    1.6773    3.1932   16.5259 C   0  0  0  0  0  0  0  0  0  0  0  0
    1.2474    4.9110   18.6943 O   0  0  0  0  0  0  0  0  0  0  0  0
    0.4032    4.0709   18.4244 C   0  0  0  0  0  0  0  0  0  0  0  0
    0.5679    3.1496   17.4721 N   0  0  0  0  0  0  0  0  0  0  0  0
   -0.0831    2.4141   17.4062 H   0  0  0  0  0  0  0  0  0  0  0  0
   -0.8965    4.0372   19.1928 C   0  0  0  0  0  0  0  0  0  0  0  0
   -0.6229    3.3108   20.4910 C   0  0  0  0  0  0  0  0  0  0  0  0
   -0.0734    1.9420   20.6396 C   0  0  0  0  0  0  0  0  0  0  0  0
    0.3132    1.0006   19.6862 C   0  0  0  0  0  0  0  0  0  0  0  0
    0.8016   -0.2321   20.1191 C   0  0  0  0  0  0  0  0  0  0  0  0
    0.8974   -0.5021   21.4875 C   0  0  0  0  0  0  0  0  0  0  0  0
    0.5046    0.4549   22.4255 C   0  0  0  0  0  0  0  0  0  0  0  0
    0.0200    1.6911   21.9985 C   0  0  0  0  0  0  0  0  0  0  0  0
   -0.4256    2.7933   22.6598 N   0  0  0  0  0  0  0  0  0  0  0  0
   -0.8114    3.7712   21.7945 C   0  0  0  0  0  0  0  0  0  0  0  0
   -1.3503    5.1184   22.2022 C   0  0  0  0  0  0  0  0  0  0  0  0
   -0.4643    2.8736   23.6403 H   0  0  0  0  0  0  0  0  0  0  0  0
    1.1873    3.5369   15.1413 C   0  0  0  0  0  0  0  0  0  0  0  0
    1.7921    4.5208   14.4517 N   0  0  0  0  0  0  0  0  0  0  0  0
    1.3131    5.0150   13.1649 C   0  0  0  0  0  0  0  0  0  0  0  0
    0.2357    2.9327   14.6791 O   0  0  0  0  0  0  0  0  0  0  0  0
    2.9384    5.1567   14.9621 C   0  0  0  0  0  0  0  0  0  0  0  0
    2.7975    6.2314   15.8495 C   0  0  0  0  0  0  0  0  0  0  0  0
    3.9292    6.8551   16.3533 C   0  0  0  0  0  0  0  0  0  0  0  0
    5.1994    6.4077   15.9823 C   0  0  0  0  0  0  0  0  0  0  0  0
    5.3463    5.3345   15.1084 C   0  0  0  0  0  0  0  0  0  0  0  0
    4.2135    4.7029   14.5948 C   0  0  0  0  0  0  0  0  0  0  0  0
    2.4348    1.8631   16.5000 C   0  0  0  0  0  0  0  0  0  0  0  0
    3.5136    1.8814   17.5597 C   0  0  0  0  0  0  0  0  0  0  0  0
    4.1732    3.0647   17.8948 C   0  0  0  0  0  0  0  0  0  0  0  0
    5.1595    3.0728   18.8760 C   0  0  0  0  0  0  0  0  0  0  0  0
    5.4877    1.8925   19.5409 C   0  0  0  0  0  0  0  0  0  0  0  0
    4.8278    0.7137   19.2087 C   0  0  0  0  0  0  0  0  0  0  0  0
    3.8464    0.7012   18.2207 C   0  0  0  0  0  0  0  0  0  0  0  0
  2  3  2  0  0  0
  3  4  1  0  0  0
  3  6  1  0  0  0
  4  1  1  0  0  0
  1 18  1  0  0  0
  1 28  1  0  0  0
 18 19  1  0  0  0
 18 21  2  0  0  0
 19 22  1  0  0  0
 19 20  1  0  0  0
 22 23  1  0  0  0
 22 27  2  0  0  0
 23 24  2  0  0  0
 24 25  1  0  0  0
 25 26  2  0  0  0
 26 27  1  0  0  0
 28 29  1  0  0  0
 29 30  1  0  0  0
 29 34  2  0  0  0
 30 31  2  0  0  0
 31 32  1  0  0  0
 32 33  2  0  0  0
 33 34  1  0  0  0
  6  7  1  0  0  0
  7  8  1  0  0  0
  7 15  2  0  0  0
  8  9  1  0  0  0
  8 13  2  0  0  0
  9 10  2  0  0  0
 10 11  1  0  0  0
 11 12  2  0  0  0
 12 13  1  0  0  0
 13 14  1  0  0  0
 14 15  1  0  0  0
 15 16  1  0  0  0
  4  5  1  0  0  0
 14 17  1  0  0  0
M  END
> <minimizedAffinity>
-6.72023

$$$$
2XDE_1B0_A_1148


 34 37  0  0  0  0  0  0  0  0999 V2000
    0.9813    2.9309   19.0312 C   0  0  0  0  0  0  0  0  0  0  0  0
    3.5337    1.8277   19.3559 O   0  0  0  0  0  0  0  0  0  0  0  0
    3.4136    2.8807   18.7492 C   0  0  0  0  0  0  0  0  0  0  0  0
    2.2512    3.5268   18.6308 N   0  0  0  0  0  0  0  0  0  0  0  0
    2.2511    4.4387   18.2597 H   0  0  0  0  0  0  0  0  0  0  0  0
    4.6198    3.5157   18.0991 C   0  0  0  0  0  0  0  0  0  0  0  0
    4.1305    4.2186   16.8525 C   0  0  0  0  0  0  0  0  0  0  0  0
    3.6786    3.5765   15.5950 C   0  0  0  0  0  0  0  0  0  0  0  0
    3.5906    2.2330   15.2316 C   0  0  0  0  0  0  0  0  0  0  0  0
    3.1243    1.9113   13.9570 C   0  0  0  0  0  0  0  0  0  0  0  0
    2.7542    2.9290   13.0729 C   0  0  0  0  0  0  0  0  0  0  0  0
    2.8503    4.2681   13.4571 C   0  0  0  0  0  0  0  0  0  0  0  0
    3.3112    4.5957   14.7321 C   0  0  0  0  0  0  0  0  0  0  0  0
    3.5071    5.7791   15.3737 N   0  0  0  0  0  0  0  0  0  0  0  0
    3.9896    5.5892   16.6328 C   0  0  0  0  0  0  0  0  0  0  0  0
    4.3111    6.6929   17.6074 C   0  0  0  0  0  0  0  0  0  0  0  0
    3.3232    6.6615   14.9778 H   0  0  0  0  0  0  0  0  0  0  0  0
    0.5936    1.8152   18.0931 C   0  0  0  0  0  0  0  0  0  0  0  0
    0.2587    0.6141   18.5977 N   0  0  0  0  0  0  0  0  0  0  0  0
   -0.0035   -0.5614   17.7736 C   0  0  0  0  0  0  0  0  0  0  0  0
    0.6127    2.0137   16.8913 O   0  0  0  0  0  0  0  0  0  0  0  0
    0.1631    0.4196   19.9876 C   0  0  0  0  0  0  0  0  0  0  0  0
   -1.0708    0.5913   20.6281 C   0  0  0  0  0  0  0  0  0  0  0  0
   -1.1632    0.3965   21.9982 C   0  0  0  0  0  0  0  0  0  0  0  0
   -0.0332    0.0247   22.7305 C   0  0  0  0  0  0  0  0  0  0  0  0
    1.1936   -0.1566   22.0988 C   0  0  0  0  0  0  0  0  0  0  0  0
    1.2961    0.0397   20.7215 C   0  0  0  0  0  0  0  0  0  0  0  0
   -0.1303    3.9821   19.0852 C   0  0  0  0  0  0  0  0  0  0  0  0
   -0.7338    4.0010   20.4718 C   0  0  0  0  0  0  0  0  0  0  0  0
   -2.1072    4.1651   20.6567 C   0  0  0  0  0  0  0  0  0  0  0  0
   -2.6540    4.1742   21.9360 C   0  0  0  0  0  0  0  0  0  0  0  0
   -1.8275    4.0073   23.0458 C   0  0  0  0  0  0  0  0  0  0  0  0
   -0.4588    3.8407   22.8610 C   0  0  0  0  0  0  0  0  0  0  0  0
    0.0921    3.8401   21.5819 C   0  0  0  0  0  0  0  0  0  0  0  0
  2  3  2  0  0  0
  3  4  1  0  0  0
  3  6  1  0  0  0
  4  1  1  0  0  0
  1 18  1  0  0  0
  1 28  1  0  0  0
 18 19  1  0  0  0
 18 21  2  0  0  0
 19 22  1  0  0  0
 19 20  1  0  0  0
 22 23  1  0  0  0
 22 27  2  0  0  0
 23 24  2  0  0  0
 24 25  1  0  0  0
 25 26  2  0  0  0
 26 27  1  0  0  0
 28 29  1  0  0  0
 29 30  1  0  0  0
 29 34  2  0  0  0
 30 31  2  0  0  0
 31 32  1  0  0  0
 32 33  2  0  0  0
 33 34  1  0  0  0
  6  7  1  0  0  0
  7  8  1  0  0  0
  7 15  2  0  0  0
  8  9  1  0  0  0
  8 13  2  0  0  0
  9 10  2  0  0  0
 10 11  1  0  0  0
 11 12  2  0  0  0
 12 13  1  0  0  0
 13 14  1  0  0  0
 14 15  1  0  0  0
 15 16  1  0  0  0
  4  5  1  0  0  0
 14 17  1  0  0  0
M  END
> <minimizedAffinity>
-6.23587

$$$$
2XDE_1B0_A_1148


 34 37  0  0  0  0  0  0  0  0999 V2000
    2.4994    4.1219   17.1576 C   0  0  0  0  0  0  0  0  0  0  0  0
   -0.1616    3.4356   17.6916 O   0  0  0  0  0  0  0  0  0  0  0  0
    0.4465    4.1277   18.4931 C   0  0  0  0  0  0  0  0  0  0  0  0
    1.6826    4.5828   18.2749 N   0  0  0  0  0  0  0  0  0  0  0  0
    2.0565    5.2538   18.8906 H   0  0  0  0  0  0  0  0  0  0  0  0
   -0.2058    4.5154   19.7988 C   0  0  0  0  0  0  0  0  0  0  0  0
   -0.7090    3.2397   20.4366 C   0  0  0  0  0  0  0  0  0  0  0  0
    0.0894    2.0280   20.7400 C   0  0  0  0  0  0  0  0  0  0  0  0
    1.4380    1.7421   20.5297 C   0  0  0  0  0  0  0  0  0  0  0  0
    1.9288    0.4956   20.9181 C   0  0  0  0  0  0  0  0  0  0  0  0
    1.0715   -0.4379   21.5080 C   0  0  0  0  0  0  0  0  0  0  0  0
   -0.2759   -0.1311   21.7094 C   0  0  0  0  0  0  0  0  0  0  0  0
   -0.7712    1.1155   21.3274 C   0  0  0  0  0  0  0  0  0  0  0  0
   -2.0041    1.6863   21.3960 N   0  0  0  0  0  0  0  0  0  0  0  0
   -1.9994    2.9457   20.8785 C   0  0  0  0  0  0  0  0  0  0  0  0
   -3.2019    3.8513   20.8056 C   0  0  0  0  0  0  0  0  0  0  0  0
   -2.7994    1.2446   21.7724 H   0  0  0  0  0  0  0  0  0  0  0  0
    3.3817    2.9726   17.5771 C   0  0  0  0  0  0  0  0  0  0  0  0
    3.5340    1.9212   16.7520 N   0  0  0  0  0  0  0  0  0  0  0  0
    4.2571    0.7077   17.1183 C   0  0  0  0  0  0  0  0  0  0  0  0
    3.9239    3.0051   18.6676 O   0  0  0  0  0  0  0  0  0  0  0  0
    2.9683    1.9302   15.4642 C   0  0  0  0  0  0  0  0  0  0  0  0
    3.8009    2.0307   14.3422 C   0  0  0  0  0  0  0  0  0  0  0  0
    3.2410    2.0368   13.0733 C   0  0  0  0  0  0  0  0  0  0  0  0
    1.8564    1.9361   12.9183 C   0  0  0  0  0  0  0  0  0  0  0  0
    1.0243    1.8265   14.0285 C   0  0  0  0  0  0  0  0  0  0  0  0
    1.5788    1.8222   15.3085 C   0  0  0  0  0  0  0  0  0  0  0  0
    3.3526    5.2592   16.5900 C   0  0  0  0  0  0  0  0  0  0  0  0
    3.0088    5.4622   15.1313 C   0  0  0  0  0  0  0  0  0  0  0  0
    4.0086    5.6450   14.1750 C   0  0  0  0  0  0  0  0  0  0  0  0
    3.6828    5.8240   12.8343 C   0  0  0  0  0  0  0  0  0  0  0  0
    2.3471    5.8106   12.4363 C   0  0  0  0  0  0  0  0  0  0  0  0
    1.3508    5.6253   13.3894 C   0  0  0  0  0  0  0  0  0  0  0  0
    1.6739    5.4547   14.7333 C   0  0  0  0  0  0  0  0  0  0  0  0
  2  3  2  0  0  0
  3  4  1  0  0  0
  3  6  1  0  0  0
  4  1  1  0  0  0
  1 18  1  0  0  0
  1 28  1  0  0  0
 18 19  1  0  0  0
 18 21  2  0  0  0
 19 22  1  0  0  0
 19 20  1  0  0  0
 22 23  1  0  0  0
 22 27  2  0  0  0
 23 24  2  0  0  0
 24 25  1  0  0  0
 25 26  2  0  0  0
 26 27  1  0  0  0
 28 29  1  0  0  0
 29 30  1  0  0  0
 29 34  2  0  0  0
 30 31  2  0  0  0
 31 32  1  0  0  0
 32 33  2  0  0  0
 33 34  1  0  0  0
  6  7  1  0  0  0
  7  8  1  0  0  0
  7 15  2  0  0  0
  8  9  1  0  0  0
  8 13  2  0  0  0
  9 10  2  0  0  0
 10 11  1  0  0  0
 11 12  2  0  0  0
 12 13  1  0  0  0
 13 14  1  0  0  0
 14 15  1  0  0  0
 15 16  1  0  0  0
  4  5  1  0  0  0
 14 17  1  0  0  0
M  END
> <minimizedAffinity>
-6.20617

$$$$
2XDE_1B0_A_1148


 34 37  0  0  0  0  0  0  0  0999 V2000
    1.3811    3.2771   15.3713 C   0  0  0  0  0  0  0  0  0  0  0  0
    4.0046    2.7461   16.1915 O   0  0  0  0  0  0  0  0  0  0  0  0
    3.1769    3.0804   17.0249 C   0  0  0  0  0  0  0  0  0  0  0  0
    1.8847    3.2582   16.7403 N   0  0  0  0  0  0  0  0  0  0  0  0
    1.2483    3.3811   17.4814 H   0  0  0  0  0  0  0  0  0  0  0  0
    3.5995    3.3008   18.4580 C   0  0  0  0  0  0  0  0  0  0  0  0
    3.3358    2.0092   19.1994 C   0  0  0  0  0  0  0  0  0  0  0  0
    2.1303    1.6768   19.9957 C   0  0  0  0  0  0  0  0  0  0  0  0
    0.9807    2.4166   20.2711 C   0  0  0  0  0  0  0  0  0  0  0  0
   -0.0113    1.8446   21.0676 C   0  0  0  0  0  0  0  0  0  0  0  0
    0.1587    0.5514   21.5708 C   0  0  0  0  0  0  0  0  0  0  0  0
    1.3179   -0.1720   21.2828 C   0  0  0  0  0  0  0  0  0  0  0  0
    2.3110    0.3931   20.4831 C   0  0  0  0  0  0  0  0  0  0  0  0
    3.5165   -0.0570   20.0414 N   0  0  0  0  0  0  0  0  0  0  0  0
    4.1469    0.8765   19.2764 C   0  0  0  0  0  0  0  0  0  0  0  0
    5.4969    0.6928   18.6320 C   0  0  0  0  0  0  0  0  0  0  0  0
    3.8864   -0.9455   20.2488 H   0  0  0  0  0  0  0  0  0  0  0  0
    0.2007    4.2080   15.2474 C   0  0  0  0  0  0  0  0  0  0  0  0
    0.2281    5.1912   14.3298 N   0  0  0  0  0  0  0  0  0  0  0  0
   -0.8017    6.2193   14.2195 C   0  0  0  0  0  0  0  0  0  0  0  0
   -0.7493    4.0684   15.9972 O   0  0  0  0  0  0  0  0  0  0  0  0
    1.2939    5.2935   13.4175 C   0  0  0  0  0  0  0  0  0  0  0  0
    1.0693    5.0398   12.0583 C   0  0  0  0  0  0  0  0  0  0  0  0
    2.1212    5.1438   11.1603 C   0  0  0  0  0  0  0  0  0  0  0  0
    3.3929    5.5063   11.6102 C   0  0  0  0  0  0  0  0  0  0  0  0
    3.6206    5.7689   12.9579 C   0  0  0  0  0  0  0  0  0  0  0  0
    2.5690    5.6642   13.8684 C   0  0  0  0  0  0  0  0  0  0  0  0
    0.9929    1.8715   14.9052 C   0  0  0  0  0  0  0  0  0  0  0  0
    1.3698    1.7053   13.4501 C   0  0  0  0  0  0  0  0  0  0  0  0
    2.6970    1.8169   13.0332 C   0  0  0  0  0  0  0  0  0  0  0  0
    3.0349    1.6555   11.6933 C   0  0  0  0  0  0  0  0  0  0  0  0
    2.0434    1.3688   10.7565 C   0  0  0  0  0  0  0  0  0  0  0  0
    0.7209    1.2546   11.1729 C   0  0  0  0  0  0  0  0  0  0  0  0
    0.3789    1.4245   12.5122 C   0  0  0  0  0  0  0  0  0  0  0  0
  2  3  2  0  0  0
  3  4  1  0  0  0
  3  6  1  0  0  0
  4  1  1  0  0  0
  1 18  1  0  0  0
  1 28  1  0  0  0
 18 19  1  0  0  0
 18 21  2  0  0  0
 19 22  1  0  0  0
 19 20  1  0  0  0
 22 23  1  0  0  0
 22 27  2  0  0  0
 23 24  2  0  0  0
 24 25  1  0  0  0
 25 26  2  0  0  0
 26 27  1  0  0  0
 28 29  1  0  0  0
 29 30  1  0  0  0
 29 34  2  0  0  0
 30 31  2  0  0  0
 31 32  1  0  0  0
 32 33  2  0  0  0
 33 34  1  0  0  0
  6  7  1  0  0  0
  7  8  1  0  0  0
  7 15  2  0  0  0
  8  9  1  0  0  0
  8 13  2  0  0  0
  9 10  2  0  0  0
 10 11  1  0  0  0
 11 12  2  0  0  0
 12 13  1  0  0  0
 13 14  1  0  0  0
 14 15  1  0  0  0
 15 16  1  0  0  0
  4  5  1  0  0  0
 14 17  1  0  0  0
M  END
> <minimizedAffinity>
-6.13785

$$$$
