1NZ7_901_A_322


 53 54  0  0  0  0  0  0  0  0999 V2000
   30.9248   31.5973   17.7694 C   0  0  0  0  0  0  0  0  0  0  0  0
   30.9365   32.5901   16.7133 N   0  0  0  0  0  0  0  0  0  0  0  0
   30.9538   33.1664   15.5048 C   0  0  0  0  0  0  0  0  0  0  0  0
   30.7282   34.4613   15.6419 O   0  0  0  0  0  0  0  0  0  0  0  0
   30.9160   32.5004   14.1987 C   0  0  0  0  0  0  0  0  0  0  0  0
   30.9210   33.4027   17.2687 H   0  0  0  0  0  0  0  0  0  0  0  0
   29.8060   30.5522   17.8103 C   0  0  0  0  0  0  0  0  0  0  0  0
   30.1830   29.6202   17.0638 O   0  0  0  0  0  0  0  0  0  0  0  0
   28.6853   30.7437   18.4044 N   0  0  0  0  0  0  0  0  0  0  0  0
   28.5633   31.5534   18.9509 H   0  0  0  0  0  0  0  0  0  0  0  0
   27.6127   29.8124   18.2923 C   0  0  0  0  0  0  0  0  0  0  0  0
   26.7805   29.8387   19.5789 C   0  0  0  0  0  0  0  0  0  0  0  0
   26.4930   31.2745   20.1031 C   0  0  0  0  0  0  0  0  0  0  0  0
   25.1972   31.4021   20.9377 C   0  0  0  0  0  0  0  0  0  0  0  0
   25.2350   30.5763   22.2463 C   0  0  0  0  0  0  0  0  0  0  0  0
   26.0149   30.5217   23.1954 O   0  0  0  0  0  0  0  0  0  0  0  0
   24.1070   29.8266   22.1081 N   0  0  0  0  0  0  0  0  0  0  0  0
   23.5174   29.9933   21.3375 H   0  0  0  0  0  0  0  0  0  0  0  0
   23.7378   28.7747   23.0712 C   0  0  0  0  0  0  0  0  0  0  0  0
   24.4851   27.4615   22.7326 C   0  0  0  0  0  0  0  0  0  0  0  0
   24.9260   26.7608   23.6398 O   0  0  0  0  0  0  0  0  0  0  0  0
   24.6514   27.1380   21.5798 O   0  0  0  0  0  0  0  0  0  0  0  0
   24.3142   27.6742   20.8894 H   0  0  0  0  0  0  0  0  0  0  0  0
   22.2156   28.5507   23.0176 C   0  0  0  0  0  0  0  0  0  0  0  0
   21.5334   28.6050   24.3947 C   0  0  0  0  0  0  0  0  0  0  0  0
   21.1526   30.2924   24.9189 S   0  0  0  0  0  0  0  0  0  0  0  0
   21.4357   31.7757   24.4525 C   0  0  0  0  0  0  0  0  0  0  0  0
   31.4889   32.2718   19.1037 C   0  0  0  0  0  0  0  0  0  0  0  0
   33.7631   28.7064   20.8402 C   0  0  0  0  0  0  0  0  0  0  0  0
   32.3923   28.9714   21.2189 C   0  0  0  0  0  0  0  0  0  0  0  0
   31.6044   30.0589   20.7458 C   0  0  0  0  0  0  0  0  0  0  0  0
   32.1623   31.0050   19.8425 C   0  0  0  0  0  0  0  0  0  0  0  0
   33.5950   30.7196   19.4552 C   0  0  0  0  0  0  0  0  0  0  0  0
   34.4087   29.6089   19.9237 C   0  0  0  0  0  0  0  0  0  0  0  0
   34.9121   27.7043   22.7879 C   0  0  0  0  0  0  0  0  0  0  0  0
   35.3354   26.7391   23.4470 O   0  0  0  0  0  0  0  0  0  0  0  0
   34.3717   27.5707   21.4508 N   0  0  0  0  0  0  0  0  0  0  0  0
   34.3347   26.3122   20.7927 C   0  0  0  0  0  0  0  0  0  0  0  0
   33.0406   25.9057   20.2918 C   0  0  0  0  0  0  0  0  0  0  0  0
   32.8397   24.6921   19.6158 C   0  0  0  0  0  0  0  0  0  0  0  0
   33.9102   23.8063   19.4107 C   0  0  0  0  0  0  0  0  0  0  0  0
   35.1967   24.1383   19.8751 C   0  0  0  0  0  0  0  0  0  0  0  0
   35.4635   25.3684   20.5775 C   0  0  0  0  0  0  0  0  0  0  0  0
   36.9124   25.5377   20.9797 C   0  0  0  0  0  0  0  0  0  0  0  0
   37.5524   26.5653   20.7488 O   0  0  0  0  0  0  0  0  0  0  0  0
   37.5104   24.6775   21.5401 O   0  0  0  0  0  0  0  0  0  0  0  0
   37.0844   23.8690   21.7469 H   0  0  0  0  0  0  0  0  0  0  0  0
   35.9715   29.8292   23.3060 O   0  0  0  0  0  0  0  0  0  0  0  0
   35.0026   29.0905   23.5002 C   0  0  0  0  0  0  0  0  0  0  0  0
   34.1140   29.4508   24.2272 O   0  0  0  0  0  0  0  0  0  0  0  0
   36.6657   29.5527   22.7407 H   0  0  0  0  0  0  0  0  0  0  0  0
   35.8578   29.3789   19.4867 C   0  0  0  0  0  0  0  0  0  0  0  0
   36.0301   28.5544   18.1979 C   0  0  0  0  0  0  0  0  0  0  0  0
 48 49  1  0  0  0
 49 50  2  0  0  0
 49 35  1  0  0  0
 35 36  2  0  0  0
 35 37  1  0  0  0
 37 38  1  0  0  0
 37 29  1  0  0  0
 38 39  2  0  0  0
 38 43  1  0  0  0
 39 40  1  0  0  0
 40 41  2  0  0  0
 41 42  1  0  0  0
 42 43  2  0  0  0
 43 44  1  0  0  0
 44 45  2  0  0  0
 44 46  1  0  0  0
 29 30  2  0  0  0
 29 34  1  0  0  0
 30 31  1  0  0  0
 31 32  2  0  0  0
 32 33  1  0  0  0
 32 28  1  0  0  0
 33 34  2  0  0  0
 34 52  1  0  0  0
 52 53  1  0  0  0
 28  1  1  0  0  0
  1  2  1  0  0  0
  1  7  1  0  0  0
  2  3  1  0  0  0
  3  4  2  0  0  0
  3  5  1  0  0  0
  7  8  2  0  0  0
  7  9  1  0  0  0
  9 11  1  0  0  0
 11 12  1  0  0  0
 12 13  1  0  0  0
 13 14  1  0  0  0
 14 15  1  0  0  0
 15 16  2  0  0  0
 15 17  1  0  0  0
 17 19  1  0  0  0
 19 20  1  0  0  0
 19 24  1  0  0  0
 20 21  2  0  0  0
 20 22  1  0  0  0
 24 25  1  0  0  0
 25 26  1  0  0  0
 26 27  1  0  0  0
 48 51  1  0  0  0
 46 47  1  0  0  0
  2  6  1  0  0  0
  9 10  1  0  0  0
 17 18  1  0  0  0
 22 23  1  0  0  0
M  END
> <minimizedAffinity>
-8.75029

$$$$
1NZ7_901_A_322


 53 54  0  0  0  0  0  0  0  0999 V2000
   31.3420   29.8885   19.6801 C   0  0  0  0  0  0  0  0  0  0  0  0
   32.5403   30.3827   19.0314 N   0  0  0  0  0  0  0  0  0  0  0  0
   33.8144   30.7151   18.7884 C   0  0  0  0  0  0  0  0  0  0  0  0
   33.9369   31.0506   17.5161 O   0  0  0  0  0  0  0  0  0  0  0  0
   34.9774   30.4780   19.6498 C   0  0  0  0  0  0  0  0  0  0  0  0
   32.1415   30.6790   18.1814 H   0  0  0  0  0  0  0  0  0  0  0  0
   30.0279   30.6602   19.5269 C   0  0  0  0  0  0  0  0  0  0  0  0
   30.3122   31.6906   18.8745 O   0  0  0  0  0  0  0  0  0  0  0  0
   28.9365   30.3137   20.1051 N   0  0  0  0  0  0  0  0  0  0  0  0
   28.9003   29.4574   20.5896 H   0  0  0  0  0  0  0  0  0  0  0  0
   27.7754   31.1383   20.0630 C   0  0  0  0  0  0  0  0  0  0  0  0
   26.5298   30.2739   20.2867 C   0  0  0  0  0  0  0  0  0  0  0  0
   25.1972   31.0712   20.2019 C   0  0  0  0  0  0  0  0  0  0  0  0
   24.7116   31.6489   21.5519 C   0  0  0  0  0  0  0  0  0  0  0  0
   24.9334   30.6820   22.7401 C   0  0  0  0  0  0  0  0  0  0  0  0
   25.8012   30.5833   23.6057 O   0  0  0  0  0  0  0  0  0  0  0  0
   23.8560   29.8607   22.6058 N   0  0  0  0  0  0  0  0  0  0  0  0
   23.1857   30.0657   21.9144 H   0  0  0  0  0  0  0  0  0  0  0  0
   23.6579   28.6759   23.4588 C   0  0  0  0  0  0  0  0  0  0  0  0
   24.4455   27.4729   22.8843 C   0  0  0  0  0  0  0  0  0  0  0  0
   24.5743   27.3545   21.6687 O   0  0  0  0  0  0  0  0  0  0  0  0
   24.9140   26.6434   23.6283 O   0  0  0  0  0  0  0  0  0  0  0  0
   24.8144   26.7359   24.5554 H   0  0  0  0  0  0  0  0  0  0  0  0
   22.1556   28.3461   23.5264 C   0  0  0  0  0  0  0  0  0  0  0  0
   21.2689   29.3400   22.7581 C   0  0  0  0  0  0  0  0  0  0  0  0
   20.0097   30.1057   23.8047 S   0  0  0  0  0  0  0  0  0  0  0  0
   19.1492   29.7526   25.0825 C   0  0  0  0  0  0  0  0  0  0  0  0
   31.7593   29.2144   21.0675 C   0  0  0  0  0  0  0  0  0  0  0  0
   34.7967   25.9791   19.9692 C   0  0  0  0  0  0  0  0  0  0  0  0
   33.6472   26.2372   19.1297 C   0  0  0  0  0  0  0  0  0  0  0  0
   32.6411   27.2105   19.3902 C   0  0  0  0  0  0  0  0  0  0  0  0
   32.7072   28.0089   20.5651 C   0  0  0  0  0  0  0  0  0  0  0  0
   33.9108   27.7296   21.4355 C   0  0  0  0  0  0  0  0  0  0  0  0
   34.9499   26.7452   21.1778 C   0  0  0  0  0  0  0  0  0  0  0  0
   36.8928   25.3069   18.8412 C   0  0  0  0  0  0  0  0  0  0  0  0
   37.7751   24.4828   18.5450 O   0  0  0  0  0  0  0  0  0  0  0  0
   35.6716   24.9426   19.5294 N   0  0  0  0  0  0  0  0  0  0  0  0
   35.3925   23.5923   19.8714 C   0  0  0  0  0  0  0  0  0  0  0  0
   34.3761   22.9421   19.0744 C   0  0  0  0  0  0  0  0  0  0  0  0
   33.9894   21.6093   19.2848 C   0  0  0  0  0  0  0  0  0  0  0  0
   34.5803   20.8502   20.3082 C   0  0  0  0  0  0  0  0  0  0  0  0
   35.5747   21.4222   21.1237 C   0  0  0  0  0  0  0  0  0  0  0  0
   36.0112   22.7858   20.9568 C   0  0  0  0  0  0  0  0  0  0  0  0
   37.0962   23.2006   21.9264 C   0  0  0  0  0  0  0  0  0  0  0  0
   36.9145   23.2610   23.1439 O   0  0  0  0  0  0  0  0  0  0  0  0
   38.1862   23.4951   21.5565 O   0  0  0  0  0  0  0  0  0  0  0  0
   38.3933   23.4712   20.6430 H   0  0  0  0  0  0  0  0  0  0  0  0
   36.6518   27.2582   17.4128 O   0  0  0  0  0  0  0  0  0  0  0  0
   37.1860   26.7804   18.4171 C   0  0  0  0  0  0  0  0  0  0  0  0
   37.9209   27.4618   19.0831 O   0  0  0  0  0  0  0  0  0  0  0  0
   36.0788   26.7313   16.8913 H   0  0  0  0  0  0  0  0  0  0  0  0
   36.1464   26.5162   22.1051 C   0  0  0  0  0  0  0  0  0  0  0  0
   36.6310   27.7623   22.8686 C   0  0  0  0  0  0  0  0  0  0  0  0
 48 49  1  0  0  0
 49 50  2  0  0  0
 49 35  1  0  0  0
 35 36  2  0  0  0
 35 37  1  0  0  0
 37 38  1  0  0  0
 37 29  1  0  0  0
 38 39  2  0  0  0
 38 43  1  0  0  0
 39 40  1  0  0  0
 40 41  2  0  0  0
 41 42  1  0  0  0
 42 43  2  0  0  0
 43 44  1  0  0  0
 44 45  2  0  0  0
 44 46  1  0  0  0
 29 30  2  0  0  0
 29 34  1  0  0  0
 30 31  1  0  0  0
 31 32  2  0  0  0
 32 33  1  0  0  0
 32 28  1  0  0  0
 33 34  2  0  0  0
 34 52  1  0  0  0
 52 53  1  0  0  0
 28  1  1  0  0  0
  1  2  1  0  0  0
  1  7  1  0  0  0
  2  3  1  0  0  0
  3  4  2  0  0  0
  3  5  1  0  0  0
  7  8  2  0  0  0
  7  9  1  0  0  0
  9 11  1  0  0  0
 11 12  1  0  0  0
 12 13  1  0  0  0
 13 14  1  0  0  0
 14 15  1  0  0  0
 15 16  2  0  0  0
 15 17  1  0  0  0
 17 19  1  0  0  0
 19 20  1  0  0  0
 19 24  1  0  0  0
 20 21  2  0  0  0
 20 22  1  0  0  0
 24 25  1  0  0  0
 25 26  1  0  0  0
 26 27  1  0  0  0
 48 51  1  0  0  0
 46 47  1  0  0  0
  2  6  1  0  0  0
  9 10  1  0  0  0
 17 18  1  0  0  0
 22 23  1  0  0  0
M  END
> <minimizedAffinity>
-8.59542

$$$$
1NZ7_901_A_322


 53 54  0  0  0  0  0  0  0  0999 V2000
   30.6452   31.4785   17.9117 C   0  0  0  0  0  0  0  0  0  0  0  0
   30.7312   32.1953   16.6548 N   0  0  0  0  0  0  0  0  0  0  0  0
   31.2129   32.7881   15.5550 C   0  0  0  0  0  0  0  0  0  0  0  0
   30.2073   33.0881   14.7519 O   0  0  0  0  0  0  0  0  0  0  0  0
   32.6103   32.8483   15.1140 C   0  0  0  0  0  0  0  0  0  0  0  0
   29.7718   32.3606   16.5084 H   0  0  0  0  0  0  0  0  0  0  0  0
   29.3134   30.8497   18.3322 C   0  0  0  0  0  0  0  0  0  0  0  0
   29.0967   29.9298   17.5106 O   0  0  0  0  0  0  0  0  0  0  0  0
   28.5727   31.3273   19.2643 N   0  0  0  0  0  0  0  0  0  0  0  0
   28.9110   32.0712   19.8133 H   0  0  0  0  0  0  0  0  0  0  0  0
   27.2720   30.8069   19.5241 C   0  0  0  0  0  0  0  0  0  0  0  0
   26.7558   31.3696   20.8529 C   0  0  0  0  0  0  0  0  0  0  0  0
   26.0344   30.3123   21.7364 C   0  0  0  0  0  0  0  0  0  0  0  0
   25.4032   30.8828   23.0280 C   0  0  0  0  0  0  0  0  0  0  0  0
   23.8670   31.0457   22.9314 C   0  0  0  0  0  0  0  0  0  0  0  0
   23.1230   31.6574   22.1671 O   0  0  0  0  0  0  0  0  0  0  0  0
   23.4636   30.2999   23.9965 N   0  0  0  0  0  0  0  0  0  0  0  0
   24.1388   29.7986   24.5083 H   0  0  0  0  0  0  0  0  0  0  0  0
   22.0519   30.2168   24.4099 C   0  0  0  0  0  0  0  0  0  0  0  0
   21.9580   30.1029   25.9512 C   0  0  0  0  0  0  0  0  0  0  0  0
   22.6544   29.2835   26.5445 O   0  0  0  0  0  0  0  0  0  0  0  0
   21.1879   30.8034   26.5656 O   0  0  0  0  0  0  0  0  0  0  0  0
   20.6577   31.4279   26.1108 H   0  0  0  0  0  0  0  0  0  0  0  0
   21.4007   28.9908   23.7442 C   0  0  0  0  0  0  0  0  0  0  0  0
   19.9132   29.1869   23.4074 C   0  0  0  0  0  0  0  0  0  0  0  0
   19.5654   30.8158   22.7054 S   0  0  0  0  0  0  0  0  0  0  0  0
   19.3222   32.2972   23.1997 C   0  0  0  0  0  0  0  0  0  0  0  0
   31.6022   32.1974   18.9704 C   0  0  0  0  0  0  0  0  0  0  0  0
   33.8759   28.5807   20.5980 C   0  0  0  0  0  0  0  0  0  0  0  0
   32.5955   28.9656   21.1503 C   0  0  0  0  0  0  0  0  0  0  0  0
   31.8172   30.0789   20.7231 C   0  0  0  0  0  0  0  0  0  0  0  0
   32.2951   30.9290   19.6882 C   0  0  0  0  0  0  0  0  0  0  0  0
   33.6341   30.5188   19.1199 C   0  0  0  0  0  0  0  0  0  0  0  0
   34.4356   29.3803   19.5403 C   0  0  0  0  0  0  0  0  0  0  0  0
   35.0111   27.5491   22.5383 C   0  0  0  0  0  0  0  0  0  0  0  0
   35.4406   26.5748   23.1799 O   0  0  0  0  0  0  0  0  0  0  0  0
   34.4943   27.4403   21.1897 N   0  0  0  0  0  0  0  0  0  0  0  0
   34.4895   26.1984   20.4998 C   0  0  0  0  0  0  0  0  0  0  0  0
   33.1857   25.6217   20.2585 C   0  0  0  0  0  0  0  0  0  0  0  0
   33.0123   24.4016   19.5866 C   0  0  0  0  0  0  0  0  0  0  0  0
   34.1250   23.6775   19.1281 C   0  0  0  0  0  0  0  0  0  0  0  0
   35.4239   24.1799   19.3321 C   0  0  0  0  0  0  0  0  0  0  0  0
   35.6644   25.4253   20.0169 C   0  0  0  0  0  0  0  0  0  0  0  0
   37.1293   25.7903   20.1198 C   0  0  0  0  0  0  0  0  0  0  0  0
   37.8895   25.7752   19.1500 O   0  0  0  0  0  0  0  0  0  0  0  0
   37.6233   26.1087   21.1523 O   0  0  0  0  0  0  0  0  0  0  0  0
   37.1024   26.1416   21.9305 H   0  0  0  0  0  0  0  0  0  0  0  0
   36.0016   29.6985   23.0905 O   0  0  0  0  0  0  0  0  0  0  0  0
   35.0663   28.9181   23.2865 C   0  0  0  0  0  0  0  0  0  0  0  0
   34.1827   29.2244   24.0437 O   0  0  0  0  0  0  0  0  0  0  0  0
   36.6919   29.4642   22.5017 H   0  0  0  0  0  0  0  0  0  0  0  0
   35.7870   29.0213   18.9169 C   0  0  0  0  0  0  0  0  0  0  0  0
   37.0075   29.7023   19.5626 C   0  0  0  0  0  0  0  0  0  0  0  0
 48 49  1  0  0  0
 49 50  2  0  0  0
 49 35  1  0  0  0
 35 36  2  0  0  0
 35 37  1  0  0  0
 37 38  1  0  0  0
 37 29  1  0  0  0
 38 39  2  0  0  0
 38 43  1  0  0  0
 39 40  1  0  0  0
 40 41  2  0  0  0
 41 42  1  0  0  0
 42 43  2  0  0  0
 43 44  1  0  0  0
 44 45  2  0  0  0
 44 46  1  0  0  0
 29 30  2  0  0  0
 29 34  1  0  0  0
 30 31  1  0  0  0
 31 32  2  0  0  0
 32 33  1  0  0  0
 32 28  1  0  0  0
 33 34  2  0  0  0
 34 52  1  0  0  0
 52 53  1  0  0  0
 28  1  1  0  0  0
  1  2  1  0  0  0
  1  7  1  0  0  0
  2  3  1  0  0  0
  3  4  2  0  0  0
  3  5  1  0  0  0
  7  8  2  0  0  0
  7  9  1  0  0  0
  9 11  1  0  0  0
 11 12  1  0  0  0
 12 13  1  0  0  0
 13 14  1  0  0  0
 14 15  1  0  0  0
 15 16  2  0  0  0
 15 17  1  0  0  0
 17 19  1  0  0  0
 19 20  1  0  0  0
 19 24  1  0  0  0
 20 21  2  0  0  0
 20 22  1  0  0  0
 24 25  1  0  0  0
 25 26  1  0  0  0
 26 27  1  0  0  0
 48 51  1  0  0  0
 46 47  1  0  0  0
  2  6  1  0  0  0
  9 10  1  0  0  0
 17 18  1  0  0  0
 22 23  1  0  0  0
M  END
> <minimizedAffinity>
-8.28775

$$$$
1NZ7_901_A_322


 53 54  0  0  0  0  0  0  0  0999 V2000
   32.2797   30.7950   18.0015 C   0  0  0  0  0  0  0  0  0  0  0  0
   33.0746   31.2283   16.8696 N   0  0  0  0  0  0  0  0  0  0  0  0
   34.1055   31.4421   16.0422 C   0  0  0  0  0  0  0  0  0  0  0  0
   33.6478   31.9200   14.8984 O   0  0  0  0  0  0  0  0  0  0  0  0
   35.4847   30.9675   16.1951 C   0  0  0  0  0  0  0  0  0  0  0  0
   32.3674   31.6731   16.3488 H   0  0  0  0  0  0  0  0  0  0  0  0
   30.7516   30.8052   17.8986 C   0  0  0  0  0  0  0  0  0  0  0  0
   30.4848   31.4427   16.8543 O   0  0  0  0  0  0  0  0  0  0  0  0
   29.9811   30.3497   18.8176 N   0  0  0  0  0  0  0  0  0  0  0  0
   30.3762   29.8750   19.5843 H   0  0  0  0  0  0  0  0  0  0  0  0
   28.5672   30.5144   18.7553 C   0  0  0  0  0  0  0  0  0  0  0  0
   28.0492   30.9787   20.1209 C   0  0  0  0  0  0  0  0  0  0  0  0
   26.6713   30.3669   20.5030 C   0  0  0  0  0  0  0  0  0  0  0  0
   25.7183   31.3439   21.2305 C   0  0  0  0  0  0  0  0  0  0  0  0
   25.3674   30.8907   22.6683 C   0  0  0  0  0  0  0  0  0  0  0  0
   25.9375   30.9872   23.7534 O   0  0  0  0  0  0  0  0  0  0  0  0
   24.1684   30.2809   22.4585 N   0  0  0  0  0  0  0  0  0  0  0  0
   23.7695   30.3142   21.5591 H   0  0  0  0  0  0  0  0  0  0  0  0
   23.4469   29.5730   23.5304 C   0  0  0  0  0  0  0  0  0  0  0  0
   23.0200   28.1672   23.0416 C   0  0  0  0  0  0  0  0  0  0  0  0
   23.5236   27.1679   23.5477 O   0  0  0  0  0  0  0  0  0  0  0  0
   22.2096   28.0544   22.1517 O   0  0  0  0  0  0  0  0  0  0  0  0
   21.8267   28.8183   21.7671 H   0  0  0  0  0  0  0  0  0  0  0  0
   22.2099   30.3946   23.9363 C   0  0  0  0  0  0  0  0  0  0  0  0
   21.3328   29.7091   24.9972 C   0  0  0  0  0  0  0  0  0  0  0  0
   19.5780   29.7177   24.5637 S   0  0  0  0  0  0  0  0  0  0  0  0
   18.2400   30.4157   25.0330 C   0  0  0  0  0  0  0  0  0  0  0  0
   33.0307   31.2302   19.3432 C   0  0  0  0  0  0  0  0  0  0  0  0
   35.0657   27.2948   20.4707 C   0  0  0  0  0  0  0  0  0  0  0  0
   33.6881   27.5507   20.8306 C   0  0  0  0  0  0  0  0  0  0  0  0
   32.9703   28.7451   20.5378 C   0  0  0  0  0  0  0  0  0  0  0  0
   33.6129   29.8156   19.8572 C   0  0  0  0  0  0  0  0  0  0  0  0
   35.0519   29.5383   19.4878 C   0  0  0  0  0  0  0  0  0  0  0  0
   35.7947   28.3208   19.7727 C   0  0  0  0  0  0  0  0  0  0  0  0
   36.1471   25.9136   22.2144 C   0  0  0  0  0  0  0  0  0  0  0  0
   36.5039   24.8275   22.7028 O   0  0  0  0  0  0  0  0  0  0  0  0
   35.5952   26.0361   20.8809 N   0  0  0  0  0  0  0  0  0  0  0  0
   35.4690   24.9067   20.0285 C   0  0  0  0  0  0  0  0  0  0  0  0
   34.1215   24.5801   19.6180 C   0  0  0  0  0  0  0  0  0  0  0  0
   33.8308   23.4966   18.7743 C   0  0  0  0  0  0  0  0  0  0  0  0
   34.8607   22.6670   18.3012 C   0  0  0  0  0  0  0  0  0  0  0  0
   36.1956   22.9263   18.6643 C   0  0  0  0  0  0  0  0  0  0  0  0
   36.5550   24.0222   19.5290 C   0  0  0  0  0  0  0  0  0  0  0  0
   38.0422   24.1331   19.7851 C   0  0  0  0  0  0  0  0  0  0  0  0
   38.6319   23.4257   20.6040 O   0  0  0  0  0  0  0  0  0  0  0  0
   38.7196   24.9185   19.2057 O   0  0  0  0  0  0  0  0  0  0  0  0
   38.3357   25.4883   18.5686 H   0  0  0  0  0  0  0  0  0  0  0  0
   35.4414   27.4944   23.9200 O   0  0  0  0  0  0  0  0  0  0  0  0
   36.3358   27.1562   23.1403 C   0  0  0  0  0  0  0  0  0  0  0  0
   37.3662   27.7769   23.1093 O   0  0  0  0  0  0  0  0  0  0  0  0
   34.6374   27.0140   23.9475 H   0  0  0  0  0  0  0  0  0  0  0  0
   37.2550   28.1064   19.3659 C   0  0  0  0  0  0  0  0  0  0  0  0
   37.4921   27.9076   17.8577 C   0  0  0  0  0  0  0  0  0  0  0  0
 48 49  1  0  0  0
 49 50  2  0  0  0
 49 35  1  0  0  0
 35 36  2  0  0  0
 35 37  1  0  0  0
 37 38  1  0  0  0
 37 29  1  0  0  0
 38 39  2  0  0  0
 38 43  1  0  0  0
 39 40  1  0  0  0
 40 41  2  0  0  0
 41 42  1  0  0  0
 42 43  2  0  0  0
 43 44  1  0  0  0
 44 45  2  0  0  0
 44 46  1  0  0  0
 29 30  2  0  0  0
 29 34  1  0  0  0
 30 31  1  0  0  0
 31 32  2  0  0  0
 32 33  1  0  0  0
 32 28  1  0  0  0
 33 34  2  0  0  0
 34 52  1  0  0  0
 52 53  1  0  0  0
 28  1  1  0  0  0
  1  2  1  0  0  0
  1  7  1  0  0  0
  2  3  1  0  0  0
  3  4  2  0  0  0
  3  5  1  0  0  0
  7  8  2  0  0  0
  7  9  1  0  0  0
  9 11  1  0  0  0
 11 12  1  0  0  0
 12 13  1  0  0  0
 13 14  1  0  0  0
 14 15  1  0  0  0
 15 16  2  0  0  0
 15 17  1  0  0  0
 17 19  1  0  0  0
 19 20  1  0  0  0
 19 24  1  0  0  0
 20 21  2  0  0  0
 20 22  1  0  0  0
 24 25  1  0  0  0
 25 26  1  0  0  0
 26 27  1  0  0  0
 48 51  1  0  0  0
 46 47  1  0  0  0
  2  6  1  0  0  0
  9 10  1  0  0  0
 17 18  1  0  0  0
 22 23  1  0  0  0
M  END
> <minimizedAffinity>
-8.00196

$$$$
1NZ7_901_A_322


 53 54  0  0  0  0  0  0  0  0999 V2000
   31.0388   31.2467   18.6059 C   0  0  0  0  0  0  0  0  0  0  0  0
   31.0954   32.1752   17.4943 N   0  0  0  0  0  0  0  0  0  0  0  0
   31.1617   32.6791   16.2555 C   0  0  0  0  0  0  0  0  0  0  0  0
   30.9365   33.9802   16.3072 O   0  0  0  0  0  0  0  0  0  0  0  0
   31.1715   31.9371   14.9905 C   0  0  0  0  0  0  0  0  0  0  0  0
   31.0619   33.0193   17.9999 H   0  0  0  0  0  0  0  0  0  0  0  0
   29.6805   30.7288   19.0883 C   0  0  0  0  0  0  0  0  0  0  0  0
   29.8231   30.4839   20.3080 O   0  0  0  0  0  0  0  0  0  0  0  0
   28.6964   30.4937   18.2997 N   0  0  0  0  0  0  0  0  0  0  0  0
   28.7680   30.7507   17.3521 H   0  0  0  0  0  0  0  0  0  0  0  0
   27.5021   29.8696   18.7626 C   0  0  0  0  0  0  0  0  0  0  0  0
   26.3863   30.9158   18.8582 C   0  0  0  0  0  0  0  0  0  0  0  0
   25.3515   30.6191   19.9807 C   0  0  0  0  0  0  0  0  0  0  0  0
   25.5198   31.4865   21.2501 C   0  0  0  0  0  0  0  0  0  0  0  0
   25.0971   30.7533   22.5460 C   0  0  0  0  0  0  0  0  0  0  0  0
   25.3321   30.9321   23.7396 O   0  0  0  0  0  0  0  0  0  0  0  0
   24.3374   29.7464   22.0337 N   0  0  0  0  0  0  0  0  0  0  0  0
   24.1603   29.7305   21.0654 H   0  0  0  0  0  0  0  0  0  0  0  0
   23.7711   28.6798   22.8776 C   0  0  0  0  0  0  0  0  0  0  0  0
   24.6154   27.3896   22.7370 C   0  0  0  0  0  0  0  0  0  0  0  0
   25.1162   27.1052   21.6522 O   0  0  0  0  0  0  0  0  0  0  0  0
   24.7641   26.6553   23.6856 O   0  0  0  0  0  0  0  0  0  0  0  0
   24.3811   26.8744   24.5122 H   0  0  0  0  0  0  0  0  0  0  0  0
   22.3163   28.4141   22.4494 C   0  0  0  0  0  0  0  0  0  0  0  0
   21.3489   28.2245   23.6295 C   0  0  0  0  0  0  0  0  0  0  0  0
   21.7145   29.3255   25.0156 S   0  0  0  0  0  0  0  0  0  0  0  0
   21.7444   30.8743   25.3290 C   0  0  0  0  0  0  0  0  0  0  0  0
   32.2062   31.6155   19.6328 C   0  0  0  0  0  0  0  0  0  0  0  0
   34.9558   27.9640   19.5532 C   0  0  0  0  0  0  0  0  0  0  0  0
   35.0460   28.9865   18.5340 C   0  0  0  0  0  0  0  0  0  0  0  0
   34.2297   30.1510   18.4633 C   0  0  0  0  0  0  0  0  0  0  0  0
   33.2131   30.3702   19.4333 C   0  0  0  0  0  0  0  0  0  0  0  0
   33.1264   29.2951   20.4919 C   0  0  0  0  0  0  0  0  0  0  0  0
   33.9585   28.1057   20.5812 C   0  0  0  0  0  0  0  0  0  0  0  0
   37.1346   26.9319   20.1059 C   0  0  0  0  0  0  0  0  0  0  0  0
   37.9229   25.9723   20.1591 O   0  0  0  0  0  0  0  0  0  0  0  0
   35.8596   26.8691   19.4217 N   0  0  0  0  0  0  0  0  0  0  0  0
   35.4528   25.6990   18.7261 C   0  0  0  0  0  0  0  0  0  0  0  0
   35.4123   25.8101   17.2850 C   0  0  0  0  0  0  0  0  0  0  0  0
   35.0349   24.7423   16.4557 C   0  0  0  0  0  0  0  0  0  0  0  0
   34.6627   23.5072   17.0112 C   0  0  0  0  0  0  0  0  0  0  0  0
   34.6768   23.3311   18.4075 C   0  0  0  0  0  0  0  0  0  0  0  0
   35.0528   24.3909   19.3093 C   0  0  0  0  0  0  0  0  0  0  0  0
   35.0130   23.9915   20.7683 C   0  0  0  0  0  0  0  0  0  0  0  0
   34.0338   23.4499   21.2845 O   0  0  0  0  0  0  0  0  0  0  0  0
   35.9323   24.1866   21.4952 O   0  0  0  0  0  0  0  0  0  0  0  0
   36.7096   24.5951   21.1683 H   0  0  0  0  0  0  0  0  0  0  0  0
   38.0091   29.1983   20.1783 O   0  0  0  0  0  0  0  0  0  0  0  0
   37.6121   28.2294   20.8309 C   0  0  0  0  0  0  0  0  0  0  0  0
   37.5748   28.2941   22.0319 O   0  0  0  0  0  0  0  0  0  0  0  0
   38.0398   29.1522   19.2429 H   0  0  0  0  0  0  0  0  0  0  0  0
   33.8164   27.0553   21.6860 C   0  0  0  0  0  0  0  0  0  0  0  0
   34.4539   27.4340   23.0353 C   0  0  0  0  0  0  0  0  0  0  0  0
 48 49  1  0  0  0
 49 50  2  0  0  0
 49 35  1  0  0  0
 35 36  2  0  0  0
 35 37  1  0  0  0
 37 38  1  0  0  0
 37 29  1  0  0  0
 38 39  2  0  0  0
 38 43  1  0  0  0
 39 40  1  0  0  0
 40 41  2  0  0  0
 41 42  1  0  0  0
 42 43  2  0  0  0
 43 44  1  0  0  0
 44 45  2  0  0  0
 44 46  1  0  0  0
 29 30  2  0  0  0
 29 34  1  0  0  0
 30 31  1  0  0  0
 31 32  2  0  0  0
 32 33  1  0  0  0
 32 28  1  0  0  0
 33 34  2  0  0  0
 34 52  1  0  0  0
 52 53  1  0  0  0
 28  1  1  0  0  0
  1  2  1  0  0  0
  1  7  1  0  0  0
  2  3  1  0  0  0
  3  4  2  0  0  0
  3  5  1  0  0  0
  7  8  2  0  0  0
  7  9  1  0  0  0
  9 11  1  0  0  0
 11 12  1  0  0  0
 12 13  1  0  0  0
 13 14  1  0  0  0
 14 15  1  0  0  0
 15 16  2  0  0  0
 15 17  1  0  0  0
 17 19  1  0  0  0
 19 20  1  0  0  0
 19 24  1  0  0  0
 20 21  2  0  0  0
 20 22  1  0  0  0
 24 25  1  0  0  0
 25 26  1  0  0  0
 26 27  1  0  0  0
 48 51  1  0  0  0
 46 47  1  0  0  0
  2  6  1  0  0  0
  9 10  1  0  0  0
 17 18  1  0  0  0
 22 23  1  0  0  0
M  END
> <minimizedAffinity>
-7.78769

$$$$
1NZ7_901_A_322


 53 54  0  0  0  0  0  0  0  0999 V2000
   30.8676   26.2327   17.0298 C   0  0  0  0  0  0  0  0  0  0  0  0
   29.8144   26.2774   16.0349 N   0  0  0  0  0  0  0  0  0  0  0  0
   29.0403   26.6656   15.0136 C   0  0  0  0  0  0  0  0  0  0  0  0
   28.2035   25.6884   14.7118 O   0  0  0  0  0  0  0  0  0  0  0  0
   29.2344   27.8267   14.1390 C   0  0  0  0  0  0  0  0  0  0  0  0
   29.3400   25.4499   16.2788 H   0  0  0  0  0  0  0  0  0  0  0  0
   32.0212   27.2372   16.9532 C   0  0  0  0  0  0  0  0  0  0  0  0
   31.7040   28.1789   17.7153 O   0  0  0  0  0  0  0  0  0  0  0  0
   33.0046   27.1190   16.1380 N   0  0  0  0  0  0  0  0  0  0  0  0
   33.0889   26.2969   15.6029 H   0  0  0  0  0  0  0  0  0  0  0  0
   33.9777   28.1489   15.9884 C   0  0  0  0  0  0  0  0  0  0  0  0
   35.2301   27.7853   16.7935 C   0  0  0  0  0  0  0  0  0  0  0  0
   35.1406   28.1834   18.2943 C   0  0  0  0  0  0  0  0  0  0  0  0
   35.6861   29.5949   18.6142 C   0  0  0  0  0  0  0  0  0  0  0  0
   34.8737   30.3246   19.7112 C   0  0  0  0  0  0  0  0  0  0  0  0
   35.1130   30.6483   20.8731 O   0  0  0  0  0  0  0  0  0  0  0  0
   33.7012   30.5463   19.0560 N   0  0  0  0  0  0  0  0  0  0  0  0
   33.6352   30.3022   18.1045 H   0  0  0  0  0  0  0  0  0  0  0  0
   32.5275   31.1387   19.7209 C   0  0  0  0  0  0  0  0  0  0  0  0
   31.6833   30.0280   20.3924 C   0  0  0  0  0  0  0  0  0  0  0  0
   30.5721   30.2959   20.8419 O   0  0  0  0  0  0  0  0  0  0  0  0
   32.1245   28.9070   20.4919 O   0  0  0  0  0  0  0  0  0  0  0  0
   32.9725   28.7050   20.1482 H   0  0  0  0  0  0  0  0  0  0  0  0
   31.6826   31.8938   18.6786 C   0  0  0  0  0  0  0  0  0  0  0  0
   32.1408   31.6662   17.2285 C   0  0  0  0  0  0  0  0  0  0  0  0
   31.3354   32.7840   16.0585 S   0  0  0  0  0  0  0  0  0  0  0  0
   31.4429   33.1909   14.5351 C   0  0  0  0  0  0  0  0  0  0  0  0
   31.1121   24.7076   17.4393 C   0  0  0  0  0  0  0  0  0  0  0  0
   35.0214   24.7418   19.8090 C   0  0  0  0  0  0  0  0  0  0  0  0
   33.7949   25.2439   20.3886 C   0  0  0  0  0  0  0  0  0  0  0  0
   32.5328   25.2883   19.7308 C   0  0  0  0  0  0  0  0  0  0  0  0
   32.4110   24.8354   18.3883 C   0  0  0  0  0  0  0  0  0  0  0  0
   33.6986   24.3149   17.7922 C   0  0  0  0  0  0  0  0  0  0  0  0
   34.9920   24.2558   18.4547 C   0  0  0  0  0  0  0  0  0  0  0  0
   36.6703   23.5908   21.2492 C   0  0  0  0  0  0  0  0  0  0  0  0
   37.7438   23.5311   21.8732 O   0  0  0  0  0  0  0  0  0  0  0  0
   36.1784   24.8091   20.6396 N   0  0  0  0  0  0  0  0  0  0  0  0
   36.8891   26.0332   20.7605 C   0  0  0  0  0  0  0  0  0  0  0  0
   37.8655   26.2947   19.7265 C   0  0  0  0  0  0  0  0  0  0  0  0
   38.6458   27.4612   19.7023 C   0  0  0  0  0  0  0  0  0  0  0  0
   38.5107   28.4285   20.7116 C   0  0  0  0  0  0  0  0  0  0  0  0
   37.5806   28.2361   21.7504 C   0  0  0  0  0  0  0  0  0  0  0  0
   36.7538   27.0581   21.8295 C   0  0  0  0  0  0  0  0  0  0  0  0
   35.8138   27.0526   23.0152 C   0  0  0  0  0  0  0  0  0  0  0  0
   35.4348   26.0143   23.5603 O   0  0  0  0  0  0  0  0  0  0  0  0
   35.3883   28.0596   23.4805 O   0  0  0  0  0  0  0  0  0  0  0  0
   35.6358   28.8859   23.1146 H   0  0  0  0  0  0  0  0  0  0  0  0
   34.9480   22.0259   21.9497 O   0  0  0  0  0  0  0  0  0  0  0  0
   35.8721   22.2519   21.1641 C   0  0  0  0  0  0  0  0  0  0  0  0
   36.1449   21.4435   20.3156 O   0  0  0  0  0  0  0  0  0  0  0  0
   34.7322   22.6526   22.6119 H   0  0  0  0  0  0  0  0  0  0  0  0
   36.2589   23.7123   17.7889 C   0  0  0  0  0  0  0  0  0  0  0  0
   36.0725   22.4069   16.9941 C   0  0  0  0  0  0  0  0  0  0  0  0
 48 49  1  0  0  0
 49 50  2  0  0  0
 49 35  1  0  0  0
 35 36  2  0  0  0
 35 37  1  0  0  0
 37 38  1  0  0  0
 37 29  1  0  0  0
 38 39  2  0  0  0
 38 43  1  0  0  0
 39 40  1  0  0  0
 40 41  2  0  0  0
 41 42  1  0  0  0
 42 43  2  0  0  0
 43 44  1  0  0  0
 44 45  2  0  0  0
 44 46  1  0  0  0
 29 30  2  0  0  0
 29 34  1  0  0  0
 30 31  1  0  0  0
 31 32  2  0  0  0
 32 33  1  0  0  0
 32 28  1  0  0  0
 33 34  2  0  0  0
 34 52  1  0  0  0
 52 53  1  0  0  0
 28  1  1  0  0  0
  1  2  1  0  0  0
  1  7  1  0  0  0
  2  3  1  0  0  0
  3  4  2  0  0  0
  3  5  1  0  0  0
  7  8  2  0  0  0
  7  9  1  0  0  0
  9 11  1  0  0  0
 11 12  1  0  0  0
 12 13  1  0  0  0
 13 14  1  0  0  0
 14 15  1  0  0  0
 15 16  2  0  0  0
 15 17  1  0  0  0
 17 19  1  0  0  0
 19 20  1  0  0  0
 19 24  1  0  0  0
 20 21  2  0  0  0
 20 22  1  0  0  0
 24 25  1  0  0  0
 25 26  1  0  0  0
 26 27  1  0  0  0
 48 51  1  0  0  0
 46 47  1  0  0  0
  2  6  1  0  0  0
  9 10  1  0  0  0
 17 18  1  0  0  0
 22 23  1  0  0  0
M  END
> <minimizedAffinity>
-7.74059

$$$$
1NZ7_901_A_322


 53 54  0  0  0  0  0  0  0  0999 V2000
   30.7681   31.4249   17.7182 C   0  0  0  0  0  0  0  0  0  0  0  0
   30.7661   32.3608   16.6114 N   0  0  0  0  0  0  0  0  0  0  0  0
   30.8211   32.8760   15.3766 C   0  0  0  0  0  0  0  0  0  0  0  0
   30.4633   34.1472   15.4241 O   0  0  0  0  0  0  0  0  0  0  0  0
   30.9475   32.1461   14.1109 C   0  0  0  0  0  0  0  0  0  0  0  0
   30.6306   33.1942   17.1176 H   0  0  0  0  0  0  0  0  0  0  0  0
   29.5749   30.4847   17.9136 C   0  0  0  0  0  0  0  0  0  0  0  0
   29.6845   29.6067   17.0274 O   0  0  0  0  0  0  0  0  0  0  0  0
   28.6299   30.7112   18.7510 N   0  0  0  0  0  0  0  0  0  0  0  0
   28.7134   31.4666   19.3769 H   0  0  0  0  0  0  0  0  0  0  0  0
   27.4624   29.8958   18.7970 C   0  0  0  0  0  0  0  0  0  0  0  0
   26.2174   30.7870   18.7310 C   0  0  0  0  0  0  0  0  0  0  0  0
   25.4838   30.9308   20.0948 C   0  0  0  0  0  0  0  0  0  0  0  0
   26.3719   31.4602   21.2450 C   0  0  0  0  0  0  0  0  0  0  0  0
   25.9368   30.9393   22.6361 C   0  0  0  0  0  0  0  0  0  0  0  0
   26.4824   30.8969   23.7373 O   0  0  0  0  0  0  0  0  0  0  0  0
   24.6899   30.4707   22.3549 N   0  0  0  0  0  0  0  0  0  0  0  0
   24.3222   30.6107   21.4525 H   0  0  0  0  0  0  0  0  0  0  0  0
   23.8715   29.7615   23.3539 C   0  0  0  0  0  0  0  0  0  0  0  0
   23.6675   28.2888   22.9214 C   0  0  0  0  0  0  0  0  0  0  0  0
   22.9910   28.0343   21.9284 O   0  0  0  0  0  0  0  0  0  0  0  0
   24.1552   27.3928   23.5699 O   0  0  0  0  0  0  0  0  0  0  0  0
   24.6710   27.5895   24.3270 H   0  0  0  0  0  0  0  0  0  0  0  0
   22.5116   30.4703   23.4898 C   0  0  0  0  0  0  0  0  0  0  0  0
   22.2478   31.5177   22.3952 C   0  0  0  0  0  0  0  0  0  0  0  0
   21.0990   32.8081   22.9264 S   0  0  0  0  0  0  0  0  0  0  0  0
   20.8869   34.3630   22.7389 C   0  0  0  0  0  0  0  0  0  0  0  0
   31.5046   32.1110   18.9593 C   0  0  0  0  0  0  0  0  0  0  0  0
   34.6476   28.8796   19.7204 C   0  0  0  0  0  0  0  0  0  0  0  0
   33.5013   29.0232   20.5909 C   0  0  0  0  0  0  0  0  0  0  0  0
   32.4773   30.0021   20.4470 C   0  0  0  0  0  0  0  0  0  0  0  0
   32.5436   30.9552   19.3936 C   0  0  0  0  0  0  0  0  0  0  0  0
   33.7459   30.7971   18.4917 C   0  0  0  0  0  0  0  0  0  0  0  0
   34.7943   29.7975   18.6217 C   0  0  0  0  0  0  0  0  0  0  0  0
   35.4604   26.5692   19.3757 C   0  0  0  0  0  0  0  0  0  0  0  0
   36.2964   25.6587   19.5080 O   0  0  0  0  0  0  0  0  0  0  0  0
   35.5640   27.8414   20.0600 N   0  0  0  0  0  0  0  0  0  0  0  0
   36.6237   28.1060   20.9685 C   0  0  0  0  0  0  0  0  0  0  0  0
   37.8859   28.4749   20.3672 C   0  0  0  0  0  0  0  0  0  0  0  0
   39.0273   28.7707   21.1288 C   0  0  0  0  0  0  0  0  0  0  0  0
   38.9840   28.7034   22.5310 C   0  0  0  0  0  0  0  0  0  0  0  0
   37.7876   28.3477   23.1816 C   0  0  0  0  0  0  0  0  0  0  0  0
   36.5847   28.0312   22.4531 C   0  0  0  0  0  0  0  0  0  0  0  0
   35.4085   27.6868   23.3406 C   0  0  0  0  0  0  0  0  0  0  0  0
   35.1280   26.5289   23.6558 O   0  0  0  0  0  0  0  0  0  0  0  0
   34.6887   28.5249   23.7777 O   0  0  0  0  0  0  0  0  0  0  0  0
   34.8441   29.4270   23.5777 H   0  0  0  0  0  0  0  0  0  0  0  0
   34.3907   26.4267   17.1981 O   0  0  0  0  0  0  0  0  0  0  0  0
   34.2730   26.2507   18.4136 C   0  0  0  0  0  0  0  0  0  0  0  0
   33.2433   25.8121   18.8558 O   0  0  0  0  0  0  0  0  0  0  0  0
   35.1907   26.7680   16.8495 H   0  0  0  0  0  0  0  0  0  0  0  0
   35.9868   29.6938   17.6672 C   0  0  0  0  0  0  0  0  0  0  0  0
   36.1444   30.8699   16.6861 C   0  0  0  0  0  0  0  0  0  0  0  0
 48 49  1  0  0  0
 49 50  2  0  0  0
 49 35  1  0  0  0
 35 36  2  0  0  0
 35 37  1  0  0  0
 37 38  1  0  0  0
 37 29  1  0  0  0
 38 39  2  0  0  0
 38 43  1  0  0  0
 39 40  1  0  0  0
 40 41  2  0  0  0
 41 42  1  0  0  0
 42 43  2  0  0  0
 43 44  1  0  0  0
 44 45  2  0  0  0
 44 46  1  0  0  0
 29 30  2  0  0  0
 29 34  1  0  0  0
 30 31  1  0  0  0
 31 32  2  0  0  0
 32 33  1  0  0  0
 32 28  1  0  0  0
 33 34  2  0  0  0
 34 52  1  0  0  0
 52 53  1  0  0  0
 28  1  1  0  0  0
  1  2  1  0  0  0
  1  7  1  0  0  0
  2  3  1  0  0  0
  3  4  2  0  0  0
  3  5  1  0  0  0
  7  8  2  0  0  0
  7  9  1  0  0  0
  9 11  1  0  0  0
 11 12  1  0  0  0
 12 13  1  0  0  0
 13 14  1  0  0  0
 14 15  1  0  0  0
 15 16  2  0  0  0
 15 17  1  0  0  0
 17 19  1  0  0  0
 19 20  1  0  0  0
 19 24  1  0  0  0
 20 21  2  0  0  0
 20 22  1  0  0  0
 24 25  1  0  0  0
 25 26  1  0  0  0
 26 27  1  0  0  0
 48 51  1  0  0  0
 46 47  1  0  0  0
  2  6  1  0  0  0
  9 10  1  0  0  0
 17 18  1  0  0  0
 22 23  1  0  0  0
M  END
> <minimizedAffinity>
-7.69800

$$$$
1NZ7_901_A_322


 53 54  0  0  0  0  0  0  0  0999 V2000
   30.6754   29.9051   19.2642 C   0  0  0  0  0  0  0  0  0  0  0  0
   30.9057   29.1397   18.0550 N   0  0  0  0  0  0  0  0  0  0  0  0
   31.2989   28.1791   17.2091 C   0  0  0  0  0  0  0  0  0  0  0  0
   30.7510   28.3962   16.0263 O   0  0  0  0  0  0  0  0  0  0  0  0
   31.9649   26.9157   17.5421 C   0  0  0  0  0  0  0  0  0  0  0  0
   30.4753   29.7446   17.4083 H   0  0  0  0  0  0  0  0  0  0  0  0
   29.3417   30.6339   19.4535 C   0  0  0  0  0  0  0  0  0  0  0  0
   29.2240   31.3914   18.4634 O   0  0  0  0  0  0  0  0  0  0  0  0
   28.6265   30.5291   20.5133 N   0  0  0  0  0  0  0  0  0  0  0  0
   28.8819   29.8741   21.2025 H   0  0  0  0  0  0  0  0  0  0  0  0
   27.4714   31.3381   20.7169 C   0  0  0  0  0  0  0  0  0  0  0  0
   26.2998   30.4507   21.1511 C   0  0  0  0  0  0  0  0  0  0  0  0
   25.5405   30.9904   22.3965 C   0  0  0  0  0  0  0  0  0  0  0  0
   24.2022   31.6948   22.0728 C   0  0  0  0  0  0  0  0  0  0  0  0
   22.9745   30.9711   22.6766 C   0  0  0  0  0  0  0  0  0  0  0  0
   22.4657   29.8660   22.4977 O   0  0  0  0  0  0  0  0  0  0  0  0
   22.5122   31.9231   23.5329 N   0  0  0  0  0  0  0  0  0  0  0  0
   23.0312   32.7519   23.6469 H   0  0  0  0  0  0  0  0  0  0  0  0
   21.2624   31.7565   24.2952 C   0  0  0  0  0  0  0  0  0  0  0  0
   20.7468   33.1359   24.7736 C   0  0  0  0  0  0  0  0  0  0  0  0
   20.7045   34.0767   23.9851 O   0  0  0  0  0  0  0  0  0  0  0  0
   20.4067   33.2912   25.9231 O   0  0  0  0  0  0  0  0  0  0  0  0
   20.4399   32.5720   26.5227 H   0  0  0  0  0  0  0  0  0  0  0  0
   21.5242   30.8374   25.5022 C   0  0  0  0  0  0  0  0  0  0  0  0
   20.6288   29.5877   25.5339 C   0  0  0  0  0  0  0  0  0  0  0  0
   19.1777   29.7416   24.4673 S   0  0  0  0  0  0  0  0  0  0  0  0
   18.7218   29.3279   23.0116 C   0  0  0  0  0  0  0  0  0  0  0  0
   32.0595   30.5620   19.7182 C   0  0  0  0  0  0  0  0  0  0  0  0
   34.7561   26.9550   20.5042 C   0  0  0  0  0  0  0  0  0  0  0  0
   33.4768   27.0868   21.1665 C   0  0  0  0  0  0  0  0  0  0  0  0
   32.5728   28.1743   20.9995 C   0  0  0  0  0  0  0  0  0  0  0  0
   32.9094   29.2571   20.1414 C   0  0  0  0  0  0  0  0  0  0  0  0
   34.2486   29.1100   19.4565 C   0  0  0  0  0  0  0  0  0  0  0  0
   35.1775   28.0018   19.6109 C   0  0  0  0  0  0  0  0  0  0  0  0
   36.2033   25.7458   22.1046 C   0  0  0  0  0  0  0  0  0  0  0  0
   36.7707   24.7252   22.5308 O   0  0  0  0  0  0  0  0  0  0  0  0
   35.5127   25.7919   20.8323 N   0  0  0  0  0  0  0  0  0  0  0  0
   35.4823   24.6645   19.9685 C   0  0  0  0  0  0  0  0  0  0  0  0
   34.1657   24.1946   19.5990 C   0  0  0  0  0  0  0  0  0  0  0  0
   33.9672   23.0945   18.7501 C   0  0  0  0  0  0  0  0  0  0  0  0
   35.0653   22.3894   18.2308 C   0  0  0  0  0  0  0  0  0  0  0  0
   36.3752   22.7914   18.5524 C   0  0  0  0  0  0  0  0  0  0  0  0
   36.6413   23.9112   19.4201 C   0  0  0  0  0  0  0  0  0  0  0  0
   38.1152   24.1838   19.6276 C   0  0  0  0  0  0  0  0  0  0  0  0
   38.6883   25.1580   19.1364 O   0  0  0  0  0  0  0  0  0  0  0  0
   38.7990   23.4619   20.2778 O   0  0  0  0  0  0  0  0  0  0  0  0
   38.4276   22.7018   20.6807 H   0  0  0  0  0  0  0  0  0  0  0  0
   35.4320   27.1765   23.9114 O   0  0  0  0  0  0  0  0  0  0  0  0
   36.2845   26.9943   23.0383 C   0  0  0  0  0  0  0  0  0  0  0  0
   37.1938   27.7736   22.9207 O   0  0  0  0  0  0  0  0  0  0  0  0
   34.7222   26.5722   24.0065 H   0  0  0  0  0  0  0  0  0  0  0  0
   36.5211   27.9167   18.8819 C   0  0  0  0  0  0  0  0  0  0  0  0
   36.4652   27.2890   17.4771 C   0  0  0  0  0  0  0  0  0  0  0  0
 48 49  1  0  0  0
 49 50  2  0  0  0
 49 35  1  0  0  0
 35 36  2  0  0  0
 35 37  1  0  0  0
 37 38  1  0  0  0
 37 29  1  0  0  0
 38 39  2  0  0  0
 38 43  1  0  0  0
 39 40  1  0  0  0
 40 41  2  0  0  0
 41 42  1  0  0  0
 42 43  2  0  0  0
 43 44  1  0  0  0
 44 45  2  0  0  0
 44 46  1  0  0  0
 29 30  2  0  0  0
 29 34  1  0  0  0
 30 31  1  0  0  0
 31 32  2  0  0  0
 32 33  1  0  0  0
 32 28  1  0  0  0
 33 34  2  0  0  0
 34 52  1  0  0  0
 52 53  1  0  0  0
 28  1  1  0  0  0
  1  2  1  0  0  0
  1  7  1  0  0  0
  2  3  1  0  0  0
  3  4  2  0  0  0
  3  5  1  0  0  0
  7  8  2  0  0  0
  7  9  1  0  0  0
  9 11  1  0  0  0
 11 12  1  0  0  0
 12 13  1  0  0  0
 13 14  1  0  0  0
 14 15  1  0  0  0
 15 16  2  0  0  0
 15 17  1  0  0  0
 17 19  1  0  0  0
 19 20  1  0  0  0
 19 24  1  0  0  0
 20 21  2  0  0  0
 20 22  1  0  0  0
 24 25  1  0  0  0
 25 26  1  0  0  0
 26 27  1  0  0  0
 48 51  1  0  0  0
 46 47  1  0  0  0
  2  6  1  0  0  0
  9 10  1  0  0  0
 17 18  1  0  0  0
 22 23  1  0  0  0
M  END
> <minimizedAffinity>
-7.38356

$$$$
1NZ7_901_A_322


 53 54  0  0  0  0  0  0  0  0999 V2000
   30.2268   29.8719   18.6039 C   0  0  0  0  0  0  0  0  0  0  0  0
   31.4506   30.4747   18.1141 N   0  0  0  0  0  0  0  0  0  0  0  0
   32.3108   31.2362   17.4262 C   0  0  0  0  0  0  0  0  0  0  0  0
   33.5116   31.1249   17.9663 O   0  0  0  0  0  0  0  0  0  0  0  0
   31.9917   32.2700   16.4362 C   0  0  0  0  0  0  0  0  0  0  0  0
   32.0954   29.9866   18.6754 H   0  0  0  0  0  0  0  0  0  0  0  0
   29.5016   30.4998   19.7979 C   0  0  0  0  0  0  0  0  0  0  0  0
   30.4016   30.8875   20.5775 O   0  0  0  0  0  0  0  0  0  0  0  0
   28.2280   30.4627   19.9468 N   0  0  0  0  0  0  0  0  0  0  0  0
   27.6691   30.1087   19.2178 H   0  0  0  0  0  0  0  0  0  0  0  0
   27.6029   30.9217   21.1421 C   0  0  0  0  0  0  0  0  0  0  0  0
   26.1073   31.1345   20.8839 C   0  0  0  0  0  0  0  0  0  0  0  0
   25.2336   29.8985   21.2413 C   0  0  0  0  0  0  0  0  0  0  0  0
   24.8864   29.7746   22.7433 C   0  0  0  0  0  0  0  0  0  0  0  0
   23.6482   30.6095   23.1503 C   0  0  0  0  0  0  0  0  0  0  0  0
   23.3089   31.7759   22.9599 O   0  0  0  0  0  0  0  0  0  0  0  0
   22.9381   29.6863   23.8551 N   0  0  0  0  0  0  0  0  0  0  0  0
   23.2704   28.7604   23.8948 H   0  0  0  0  0  0  0  0  0  0  0  0
   21.6896   30.0243   24.5607 C   0  0  0  0  0  0  0  0  0  0  0  0
   21.9584   30.1502   26.0804 C   0  0  0  0  0  0  0  0  0  0  0  0
   22.7068   29.3493   26.6345 O   0  0  0  0  0  0  0  0  0  0  0  0
   21.4180   31.0205   26.7221 O   0  0  0  0  0  0  0  0  0  0  0  0
   20.8475   31.6303   26.2971 H   0  0  0  0  0  0  0  0  0  0  0  0
   20.6439   28.9264   24.2936 C   0  0  0  0  0  0  0  0  0  0  0  0
   19.3463   29.4500   23.6559 C   0  0  0  0  0  0  0  0  0  0  0  0
   19.5164   31.1272   23.0038 S   0  0  0  0  0  0  0  0  0  0  0  0
   19.7902   32.5893   23.5379 C   0  0  0  0  0  0  0  0  0  0  0  0
   30.3399   28.2871   18.4329 C   0  0  0  0  0  0  0  0  0  0  0  0
   34.7471   27.2982   19.1391 C   0  0  0  0  0  0  0  0  0  0  0  0
   33.9095   27.7778   20.2167 C   0  0  0  0  0  0  0  0  0  0  0  0
   32.5336   28.1241   20.0966 C   0  0  0  0  0  0  0  0  0  0  0  0
   31.8813   28.0310   18.8364 C   0  0  0  0  0  0  0  0  0  0  0  0
   32.7659   27.5309   17.7177 C   0  0  0  0  0  0  0  0  0  0  0  0
   34.1694   27.1658   17.8276 C   0  0  0  0  0  0  0  0  0  0  0  0
   37.0815   28.0905   19.3395 C   0  0  0  0  0  0  0  0  0  0  0  0
   38.2549   27.9877   19.7368 O   0  0  0  0  0  0  0  0  0  0  0  0
   36.1060   27.0288   19.4764 N   0  0  0  0  0  0  0  0  0  0  0  0
   36.4559   25.7746   20.0445 C   0  0  0  0  0  0  0  0  0  0  0  0
   36.7849   24.7300   19.1003 C   0  0  0  0  0  0  0  0  0  0  0  0
   37.1544   23.4371   19.5030 C   0  0  0  0  0  0  0  0  0  0  0  0
   37.2047   23.1038   20.8665 C   0  0  0  0  0  0  0  0  0  0  0  0
   36.8937   24.0723   21.8393 C   0  0  0  0  0  0  0  0  0  0  0  0
   36.5057   25.4149   21.4865 C   0  0  0  0  0  0  0  0  0  0  0  0
   36.2261   26.3013   22.6805 C   0  0  0  0  0  0  0  0  0  0  0  0
   35.2670   26.1221   23.4335 O   0  0  0  0  0  0  0  0  0  0  0  0
   36.9228   27.2251   22.9503 O   0  0  0  0  0  0  0  0  0  0  0  0
   37.6702   27.4190   22.4194 H   0  0  0  0  0  0  0  0  0  0  0  0
   36.2766   30.3836   19.3519 O   0  0  0  0  0  0  0  0  0  0  0  0
   36.7197   29.4544   18.6718 C   0  0  0  0  0  0  0  0  0  0  0  0
   36.8920   29.6090   17.4910 O   0  0  0  0  0  0  0  0  0  0  0  0
   36.1409   30.2677   20.2718 H   0  0  0  0  0  0  0  0  0  0  0  0
   35.0071   26.6629   16.6489 C   0  0  0  0  0  0  0  0  0  0  0  0
   34.6335   25.2621   16.1306 C   0  0  0  0  0  0  0  0  0  0  0  0
 48 49  1  0  0  0
 49 50  2  0  0  0
 49 35  1  0  0  0
 35 36  2  0  0  0
 35 37  1  0  0  0
 37 38  1  0  0  0
 37 29  1  0  0  0
 38 39  2  0  0  0
 38 43  1  0  0  0
 39 40  1  0  0  0
 40 41  2  0  0  0
 41 42  1  0  0  0
 42 43  2  0  0  0
 43 44  1  0  0  0
 44 45  2  0  0  0
 44 46  1  0  0  0
 29 30  2  0  0  0
 29 34  1  0  0  0
 30 31  1  0  0  0
 31 32  2  0  0  0
 32 33  1  0  0  0
 32 28  1  0  0  0
 33 34  2  0  0  0
 34 52  1  0  0  0
 52 53  1  0  0  0
 28  1  1  0  0  0
  1  2  1  0  0  0
  1  7  1  0  0  0
  2  3  1  0  0  0
  3  4  2  0  0  0
  3  5  1  0  0  0
  7  8  2  0  0  0
  7  9  1  0  0  0
  9 11  1  0  0  0
 11 12  1  0  0  0
 12 13  1  0  0  0
 13 14  1  0  0  0
 14 15  1  0  0  0
 15 16  2  0  0  0
 15 17  1  0  0  0
 17 19  1  0  0  0
 19 20  1  0  0  0
 19 24  1  0  0  0
 20 21  2  0  0  0
 20 22  1  0  0  0
 24 25  1  0  0  0
 25 26  1  0  0  0
 26 27  1  0  0  0
 48 51  1  0  0  0
 46 47  1  0  0  0
  2  6  1  0  0  0
  9 10  1  0  0  0
 17 18  1  0  0  0
 22 23  1  0  0  0
M  END
> <minimizedAffinity>
-7.31743

$$$$
1NZ7_901_A_322


 53 54  0  0  0  0  0  0  0  0999 V2000
   30.0804   30.3749   19.6336 C   0  0  0  0  0  0  0  0  0  0  0  0
   30.7788   31.3167   18.7815 N   0  0  0  0  0  0  0  0  0  0  0  0
   31.7225   31.9046   18.0354 C   0  0  0  0  0  0  0  0  0  0  0  0
   31.1875   32.9271   17.3916 O   0  0  0  0  0  0  0  0  0  0  0  0
   33.0515   31.3808   17.7035 C   0  0  0  0  0  0  0  0  0  0  0  0
   30.0670   31.9897   18.6838 H   0  0  0  0  0  0  0  0  0  0  0  0
   28.5525   30.4297   19.7257 C   0  0  0  0  0  0  0  0  0  0  0  0
   28.1414   30.4696   18.5435 O   0  0  0  0  0  0  0  0  0  0  0  0
   27.9179   30.5499   20.8340 N   0  0  0  0  0  0  0  0  0  0  0  0
   28.4172   30.5021   21.6812 H   0  0  0  0  0  0  0  0  0  0  0  0
   26.5078   30.7510   20.8683 C   0  0  0  0  0  0  0  0  0  0  0  0
   25.8025   29.4925   20.3511 C   0  0  0  0  0  0  0  0  0  0  0  0
   24.8779   28.8210   21.4061 C   0  0  0  0  0  0  0  0  0  0  0  0
   23.8353   29.7719   22.0391 C   0  0  0  0  0  0  0  0  0  0  0  0
   23.4502   29.3738   23.4845 C   0  0  0  0  0  0  0  0  0  0  0  0
   23.8100   28.4762   24.2439 O   0  0  0  0  0  0  0  0  0  0  0  0
   22.5141   30.3203   23.7694 N   0  0  0  0  0  0  0  0  0  0  0  0
   22.3444   31.0335   23.1124 H   0  0  0  0  0  0  0  0  0  0  0  0
   21.7459   30.3145   25.0266 C   0  0  0  0  0  0  0  0  0  0  0  0
   20.6278   29.2455   24.9584 C   0  0  0  0  0  0  0  0  0  0  0  0
   19.4540   29.5971   24.8739 O   0  0  0  0  0  0  0  0  0  0  0  0
   20.9077   28.0706   25.0085 O   0  0  0  0  0  0  0  0  0  0  0  0
   21.8039   27.8049   25.0729 H   0  0  0  0  0  0  0  0  0  0  0  0
   21.1361   31.7098   25.2538 C   0  0  0  0  0  0  0  0  0  0  0  0
   21.4141   32.7000   24.1107 C   0  0  0  0  0  0  0  0  0  0  0  0
   20.1137   32.6996   22.8552 S   0  0  0  0  0  0  0  0  0  0  0  0
   18.5887   32.3069   22.7219 C   0  0  0  0  0  0  0  0  0  0  0  0
   30.9861   30.0872   20.9183 C   0  0  0  0  0  0  0  0  0  0  0  0
   34.4645   27.5030   19.4617 C   0  0  0  0  0  0  0  0  0  0  0  0
   33.1785   27.4621   18.8005 C   0  0  0  0  0  0  0  0  0  0  0  0
   32.0329   28.2159   19.1837 C   0  0  0  0  0  0  0  0  0  0  0  0
   32.0913   29.0800   20.3116 C   0  0  0  0  0  0  0  0  0  0  0  0
   33.4385   29.1134   20.9957 C   0  0  0  0  0  0  0  0  0  0  0  0
   34.6188   28.3560   20.6105 C   0  0  0  0  0  0  0  0  0  0  0  0
   35.5018   25.2612   19.3357 C   0  0  0  0  0  0  0  0  0  0  0  0
   36.2534   24.4169   18.8183 O   0  0  0  0  0  0  0  0  0  0  0  0
   35.4714   26.6492   18.9231 N   0  0  0  0  0  0  0  0  0  0  0  0
   36.3450   27.1381   17.9152 C   0  0  0  0  0  0  0  0  0  0  0  0
   35.7041   27.6248   16.7138 C   0  0  0  0  0  0  0  0  0  0  0  0
   36.4280   28.1430   15.6286 C   0  0  0  0  0  0  0  0  0  0  0  0
   37.8310   28.1945   15.6690 C   0  0  0  0  0  0  0  0  0  0  0  0
   38.5194   27.7345   16.8072 C   0  0  0  0  0  0  0  0  0  0  0  0
   37.8307   27.1901   17.9506 C   0  0  0  0  0  0  0  0  0  0  0  0
   38.7539   26.7650   19.0716 C   0  0  0  0  0  0  0  0  0  0  0  0
   39.1025   27.5289   19.9737 O   0  0  0  0  0  0  0  0  0  0  0  0
   39.1950   25.6636   19.1346 O   0  0  0  0  0  0  0  0  0  0  0  0
   38.9708   25.0310   18.4808 H   0  0  0  0  0  0  0  0  0  0  0  0
   34.8690   24.9298   21.6586 O   0  0  0  0  0  0  0  0  0  0  0  0
   34.5807   24.7253   20.4765 C   0  0  0  0  0  0  0  0  0  0  0  0
   33.5733   24.1267   20.2033 O   0  0  0  0  0  0  0  0  0  0  0  0
   35.6525   25.3955   21.8760 H   0  0  0  0  0  0  0  0  0  0  0  0
   35.9564   28.4404   21.3505 C   0  0  0  0  0  0  0  0  0  0  0  0
   35.9297   29.2477   22.6612 C   0  0  0  0  0  0  0  0  0  0  0  0
 48 49  1  0  0  0
 49 50  2  0  0  0
 49 35  1  0  0  0
 35 36  2  0  0  0
 35 37  1  0  0  0
 37 38  1  0  0  0
 37 29  1  0  0  0
 38 39  2  0  0  0
 38 43  1  0  0  0
 39 40  1  0  0  0
 40 41  2  0  0  0
 41 42  1  0  0  0
 42 43  2  0  0  0
 43 44  1  0  0  0
 44 45  2  0  0  0
 44 46  1  0  0  0
 29 30  2  0  0  0
 29 34  1  0  0  0
 30 31  1  0  0  0
 31 32  2  0  0  0
 32 33  1  0  0  0
 32 28  1  0  0  0
 33 34  2  0  0  0
 34 52  1  0  0  0
 52 53  1  0  0  0
 28  1  1  0  0  0
  1  2  1  0  0  0
  1  7  1  0  0  0
  2  3  1  0  0  0
  3  4  2  0  0  0
  3  5  1  0  0  0
  7  8  2  0  0  0
  7  9  1  0  0  0
  9 11  1  0  0  0
 11 12  1  0  0  0
 12 13  1  0  0  0
 13 14  1  0  0  0
 14 15  1  0  0  0
 15 16  2  0  0  0
 15 17  1  0  0  0
 17 19  1  0  0  0
 19 20  1  0  0  0
 19 24  1  0  0  0
 20 21  2  0  0  0
 20 22  1  0  0  0
 24 25  1  0  0  0
 25 26  1  0  0  0
 26 27  1  0  0  0
 48 51  1  0  0  0
 46 47  1  0  0  0
  2  6  1  0  0  0
  9 10  1  0  0  0
 17 18  1  0  0  0
 22 23  1  0  0  0
M  END
> <minimizedAffinity>
-7.31704

$$$$
