4QYY_3G7_A_401


 36 39  0  0  0  0  0  0  0  0999 V2000
   48.5235   16.1054   10.0857 C   0  0  0  0  0  0  0  0  0  0  0  0
   49.1292   17.4700   10.4572 C   0  0  0  0  0  0  0  0  0  0  0  0
   47.4351   16.5278    9.0620 C   0  0  0  0  0  0  0  0  0  0  0  0
   47.4711   18.0375    8.9256 C   0  0  0  0  0  0  0  0  0  0  0  0
   48.8780   18.3673    9.2709 N   0  0  0  0  0  0  0  0  0  0  0  0
   49.0196   13.9327    9.2006 N   0  0  0  0  0  0  0  0  0  0  0  0
   49.5003   15.1722    9.4192 C   0  0  0  0  0  0  0  0  0  0  0  0
   50.6364   15.5334    9.1132 O   0  0  0  0  0  0  0  0  0  0  0  0
   48.0750   13.7966    9.4423 H   0  0  0  0  0  0  0  0  0  0  0  0
   50.8643   12.8510    7.9424 C   0  0  0  0  0  0  0  0  0  0  0  0
   51.4587   11.6836    7.4863 C   0  0  0  0  0  0  0  0  0  0  0  0
   48.9452    8.8752    8.7976 Cl  0  0  0  0  0  0  0  0  0  0  0  0
   49.7035   10.4053    8.4915 C   0  0  0  0  0  0  0  0  0  0  0  0
   50.8883   10.4438    7.7666 C   0  0  0  0  0  0  0  0  0  0  0  0
   51.4502    9.2726    7.3784 O   0  0  0  0  0  0  0  0  0  0  0  0
   49.0949   11.5610    8.9399 C   0  0  0  0  0  0  0  0  0  0  0  0
   49.6828   12.7970    8.6715 C   0  0  0  0  0  0  0  0  0  0  0  0
   52.2491    9.2759    6.8888 H   0  0  0  0  0  0  0  0  0  0  0  0
   49.1873   19.7759    9.6671 C   0  0  0  0  0  0  0  0  0  0  0  0
   49.2338   21.9817    8.6183 N   0  0  0  0  0  0  0  0  0  0  0  0
   49.1395   22.9404    7.5259 C   0  0  0  0  0  0  0  0  0  0  0  0
   49.2605   20.6500    8.4212 C   0  0  0  0  0  0  0  0  0  0  0  0
   49.2885   20.1562    7.2969 O   0  0  0  0  0  0  0  0  0  0  0  0
   48.9359   22.7056    9.8501 C   0  0  0  0  0  0  0  0  0  0  0  0
   47.4775   23.1053    9.8360 C   0  0  0  0  0  0  0  0  0  0  0  0
   47.7083   23.3685    7.3806 C   0  0  0  0  0  0  0  0  0  0  0  0
   47.1493   23.8981    8.6385 N   0  0  0  0  0  0  0  0  0  0  0  0
   43.0989   25.1094    8.1362 C   0  0  0  0  0  0  0  0  0  0  0  0
   44.9346   24.4868    9.5879 C   0  0  0  0  0  0  0  0  0  0  0  0
   45.8050   24.3965    8.4936 C   0  0  0  0  0  0  0  0  0  0  0  0
   45.3021   24.7440    7.2290 C   0  0  0  0  0  0  0  0  0  0  0  0
   43.9688   25.0694    7.0545 C   0  0  0  0  0  0  0  0  0  0  0  0
   43.6090   24.8464    9.4096 C   0  0  0  0  0  0  0  0  0  0  0  0
   41.6479   25.3950    7.9289 C   0  0  0  0  0  0  0  0  0  0  0  0
   40.9124   25.6169    8.8932 O   0  0  0  0  0  0  0  0  0  0  0  0
   41.1008   25.4454    6.5423 C   0  0  0  0  0  0  0  0  0  0  0  0
 15 14  1  0  0  0
 35 34  2  0  0  0
 23 22  2  0  0  0
 32 31  2  0  0  0
 32 28  1  0  0  0
 26 21  1  0  0  0
 26 27  1  0  0  0
 31 30  1  0  0  0
 11 14  2  0  0  0
 11 10  1  0  0  0
 21 20  1  0  0  0
 14 13  1  0  0  0
 10 17  2  0  0  0
 13 12  1  0  0  0
 13 16  2  0  0  0
 34 28  1  0  0  0
 34 36  1  0  0  0
 22 20  1  0  0  0
 22 19  1  0  0  0
 28 33  2  0  0  0
 17 16  1  0  0  0
 17  6  1  0  0  0
 20 24  1  0  0  0
 30 27  1  0  0  0
 30 29  2  0  0  0
 27 25  1  0  0  0
  4  3  1  0  0  0
  4  5  1  0  0  0
  6  7  1  0  0  0
  3  1  1  0  0  0
  8  7  2  0  0  0
  5 19  1  0  0  0
  5  2  1  0  0  0
  7  1  1  0  0  0
 33 29  1  0  0  0
 24 25  1  0  0  0
  1  2  1  0  0  0
  6  9  1  0  0  0
 15 18  1  0  0  0
M  END
> <minimizedAffinity>
-12.23462

$$$$
4QYY_3G7_A_401


 36 39  0  0  0  0  0  0  0  0999 V2000
   48.0948   16.2868   10.7810 C   0  0  0  0  0  0  0  0  0  0  0  0
   49.1773   17.3046   10.3820 C   0  0  0  0  0  0  0  0  0  0  0  0
   46.8484   17.2048   10.9023 C   0  0  0  0  0  0  0  0  0  0  0  0
   47.2739   18.6273   10.5944 C   0  0  0  0  0  0  0  0  0  0  0  0
   48.4465   18.4359    9.7025 N   0  0  0  0  0  0  0  0  0  0  0  0
   48.1972   13.9891   10.1027 N   0  0  0  0  0  0  0  0  0  0  0  0
   47.8397   15.2346    9.7337 C   0  0  0  0  0  0  0  0  0  0  0  0
   47.3488   15.5138    8.6401 O   0  0  0  0  0  0  0  0  0  0  0  0
   48.5238   13.8991   11.0271 H   0  0  0  0  0  0  0  0  0  0  0  0
   47.0073   12.1121    8.9996 C   0  0  0  0  0  0  0  0  0  0  0  0
   47.0736   10.9582    8.2325 C   0  0  0  0  0  0  0  0  0  0  0  0
   51.0000   10.5380    7.6570 Cl  0  0  0  0  0  0  0  0  0  0  0  0
   49.4564   11.1591    8.1485 C   0  0  0  0  0  0  0  0  0  0  0  0
   48.3022   10.4744    7.7882 C   0  0  0  0  0  0  0  0  0  0  0  0
   48.4179    9.3747    7.0038 O   0  0  0  0  0  0  0  0  0  0  0  0
   49.4048   12.3016    8.9227 C   0  0  0  0  0  0  0  0  0  0  0  0
   48.1693   12.7900    9.3472 C   0  0  0  0  0  0  0  0  0  0  0  0
   47.6524    8.8983    6.7491 H   0  0  0  0  0  0  0  0  0  0  0  0
   49.3931   19.5822    9.5388 C   0  0  0  0  0  0  0  0  0  0  0  0
   49.0419   21.7661    8.5019 N   0  0  0  0  0  0  0  0  0  0  0  0
   48.5235   22.7065    7.5180 C   0  0  0  0  0  0  0  0  0  0  0  0
   48.9631   20.4307    8.3485 C   0  0  0  0  0  0  0  0  0  0  0  0
   48.5187   19.9155    7.3259 O   0  0  0  0  0  0  0  0  0  0  0  0
   49.2880   22.5205    9.7269 C   0  0  0  0  0  0  0  0  0  0  0  0
   47.9593   22.9586   10.3008 C   0  0  0  0  0  0  0  0  0  0  0  0
   47.1662   23.1699    7.9603 C   0  0  0  0  0  0  0  0  0  0  0  0
   47.1818   23.7375    9.3215 N   0  0  0  0  0  0  0  0  0  0  0  0
   43.2934   25.1673   10.3020 C   0  0  0  0  0  0  0  0  0  0  0  0
   45.1317   23.6457   10.7147 C   0  0  0  0  0  0  0  0  0  0  0  0
   45.9050   24.2690    9.7266 C   0  0  0  0  0  0  0  0  0  0  0  0
   45.3635   25.3971    9.0886 C   0  0  0  0  0  0  0  0  0  0  0  0
   44.0736   25.8195    9.3564 C   0  0  0  0  0  0  0  0  0  0  0  0
   43.8534   24.0955   11.0011 C   0  0  0  0  0  0  0  0  0  0  0  0
   41.8796   25.5877   10.5353 C   0  0  0  0  0  0  0  0  0  0  0  0
   41.5426   26.0658   11.6206 O   0  0  0  0  0  0  0  0  0  0  0  0
   40.8840   25.4582    9.4323 C   0  0  0  0  0  0  0  0  0  0  0  0
 15 14  1  0  0  0
 35 34  2  0  0  0
 23 22  2  0  0  0
 32 31  2  0  0  0
 32 28  1  0  0  0
 26 21  1  0  0  0
 26 27  1  0  0  0
 31 30  1  0  0  0
 11 14  2  0  0  0
 11 10  1  0  0  0
 21 20  1  0  0  0
 14 13  1  0  0  0
 10 17  2  0  0  0
 13 12  1  0  0  0
 13 16  2  0  0  0
 34 28  1  0  0  0
 34 36  1  0  0  0
 22 20  1  0  0  0
 22 19  1  0  0  0
 28 33  2  0  0  0
 17 16  1  0  0  0
 17  6  1  0  0  0
 20 24  1  0  0  0
 30 27  1  0  0  0
 30 29  2  0  0  0
 27 25  1  0  0  0
  4  3  1  0  0  0
  4  5  1  0  0  0
  6  7  1  0  0  0
  3  1  1  0  0  0
  8  7  2  0  0  0
  5 19  1  0  0  0
  5  2  1  0  0  0
  7  1  1  0  0  0
 33 29  1  0  0  0
 24 25  1  0  0  0
  1  2  1  0  0  0
  6  9  1  0  0  0
 15 18  1  0  0  0
M  END
> <minimizedAffinity>
-11.36720

$$$$
4QYY_3G7_A_401


 36 39  0  0  0  0  0  0  0  0999 V2000
   48.8852   23.0491    9.3611 C   0  0  0  0  0  0  0  0  0  0  0  0
   49.1894   21.6129    9.8214 C   0  0  0  0  0  0  0  0  0  0  0  0
   48.9701   22.8953    7.8184 C   0  0  0  0  0  0  0  0  0  0  0  0
   49.3153   21.4529    7.5027 C   0  0  0  0  0  0  0  0  0  0  0  0
   48.7778   20.7195    8.6776 N   0  0  0  0  0  0  0  0  0  0  0  0
   46.6566   23.6393    8.7017 N   0  0  0  0  0  0  0  0  0  0  0  0
   47.5074   23.5257    9.7402 C   0  0  0  0  0  0  0  0  0  0  0  0
   47.2092   23.7862   10.9055 O   0  0  0  0  0  0  0  0  0  0  0  0
   47.0091   23.3426    7.8316 H   0  0  0  0  0  0  0  0  0  0  0  0
   44.5254   24.2516    9.8148 C   0  0  0  0  0  0  0  0  0  0  0  0
   43.2410   24.7648    9.7085 C   0  0  0  0  0  0  0  0  0  0  0  0
   42.9286   25.4849    5.7959 Cl  0  0  0  0  0  0  0  0  0  0  0  0
   43.5523   25.0376    7.3519 C   0  0  0  0  0  0  0  0  0  0  0  0
   42.7436   25.1748    8.4734 C   0  0  0  0  0  0  0  0  0  0  0  0
   41.5112   25.7193    8.3224 O   0  0  0  0  0  0  0  0  0  0  0  0
   44.8279   24.5160    7.4424 C   0  0  0  0  0  0  0  0  0  0  0  0
   45.3253   24.1259    8.6856 C   0  0  0  0  0  0  0  0  0  0  0  0
   40.9497   25.8210    9.0656 H   0  0  0  0  0  0  0  0  0  0  0  0
   49.2997   19.3426    8.9390 C   0  0  0  0  0  0  0  0  0  0  0  0
   48.8772   17.5781   10.5748 N   0  0  0  0  0  0  0  0  0  0  0  0
   48.0683   16.6903   11.3987 C   0  0  0  0  0  0  0  0  0  0  0  0
   48.3573   18.6134    9.8887 C   0  0  0  0  0  0  0  0  0  0  0  0
   47.1731   18.9273    9.9771 O   0  0  0  0  0  0  0  0  0  0  0  0
   50.1680   16.9249   10.3816 C   0  0  0  0  0  0  0  0  0  0  0  0
   49.9667   15.7014    9.5162 C   0  0  0  0  0  0  0  0  0  0  0  0
   47.7555   15.4515   10.6113 C   0  0  0  0  0  0  0  0  0  0  0  0
   48.9697   14.7879   10.1009 N   0  0  0  0  0  0  0  0  0  0  0  0
   48.2457   10.9909    8.3165 C   0  0  0  0  0  0  0  0  0  0  0  0
   47.4181   12.9671    9.4456 C   0  0  0  0  0  0  0  0  0  0  0  0
   48.6924   13.5488    9.4194 C   0  0  0  0  0  0  0  0  0  0  0  0
   49.7168   12.8479    8.7620 C   0  0  0  0  0  0  0  0  0  0  0  0
   49.4994   11.5836    8.2440 C   0  0  0  0  0  0  0  0  0  0  0  0
   47.2005   11.7151    8.8946 C   0  0  0  0  0  0  0  0  0  0  0  0
   48.0373    9.5996    7.8158 C   0  0  0  0  0  0  0  0  0  0  0  0
   48.2136    9.3328    6.6251 O   0  0  0  0  0  0  0  0  0  0  0  0
   47.6485    8.5253    8.7746 C   0  0  0  0  0  0  0  0  0  0  0  0
 15 14  1  0  0  0
 35 34  2  0  0  0
 23 22  2  0  0  0
 32 31  2  0  0  0
 32 28  1  0  0  0
 26 21  1  0  0  0
 26 27  1  0  0  0
 31 30  1  0  0  0
 11 14  2  0  0  0
 11 10  1  0  0  0
 21 20  1  0  0  0
 14 13  1  0  0  0
 10 17  2  0  0  0
 13 12  1  0  0  0
 13 16  2  0  0  0
 34 28  1  0  0  0
 34 36  1  0  0  0
 22 20  1  0  0  0
 22 19  1  0  0  0
 28 33  2  0  0  0
 17 16  1  0  0  0
 17  6  1  0  0  0
 20 24  1  0  0  0
 30 27  1  0  0  0
 30 29  2  0  0  0
 27 25  1  0  0  0
  4  3  1  0  0  0
  4  5  1  0  0  0
  6  7  1  0  0  0
  3  1  1  0  0  0
  8  7  2  0  0  0
  5 19  1  0  0  0
  5  2  1  0  0  0
  7  1  1  0  0  0
 33 29  1  0  0  0
 24 25  1  0  0  0
  1  2  1  0  0  0
  6  9  1  0  0  0
 15 18  1  0  0  0
M  END
> <minimizedAffinity>
-10.39065

$$$$
4QYY_3G7_A_401


 36 39  0  0  0  0  0  0  0  0999 V2000
   47.9275   10.3574    7.9798 C   0  0  0  0  0  0  0  0  0  0  0  0
   47.9866   11.8446    7.5903 C   0  0  0  0  0  0  0  0  0  0  0  0
   49.3705   10.1259    8.5044 C   0  0  0  0  0  0  0  0  0  0  0  0
   50.1372   11.4279    8.3770 C   0  0  0  0  0  0  0  0  0  0  0  0
   49.0641   12.4525    8.4536 N   0  0  0  0  0  0  0  0  0  0  0  0
   46.1056   11.0770    9.3628 N   0  0  0  0  0  0  0  0  0  0  0  0
   46.9426   10.0598    9.0801 C   0  0  0  0  0  0  0  0  0  0  0  0
   46.9258    8.9738    9.6590 O   0  0  0  0  0  0  0  0  0  0  0  0
   46.1908   11.8684    8.7834 H   0  0  0  0  0  0  0  0  0  0  0  0
   43.8625   10.5814   10.3000 C   0  0  0  0  0  0  0  0  0  0  0  0
   42.9696   10.6996   11.3551 C   0  0  0  0  0  0  0  0  0  0  0  0
   45.0262   12.8986   13.9740 Cl  0  0  0  0  0  0  0  0  0  0  0  0
   44.5854   11.9792   12.5703 C   0  0  0  0  0  0  0  0  0  0  0  0
   43.3272   11.3926   12.5095 C   0  0  0  0  0  0  0  0  0  0  0  0
   42.5070   11.5030   13.5833 O   0  0  0  0  0  0  0  0  0  0  0  0
   45.4784   11.8800   11.5216 C   0  0  0  0  0  0  0  0  0  0  0  0
   45.1197   11.1680   10.3772 C   0  0  0  0  0  0  0  0  0  0  0  0
   41.6543   11.1148   13.5634 H   0  0  0  0  0  0  0  0  0  0  0  0
   49.3694   13.8226    7.9376 C   0  0  0  0  0  0  0  0  0  0  0  0
   49.0906   15.3680    9.8089 N   0  0  0  0  0  0  0  0  0  0  0  0
   49.5116   16.3371   10.8112 C   0  0  0  0  0  0  0  0  0  0  0  0
   49.9620   14.6677    9.0584 C   0  0  0  0  0  0  0  0  0  0  0  0
   51.1764   14.7417    9.2270 O   0  0  0  0  0  0  0  0  0  0  0  0
   47.6688   15.5925    9.5671 C   0  0  0  0  0  0  0  0  0  0  0  0
   47.4996   16.9292    8.8806 C   0  0  0  0  0  0  0  0  0  0  0  0
   49.4381   17.7125   10.2149 C   0  0  0  0  0  0  0  0  0  0  0  0
   48.1025   18.0180    9.6688 N   0  0  0  0  0  0  0  0  0  0  0  0
   48.0446   22.0352    8.2602 C   0  0  0  0  0  0  0  0  0  0  0  0
   48.0933   19.6567    7.8068 C   0  0  0  0  0  0  0  0  0  0  0  0
   47.9896   19.3666    9.1736 C   0  0  0  0  0  0  0  0  0  0  0  0
   47.8403   20.4454   10.0606 C   0  0  0  0  0  0  0  0  0  0  0  0
   47.8921   21.7528    9.6112 C   0  0  0  0  0  0  0  0  0  0  0  0
   48.1103   20.9681    7.3613 C   0  0  0  0  0  0  0  0  0  0  0  0
   48.1677   23.4480    7.7925 C   0  0  0  0  0  0  0  0  0  0  0  0
   49.1676   23.8139    7.1711 O   0  0  0  0  0  0  0  0  0  0  0  0
   47.0545   24.4062    8.0516 C   0  0  0  0  0  0  0  0  0  0  0  0
 15 14  1  0  0  0
 35 34  2  0  0  0
 23 22  2  0  0  0
 32 31  2  0  0  0
 32 28  1  0  0  0
 26 21  1  0  0  0
 26 27  1  0  0  0
 31 30  1  0  0  0
 11 14  2  0  0  0
 11 10  1  0  0  0
 21 20  1  0  0  0
 14 13  1  0  0  0
 10 17  2  0  0  0
 13 12  1  0  0  0
 13 16  2  0  0  0
 34 28  1  0  0  0
 34 36  1  0  0  0
 22 20  1  0  0  0
 22 19  1  0  0  0
 28 33  2  0  0  0
 17 16  1  0  0  0
 17  6  1  0  0  0
 20 24  1  0  0  0
 30 27  1  0  0  0
 30 29  2  0  0  0
 27 25  1  0  0  0
  4  3  1  0  0  0
  4  5  1  0  0  0
  6  7  1  0  0  0
  3  1  1  0  0  0
  8  7  2  0  0  0
  5 19  1  0  0  0
  5  2  1  0  0  0
  7  1  1  0  0  0
 33 29  1  0  0  0
 24 25  1  0  0  0
  1  2  1  0  0  0
  6  9  1  0  0  0
 15 18  1  0  0  0
M  END
> <minimizedAffinity>
-10.28972

$$$$
4QYY_3G7_A_401


 36 39  0  0  0  0  0  0  0  0999 V2000
   49.2361   20.6831    8.9026 C   0  0  0  0  0  0  0  0  0  0  0  0
   49.2381   19.5548    9.9486 C   0  0  0  0  0  0  0  0  0  0  0  0
   48.3226   20.0741    7.8046 C   0  0  0  0  0  0  0  0  0  0  0  0
   47.8884   18.6941    8.2588 C   0  0  0  0  0  0  0  0  0  0  0  0
   47.9494   18.7990    9.7395 N   0  0  0  0  0  0  0  0  0  0  0  0
   47.2935   22.0482    9.2379 N   0  0  0  0  0  0  0  0  0  0  0  0
   48.6284   21.9680    9.4015 C   0  0  0  0  0  0  0  0  0  0  0  0
   49.3140   22.8556    9.9083 O   0  0  0  0  0  0  0  0  0  0  0  0
   46.8630   21.2422    8.8715 H   0  0  0  0  0  0  0  0  0  0  0  0
   46.3184   24.2742    8.7379 C   0  0  0  0  0  0  0  0  0  0  0  0
   45.4157   25.2722    9.0748 C   0  0  0  0  0  0  0  0  0  0  0  0
   43.7365   23.8224   12.3918 Cl  0  0  0  0  0  0  0  0  0  0  0  0
   44.7101   23.9863   10.9652 C   0  0  0  0  0  0  0  0  0  0  0  0
   44.5917   25.1330   10.1895 C   0  0  0  0  0  0  0  0  0  0  0  0
   43.6662   26.0602   10.5386 O   0  0  0  0  0  0  0  0  0  0  0  0
   45.6139   22.9915   10.6479 C   0  0  0  0  0  0  0  0  0  0  0  0
   46.4216   23.1300    9.5193 C   0  0  0  0  0  0  0  0  0  0  0  0
   43.5697   26.8407   10.0292 H   0  0  0  0  0  0  0  0  0  0  0  0
   48.0106   17.5290   10.5269 C   0  0  0  0  0  0  0  0  0  0  0  0
   48.8833   15.7823    9.0588 N   0  0  0  0  0  0  0  0  0  0  0  0
   49.8430   14.7926    8.5889 C   0  0  0  0  0  0  0  0  0  0  0  0
   49.1687   16.6751   10.0255 C   0  0  0  0  0  0  0  0  0  0  0  0
   50.2890   16.7665   10.5206 O   0  0  0  0  0  0  0  0  0  0  0  0
   47.5713   15.3736    8.5669 C   0  0  0  0  0  0  0  0  0  0  0  0
   47.1639   14.1009    9.2747 C   0  0  0  0  0  0  0  0  0  0  0  0
   49.5670   13.4873    9.2763 C   0  0  0  0  0  0  0  0  0  0  0  0
   48.1724   13.0417    9.0982 N   0  0  0  0  0  0  0  0  0  0  0  0
   47.1758    9.2041   10.6490 C   0  0  0  0  0  0  0  0  0  0  0  0
   48.4802   10.5808    9.1430 C   0  0  0  0  0  0  0  0  0  0  0  0
   47.9149   11.7468    9.6758 C   0  0  0  0  0  0  0  0  0  0  0  0
   47.0277   11.6077   10.7558 C   0  0  0  0  0  0  0  0  0  0  0  0
   46.6495   10.3582   11.2139 C   0  0  0  0  0  0  0  0  0  0  0  0
   48.1220    9.3346    9.6298 C   0  0  0  0  0  0  0  0  0  0  0  0
   46.7107    7.8600   11.1039 C   0  0  0  0  0  0  0  0  0  0  0  0
   46.3171    7.6952   12.2606 O   0  0  0  0  0  0  0  0  0  0  0  0
   46.6917    6.7242   10.1373 C   0  0  0  0  0  0  0  0  0  0  0  0
 15 14  1  0  0  0
 35 34  2  0  0  0
 23 22  2  0  0  0
 32 31  2  0  0  0
 32 28  1  0  0  0
 26 21  1  0  0  0
 26 27  1  0  0  0
 31 30  1  0  0  0
 11 14  2  0  0  0
 11 10  1  0  0  0
 21 20  1  0  0  0
 14 13  1  0  0  0
 10 17  2  0  0  0
 13 12  1  0  0  0
 13 16  2  0  0  0
 34 28  1  0  0  0
 34 36  1  0  0  0
 22 20  1  0  0  0
 22 19  1  0  0  0
 28 33  2  0  0  0
 17 16  1  0  0  0
 17  6  1  0  0  0
 20 24  1  0  0  0
 30 27  1  0  0  0
 30 29  2  0  0  0
 27 25  1  0  0  0
  4  3  1  0  0  0
  4  5  1  0  0  0
  6  7  1  0  0  0
  3  1  1  0  0  0
  8  7  2  0  0  0
  5 19  1  0  0  0
  5  2  1  0  0  0
  7  1  1  0  0  0
 33 29  1  0  0  0
 24 25  1  0  0  0
  1  2  1  0  0  0
  6  9  1  0  0  0
 15 18  1  0  0  0
M  END
> <minimizedAffinity>
-9.93021

$$$$
4QYY_3G7_A_401


 36 39  0  0  0  0  0  0  0  0999 V2000
   45.7629   16.5717   13.0034 C   0  0  0  0  0  0  0  0  0  0  0  0
   44.3309   16.0569   12.7764 C   0  0  0  0  0  0  0  0  0  0  0  0
   46.3188   15.4963   13.9757 C   0  0  0  0  0  0  0  0  0  0  0  0
   45.2205   14.4863   14.2459 C   0  0  0  0  0  0  0  0  0  0  0  0
   44.3862   14.5691   13.0194 N   0  0  0  0  0  0  0  0  0  0  0  0
   46.6876   15.4072   11.1223 N   0  0  0  0  0  0  0  0  0  0  0  0
   46.6017   16.5950   11.7524 C   0  0  0  0  0  0  0  0  0  0  0  0
   47.1543   17.6228   11.3613 O   0  0  0  0  0  0  0  0  0  0  0  0
   46.1487   14.6815   11.5122 H   0  0  0  0  0  0  0  0  0  0  0  0
   46.9983   15.2021    8.6692 C   0  0  0  0  0  0  0  0  0  0  0  0
   47.8201   14.8567    7.6065 C   0  0  0  0  0  0  0  0  0  0  0  0
   51.1145   13.5710    9.4554 Cl  0  0  0  0  0  0  0  0  0  0  0  0
   49.5382   14.2276    9.1484 C   0  0  0  0  0  0  0  0  0  0  0  0
   49.1071   14.3747    7.8357 C   0  0  0  0  0  0  0  0  0  0  0  0
   49.9631   14.0610    6.8322 O   0  0  0  0  0  0  0  0  0  0  0  0
   48.7249   14.5555   10.2153 C   0  0  0  0  0  0  0  0  0  0  0  0
   47.4450   15.0555    9.9767 C   0  0  0  0  0  0  0  0  0  0  0  0
   49.6926   14.1529    5.9398 H   0  0  0  0  0  0  0  0  0  0  0  0
   42.9864   14.0473   13.0913 C   0  0  0  0  0  0  0  0  0  0  0  0
   42.9187   12.0636   11.6672 N   0  0  0  0  0  0  0  0  0  0  0  0
   42.7792   11.3208   10.4223 C   0  0  0  0  0  0  0  0  0  0  0  0
   42.6265   13.3737   11.7729 C   0  0  0  0  0  0  0  0  0  0  0  0
   42.1442   14.0129   10.8415 O   0  0  0  0  0  0  0  0  0  0  0  0
   43.7229   11.2432   12.5675 C   0  0  0  0  0  0  0  0  0  0  0  0
   45.1321   11.1674   12.0243 C   0  0  0  0  0  0  0  0  0  0  0  0
   44.1229   11.2314    9.7596 C   0  0  0  0  0  0  0  0  0  0  0  0
   45.1491   10.6500   10.6450 N   0  0  0  0  0  0  0  0  0  0  0  0
   48.7925    9.9299    8.5636 C   0  0  0  0  0  0  0  0  0  0  0  0
   46.8123   11.2789    8.9157 C   0  0  0  0  0  0  0  0  0  0  0  0
   46.4229   10.4742    9.9944 C   0  0  0  0  0  0  0  0  0  0  0  0
   47.2881    9.4376   10.3816 C   0  0  0  0  0  0  0  0  0  0  0  0
   48.4367    9.1591    9.6625 C   0  0  0  0  0  0  0  0  0  0  0  0
   47.9813   11.0144    8.2216 C   0  0  0  0  0  0  0  0  0  0  0  0
   49.9970    9.5802    7.7532 C   0  0  0  0  0  0  0  0  0  0  0  0
   50.0576    8.5008    7.1606 O   0  0  0  0  0  0  0  0  0  0  0  0
   51.1132   10.5625    7.6362 C   0  0  0  0  0  0  0  0  0  0  0  0
 15 14  1  0  0  0
 35 34  2  0  0  0
 23 22  2  0  0  0
 32 31  2  0  0  0
 32 28  1  0  0  0
 26 21  1  0  0  0
 26 27  1  0  0  0
 31 30  1  0  0  0
 11 14  2  0  0  0
 11 10  1  0  0  0
 21 20  1  0  0  0
 14 13  1  0  0  0
 10 17  2  0  0  0
 13 12  1  0  0  0
 13 16  2  0  0  0
 34 28  1  0  0  0
 34 36  1  0  0  0
 22 20  1  0  0  0
 22 19  1  0  0  0
 28 33  2  0  0  0
 17 16  1  0  0  0
 17  6  1  0  0  0
 20 24  1  0  0  0
 30 27  1  0  0  0
 30 29  2  0  0  0
 27 25  1  0  0  0
  4  3  1  0  0  0
  4  5  1  0  0  0
  6  7  1  0  0  0
  3  1  1  0  0  0
  8  7  2  0  0  0
  5 19  1  0  0  0
  5  2  1  0  0  0
  7  1  1  0  0  0
 33 29  1  0  0  0
 24 25  1  0  0  0
  1  2  1  0  0  0
  6  9  1  0  0  0
 15 18  1  0  0  0
M  END
> <minimizedAffinity>
-9.85326

$$$$
4QYY_3G7_A_401


 36 39  0  0  0  0  0  0  0  0999 V2000
   44.3696   15.7269   14.0993 C   0  0  0  0  0  0  0  0  0  0  0  0
   43.2179   14.9382   13.4525 C   0  0  0  0  0  0  0  0  0  0  0  0
   45.3944   14.5931   14.3735 C   0  0  0  0  0  0  0  0  0  0  0  0
   44.7917   13.2836   13.9031 C   0  0  0  0  0  0  0  0  0  0  0  0
   43.8525   13.7161   12.8364 N   0  0  0  0  0  0  0  0  0  0  0  0
   46.0568   16.3001   12.4946 N   0  0  0  0  0  0  0  0  0  0  0  0
   44.9900   16.7498   13.1838 C   0  0  0  0  0  0  0  0  0  0  0  0
   44.5446   17.8935   13.0930 O   0  0  0  0  0  0  0  0  0  0  0  0
   46.2700   15.3471   12.6196 H   0  0  0  0  0  0  0  0  0  0  0  0
   46.6341   18.2608   11.0881 C   0  0  0  0  0  0  0  0  0  0  0  0
   47.5474   18.8902   10.2551 C   0  0  0  0  0  0  0  0  0  0  0  0
   50.5082   16.2219   10.0604 Cl  0  0  0  0  0  0  0  0  0  0  0  0
   49.0276   17.0236   10.4786 C   0  0  0  0  0  0  0  0  0  0  0  0
   48.7625   18.2809    9.9497 C   0  0  0  0  0  0  0  0  0  0  0  0
   49.7049   18.8706    9.1738 O   0  0  0  0  0  0  0  0  0  0  0  0
   48.1211   16.3808   11.2986 C   0  0  0  0  0  0  0  0  0  0  0  0
   46.9152   17.0062   11.6149 C   0  0  0  0  0  0  0  0  0  0  0  0
   49.5466   19.7182    8.8071 H   0  0  0  0  0  0  0  0  0  0  0  0
   42.7672   12.7683   12.4359 C   0  0  0  0  0  0  0  0  0  0  0  0
   43.4168   11.4434   10.4890 N   0  0  0  0  0  0  0  0  0  0  0  0
   43.6699   11.1824    9.0787 C   0  0  0  0  0  0  0  0  0  0  0  0
   42.8051   12.5600   10.9270 C   0  0  0  0  0  0  0  0  0  0  0  0
   42.3460   13.3989   10.1561 O   0  0  0  0  0  0  0  0  0  0  0  0
   44.2324   10.5033   11.2514 C   0  0  0  0  0  0  0  0  0  0  0  0
   45.6889   10.8650   11.0658 C   0  0  0  0  0  0  0  0  0  0  0  0
   45.0870   11.5632    8.7633 C   0  0  0  0  0  0  0  0  0  0  0  0
   46.0599   10.8854    9.6402 N   0  0  0  0  0  0  0  0  0  0  0  0
   50.0071   11.8948    8.4047 C   0  0  0  0  0  0  0  0  0  0  0  0
   48.1543   12.1806    9.9379 C   0  0  0  0  0  0  0  0  0  0  0  0
   47.4289   11.1708    9.2921 C   0  0  0  0  0  0  0  0  0  0  0  0
   48.0583   10.4856    8.2398 C   0  0  0  0  0  0  0  0  0  0  0  0
   49.3127   10.8600    7.7922 C   0  0  0  0  0  0  0  0  0  0  0  0
   49.4237   12.5269    9.5053 C   0  0  0  0  0  0  0  0  0  0  0  0
   51.3303   12.3364    7.8720 C   0  0  0  0  0  0  0  0  0  0  0  0
   51.7616   11.8747    6.8133 O   0  0  0  0  0  0  0  0  0  0  0  0
   52.1120   13.3686    8.6125 C   0  0  0  0  0  0  0  0  0  0  0  0
 15 14  1  0  0  0
 35 34  2  0  0  0
 23 22  2  0  0  0
 32 31  2  0  0  0
 32 28  1  0  0  0
 26 21  1  0  0  0
 26 27  1  0  0  0
 31 30  1  0  0  0
 11 14  2  0  0  0
 11 10  1  0  0  0
 21 20  1  0  0  0
 14 13  1  0  0  0
 10 17  2  0  0  0
 13 12  1  0  0  0
 13 16  2  0  0  0
 34 28  1  0  0  0
 34 36  1  0  0  0
 22 20  1  0  0  0
 22 19  1  0  0  0
 28 33  2  0  0  0
 17 16  1  0  0  0
 17  6  1  0  0  0
 20 24  1  0  0  0
 30 27  1  0  0  0
 30 29  2  0  0  0
 27 25  1  0  0  0
  4  3  1  0  0  0
  4  5  1  0  0  0
  6  7  1  0  0  0
  3  1  1  0  0  0
  8  7  2  0  0  0
  5 19  1  0  0  0
  5  2  1  0  0  0
  7  1  1  0  0  0
 33 29  1  0  0  0
 24 25  1  0  0  0
  1  2  1  0  0  0
  6  9  1  0  0  0
 15 18  1  0  0  0
M  END
> <minimizedAffinity>
-9.84682

$$$$
4QYY_3G7_A_401


 36 39  0  0  0  0  0  0  0  0999 V2000
   45.3313   10.2526   10.2425 C   0  0  0  0  0  0  0  0  0  0  0  0
   46.4641   10.1972    9.2028 C   0  0  0  0  0  0  0  0  0  0  0  0
   45.9282    9.3865   11.3846 C   0  0  0  0  0  0  0  0  0  0  0  0
   47.2953    8.8984   10.9464 C   0  0  0  0  0  0  0  0  0  0  0  0
   47.7285    9.9463    9.9865 N   0  0  0  0  0  0  0  0  0  0  0  0
   46.1582   12.3341   11.0988 N   0  0  0  0  0  0  0  0  0  0  0  0
   45.0543   11.6398   10.7605 C   0  0  0  0  0  0  0  0  0  0  0  0
   43.9085   12.0778   10.8602 O   0  0  0  0  0  0  0  0  0  0  0  0
   47.0142   11.8844   10.9136 H   0  0  0  0  0  0  0  0  0  0  0  0
   47.4623   14.2453   11.9947 C   0  0  0  0  0  0  0  0  0  0  0  0
   47.4676   15.5203   12.5411 C   0  0  0  0  0  0  0  0  0  0  0  0
   43.5743   16.3582   12.7953 Cl  0  0  0  0  0  0  0  0  0  0  0  0
   45.0765   15.5575   12.4602 C   0  0  0  0  0  0  0  0  0  0  0  0
   46.2710   16.1962   12.7699 C   0  0  0  0  0  0  0  0  0  0  0  0
   46.2234   17.4577   13.2644 O   0  0  0  0  0  0  0  0  0  0  0  0
   45.0574   14.2833   11.9280 C   0  0  0  0  0  0  0  0  0  0  0  0
   46.2604   13.6212   11.6841 C   0  0  0  0  0  0  0  0  0  0  0  0
   47.0171   17.9067   13.4798 H   0  0  0  0  0  0  0  0  0  0  0  0
   48.8223    9.6034    9.0259 C   0  0  0  0  0  0  0  0  0  0  0  0
   49.6341   11.4986    7.7156 N   0  0  0  0  0  0  0  0  0  0  0  0
   49.5769   12.5341    6.6930 C   0  0  0  0  0  0  0  0  0  0  0  0
   48.7271   10.5074    7.8030 C   0  0  0  0  0  0  0  0  0  0  0  0
   47.8332   10.3644    6.9729 O   0  0  0  0  0  0  0  0  0  0  0  0
   50.5713   11.9565    8.7365 C   0  0  0  0  0  0  0  0  0  0  0  0
   49.9674   13.1454    9.4497 C   0  0  0  0  0  0  0  0  0  0  0  0
   48.9353   13.7577    7.2792 C   0  0  0  0  0  0  0  0  0  0  0  0
   49.6169   14.2185    8.5032 N   0  0  0  0  0  0  0  0  0  0  0  0
   48.1242   17.9744    9.8412 C   0  0  0  0  0  0  0  0  0  0  0  0
   47.7746   15.8677    8.6990 C   0  0  0  0  0  0  0  0  0  0  0  0
   49.0687   15.4435    9.0281 C   0  0  0  0  0  0  0  0  0  0  0  0
   49.8472   16.2886    9.8359 C   0  0  0  0  0  0  0  0  0  0  0  0
   49.3895   17.5388   10.2121 C   0  0  0  0  0  0  0  0  0  0  0  0
   47.3109   17.1071    9.1081 C   0  0  0  0  0  0  0  0  0  0  0  0
   47.6652   19.3509   10.1939 C   0  0  0  0  0  0  0  0  0  0  0  0
   46.7691   19.5155   11.0245 O   0  0  0  0  0  0  0  0  0  0  0  0
   48.3243   20.5291    9.5598 C   0  0  0  0  0  0  0  0  0  0  0  0
 15 14  1  0  0  0
 35 34  2  0  0  0
 23 22  2  0  0  0
 32 31  2  0  0  0
 32 28  1  0  0  0
 26 21  1  0  0  0
 26 27  1  0  0  0
 31 30  1  0  0  0
 11 14  2  0  0  0
 11 10  1  0  0  0
 21 20  1  0  0  0
 14 13  1  0  0  0
 10 17  2  0  0  0
 13 12  1  0  0  0
 13 16  2  0  0  0
 34 28  1  0  0  0
 34 36  1  0  0  0
 22 20  1  0  0  0
 22 19  1  0  0  0
 28 33  2  0  0  0
 17 16  1  0  0  0
 17  6  1  0  0  0
 20 24  1  0  0  0
 30 27  1  0  0  0
 30 29  2  0  0  0
 27 25  1  0  0  0
  4  3  1  0  0  0
  4  5  1  0  0  0
  6  7  1  0  0  0
  3  1  1  0  0  0
  8  7  2  0  0  0
  5 19  1  0  0  0
  5  2  1  0  0  0
  7  1  1  0  0  0
 33 29  1  0  0  0
 24 25  1  0  0  0
  1  2  1  0  0  0
  6  9  1  0  0  0
 15 18  1  0  0  0
M  END
> <minimizedAffinity>
-9.83520

$$$$
4QYY_3G7_A_401


 36 39  0  0  0  0  0  0  0  0999 V2000
   49.1630   22.1139    9.1099 C   0  0  0  0  0  0  0  0  0  0  0  0
   49.1982   20.6308    9.5177 C   0  0  0  0  0  0  0  0  0  0  0  0
   48.7113   22.0081    7.6281 C   0  0  0  0  0  0  0  0  0  0  0  0
   48.5369   20.5408    7.2879 C   0  0  0  0  0  0  0  0  0  0  0  0
   48.2216   19.9310    8.6054 N   0  0  0  0  0  0  0  0  0  0  0  0
   46.9837   23.1050    9.2444 N   0  0  0  0  0  0  0  0  0  0  0  0
   48.1578   22.9287    9.8812 C   0  0  0  0  0  0  0  0  0  0  0  0
   48.4119   23.3865   10.9950 O   0  0  0  0  0  0  0  0  0  0  0  0
   46.8944   22.6352    8.3838 H   0  0  0  0  0  0  0  0  0  0  0  0
   45.3952   24.9889    8.9552 C   0  0  0  0  0  0  0  0  0  0  0  0
   44.2674   25.6632    9.3998 C   0  0  0  0  0  0  0  0  0  0  0  0
   43.2460   23.5756   12.6438 Cl  0  0  0  0  0  0  0  0  0  0  0  0
   44.0557   24.1056   11.2038 C   0  0  0  0  0  0  0  0  0  0  0  0
   43.5773   25.2203   10.5261 C   0  0  0  0  0  0  0  0  0  0  0  0
   42.4481   25.8196   10.9779 O   0  0  0  0  0  0  0  0  0  0  0  0
   45.1848   23.4334   10.7790 C   0  0  0  0  0  0  0  0  0  0  0  0
   45.8587   23.8719    9.6393 C   0  0  0  0  0  0  0  0  0  0  0  0
   42.1083   26.5725   10.5358 H   0  0  0  0  0  0  0  0  0  0  0  0
   48.4080   18.4545    8.7533 C   0  0  0  0  0  0  0  0  0  0  0  0
   48.6962   17.0658   10.7424 N   0  0  0  0  0  0  0  0  0  0  0  0
   48.3078   16.4405   11.9991 C   0  0  0  0  0  0  0  0  0  0  0  0
   47.9611   18.0224   10.1445 C   0  0  0  0  0  0  0  0  0  0  0  0
   46.9507   18.4900   10.6632 O   0  0  0  0  0  0  0  0  0  0  0  0
   49.7442   16.2354   10.1571 C   0  0  0  0  0  0  0  0  0  0  0  0
   49.1383   14.9145    9.7391 C   0  0  0  0  0  0  0  0  0  0  0  0
   47.6361   15.1319   11.7007 C   0  0  0  0  0  0  0  0  0  0  0  0
   48.4742   14.2458   10.8715 N   0  0  0  0  0  0  0  0  0  0  0  0
   46.9628   10.3048   10.3157 C   0  0  0  0  0  0  0  0  0  0  0  0
   47.0584   12.3484   11.6116 C   0  0  0  0  0  0  0  0  0  0  0  0
   47.8814   12.9510   10.6511 C   0  0  0  0  0  0  0  0  0  0  0  0
   48.1697   12.2198    9.4869 C   0  0  0  0  0  0  0  0  0  0  0  0
   47.7374   10.9141    9.3375 C   0  0  0  0  0  0  0  0  0  0  0  0
   46.6015   11.0523   11.4389 C   0  0  0  0  0  0  0  0  0  0  0  0
   46.5582    8.8741   10.1770 C   0  0  0  0  0  0  0  0  0  0  0  0
   45.5826    8.4397   10.7930 O   0  0  0  0  0  0  0  0  0  0  0  0
   47.3225    7.9811    9.2587 C   0  0  0  0  0  0  0  0  0  0  0  0
 15 14  1  0  0  0
 35 34  2  0  0  0
 23 22  2  0  0  0
 32 31  2  0  0  0
 32 28  1  0  0  0
 26 21  1  0  0  0
 26 27  1  0  0  0
 31 30  1  0  0  0
 11 14  2  0  0  0
 11 10  1  0  0  0
 21 20  1  0  0  0
 14 13  1  0  0  0
 10 17  2  0  0  0
 13 12  1  0  0  0
 13 16  2  0  0  0
 34 28  1  0  0  0
 34 36  1  0  0  0
 22 20  1  0  0  0
 22 19  1  0  0  0
 28 33  2  0  0  0
 17 16  1  0  0  0
 17  6  1  0  0  0
 20 24  1  0  0  0
 30 27  1  0  0  0
 30 29  2  0  0  0
 27 25  1  0  0  0
  4  3  1  0  0  0
  4  5  1  0  0  0
  6  7  1  0  0  0
  3  1  1  0  0  0
  8  7  2  0  0  0
  5 19  1  0  0  0
  5  2  1  0  0  0
  7  1  1  0  0  0
 33 29  1  0  0  0
 24 25  1  0  0  0
  1  2  1  0  0  0
  6  9  1  0  0  0
 15 18  1  0  0  0
M  END
> <minimizedAffinity>
-9.69997

$$$$
4QYY_3G7_A_401


 36 39  0  0  0  0  0  0  0  0999 V2000
   48.5600   16.2509   10.7200 C   0  0  0  0  0  0  0  0  0  0  0  0
   47.8368   16.3146   12.0765 C   0  0  0  0  0  0  0  0  0  0  0  0
   47.4303   15.7111    9.8016 C   0  0  0  0  0  0  0  0  0  0  0  0
   46.1915   15.4947   10.6488 C   0  0  0  0  0  0  0  0  0  0  0  0
   46.3716   16.4716   11.7536 N   0  0  0  0  0  0  0  0  0  0  0  0
   48.0135   18.4661    9.9821 N   0  0  0  0  0  0  0  0  0  0  0  0
   49.0148   17.5951   10.2144 C   0  0  0  0  0  0  0  0  0  0  0  0
   50.2050   17.8509   10.0335 O   0  0  0  0  0  0  0  0  0  0  0  0
   47.1132   18.1501   10.2247 H   0  0  0  0  0  0  0  0  0  0  0  0
   48.4337   20.0579    8.1259 C   0  0  0  0  0  0  0  0  0  0  0  0
   48.4386   21.3681    7.6704 C   0  0  0  0  0  0  0  0  0  0  0  0
   47.3121   23.4047   10.9119 Cl  0  0  0  0  0  0  0  0  0  0  0  0
   47.7167   22.1132    9.8266 C   0  0  0  0  0  0  0  0  0  0  0  0
   48.0681   22.4117    8.5158 C   0  0  0  0  0  0  0  0  0  0  0  0
   48.0179   23.7039    8.1085 O   0  0  0  0  0  0  0  0  0  0  0  0
   47.7205   20.8143   10.2959 C   0  0  0  0  0  0  0  0  0  0  0  0
   48.0740   19.7734    9.4375 C   0  0  0  0  0  0  0  0  0  0  0  0
   48.2507   23.9272    7.2288 H   0  0  0  0  0  0  0  0  0  0  0  0
   45.5838   16.2602   13.0071 C   0  0  0  0  0  0  0  0  0  0  0  0
   44.5973   14.0319   13.1781 N   0  0  0  0  0  0  0  0  0  0  0  0
   43.6668   12.9581   12.8581 C   0  0  0  0  0  0  0  0  0  0  0  0
   44.4397   15.2923   12.7315 C   0  0  0  0  0  0  0  0  0  0  0  0
   43.4525   15.6391   12.0882 O   0  0  0  0  0  0  0  0  0  0  0  0
   45.8043   13.4078   13.7109 C   0  0  0  0  0  0  0  0  0  0  0  0
   46.4884   12.6477   12.5969 C   0  0  0  0  0  0  0  0  0  0  0  0
   44.2223   12.1620   11.7134 C   0  0  0  0  0  0  0  0  0  0  0  0
   45.5824   11.6603   11.9850 N   0  0  0  0  0  0  0  0  0  0  0  0
   47.3569    9.2538    8.9543 C   0  0  0  0  0  0  0  0  0  0  0  0
   46.3099    9.4487   11.1293 C   0  0  0  0  0  0  0  0  0  0  0  0
   46.0948   10.8192   10.9330 C   0  0  0  0  0  0  0  0  0  0  0  0
   46.4614   11.3666    9.6925 C   0  0  0  0  0  0  0  0  0  0  0  0
   47.1019   10.6010    8.7345 C   0  0  0  0  0  0  0  0  0  0  0  0
   46.9213    8.6814   10.1516 C   0  0  0  0  0  0  0  0  0  0  0  0
   48.1088    8.4522    7.9434 C   0  0  0  0  0  0  0  0  0  0  0  0
   47.6698    7.3670    7.5567 O   0  0  0  0  0  0  0  0  0  0  0  0
   49.3790    8.9911    7.3770 C   0  0  0  0  0  0  0  0  0  0  0  0
 15 14  1  0  0  0
 35 34  2  0  0  0
 23 22  2  0  0  0
 32 31  2  0  0  0
 32 28  1  0  0  0
 26 21  1  0  0  0
 26 27  1  0  0  0
 31 30  1  0  0  0
 11 14  2  0  0  0
 11 10  1  0  0  0
 21 20  1  0  0  0
 14 13  1  0  0  0
 10 17  2  0  0  0
 13 12  1  0  0  0
 13 16  2  0  0  0
 34 28  1  0  0  0
 34 36  1  0  0  0
 22 20  1  0  0  0
 22 19  1  0  0  0
 28 33  2  0  0  0
 17 16  1  0  0  0
 17  6  1  0  0  0
 20 24  1  0  0  0
 30 27  1  0  0  0
 30 29  2  0  0  0
 27 25  1  0  0  0
  4  3  1  0  0  0
  4  5  1  0  0  0
  6  7  1  0  0  0
  3  1  1  0  0  0
  8  7  2  0  0  0
  5 19  1  0  0  0
  5  2  1  0  0  0
  7  1  1  0  0  0
 33 29  1  0  0  0
 24 25  1  0  0  0
  1  2  1  0  0  0
  6  9  1  0  0  0
 15 18  1  0  0  0
M  END
> <minimizedAffinity>
-9.65897

$$$$
