5H85_5XS_A_1201


 24 26  0  0  0  0  0  0  0  0999 V2000
  -15.0308  -10.1906   24.1515 C   0  0  0  0  0  0  0  0  0  0  0  0
  -16.1075   -9.2331   23.8666 N   0  0  0  0  0  0  0  0  0  0  0  0
  -15.0158  -11.2682   23.6800 O   0  0  0  0  0  0  0  0  0  0  0  0
  -16.0926   -8.3694   24.3389 H   0  0  0  0  0  0  0  0  0  0  0  0
  -17.2178   -9.4841   22.9114 C   0  0  0  0  0  0  0  0  0  0  0  0
  -19.1207  -10.6257   22.2619 C   0  0  0  0  0  0  0  0  0  0  0  0
  -18.5008   -8.7279   20.9847 C   0  0  0  0  0  0  0  0  0  0  0  0
  -17.4338   -8.5338   21.8249 C   0  0  0  0  0  0  0  0  0  0  0  0
  -18.0921  -10.4814   23.1003 N   0  0  0  0  0  0  0  0  0  0  0  0
  -19.3371   -9.7858   21.2242 N   0  0  0  0  0  0  0  0  0  0  0  0
  -18.4666   -7.7444   20.0591 N   0  0  0  0  0  0  0  0  0  0  0  0
  -17.4277   -6.9699   20.3024 C   0  0  0  0  0  0  0  0  0  0  0  0
  -16.7848   -7.4407   21.3777 N   0  0  0  0  0  0  0  0  0  0  0  0
  -15.9723   -7.0528   21.7759 H   0  0  0  0  0  0  0  0  0  0  0  0
  -12.8643   -8.9466   24.5523 C   0  0  0  0  0  0  0  0  0  0  0  0
  -11.9054   -8.4623   25.4124 C   0  0  0  0  0  0  0  0  0  0  0  0
  -11.9790   -8.7046   26.7794 C   0  0  0  0  0  0  0  0  0  0  0  0
  -13.0431   -9.4309   27.2963 C   0  0  0  0  0  0  0  0  0  0  0  0
  -14.0103   -9.9092   26.4413 C   0  0  0  0  0  0  0  0  0  0  0  0
  -13.9156   -9.6878   25.0642 C   0  0  0  0  0  0  0  0  0  0  0  0
  -10.7673   -7.6815   24.8322 C   0  0  0  0  0  0  0  0  0  0  0  0
   -9.9028   -7.2332   25.5437 O   0  0  0  0  0  0  0  0  0  0  0  0
  -10.2269   -6.1858   23.0618 C   0  0  0  0  0  0  0  0  0  0  0  0
  -10.7176   -7.4820   23.3968 O   0  0  0  0  0  0  0  0  0  0  0  0
 23 24  1  0  0  0
 22 21  2  0  0  0
 24 21  1  0  0  0
 21 16  1  0  0  0
 16 17  2  0  0  0
 16 15  1  0  0  0
 17 18  1  0  0  0
 15 20  2  0  0  0
 18 19  2  0  0  0
 20 19  1  0  0  0
 20  1  1  0  0  0
 12 13  1  0  0  0
 12 11  2  0  0  0
 13  8  1  0  0  0
  3  1  2  0  0  0
  1  2  1  0  0  0
 11  7  1  0  0  0
  2  5  1  0  0  0
  8  7  2  0  0  0
  8  5  1  0  0  0
  7 10  1  0  0  0
  5  9  2  0  0  0
 10  6  2  0  0  0
  9  6  1  0  0  0
  2  4  1  0  0  0
 13 14  1  0  0  0
M  END
> <minimizedAffinity>
-7.43750

$$$$
5H85_5XS_A_1201


 24 26  0  0  0  0  0  0  0  0999 V2000
  -15.6684   -9.3652   23.3759 C   0  0  0  0  0  0  0  0  0  0  0  0
  -16.1346   -8.0250   22.9967 N   0  0  0  0  0  0  0  0  0  0  0  0
  -16.1805  -10.3413   22.9651 O   0  0  0  0  0  0  0  0  0  0  0  0
  -15.7015   -7.2495   23.4212 H   0  0  0  0  0  0  0  0  0  0  0  0
  -17.2179   -7.7642   22.0134 C   0  0  0  0  0  0  0  0  0  0  0  0
  -17.9512   -7.0588   19.9372 C   0  0  0  0  0  0  0  0  0  0  0  0
  -19.5442   -8.0783   21.3656 C   0  0  0  0  0  0  0  0  0  0  0  0
  -18.5601   -8.2582   22.3044 C   0  0  0  0  0  0  0  0  0  0  0  0
  -16.9634   -7.2052   20.8229 N   0  0  0  0  0  0  0  0  0  0  0  0
  -19.2150   -7.4738   20.1815 N   0  0  0  0  0  0  0  0  0  0  0  0
  -20.6850   -8.5900   21.8772 N   0  0  0  0  0  0  0  0  0  0  0  0
  -20.4330   -9.0670   23.0803 C   0  0  0  0  0  0  0  0  0  0  0  0
  -19.1384   -8.8696   23.3569 N   0  0  0  0  0  0  0  0  0  0  0  0
  -18.6840   -9.1283   24.1910 H   0  0  0  0  0  0  0  0  0  0  0  0
  -13.3267   -8.6620   24.0268 C   0  0  0  0  0  0  0  0  0  0  0  0
  -12.2745   -8.6856   24.9135 C   0  0  0  0  0  0  0  0  0  0  0  0
  -12.3321   -9.4461   26.0758 C   0  0  0  0  0  0  0  0  0  0  0  0
  -13.4727  -10.1831   26.3638 C   0  0  0  0  0  0  0  0  0  0  0  0
  -14.5319  -10.1552   25.4850 C   0  0  0  0  0  0  0  0  0  0  0  0
  -14.4570   -9.4122   24.3032 C   0  0  0  0  0  0  0  0  0  0  0  0
  -11.0550   -7.8827   24.5820 C   0  0  0  0  0  0  0  0  0  0  0  0
  -10.2763   -7.5617   25.4453 O   0  0  0  0  0  0  0  0  0  0  0  0
  -10.1638   -6.2444   23.1038 C   0  0  0  0  0  0  0  0  0  0  0  0
  -10.8213   -7.5058   23.2014 O   0  0  0  0  0  0  0  0  0  0  0  0
 23 24  1  0  0  0
 22 21  2  0  0  0
 24 21  1  0  0  0
 21 16  1  0  0  0
 16 17  2  0  0  0
 16 15  1  0  0  0
 17 18  1  0  0  0
 15 20  2  0  0  0
 18 19  2  0  0  0
 20 19  1  0  0  0
 20  1  1  0  0  0
 12 13  1  0  0  0
 12 11  2  0  0  0
 13  8  1  0  0  0
  3  1  2  0  0  0
  1  2  1  0  0  0
 11  7  1  0  0  0
  2  5  1  0  0  0
  8  7  2  0  0  0
  8  5  1  0  0  0
  7 10  1  0  0  0
  5  9  2  0  0  0
 10  6  2  0  0  0
  9  6  1  0  0  0
  2  4  1  0  0  0
 13 14  1  0  0  0
M  END
> <minimizedAffinity>
-7.43323

$$$$
5H85_5XS_A_1201


 24 26  0  0  0  0  0  0  0  0999 V2000
  -12.7090   -9.4071   26.9717 C   0  0  0  0  0  0  0  0  0  0  0  0
  -13.7284  -10.4634   26.9240 N   0  0  0  0  0  0  0  0  0  0  0  0
  -12.2167   -9.0630   27.9832 O   0  0  0  0  0  0  0  0  0  0  0  0
  -14.1437  -10.6637   26.0542 H   0  0  0  0  0  0  0  0  0  0  0  0
  -14.1735  -11.2491   28.1042 C   0  0  0  0  0  0  0  0  0  0  0  0
  -15.7002  -11.7152   29.7770 C   0  0  0  0  0  0  0  0  0  0  0  0
  -13.8963  -13.2269   29.4977 C   0  0  0  0  0  0  0  0  0  0  0  0
  -13.4436  -12.4646   28.4507 C   0  0  0  0  0  0  0  0  0  0  0  0
  -15.2935  -10.9386   28.7704 N   0  0  0  0  0  0  0  0  0  0  0  0
  -15.0341  -12.8318   30.1497 N   0  0  0  0  0  0  0  0  0  0  0  0
  -13.0454  -14.2674   29.6336 N   0  0  0  0  0  0  0  0  0  0  0  0
  -12.1015  -14.1649   28.7187 C   0  0  0  0  0  0  0  0  0  0  0  0
  -12.3297  -13.0664   27.9889 N   0  0  0  0  0  0  0  0  0  0  0  0
  -11.7757  -12.7504   27.2390 H   0  0  0  0  0  0  0  0  0  0  0  0
  -11.2613   -7.9027   25.5426 C   0  0  0  0  0  0  0  0  0  0  0  0
  -10.8844   -7.4290   24.3066 C   0  0  0  0  0  0  0  0  0  0  0  0
  -11.5288   -7.8507   23.1492 C   0  0  0  0  0  0  0  0  0  0  0  0
  -12.5587   -8.7779   23.2302 C   0  0  0  0  0  0  0  0  0  0  0  0
  -12.9331   -9.2623   24.4632 C   0  0  0  0  0  0  0  0  0  0  0  0
  -12.3014   -8.8126   25.6264 C   0  0  0  0  0  0  0  0  0  0  0  0
   -9.7710   -6.4300   24.2440 C   0  0  0  0  0  0  0  0  0  0  0  0
   -9.1785   -6.1057   25.2432 O   0  0  0  0  0  0  0  0  0  0  0  0
   -9.1839   -4.4608   23.0436 C   0  0  0  0  0  0  0  0  0  0  0  0
   -9.4107   -5.8658   22.9577 O   0  0  0  0  0  0  0  0  0  0  0  0
 23 24  1  0  0  0
 22 21  2  0  0  0
 24 21  1  0  0  0
 21 16  1  0  0  0
 16 17  2  0  0  0
 16 15  1  0  0  0
 17 18  1  0  0  0
 15 20  2  0  0  0
 18 19  2  0  0  0
 20 19  1  0  0  0
 20  1  1  0  0  0
 12 13  1  0  0  0
 12 11  2  0  0  0
 13  8  1  0  0  0
  3  1  2  0  0  0
  1  2  1  0  0  0
 11  7  1  0  0  0
  2  5  1  0  0  0
  8  7  2  0  0  0
  8  5  1  0  0  0
  7 10  1  0  0  0
  5  9  2  0  0  0
 10  6  2  0  0  0
  9  6  1  0  0  0
  2  4  1  0  0  0
 13 14  1  0  0  0
M  END
> <minimizedAffinity>
-7.08048

$$$$
5H85_5XS_A_1201


 24 26  0  0  0  0  0  0  0  0999 V2000
  -15.5016   -8.7655   23.5939 C   0  0  0  0  0  0  0  0  0  0  0  0
  -14.6392   -9.5996   24.4412 N   0  0  0  0  0  0  0  0  0  0  0  0
  -15.3799   -7.5966   23.5424 O   0  0  0  0  0  0  0  0  0  0  0  0
  -14.8308  -10.5642   24.4850 H   0  0  0  0  0  0  0  0  0  0  0  0
  -13.4960   -9.0811   25.2365 C   0  0  0  0  0  0  0  0  0  0  0  0
  -12.3424   -8.8544   27.2275 C   0  0  0  0  0  0  0  0  0  0  0  0
  -11.2831   -8.0649   25.2598 C   0  0  0  0  0  0  0  0  0  0  0  0
  -12.3684   -8.4804   24.5308 C   0  0  0  0  0  0  0  0  0  0  0  0
  -13.4227   -9.2674   26.5611 N   0  0  0  0  0  0  0  0  0  0  0  0
  -11.2909   -8.2643   26.6148 N   0  0  0  0  0  0  0  0  0  0  0  0
  -10.3992   -7.5262   24.3916 N   0  0  0  0  0  0  0  0  0  0  0  0
  -10.9036   -7.5964   23.1755 C   0  0  0  0  0  0  0  0  0  0  0  0
  -12.1083   -8.1754   23.2441 N   0  0  0  0  0  0  0  0  0  0  0  0
  -12.7056   -8.3496   22.4811 H   0  0  0  0  0  0  0  0  0  0  0  0
  -17.3406   -8.8326   21.8574 C   0  0  0  0  0  0  0  0  0  0  0  0
  -18.2250   -9.5447   21.0798 C   0  0  0  0  0  0  0  0  0  0  0  0
  -18.3204  -10.9277   21.1842 C   0  0  0  0  0  0  0  0  0  0  0  0
  -17.5016  -11.6119   22.0721 C   0  0  0  0  0  0  0  0  0  0  0  0
  -16.6082  -10.9054   22.8453 C   0  0  0  0  0  0  0  0  0  0  0  0
  -16.5373   -9.5120   22.7575 C   0  0  0  0  0  0  0  0  0  0  0  0
  -19.0976   -8.7853   20.1292 C   0  0  0  0  0  0  0  0  0  0  0  0
  -19.7225   -9.3616   19.2736 O   0  0  0  0  0  0  0  0  0  0  0  0
  -20.3705   -6.9499   20.9503 C   0  0  0  0  0  0  0  0  0  0  0  0
  -19.1858   -7.3441   20.2617 O   0  0  0  0  0  0  0  0  0  0  0  0
 23 24  1  0  0  0
 22 21  2  0  0  0
 24 21  1  0  0  0
 21 16  1  0  0  0
 16 17  2  0  0  0
 16 15  1  0  0  0
 17 18  1  0  0  0
 15 20  2  0  0  0
 18 19  2  0  0  0
 20 19  1  0  0  0
 20  1  1  0  0  0
 12 13  1  0  0  0
 12 11  2  0  0  0
 13  8  1  0  0  0
  3  1  2  0  0  0
  1  2  1  0  0  0
 11  7  1  0  0  0
  2  5  1  0  0  0
  8  7  2  0  0  0
  8  5  1  0  0  0
  7 10  1  0  0  0
  5  9  2  0  0  0
 10  6  2  0  0  0
  9  6  1  0  0  0
  2  4  1  0  0  0
 13 14  1  0  0  0
M  END
> <minimizedAffinity>
-6.80292

$$$$
5H85_5XS_A_1201


 24 26  0  0  0  0  0  0  0  0999 V2000
  -13.4871  -11.0099   27.8783 C   0  0  0  0  0  0  0  0  0  0  0  0
  -13.9711  -12.3923   27.7690 N   0  0  0  0  0  0  0  0  0  0  0  0
  -13.1287  -10.5555   28.9024 O   0  0  0  0  0  0  0  0  0  0  0  0
  -14.3120  -12.6933   26.8958 H   0  0  0  0  0  0  0  0  0  0  0  0
  -13.9794  -13.3660   28.8916 C   0  0  0  0  0  0  0  0  0  0  0  0
  -15.0648  -14.8833   30.2576 C   0  0  0  0  0  0  0  0  0  0  0  0
  -12.7074  -14.7350   30.4529 C   0  0  0  0  0  0  0  0  0  0  0  0
  -12.7036  -13.7844   29.4638 C   0  0  0  0  0  0  0  0  0  0  0  0
  -15.1110  -13.9568   29.2978 N   0  0  0  0  0  0  0  0  0  0  0  0
  -13.9065  -15.2752   30.8355 N   0  0  0  0  0  0  0  0  0  0  0  0
  -11.4244  -14.9261   30.8305 N   0  0  0  0  0  0  0  0  0  0  0  0
  -10.6502  -14.1333   30.1162 C   0  0  0  0  0  0  0  0  0  0  0  0
  -11.4176  -13.4271   29.2774 N   0  0  0  0  0  0  0  0  0  0  0  0
  -11.0960  -12.7575   28.6313 H   0  0  0  0  0  0  0  0  0  0  0  0
  -12.3415   -9.4347   26.2634 C   0  0  0  0  0  0  0  0  0  0  0  0
  -12.3106   -8.7748   25.0561 C   0  0  0  0  0  0  0  0  0  0  0  0
  -13.3617   -8.8816   24.1525 C   0  0  0  0  0  0  0  0  0  0  0  0
  -14.4566   -9.6788   24.4569 C   0  0  0  0  0  0  0  0  0  0  0  0
  -14.4881  -10.3489   25.6590 C   0  0  0  0  0  0  0  0  0  0  0  0
  -13.4419  -10.2144   26.5765 C   0  0  0  0  0  0  0  0  0  0  0  0
  -11.1194   -7.9211   24.7496 C   0  0  0  0  0  0  0  0  0  0  0  0
  -10.3782   -7.5603   25.6300 O   0  0  0  0  0  0  0  0  0  0  0  0
  -10.0852   -6.3540   23.2874 C   0  0  0  0  0  0  0  0  0  0  0  0
  -10.8669   -7.5434   23.3726 O   0  0  0  0  0  0  0  0  0  0  0  0
 23 24  1  0  0  0
 22 21  2  0  0  0
 24 21  1  0  0  0
 21 16  1  0  0  0
 16 17  2  0  0  0
 16 15  1  0  0  0
 17 18  1  0  0  0
 15 20  2  0  0  0
 18 19  2  0  0  0
 20 19  1  0  0  0
 20  1  1  0  0  0
 12 13  1  0  0  0
 12 11  2  0  0  0
 13  8  1  0  0  0
  3  1  2  0  0  0
  1  2  1  0  0  0
 11  7  1  0  0  0
  2  5  1  0  0  0
  8  7  2  0  0  0
  8  5  1  0  0  0
  7 10  1  0  0  0
  5  9  2  0  0  0
 10  6  2  0  0  0
  9  6  1  0  0  0
  2  4  1  0  0  0
 13 14  1  0  0  0
M  END
> <minimizedAffinity>
-6.70708

$$$$
5H85_5XS_A_1201


 24 26  0  0  0  0  0  0  0  0999 V2000
  -15.3870   -9.2777   23.7167 C   0  0  0  0  0  0  0  0  0  0  0  0
  -14.4179   -9.9297   24.6073 N   0  0  0  0  0  0  0  0  0  0  0  0
  -15.4132   -8.1103   23.5740 O   0  0  0  0  0  0  0  0  0  0  0  0
  -14.4867  -10.9043   24.7281 H   0  0  0  0  0  0  0  0  0  0  0  0
  -13.3403   -9.2130   25.3375 C   0  0  0  0  0  0  0  0  0  0  0  0
  -12.2130   -8.6779   27.2841 C   0  0  0  0  0  0  0  0  0  0  0  0
  -11.2621   -7.9475   25.2398 C   0  0  0  0  0  0  0  0  0  0  0  0
  -12.2941   -8.5496   24.5657 C   0  0  0  0  0  0  0  0  0  0  0  0
  -13.2401   -9.2715   26.6721 N   0  0  0  0  0  0  0  0  0  0  0  0
  -11.2408   -8.0257   26.6070 N   0  0  0  0  0  0  0  0  0  0  0  0
  -10.4513   -7.3881   24.3151 N   0  0  0  0  0  0  0  0  0  0  0  0
  -10.9490   -7.6241   23.1172 C   0  0  0  0  0  0  0  0  0  0  0  0
  -12.0770   -8.3314   23.2537 N   0  0  0  0  0  0  0  0  0  0  0  0
  -12.6528   -8.6410   22.5176 H   0  0  0  0  0  0  0  0  0  0  0  0
  -16.1251  -11.5790   22.9679 C   0  0  0  0  0  0  0  0  0  0  0  0
  -17.0263  -12.3940   22.3216 C   0  0  0  0  0  0  0  0  0  0  0  0
  -18.1326  -11.8640   21.6674 C   0  0  0  0  0  0  0  0  0  0  0  0
  -18.3495  -10.4929   21.6761 C   0  0  0  0  0  0  0  0  0  0  0  0
  -17.4564   -9.6741   22.3296 C   0  0  0  0  0  0  0  0  0  0  0  0
  -16.3298  -10.2098   22.9606 C   0  0  0  0  0  0  0  0  0  0  0  0
  -16.7718  -13.8694   22.3258 C   0  0  0  0  0  0  0  0  0  0  0  0
  -17.5475  -14.6289   21.8005 O   0  0  0  0  0  0  0  0  0  0  0  0
  -15.8696  -15.1049   24.1487 C   0  0  0  0  0  0  0  0  0  0  0  0
  -15.5699  -14.3687   22.9650 O   0  0  0  0  0  0  0  0  0  0  0  0
 23 24  1  0  0  0
 22 21  2  0  0  0
 24 21  1  0  0  0
 21 16  1  0  0  0
 16 17  2  0  0  0
 16 15  1  0  0  0
 17 18  1  0  0  0
 15 20  2  0  0  0
 18 19  2  0  0  0
 20 19  1  0  0  0
 20  1  1  0  0  0
 12 13  1  0  0  0
 12 11  2  0  0  0
 13  8  1  0  0  0
  3  1  2  0  0  0
  1  2  1  0  0  0
 11  7  1  0  0  0
  2  5  1  0  0  0
  8  7  2  0  0  0
  8  5  1  0  0  0
  7 10  1  0  0  0
  5  9  2  0  0  0
 10  6  2  0  0  0
  9  6  1  0  0  0
  2  4  1  0  0  0
 13 14  1  0  0  0
M  END
> <minimizedAffinity>
-6.70313

$$$$
5H85_5XS_A_1201


 24 26  0  0  0  0  0  0  0  0999 V2000
  -15.1080   -9.4315   23.7298 C   0  0  0  0  0  0  0  0  0  0  0  0
  -14.2318   -8.2764   23.4945 N   0  0  0  0  0  0  0  0  0  0  0  0
  -14.7131  -10.4201   24.2301 O   0  0  0  0  0  0  0  0  0  0  0  0
  -14.6090   -7.5017   23.0184 H   0  0  0  0  0  0  0  0  0  0  0  0
  -12.8126   -8.2020   23.9289 C   0  0  0  0  0  0  0  0  0  0  0  0
  -10.5756   -7.8008   23.5035 C   0  0  0  0  0  0  0  0  0  0  0  0
  -11.2095   -8.1454   25.7611 C   0  0  0  0  0  0  0  0  0  0  0  0
  -12.5126   -8.2837   25.3549 C   0  0  0  0  0  0  0  0  0  0  0  0
  -11.8276   -7.9360   23.0608 N   0  0  0  0  0  0  0  0  0  0  0  0
  -10.2518   -7.9017   24.8128 N   0  0  0  0  0  0  0  0  0  0  0  0
  -11.1910   -8.2863   27.1046 N   0  0  0  0  0  0  0  0  0  0  0  0
  -12.4216   -8.5050   27.5244 C   0  0  0  0  0  0  0  0  0  0  0  0
  -13.2410   -8.5086   26.4662 N   0  0  0  0  0  0  0  0  0  0  0  0
  -14.2146   -8.6518   26.4948 H   0  0  0  0  0  0  0  0  0  0  0  0
  -17.1749   -8.0126   23.3883 C   0  0  0  0  0  0  0  0  0  0  0  0
  -18.4758   -7.8790   22.9595 C   0  0  0  0  0  0  0  0  0  0  0  0
  -19.1828   -8.9675   22.4616 C   0  0  0  0  0  0  0  0  0  0  0  0
  -18.5688  -10.2096   22.3753 C   0  0  0  0  0  0  0  0  0  0  0  0
  -17.2645  -10.3464   22.7937 C   0  0  0  0  0  0  0  0  0  0  0  0
  -16.5679   -9.2551   23.3210 C   0  0  0  0  0  0  0  0  0  0  0  0
  -19.1169   -6.5299   23.0620 C   0  0  0  0  0  0  0  0  0  0  0  0
  -18.8865   -5.8090   24.0011 O   0  0  0  0  0  0  0  0  0  0  0  0
  -20.9201   -5.0984   22.4597 C   0  0  0  0  0  0  0  0  0  0  0  0
  -20.0133   -6.1009   22.0061 O   0  0  0  0  0  0  0  0  0  0  0  0
 23 24  1  0  0  0
 22 21  2  0  0  0
 24 21  1  0  0  0
 21 16  1  0  0  0
 16 17  2  0  0  0
 16 15  1  0  0  0
 17 18  1  0  0  0
 15 20  2  0  0  0
 18 19  2  0  0  0
 20 19  1  0  0  0
 20  1  1  0  0  0
 12 13  1  0  0  0
 12 11  2  0  0  0
 13  8  1  0  0  0
  3  1  2  0  0  0
  1  2  1  0  0  0
 11  7  1  0  0  0
  2  5  1  0  0  0
  8  7  2  0  0  0
  8  5  1  0  0  0
  7 10  1  0  0  0
  5  9  2  0  0  0
 10  6  2  0  0  0
  9  6  1  0  0  0
  2  4  1  0  0  0
 13 14  1  0  0  0
M  END
> <minimizedAffinity>
-6.68514

$$$$
5H85_5XS_A_1201


 24 26  0  0  0  0  0  0  0  0999 V2000
  -13.8497   -8.9049   24.3760 C   0  0  0  0  0  0  0  0  0  0  0  0
  -12.7101   -8.6123   23.4969 N   0  0  0  0  0  0  0  0  0  0  0  0
  -13.9188   -8.4749   25.4687 O   0  0  0  0  0  0  0  0  0  0  0  0
  -12.6837   -9.0506   22.6157 H   0  0  0  0  0  0  0  0  0  0  0  0
  -11.5942   -7.6974   23.8518 C   0  0  0  0  0  0  0  0  0  0  0  0
   -9.8060   -7.0965   25.1888 C   0  0  0  0  0  0  0  0  0  0  0  0
  -10.1501   -5.8465   23.2047 C   0  0  0  0  0  0  0  0  0  0  0  0
  -11.2243   -6.6467   22.9087 C   0  0  0  0  0  0  0  0  0  0  0  0
  -10.8476   -7.8952   24.9464 N   0  0  0  0  0  0  0  0  0  0  0  0
   -9.4503   -6.0916   24.3563 N   0  0  0  0  0  0  0  0  0  0  0  0
  -10.0319   -4.9471   22.2036 N   0  0  0  0  0  0  0  0  0  0  0  0
  -10.9861   -5.1681   21.3210 C   0  0  0  0  0  0  0  0  0  0  0  0
  -11.7250   -6.2028   21.7389 N   0  0  0  0  0  0  0  0  0  0  0  0
  -12.5052   -6.5775   21.2696 H   0  0  0  0  0  0  0  0  0  0  0  0
  -14.9214  -11.1461   23.8961 C   0  0  0  0  0  0  0  0  0  0  0  0
  -15.9618  -11.8891   23.3868 C   0  0  0  0  0  0  0  0  0  0  0  0
  -17.0385  -11.2777   22.7546 C   0  0  0  0  0  0  0  0  0  0  0  0
  -17.0818   -9.8944   22.6463 C   0  0  0  0  0  0  0  0  0  0  0  0
  -16.0483   -9.1459   23.1627 C   0  0  0  0  0  0  0  0  0  0  0  0
  -14.9540   -9.7677   23.7712 C   0  0  0  0  0  0  0  0  0  0  0  0
  -15.8933  -13.3792   23.5155 C   0  0  0  0  0  0  0  0  0  0  0  0
  -15.4045  -14.0504   22.6408 O   0  0  0  0  0  0  0  0  0  0  0  0
  -15.8623  -15.2983   24.9225 C   0  0  0  0  0  0  0  0  0  0  0  0
  -16.4169  -14.0010   24.7163 O   0  0  0  0  0  0  0  0  0  0  0  0
 23 24  1  0  0  0
 22 21  2  0  0  0
 24 21  1  0  0  0
 21 16  1  0  0  0
 16 17  2  0  0  0
 16 15  1  0  0  0
 17 18  1  0  0  0
 15 20  2  0  0  0
 18 19  2  0  0  0
 20 19  1  0  0  0
 20  1  1  0  0  0
 12 13  1  0  0  0
 12 11  2  0  0  0
 13  8  1  0  0  0
  3  1  2  0  0  0
  1  2  1  0  0  0
 11  7  1  0  0  0
  2  5  1  0  0  0
  8  7  2  0  0  0
  8  5  1  0  0  0
  7 10  1  0  0  0
  5  9  2  0  0  0
 10  6  2  0  0  0
  9  6  1  0  0  0
  2  4  1  0  0  0
 13 14  1  0  0  0
M  END
> <minimizedAffinity>
-6.59921

$$$$
5H85_5XS_A_1201


 24 26  0  0  0  0  0  0  0  0999 V2000
  -15.3583   -8.3154   23.3528 C   0  0  0  0  0  0  0  0  0  0  0  0
  -14.1713   -9.1731   23.4647 N   0  0  0  0  0  0  0  0  0  0  0  0
  -15.3578   -7.2005   23.7282 O   0  0  0  0  0  0  0  0  0  0  0  0
  -14.2548  -10.1137   23.1862 H   0  0  0  0  0  0  0  0  0  0  0  0
  -12.8523   -8.7126   23.9713 C   0  0  0  0  0  0  0  0  0  0  0  0
  -10.7900   -7.7157   23.6566 C   0  0  0  0  0  0  0  0  0  0  0  0
  -11.4283   -8.2167   25.8834 C   0  0  0  0  0  0  0  0  0  0  0  0
  -12.6199   -8.7068   25.4122 C   0  0  0  0  0  0  0  0  0  0  0  0
  -11.9313   -8.1888   23.1515 N   0  0  0  0  0  0  0  0  0  0  0  0
  -10.5231   -7.7219   24.9825 N   0  0  0  0  0  0  0  0  0  0  0  0
  -11.4457   -8.3449   27.2282 N   0  0  0  0  0  0  0  0  0  0  0  0
  -12.5908   -8.8911   27.5868 C   0  0  0  0  0  0  0  0  0  0  0  0
  -13.3190   -9.1204   26.4875 N   0  0  0  0  0  0  0  0  0  0  0  0
  -14.2165   -9.5244   26.4676 H   0  0  0  0  0  0  0  0  0  0  0  0
  -17.3596   -8.2164   21.8079 C   0  0  0  0  0  0  0  0  0  0  0  0
  -18.4182   -8.8339   21.1818 C   0  0  0  0  0  0  0  0  0  0  0  0
  -18.7087  -10.1731   21.4162 C   0  0  0  0  0  0  0  0  0  0  0  0
  -17.9128  -10.9120   22.2808 C   0  0  0  0  0  0  0  0  0  0  0  0
  -16.8468  -10.3016   22.9021 C   0  0  0  0  0  0  0  0  0  0  0  0
  -16.5769   -8.9471   22.6855 C   0  0  0  0  0  0  0  0  0  0  0  0
  -19.2623   -8.0171   20.2535 C   0  0  0  0  0  0  0  0  0  0  0  0
  -19.7517   -6.9778   20.6209 O   0  0  0  0  0  0  0  0  0  0  0  0
  -20.8385   -8.8321   18.6677 C   0  0  0  0  0  0  0  0  0  0  0  0
  -19.4732   -8.4932   18.9002 O   0  0  0  0  0  0  0  0  0  0  0  0
 23 24  1  0  0  0
 22 21  2  0  0  0
 24 21  1  0  0  0
 21 16  1  0  0  0
 16 17  2  0  0  0
 16 15  1  0  0  0
 17 18  1  0  0  0
 15 20  2  0  0  0
 18 19  2  0  0  0
 20 19  1  0  0  0
 20  1  1  0  0  0
 12 13  1  0  0  0
 12 11  2  0  0  0
 13  8  1  0  0  0
  3  1  2  0  0  0
  1  2  1  0  0  0
 11  7  1  0  0  0
  2  5  1  0  0  0
  8  7  2  0  0  0
  8  5  1  0  0  0
  7 10  1  0  0  0
  5  9  2  0  0  0
 10  6  2  0  0  0
  9  6  1  0  0  0
  2  4  1  0  0  0
 13 14  1  0  0  0
M  END
> <minimizedAffinity>
-6.56236

$$$$
5H85_5XS_A_1201


 24 26  0  0  0  0  0  0  0  0999 V2000
  -15.3949   -8.4106   23.5038 C   0  0  0  0  0  0  0  0  0  0  0  0
  -14.2065   -9.2594   23.6603 N   0  0  0  0  0  0  0  0  0  0  0  0
  -15.3613   -7.2511   23.6991 O   0  0  0  0  0  0  0  0  0  0  0  0
  -14.3148  -10.2304   23.5393 H   0  0  0  0  0  0  0  0  0  0  0  0
  -12.8511   -8.7468   23.9896 C   0  0  0  0  0  0  0  0  0  0  0  0
  -10.8492   -7.7603   23.3849 C   0  0  0  0  0  0  0  0  0  0  0  0
  -11.2487   -8.0826   25.6987 C   0  0  0  0  0  0  0  0  0  0  0  0
  -12.4732   -8.6206   25.3937 C   0  0  0  0  0  0  0  0  0  0  0  0
  -12.0277   -8.2837   23.0398 N   0  0  0  0  0  0  0  0  0  0  0  0
  -10.4487   -7.6552   24.6724 N   0  0  0  0  0  0  0  0  0  0  0  0
  -11.1267   -8.1002   27.0441 N   0  0  0  0  0  0  0  0  0  0  0  0
  -12.2197   -8.6255   27.5615 C   0  0  0  0  0  0  0  0  0  0  0  0
  -13.0518   -8.9509   26.5651 N   0  0  0  0  0  0  0  0  0  0  0  0
  -13.9396   -9.3633   26.6705 H   0  0  0  0  0  0  0  0  0  0  0  0
  -16.6744  -10.4891   22.8371 C   0  0  0  0  0  0  0  0  0  0  0  0
  -17.8500  -11.1024   22.4683 C   0  0  0  0  0  0  0  0  0  0  0  0
  -19.0185  -10.3693   22.2952 C   0  0  0  0  0  0  0  0  0  0  0  0
  -19.0130   -8.9983   22.5131 C   0  0  0  0  0  0  0  0  0  0  0  0
  -17.8420   -8.3814   22.8917 C   0  0  0  0  0  0  0  0  0  0  0  0
  -16.6632   -9.1190   23.0355 C   0  0  0  0  0  0  0  0  0  0  0  0
  -17.8317  -12.5819   22.2392 C   0  0  0  0  0  0  0  0  0  0  0  0
  -18.6613  -13.2935   22.7490 O   0  0  0  0  0  0  0  0  0  0  0  0
  -17.2817  -13.3622   20.0593 C   0  0  0  0  0  0  0  0  0  0  0  0
  -16.8036  -13.1434   21.3847 O   0  0  0  0  0  0  0  0  0  0  0  0
 23 24  1  0  0  0
 22 21  2  0  0  0
 24 21  1  0  0  0
 21 16  1  0  0  0
 16 17  2  0  0  0
 16 15  1  0  0  0
 17 18  1  0  0  0
 15 20  2  0  0  0
 18 19  2  0  0  0
 20 19  1  0  0  0
 20  1  1  0  0  0
 12 13  1  0  0  0
 12 11  2  0  0  0
 13  8  1  0  0  0
  3  1  2  0  0  0
  1  2  1  0  0  0
 11  7  1  0  0  0
  2  5  1  0  0  0
  8  7  2  0  0  0
  8  5  1  0  0  0
  7 10  1  0  0  0
  5  9  2  0  0  0
 10  6  2  0  0  0
  9  6  1  0  0  0
  2  4  1  0  0  0
 13 14  1  0  0  0
M  END
> <minimizedAffinity>
-6.52582

$$$$
