5NY1_9E5_A_302


 29 31  0  0  0  0  0  0  0  0999 V2000
   -4.8814    7.9190   11.5607 C   0  0  0  0  0  0  0  0  0  0  0  0
   -4.5823    8.1407   12.8407 N   0  0  0  0  0  0  0  0  0  0  0  0
   -4.6509    6.8582   10.9884 O   0  0  0  0  0  0  0  0  0  0  0  0
   -4.8747    8.9651   13.2924 H   0  0  0  0  0  0  0  0  0  0  0  0
   -6.0381   12.2666    9.3247 C   0  0  0  0  0  0  0  0  0  0  0  0
   -5.9064   10.9743    9.8280 C   0  0  0  0  0  0  0  0  0  0  0  0
   -4.9978   10.3401   10.6840 C   0  0  0  0  0  0  0  0  0  0  0  0
   -8.8577    9.1106    8.2975 C   0  0  0  0  0  0  0  0  0  0  0  0
   -5.4319    9.0347   10.7864 C   0  0  0  0  0  0  0  0  0  0  0  0
   -6.8179    9.9824    9.4803 C   0  0  0  0  0  0  0  0  0  0  0  0
   -7.9014   10.2311    8.6379 C   0  0  0  0  0  0  0  0  0  0  0  0
   -7.1123   12.5284    8.4730 C   0  0  0  0  0  0  0  0  0  0  0  0
   -3.8376   11.0722   11.3010 C   0  0  0  0  0  0  0  0  0  0  0  0
   -6.5437    8.8146   10.0398 O   0  0  0  0  0  0  0  0  0  0  0  0
   -8.0406   11.5297    8.1227 C   0  0  0  0  0  0  0  0  0  0  0  0
   -9.1630   11.9333    7.1888 C   0  0  0  0  0  0  0  0  0  0  0  0
   -3.8207    7.1431   13.5444 C   0  0  0  0  0  0  0  0  0  0  0  0
   -5.7093    4.2767   16.2455 C   0  0  0  0  0  0  0  0  0  0  0  0
   -4.3801    4.2251   15.7744 C   0  0  0  0  0  0  0  0  0  0  0  0
   -3.8469    5.1665   14.9105 C   0  0  0  0  0  0  0  0  0  0  0  0
   -6.4902    5.3385   15.7426 C   0  0  0  0  0  0  0  0  0  0  0  0
   -5.9476    6.2915   14.8601 C   0  0  0  0  0  0  0  0  0  0  0  0
   -4.6062    6.2155   14.4371 C   0  0  0  0  0  0  0  0  0  0  0  0
   -7.7089    2.9408   16.9174 O   0  0  0  0  0  0  0  0  0  0  0  0
   -6.3308    3.1097   17.3024 S   0  0  0  0  0  0  0  0  0  0  0  0
   -6.0784    3.6326   18.6100 O   0  0  0  0  0  0  0  0  0  0  0  0
   -5.5108    1.7589   17.0953 N   0  0  0  0  0  0  0  0  0  0  0  0
   -5.6937    1.3898   16.1622 H   0  0  0  0  0  0  0  0  0  0  0  0
   -5.8004    1.0748   17.7943 H   0  0  0  0  0  0  0  0  0  0  0  0
 16 15  1  0  0  0
  8 11  1  0  0  0
 15 11  2  0  0  0
 15 12  1  0  0  0
 11 10  1  0  0  0
 12  5  2  0  0  0
 10 14  1  0  0  0
 10  6  2  0  0  0
 14  9  1  0  0  0
  5  6  1  0  0  0
  6  7  1  0  0  0
  2 17  1  0  0  0
  2  1  1  0  0  0
  9  7  2  0  0  0
  9  1  1  0  0  0
 17 23  1  0  0  0
  7 13  1  0  0  0
  1  3  2  0  0  0
 23 20  2  0  0  0
 23 22  1  0  0  0
 20 19  1  0  0  0
 22 21  2  0  0  0
 19 18  2  0  0  0
 21 18  1  0  0  0
 18 25  1  0  0  0
 27 25  1  0  0  0
 24 25  2  0  0  0
 25 26  2  0  0  0
 27 28  1  0  0  0
 27 29  1  0  0  0
  2  4  1  0  0  0
M  END
> <minimizedAffinity>
-8.70582

$$$$
5NY1_9E5_A_302


 29 31  0  0  0  0  0  0  0  0999 V2000
   -3.0461    4.6789   11.2380 C   0  0  0  0  0  0  0  0  0  0  0  0
   -1.9411    5.4077   11.0817 N   0  0  0  0  0  0  0  0  0  0  0  0
   -3.4555    3.8858   10.3958 O   0  0  0  0  0  0  0  0  0  0  0  0
   -1.5884    5.9555   11.8198 H   0  0  0  0  0  0  0  0  0  0  0  0
   -5.8968    6.3904   15.0042 C   0  0  0  0  0  0  0  0  0  0  0  0
   -5.1048    5.7107   14.0815 C   0  0  0  0  0  0  0  0  0  0  0  0
   -4.5243    6.0417   12.8510 C   0  0  0  0  0  0  0  0  0  0  0  0
   -4.6678    2.2617   15.6433 C   0  0  0  0  0  0  0  0  0  0  0  0
   -3.8504    4.9099   12.4410 C   0  0  0  0  0  0  0  0  0  0  0  0
   -4.7300    4.3900   14.3068 C   0  0  0  0  0  0  0  0  0  0  0  0
   -5.1074    3.6961   15.4564 C   0  0  0  0  0  0  0  0  0  0  0  0
   -6.2901    5.7062   16.1553 C   0  0  0  0  0  0  0  0  0  0  0  0
   -4.6827    7.4045   12.2343 C   0  0  0  0  0  0  0  0  0  0  0  0
   -3.9853    3.8944   13.3311 O   0  0  0  0  0  0  0  0  0  0  0  0
   -5.9087    4.3717   16.3907 C   0  0  0  0  0  0  0  0  0  0  0  0
   -6.3987    3.7343   17.6745 C   0  0  0  0  0  0  0  0  0  0  0  0
   -1.2773    5.3726    9.8055 C   0  0  0  0  0  0  0  0  0  0  0  0
    3.0489    5.8524    9.4408 C   0  0  0  0  0  0  0  0  0  0  0  0
    2.1628    5.4808    8.4073 C   0  0  0  0  0  0  0  0  0  0  0  0
    0.7984    5.3393    8.5954 C   0  0  0  0  0  0  0  0  0  0  0  0
    2.4592    6.0333   10.7094 C   0  0  0  0  0  0  0  0  0  0  0  0
    1.0725    5.8837   10.8997 C   0  0  0  0  0  0  0  0  0  0  0  0
    0.2215    5.5375    9.8319 C   0  0  0  0  0  0  0  0  0  0  0  0
    4.8443    7.0914    8.2258 O   0  0  0  0  0  0  0  0  0  0  0  0
    4.7129    6.0176    9.1775 S   0  0  0  0  0  0  0  0  0  0  0  0
    5.1451    4.7193    8.7597 O   0  0  0  0  0  0  0  0  0  0  0  0
    5.4041    6.3952   10.5629 N   0  0  0  0  0  0  0  0  0  0  0  0
    5.0932    7.3211   10.8568 H   0  0  0  0  0  0  0  0  0  0  0  0
    6.4176    6.3975   10.4477 H   0  0  0  0  0  0  0  0  0  0  0  0
 16 15  1  0  0  0
  8 11  1  0  0  0
 15 11  2  0  0  0
 15 12  1  0  0  0
 11 10  1  0  0  0
 12  5  2  0  0  0
 10 14  1  0  0  0
 10  6  2  0  0  0
 14  9  1  0  0  0
  5  6  1  0  0  0
  6  7  1  0  0  0
  2 17  1  0  0  0
  2  1  1  0  0  0
  9  7  2  0  0  0
  9  1  1  0  0  0
 17 23  1  0  0  0
  7 13  1  0  0  0
  1  3  2  0  0  0
 23 20  2  0  0  0
 23 22  1  0  0  0
 20 19  1  0  0  0
 22 21  2  0  0  0
 19 18  2  0  0  0
 21 18  1  0  0  0
 18 25  1  0  0  0
 27 25  1  0  0  0
 24 25  2  0  0  0
 25 26  2  0  0  0
 27 28  1  0  0  0
 27 29  1  0  0  0
  2  4  1  0  0  0
M  END
> <minimizedAffinity>
-8.47946

$$$$
5NY1_9E5_A_302


 29 31  0  0  0  0  0  0  0  0999 V2000
   -4.1174    5.1279   10.9481 C   0  0  0  0  0  0  0  0  0  0  0  0
   -3.5787    6.3469   10.9231 N   0  0  0  0  0  0  0  0  0  0  0  0
   -4.4633    4.5226    9.9381 O   0  0  0  0  0  0  0  0  0  0  0  0
   -3.2198    6.7577   11.7426 H   0  0  0  0  0  0  0  0  0  0  0  0
   -4.6591    2.2511   15.0311 C   0  0  0  0  0  0  0  0  0  0  0  0
   -4.6090    3.2200   14.0313 C   0  0  0  0  0  0  0  0  0  0  0  0
   -4.1277    3.2529   12.7168 C   0  0  0  0  0  0  0  0  0  0  0  0
   -6.2414    6.2613   15.6474 C   0  0  0  0  0  0  0  0  0  0  0  0
   -4.3856    4.5281   12.2580 C   0  0  0  0  0  0  0  0  0  0  0  0
   -5.1170    4.4957   14.2552 C   0  0  0  0  0  0  0  0  0  0  0  0
   -5.7076    4.8586   15.4656 C   0  0  0  0  0  0  0  0  0  0  0  0
   -5.2389    2.6022   16.2510 C   0  0  0  0  0  0  0  0  0  0  0  0
   -3.4930    2.0531   12.0686 C   0  0  0  0  0  0  0  0  0  0  0  0
   -4.9843    5.2922   13.2064 O   0  0  0  0  0  0  0  0  0  0  0  0
   -5.7595    3.8899   16.4807 C   0  0  0  0  0  0  0  0  0  0  0  0
   -6.3619    4.1531   17.8454 C   0  0  0  0  0  0  0  0  0  0  0  0
   -3.5358    7.0465    9.6664 C   0  0  0  0  0  0  0  0  0  0  0  0
   -6.9198    9.4353    8.2804 C   0  0  0  0  0  0  0  0  0  0  0  0
   -5.8054    9.0443    7.5080 C   0  0  0  0  0  0  0  0  0  0  0  0
   -4.7606    8.2907    8.0154 C   0  0  0  0  0  0  0  0  0  0  0  0
   -6.8867    9.0428    9.6349 C   0  0  0  0  0  0  0  0  0  0  0  0
   -5.8209    8.2811   10.1501 C   0  0  0  0  0  0  0  0  0  0  0  0
   -4.7410    7.8901    9.3346 C   0  0  0  0  0  0  0  0  0  0  0  0
   -9.3924    9.7287    8.0941 O   0  0  0  0  0  0  0  0  0  0  0  0
   -8.1818   10.3567    7.6293 S   0  0  0  0  0  0  0  0  0  0  0  0
   -7.9447   10.3516    6.2184 O   0  0  0  0  0  0  0  0  0  0  0  0
   -8.0581   11.8431    8.1907 N   0  0  0  0  0  0  0  0  0  0  0  0
   -8.2278   11.8418    9.1965 H   0  0  0  0  0  0  0  0  0  0  0  0
   -8.7464   12.4387    7.7305 H   0  0  0  0  0  0  0  0  0  0  0  0
 16 15  1  0  0  0
  8 11  1  0  0  0
 15 11  2  0  0  0
 15 12  1  0  0  0
 11 10  1  0  0  0
 12  5  2  0  0  0
 10 14  1  0  0  0
 10  6  2  0  0  0
 14  9  1  0  0  0
  5  6  1  0  0  0
  6  7  1  0  0  0
  2 17  1  0  0  0
  2  1  1  0  0  0
  9  7  2  0  0  0
  9  1  1  0  0  0
 17 23  1  0  0  0
  7 13  1  0  0  0
  1  3  2  0  0  0
 23 20  2  0  0  0
 23 22  1  0  0  0
 20 19  1  0  0  0
 22 21  2  0  0  0
 19 18  2  0  0  0
 21 18  1  0  0  0
 18 25  1  0  0  0
 27 25  1  0  0  0
 24 25  2  0  0  0
 25 26  2  0  0  0
 27 28  1  0  0  0
 27 29  1  0  0  0
  2  4  1  0  0  0
M  END
> <minimizedAffinity>
-8.27233

$$$$
5NY1_9E5_A_302


 29 31  0  0  0  0  0  0  0  0999 V2000
   -2.3450    7.7976   12.2351 C   0  0  0  0  0  0  0  0  0  0  0  0
   -2.7552    7.2111   13.3596 N   0  0  0  0  0  0  0  0  0  0  0  0
   -2.9546    8.7131   11.6909 O   0  0  0  0  0  0  0  0  0  0  0  0
   -2.1885    6.5517   13.8215 H   0  0  0  0  0  0  0  0  0  0  0  0
    1.1107    5.2752    9.6016 C   0  0  0  0  0  0  0  0  0  0  0  0
    0.3357    6.1086   10.4051 C   0  0  0  0  0  0  0  0  0  0  0  0
   -1.0310    6.2022   10.6950 C   0  0  0  0  0  0  0  0  0  0  0  0
    2.8837    8.4789   11.9592 C   0  0  0  0  0  0  0  0  0  0  0  0
   -1.1527    7.2543   11.5789 C   0  0  0  0  0  0  0  0  0  0  0  0
    0.9259    7.1284   11.1447 C   0  0  0  0  0  0  0  0  0  0  0  0
    2.3024    7.3540   11.1331 C   0  0  0  0  0  0  0  0  0  0  0  0
    2.4887    5.4946    9.5725 C   0  0  0  0  0  0  0  0  0  0  0  0
   -2.0408    5.2628   10.0945 C   0  0  0  0  0  0  0  0  0  0  0  0
    0.0480    7.8274   11.8467 O   0  0  0  0  0  0  0  0  0  0  0  0
    3.0915    6.5215   10.3235 C   0  0  0  0  0  0  0  0  0  0  0  0
    4.5953    6.6633   10.2086 C   0  0  0  0  0  0  0  0  0  0  0  0
   -4.0484    7.5672   13.8806 C   0  0  0  0  0  0  0  0  0  0  0  0
   -5.6834    4.3208   16.3026 C   0  0  0  0  0  0  0  0  0  0  0  0
   -4.3950    4.3631   15.7285 C   0  0  0  0  0  0  0  0  0  0  0  0
   -3.9430    5.4243   14.9625 C   0  0  0  0  0  0  0  0  0  0  0  0
   -6.5142    5.4227   16.0105 C   0  0  0  0  0  0  0  0  0  0  0  0
   -6.0545    6.4981   15.2270 C   0  0  0  0  0  0  0  0  0  0  0  0
   -4.7498    6.5101   14.6961 C   0  0  0  0  0  0  0  0  0  0  0  0
   -7.5710    2.7765   16.8382 O   0  0  0  0  0  0  0  0  0  0  0  0
   -6.2054    3.0081   17.2352 S   0  0  0  0  0  0  0  0  0  0  0  0
   -5.9794    3.4117   18.5891 O   0  0  0  0  0  0  0  0  0  0  0  0
   -5.2892    1.7511   16.8881 N   0  0  0  0  0  0  0  0  0  0  0  0
   -5.4536    1.4670   15.9223 H   0  0  0  0  0  0  0  0  0  0  0  0
   -5.5198    0.9791   17.5136 H   0  0  0  0  0  0  0  0  0  0  0  0
 16 15  1  0  0  0
  8 11  1  0  0  0
 15 11  2  0  0  0
 15 12  1  0  0  0
 11 10  1  0  0  0
 12  5  2  0  0  0
 10 14  1  0  0  0
 10  6  2  0  0  0
 14  9  1  0  0  0
  5  6  1  0  0  0
  6  7  1  0  0  0
  2 17  1  0  0  0
  2  1  1  0  0  0
  9  7  2  0  0  0
  9  1  1  0  0  0
 17 23  1  0  0  0
  7 13  1  0  0  0
  1  3  2  0  0  0
 23 20  2  0  0  0
 23 22  1  0  0  0
 20 19  1  0  0  0
 22 21  2  0  0  0
 19 18  2  0  0  0
 21 18  1  0  0  0
 18 25  1  0  0  0
 27 25  1  0  0  0
 24 25  2  0  0  0
 25 26  2  0  0  0
 27 28  1  0  0  0
 27 29  1  0  0  0
  2  4  1  0  0  0
M  END
> <minimizedAffinity>
-8.24096

$$$$
5NY1_9E5_A_302


 29 31  0  0  0  0  0  0  0  0999 V2000
   -5.1052    8.0404   11.3068 C   0  0  0  0  0  0  0  0  0  0  0  0
   -4.6247    7.6568   12.4894 N   0  0  0  0  0  0  0  0  0  0  0  0
   -5.3909    7.2550   10.4081 O   0  0  0  0  0  0  0  0  0  0  0  0
   -4.5044    8.3052   13.2204 H   0  0  0  0  0  0  0  0  0  0  0  0
   -6.3193   12.7313    9.9796 C   0  0  0  0  0  0  0  0  0  0  0  0
   -5.7850   11.5290   10.4377 C   0  0  0  0  0  0  0  0  0  0  0  0
   -6.2155   10.1966   10.4339 C   0  0  0  0  0  0  0  0  0  0  0  0
   -2.4355   12.5513   11.9414 C   0  0  0  0  0  0  0  0  0  0  0  0
   -5.2100    9.4789   11.0478 C   0  0  0  0  0  0  0  0  0  0  0  0
   -4.5441   11.4991   11.0659 C   0  0  0  0  0  0  0  0  0  0  0  0
   -3.7769   12.6493   11.2511 C   0  0  0  0  0  0  0  0  0  0  0  0
   -5.5673   13.8921   10.1659 C   0  0  0  0  0  0  0  0  0  0  0  0
   -7.5308    9.7842    9.8318 C   0  0  0  0  0  0  0  0  0  0  0  0
   -4.1892   10.2810   11.4433 O   0  0  0  0  0  0  0  0  0  0  0  0
   -4.3086   13.8664   10.7959 C   0  0  0  0  0  0  0  0  0  0  0  0
   -3.5878   15.1906   10.9430 C   0  0  0  0  0  0  0  0  0  0  0  0
   -4.2863    6.2698   12.6693 C   0  0  0  0  0  0  0  0  0  0  0  0
   -5.7644    3.9833   16.0849 C   0  0  0  0  0  0  0  0  0  0  0  0
   -4.8139    3.5448   15.1385 C   0  0  0  0  0  0  0  0  0  0  0  0
   -4.3948    4.3218   14.0719 C   0  0  0  0  0  0  0  0  0  0  0  0
   -6.3041    5.2659   15.8530 C   0  0  0  0  0  0  0  0  0  0  0  0
   -5.8805    6.0521   14.7648 C   0  0  0  0  0  0  0  0  0  0  0  0
   -4.9082    5.5836   13.8596 C   0  0  0  0  0  0  0  0  0  0  0  0
   -5.2800    1.9505   17.4515 O   0  0  0  0  0  0  0  0  0  0  0  0
   -6.2553    3.0086   17.3788 S   0  0  0  0  0  0  0  0  0  0  0  0
   -7.5999    2.6355   17.0629 O   0  0  0  0  0  0  0  0  0  0  0  0
   -6.2392    3.8916   18.7054 N   0  0  0  0  0  0  0  0  0  0  0  0
   -5.2790    4.1552   18.9268 H   0  0  0  0  0  0  0  0  0  0  0  0
   -6.6304    3.3522   19.4777 H   0  0  0  0  0  0  0  0  0  0  0  0
 16 15  1  0  0  0
  8 11  1  0  0  0
 15 11  2  0  0  0
 15 12  1  0  0  0
 11 10  1  0  0  0
 12  5  2  0  0  0
 10 14  1  0  0  0
 10  6  2  0  0  0
 14  9  1  0  0  0
  5  6  1  0  0  0
  6  7  1  0  0  0
  2 17  1  0  0  0
  2  1  1  0  0  0
  9  7  2  0  0  0
  9  1  1  0  0  0
 17 23  1  0  0  0
  7 13  1  0  0  0
  1  3  2  0  0  0
 23 20  2  0  0  0
 23 22  1  0  0  0
 20 19  1  0  0  0
 22 21  2  0  0  0
 19 18  2  0  0  0
 21 18  1  0  0  0
 18 25  1  0  0  0
 27 25  1  0  0  0
 24 25  2  0  0  0
 25 26  2  0  0  0
 27 28  1  0  0  0
 27 29  1  0  0  0
  2  4  1  0  0  0
M  END
> <minimizedAffinity>
-8.15184

$$$$
5NY1_9E5_A_302


 29 31  0  0  0  0  0  0  0  0999 V2000
   -2.7559    9.0481   12.9278 C   0  0  0  0  0  0  0  0  0  0  0  0
   -3.2824    8.3145   13.9083 N   0  0  0  0  0  0  0  0  0  0  0  0
   -3.3043    9.2172   11.8431 O   0  0  0  0  0  0  0  0  0  0  0  0
   -2.8636    8.2859   14.7988 H   0  0  0  0  0  0  0  0  0  0  0  0
    1.3695   11.6180   14.1992 C   0  0  0  0  0  0  0  0  0  0  0  0
    0.3744   10.7692   13.7194 C   0  0  0  0  0  0  0  0  0  0  0  0
   -1.0102   10.6735   13.9047 C   0  0  0  0  0  0  0  0  0  0  0  0
    2.2677    8.3566   11.4566 C   0  0  0  0  0  0  0  0  0  0  0  0
   -1.4153    9.6022   13.1358 C   0  0  0  0  0  0  0  0  0  0  0  0
    0.6883    9.7312   12.8479 C   0  0  0  0  0  0  0  0  0  0  0  0
    1.9906    9.5015   12.4042 C   0  0  0  0  0  0  0  0  0  0  0  0
    2.6791   11.3949   13.7712 C   0  0  0  0  0  0  0  0  0  0  0  0
   -1.7656   11.6293   14.7869 C   0  0  0  0  0  0  0  0  0  0  0  0
   -0.3704    9.0194   12.4952 O   0  0  0  0  0  0  0  0  0  0  0  0
    3.0011   10.3495   12.8850 C   0  0  0  0  0  0  0  0  0  0  0  0
    4.4575   10.2055   12.4941 C   0  0  0  0  0  0  0  0  0  0  0  0
   -4.4793    7.5654   13.6306 C   0  0  0  0  0  0  0  0  0  0  0  0
   -5.6973    4.2856   16.2455 C   0  0  0  0  0  0  0  0  0  0  0  0
   -6.4727    5.4168   15.9132 C   0  0  0  0  0  0  0  0  0  0  0  0
   -6.0195    6.4263   15.0811 C   0  0  0  0  0  0  0  0  0  0  0  0
   -4.3945    4.2632   15.7051 C   0  0  0  0  0  0  0  0  0  0  0  0
   -3.9338    5.2934   14.8636 C   0  0  0  0  0  0  0  0  0  0  0  0
   -4.7532    6.3916   14.5370 C   0  0  0  0  0  0  0  0  0  0  0  0
   -7.6303    2.8156   16.8264 O   0  0  0  0  0  0  0  0  0  0  0  0
   -6.2815    3.0677   17.2659 S   0  0  0  0  0  0  0  0  0  0  0  0
   -6.1129    3.5893   18.5874 O   0  0  0  0  0  0  0  0  0  0  0  0
   -5.3687    1.7751   17.0767 N   0  0  0  0  0  0  0  0  0  0  0  0
   -5.4920    1.4069   16.1335 H   0  0  0  0  0  0  0  0  0  0  0  0
   -5.6395    1.0651   17.7571 H   0  0  0  0  0  0  0  0  0  0  0  0
 16 15  1  0  0  0
  8 11  1  0  0  0
 15 11  2  0  0  0
 15 12  1  0  0  0
 11 10  1  0  0  0
 12  5  2  0  0  0
 10 14  1  0  0  0
 10  6  2  0  0  0
 14  9  1  0  0  0
  5  6  1  0  0  0
  6  7  1  0  0  0
  2 17  1  0  0  0
  2  1  1  0  0  0
  9  7  2  0  0  0
  9  1  1  0  0  0
 17 23  1  0  0  0
  7 13  1  0  0  0
  1  3  2  0  0  0
 23 20  2  0  0  0
 23 22  1  0  0  0
 20 19  1  0  0  0
 22 21  2  0  0  0
 19 18  2  0  0  0
 21 18  1  0  0  0
 18 25  1  0  0  0
 27 25  1  0  0  0
 24 25  2  0  0  0
 25 26  2  0  0  0
 27 28  1  0  0  0
 27 29  1  0  0  0
  2  4  1  0  0  0
M  END
> <minimizedAffinity>
-7.96113

$$$$
5NY1_9E5_A_302


 29 31  0  0  0  0  0  0  0  0999 V2000
   -4.1635    5.0947   11.1324 C   0  0  0  0  0  0  0  0  0  0  0  0
   -2.9578    4.9234   10.5903 N   0  0  0  0  0  0  0  0  0  0  0  0
   -5.0298    5.8094   10.6378 O   0  0  0  0  0  0  0  0  0  0  0  0
   -2.3269    4.2638   10.9594 H   0  0  0  0  0  0  0  0  0  0  0  0
   -4.6798    2.1182   15.1466 C   0  0  0  0  0  0  0  0  0  0  0  0
   -4.6363    3.1113   14.1705 C   0  0  0  0  0  0  0  0  0  0  0  0
   -4.1621    3.1770   12.8547 C   0  0  0  0  0  0  0  0  0  0  0  0
   -6.2635    6.1100   15.8693 C   0  0  0  0  0  0  0  0  0  0  0  0
   -4.4239    4.4627   12.4286 C   0  0  0  0  0  0  0  0  0  0  0  0
   -5.1445    4.3805   14.4283 C   0  0  0  0  0  0  0  0  0  0  0  0
   -5.7291    4.7128   15.6504 C   0  0  0  0  0  0  0  0  0  0  0  0
   -5.2535    2.4385   16.3778 C   0  0  0  0  0  0  0  0  0  0  0  0
   -3.5295    1.9942   12.1740 C   0  0  0  0  0  0  0  0  0  0  0  0
   -5.0185    5.2025   13.3986 O   0  0  0  0  0  0  0  0  0  0  0  0
   -5.7744    3.7195   16.6417 C   0  0  0  0  0  0  0  0  0  0  0  0
   -6.3698    3.9485   18.0156 C   0  0  0  0  0  0  0  0  0  0  0  0
   -2.6029    5.7281    9.4514 C   0  0  0  0  0  0  0  0  0  0  0  0
    1.6515    6.2565    8.6151 C   0  0  0  0  0  0  0  0  0  0  0  0
    0.8421    5.1898    8.1696 C   0  0  0  0  0  0  0  0  0  0  0  0
   -0.5029    5.0805    8.4797 C   0  0  0  0  0  0  0  0  0  0  0  0
    1.0096    7.1996    9.4447 C   0  0  0  0  0  0  0  0  0  0  0  0
   -0.3567    7.0837    9.7632 C   0  0  0  0  0  0  0  0  0  0  0  0
   -1.1331    6.0152    9.2734 C   0  0  0  0  0  0  0  0  0  0  0  0
    3.6677    7.7245    8.4954 O   0  0  0  0  0  0  0  0  0  0  0  0
    3.2936    6.3612    8.2174 S   0  0  0  0  0  0  0  0  0  0  0  0
    3.3656    5.9300    6.8552 O   0  0  0  0  0  0  0  0  0  0  0  0
    4.0995    5.3475    9.1463 N   0  0  0  0  0  0  0  0  0  0  0  0
    4.0455    5.6588   10.1162 H   0  0  0  0  0  0  0  0  0  0  0  0
    5.0758    5.3196    8.8521 H   0  0  0  0  0  0  0  0  0  0  0  0
 16 15  1  0  0  0
  8 11  1  0  0  0
 15 11  2  0  0  0
 15 12  1  0  0  0
 11 10  1  0  0  0
 12  5  2  0  0  0
 10 14  1  0  0  0
 10  6  2  0  0  0
 14  9  1  0  0  0
  5  6  1  0  0  0
  6  7  1  0  0  0
  2 17  1  0  0  0
  2  1  1  0  0  0
  9  7  2  0  0  0
  9  1  1  0  0  0
 17 23  1  0  0  0
  7 13  1  0  0  0
  1  3  2  0  0  0
 23 20  2  0  0  0
 23 22  1  0  0  0
 20 19  1  0  0  0
 22 21  2  0  0  0
 19 18  2  0  0  0
 21 18  1  0  0  0
 18 25  1  0  0  0
 27 25  1  0  0  0
 24 25  2  0  0  0
 25 26  2  0  0  0
 27 28  1  0  0  0
 27 29  1  0  0  0
  2  4  1  0  0  0
M  END
> <minimizedAffinity>
-7.50988

$$$$
5NY1_9E5_A_302


 29 31  0  0  0  0  0  0  0  0999 V2000
   -5.1264    8.0339   10.4547 C   0  0  0  0  0  0  0  0  0  0  0  0
   -3.9769    7.4246   10.7447 N   0  0  0  0  0  0  0  0  0  0  0  0
   -6.1252    7.4381   10.0629 O   0  0  0  0  0  0  0  0  0  0  0  0
   -3.2311    7.9207   11.1534 H   0  0  0  0  0  0  0  0  0  0  0  0
   -6.1088   12.9560   10.2364 C   0  0  0  0  0  0  0  0  0  0  0  0
   -5.6333   11.6571   10.4031 C   0  0  0  0  0  0  0  0  0  0  0  0
   -6.1314   10.3821   10.1086 C   0  0  0  0  0  0  0  0  0  0  0  0
   -2.2250   12.1524   12.0351 C   0  0  0  0  0  0  0  0  0  0  0  0
   -5.1594    9.4971   10.5270 C   0  0  0  0  0  0  0  0  0  0  0  0
   -4.3910   11.4270   10.9854 C   0  0  0  0  0  0  0  0  0  0  0  0
   -3.5647   12.4677   11.4095 C   0  0  0  0  0  0  0  0  0  0  0  0
   -5.2971   14.0075   10.6643 C   0  0  0  0  0  0  0  0  0  0  0  0
   -7.4704   10.1796    9.4539 C   0  0  0  0  0  0  0  0  0  0  0  0
   -4.0961   10.1396   11.0733 O   0  0  0  0  0  0  0  0  0  0  0  0
   -4.0368   13.7802   11.2490 C   0  0  0  0  0  0  0  0  0  0  0  0
   -3.2481   15.0010   11.6759 C   0  0  0  0  0  0  0  0  0  0  0  0
   -3.8548    6.0226   10.4447 C   0  0  0  0  0  0  0  0  0  0  0  0
   -4.4743    3.6393   14.0524 C   0  0  0  0  0  0  0  0  0  0  0  0
   -4.2695    5.0347   14.0018 C   0  0  0  0  0  0  0  0  0  0  0  0
   -4.0712    5.7275   12.8196 C   0  0  0  0  0  0  0  0  0  0  0  0
   -4.4220    2.9732   12.8101 C   0  0  0  0  0  0  0  0  0  0  0  0
   -4.2149    3.6788   11.6097 C   0  0  0  0  0  0  0  0  0  0  0  0
   -4.0418    5.0767   11.6044 C   0  0  0  0  0  0  0  0  0  0  0  0
   -4.6237    1.4214   15.1895 O   0  0  0  0  0  0  0  0  0  0  0  0
   -4.7147    2.8220   15.5151 S   0  0  0  0  0  0  0  0  0  0  0  0
   -5.9751    3.2994   15.9951 O   0  0  0  0  0  0  0  0  0  0  0  0
   -3.5575    3.2496   16.5240 N   0  0  0  0  0  0  0  0  0  0  0  0
   -2.6611    2.9073   16.1780 H   0  0  0  0  0  0  0  0  0  0  0  0
   -3.7426    2.8486   17.4434 H   0  0  0  0  0  0  0  0  0  0  0  0
 16 15  1  0  0  0
  8 11  1  0  0  0
 15 11  2  0  0  0
 15 12  1  0  0  0
 11 10  1  0  0  0
 12  5  2  0  0  0
 10 14  1  0  0  0
 10  6  2  0  0  0
 14  9  1  0  0  0
  5  6  1  0  0  0
  6  7  1  0  0  0
  2 17  1  0  0  0
  2  1  1  0  0  0
  9  7  2  0  0  0
  9  1  1  0  0  0
 17 23  1  0  0  0
  7 13  1  0  0  0
  1  3  2  0  0  0
 23 20  2  0  0  0
 23 22  1  0  0  0
 20 19  1  0  0  0
 22 21  2  0  0  0
 19 18  2  0  0  0
 21 18  1  0  0  0
 18 25  1  0  0  0
 27 25  1  0  0  0
 24 25  2  0  0  0
 25 26  2  0  0  0
 27 28  1  0  0  0
 27 29  1  0  0  0
  2  4  1  0  0  0
M  END
> <minimizedAffinity>
-7.49996

$$$$
5NY1_9E5_A_302


 29 31  0  0  0  0  0  0  0  0999 V2000
    1.9724    7.5642   11.0784 C   0  0  0  0  0  0  0  0  0  0  0  0
    1.4780    6.4124   11.5321 N   0  0  0  0  0  0  0  0  0  0  0  0
    1.8539    7.9373    9.9154 O   0  0  0  0  0  0  0  0  0  0  0  0
    1.5031    6.1949   12.4919 H   0  0  0  0  0  0  0  0  0  0  0  0
    5.3510    9.5893   14.1967 C   0  0  0  0  0  0  0  0  0  0  0  0
    4.2866    9.2246   13.3752 C   0  0  0  0  0  0  0  0  0  0  0  0
    4.0156    8.1308   12.5441 C   0  0  0  0  0  0  0  0  0  0  0  0
    1.8126   12.0944   13.7859 C   0  0  0  0  0  0  0  0  0  0  0  0
    2.7704    8.3744   12.0027 C   0  0  0  0  0  0  0  0  0  0  0  0
    3.1695   10.0452   13.2572 C   0  0  0  0  0  0  0  0  0  0  0  0
    3.0525   11.2464   13.9565 C   0  0  0  0  0  0  0  0  0  0  0  0
    5.2525   10.7931   14.8959 C   0  0  0  0  0  0  0  0  0  0  0  0
    4.9822    6.9891   12.3863 C   0  0  0  0  0  0  0  0  0  0  0  0
    2.2566    9.5540   12.4342 O   0  0  0  0  0  0  0  0  0  0  0  0
    4.1218   11.6243   14.7844 C   0  0  0  0  0  0  0  0  0  0  0  0
    4.1309   12.9070   15.5902 C   0  0  0  0  0  0  0  0  0  0  0  0
    0.9068    5.4954   10.5816 C   0  0  0  0  0  0  0  0  0  0  0  0
   -3.0337    4.0889   11.8359 C   0  0  0  0  0  0  0  0  0  0  0  0
   -2.4520    5.3329   12.1606 C   0  0  0  0  0  0  0  0  0  0  0  0
   -1.1907    5.7122   11.7338 C   0  0  0  0  0  0  0  0  0  0  0  0
   -2.2241    3.2214   11.0731 C   0  0  0  0  0  0  0  0  0  0  0  0
   -0.9398    3.6069   10.6448 C   0  0  0  0  0  0  0  0  0  0  0  0
   -0.4097    4.8707   10.9703 C   0  0  0  0  0  0  0  0  0  0  0  0
   -5.0878    4.8199   13.0528 O   0  0  0  0  0  0  0  0  0  0  0  0
   -4.5793    3.6556   12.3733 S   0  0  0  0  0  0  0  0  0  0  0  0
   -4.3735    2.4789   13.1607 O   0  0  0  0  0  0  0  0  0  0  0  0
   -5.4714    3.3026   11.1007 N   0  0  0  0  0  0  0  0  0  0  0  0
   -5.6155    4.1440   10.5425 H   0  0  0  0  0  0  0  0  0  0  0  0
   -6.3738    2.9398   11.4081 H   0  0  0  0  0  0  0  0  0  0  0  0
 16 15  1  0  0  0
  8 11  1  0  0  0
 15 11  2  0  0  0
 15 12  1  0  0  0
 11 10  1  0  0  0
 12  5  2  0  0  0
 10 14  1  0  0  0
 10  6  2  0  0  0
 14  9  1  0  0  0
  5  6  1  0  0  0
  6  7  1  0  0  0
  2 17  1  0  0  0
  2  1  1  0  0  0
  9  7  2  0  0  0
  9  1  1  0  0  0
 17 23  1  0  0  0
  7 13  1  0  0  0
  1  3  2  0  0  0
 23 20  2  0  0  0
 23 22  1  0  0  0
 20 19  1  0  0  0
 22 21  2  0  0  0
 19 18  2  0  0  0
 21 18  1  0  0  0
 18 25  1  0  0  0
 27 25  1  0  0  0
 24 25  2  0  0  0
 25 26  2  0  0  0
 27 28  1  0  0  0
 27 29  1  0  0  0
  2  4  1  0  0  0
M  END
> <minimizedAffinity>
-7.33967

$$$$
5NY1_9E5_A_302


 29 31  0  0  0  0  0  0  0  0999 V2000
   -4.2271    6.1294   11.2846 C   0  0  0  0  0  0  0  0  0  0  0  0
   -3.1603    6.9285   11.2961 N   0  0  0  0  0  0  0  0  0  0  0  0
   -5.0752    6.1496   10.3978 O   0  0  0  0  0  0  0  0  0  0  0  0
   -2.4498    6.8132   11.9678 H   0  0  0  0  0  0  0  0  0  0  0  0
   -4.4695    2.4354   14.6810 C   0  0  0  0  0  0  0  0  0  0  0  0
   -4.5194    3.5891   13.9017 C   0  0  0  0  0  0  0  0  0  0  0  0
   -4.0445    3.9397   12.6320 C   0  0  0  0  0  0  0  0  0  0  0  0
   -6.4544    6.0537   16.0713 C   0  0  0  0  0  0  0  0  0  0  0  0
   -4.4319    5.2494   12.4383 C   0  0  0  0  0  0  0  0  0  0  0  0
   -5.1554    4.7339   14.3711 C   0  0  0  0  0  0  0  0  0  0  0  0
   -5.7796    4.7792   15.6177 C   0  0  0  0  0  0  0  0  0  0  0  0
   -5.0818    2.4683   15.9346 C   0  0  0  0  0  0  0  0  0  0  0  0
   -3.2904    2.9685   11.7654 C   0  0  0  0  0  0  0  0  0  0  0  0
   -5.1055    5.7382   13.5102 O   0  0  0  0  0  0  0  0  0  0  0  0
   -5.7316    3.6223   16.4119 C   0  0  0  0  0  0  0  0  0  0  0  0
   -6.3573    3.5376   17.7888 C   0  0  0  0  0  0  0  0  0  0  0  0
   -3.0747    7.9641   10.3007 C   0  0  0  0  0  0  0  0  0  0  0  0
   -2.7186   12.0166   11.8912 C   0  0  0  0  0  0  0  0  0  0  0  0
   -1.7987   10.9637   12.0826 C   0  0  0  0  0  0  0  0  0  0  0  0
   -1.9787    9.6968   11.5539 C   0  0  0  0  0  0  0  0  0  0  0  0
   -3.8738   11.6858   11.1524 C   0  0  0  0  0  0  0  0  0  0  0  0
   -4.0575   10.3956   10.6203 C   0  0  0  0  0  0  0  0  0  0  0  0
   -3.0987    9.3820   10.8140 C   0  0  0  0  0  0  0  0  0  0  0  0
   -3.6531   14.3078   12.2250 O   0  0  0  0  0  0  0  0  0  0  0  0
   -2.4684   13.5553   12.5510 S   0  0  0  0  0  0  0  0  0  0  0  0
   -1.2352   14.0000   11.9781 O   0  0  0  0  0  0  0  0  0  0  0  0
   -2.3052   13.4032   14.1290 N   0  0  0  0  0  0  0  0  0  0  0  0
   -3.1865   13.0862   14.5329 H   0  0  0  0  0  0  0  0  0  0  0  0
   -2.0509   14.3046   14.5329 H   0  0  0  0  0  0  0  0  0  0  0  0
 16 15  1  0  0  0
  8 11  1  0  0  0
 15 11  2  0  0  0
 15 12  1  0  0  0
 11 10  1  0  0  0
 12  5  2  0  0  0
 10 14  1  0  0  0
 10  6  2  0  0  0
 14  9  1  0  0  0
  5  6  1  0  0  0
  6  7  1  0  0  0
  2 17  1  0  0  0
  2  1  1  0  0  0
  9  7  2  0  0  0
  9  1  1  0  0  0
 17 23  1  0  0  0
  7 13  1  0  0  0
  1  3  2  0  0  0
 23 20  2  0  0  0
 23 22  1  0  0  0
 20 19  1  0  0  0
 22 21  2  0  0  0
 19 18  2  0  0  0
 21 18  1  0  0  0
 18 25  1  0  0  0
 27 25  1  0  0  0
 24 25  2  0  0  0
 25 26  2  0  0  0
 27 28  1  0  0  0
 27 29  1  0  0  0
  2  4  1  0  0  0
M  END
> <minimizedAffinity>
-7.01663

$$$$
