5JG1_6KR_B_201


 46 51  0  0  0  0  0  0  0  0999 V2000
   14.6188   22.4965   16.9074 C   0  0  0  0  0  0  0  0  0  0  0  0
   14.1242   20.2971   17.9790 C   0  0  0  0  0  0  0  0  0  0  0  0
   13.7075   21.4531   17.4613 N   0  0  0  0  0  0  0  0  0  0  0  0
   15.2921   19.9157   17.9964 O   0  0  0  0  0  0  0  0  0  0  0  0
   12.7389   21.6288   17.4435 H   0  0  0  0  0  0  0  0  0  0  0  0
   13.0782   19.5771   18.5265 O   0  0  0  0  0  0  0  0  0  0  0  0
   13.3859   18.5362   19.4537 C   0  0  0  0  0  0  0  0  0  0  0  0
   12.7501   18.8924   20.7955 C   0  0  0  0  0  0  0  0  0  0  0  0
   10.3929   18.2192   18.7449 O   0  0  0  0  0  0  0  0  0  0  0  0
   11.3971   18.4539   20.7508 O   0  0  0  0  0  0  0  0  0  0  0  0
   11.2095   17.5267   19.7061 C   0  0  0  0  0  0  0  0  0  0  0  0
   10.1892   17.3714   17.5722 C   0  0  0  0  0  0  0  0  0  0  0  0
   11.5370   17.3447   16.8986 C   0  0  0  0  0  0  0  0  0  0  0  0
   12.6366   16.8243   17.7564 C   0  0  0  0  0  0  0  0  0  0  0  0
   12.6071   17.2874   19.1532 C   0  0  0  0  0  0  0  0  0  0  0  0
   14.9586   23.5147   17.9929 C   0  0  0  0  0  0  0  0  0  0  0  0
   13.7963   24.2971   18.3250 O   0  0  0  0  0  0  0  0  0  0  0  0
   13.5208   24.8116   17.5502 H   0  0  0  0  0  0  0  0  0  0  0  0
   16.0455   24.5443   17.5958 C   0  0  0  0  0  0  0  0  0  0  0  0
   17.3532   23.9459   17.5227 N   0  0  0  0  0  0  0  0  0  0  0  0
   19.2841   23.1604   16.2483 O   0  0  0  0  0  0  0  0  0  0  0  0
   18.2104   24.0951   16.0857 S   0  0  0  0  0  0  0  0  0  0  0  0
   17.3207   23.9548   14.9331 O   0  0  0  0  0  0  0  0  0  0  0  0
   20.2893   28.0579   15.2118 C   0  0  0  0  0  0  0  0  0  0  0  0
   20.5164   27.4200   16.4170 C   0  0  0  0  0  0  0  0  0  0  0  0
   19.8515   26.2360   16.7388 C   0  0  0  0  0  0  0  0  0  0  0  0
   18.9380   25.6889   15.8440 C   0  0  0  0  0  0  0  0  0  0  0  0
   18.6906   26.3515   14.6751 C   0  0  0  0  0  0  0  0  0  0  0  0
   19.2937   27.5893   14.3592 C   0  0  0  0  0  0  0  0  0  0  0  0
   21.0817   29.1388   14.9611 O   0  0  0  0  0  0  0  0  0  0  0  0
   22.4965   28.9129   15.1865 C   0  0  0  0  0  0  0  0  0  0  0  0
   18.1595   24.2458   18.7514 C   0  0  0  0  0  0  0  0  0  0  0  0
   17.9760   23.1387   19.8118 C   0  0  0  0  0  0  0  0  0  0  0  0
   18.0417   21.7563   19.1568 C   0  0  0  0  0  0  0  0  0  0  0  0
   19.0601   23.2076   20.8792 C   0  0  0  0  0  0  0  0  0  0  0  0
   13.9226   23.0554   15.6790 C   0  0  0  0  0  0  0  0  0  0  0  0
   13.7828   22.1808   14.4293 C   0  0  0  0  0  0  0  0  0  0  0  0
   12.7051   21.1144   14.5856 C   0  0  0  0  0  0  0  0  0  0  0  0
   12.5599   20.3545   13.2683 C   0  0  0  0  0  0  0  0  0  0  0  0
   13.8462   19.6174   12.9214 C   0  0  0  0  0  0  0  0  0  0  0  0
   14.9280   20.6784   12.7388 C   0  0  0  0  0  0  0  0  0  0  0  0
   14.5209   21.6317   11.6118 C   0  0  0  0  0  0  0  0  0  0  0  0
   13.2005   22.3522   11.9602 C   0  0  0  0  0  0  0  0  0  0  0  0
   13.3838   23.1203   13.2968 C   0  0  0  0  0  0  0  0  0  0  0  0
   15.0786   21.5159   14.0031 C   0  0  0  0  0  0  0  0  0  0  0  0
   12.1117   21.3030   12.1641 C   0  0  0  0  0  0  0  0  0  0  0  0
 42 43  1  0  0  0
 42 41  1  0  0  0
 43 46  1  0  0  0
 43 44  1  0  0  0
 46 39  1  0  0  0
 41 40  1  0  0  0
 41 45  1  0  0  0
 44 37  1  0  0  0
 40 39  1  0  0  0
 39 38  1  0  0  0
 45 37  1  0  0  0
 25 26  2  0  0  0
 25 24  1  0  0  0
 37 38  1  0  0  0
 37 36  1  0  0  0
 26 27  1  0  0  0
 30 24  1  0  0  0
 30 31  1  0  0  0
 23 22  2  0  0  0
 24 29  2  0  0  0
 27 28  2  0  0  0
 27 22  1  0  0  0
 29 28  1  0  0  0
 36  1  1  0  0  0
 22 21  2  0  0  0
 22 20  1  0  0  0
 13 14  1  0  0  0
 13 12  1  0  0  0
  1  3  1  0  0  0
  1 16  1  0  0  0
 20 19  1  0  0  0
 20 32  1  0  0  0
 14 15  1  0  0  0
 12  9  1  0  0  0
 19 16  1  0  0  0
  3  2  1  0  0  0
 16 17  1  0  0  0
  4  2  2  0  0  0
  2  6  1  0  0  0
 32 33  1  0  0  0
  9 11  1  0  0  0
  6  7  1  0  0  0
 15  7  1  0  0  0
 15 11  1  0  0  0
  7  8  1  0  0  0
 11 10  1  0  0  0
 34 33  1  0  0  0
 33 35  1  0  0  0
 10  8  1  0  0  0
 17 18  1  0  0  0
  3  5  1  0  0  0
M  END
> <minimizedAffinity>
-11.16521

$$$$
5JG1_6KR_B_201


 46 51  0  0  0  0  0  0  0  0999 V2000
   15.5823   20.8793   16.1400 C   0  0  0  0  0  0  0  0  0  0  0  0
   14.4719   19.2794   17.7014 C   0  0  0  0  0  0  0  0  0  0  0  0
   14.4931   20.4513   17.0656 N   0  0  0  0  0  0  0  0  0  0  0  0
   15.2980   18.3826   17.5492 O   0  0  0  0  0  0  0  0  0  0  0  0
   13.7441   21.0722   17.2162 H   0  0  0  0  0  0  0  0  0  0  0  0
   13.4117   19.1982   18.5855 O   0  0  0  0  0  0  0  0  0  0  0  0
   13.3844   18.1114   19.5107 C   0  0  0  0  0  0  0  0  0  0  0  0
   12.7736   18.6149   20.8165 C   0  0  0  0  0  0  0  0  0  0  0  0
   10.4616   18.5668   18.6105 O   0  0  0  0  0  0  0  0  0  0  0  0
   11.3596   18.5346   20.6792 O   0  0  0  0  0  0  0  0  0  0  0  0
   11.0116   17.6876   19.6079 C   0  0  0  0  0  0  0  0  0  0  0  0
   10.1264   17.8009   17.4119 C   0  0  0  0  0  0  0  0  0  0  0  0
   11.4644   17.4339   16.8235 C   0  0  0  0  0  0  0  0  0  0  0  0
   12.3379   16.6495   17.7386 C   0  0  0  0  0  0  0  0  0  0  0  0
   12.3358   17.1021   19.1391 C   0  0  0  0  0  0  0  0  0  0  0  0
   16.8257   21.2529   16.9431 C   0  0  0  0  0  0  0  0  0  0  0  0
   17.7824   20.1773   16.9111 O   0  0  0  0  0  0  0  0  0  0  0  0
   17.4058   19.3965   17.3462 H   0  0  0  0  0  0  0  0  0  0  0  0
   16.5667   21.5261   18.4455 C   0  0  0  0  0  0  0  0  0  0  0  0
   17.2381   22.7161   18.9001 N   0  0  0  0  0  0  0  0  0  0  0  0
   15.2607   23.8753   18.0539 O   0  0  0  0  0  0  0  0  0  0  0  0
   16.5967   24.2034   18.4545 S   0  0  0  0  0  0  0  0  0  0  0  0
   16.7932   25.1924   19.5143 O   0  0  0  0  0  0  0  0  0  0  0  0
   18.5765   26.4225   14.9982 C   0  0  0  0  0  0  0  0  0  0  0  0
   17.4016   25.7278   14.7788 C   0  0  0  0  0  0  0  0  0  0  0  0
   16.8017   24.9911   15.8010 C   0  0  0  0  0  0  0  0  0  0  0  0
   17.3935   24.9416   17.0587 C   0  0  0  0  0  0  0  0  0  0  0  0
   18.5766   25.5973   17.2509 C   0  0  0  0  0  0  0  0  0  0  0  0
   19.2422   26.2870   16.2132 C   0  0  0  0  0  0  0  0  0  0  0  0
   19.0025   27.1980   13.9609 O   0  0  0  0  0  0  0  0  0  0  0  0
   20.0145   28.1745   14.3157 C   0  0  0  0  0  0  0  0  0  0  0  0
   17.6025   22.6159   20.3516 C   0  0  0  0  0  0  0  0  0  0  0  0
   19.1256   22.7766   20.5472 C   0  0  0  0  0  0  0  0  0  0  0  0
   19.8369   22.8116   19.1918 C   0  0  0  0  0  0  0  0  0  0  0  0
   19.4569   24.0654   21.2880 C   0  0  0  0  0  0  0  0  0  0  0  0
   14.9966   21.9887   15.2843 C   0  0  0  0  0  0  0  0  0  0  0  0
   14.1319   21.6283   14.0724 C   0  0  0  0  0  0  0  0  0  0  0  0
   13.0555   20.6041   14.4122 C   0  0  0  0  0  0  0  0  0  0  0  0
   12.1781   20.3752   13.1828 C   0  0  0  0  0  0  0  0  0  0  0  0
   12.9894   19.7819   12.0390 C   0  0  0  0  0  0  0  0  0  0  0  0
   14.0564   20.8104   11.6741 C   0  0  0  0  0  0  0  0  0  0  0  0
   13.3798   22.1161   11.2473 C   0  0  0  0  0  0  0  0  0  0  0  0
   12.5364   22.6942   12.4042 C   0  0  0  0  0  0  0  0  0  0  0  0
   13.4572   22.9229   13.6329 C   0  0  0  0  0  0  0  0  0  0  0  0
   14.9296   21.1307   12.8812 C   0  0  0  0  0  0  0  0  0  0  0  0
   11.4754   21.6692   12.7936 C   0  0  0  0  0  0  0  0  0  0  0  0
 42 43  1  0  0  0
 42 41  1  0  0  0
 43 46  1  0  0  0
 43 44  1  0  0  0
 46 39  1  0  0  0
 41 40  1  0  0  0
 41 45  1  0  0  0
 44 37  1  0  0  0
 40 39  1  0  0  0
 39 38  1  0  0  0
 45 37  1  0  0  0
 25 26  2  0  0  0
 25 24  1  0  0  0
 37 38  1  0  0  0
 37 36  1  0  0  0
 26 27  1  0  0  0
 30 24  1  0  0  0
 30 31  1  0  0  0
 23 22  2  0  0  0
 24 29  2  0  0  0
 27 28  2  0  0  0
 27 22  1  0  0  0
 29 28  1  0  0  0
 36  1  1  0  0  0
 22 21  2  0  0  0
 22 20  1  0  0  0
 13 14  1  0  0  0
 13 12  1  0  0  0
  1  3  1  0  0  0
  1 16  1  0  0  0
 20 19  1  0  0  0
 20 32  1  0  0  0
 14 15  1  0  0  0
 12  9  1  0  0  0
 19 16  1  0  0  0
  3  2  1  0  0  0
 16 17  1  0  0  0
  4  2  2  0  0  0
  2  6  1  0  0  0
 32 33  1  0  0  0
  9 11  1  0  0  0
  6  7  1  0  0  0
 15  7  1  0  0  0
 15 11  1  0  0  0
  7  8  1  0  0  0
 11 10  1  0  0  0
 34 33  1  0  0  0
 33 35  1  0  0  0
 10  8  1  0  0  0
 17 18  1  0  0  0
  3  5  1  0  0  0
M  END
> <minimizedAffinity>
-10.36084

$$$$
5JG1_6KR_B_201


 46 51  0  0  0  0  0  0  0  0999 V2000
   14.7255   21.3612   16.7304 C   0  0  0  0  0  0  0  0  0  0  0  0
   17.0832   21.2048   17.5346 C   0  0  0  0  0  0  0  0  0  0  0  0
   15.8710   21.7563   17.6009 N   0  0  0  0  0  0  0  0  0  0  0  0
   17.3867   20.2606   16.8093 O   0  0  0  0  0  0  0  0  0  0  0  0
   15.7228   22.4677   18.2651 H   0  0  0  0  0  0  0  0  0  0  0  0
   17.9808   21.8449   18.3694 O   0  0  0  0  0  0  0  0  0  0  0  0
   17.5046   22.3436   19.6193 C   0  0  0  0  0  0  0  0  0  0  0  0
   18.4023   21.7910   20.7241 C   0  0  0  0  0  0  0  0  0  0  0  0
   20.1256   23.8672   19.0114 O   0  0  0  0  0  0  0  0  0  0  0  0
   19.5360   22.6462   20.8138 O   0  0  0  0  0  0  0  0  0  0  0  0
   19.2814   23.8773   20.1765 C   0  0  0  0  0  0  0  0  0  0  0  0
   19.8924   25.0772   18.2258 C   0  0  0  0  0  0  0  0  0  0  0  0
   18.5197   24.8753   17.6377 C   0  0  0  0  0  0  0  0  0  0  0  0
   17.4469   24.6737   18.6498 C   0  0  0  0  0  0  0  0  0  0  0  0
   17.8140   23.8048   19.7796 C   0  0  0  0  0  0  0  0  0  0  0  0
   14.5344   22.3977   15.6259 C   0  0  0  0  0  0  0  0  0  0  0  0
   14.9361   23.7005   16.0891 O   0  0  0  0  0  0  0  0  0  0  0  0
   14.3599   23.9760   16.8192 H   0  0  0  0  0  0  0  0  0  0  0  0
   13.0720   22.5672   15.1447 C   0  0  0  0  0  0  0  0  0  0  0  0
   12.7401   21.6405   14.0937 N   0  0  0  0  0  0  0  0  0  0  0  0
   10.6343   21.3005   15.2853 O   0  0  0  0  0  0  0  0  0  0  0  0
   11.1410   21.1448   13.9542 S   0  0  0  0  0  0  0  0  0  0  0  0
   10.4733   21.8467   12.8580 O   0  0  0  0  0  0  0  0  0  0  0  0
   10.9975   16.7117   12.8977 C   0  0  0  0  0  0  0  0  0  0  0  0
   10.8220   17.6557   11.9032 C   0  0  0  0  0  0  0  0  0  0  0  0
   10.8026   19.0186   12.2026 C   0  0  0  0  0  0  0  0  0  0  0  0
   10.9511   19.4410   13.5194 C   0  0  0  0  0  0  0  0  0  0  0  0
   11.0810   18.4968   14.4983 C   0  0  0  0  0  0  0  0  0  0  0  0
   11.0283   17.1107   14.2310 C   0  0  0  0  0  0  0  0  0  0  0  0
   11.1162   15.4227   12.4693 O   0  0  0  0  0  0  0  0  0  0  0  0
   11.0199   14.4281   13.5206 C   0  0  0  0  0  0  0  0  0  0  0  0
   13.3735   22.0400   12.7942 C   0  0  0  0  0  0  0  0  0  0  0  0
   14.0890   20.8383   12.1402 C   0  0  0  0  0  0  0  0  0  0  0  0
   15.3496   21.3030   11.4058 C   0  0  0  0  0  0  0  0  0  0  0  0
   14.5020   19.8053   13.1804 C   0  0  0  0  0  0  0  0  0  0  0  0
   13.5391   21.1651   17.6579 C   0  0  0  0  0  0  0  0  0  0  0  0
   13.1880   19.7556   18.1438 C   0  0  0  0  0  0  0  0  0  0  0  0
   13.9416   18.6740   17.3787 C   0  0  0  0  0  0  0  0  0  0  0  0
   13.6138   17.3116   17.9871 C   0  0  0  0  0  0  0  0  0  0  0  0
   12.1329   16.9913   17.8364 C   0  0  0  0  0  0  0  0  0  0  0  0
   11.3688   18.0553   18.6195 C   0  0  0  0  0  0  0  0  0  0  0  0
   11.7935   18.0083   20.0899 C   0  0  0  0  0  0  0  0  0  0  0  0
   13.3022   18.3055   20.2292 C   0  0  0  0  0  0  0  0  0  0  0  0
   13.6002   19.6978   19.6105 C   0  0  0  0  0  0  0  0  0  0  0  0
   11.7025   19.4486   18.0999 C   0  0  0  0  0  0  0  0  0  0  0  0
   14.0804   17.2600   19.4360 C   0  0  0  0  0  0  0  0  0  0  0  0
 42 43  1  0  0  0
 42 41  1  0  0  0
 43 46  1  0  0  0
 43 44  1  0  0  0
 46 39  1  0  0  0
 41 40  1  0  0  0
 41 45  1  0  0  0
 44 37  1  0  0  0
 40 39  1  0  0  0
 39 38  1  0  0  0
 45 37  1  0  0  0
 25 26  2  0  0  0
 25 24  1  0  0  0
 37 38  1  0  0  0
 37 36  1  0  0  0
 26 27  1  0  0  0
 30 24  1  0  0  0
 30 31  1  0  0  0
 23 22  2  0  0  0
 24 29  2  0  0  0
 27 28  2  0  0  0
 27 22  1  0  0  0
 29 28  1  0  0  0
 36  1  1  0  0  0
 22 21  2  0  0  0
 22 20  1  0  0  0
 13 14  1  0  0  0
 13 12  1  0  0  0
  1  3  1  0  0  0
  1 16  1  0  0  0
 20 19  1  0  0  0
 20 32  1  0  0  0
 14 15  1  0  0  0
 12  9  1  0  0  0
 19 16  1  0  0  0
  3  2  1  0  0  0
 16 17  1  0  0  0
  4  2  2  0  0  0
  2  6  1  0  0  0
 32 33  1  0  0  0
  9 11  1  0  0  0
  6  7  1  0  0  0
 15  7  1  0  0  0
 15 11  1  0  0  0
  7  8  1  0  0  0
 11 10  1  0  0  0
 34 33  1  0  0  0
 33 35  1  0  0  0
 10  8  1  0  0  0
 17 18  1  0  0  0
  3  5  1  0  0  0
M  END
> <minimizedAffinity>
-10.25495

$$$$
5JG1_6KR_B_201


 46 51  0  0  0  0  0  0  0  0999 V2000
   14.5660   22.4536   16.6425 C   0  0  0  0  0  0  0  0  0  0  0  0
   13.9895   20.3117   17.7872 C   0  0  0  0  0  0  0  0  0  0  0  0
   13.6602   21.5461   17.4056 N   0  0  0  0  0  0  0  0  0  0  0  0
   15.0395   19.7433   17.4969 O   0  0  0  0  0  0  0  0  0  0  0  0
   12.7645   21.8793   17.6419 H   0  0  0  0  0  0  0  0  0  0  0  0
   13.0098   19.7453   18.5818 O   0  0  0  0  0  0  0  0  0  0  0  0
   13.3792   18.6755   19.4517 C   0  0  0  0  0  0  0  0  0  0  0  0
   12.7476   18.9345   20.8176 C   0  0  0  0  0  0  0  0  0  0  0  0
   10.3939   18.2533   18.7657 O   0  0  0  0  0  0  0  0  0  0  0  0
   11.4160   18.4354   20.7680 O   0  0  0  0  0  0  0  0  0  0  0  0
   11.2561   17.5533   19.6806 C   0  0  0  0  0  0  0  0  0  0  0  0
   10.2123   17.4559   17.5546 C   0  0  0  0  0  0  0  0  0  0  0  0
   11.5497   17.5261   16.8636 C   0  0  0  0  0  0  0  0  0  0  0  0
   12.6849   17.0163   17.6804 C   0  0  0  0  0  0  0  0  0  0  0  0
   12.6548   17.4077   19.0988 C   0  0  0  0  0  0  0  0  0  0  0  0
   15.1335   23.5208   17.5750 C   0  0  0  0  0  0  0  0  0  0  0  0
   14.0653   24.2525   18.2050 O   0  0  0  0  0  0  0  0  0  0  0  0
   13.5570   24.7281   17.5296 H   0  0  0  0  0  0  0  0  0  0  0  0
   16.0068   24.5920   16.8757 C   0  0  0  0  0  0  0  0  0  0  0  0
   17.3966   24.4704   17.2321 N   0  0  0  0  0  0  0  0  0  0  0  0
   16.6724   23.9541   19.5078 O   0  0  0  0  0  0  0  0  0  0  0  0
   17.7796   23.6538   18.6494 S   0  0  0  0  0  0  0  0  0  0  0  0
   18.0984   22.2533   18.3721 O   0  0  0  0  0  0  0  0  0  0  0  0
   21.6294   24.8534   20.7777 C   0  0  0  0  0  0  0  0  0  0  0  0
   20.4100   25.1229   21.3706 C   0  0  0  0  0  0  0  0  0  0  0  0
   19.2131   24.8211   20.7197 C   0  0  0  0  0  0  0  0  0  0  0  0
   19.2387   24.2502   19.4517 C   0  0  0  0  0  0  0  0  0  0  0  0
   20.4494   24.0281   18.8588 C   0  0  0  0  0  0  0  0  0  0  0  0
   21.6721   24.3936   19.4645 C   0  0  0  0  0  0  0  0  0  0  0  0
   22.7245   25.0832   21.5567 O   0  0  0  0  0  0  0  0  0  0  0  0
   23.9894   25.0220   20.8495 C   0  0  0  0  0  0  0  0  0  0  0  0
   18.2297   24.0711   16.0505 C   0  0  0  0  0  0  0  0  0  0  0  0
   19.0314   25.2758   15.5123 C   0  0  0  0  0  0  0  0  0  0  0  0
   20.3633   24.8083   14.9191 C   0  0  0  0  0  0  0  0  0  0  0  0
   18.2621   26.0125   14.4237 C   0  0  0  0  0  0  0  0  0  0  0  0
   13.7526   22.9728   15.4700 C   0  0  0  0  0  0  0  0  0  0  0  0
   13.6842   22.1520   14.1786 C   0  0  0  0  0  0  0  0  0  0  0  0
   13.2418   22.9876   12.9832 C   0  0  0  0  0  0  0  0  0  0  0  0
   13.2959   22.1251   11.7235 C   0  0  0  0  0  0  0  0  0  0  0  0
   12.3186   20.9615   11.8191 C   0  0  0  0  0  0  0  0  0  0  0  0
   12.7668   20.1039   12.9994 C   0  0  0  0  0  0  0  0  0  0  0  0
   14.1929   19.6038   12.7527 C   0  0  0  0  0  0  0  0  0  0  0  0
   15.1712   20.7919   12.6281 C   0  0  0  0  0  0  0  0  0  0  0  0
   15.0984   21.6419   13.9250 C   0  0  0  0  0  0  0  0  0  0  0  0
   12.7949   20.9267   14.2819 C   0  0  0  0  0  0  0  0  0  0  0  0
   14.7258   21.6699   11.4625 C   0  0  0  0  0  0  0  0  0  0  0  0
 42 43  1  0  0  0
 42 41  1  0  0  0
 43 46  1  0  0  0
 43 44  1  0  0  0
 46 39  1  0  0  0
 41 40  1  0  0  0
 41 45  1  0  0  0
 44 37  1  0  0  0
 40 39  1  0  0  0
 39 38  1  0  0  0
 45 37  1  0  0  0
 25 26  2  0  0  0
 25 24  1  0  0  0
 37 38  1  0  0  0
 37 36  1  0  0  0
 26 27  1  0  0  0
 30 24  1  0  0  0
 30 31  1  0  0  0
 23 22  2  0  0  0
 24 29  2  0  0  0
 27 28  2  0  0  0
 27 22  1  0  0  0
 29 28  1  0  0  0
 36  1  1  0  0  0
 22 21  2  0  0  0
 22 20  1  0  0  0
 13 14  1  0  0  0
 13 12  1  0  0  0
  1  3  1  0  0  0
  1 16  1  0  0  0
 20 19  1  0  0  0
 20 32  1  0  0  0
 14 15  1  0  0  0
 12  9  1  0  0  0
 19 16  1  0  0  0
  3  2  1  0  0  0
 16 17  1  0  0  0
  4  2  2  0  0  0
  2  6  1  0  0  0
 32 33  1  0  0  0
  9 11  1  0  0  0
  6  7  1  0  0  0
 15  7  1  0  0  0
 15 11  1  0  0  0
  7  8  1  0  0  0
 11 10  1  0  0  0
 34 33  1  0  0  0
 33 35  1  0  0  0
 10  8  1  0  0  0
 17 18  1  0  0  0
  3  5  1  0  0  0
M  END
> <minimizedAffinity>
-10.14540

$$$$
5JG1_6KR_B_201


 46 51  0  0  0  0  0  0  0  0999 V2000
   14.9026   20.8375   17.5679 C   0  0  0  0  0  0  0  0  0  0  0  0
   17.3373   21.1249   18.0364 C   0  0  0  0  0  0  0  0  0  0  0  0
   16.0626   21.3752   18.3369 N   0  0  0  0  0  0  0  0  0  0  0  0
   17.7133   20.3675   17.1450 O   0  0  0  0  0  0  0  0  0  0  0  0
   15.8754   21.9500   19.1139 H   0  0  0  0  0  0  0  0  0  0  0  0
   18.2015   21.8475   18.8386 O   0  0  0  0  0  0  0  0  0  0  0  0
   17.7261   22.3053   20.1043 C   0  0  0  0  0  0  0  0  0  0  0  0
   18.6410   21.7395   21.1880 C   0  0  0  0  0  0  0  0  0  0  0  0
   20.3165   23.8888   19.5185 O   0  0  0  0  0  0  0  0  0  0  0  0
   19.7607   22.6114   21.2923 O   0  0  0  0  0  0  0  0  0  0  0  0
   19.4808   23.8541   20.6892 C   0  0  0  0  0  0  0  0  0  0  0  0
   20.0571   25.1146   18.7663 C   0  0  0  0  0  0  0  0  0  0  0  0
   18.6837   24.9047   18.1826 C   0  0  0  0  0  0  0  0  0  0  0  0
   17.6220   24.6586   19.1964 C   0  0  0  0  0  0  0  0  0  0  0  0
   18.0120   23.7669   20.3006 C   0  0  0  0  0  0  0  0  0  0  0  0
   14.6650   21.6927   16.3259 C   0  0  0  0  0  0  0  0  0  0  0  0
   13.2533   21.8681   16.1031 O   0  0  0  0  0  0  0  0  0  0  0  0
   12.8456   21.0074   15.9190 H   0  0  0  0  0  0  0  0  0  0  0  0
   15.2153   21.0885   15.0102 C   0  0  0  0  0  0  0  0  0  0  0  0
   15.4016   22.0912   13.9936 N   0  0  0  0  0  0  0  0  0  0  0  0
   13.4744   22.8613   12.7042 O   0  0  0  0  0  0  0  0  0  0  0  0
   14.5491   21.9254   12.5556 S   0  0  0  0  0  0  0  0  0  0  0  0
   15.4425   22.0533   11.4043 O   0  0  0  0  0  0  0  0  0  0  0  0
   12.7198   17.8542   11.6239 C   0  0  0  0  0  0  0  0  0  0  0  0
   11.9185   18.8633   12.1246 C   0  0  0  0  0  0  0  0  0  0  0  0
   12.4584   20.1018   12.4742 C   0  0  0  0  0  0  0  0  0  0  0  0
   13.8230   20.3286   12.3295 C   0  0  0  0  0  0  0  0  0  0  0  0
   14.6106   19.3095   11.8740 C   0  0  0  0  0  0  0  0  0  0  0  0
   14.1009   18.0242   11.5848 C   0  0  0  0  0  0  0  0  0  0  0  0
   12.0626   16.7339   11.2091 O   0  0  0  0  0  0  0  0  0  0  0  0
   12.8997   15.5557   11.0874 C   0  0  0  0  0  0  0  0  0  0  0  0
   15.3584   23.4727   14.5759 C   0  0  0  0  0  0  0  0  0  0  0  0
   16.7414   24.1522   14.4796 C   0  0  0  0  0  0  0  0  0  0  0  0
   16.6666   25.5907   14.9988 C   0  0  0  0  0  0  0  0  0  0  0  0
   17.7844   23.4068   15.3020 C   0  0  0  0  0  0  0  0  0  0  0  0
   13.7439   20.7671   18.5469 C   0  0  0  0  0  0  0  0  0  0  0  0
   13.0005   19.4418   18.7400 C   0  0  0  0  0  0  0  0  0  0  0  0
   11.8174   19.2970   17.7901 C   0  0  0  0  0  0  0  0  0  0  0  0
   11.1942   17.9146   17.9759 C   0  0  0  0  0  0  0  0  0  0  0  0
   10.6365   17.7547   19.3836 C   0  0  0  0  0  0  0  0  0  0  0  0
   11.8175   17.8740   20.3430 C   0  0  0  0  0  0  0  0  0  0  0  0
   12.8402   16.7782   20.0300 C   0  0  0  0  0  0  0  0  0  0  0  0
   13.3778   16.9318   18.5908 C   0  0  0  0  0  0  0  0  0  0  0  0
   14.0110   18.3409   18.4377 C   0  0  0  0  0  0  0  0  0  0  0  0
   12.5239   19.2123   20.1623 C   0  0  0  0  0  0  0  0  0  0  0  0
   12.2054   16.8330   17.6194 C   0  0  0  0  0  0  0  0  0  0  0  0
 42 43  1  0  0  0
 42 41  1  0  0  0
 43 46  1  0  0  0
 43 44  1  0  0  0
 46 39  1  0  0  0
 41 40  1  0  0  0
 41 45  1  0  0  0
 44 37  1  0  0  0
 40 39  1  0  0  0
 39 38  1  0  0  0
 45 37  1  0  0  0
 25 26  2  0  0  0
 25 24  1  0  0  0
 37 38  1  0  0  0
 37 36  1  0  0  0
 26 27  1  0  0  0
 30 24  1  0  0  0
 30 31  1  0  0  0
 23 22  2  0  0  0
 24 29  2  0  0  0
 27 28  2  0  0  0
 27 22  1  0  0  0
 29 28  1  0  0  0
 36  1  1  0  0  0
 22 21  2  0  0  0
 22 20  1  0  0  0
 13 14  1  0  0  0
 13 12  1  0  0  0
  1  3  1  0  0  0
  1 16  1  0  0  0
 20 19  1  0  0  0
 20 32  1  0  0  0
 14 15  1  0  0  0
 12  9  1  0  0  0
 19 16  1  0  0  0
  3  2  1  0  0  0
 16 17  1  0  0  0
  4  2  2  0  0  0
  2  6  1  0  0  0
 32 33  1  0  0  0
  9 11  1  0  0  0
  6  7  1  0  0  0
 15  7  1  0  0  0
 15 11  1  0  0  0
  7  8  1  0  0  0
 11 10  1  0  0  0
 34 33  1  0  0  0
 33 35  1  0  0  0
 10  8  1  0  0  0
 17 18  1  0  0  0
  3  5  1  0  0  0
M  END
> <minimizedAffinity>
-10.10407

$$$$
5JG1_6KR_B_201


 46 51  0  0  0  0  0  0  0  0999 V2000
   15.6207   20.9067   17.4583 C   0  0  0  0  0  0  0  0  0  0  0  0
   14.4732   21.6972   15.3874 C   0  0  0  0  0  0  0  0  0  0  0  0
   15.2102   20.7897   16.0285 N   0  0  0  0  0  0  0  0  0  0  0  0
   13.9803   22.6959   15.9065 O   0  0  0  0  0  0  0  0  0  0  0  0
   15.5015   19.9937   15.5279 H   0  0  0  0  0  0  0  0  0  0  0  0
   14.3473   21.3947   14.0439 O   0  0  0  0  0  0  0  0  0  0  0  0
   14.3802   22.4678   13.1031 C   0  0  0  0  0  0  0  0  0  0  0  0
   15.3477   22.0888   11.9842 C   0  0  0  0  0  0  0  0  0  0  0  0
   12.7971   20.1761   11.7604 O   0  0  0  0  0  0  0  0  0  0  0  0
   14.6243   21.2930   11.0525 O   0  0  0  0  0  0  0  0  0  0  0  0
   13.2360   21.4446   11.2421 C   0  0  0  0  0  0  0  0  0  0  0  0
   11.3692   20.2378   12.0652 C   0  0  0  0  0  0  0  0  0  0  0  0
   11.2895   21.1319   13.2757 C   0  0  0  0  0  0  0  0  0  0  0  0
   11.8561   22.4924   13.0666 C   0  0  0  0  0  0  0  0  0  0  0  0
   13.1121   22.5313   12.3003 C   0  0  0  0  0  0  0  0  0  0  0  0
   16.9535   21.6448   17.5544 C   0  0  0  0  0  0  0  0  0  0  0  0
   17.7517   21.0972   18.6204 O   0  0  0  0  0  0  0  0  0  0  0  0
   17.3024   21.2417   19.4679 H   0  0  0  0  0  0  0  0  0  0  0  0
   16.8338   23.1569   17.8678 C   0  0  0  0  0  0  0  0  0  0  0  0
   17.8678   23.9241   17.2231 N   0  0  0  0  0  0  0  0  0  0  0  0
   17.6562   23.2471   14.8850 O   0  0  0  0  0  0  0  0  0  0  0  0
   17.5943   24.4551   15.6530 S   0  0  0  0  0  0  0  0  0  0  0  0
   16.3838   25.2737   15.5850 O   0  0  0  0  0  0  0  0  0  0  0  0
   20.9169   27.3072   14.3821 C   0  0  0  0  0  0  0  0  0  0  0  0
   19.5972   27.6606   14.1714 C   0  0  0  0  0  0  0  0  0  0  0  0
   18.5593   26.7860   14.4958 C   0  0  0  0  0  0  0  0  0  0  0  0
   18.8489   25.5347   15.0296 C   0  0  0  0  0  0  0  0  0  0  0  0
   20.1582   25.1806   15.1932 C   0  0  0  0  0  0  0  0  0  0  0  0
   21.2276   26.0172   14.8031 C   0  0  0  0  0  0  0  0  0  0  0  0
   21.8334   28.2864   14.1369 O   0  0  0  0  0  0  0  0  0  0  0  0
   22.7172   28.5757   15.2499 C   0  0  0  0  0  0  0  0  0  0  0  0
   18.4172   24.9770   18.1392 C   0  0  0  0  0  0  0  0  0  0  0  0
   19.6272   24.4374   18.9320 C   0  0  0  0  0  0  0  0  0  0  0  0
   20.7833   25.4405   18.8895 C   0  0  0  0  0  0  0  0  0  0  0  0
   19.2691   24.1910   20.3916 C   0  0  0  0  0  0  0  0  0  0  0  0
   15.6115   19.4945   18.0164 C   0  0  0  0  0  0  0  0  0  0  0  0
   14.2741   18.7836   18.2448 C   0  0  0  0  0  0  0  0  0  0  0  0
   14.4413   17.2805   18.4343 C   0  0  0  0  0  0  0  0  0  0  0  0
   13.0811   16.6633   18.7547 C   0  0  0  0  0  0  0  0  0  0  0  0
   12.1146   16.8446   17.5923 C   0  0  0  0  0  0  0  0  0  0  0  0
   11.9209   18.3473   17.4089 C   0  0  0  0  0  0  0  0  0  0  0  0
   11.3493   18.9476   18.6965 C   0  0  0  0  0  0  0  0  0  0  0  0
   12.3235   18.7329   19.8750 C   0  0  0  0  0  0  0  0  0  0  0  0
   13.6906   19.3779   19.5218 C   0  0  0  0  0  0  0  0  0  0  0  0
   13.2562   19.0336   17.1474 C   0  0  0  0  0  0  0  0  0  0  0  0
   12.5422   17.2343   20.0598 C   0  0  0  0  0  0  0  0  0  0  0  0
 42 43  1  0  0  0
 42 41  1  0  0  0
 43 46  1  0  0  0
 43 44  1  0  0  0
 46 39  1  0  0  0
 41 40  1  0  0  0
 41 45  1  0  0  0
 44 37  1  0  0  0
 40 39  1  0  0  0
 39 38  1  0  0  0
 45 37  1  0  0  0
 25 26  2  0  0  0
 25 24  1  0  0  0
 37 38  1  0  0  0
 37 36  1  0  0  0
 26 27  1  0  0  0
 30 24  1  0  0  0
 30 31  1  0  0  0
 23 22  2  0  0  0
 24 29  2  0  0  0
 27 28  2  0  0  0
 27 22  1  0  0  0
 29 28  1  0  0  0
 36  1  1  0  0  0
 22 21  2  0  0  0
 22 20  1  0  0  0
 13 14  1  0  0  0
 13 12  1  0  0  0
  1  3  1  0  0  0
  1 16  1  0  0  0
 20 19  1  0  0  0
 20 32  1  0  0  0
 14 15  1  0  0  0
 12  9  1  0  0  0
 19 16  1  0  0  0
  3  2  1  0  0  0
 16 17  1  0  0  0
  4  2  2  0  0  0
  2  6  1  0  0  0
 32 33  1  0  0  0
  9 11  1  0  0  0
  6  7  1  0  0  0
 15  7  1  0  0  0
 15 11  1  0  0  0
  7  8  1  0  0  0
 11 10  1  0  0  0
 34 33  1  0  0  0
 33 35  1  0  0  0
 10  8  1  0  0  0
 17 18  1  0  0  0
  3  5  1  0  0  0
M  END
> <minimizedAffinity>
-10.09047

$$$$
5JG1_6KR_B_201


 46 51  0  0  0  0  0  0  0  0999 V2000
   15.1914   21.6762   16.3822 C   0  0  0  0  0  0  0  0  0  0  0  0
   14.4738   19.9851   18.0719 C   0  0  0  0  0  0  0  0  0  0  0  0
   14.2172   21.0646   17.3327 N   0  0  0  0  0  0  0  0  0  0  0  0
   15.5049   19.3197   18.0096 O   0  0  0  0  0  0  0  0  0  0  0  0
   13.3307   21.4839   17.4192 H   0  0  0  0  0  0  0  0  0  0  0  0
   13.4410   19.7112   18.9498 O   0  0  0  0  0  0  0  0  0  0  0  0
   13.4891   18.4925   19.6916 C   0  0  0  0  0  0  0  0  0  0  0  0
   12.7713   18.7170   21.0206 C   0  0  0  0  0  0  0  0  0  0  0  0
   10.5767   18.7972   18.6987 O   0  0  0  0  0  0  0  0  0  0  0  0
   11.3813   18.5212   20.7875 O   0  0  0  0  0  0  0  0  0  0  0  0
   11.1730   17.8275   19.5786 C   0  0  0  0  0  0  0  0  0  0  0  0
   10.3781   18.2048   17.3776 C   0  0  0  0  0  0  0  0  0  0  0  0
   11.7721   18.0704   16.8210 C   0  0  0  0  0  0  0  0  0  0  0  0
   12.6832   17.2388   17.6541 C   0  0  0  0  0  0  0  0  0  0  0  0
   12.5714   17.4580   19.1052 C   0  0  0  0  0  0  0  0  0  0  0  0
   16.1319   22.6120   17.1373 C   0  0  0  0  0  0  0  0  0  0  0  0
   15.7583   23.9842   16.9116 O   0  0  0  0  0  0  0  0  0  0  0  0
   15.8642   24.1976   15.9713 H   0  0  0  0  0  0  0  0  0  0  0  0
   17.6179   22.5168   16.7110 C   0  0  0  0  0  0  0  0  0  0  0  0
   18.4071   23.5855   17.2665 N   0  0  0  0  0  0  0  0  0  0  0  0
   18.1390   24.6753   15.0962 O   0  0  0  0  0  0  0  0  0  0  0  0
   18.4414   25.0507   16.4454 S   0  0  0  0  0  0  0  0  0  0  0  0
   17.5922   26.0389   17.1105 O   0  0  0  0  0  0  0  0  0  0  0  0
   22.3682   27.3675   16.3975 C   0  0  0  0  0  0  0  0  0  0  0  0
   21.9927   26.6388   15.2844 C   0  0  0  0  0  0  0  0  0  0  0  0
   20.8262   25.8728   15.2878 C   0  0  0  0  0  0  0  0  0  0  0  0
   20.0298   25.8284   16.4272 C   0  0  0  0  0  0  0  0  0  0  0  0
   20.4339   26.5185   17.5349 C   0  0  0  0  0  0  0  0  0  0  0  0
   21.6476   27.2398   17.5817 C   0  0  0  0  0  0  0  0  0  0  0  0
   23.4606   28.1670   16.2349 O   0  0  0  0  0  0  0  0  0  0  0  0
   24.6400   27.4814   15.7423 C   0  0  0  0  0  0  0  0  0  0  0  0
   18.1852   23.7160   18.7441 C   0  0  0  0  0  0  0  0  0  0  0  0
   19.3211   23.0287   19.5323 C   0  0  0  0  0  0  0  0  0  0  0  0
   20.0225   24.0372   20.4462 C   0  0  0  0  0  0  0  0  0  0  0  0
   18.7879   21.8961   20.3998 C   0  0  0  0  0  0  0  0  0  0  0  0
   14.3621   22.3238   15.2872 C   0  0  0  0  0  0  0  0  0  0  0  0
   14.1467   21.5795   13.9658 C   0  0  0  0  0  0  0  0  0  0  0  0
   14.3145   20.0720   14.1155 C   0  0  0  0  0  0  0  0  0  0  0  0
   13.9866   19.3986   12.7840 C   0  0  0  0  0  0  0  0  0  0  0  0
   14.9631   19.8337   11.6999 C   0  0  0  0  0  0  0  0  0  0  0  0
   14.7866   21.3395   11.5246 C   0  0  0  0  0  0  0  0  0  0  0  0
   13.3419   21.6381   11.1139 C   0  0  0  0  0  0  0  0  0  0  0  0
   12.3581   21.1668   12.2065 C   0  0  0  0  0  0  0  0  0  0  0  0
   12.7123   21.8746   13.5419 C   0  0  0  0  0  0  0  0  0  0  0  0
   15.0392   22.0672   12.8395 C   0  0  0  0  0  0  0  0  0  0  0  0
   12.5352   19.6647   12.4069 C   0  0  0  0  0  0  0  0  0  0  0  0
 42 43  1  0  0  0
 42 41  1  0  0  0
 43 46  1  0  0  0
 43 44  1  0  0  0
 46 39  1  0  0  0
 41 40  1  0  0  0
 41 45  1  0  0  0
 44 37  1  0  0  0
 40 39  1  0  0  0
 39 38  1  0  0  0
 45 37  1  0  0  0
 25 26  2  0  0  0
 25 24  1  0  0  0
 37 38  1  0  0  0
 37 36  1  0  0  0
 26 27  1  0  0  0
 30 24  1  0  0  0
 30 31  1  0  0  0
 23 22  2  0  0  0
 24 29  2  0  0  0
 27 28  2  0  0  0
 27 22  1  0  0  0
 29 28  1  0  0  0
 36  1  1  0  0  0
 22 21  2  0  0  0
 22 20  1  0  0  0
 13 14  1  0  0  0
 13 12  1  0  0  0
  1  3  1  0  0  0
  1 16  1  0  0  0
 20 19  1  0  0  0
 20 32  1  0  0  0
 14 15  1  0  0  0
 12  9  1  0  0  0
 19 16  1  0  0  0
  3  2  1  0  0  0
 16 17  1  0  0  0
  4  2  2  0  0  0
  2  6  1  0  0  0
 32 33  1  0  0  0
  9 11  1  0  0  0
  6  7  1  0  0  0
 15  7  1  0  0  0
 15 11  1  0  0  0
  7  8  1  0  0  0
 11 10  1  0  0  0
 34 33  1  0  0  0
 33 35  1  0  0  0
 10  8  1  0  0  0
 17 18  1  0  0  0
  3  5  1  0  0  0
M  END
> <minimizedAffinity>
-10.05097

$$$$
5JG1_6KR_B_201


 46 51  0  0  0  0  0  0  0  0999 V2000
   14.9041   21.5165   17.2522 C   0  0  0  0  0  0  0  0  0  0  0  0
   17.3858   21.3686   17.4740 C   0  0  0  0  0  0  0  0  0  0  0  0
   16.2198   21.9008   17.8415 N   0  0  0  0  0  0  0  0  0  0  0  0
   17.5161   20.4512   16.6671 O   0  0  0  0  0  0  0  0  0  0  0  0
   16.2276   22.5896   18.5449 H   0  0  0  0  0  0  0  0  0  0  0  0
   18.4506   21.9954   18.0950 O   0  0  0  0  0  0  0  0  0  0  0  0
   19.1183   23.0458   17.3960 C   0  0  0  0  0  0  0  0  0  0  0  0
   18.1005   23.7351   16.4902 C   0  0  0  0  0  0  0  0  0  0  0  0
   17.3278   24.4075   19.5176 O   0  0  0  0  0  0  0  0  0  0  0  0
   17.4142   24.6975   17.2825 O   0  0  0  0  0  0  0  0  0  0  0  0
   18.1313   24.9701   18.4648 C   0  0  0  0  0  0  0  0  0  0  0  0
   18.0132   24.5693   20.7981 C   0  0  0  0  0  0  0  0  0  0  0  0
   19.1711   23.6079   20.7199 C   0  0  0  0  0  0  0  0  0  0  0  0
   20.0937   23.8569   19.5786 C   0  0  0  0  0  0  0  0  0  0  0  0
   19.4328   24.1970   18.3082 C   0  0  0  0  0  0  0  0  0  0  0  0
   14.4514   22.5837   16.2589 C   0  0  0  0  0  0  0  0  0  0  0  0
   14.5356   23.8906   16.8574 O   0  0  0  0  0  0  0  0  0  0  0  0
   13.9221   23.9431   17.6069 H   0  0  0  0  0  0  0  0  0  0  0  0
   12.9835   22.4443   15.7848 C   0  0  0  0  0  0  0  0  0  0  0  0
   12.8917   21.8062   14.4972 N   0  0  0  0  0  0  0  0  0  0  0  0
   10.4997   21.7123   14.9860 O   0  0  0  0  0  0  0  0  0  0  0  0
   11.3623   21.5405   13.8550 S   0  0  0  0  0  0  0  0  0  0  0  0
   11.1455   22.3695   12.6694 O   0  0  0  0  0  0  0  0  0  0  0  0
   11.0528   17.2376   12.3788 C   0  0  0  0  0  0  0  0  0  0  0  0
   10.9868   18.2769   11.4696 C   0  0  0  0  0  0  0  0  0  0  0  0
   11.0201   19.6057   11.8947 C   0  0  0  0  0  0  0  0  0  0  0  0
   11.1108   19.8971   13.2517 C   0  0  0  0  0  0  0  0  0  0  0  0
   11.1322   18.8617   14.1428 C   0  0  0  0  0  0  0  0  0  0  0  0
   11.0239   17.5111   13.7434 C   0  0  0  0  0  0  0  0  0  0  0  0
   11.1300   15.9884   11.8380 O   0  0  0  0  0  0  0  0  0  0  0  0
   11.7524   15.9369   10.5289 C   0  0  0  0  0  0  0  0  0  0  0  0
   13.8705   22.3957   13.5255 C   0  0  0  0  0  0  0  0  0  0  0  0
   14.7809   21.2996   12.9308 C   0  0  0  0  0  0  0  0  0  0  0  0
   14.6243   19.9931   13.7136 C   0  0  0  0  0  0  0  0  0  0  0  0
   14.4353   21.0215   11.4738 C   0  0  0  0  0  0  0  0  0  0  0  0
   13.9709   21.2750   18.4257 C   0  0  0  0  0  0  0  0  0  0  0  0
   13.3882   19.8762   18.6490 C   0  0  0  0  0  0  0  0  0  0  0  0
   11.9992   19.7228   18.0407 C   0  0  0  0  0  0  0  0  0  0  0  0
   11.5331   18.2788   18.2181 C   0  0  0  0  0  0  0  0  0  0  0  0
   11.3965   17.9291   19.6937 C   0  0  0  0  0  0  0  0  0  0  0  0
   12.7877   18.0562   20.3085 C   0  0  0  0  0  0  0  0  0  0  0  0
   13.7460   17.0927   19.6026 C   0  0  0  0  0  0  0  0  0  0  0  0
   13.8549   17.4375   18.1015 C   0  0  0  0  0  0  0  0  0  0  0  0
   14.3381   18.9056   17.9561 C   0  0  0  0  0  0  0  0  0  0  0  0
   13.3375   19.4634   20.1085 C   0  0  0  0  0  0  0  0  0  0  0  0
   12.4675   17.3328   17.4754 C   0  0  0  0  0  0  0  0  0  0  0  0
 42 43  1  0  0  0
 42 41  1  0  0  0
 43 46  1  0  0  0
 43 44  1  0  0  0
 46 39  1  0  0  0
 41 40  1  0  0  0
 41 45  1  0  0  0
 44 37  1  0  0  0
 40 39  1  0  0  0
 39 38  1  0  0  0
 45 37  1  0  0  0
 25 26  2  0  0  0
 25 24  1  0  0  0
 37 38  1  0  0  0
 37 36  1  0  0  0
 26 27  1  0  0  0
 30 24  1  0  0  0
 30 31  1  0  0  0
 23 22  2  0  0  0
 24 29  2  0  0  0
 27 28  2  0  0  0
 27 22  1  0  0  0
 29 28  1  0  0  0
 36  1  1  0  0  0
 22 21  2  0  0  0
 22 20  1  0  0  0
 13 14  1  0  0  0
 13 12  1  0  0  0
  1  3  1  0  0  0
  1 16  1  0  0  0
 20 19  1  0  0  0
 20 32  1  0  0  0
 14 15  1  0  0  0
 12  9  1  0  0  0
 19 16  1  0  0  0
  3  2  1  0  0  0
 16 17  1  0  0  0
  4  2  2  0  0  0
  2  6  1  0  0  0
 32 33  1  0  0  0
  9 11  1  0  0  0
  6  7  1  0  0  0
 15  7  1  0  0  0
 15 11  1  0  0  0
  7  8  1  0  0  0
 11 10  1  0  0  0
 34 33  1  0  0  0
 33 35  1  0  0  0
 10  8  1  0  0  0
 17 18  1  0  0  0
  3  5  1  0  0  0
M  END
> <minimizedAffinity>
-9.99112

$$$$
5JG1_6KR_B_201


 46 51  0  0  0  0  0  0  0  0999 V2000
   14.0890   20.2523   16.4557 C   0  0  0  0  0  0  0  0  0  0  0  0
   14.0430   18.1293   17.7677 C   0  0  0  0  0  0  0  0  0  0  0  0
   13.5413   18.9105   16.8107 N   0  0  0  0  0  0  0  0  0  0  0  0
   15.0542   18.3785   18.4197 O   0  0  0  0  0  0  0  0  0  0  0  0
   12.7615   18.5819   16.3075 H   0  0  0  0  0  0  0  0  0  0  0  0
   13.2675   17.0013   17.9637 O   0  0  0  0  0  0  0  0  0  0  0  0
   12.3487   16.9936   19.0561 C   0  0  0  0  0  0  0  0  0  0  0  0
   12.0914   18.4407   19.4702 C   0  0  0  0  0  0  0  0  0  0  0  0
   10.7709   17.9976   16.5938 O   0  0  0  0  0  0  0  0  0  0  0  0
   11.0731   18.9491   18.6162 O   0  0  0  0  0  0  0  0  0  0  0  0
   10.3887   17.8958   17.9772 C   0  0  0  0  0  0  0  0  0  0  0  0
   10.1709   16.9010   15.8367 C   0  0  0  0  0  0  0  0  0  0  0  0
   10.9257   15.6803   16.2963 C   0  0  0  0  0  0  0  0  0  0  0  0
   10.8468   15.4311   17.7617 C   0  0  0  0  0  0  0  0  0  0  0  0
   10.9626   16.6330   18.6034 C   0  0  0  0  0  0  0  0  0  0  0  0
   14.4123   21.0314   17.7281 C   0  0  0  0  0  0  0  0  0  0  0  0
   13.2293   21.1831   18.5348 O   0  0  0  0  0  0  0  0  0  0  0  0
   12.5754   21.7137   18.0532 H   0  0  0  0  0  0  0  0  0  0  0  0
   14.9328   22.4706   17.4899 C   0  0  0  0  0  0  0  0  0  0  0  0
   16.3706   22.5371   17.5313 N   0  0  0  0  0  0  0  0  0  0  0  0
   18.1100   21.3359   16.3059 O   0  0  0  0  0  0  0  0  0  0  0  0
   17.2082   22.4260   16.0793 S   0  0  0  0  0  0  0  0  0  0  0  0
   16.2818   22.3528   14.9495 O   0  0  0  0  0  0  0  0  0  0  0  0
   19.7089   26.0077   14.7725 C   0  0  0  0  0  0  0  0  0  0  0  0
   20.3146   24.9612   15.4426 C   0  0  0  0  0  0  0  0  0  0  0  0
   19.5674   23.8778   15.9068 C   0  0  0  0  0  0  0  0  0  0  0  0
   18.1915   23.8477   15.7053 C   0  0  0  0  0  0  0  0  0  0  0  0
   17.5989   24.9078   15.0796 C   0  0  0  0  0  0  0  0  0  0  0  0
   18.3214   26.0497   14.6676 C   0  0  0  0  0  0  0  0  0  0  0  0
   20.5554   26.9487   14.2657 O   0  0  0  0  0  0  0  0  0  0  0  0
   19.9666   28.2647   14.1072 C   0  0  0  0  0  0  0  0  0  0  0  0
   16.8398   23.6456   18.4262 C   0  0  0  0  0  0  0  0  0  0  0  0
   17.9685   23.1568   19.3595 C   0  0  0  0  0  0  0  0  0  0  0  0
   18.1699   24.1416   20.5144 C   0  0  0  0  0  0  0  0  0  0  0  0
   17.6454   21.7920   19.9534 C   0  0  0  0  0  0  0  0  0  0  0  0
   13.0664   20.8951   15.5353 C   0  0  0  0  0  0  0  0  0  0  0  0
   13.1013   20.5829   14.0361 C   0  0  0  0  0  0  0  0  0  0  0  0
   12.8448   21.8179   13.1806 C   0  0  0  0  0  0  0  0  0  0  0  0
   12.9952   21.4446   11.7069 C   0  0  0  0  0  0  0  0  0  0  0  0
   11.9511   20.4146   11.2979 C   0  0  0  0  0  0  0  0  0  0  0  0
   12.2138   19.1638   12.1321 C   0  0  0  0  0  0  0  0  0  0  0  0
   13.6292   18.6521   11.8502 C   0  0  0  0  0  0  0  0  0  0  0  0
   14.6789   19.7148   12.2410 C   0  0  0  0  0  0  0  0  0  0  0  0
   14.5051   20.0652   13.7433 C   0  0  0  0  0  0  0  0  0  0  0  0
   12.1402   19.4846   13.6201 C   0  0  0  0  0  0  0  0  0  0  0  0
   14.4184   20.9793   11.4280 C   0  0  0  0  0  0  0  0  0  0  0  0
 42 43  1  0  0  0
 42 41  1  0  0  0
 43 46  1  0  0  0
 43 44  1  0  0  0
 46 39  1  0  0  0
 41 40  1  0  0  0
 41 45  1  0  0  0
 44 37  1  0  0  0
 40 39  1  0  0  0
 39 38  1  0  0  0
 45 37  1  0  0  0
 25 26  2  0  0  0
 25 24  1  0  0  0
 37 38  1  0  0  0
 37 36  1  0  0  0
 26 27  1  0  0  0
 30 24  1  0  0  0
 30 31  1  0  0  0
 23 22  2  0  0  0
 24 29  2  0  0  0
 27 28  2  0  0  0
 27 22  1  0  0  0
 29 28  1  0  0  0
 36  1  1  0  0  0
 22 21  2  0  0  0
 22 20  1  0  0  0
 13 14  1  0  0  0
 13 12  1  0  0  0
  1  3  1  0  0  0
  1 16  1  0  0  0
 20 19  1  0  0  0
 20 32  1  0  0  0
 14 15  1  0  0  0
 12  9  1  0  0  0
 19 16  1  0  0  0
  3  2  1  0  0  0
 16 17  1  0  0  0
  4  2  2  0  0  0
  2  6  1  0  0  0
 32 33  1  0  0  0
  9 11  1  0  0  0
  6  7  1  0  0  0
 15  7  1  0  0  0
 15 11  1  0  0  0
  7  8  1  0  0  0
 11 10  1  0  0  0
 34 33  1  0  0  0
 33 35  1  0  0  0
 10  8  1  0  0  0
 17 18  1  0  0  0
  3  5  1  0  0  0
M  END
> <minimizedAffinity>
-9.87386

$$$$
5JG1_6KR_B_201


 46 51  0  0  0  0  0  0  0  0999 V2000
   14.6936   22.2314   16.8472 C   0  0  0  0  0  0  0  0  0  0  0  0
   14.6434   19.8605   17.6261 C   0  0  0  0  0  0  0  0  0  0  0  0
   14.0075   20.9602   17.2210 N   0  0  0  0  0  0  0  0  0  0  0  0
   15.8644   19.7310   17.6701 O   0  0  0  0  0  0  0  0  0  0  0  0
   13.0250   20.9318   17.1651 H   0  0  0  0  0  0  0  0  0  0  0  0
   13.7569   18.8760   18.0227 O   0  0  0  0  0  0  0  0  0  0  0  0
   12.3634   19.0912   17.8005 C   0  0  0  0  0  0  0  0  0  0  0  0
   11.8809   18.0627   16.7801 C   0  0  0  0  0  0  0  0  0  0  0  0
   12.5918   16.5039   19.4780 O   0  0  0  0  0  0  0  0  0  0  0  0
   11.5835   16.8681   17.4937 O   0  0  0  0  0  0  0  0  0  0  0  0
   11.4486   17.1327   18.8714 C   0  0  0  0  0  0  0  0  0  0  0  0
   12.5965   16.7745   20.9141 C   0  0  0  0  0  0  0  0  0  0  0  0
   12.9378   18.2392   21.0115 C   0  0  0  0  0  0  0  0  0  0  0  0
   11.9880   19.1349   20.2965 C   0  0  0  0  0  0  0  0  0  0  0  0
   11.5458   18.6476   18.9800 C   0  0  0  0  0  0  0  0  0  0  0  0
   14.8601   23.1115   18.0835 C   0  0  0  0  0  0  0  0  0  0  0  0
   14.0646   24.3051   17.9574 O   0  0  0  0  0  0  0  0  0  0  0  0
   14.3862   24.8303   17.2079 H   0  0  0  0  0  0  0  0  0  0  0  0
   16.3059   23.6075   18.3337 C   0  0  0  0  0  0  0  0  0  0  0  0
   17.1751   23.3157   17.2235 N   0  0  0  0  0  0  0  0  0  0  0  0
   17.2758   23.7533   14.8218 O   0  0  0  0  0  0  0  0  0  0  0  0
   17.3721   24.4953   16.0437 S   0  0  0  0  0  0  0  0  0  0  0  0
   16.4529   25.6113   16.2664 O   0  0  0  0  0  0  0  0  0  0  0  0
   21.3104   26.7922   15.9797 C   0  0  0  0  0  0  0  0  0  0  0  0
   21.0862   25.7968   15.0469 C   0  0  0  0  0  0  0  0  0  0  0  0
   19.9163   25.0365   15.0756 C   0  0  0  0  0  0  0  0  0  0  0  0
   18.9617   25.2706   16.0597 C   0  0  0  0  0  0  0  0  0  0  0  0
   19.2142   26.2278   17.0011 C   0  0  0  0  0  0  0  0  0  0  0  0
   20.4226   26.9586   17.0389 C   0  0  0  0  0  0  0  0  0  0  0  0
   22.4308   27.5428   15.7796 O   0  0  0  0  0  0  0  0  0  0  0  0
   22.2916   28.5741   14.7692 C   0  0  0  0  0  0  0  0  0  0  0  0
   18.4579   22.6902   17.6850 C   0  0  0  0  0  0  0  0  0  0  0  0
   18.7161   23.0031   19.1747 C   0  0  0  0  0  0  0  0  0  0  0  0
   18.7567   21.7093   19.9925 C   0  0  0  0  0  0  0  0  0  0  0  0
   20.0426   23.7260   19.3680 C   0  0  0  0  0  0  0  0  0  0  0  0
   13.8772   22.8348   15.7179 C   0  0  0  0  0  0  0  0  0  0  0  0
   13.8094   22.1131   14.3686 C   0  0  0  0  0  0  0  0  0  0  0  0
   15.1029   21.3774   14.0390 C   0  0  0  0  0  0  0  0  0  0  0  0
   14.9196   20.6057   12.7333 C   0  0  0  0  0  0  0  0  0  0  0  0
   14.6584   21.5557   11.5726 C   0  0  0  0  0  0  0  0  0  0  0  0
   13.3515   22.2812   11.8808 C   0  0  0  0  0  0  0  0  0  0  0  0
   12.2210   21.2574   12.0171 C   0  0  0  0  0  0  0  0  0  0  0  0
   12.5094   20.2810   13.1778 C   0  0  0  0  0  0  0  0  0  0  0  0
   12.6816   21.0944   14.4888 C   0  0  0  0  0  0  0  0  0  0  0  0
   13.4484   23.0227   13.2087 C   0  0  0  0  0  0  0  0  0  0  0  0
   13.8237   19.5602   12.8933 C   0  0  0  0  0  0  0  0  0  0  0  0
 42 43  1  0  0  0
 42 41  1  0  0  0
 43 46  1  0  0  0
 43 44  1  0  0  0
 46 39  1  0  0  0
 41 40  1  0  0  0
 41 45  1  0  0  0
 44 37  1  0  0  0
 40 39  1  0  0  0
 39 38  1  0  0  0
 45 37  1  0  0  0
 25 26  2  0  0  0
 25 24  1  0  0  0
 37 38  1  0  0  0
 37 36  1  0  0  0
 26 27  1  0  0  0
 30 24  1  0  0  0
 30 31  1  0  0  0
 23 22  2  0  0  0
 24 29  2  0  0  0
 27 28  2  0  0  0
 27 22  1  0  0  0
 29 28  1  0  0  0
 36  1  1  0  0  0
 22 21  2  0  0  0
 22 20  1  0  0  0
 13 14  1  0  0  0
 13 12  1  0  0  0
  1  3  1  0  0  0
  1 16  1  0  0  0
 20 19  1  0  0  0
 20 32  1  0  0  0
 14 15  1  0  0  0
 12  9  1  0  0  0
 19 16  1  0  0  0
  3  2  1  0  0  0
 16 17  1  0  0  0
  4  2  2  0  0  0
  2  6  1  0  0  0
 32 33  1  0  0  0
  9 11  1  0  0  0
  6  7  1  0  0  0
 15  7  1  0  0  0
 15 11  1  0  0  0
  7  8  1  0  0  0
 11 10  1  0  0  0
 34 33  1  0  0  0
 33 35  1  0  0  0
 10  8  1  0  0  0
 17 18  1  0  0  0
  3  5  1  0  0  0
M  END
> <minimizedAffinity>
-9.84519

$$$$
