2VB8_TLM_A_1405


 15 15  0  0  0  0  0  0  0  0999 V2000
   41.1503   73.7347   61.0473 S   0  0  0  0  0  0  0  0  0  0  0  0
   41.0089   73.0266   62.5748 C   0  0  0  0  0  0  0  0  0  0  0  0
   39.9937   72.1865   62.7371 C   0  0  0  0  0  0  0  0  0  0  0  0
   39.2630   72.0071   61.6333 C   0  0  0  0  0  0  0  0  0  0  0  0
   39.8062   72.7099   60.4165 C   0  0  0  0  0  0  0  0  0  0  0  0
   41.8305   73.2966   63.4430 O   0  0  0  0  0  0  0  0  0  0  0  0
   39.7317   71.4841   64.0470 C   0  0  0  0  0  0  0  0  0  0  0  0
   38.1513   71.2643   61.5847 O   0  0  0  0  0  0  0  0  0  0  0  0
   40.3557   71.6201   59.4610 C   0  0  0  0  0  0  0  0  0  0  0  0
   37.8377   70.8391   62.3586 H   0  0  0  0  0  0  0  0  0  0  0  0
   38.6679   73.5609   59.8250 C   0  0  0  0  0  0  0  0  0  0  0  0
   37.9063   73.2945   58.7250 C   0  0  0  0  0  0  0  0  0  0  0  0
   38.0921   72.0249   57.9370 C   0  0  0  0  0  0  0  0  0  0  0  0
   36.8668   74.2766   58.3072 C   0  0  0  0  0  0  0  0  0  0  0  0
   36.3329   75.2139   59.1000 C   0  0  0  0  0  0  0  0  0  0  0  0
  1  2  1  0  0  0
  1  5  1  0  0  0
  2  3  1  0  0  0
  2  6  2  0  0  0
  3  4  2  0  0  0
  3  7  1  0  0  0
  4  5  1  0  0  0
  4  8  1  0  0  0
  5 11  1  0  0  0
  5  9  1  0  0  0
 11 12  2  0  0  0
 12 14  1  0  0  0
 12 13  1  0  0  0
 14 15  2  0  0  0
  8 10  1  0  0  0
M  END
> <minimizedAffinity>
-7.59403

$$$$
2VB8_TLM_A_1405


 15 15  0  0  0  0  0  0  0  0999 V2000
   39.4375   71.9342   61.2492 S   0  0  0  0  0  0  0  0  0  0  0  0
   40.2361   72.6840   62.5355 C   0  0  0  0  0  0  0  0  0  0  0  0
   41.4601   73.1313   62.2817 C   0  0  0  0  0  0  0  0  0  0  0  0
   41.8482   72.9464   61.0170 C   0  0  0  0  0  0  0  0  0  0  0  0
   40.7801   72.3687   60.1253 C   0  0  0  0  0  0  0  0  0  0  0  0
   39.6681   72.7946   63.6158 O   0  0  0  0  0  0  0  0  0  0  0  0
   42.3014   73.8144   63.3322 C   0  0  0  0  0  0  0  0  0  0  0  0
   43.0671   73.2504   60.5565 O   0  0  0  0  0  0  0  0  0  0  0  0
   40.3340   73.4906   59.1532 C   0  0  0  0  0  0  0  0  0  0  0  0
   43.7108   73.6085   61.1355 H   0  0  0  0  0  0  0  0  0  0  0  0
   41.3727   71.1265   59.4356 C   0  0  0  0  0  0  0  0  0  0  0  0
   40.7551   70.2744   58.5677 C   0  0  0  0  0  0  0  0  0  0  0  0
   39.3308   70.5001   58.1345 C   0  0  0  0  0  0  0  0  0  0  0  0
   41.5121   69.1072   58.0346 C   0  0  0  0  0  0  0  0  0  0  0  0
   41.2143   68.4484   56.9079 C   0  0  0  0  0  0  0  0  0  0  0  0
  1  2  1  0  0  0
  1  5  1  0  0  0
  2  3  1  0  0  0
  2  6  2  0  0  0
  3  4  2  0  0  0
  3  7  1  0  0  0
  4  5  1  0  0  0
  4  8  1  0  0  0
  5 11  1  0  0  0
  5  9  1  0  0  0
 11 12  2  0  0  0
 12 14  1  0  0  0
 12 13  1  0  0  0
 14 15  2  0  0  0
  8 10  1  0  0  0
M  END
> <minimizedAffinity>
-7.47394

$$$$
2VB8_TLM_A_1405


 15 15  0  0  0  0  0  0  0  0999 V2000
   41.6075   73.0491   59.7125 S   0  0  0  0  0  0  0  0  0  0  0  0
   42.5281   73.3703   61.0922 C   0  0  0  0  0  0  0  0  0  0  0  0
   41.8669   73.3922   62.2433 C   0  0  0  0  0  0  0  0  0  0  0  0
   40.5665   73.1119   62.1213 C   0  0  0  0  0  0  0  0  0  0  0  0
   40.1496   72.7280   60.7255 C   0  0  0  0  0  0  0  0  0  0  0  0
   43.7352   73.5519   60.9829 O   0  0  0  0  0  0  0  0  0  0  0  0
   42.5504   73.6747   63.5589 C   0  0  0  0  0  0  0  0  0  0  0  0
   39.6948   73.1499   63.1356 O   0  0  0  0  0  0  0  0  0  0  0  0
   39.8219   71.2131   60.7421 C   0  0  0  0  0  0  0  0  0  0  0  0
   39.9841   73.3926   63.9931 H   0  0  0  0  0  0  0  0  0  0  0  0
   38.9678   73.6313   60.3289 C   0  0  0  0  0  0  0  0  0  0  0  0
   38.1596   73.5230   59.2353 C   0  0  0  0  0  0  0  0  0  0  0  0
   38.3322   72.4005   58.2465 C   0  0  0  0  0  0  0  0  0  0  0  0
   37.0823   74.5307   59.0266 C   0  0  0  0  0  0  0  0  0  0  0  0
   36.2058   74.5196   58.0148 C   0  0  0  0  0  0  0  0  0  0  0  0
  1  2  1  0  0  0
  1  5  1  0  0  0
  2  3  1  0  0  0
  2  6  2  0  0  0
  3  4  2  0  0  0
  3  7  1  0  0  0
  4  5  1  0  0  0
  4  8  1  0  0  0
  5 11  1  0  0  0
  5  9  1  0  0  0
 11 12  2  0  0  0
 12 14  1  0  0  0
 12 13  1  0  0  0
 14 15  2  0  0  0
  8 10  1  0  0  0
M  END
> <minimizedAffinity>
-7.34349

$$$$
2VB8_TLM_A_1405


 15 15  0  0  0  0  0  0  0  0999 V2000
   40.5202   71.1601   59.2961 S   0  0  0  0  0  0  0  0  0  0  0  0
   39.1758   71.6617   58.4042 C   0  0  0  0  0  0  0  0  0  0  0  0
   38.6913   72.8612   58.7031 C   0  0  0  0  0  0  0  0  0  0  0  0
   39.3846   73.5002   59.6493 C   0  0  0  0  0  0  0  0  0  0  0  0
   40.6250   72.7726   60.0984 C   0  0  0  0  0  0  0  0  0  0  0  0
   38.7217   70.9281   57.5339 O   0  0  0  0  0  0  0  0  0  0  0  0
   37.4888   73.4417   57.9995 C   0  0  0  0  0  0  0  0  0  0  0  0
   39.0357   74.6867   60.1596 O   0  0  0  0  0  0  0  0  0  0  0  0
   41.8445   73.5670   59.5653 C   0  0  0  0  0  0  0  0  0  0  0  0
   38.2581   75.1152   59.8601 H   0  0  0  0  0  0  0  0  0  0  0  0
   40.5635   72.6530   61.6320 C   0  0  0  0  0  0  0  0  0  0  0  0
   39.6812   71.9322   62.3822 C   0  0  0  0  0  0  0  0  0  0  0  0
   38.6170   71.0860   61.7351 C   0  0  0  0  0  0  0  0  0  0  0  0
   39.7840   71.9794   63.8678 C   0  0  0  0  0  0  0  0  0  0  0  0
   40.0373   70.9259   64.6539 C   0  0  0  0  0  0  0  0  0  0  0  0
  1  2  1  0  0  0
  1  5  1  0  0  0
  2  3  1  0  0  0
  2  6  2  0  0  0
  3  4  2  0  0  0
  3  7  1  0  0  0
  4  5  1  0  0  0
  4  8  1  0  0  0
  5 11  1  0  0  0
  5  9  1  0  0  0
 11 12  2  0  0  0
 12 14  1  0  0  0
 12 13  1  0  0  0
 14 15  2  0  0  0
  8 10  1  0  0  0
M  END
> <minimizedAffinity>
-7.11880

$$$$
2VB8_TLM_A_1405


 15 15  0  0  0  0  0  0  0  0999 V2000
   41.6829   71.2289   59.4411 S   0  0  0  0  0  0  0  0  0  0  0  0
   41.0277   70.1452   58.3226 C   0  0  0  0  0  0  0  0  0  0  0  0
   39.7086   70.1830   58.1767 C   0  0  0  0  0  0  0  0  0  0  0  0
   39.1120   71.1164   58.9231 C   0  0  0  0  0  0  0  0  0  0  0  0
   40.0680   71.9945   59.6878 C   0  0  0  0  0  0  0  0  0  0  0  0
   41.7728   69.3985   57.6988 O   0  0  0  0  0  0  0  0  0  0  0  0
   38.9779   69.2698   57.2228 C   0  0  0  0  0  0  0  0  0  0  0  0
   37.7865   71.2842   58.9925 O   0  0  0  0  0  0  0  0  0  0  0  0
   40.0268   73.3996   59.0348 C   0  0  0  0  0  0  0  0  0  0  0  0
   37.2169   70.7220   58.5051 H   0  0  0  0  0  0  0  0  0  0  0  0
   39.6423   71.9666   61.1669 C   0  0  0  0  0  0  0  0  0  0  0  0
   40.2469   72.5791   62.2253 C   0  0  0  0  0  0  0  0  0  0  0  0
   41.4667   73.4410   62.0344 C   0  0  0  0  0  0  0  0  0  0  0  0
   39.6792   72.3961   63.5906 C   0  0  0  0  0  0  0  0  0  0  0  0
   39.8443   71.3069   64.3513 C   0  0  0  0  0  0  0  0  0  0  0  0
  1  2  1  0  0  0
  1  5  1  0  0  0
  2  3  1  0  0  0
  2  6  2  0  0  0
  3  4  2  0  0  0
  3  7  1  0  0  0
  4  5  1  0  0  0
  4  8  1  0  0  0
  5 11  1  0  0  0
  5  9  1  0  0  0
 11 12  2  0  0  0
 12 14  1  0  0  0
 12 13  1  0  0  0
 14 15  2  0  0  0
  8 10  1  0  0  0
M  END
> <minimizedAffinity>
-6.91853

$$$$
2VB8_TLM_A_1405


 15 15  0  0  0  0  0  0  0  0999 V2000
   38.5584   73.1511   59.7337 S   0  0  0  0  0  0  0  0  0  0  0  0
   38.3718   72.1743   58.3678 C   0  0  0  0  0  0  0  0  0  0  0  0
   38.9998   71.0048   58.3961 C   0  0  0  0  0  0  0  0  0  0  0  0
   39.6542   70.7739   59.5375 C   0  0  0  0  0  0  0  0  0  0  0  0
   39.4540   71.8371   60.5859 C   0  0  0  0  0  0  0  0  0  0  0  0
   37.6751   72.5644   57.4381 O   0  0  0  0  0  0  0  0  0  0  0  0
   38.9354   70.0287   57.2468 C   0  0  0  0  0  0  0  0  0  0  0  0
   40.4157   69.6962   59.7582 O   0  0  0  0  0  0  0  0  0  0  0  0
   38.5785   71.2207   61.7067 C   0  0  0  0  0  0  0  0  0  0  0  0
   40.5214   69.0516   59.0864 H   0  0  0  0  0  0  0  0  0  0  0  0
   40.8469   72.3015   61.0482 C   0  0  0  0  0  0  0  0  0  0  0  0
   41.1684   72.9884   62.1821 C   0  0  0  0  0  0  0  0  0  0  0  0
   40.1162   73.3598   63.1932 C   0  0  0  0  0  0  0  0  0  0  0  0
   42.5893   73.3658   62.4235 C   0  0  0  0  0  0  0  0  0  0  0  0
   43.0097   74.2028   63.3800 C   0  0  0  0  0  0  0  0  0  0  0  0
  1  2  1  0  0  0
  1  5  1  0  0  0
  2  3  1  0  0  0
  2  6  2  0  0  0
  3  4  2  0  0  0
  3  7  1  0  0  0
  4  5  1  0  0  0
  4  8  1  0  0  0
  5 11  1  0  0  0
  5  9  1  0  0  0
 11 12  2  0  0  0
 12 14  1  0  0  0
 12 13  1  0  0  0
 14 15  2  0  0  0
  8 10  1  0  0  0
M  END
> <minimizedAffinity>
-6.78064

$$$$
2VB8_TLM_A_1405


 15 15  0  0  0  0  0  0  0  0999 V2000
   39.3978   71.0435   59.3879 S   0  0  0  0  0  0  0  0  0  0  0  0
   41.0318   71.4335   59.5684 C   0  0  0  0  0  0  0  0  0  0  0  0
   41.3009   72.4757   60.3457 C   0  0  0  0  0  0  0  0  0  0  0  0
   40.2173   73.0281   60.8979 C   0  0  0  0  0  0  0  0  0  0  0  0
   38.9364   72.2899   60.6079 C   0  0  0  0  0  0  0  0  0  0  0  0
   41.8801   70.7530   59.0035 O   0  0  0  0  0  0  0  0  0  0  0  0
   42.7116   72.9506   60.5953 C   0  0  0  0  0  0  0  0  0  0  0  0
   40.2431   74.1311   61.6547 O   0  0  0  0  0  0  0  0  0  0  0  0
   38.4828   71.6166   61.9283 C   0  0  0  0  0  0  0  0  0  0  0  0
   41.0556   74.5687   61.8175 H   0  0  0  0  0  0  0  0  0  0  0  0
   37.9337   73.3074   60.0343 C   0  0  0  0  0  0  0  0  0  0  0  0
   37.5057   73.4273   58.7446 C   0  0  0  0  0  0  0  0  0  0  0  0
   37.9802   72.4802   57.6745 C   0  0  0  0  0  0  0  0  0  0  0  0
   36.5436   74.5106   58.3972 C   0  0  0  0  0  0  0  0  0  0  0  0
   36.2921   75.5861   59.1537 C   0  0  0  0  0  0  0  0  0  0  0  0
  1  2  1  0  0  0
  1  5  1  0  0  0
  2  3  1  0  0  0
  2  6  2  0  0  0
  3  4  2  0  0  0
  3  7  1  0  0  0
  4  5  1  0  0  0
  4  8  1  0  0  0
  5 11  1  0  0  0
  5  9  1  0  0  0
 11 12  2  0  0  0
 12 14  1  0  0  0
 12 13  1  0  0  0
 14 15  2  0  0  0
  8 10  1  0  0  0
M  END
> <minimizedAffinity>
-6.51005

$$$$
2VB8_TLM_A_1405


 15 15  0  0  0  0  0  0  0  0999 V2000
   40.2928   73.1715   59.3599 S   0  0  0  0  0  0  0  0  0  0  0  0
   39.9145   73.1616   61.0065 C   0  0  0  0  0  0  0  0  0  0  0  0
   39.6431   71.9747   61.5361 C   0  0  0  0  0  0  0  0  0  0  0  0
   39.7555   70.9624   60.6718 C   0  0  0  0  0  0  0  0  0  0  0  0
   40.2671   71.3682   59.3141 C   0  0  0  0  0  0  0  0  0  0  0  0
   39.9179   74.2152   61.6324 O   0  0  0  0  0  0  0  0  0  0  0  0
   39.2789   71.8068   62.9911 C   0  0  0  0  0  0  0  0  0  0  0  0
   39.4582   69.6915   60.9657 O   0  0  0  0  0  0  0  0  0  0  0  0
   41.7054   70.8071   59.1764 C   0  0  0  0  0  0  0  0  0  0  0  0
   39.1418   69.4697   61.8194 H   0  0  0  0  0  0  0  0  0  0  0  0
   39.2729   70.8372   58.2656 C   0  0  0  0  0  0  0  0  0  0  0  0
   39.4271   69.7719   57.4277 C   0  0  0  0  0  0  0  0  0  0  0  0
   40.6672   68.9189   57.4713 C   0  0  0  0  0  0  0  0  0  0  0  0
   38.3410   69.4456   56.4614 C   0  0  0  0  0  0  0  0  0  0  0  0
   38.3949   68.4703   55.5460 C   0  0  0  0  0  0  0  0  0  0  0  0
  1  2  1  0  0  0
  1  5  1  0  0  0
  2  3  1  0  0  0
  2  6  2  0  0  0
  3  4  2  0  0  0
  3  7  1  0  0  0
  4  5  1  0  0  0
  4  8  1  0  0  0
  5 11  1  0  0  0
  5  9  1  0  0  0
 11 12  2  0  0  0
 12 14  1  0  0  0
 12 13  1  0  0  0
 14 15  2  0  0  0
  8 10  1  0  0  0
M  END
> <minimizedAffinity>
-6.47778

$$$$
2VB8_TLM_A_1405


 15 15  0  0  0  0  0  0  0  0999 V2000
   40.9058   71.7250   59.4692 S   0  0  0  0  0  0  0  0  0  0  0  0
   39.7630   70.8711   60.3743 C   0  0  0  0  0  0  0  0  0  0  0  0
   39.4565   71.3831   61.5603 C   0  0  0  0  0  0  0  0  0  0  0  0
   40.0848   72.5310   61.8285 C   0  0  0  0  0  0  0  0  0  0  0  0
   40.9221   73.0531   60.6900 C   0  0  0  0  0  0  0  0  0  0  0  0
   39.2664   69.8511   59.9106 O   0  0  0  0  0  0  0  0  0  0  0  0
   38.4604   70.7289   62.4863 C   0  0  0  0  0  0  0  0  0  0  0  0
   39.9855   73.1840   62.9920 O   0  0  0  0  0  0  0  0  0  0  0  0
   40.2100   74.3123   60.1332 C   0  0  0  0  0  0  0  0  0  0  0  0
   39.4567   72.8341   63.6819 H   0  0  0  0  0  0  0  0  0  0  0  0
   42.3384   73.3109   61.2354 C   0  0  0  0  0  0  0  0  0  0  0  0
   43.4139   73.8202   60.5686 C   0  0  0  0  0  0  0  0  0  0  0  0
   43.3073   74.2487   59.1291 C   0  0  0  0  0  0  0  0  0  0  0  0
   44.7119   73.9618   61.2862 C   0  0  0  0  0  0  0  0  0  0  0  0
   44.8502   74.3967   62.5448 C   0  0  0  0  0  0  0  0  0  0  0  0
  1  2  1  0  0  0
  1  5  1  0  0  0
  2  3  1  0  0  0
  2  6  2  0  0  0
  3  4  2  0  0  0
  3  7  1  0  0  0
  4  5  1  0  0  0
  4  8  1  0  0  0
  5 11  1  0  0  0
  5  9  1  0  0  0
 11 12  2  0  0  0
 12 14  1  0  0  0
 12 13  1  0  0  0
 14 15  2  0  0  0
  8 10  1  0  0  0
M  END
> <minimizedAffinity>
-6.45706

$$$$
2VB8_TLM_A_1405


 15 15  0  0  0  0  0  0  0  0999 V2000
   38.5434   72.0693   61.3443 S   0  0  0  0  0  0  0  0  0  0  0  0
   39.9643   72.5387   62.1286 C   0  0  0  0  0  0  0  0  0  0  0  0
   40.8880   73.1145   61.3683 C   0  0  0  0  0  0  0  0  0  0  0  0
   40.5171   73.2658   60.0940 C   0  0  0  0  0  0  0  0  0  0  0  0
   39.0962   72.8501   59.8147 C   0  0  0  0  0  0  0  0  0  0  0  0
   40.0792   72.3478   63.3337 O   0  0  0  0  0  0  0  0  0  0  0  0
   42.2124   73.5788   61.9235 C   0  0  0  0  0  0  0  0  0  0  0  0
   41.3140   73.7522   59.1357 O   0  0  0  0  0  0  0  0  0  0  0  0
   38.2837   74.1408   59.5385 C   0  0  0  0  0  0  0  0  0  0  0  0
   42.1935   74.0024   59.3400 H   0  0  0  0  0  0  0  0  0  0  0  0
   39.1261   71.8529   58.6424 C   0  0  0  0  0  0  0  0  0  0  0  0
   39.4283   70.5232   58.6800 C   0  0  0  0  0  0  0  0  0  0  0  0
   39.7540   69.8342   59.9786 C   0  0  0  0  0  0  0  0  0  0  0  0
   39.4244   69.7421   57.4113 C   0  0  0  0  0  0  0  0  0  0  0  0
   40.4000   68.9152   57.0154 C   0  0  0  0  0  0  0  0  0  0  0  0
  1  2  1  0  0  0
  1  5  1  0  0  0
  2  3  1  0  0  0
  2  6  2  0  0  0
  3  4  2  0  0  0
  3  7  1  0  0  0
  4  5  1  0  0  0
  4  8  1  0  0  0
  5 11  1  0  0  0
  5  9  1  0  0  0
 11 12  2  0  0  0
 12 14  1  0  0  0
 12 13  1  0  0  0
 14 15  2  0  0  0
  8 10  1  0  0  0
M  END
> <minimizedAffinity>
-6.32658

$$$$
