2WYG_461_A_1245


 31 33  0  0  0  0  0  0  0  0999 V2000
    5.9409    7.3848   22.4987 C   0  0  0  0  0  0  0  0  0  0  0  0
    4.5644    6.8905   22.0289 C   0  0  0  0  0  0  0  0  0  0  0  0
    4.8219    5.7004   21.0874 C   0  0  0  0  0  0  0  0  0  0  0  0
    6.9214    6.6521   21.6009 C   0  0  0  0  0  0  0  0  0  0  0  0
    8.1244    6.8717   21.5150 O   0  0  0  0  0  0  0  0  0  0  0  0
    6.2675    5.6945   20.8982 N   0  0  0  0  0  0  0  0  0  0  0  0
    6.9538    4.7724   20.0612 C   0  0  0  0  0  0  0  0  0  0  0  0
    7.3562    5.1778   18.8048 C   0  0  0  0  0  0  0  0  0  0  0  0
    7.0722    6.4219   18.4043 F   0  0  0  0  0  0  0  0  0  0  0  0
    7.2548    3.4847   20.4912 C   0  0  0  0  0  0  0  0  0  0  0  0
    7.9434    2.6321   19.6268 C   0  0  0  0  0  0  0  0  0  0  0  0
    8.3478    3.0518   18.3498 C   0  0  0  0  0  0  0  0  0  0  0  0
    8.0411    4.3475   17.9411 C   0  0  0  0  0  0  0  0  0  0  0  0
    9.0762    2.1460   17.3737 C   0  0  0  0  0  0  0  0  0  0  0  0
   10.5338    1.8354   17.7576 C   0  0  0  0  0  0  0  0  0  0  0  0
    8.2893    0.9094   17.1410 N   0  0  0  0  0  0  0  0  0  0  0  0
    6.9829    1.0833   16.4825 C   0  0  0  0  0  0  0  0  0  0  0  0
    9.0278   -0.2274   16.5593 C   0  0  0  0  0  0  0  0  0  0  0  0
    6.1109    8.8017   22.2935 N   0  0  0  0  0  0  0  0  0  0  0  0
    6.7872    8.9136   21.5382 H   0  0  0  0  0  0  0  0  0  0  0  0
    6.6171    9.7253   23.5196 S   0  0  0  0  0  0  0  0  0  0  0  0
    6.7096   11.0110   22.8940 O   0  0  0  0  0  0  0  0  0  0  0  0
    5.7677    9.4653   24.6323 O   0  0  0  0  0  0  0  0  0  0  0  0
    8.4511    8.8109   25.2015 C   0  0  0  0  0  0  0  0  0  0  0  0
    8.2220    9.1703   23.9268 C   0  0  0  0  0  0  0  0  0  0  0  0
   13.7349    7.5778   26.4607 Cl  0  0  0  0  0  0  0  0  0  0  0  0
   12.0061    7.7428   26.3705 C   0  0  0  0  0  0  0  0  0  0  0  0
   11.1219    7.1739   27.2278 C   0  0  0  0  0  0  0  0  0  0  0  0
    9.8095    7.4975   26.8821 C   0  0  0  0  0  0  0  0  0  0  0  0
   11.2839    8.7007   25.1381 S   0  0  0  0  0  0  0  0  0  0  0  0
    9.7081    8.3195   25.7653 C   0  0  0  0  0  0  0  0  0  0  0  0
 26 27  1  0  0  0
 27 28  2  0  0  0
 27 30  1  0  0  0
 28 29  1  0  0  0
 29 31  2  0  0  0
 30 31  1  0  0  0
 31 24  1  0  0  0
 24 25  2  0  0  0
 25 21  1  0  0  0
 21 22  2  0  0  0
 21 23  2  0  0  0
 21 19  1  0  0  0
 19  1  1  0  0  0
  1  2  1  0  0  0
  1  4  1  0  0  0
  2  3  1  0  0  0
  3  6  1  0  0  0
  4  5  2  0  0  0
  4  6  1  0  0  0
  6  7  1  0  0  0
  7  8  1  0  0  0
  7 10  2  0  0  0
  8  9  1  0  0  0
  8 13  2  0  0  0
 10 11  1  0  0  0
 11 12  2  0  0  0
 12 13  1  0  0  0
 12 14  1  0  0  0
 14 15  1  0  0  0
 14 16  1  0  0  0
 16 17  1  0  0  0
 16 18  1  0  0  0
 19 20  1  0  0  0
M  END
> <minimizedAffinity>
-8.69722

$$$$
2WYG_461_A_1245


 31 33  0  0  0  0  0  0  0  0999 V2000
    5.8184    7.8259   22.0891 C   0  0  0  0  0  0  0  0  0  0  0  0
    4.5063    7.6760   21.3043 C   0  0  0  0  0  0  0  0  0  0  0  0
    4.5946    6.3365   20.5512 C   0  0  0  0  0  0  0  0  0  0  0  0
    6.7045    6.7228   21.5394 C   0  0  0  0  0  0  0  0  0  0  0  0
    7.9012    6.5794   21.7629 O   0  0  0  0  0  0  0  0  0  0  0  0
    5.9691    5.8957   20.7561 N   0  0  0  0  0  0  0  0  0  0  0  0
    6.5111    4.7049   20.1993 C   0  0  0  0  0  0  0  0  0  0  0  0
    6.9201    4.7062   18.8812 C   0  0  0  0  0  0  0  0  0  0  0  0
    6.7774    5.8237   18.1604 F   0  0  0  0  0  0  0  0  0  0  0  0
    6.6664    3.5514   20.9604 C   0  0  0  0  0  0  0  0  0  0  0  0
    7.2184    2.4194   20.3586 C   0  0  0  0  0  0  0  0  0  0  0  0
    7.6304    2.4286   19.0168 C   0  0  0  0  0  0  0  0  0  0  0  0
    7.4712    3.5961   18.2741 C   0  0  0  0  0  0  0  0  0  0  0  0
    8.2118    1.2110   18.3218 C   0  0  0  0  0  0  0  0  0  0  0  0
    7.6139    0.9227   16.9334 C   0  0  0  0  0  0  0  0  0  0  0  0
    9.6923    1.3070   18.2781 N   0  0  0  0  0  0  0  0  0  0  0  0
   10.4063    0.1262   17.7623 C   0  0  0  0  0  0  0  0  0  0  0  0
   10.2432    2.5502   17.7062 C   0  0  0  0  0  0  0  0  0  0  0  0
    6.4624    9.0913   21.8385 N   0  0  0  0  0  0  0  0  0  0  0  0
    7.3163    8.8921   21.3173 H   0  0  0  0  0  0  0  0  0  0  0  0
    6.8804   10.0292   23.0867 S   0  0  0  0  0  0  0  0  0  0  0  0
    7.0384   11.3033   22.4506 O   0  0  0  0  0  0  0  0  0  0  0  0
    5.9418    9.7969   24.1317 O   0  0  0  0  0  0  0  0  0  0  0  0
    8.5304    8.9975   24.8872 C   0  0  0  0  0  0  0  0  0  0  0  0
    8.4408    9.4633   23.6296 C   0  0  0  0  0  0  0  0  0  0  0  0
   13.6611    7.5675   26.5165 Cl  0  0  0  0  0  0  0  0  0  0  0  0
   11.9517    7.8178   26.3183 C   0  0  0  0  0  0  0  0  0  0  0  0
   10.9921    7.3513   27.1562 C   0  0  0  0  0  0  0  0  0  0  0  0
    9.7205    7.7217   26.7177 C   0  0  0  0  0  0  0  0  0  0  0  0
   11.3518    8.7336   24.9920 S   0  0  0  0  0  0  0  0  0  0  0  0
    9.7256    8.4764   25.5500 C   0  0  0  0  0  0  0  0  0  0  0  0
 26 27  1  0  0  0
 27 28  2  0  0  0
 27 30  1  0  0  0
 28 29  1  0  0  0
 29 31  2  0  0  0
 30 31  1  0  0  0
 31 24  1  0  0  0
 24 25  2  0  0  0
 25 21  1  0  0  0
 21 22  2  0  0  0
 21 23  2  0  0  0
 21 19  1  0  0  0
 19  1  1  0  0  0
  1  2  1  0  0  0
  1  4  1  0  0  0
  2  3  1  0  0  0
  3  6  1  0  0  0
  4  5  2  0  0  0
  4  6  1  0  0  0
  6  7  1  0  0  0
  7  8  1  0  0  0
  7 10  2  0  0  0
  8  9  1  0  0  0
  8 13  2  0  0  0
 10 11  1  0  0  0
 11 12  2  0  0  0
 12 13  1  0  0  0
 12 14  1  0  0  0
 14 15  1  0  0  0
 14 16  1  0  0  0
 16 17  1  0  0  0
 16 18  1  0  0  0
 19 20  1  0  0  0
M  END
> <minimizedAffinity>
-8.35602

$$$$
2WYG_461_A_1245


 31 33  0  0  0  0  0  0  0  0999 V2000
    6.1126    7.8789   21.9960 C   0  0  0  0  0  0  0  0  0  0  0  0
    4.7322    7.5880   21.3880 C   0  0  0  0  0  0  0  0  0  0  0  0
    4.9009    6.3543   20.4832 C   0  0  0  0  0  0  0  0  0  0  0  0
    7.0570    6.9894   21.2079 C   0  0  0  0  0  0  0  0  0  0  0  0
    8.2818    7.0239   21.2463 O   0  0  0  0  0  0  0  0  0  0  0  0
    6.3405    6.1273   20.4451 N   0  0  0  0  0  0  0  0  0  0  0  0
    6.9607    5.0961   19.6876 C   0  0  0  0  0  0  0  0  0  0  0  0
    6.9899    3.8140   20.1975 C   0  0  0  0  0  0  0  0  0  0  0  0
    6.4493    3.5828   21.3988 F   0  0  0  0  0  0  0  0  0  0  0  0
    7.5095    5.3441   18.4342 C   0  0  0  0  0  0  0  0  0  0  0  0
    8.0914    4.2857   17.7347 C   0  0  0  0  0  0  0  0  0  0  0  0
    8.1183    2.9847   18.2612 C   0  0  0  0  0  0  0  0  0  0  0  0
    7.5579    2.7570   19.5158 C   0  0  0  0  0  0  0  0  0  0  0  0
    8.7632    1.8144   17.5413 C   0  0  0  0  0  0  0  0  0  0  0  0
    9.7609    1.0117   18.3950 C   0  0  0  0  0  0  0  0  0  0  0  0
    7.7191    0.9443   16.9451 N   0  0  0  0  0  0  0  0  0  0  0  0
    6.6717    1.6255   16.1645 C   0  0  0  0  0  0  0  0  0  0  0  0
    8.2034   -0.2594   16.2433 C   0  0  0  0  0  0  0  0  0  0  0  0
    6.5155    9.2498   21.8037 N   0  0  0  0  0  0  0  0  0  0  0  0
    7.3806    9.2324   21.2636 H   0  0  0  0  0  0  0  0  0  0  0  0
    6.7844   10.1856   23.0938 S   0  0  0  0  0  0  0  0  0  0  0  0
    6.8579   11.4862   22.4972 O   0  0  0  0  0  0  0  0  0  0  0  0
    5.8198    9.8411   24.0828 O   0  0  0  0  0  0  0  0  0  0  0  0
    8.4091    8.9488   24.7848 C   0  0  0  0  0  0  0  0  0  0  0  0
    8.3606    9.7459   23.7036 C   0  0  0  0  0  0  0  0  0  0  0  0
   13.5492    7.5903   26.4454 Cl  0  0  0  0  0  0  0  0  0  0  0  0
   11.8386    7.8313   26.2458 C   0  0  0  0  0  0  0  0  0  0  0  0
   10.8837    7.3992   27.1072 C   0  0  0  0  0  0  0  0  0  0  0  0
    9.6096    7.7505   26.6603 C   0  0  0  0  0  0  0  0  0  0  0  0
   11.2312    8.6911   24.8858 S   0  0  0  0  0  0  0  0  0  0  0  0
    9.6081    8.4562   25.4624 C   0  0  0  0  0  0  0  0  0  0  0  0
 26 27  1  0  0  0
 27 28  2  0  0  0
 27 30  1  0  0  0
 28 29  1  0  0  0
 29 31  2  0  0  0
 30 31  1  0  0  0
 31 24  1  0  0  0
 24 25  2  0  0  0
 25 21  1  0  0  0
 21 22  2  0  0  0
 21 23  2  0  0  0
 21 19  1  0  0  0
 19  1  1  0  0  0
  1  2  1  0  0  0
  1  4  1  0  0  0
  2  3  1  0  0  0
  3  6  1  0  0  0
  4  5  2  0  0  0
  4  6  1  0  0  0
  6  7  1  0  0  0
  7  8  1  0  0  0
  7 10  2  0  0  0
  8  9  1  0  0  0
  8 13  2  0  0  0
 10 11  1  0  0  0
 11 12  2  0  0  0
 12 13  1  0  0  0
 12 14  1  0  0  0
 14 15  1  0  0  0
 14 16  1  0  0  0
 16 17  1  0  0  0
 16 18  1  0  0  0
 19 20  1  0  0  0
M  END
> <minimizedAffinity>
-8.14393

$$$$
2WYG_461_A_1245


 31 33  0  0  0  0  0  0  0  0999 V2000
    4.0765    5.3288   23.1904 C   0  0  0  0  0  0  0  0  0  0  0  0
    3.2405    4.0766   23.4952 C   0  0  0  0  0  0  0  0  0  0  0  0
    3.7752    2.9578   22.5832 C   0  0  0  0  0  0  0  0  0  0  0  0
    4.8511    4.9589   21.9385 C   0  0  0  0  0  0  0  0  0  0  0  0
    5.5174    5.7232   21.2496 O   0  0  0  0  0  0  0  0  0  0  0  0
    4.7063    3.6342   21.6882 N   0  0  0  0  0  0  0  0  0  0  0  0
    5.4159    2.9824   20.6424 C   0  0  0  0  0  0  0  0  0  0  0  0
    6.6985    2.5323   20.8809 C   0  0  0  0  0  0  0  0  0  0  0  0
    7.2436    2.7390   22.0847 F   0  0  0  0  0  0  0  0  0  0  0  0
    4.8361    2.7617   19.3979 C   0  0  0  0  0  0  0  0  0  0  0  0
    5.5805    2.1033   18.4178 C   0  0  0  0  0  0  0  0  0  0  0  0
    6.8852    1.6499   18.6681 C   0  0  0  0  0  0  0  0  0  0  0  0
    7.4449    1.8763   19.9232 C   0  0  0  0  0  0  0  0  0  0  0  0
    7.7336    0.9524   17.6205 C   0  0  0  0  0  0  0  0  0  0  0  0
    7.1102    0.9186   16.2138 C   0  0  0  0  0  0  0  0  0  0  0  0
    9.1017    1.5277   17.6063 N   0  0  0  0  0  0  0  0  0  0  0  0
   10.2076    0.5831   17.8404 C   0  0  0  0  0  0  0  0  0  0  0  0
    9.4098    2.4360   16.4855 C   0  0  0  0  0  0  0  0  0  0  0  0
    3.2538    6.4746   22.8918 N   0  0  0  0  0  0  0  0  0  0  0  0
    3.4887    6.7703   21.9443 H   0  0  0  0  0  0  0  0  0  0  0  0
    3.3494    7.7860   23.8318 S   0  0  0  0  0  0  0  0  0  0  0  0
    3.1916    8.8401   22.8742 O   0  0  0  0  0  0  0  0  0  0  0  0
    2.4594    7.5953   24.9266 O   0  0  0  0  0  0  0  0  0  0  0  0
    5.9252    8.3998   23.7024 C   0  0  0  0  0  0  0  0  0  0  0  0
    4.9774    7.8247   24.4623 C   0  0  0  0  0  0  0  0  0  0  0  0
   10.9589    8.7647   26.0588 Cl  0  0  0  0  0  0  0  0  0  0  0  0
    9.5810    8.7141   24.9991 C   0  0  0  0  0  0  0  0  0  0  0  0
    9.6262    8.8669   23.6519 C   0  0  0  0  0  0  0  0  0  0  0  0
    8.3508    8.7755   23.0940 C   0  0  0  0  0  0  0  0  0  0  0  0
    8.0054    8.4343   25.6292 S   0  0  0  0  0  0  0  0  0  0  0  0
    7.3444    8.5451   24.0252 C   0  0  0  0  0  0  0  0  0  0  0  0
 26 27  1  0  0  0
 27 28  2  0  0  0
 27 30  1  0  0  0
 28 29  1  0  0  0
 29 31  2  0  0  0
 30 31  1  0  0  0
 31 24  1  0  0  0
 24 25  2  0  0  0
 25 21  1  0  0  0
 21 22  2  0  0  0
 21 23  2  0  0  0
 21 19  1  0  0  0
 19  1  1  0  0  0
  1  2  1  0  0  0
  1  4  1  0  0  0
  2  3  1  0  0  0
  3  6  1  0  0  0
  4  5  2  0  0  0
  4  6  1  0  0  0
  6  7  1  0  0  0
  7  8  1  0  0  0
  7 10  2  0  0  0
  8  9  1  0  0  0
  8 13  2  0  0  0
 10 11  1  0  0  0
 11 12  2  0  0  0
 12 13  1  0  0  0
 12 14  1  0  0  0
 14 15  1  0  0  0
 14 16  1  0  0  0
 16 17  1  0  0  0
 16 18  1  0  0  0
 19 20  1  0  0  0
M  END
> <minimizedAffinity>
-7.17208

$$$$
2WYG_461_A_1245


 31 33  0  0  0  0  0  0  0  0999 V2000
    7.5872    7.3191   20.6996 C   0  0  0  0  0  0  0  0  0  0  0  0
    7.3939    6.0601   21.5584 C   0  0  0  0  0  0  0  0  0  0  0  0
    7.1357    4.8975   20.5832 C   0  0  0  0  0  0  0  0  0  0  0  0
    7.1579    6.8862   19.3095 C   0  0  0  0  0  0  0  0  0  0  0  0
    6.9914    7.6222   18.3434 O   0  0  0  0  0  0  0  0  0  0  0  0
    6.9886    5.5411   19.2833 N   0  0  0  0  0  0  0  0  0  0  0  0
    6.6995    4.8408   18.0801 C   0  0  0  0  0  0  0  0  0  0  0  0
    7.7256    4.2055   17.4105 C   0  0  0  0  0  0  0  0  0  0  0  0
    8.9662    4.2829   17.9042 F   0  0  0  0  0  0  0  0  0  0  0  0
    5.4043    4.7560   17.5812 C   0  0  0  0  0  0  0  0  0  0  0  0
    5.1843    4.0414   16.4026 C   0  0  0  0  0  0  0  0  0  0  0  0
    6.2338    3.3994   15.7268 C   0  0  0  0  0  0  0  0  0  0  0  0
    7.5226    3.4920   16.2468 C   0  0  0  0  0  0  0  0  0  0  0  0
    6.0373    2.6343   14.4307 C   0  0  0  0  0  0  0  0  0  0  0  0
    5.8117    1.1226   14.6102 C   0  0  0  0  0  0  0  0  0  0  0  0
    4.9609    3.2632   13.6254 N   0  0  0  0  0  0  0  0  0  0  0  0
    5.3953    4.0387   12.4506 C   0  0  0  0  0  0  0  0  0  0  0  0
    3.8123    2.3990   13.2937 C   0  0  0  0  0  0  0  0  0  0  0  0
    6.7340    8.4025   21.1201 N   0  0  0  0  0  0  0  0  0  0  0  0
    6.2656    8.7535   20.2847 H   0  0  0  0  0  0  0  0  0  0  0  0
    7.3844    9.6799   21.8671 S   0  0  0  0  0  0  0  0  0  0  0  0
    7.8201   10.4733   20.7564 O   0  0  0  0  0  0  0  0  0  0  0  0
    6.4397   10.1435   22.8261 O   0  0  0  0  0  0  0  0  0  0  0  0
    8.6890    8.9854   24.0681 C   0  0  0  0  0  0  0  0  0  0  0  0
    8.7820    9.0886   22.7312 C   0  0  0  0  0  0  0  0  0  0  0  0
   13.3802    7.7350   26.7981 Cl  0  0  0  0  0  0  0  0  0  0  0  0
   11.7476    7.9401   26.2354 C   0  0  0  0  0  0  0  0  0  0  0  0
   10.6392    7.4884   26.8741 C   0  0  0  0  0  0  0  0  0  0  0  0
    9.4836    7.8128   26.1629 C   0  0  0  0  0  0  0  0  0  0  0  0
   11.4285    8.7868   24.7728 S   0  0  0  0  0  0  0  0  0  0  0  0
    9.7247    8.5182   24.9892 C   0  0  0  0  0  0  0  0  0  0  0  0
 26 27  1  0  0  0
 27 28  2  0  0  0
 27 30  1  0  0  0
 28 29  1  0  0  0
 29 31  2  0  0  0
 30 31  1  0  0  0
 31 24  1  0  0  0
 24 25  2  0  0  0
 25 21  1  0  0  0
 21 22  2  0  0  0
 21 23  2  0  0  0
 21 19  1  0  0  0
 19  1  1  0  0  0
  1  2  1  0  0  0
  1  4  1  0  0  0
  2  3  1  0  0  0
  3  6  1  0  0  0
  4  5  2  0  0  0
  4  6  1  0  0  0
  6  7  1  0  0  0
  7  8  1  0  0  0
  7 10  2  0  0  0
  8  9  1  0  0  0
  8 13  2  0  0  0
 10 11  1  0  0  0
 11 12  2  0  0  0
 12 13  1  0  0  0
 12 14  1  0  0  0
 14 15  1  0  0  0
 14 16  1  0  0  0
 16 17  1  0  0  0
 16 18  1  0  0  0
 19 20  1  0  0  0
M  END
> <minimizedAffinity>
-7.13341

$$$$
2WYG_461_A_1245


 31 33  0  0  0  0  0  0  0  0999 V2000
    4.4999    8.3227   22.3167 C   0  0  0  0  0  0  0  0  0  0  0  0
    4.1602    9.0826   21.0256 C   0  0  0  0  0  0  0  0  0  0  0  0
    4.5991    8.1824   19.8567 C   0  0  0  0  0  0  0  0  0  0  0  0
    5.3618    7.1649   21.8468 C   0  0  0  0  0  0  0  0  0  0  0  0
    5.9934    6.3975   22.5643 O   0  0  0  0  0  0  0  0  0  0  0  0
    5.3278    7.0919   20.4933 N   0  0  0  0  0  0  0  0  0  0  0  0
    5.9506    6.0315   19.7795 C   0  0  0  0  0  0  0  0  0  0  0  0
    7.2534    6.1854   19.3510 C   0  0  0  0  0  0  0  0  0  0  0  0
    7.8863    7.3362   19.6043 F   0  0  0  0  0  0  0  0  0  0  0  0
    5.2882    4.8342   19.5314 C   0  0  0  0  0  0  0  0  0  0  0  0
    5.9600    3.8265   18.8376 C   0  0  0  0  0  0  0  0  0  0  0  0
    7.2847    3.9918   18.4038 C   0  0  0  0  0  0  0  0  0  0  0  0
    7.9316    5.1967   18.6677 C   0  0  0  0  0  0  0  0  0  0  0  0
    8.0390    2.9288   17.6260 C   0  0  0  0  0  0  0  0  0  0  0  0
    8.8526    1.9567   18.4986 C   0  0  0  0  0  0  0  0  0  0  0  0
    7.1138    2.2120   16.7133 N   0  0  0  0  0  0  0  0  0  0  0  0
    6.9164    2.8130   15.3829 C   0  0  0  0  0  0  0  0  0  0  0  0
    7.3070    0.7531   16.6115 C   0  0  0  0  0  0  0  0  0  0  0  0
    5.2755    9.1221   23.2322 N   0  0  0  0  0  0  0  0  0  0  0  0
    6.2499    9.0472   22.9402 H   0  0  0  0  0  0  0  0  0  0  0  0
    5.2303    8.7861   24.8126 S   0  0  0  0  0  0  0  0  0  0  0  0
    5.0277   10.0866   25.3789 O   0  0  0  0  0  0  0  0  0  0  0  0
    4.3157    7.7106   24.9970 O   0  0  0  0  0  0  0  0  0  0  0  0
    7.8698    9.0024   24.9335 C   0  0  0  0  0  0  0  0  0  0  0  0
    6.8241    8.2166   25.2428 C   0  0  0  0  0  0  0  0  0  0  0  0
   12.8289    7.4176   26.9133 Cl  0  0  0  0  0  0  0  0  0  0  0  0
   11.4891    8.0626   26.0116 C   0  0  0  0  0  0  0  0  0  0  0  0
   11.5895    8.7335   24.8368 C   0  0  0  0  0  0  0  0  0  0  0  0
   10.3325    9.1202   24.3714 C   0  0  0  0  0  0  0  0  0  0  0  0
    9.8778    7.8595   26.5775 S   0  0  0  0  0  0  0  0  0  0  0  0
    9.2829    8.7312   25.1961 C   0  0  0  0  0  0  0  0  0  0  0  0
 26 27  1  0  0  0
 27 28  2  0  0  0
 27 30  1  0  0  0
 28 29  1  0  0  0
 29 31  2  0  0  0
 30 31  1  0  0  0
 31 24  1  0  0  0
 24 25  2  0  0  0
 25 21  1  0  0  0
 21 22  2  0  0  0
 21 23  2  0  0  0
 21 19  1  0  0  0
 19  1  1  0  0  0
  1  2  1  0  0  0
  1  4  1  0  0  0
  2  3  1  0  0  0
  3  6  1  0  0  0
  4  5  2  0  0  0
  4  6  1  0  0  0
  6  7  1  0  0  0
  7  8  1  0  0  0
  7 10  2  0  0  0
  8  9  1  0  0  0
  8 13  2  0  0  0
 10 11  1  0  0  0
 11 12  2  0  0  0
 12 13  1  0  0  0
 12 14  1  0  0  0
 14 15  1  0  0  0
 14 16  1  0  0  0
 16 17  1  0  0  0
 16 18  1  0  0  0
 19 20  1  0  0  0
M  END
> <minimizedAffinity>
-7.03269

$$$$
2WYG_461_A_1245


 31 33  0  0  0  0  0  0  0  0999 V2000
    7.5355    7.8491   21.8582 C   0  0  0  0  0  0  0  0  0  0  0  0
    7.8908    8.8828   20.7789 C   0  0  0  0  0  0  0  0  0  0  0  0
    7.7939    8.1567   19.4252 C   0  0  0  0  0  0  0  0  0  0  0  0
    7.5271    6.5266   21.1132 C   0  0  0  0  0  0  0  0  0  0  0  0
    7.4554    5.4128   21.6202 O   0  0  0  0  0  0  0  0  0  0  0  0
    7.6036    6.7552   19.7788 N   0  0  0  0  0  0  0  0  0  0  0  0
    7.4985    5.7045   18.8266 C   0  0  0  0  0  0  0  0  0  0  0  0
    6.3930    5.6544   18.0020 C   0  0  0  0  0  0  0  0  0  0  0  0
    5.4432    6.5865   18.1356 F   0  0  0  0  0  0  0  0  0  0  0  0
    8.4971    4.7468   18.6872 C   0  0  0  0  0  0  0  0  0  0  0  0
    8.3407    3.7491   17.7237 C   0  0  0  0  0  0  0  0  0  0  0  0
    7.2122    3.7044   16.8899 C   0  0  0  0  0  0  0  0  0  0  0  0
    6.2266    4.6767   17.0424 C   0  0  0  0  0  0  0  0  0  0  0  0
    6.9958    2.6218   15.8484 C   0  0  0  0  0  0  0  0  0  0  0  0
    7.1947    1.1872   16.3686 C   0  0  0  0  0  0  0  0  0  0  0  0
    5.6732    2.7968   15.1981 N   0  0  0  0  0  0  0  0  0  0  0  0
    5.6924    3.2232   13.7881 C   0  0  0  0  0  0  0  0  0  0  0  0
    4.6999    1.7084   15.4086 C   0  0  0  0  0  0  0  0  0  0  0  0
    8.5343    7.7781   22.8955 N   0  0  0  0  0  0  0  0  0  0  0  0
    8.6299    6.7948   23.1493 H   0  0  0  0  0  0  0  0  0  0  0  0
    8.3104    8.5995   24.2695 S   0  0  0  0  0  0  0  0  0  0  0  0
    8.5694    7.5915   25.2543 O   0  0  0  0  0  0  0  0  0  0  0  0
    9.0643    9.8037   24.1777 O   0  0  0  0  0  0  0  0  0  0  0  0
    5.7988    8.2405   25.0388 C   0  0  0  0  0  0  0  0  0  0  0  0
    6.6179    9.0270   24.3197 C   0  0  0  0  0  0  0  0  0  0  0  0
    0.6144    9.9578   26.1330 Cl  0  0  0  0  0  0  0  0  0  0  0  0
    2.0578    9.1005   25.6791 C   0  0  0  0  0  0  0  0  0  0  0  0
    2.0915    7.8443   25.1680 C   0  0  0  0  0  0  0  0  0  0  0  0
    3.4026    7.4430   24.9103 C   0  0  0  0  0  0  0  0  0  0  0  0
    3.6010    9.8417   25.8431 S   0  0  0  0  0  0  0  0  0  0  0  0
    4.3570    8.4049   25.2217 C   0  0  0  0  0  0  0  0  0  0  0  0
 26 27  1  0  0  0
 27 28  2  0  0  0
 27 30  1  0  0  0
 28 29  1  0  0  0
 29 31  2  0  0  0
 30 31  1  0  0  0
 31 24  1  0  0  0
 24 25  2  0  0  0
 25 21  1  0  0  0
 21 22  2  0  0  0
 21 23  2  0  0  0
 21 19  1  0  0  0
 19  1  1  0  0  0
  1  2  1  0  0  0
  1  4  1  0  0  0
  2  3  1  0  0  0
  3  6  1  0  0  0
  4  5  2  0  0  0
  4  6  1  0  0  0
  6  7  1  0  0  0
  7  8  1  0  0  0
  7 10  2  0  0  0
  8  9  1  0  0  0
  8 13  2  0  0  0
 10 11  1  0  0  0
 11 12  2  0  0  0
 12 13  1  0  0  0
 12 14  1  0  0  0
 14 15  1  0  0  0
 14 16  1  0  0  0
 16 17  1  0  0  0
 16 18  1  0  0  0
 19 20  1  0  0  0
M  END
> <minimizedAffinity>
-6.94393

$$$$
2WYG_461_A_1245


 31 33  0  0  0  0  0  0  0  0999 V2000
    6.9446    9.2971   21.8031 C   0  0  0  0  0  0  0  0  0  0  0  0
    8.0180    8.4598   21.0913 C   0  0  0  0  0  0  0  0  0  0  0  0
    7.9077    8.7863   19.5912 C   0  0  0  0  0  0  0  0  0  0  0  0
    6.0928    9.8429   20.6714 C   0  0  0  0  0  0  0  0  0  0  0  0
    5.0221   10.4276   20.7911 O   0  0  0  0  0  0  0  0  0  0  0  0
    6.6993    9.5948   19.4844 N   0  0  0  0  0  0  0  0  0  0  0  0
    6.1863   10.0954   18.2563 C   0  0  0  0  0  0  0  0  0  0  0  0
    5.3338    9.3044   17.5132 C   0  0  0  0  0  0  0  0  0  0  0  0
    5.0295    8.0817   17.9618 F   0  0  0  0  0  0  0  0  0  0  0  0
    6.4992   11.3727   17.8042 C   0  0  0  0  0  0  0  0  0  0  0  0
    5.9516   11.8105   16.5972 C   0  0  0  0  0  0  0  0  0  0  0  0
    5.0864   10.9990   15.8466 C   0  0  0  0  0  0  0  0  0  0  0  0
    4.7816    9.7252   16.3205 C   0  0  0  0  0  0  0  0  0  0  0  0
    4.4915   11.4309   14.5188 C   0  0  0  0  0  0  0  0  0  0  0  0
    3.4161   12.5264   14.6278 C   0  0  0  0  0  0  0  0  0  0  0  0
    5.5724   11.8079   13.5741 N   0  0  0  0  0  0  0  0  0  0  0  0
    6.5027   10.7332   13.1870 C   0  0  0  0  0  0  0  0  0  0  0  0
    5.1582   12.5980   12.3993 C   0  0  0  0  0  0  0  0  0  0  0  0
    6.1038    8.4949   22.6564 N   0  0  0  0  0  0  0  0  0  0  0  0
    5.1463    8.8183   22.5191 H   0  0  0  0  0  0  0  0  0  0  0  0
    6.3730    8.4831   24.2501 S   0  0  0  0  0  0  0  0  0  0  0  0
    6.2235    9.8697   24.5788 O   0  0  0  0  0  0  0  0  0  0  0  0
    5.5585    7.4614   24.8156 O   0  0  0  0  0  0  0  0  0  0  0  0
    8.6035    8.2557   25.6650 C   0  0  0  0  0  0  0  0  0  0  0  0
    8.0431    8.0208   24.4661 C   0  0  0  0  0  0  0  0  0  0  0  0
   14.1201    7.7112   26.2082 Cl  0  0  0  0  0  0  0  0  0  0  0  0
   12.3884    7.6823   26.3654 C   0  0  0  0  0  0  0  0  0  0  0  0
   11.7067    7.1021   27.3848 C   0  0  0  0  0  0  0  0  0  0  0  0
   10.3299    7.2516   27.2161 C   0  0  0  0  0  0  0  0  0  0  0  0
   11.3924    8.4426   25.1874 S   0  0  0  0  0  0  0  0  0  0  0  0
    9.9764    7.9539   26.0694 C   0  0  0  0  0  0  0  0  0  0  0  0
 26 27  1  0  0  0
 27 28  2  0  0  0
 27 30  1  0  0  0
 28 29  1  0  0  0
 29 31  2  0  0  0
 30 31  1  0  0  0
 31 24  1  0  0  0
 24 25  2  0  0  0
 25 21  1  0  0  0
 21 22  2  0  0  0
 21 23  2  0  0  0
 21 19  1  0  0  0
 19  1  1  0  0  0
  1  2  1  0  0  0
  1  4  1  0  0  0
  2  3  1  0  0  0
  3  6  1  0  0  0
  4  5  2  0  0  0
  4  6  1  0  0  0
  6  7  1  0  0  0
  7  8  1  0  0  0
  7 10  2  0  0  0
  8  9  1  0  0  0
  8 13  2  0  0  0
 10 11  1  0  0  0
 11 12  2  0  0  0
 12 13  1  0  0  0
 12 14  1  0  0  0
 14 15  1  0  0  0
 14 16  1  0  0  0
 16 17  1  0  0  0
 16 18  1  0  0  0
 19 20  1  0  0  0
M  END
> <minimizedAffinity>
-6.81596

$$$$
2WYG_461_A_1245


 31 33  0  0  0  0  0  0  0  0999 V2000
    5.2312    7.2038   22.8440 C   0  0  0  0  0  0  0  0  0  0  0  0
    4.5610    5.8511   23.1282 C   0  0  0  0  0  0  0  0  0  0  0  0
    4.7079    5.0095   21.8478 C   0  0  0  0  0  0  0  0  0  0  0  0
    5.4789    7.1848   21.3465 C   0  0  0  0  0  0  0  0  0  0  0  0
    5.8446    8.1345   20.6632 O   0  0  0  0  0  0  0  0  0  0  0  0
    5.2416    5.9410   20.8614 N   0  0  0  0  0  0  0  0  0  0  0  0
    5.5039    5.5972   19.5069 C   0  0  0  0  0  0  0  0  0  0  0  0
    6.7918    5.2686   19.1354 C   0  0  0  0  0  0  0  0  0  0  0  0
    7.7597    5.3010   20.0580 F   0  0  0  0  0  0  0  0  0  0  0  0
    4.4886    5.5549   18.5576 C   0  0  0  0  0  0  0  0  0  0  0  0
    4.8091    5.1960   17.2473 C   0  0  0  0  0  0  0  0  0  0  0  0
    6.1221    4.8646   16.8775 C   0  0  0  0  0  0  0  0  0  0  0  0
    7.1229    4.9079   17.8452 C   0  0  0  0  0  0  0  0  0  0  0  0
    6.5129    4.4934   15.4586 C   0  0  0  0  0  0  0  0  0  0  0  0
    6.5228    2.9810   15.1745 C   0  0  0  0  0  0  0  0  0  0  0  0
    5.6698    5.2339   14.4871 N   0  0  0  0  0  0  0  0  0  0  0  0
    6.0619    6.6276   14.2146 C   0  0  0  0  0  0  0  0  0  0  0  0
    5.3457    4.5212   13.2369 C   0  0  0  0  0  0  0  0  0  0  0  0
    4.3646    8.3159   23.1455 N   0  0  0  0  0  0  0  0  0  0  0  0
    3.9744    8.6374   22.2596 H   0  0  0  0  0  0  0  0  0  0  0  0
    4.9720    9.6148   23.8916 S   0  0  0  0  0  0  0  0  0  0  0  0
    4.5827   10.6679   23.0013 O   0  0  0  0  0  0  0  0  0  0  0  0
    4.5594    9.5602   25.2531 O   0  0  0  0  0  0  0  0  0  0  0  0
    7.3193    9.0109   24.9660 C   0  0  0  0  0  0  0  0  0  0  0  0
    6.7093    9.4423   23.8486 C   0  0  0  0  0  0  0  0  0  0  0  0
   12.4237    7.5801   26.6753 Cl  0  0  0  0  0  0  0  0  0  0  0  0
   11.0193    8.1957   25.8551 C   0  0  0  0  0  0  0  0  0  0  0  0
   11.0393    8.9102   24.7021 C   0  0  0  0  0  0  0  0  0  0  0  0
    9.7476    9.2567   24.3046 C   0  0  0  0  0  0  0  0  0  0  0  0
    9.4445    7.9022   26.4810 S   0  0  0  0  0  0  0  0  0  0  0  0
    8.7529    8.7935   25.1585 C   0  0  0  0  0  0  0  0  0  0  0  0
 26 27  1  0  0  0
 27 28  2  0  0  0
 27 30  1  0  0  0
 28 29  1  0  0  0
 29 31  2  0  0  0
 30 31  1  0  0  0
 31 24  1  0  0  0
 24 25  2  0  0  0
 25 21  1  0  0  0
 21 22  2  0  0  0
 21 23  2  0  0  0
 21 19  1  0  0  0
 19  1  1  0  0  0
  1  2  1  0  0  0
  1  4  1  0  0  0
  2  3  1  0  0  0
  3  6  1  0  0  0
  4  5  2  0  0  0
  4  6  1  0  0  0
  6  7  1  0  0  0
  7  8  1  0  0  0
  7 10  2  0  0  0
  8  9  1  0  0  0
  8 13  2  0  0  0
 10 11  1  0  0  0
 11 12  2  0  0  0
 12 13  1  0  0  0
 12 14  1  0  0  0
 14 15  1  0  0  0
 14 16  1  0  0  0
 16 17  1  0  0  0
 16 18  1  0  0  0
 19 20  1  0  0  0
M  END
> <minimizedAffinity>
-6.62987

$$$$
2WYG_461_A_1245


 31 33  0  0  0  0  0  0  0  0999 V2000
    4.7975    7.8287   22.6106 C   0  0  0  0  0  0  0  0  0  0  0  0
    4.8709    7.8737   21.0768 C   0  0  0  0  0  0  0  0  0  0  0  0
    4.2231    6.5738   20.5670 C   0  0  0  0  0  0  0  0  0  0  0  0
    4.3754    6.4033   22.9175 C   0  0  0  0  0  0  0  0  0  0  0  0
    4.3563    5.8788   24.0253 O   0  0  0  0  0  0  0  0  0  0  0  0
    4.0067    5.7806   21.7709 N   0  0  0  0  0  0  0  0  0  0  0  0
    3.4538    4.4706   21.7685 C   0  0  0  0  0  0  0  0  0  0  0  0
    4.2980    3.3863   21.6397 C   0  0  0  0  0  0  0  0  0  0  0  0
    5.6110    3.6010   21.5025 F   0  0  0  0  0  0  0  0  0  0  0  0
    2.0885    4.2571   21.9236 C   0  0  0  0  0  0  0  0  0  0  0  0
    1.6101    2.9459   21.9269 C   0  0  0  0  0  0  0  0  0  0  0  0
    2.4754    1.8486   21.7938 C   0  0  0  0  0  0  0  0  0  0  0  0
    3.8400    2.0845   21.6453 C   0  0  0  0  0  0  0  0  0  0  0  0
    1.9898    0.4108   21.7684 C   0  0  0  0  0  0  0  0  0  0  0  0
    2.0903   -0.2723   20.3930 C   0  0  0  0  0  0  0  0  0  0  0  0
    2.6687   -0.3757   22.8283 N   0  0  0  0  0  0  0  0  0  0  0  0
    2.0269   -0.3711   24.1544 C   0  0  0  0  0  0  0  0  0  0  0  0
    3.0947   -1.7367   22.4513 C   0  0  0  0  0  0  0  0  0  0  0  0
    6.0804    8.0633   23.2252 N   0  0  0  0  0  0  0  0  0  0  0  0
    6.2544    7.2821   23.8575 H   0  0  0  0  0  0  0  0  0  0  0  0
    6.3169    9.4182   24.0743 S   0  0  0  0  0  0  0  0  0  0  0  0
    6.2101   10.4201   23.0556 O   0  0  0  0  0  0  0  0  0  0  0  0
    5.4554    9.3711   25.2069 O   0  0  0  0  0  0  0  0  0  0  0  0
    8.3636    8.2437   25.2827 C   0  0  0  0  0  0  0  0  0  0  0  0
    7.9649    9.3601   24.6492 C   0  0  0  0  0  0  0  0  0  0  0  0
   13.7927    7.8189   26.4527 Cl  0  0  0  0  0  0  0  0  0  0  0  0
   12.0552    7.7563   26.4138 C   0  0  0  0  0  0  0  0  0  0  0  0
   11.2737    7.1744   27.3578 C   0  0  0  0  0  0  0  0  0  0  0  0
    9.9222    7.2936   27.0327 C   0  0  0  0  0  0  0  0  0  0  0  0
   11.1846    8.4821   25.1203 S   0  0  0  0  0  0  0  0  0  0  0  0
    9.6874    7.9749   25.8437 C   0  0  0  0  0  0  0  0  0  0  0  0
 26 27  1  0  0  0
 27 28  2  0  0  0
 27 30  1  0  0  0
 28 29  1  0  0  0
 29 31  2  0  0  0
 30 31  1  0  0  0
 31 24  1  0  0  0
 24 25  2  0  0  0
 25 21  1  0  0  0
 21 22  2  0  0  0
 21 23  2  0  0  0
 21 19  1  0  0  0
 19  1  1  0  0  0
  1  2  1  0  0  0
  1  4  1  0  0  0
  2  3  1  0  0  0
  3  6  1  0  0  0
  4  5  2  0  0  0
  4  6  1  0  0  0
  6  7  1  0  0  0
  7  8  1  0  0  0
  7 10  2  0  0  0
  8  9  1  0  0  0
  8 13  2  0  0  0
 10 11  1  0  0  0
 11 12  2  0  0  0
 12 13  1  0  0  0
 12 14  1  0  0  0
 14 15  1  0  0  0
 14 16  1  0  0  0
 16 17  1  0  0  0
 16 18  1  0  0  0
 19 20  1  0  0  0
M  END
> <minimizedAffinity>
-6.45062

$$$$
