5AOI_RZH_B_1292


 19 20  0  0  0  0  0  0  0  0999 V2000
  124.8565  103.4125  -41.3680 N   0  0  0  0  0  0  0  0  0  0  0  0
  123.9984  103.6260  -43.4454 C   0  0  0  0  0  0  0  0  0  0  0  0
  124.5923  102.6993  -42.5548 C   0  0  0  0  0  0  0  0  0  0  0  0
  123.8939  104.9150  -42.7700 C   0  0  0  0  0  0  0  0  0  0  0  0
  124.4437  104.7449  -41.4829 C   0  0  0  0  0  0  0  0  0  0  0  0
  124.8432  101.3496  -42.8861 C   0  0  0  0  0  0  0  0  0  0  0  0
  123.6350  103.1908  -44.7188 C   0  0  0  0  0  0  0  0  0  0  0  0
  124.4576  100.9554  -44.1749 C   0  0  0  0  0  0  0  0  0  0  0  0
  123.8659  101.8621  -45.0731 C   0  0  0  0  0  0  0  0  0  0  0  0
  123.3437  101.2817  -46.8574 Br  0  0  0  0  0  0  0  0  0  0  0  0
  124.5612  105.8071  -40.4111 C   0  0  0  0  0  0  0  0  0  0  0  0
  125.2754  103.0252  -40.5657 H   0  0  0  0  0  0  0  0  0  0  0  0
  125.4844  100.3700  -41.9142 C   0  0  0  0  0  0  0  0  0  0  0  0
  126.9868  100.5692  -41.9163 C   0  0  0  0  0  0  0  0  0  0  0  0
  123.3226  106.2057  -43.3616 C   0  0  0  0  0  0  0  0  0  0  0  0
  125.0192  107.9162  -43.3566 N   0  0  0  0  0  0  0  0  0  0  0  0
  124.3460  106.9398  -44.2079 C   0  0  0  0  0  0  0  0  0  0  0  0
  125.7138  108.4236  -43.9048 H   0  0  0  0  0  0  0  0  0  0  0  0
  125.4809  107.4339  -42.5854 H   0  0  0  0  0  0  0  0  0  0  0  0
  1  3  1  0  0  0
  1  5  1  0  0  0
  2  3  1  0  0  0
  2  4  1  0  0  0
  2  7  2  0  0  0
  3  6  2  0  0  0
  4  5  2  0  0  0
  4 15  1  0  0  0
  5 11  1  0  0  0
  6  8  1  0  0  0
  6 13  1  0  0  0
  7  9  1  0  0  0
  8  9  2  0  0  0
  9 10  1  0  0  0
 15 17  1  0  0  0
 16 17  1  0  0  0
 13 14  1  0  0  0
  1 12  1  0  0  0
 16 18  1  0  0  0
 16 19  1  0  0  0
M  END
> <minimizedAffinity>
-6.60567

$$$$
5AOI_RZH_B_1292


 19 20  0  0  0  0  0  0  0  0999 V2000
  122.6527  104.5159  -45.6184 N   0  0  0  0  0  0  0  0  0  0  0  0
  123.9455  103.9559  -43.8542 C   0  0  0  0  0  0  0  0  0  0  0  0
  123.3610  103.4444  -45.0380 C   0  0  0  0  0  0  0  0  0  0  0  0
  123.5892  105.3656  -43.7340 C   0  0  0  0  0  0  0  0  0  0  0  0
  122.7794  105.6760  -44.8457 C   0  0  0  0  0  0  0  0  0  0  0  0
  123.5047  102.1055  -45.4636 C   0  0  0  0  0  0  0  0  0  0  0  0
  124.7086  103.1001  -43.0615 C   0  0  0  0  0  0  0  0  0  0  0  0
  124.2837  101.2827  -44.6383 C   0  0  0  0  0  0  0  0  0  0  0  0
  124.8724  101.7735  -43.4586 C   0  0  0  0  0  0  0  0  0  0  0  0
  125.9475  100.6025  -42.3335 Br  0  0  0  0  0  0  0  0  0  0  0  0
  122.1622  107.0226  -45.1566 C   0  0  0  0  0  0  0  0  0  0  0  0
  122.1377  104.4563  -46.4553 H   0  0  0  0  0  0  0  0  0  0  0  0
  122.8664  101.5753  -46.7391 C   0  0  0  0  0  0  0  0  0  0  0  0
  123.0607  100.0741  -46.8131 C   0  0  0  0  0  0  0  0  0  0  0  0
  123.9962  106.3110  -42.6015 C   0  0  0  0  0  0  0  0  0  0  0  0
  124.9624  106.2830  -40.3947 N   0  0  0  0  0  0  0  0  0  0  0  0
  123.9912  105.6128  -41.2544 C   0  0  0  0  0  0  0  0  0  0  0  0
  124.9771  105.8301  -39.4809 H   0  0  0  0  0  0  0  0  0  0  0  0
  124.7000  107.2625  -40.2845 H   0  0  0  0  0  0  0  0  0  0  0  0
  1  3  1  0  0  0
  1  5  1  0  0  0
  2  3  1  0  0  0
  2  4  1  0  0  0
  2  7  2  0  0  0
  3  6  2  0  0  0
  4  5  2  0  0  0
  4 15  1  0  0  0
  5 11  1  0  0  0
  6  8  1  0  0  0
  6 13  1  0  0  0
  7  9  1  0  0  0
  8  9  2  0  0  0
  9 10  1  0  0  0
 15 17  1  0  0  0
 16 17  1  0  0  0
 13 14  1  0  0  0
  1 12  1  0  0  0
 16 18  1  0  0  0
 16 19  1  0  0  0
M  END
> <minimizedAffinity>
-6.30085

$$$$
5AOI_RZH_B_1292


 19 20  0  0  0  0  0  0  0  0999 V2000
  124.3694  103.5401  -42.3425 N   0  0  0  0  0  0  0  0  0  0  0  0
  123.8118  103.1982  -44.5034 C   0  0  0  0  0  0  0  0  0  0  0  0
  124.3177  102.5541  -43.3485 C   0  0  0  0  0  0  0  0  0  0  0  0
  123.5435  104.5941  -44.1747 C   0  0  0  0  0  0  0  0  0  0  0  0
  123.9088  104.7708  -42.8244 C   0  0  0  0  0  0  0  0  0  0  0  0
  124.6838  101.1906  -43.3127 C   0  0  0  0  0  0  0  0  0  0  0  0
  123.6602  102.4535  -45.6720 C   0  0  0  0  0  0  0  0  0  0  0  0
  124.5104  100.4802  -44.5086 C   0  0  0  0  0  0  0  0  0  0  0  0
  124.0089  101.1034  -45.6659 C   0  0  0  0  0  0  0  0  0  0  0  0
  123.7821  100.0873  -47.3119 Br  0  0  0  0  0  0  0  0  0  0  0  0
  123.8142  106.0564  -42.0314 C   0  0  0  0  0  0  0  0  0  0  0  0
  124.6869  103.3840  -41.4238 H   0  0  0  0  0  0  0  0  0  0  0  0
  125.2273  100.5179  -42.0608 C   0  0  0  0  0  0  0  0  0  0  0  0
  126.7391  100.6241  -42.0479 C   0  0  0  0  0  0  0  0  0  0  0  0
  122.9978  105.6616  -45.1259 C   0  0  0  0  0  0  0  0  0  0  0  0
  121.6436  105.9511  -47.0973 N   0  0  0  0  0  0  0  0  0  0  0  0
  121.7605  105.1823  -45.8617 C   0  0  0  0  0  0  0  0  0  0  0  0
  120.8167  105.6460  -47.6106 H   0  0  0  0  0  0  0  0  0  0  0  0
  122.4740  105.8018  -47.6704 H   0  0  0  0  0  0  0  0  0  0  0  0
  1  3  1  0  0  0
  1  5  1  0  0  0
  2  3  1  0  0  0
  2  4  1  0  0  0
  2  7  2  0  0  0
  3  6  2  0  0  0
  4  5  2  0  0  0
  4 15  1  0  0  0
  5 11  1  0  0  0
  6  8  1  0  0  0
  6 13  1  0  0  0
  7  9  1  0  0  0
  8  9  2  0  0  0
  9 10  1  0  0  0
 15 17  1  0  0  0
 16 17  1  0  0  0
 13 14  1  0  0  0
  1 12  1  0  0  0
 16 18  1  0  0  0
 16 19  1  0  0  0
M  END
> <minimizedAffinity>
-6.18276

$$$$
5AOI_RZH_B_1292


 19 20  0  0  0  0  0  0  0  0999 V2000
  122.5545  102.7652  -47.0893 N   0  0  0  0  0  0  0  0  0  0  0  0
  123.5622  101.1576  -45.8655 C   0  0  0  0  0  0  0  0  0  0  0  0
  123.2304  102.5340  -45.8741 C   0  0  0  0  0  0  0  0  0  0  0  0
  123.0612  100.5531  -47.0952 C   0  0  0  0  0  0  0  0  0  0  0  0
  122.4466  101.5849  -47.8338 C   0  0  0  0  0  0  0  0  0  0  0  0
  123.5658  103.4241  -44.8302 C   0  0  0  0  0  0  0  0  0  0  0  0
  124.2541  100.6435  -44.7699 C   0  0  0  0  0  0  0  0  0  0  0  0
  124.2569  102.8627  -43.7476 C   0  0  0  0  0  0  0  0  0  0  0  0
  124.5948  101.4973  -43.7214 C   0  0  0  0  0  0  0  0  0  0  0  0
  125.5573  100.7498  -42.2022 Br  0  0  0  0  0  0  0  0  0  0  0  0
  121.7809  101.4449  -49.1858 C   0  0  0  0  0  0  0  0  0  0  0  0
  122.2051  103.6398  -47.3760 H   0  0  0  0  0  0  0  0  0  0  0  0
  123.2011  104.9010  -44.8601 C   0  0  0  0  0  0  0  0  0  0  0  0
  123.6930  105.5670  -43.5908 C   0  0  0  0  0  0  0  0  0  0  0  0
  123.2046   99.0868  -47.5094 C   0  0  0  0  0  0  0  0  0  0  0  0
  124.7011   97.2496  -47.9440 N   0  0  0  0  0  0  0  0  0  0  0  0
  124.6597   98.6760  -47.6362 C   0  0  0  0  0  0  0  0  0  0  0  0
  125.6717   96.9492  -48.0343 H   0  0  0  0  0  0  0  0  0  0  0  0
  124.2087   97.0765  -48.8204 H   0  0  0  0  0  0  0  0  0  0  0  0
  1  3  1  0  0  0
  1  5  1  0  0  0
  2  3  1  0  0  0
  2  4  1  0  0  0
  2  7  2  0  0  0
  3  6  2  0  0  0
  4  5  2  0  0  0
  4 15  1  0  0  0
  5 11  1  0  0  0
  6  8  1  0  0  0
  6 13  1  0  0  0
  7  9  1  0  0  0
  8  9  2  0  0  0
  9 10  1  0  0  0
 15 17  1  0  0  0
 16 17  1  0  0  0
 13 14  1  0  0  0
  1 12  1  0  0  0
 16 18  1  0  0  0
 16 19  1  0  0  0
M  END
> <minimizedAffinity>
-6.17561

$$$$
5AOI_RZH_B_1292


 19 20  0  0  0  0  0  0  0  0999 V2000
  122.4674  103.4203  -46.1385 N   0  0  0  0  0  0  0  0  0  0  0  0
  123.8350  103.5016  -44.3440 C   0  0  0  0  0  0  0  0  0  0  0  0
  123.3419  102.6410  -45.3544 C   0  0  0  0  0  0  0  0  0  0  0  0
  123.2527  104.8250  -44.5385 C   0  0  0  0  0  0  0  0  0  0  0  0
  122.4027  104.7339  -45.6597 C   0  0  0  0  0  0  0  0  0  0  0  0
  123.7028  101.2802  -45.4649 C   0  0  0  0  0  0  0  0  0  0  0  0
  124.7283  102.9875  -43.4053 C   0  0  0  0  0  0  0  0  0  0  0  0
  124.6063  100.8080  -44.5028 C   0  0  0  0  0  0  0  0  0  0  0  0
  125.1070  101.6484  -43.4918 C   0  0  0  0  0  0  0  0  0  0  0  0
  126.3597  100.9595  -42.1692 Br  0  0  0  0  0  0  0  0  0  0  0  0
  121.5732  105.8545  -46.2487 C   0  0  0  0  0  0  0  0  0  0  0  0
  121.9689  103.0855  -46.9186 H   0  0  0  0  0  0  0  0  0  0  0  0
  123.1596  100.3717  -46.5581 C   0  0  0  0  0  0  0  0  0  0  0  0
  124.3094   99.6457  -47.2271 C   0  0  0  0  0  0  0  0  0  0  0  0
  123.4997  106.0615  -43.6711 C   0  0  0  0  0  0  0  0  0  0  0  0
  125.0004  107.9089  -43.2982 N   0  0  0  0  0  0  0  0  0  0  0  0
  124.4598  107.0323  -44.3329 C   0  0  0  0  0  0  0  0  0  0  0  0
  125.6504  108.5722  -43.7201 H   0  0  0  0  0  0  0  0  0  0  0  0
  125.4908  107.3493  -42.6006 H   0  0  0  0  0  0  0  0  0  0  0  0
  1  3  1  0  0  0
  1  5  1  0  0  0
  2  3  1  0  0  0
  2  4  1  0  0  0
  2  7  2  0  0  0
  3  6  2  0  0  0
  4  5  2  0  0  0
  4 15  1  0  0  0
  5 11  1  0  0  0
  6  8  1  0  0  0
  6 13  1  0  0  0
  7  9  1  0  0  0
  8  9  2  0  0  0
  9 10  1  0  0  0
 15 17  1  0  0  0
 16 17  1  0  0  0
 13 14  1  0  0  0
  1 12  1  0  0  0
 16 18  1  0  0  0
 16 19  1  0  0  0
M  END
> <minimizedAffinity>
-6.11514

$$$$
5AOI_RZH_B_1292


 19 20  0  0  0  0  0  0  0  0999 V2000
  124.1981  100.9841  -44.6367 N   0  0  0  0  0  0  0  0  0  0  0  0
  123.7569  103.0757  -43.9101 C   0  0  0  0  0  0  0  0  0  0  0  0
  124.4208  101.8734  -43.5660 C   0  0  0  0  0  0  0  0  0  0  0  0
  123.1372  102.9037  -45.2196 C   0  0  0  0  0  0  0  0  0  0  0  0
  123.4275  101.5885  -45.6367 C   0  0  0  0  0  0  0  0  0  0  0  0
  125.1295  101.6915  -42.3581 C   0  0  0  0  0  0  0  0  0  0  0  0
  123.8029  104.1442  -43.0160 C   0  0  0  0  0  0  0  0  0  0  0  0
  125.1528  102.7934  -41.4920 C   0  0  0  0  0  0  0  0  0  0  0  0
  124.4992  103.9960  -41.8171 C   0  0  0  0  0  0  0  0  0  0  0  0
  124.5498  105.5074  -40.5898 Br  0  0  0  0  0  0  0  0  0  0  0  0
  122.9932  100.9438  -46.9354 C   0  0  0  0  0  0  0  0  0  0  0  0
  124.5389  100.0613  -44.6760 H   0  0  0  0  0  0  0  0  0  0  0  0
  125.8350  100.3899  -42.0068 C   0  0  0  0  0  0  0  0  0  0  0  0
  127.3349  100.5994  -42.0611 C   0  0  0  0  0  0  0  0  0  0  0  0
  122.3089  103.9453  -45.9754 C   0  0  0  0  0  0  0  0  0  0  0  0
  121.9616  106.2886  -46.4137 N   0  0  0  0  0  0  0  0  0  0  0  0
  122.5902  105.3535  -45.4855 C   0  0  0  0  0  0  0  0  0  0  0  0
  122.1373  107.2446  -46.1043 H   0  0  0  0  0  0  0  0  0  0  0  0
  120.9561  106.1188  -46.4386 H   0  0  0  0  0  0  0  0  0  0  0  0
  1  3  1  0  0  0
  1  5  1  0  0  0
  2  3  1  0  0  0
  2  4  1  0  0  0
  2  7  2  0  0  0
  3  6  2  0  0  0
  4  5  2  0  0  0
  4 15  1  0  0  0
  5 11  1  0  0  0
  6  8  1  0  0  0
  6 13  1  0  0  0
  7  9  1  0  0  0
  8  9  2  0  0  0
  9 10  1  0  0  0
 15 17  1  0  0  0
 16 17  1  0  0  0
 13 14  1  0  0  0
  1 12  1  0  0  0
 16 18  1  0  0  0
 16 19  1  0  0  0
M  END
> <minimizedAffinity>
-6.02428

$$$$
5AOI_RZH_B_1292


 19 20  0  0  0  0  0  0  0  0999 V2000
  122.7309  102.6336  -46.1496 N   0  0  0  0  0  0  0  0  0  0  0  0
  123.7492  103.8587  -44.5497 C   0  0  0  0  0  0  0  0  0  0  0  0
  122.7689  103.9177  -45.5697 C   0  0  0  0  0  0  0  0  0  0  0  0
  124.2969  102.5070  -44.5121 C   0  0  0  0  0  0  0  0  0  0  0  0
  123.6441  101.7759  -45.5256 C   0  0  0  0  0  0  0  0  0  0  0  0
  122.0351  105.0838  -45.8800 C   0  0  0  0  0  0  0  0  0  0  0  0
  124.0082  105.0076  -43.8040 C   0  0  0  0  0  0  0  0  0  0  0  0
  122.3254  106.2131  -45.1021 C   0  0  0  0  0  0  0  0  0  0  0  0
  123.2958  106.1731  -44.0843 C   0  0  0  0  0  0  0  0  0  0  0  0
  123.6760  107.7613  -43.0231 Br  0  0  0  0  0  0  0  0  0  0  0  0
  123.8793  100.3221  -45.8749 C   0  0  0  0  0  0  0  0  0  0  0  0
  122.1409  102.3746  -46.8939 H   0  0  0  0  0  0  0  0  0  0  0  0
  120.9866  105.1263  -46.9819 C   0  0  0  0  0  0  0  0  0  0  0  0
  119.8532  106.0412  -46.5636 C   0  0  0  0  0  0  0  0  0  0  0  0
  125.3897  101.9967  -43.5700 C   0  0  0  0  0  0  0  0  0  0  0  0
  124.4326  100.2253  -42.2471 N   0  0  0  0  0  0  0  0  0  0  0  0
  124.8333  101.6286  -42.2073 C   0  0  0  0  0  0  0  0  0  0  0  0
  124.0543   99.9538  -41.3396 H   0  0  0  0  0  0  0  0  0  0  0  0
  125.2437   99.6462  -42.4643 H   0  0  0  0  0  0  0  0  0  0  0  0
  1  3  1  0  0  0
  1  5  1  0  0  0
  2  3  1  0  0  0
  2  4  1  0  0  0
  2  7  2  0  0  0
  3  6  2  0  0  0
  4  5  2  0  0  0
  4 15  1  0  0  0
  5 11  1  0  0  0
  6  8  1  0  0  0
  6 13  1  0  0  0
  7  9  1  0  0  0
  8  9  2  0  0  0
  9 10  1  0  0  0
 15 17  1  0  0  0
 16 17  1  0  0  0
 13 14  1  0  0  0
  1 12  1  0  0  0
 16 18  1  0  0  0
 16 19  1  0  0  0
M  END
> <minimizedAffinity>
-5.71537

$$$$
5AOI_RZH_B_1292


 19 20  0  0  0  0  0  0  0  0999 V2000
  122.9608  103.4486  -45.1248 N   0  0  0  0  0  0  0  0  0  0  0  0
  123.6784  101.3363  -45.4723 C   0  0  0  0  0  0  0  0  0  0  0  0
  122.9543  102.3987  -46.0653 C   0  0  0  0  0  0  0  0  0  0  0  0
  124.1377  101.7671  -44.1564 C   0  0  0  0  0  0  0  0  0  0  0  0
  123.6666  103.0834  -43.9727 C   0  0  0  0  0  0  0  0  0  0  0  0
  122.3660  102.3224  -47.3470 C   0  0  0  0  0  0  0  0  0  0  0  0
  123.8268  100.1481  -46.1861 C   0  0  0  0  0  0  0  0  0  0  0  0
  122.5444  101.1111  -48.0295 C   0  0  0  0  0  0  0  0  0  0  0  0
  123.2610  100.0447  -47.4563 C   0  0  0  0  0  0  0  0  0  0  0  0
  123.4885   98.3742  -48.4314 Br  0  0  0  0  0  0  0  0  0  0  0  0
  123.8886  103.9525  -42.7536 C   0  0  0  0  0  0  0  0  0  0  0  0
  122.5270  104.3219  -45.2601 H   0  0  0  0  0  0  0  0  0  0  0  0
  121.5901  103.4759  -47.9654 C   0  0  0  0  0  0  0  0  0  0  0  0
  121.1705  103.1032  -49.3732 C   0  0  0  0  0  0  0  0  0  0  0  0
  124.9494  100.9348  -43.1612 C   0  0  0  0  0  0  0  0  0  0  0  0
  127.0571  100.6177  -42.0382 N   0  0  0  0  0  0  0  0  0  0  0  0
  126.3700  101.4493  -43.0219 C   0  0  0  0  0  0  0  0  0  0  0  0
  128.0167  100.9451  -41.9271 H   0  0  0  0  0  0  0  0  0  0  0  0
  127.0633   99.6488  -42.3571 H   0  0  0  0  0  0  0  0  0  0  0  0
  1  3  1  0  0  0
  1  5  1  0  0  0
  2  3  1  0  0  0
  2  4  1  0  0  0
  2  7  2  0  0  0
  3  6  2  0  0  0
  4  5  2  0  0  0
  4 15  1  0  0  0
  5 11  1  0  0  0
  6  8  1  0  0  0
  6 13  1  0  0  0
  7  9  1  0  0  0
  8  9  2  0  0  0
  9 10  1  0  0  0
 15 17  1  0  0  0
 16 17  1  0  0  0
 13 14  1  0  0  0
  1 12  1  0  0  0
 16 18  1  0  0  0
 16 19  1  0  0  0
M  END
> <minimizedAffinity>
-5.03868

$$$$
5AOI_RZH_B_1292


 19 20  0  0  0  0  0  0  0  0999 V2000
  121.8977  107.6628  -44.6246 N   0  0  0  0  0  0  0  0  0  0  0  0
  123.1729  105.8671  -44.1281 C   0  0  0  0  0  0  0  0  0  0  0  0
  122.1666  106.3334  -45.0082 C   0  0  0  0  0  0  0  0  0  0  0  0
  123.5207  106.9460  -43.2097 C   0  0  0  0  0  0  0  0  0  0  0  0
  122.7024  108.0442  -43.5448 C   0  0  0  0  0  0  0  0  0  0  0  0
  121.5961  105.5429  -46.0300 C   0  0  0  0  0  0  0  0  0  0  0  0
  123.6342  104.5597  -44.2728 C   0  0  0  0  0  0  0  0  0  0  0  0
  122.0934  104.2371  -46.1414 C   0  0  0  0  0  0  0  0  0  0  0  0
  123.0931  103.7566  -45.2762 C   0  0  0  0  0  0  0  0  0  0  0  0
  123.7605  101.9359  -45.4571 Br  0  0  0  0  0  0  0  0  0  0  0  0
  122.6970  109.3975  -42.8670 C   0  0  0  0  0  0  0  0  0  0  0  0
  121.2328  108.2452  -45.0582 H   0  0  0  0  0  0  0  0  0  0  0  0
  120.5137  106.0632  -46.9645 C   0  0  0  0  0  0  0  0  0  0  0  0
  120.6856  105.4355  -48.3331 C   0  0  0  0  0  0  0  0  0  0  0  0
  124.5551  106.8811  -42.0837 C   0  0  0  0  0  0  0  0  0  0  0  0
  124.8802  106.0198  -39.8573 N   0  0  0  0  0  0  0  0  0  0  0  0
  124.3147  105.6982  -41.1642 C   0  0  0  0  0  0  0  0  0  0  0  0
  124.7305  105.2375  -39.2202 H   0  0  0  0  0  0  0  0  0  0  0  0
  124.4245  106.8532  -39.4854 H   0  0  0  0  0  0  0  0  0  0  0  0
  1  3  1  0  0  0
  1  5  1  0  0  0
  2  3  1  0  0  0
  2  4  1  0  0  0
  2  7  2  0  0  0
  3  6  2  0  0  0
  4  5  2  0  0  0
  4 15  1  0  0  0
  5 11  1  0  0  0
  6  8  1  0  0  0
  6 13  1  0  0  0
  7  9  1  0  0  0
  8  9  2  0  0  0
  9 10  1  0  0  0
 15 17  1  0  0  0
 16 17  1  0  0  0
 13 14  1  0  0  0
  1 12  1  0  0  0
 16 18  1  0  0  0
 16 19  1  0  0  0
M  END
> <minimizedAffinity>
-4.94907

$$$$
5AOI_RZH_B_1292


 19 20  0  0  0  0  0  0  0  0999 V2000
  124.4253  107.1378  -41.2806 N   0  0  0  0  0  0  0  0  0  0  0  0
  123.8561  107.7956  -43.3641 C   0  0  0  0  0  0  0  0  0  0  0  0
  124.3242  108.2696  -42.1147 C   0  0  0  0  0  0  0  0  0  0  0  0
  123.6879  106.3491  -43.2766 C   0  0  0  0  0  0  0  0  0  0  0  0
  124.0452  105.9773  -41.9643 C   0  0  0  0  0  0  0  0  0  0  0  0
  124.5953  109.6297  -41.8480 C   0  0  0  0  0  0  0  0  0  0  0  0
  123.6523  108.7132  -44.3935 C   0  0  0  0  0  0  0  0  0  0  0  0
  124.3805  110.5154  -42.9130 C   0  0  0  0  0  0  0  0  0  0  0  0
  123.9160  110.0626  -44.1614 C   0  0  0  0  0  0  0  0  0  0  0  0
  123.6262  111.3206  -45.6197 Br  0  0  0  0  0  0  0  0  0  0  0  0
  124.0298  104.5751  -41.3947 C   0  0  0  0  0  0  0  0  0  0  0  0
  124.7234  107.1607  -40.3426 H   0  0  0  0  0  0  0  0  0  0  0  0
  125.0964  110.1186  -40.4970 C   0  0  0  0  0  0  0  0  0  0  0  0
  124.0208  110.9548  -39.8334 C   0  0  0  0  0  0  0  0  0  0  0  0
  123.1915  105.4243  -44.3904 C   0  0  0  0  0  0  0  0  0  0  0  0
  123.9347  103.1735  -44.8210 N   0  0  0  0  0  0  0  0  0  0  0  0
  124.3128  104.5765  -44.9615 C   0  0  0  0  0  0  0  0  0  0  0  0
  124.6750  102.5824  -45.1991 H   0  0  0  0  0  0  0  0  0  0  0  0
  123.0686  103.0020  -45.3317 H   0  0  0  0  0  0  0  0  0  0  0  0
  1  3  1  0  0  0
  1  5  1  0  0  0
  2  3  1  0  0  0
  2  4  1  0  0  0
  2  7  2  0  0  0
  3  6  2  0  0  0
  4  5  2  0  0  0
  4 15  1  0  0  0
  5 11  1  0  0  0
  6  8  1  0  0  0
  6 13  1  0  0  0
  7  9  1  0  0  0
  8  9  2  0  0  0
  9 10  1  0  0  0
 15 17  1  0  0  0
 16 17  1  0  0  0
 13 14  1  0  0  0
  1 12  1  0  0  0
 16 18  1  0  0  0
 16 19  1  0  0  0
M  END
> <minimizedAffinity>
-4.77294

$$$$
