5BV3_M7G_A_401


 37 39  0  0  0  0  0  0  0  0999 V2000
   42.2745    3.7762   28.5106 C   0  0  0  0  0  0  0  0  0  0  0  0
   42.8077    2.6802   27.7365 O   0  0  0  0  0  0  0  0  0  0  0  0
   41.6178    3.1775   29.7529 C   0  0  0  0  0  0  0  0  0  0  0  0
   40.2002    3.4079   29.6723 O   0  0  0  0  0  0  0  0  0  0  0  0
   41.9385    1.6760   29.6716 C   0  0  0  0  0  0  0  0  0  0  0  0
   40.7846    0.9215   30.0113 O   0  0  0  0  0  0  0  0  0  0  0  0
   42.1803    1.4650   28.1905 C   0  0  0  0  0  0  0  0  0  0  0  0
   39.8583    3.0333   28.8455 H   0  0  0  0  0  0  0  0  0  0  0  0
   40.0492    1.1770   29.4326 H   0  0  0  0  0  0  0  0  0  0  0  0
   43.1094    0.3753   27.8790 N   0  0  0  0  0  0  0  0  0  0  0  0
   44.1808    0.0131   28.7873 C   0  0  0  0  0  0  0  0  0  0  0  0
   44.9776   -0.8749   27.9461 N   0  0  0  0  0  0  0  0  0  0  0  0
   46.2179   -1.5119   28.4672 C   0  0  0  0  0  0  0  0  0  0  0  0
   44.4067   -1.0280   26.7398 C   0  0  0  0  0  0  0  0  0  0  0  0
   44.7710   -1.7796   25.6229 C   0  0  0  0  0  0  0  0  0  0  0  0
   45.7660   -2.4948   25.5081 O   0  0  0  0  0  0  0  0  0  0  0  0
   43.8740   -1.6591   24.5465 N   0  0  0  0  0  0  0  0  0  0  0  0
   42.7395   -0.8836   24.5942 C   0  0  0  0  0  0  0  0  0  0  0  0
   41.9671   -0.8581   23.5118 N   0  0  0  0  0  0  0  0  0  0  0  0
   42.3837   -0.1622   25.6669 N   0  0  0  0  0  0  0  0  0  0  0  0
   43.2373   -0.2784   26.6910 C   0  0  0  0  0  0  0  0  0  0  0  0
   44.0679   -2.1544   23.7180 H   0  0  0  0  0  0  0  0  0  0  0  0
   42.2161   -1.3829   22.7169 H   0  0  0  0  0  0  0  0  0  0  0  0
   41.1464   -0.3144   23.5055 H   0  0  0  0  0  0  0  0  0  0  0  0
   43.5246    4.5283   28.9223 C   0  0  0  0  0  0  0  0  0  0  0  0
   43.2242    5.5128   29.8949 O   0  0  0  0  0  0  0  0  0  0  0  0
   44.4127    6.1282   30.7618 P   0  0  0  0  0  0  0  0  0  0  0  0
   44.6885    5.3194   31.9677 O   0  0  0  0  0  0  0  0  0  0  0  0
   45.5006    6.4357   29.8069 O   0  0  0  0  0  0  0  0  0  0  0  0
   46.2537    6.8154   30.2861 H   0  0  0  0  0  0  0  0  0  0  0  0
   43.6663    7.4423   31.3268 O   0  0  0  0  0  0  0  0  0  0  0  0
   43.3144    8.7448   30.4700 P   0  0  0  0  0  0  0  0  0  0  0  0
   42.8824    9.9070   31.2868 O   0  0  0  0  0  0  0  0  0  0  0  0
   42.1814    8.2463   29.4664 O   0  0  0  0  0  0  0  0  0  0  0  0
   44.6006    9.0572   29.6822 O   0  0  0  0  0  0  0  0  0  0  0  0
   41.3723    8.0500   29.9639 H   0  0  0  0  0  0  0  0  0  0  0  0
   45.2892    9.3605   30.2945 H   0  0  0  0  0  0  0  0  0  0  0  0
 27 28  2  0  0  0
 27 29  1  0  0  0
 27 31  1  0  0  0
 27 26  1  0  0  0
 31 32  1  0  0  0
 26 25  1  0  0  0
 32 33  2  0  0  0
 32 34  1  0  0  0
 32 35  1  0  0  0
 25  1  1  0  0  0
  1  2  1  0  0  0
  1  3  1  0  0  0
  2  7  1  0  0  0
  3  4  1  0  0  0
  3  5  1  0  0  0
  5  6  1  0  0  0
  5  7  1  0  0  0
  7 10  1  0  0  0
 10 11  1  0  0  0
 10 21  1  0  0  0
 11 12  1  0  0  0
 12 13  1  0  0  0
 12 14  1  0  0  0
 14 15  1  0  0  0
 14 21  2  0  0  0
 15 16  2  0  0  0
 15 17  1  0  0  0
 17 18  1  0  0  0
 18 19  1  0  0  0
 18 20  2  0  0  0
 20 21  1  0  0  0
 29 30  1  0  0  0
 34 36  1  0  0  0
 35 37  1  0  0  0
  4  8  1  0  0  0
  6  9  1  0  0  0
 17 22  1  0  0  0
 19 23  1  0  0  0
 19 24  1  0  0  0
M  END
> <minimizedAffinity>
-11.59146

$$$$
5BV3_M7G_A_401


 37 39  0  0  0  0  0  0  0  0999 V2000
   42.1202    3.7678   29.2972 C   0  0  0  0  0  0  0  0  0  0  0  0
   42.0577    2.8930   28.1502 O   0  0  0  0  0  0  0  0  0  0  0  0
   42.7875    2.9872   30.4279 C   0  0  0  0  0  0  0  0  0  0  0  0
   41.8163    2.7748   31.4674 O   0  0  0  0  0  0  0  0  0  0  0  0
   43.2046    1.6557   29.7819 C   0  0  0  0  0  0  0  0  0  0  0  0
   42.9037    0.5824   30.6615 O   0  0  0  0  0  0  0  0  0  0  0  0
   42.2533    1.5407   28.6078 C   0  0  0  0  0  0  0  0  0  0  0  0
   41.0424    2.3206   31.0990 H   0  0  0  0  0  0  0  0  0  0  0  0
   41.9613    0.6062   30.8901 H   0  0  0  0  0  0  0  0  0  0  0  0
   42.7871    0.7889   27.4687 N   0  0  0  0  0  0  0  0  0  0  0  0
   42.0808    0.7324   26.2030 C   0  0  0  0  0  0  0  0  0  0  0  0
   42.8139   -0.3267   25.5162 N   0  0  0  0  0  0  0  0  0  0  0  0
   42.4373   -0.7474   24.1389 C   0  0  0  0  0  0  0  0  0  0  0  0
   43.8265   -0.7756   26.2762 C   0  0  0  0  0  0  0  0  0  0  0  0
   44.8030   -1.7460   26.0526 C   0  0  0  0  0  0  0  0  0  0  0  0
   44.9335   -2.4423   25.0462 O   0  0  0  0  0  0  0  0  0  0  0  0
   45.6950   -1.9050   27.1280 N   0  0  0  0  0  0  0  0  0  0  0  0
   45.6195   -1.1662   28.2853 C   0  0  0  0  0  0  0  0  0  0  0  0
   46.5273   -1.4058   29.2273 N   0  0  0  0  0  0  0  0  0  0  0  0
   44.6847   -0.2300   28.5031 N   0  0  0  0  0  0  0  0  0  0  0  0
   43.8370   -0.0786   27.4787 C   0  0  0  0  0  0  0  0  0  0  0  0
   46.4087   -2.5784   27.0485 H   0  0  0  0  0  0  0  0  0  0  0  0
   47.2196   -2.0904   29.0810 H   0  0  0  0  0  0  0  0  0  0  0  0
   46.5070   -0.8987   30.0708 H   0  0  0  0  0  0  0  0  0  0  0  0
   43.0580    4.8619   28.8270 C   0  0  0  0  0  0  0  0  0  0  0  0
   44.2459    4.8744   29.5979 O   0  0  0  0  0  0  0  0  0  0  0  0
   44.6290    6.1966   30.4027 P   0  0  0  0  0  0  0  0  0  0  0  0
   44.6817    5.9562   31.8601 O   0  0  0  0  0  0  0  0  0  0  0  0
   45.7943    6.7806   29.7020 O   0  0  0  0  0  0  0  0  0  0  0  0
   46.0697    7.5932   30.1543 H   0  0  0  0  0  0  0  0  0  0  0  0
   43.2667    7.0338   30.1871 O   0  0  0  0  0  0  0  0  0  0  0  0
   43.0772    8.5879   30.5081 P   0  0  0  0  0  0  0  0  0  0  0  0
   44.1031    9.4630   29.8867 O   0  0  0  0  0  0  0  0  0  0  0  0
   43.0988    8.6537   32.1002 O   0  0  0  0  0  0  0  0  0  0  0  0
   41.6641    8.9262   29.9968 O   0  0  0  0  0  0  0  0  0  0  0  0
   43.9892    8.4405   32.4206 H   0  0  0  0  0  0  0  0  0  0  0  0
   41.6526    8.8857   29.0278 H   0  0  0  0  0  0  0  0  0  0  0  0
 27 28  2  0  0  0
 27 29  1  0  0  0
 27 31  1  0  0  0
 27 26  1  0  0  0
 31 32  1  0  0  0
 26 25  1  0  0  0
 32 33  2  0  0  0
 32 34  1  0  0  0
 32 35  1  0  0  0
 25  1  1  0  0  0
  1  2  1  0  0  0
  1  3  1  0  0  0
  2  7  1  0  0  0
  3  4  1  0  0  0
  3  5  1  0  0  0
  5  6  1  0  0  0
  5  7  1  0  0  0
  7 10  1  0  0  0
 10 11  1  0  0  0
 10 21  1  0  0  0
 11 12  1  0  0  0
 12 13  1  0  0  0
 12 14  1  0  0  0
 14 15  1  0  0  0
 14 21  2  0  0  0
 15 16  2  0  0  0
 15 17  1  0  0  0
 17 18  1  0  0  0
 18 19  1  0  0  0
 18 20  2  0  0  0
 20 21  1  0  0  0
 29 30  1  0  0  0
 34 36  1  0  0  0
 35 37  1  0  0  0
  4  8  1  0  0  0
  6  9  1  0  0  0
 17 22  1  0  0  0
 19 23  1  0  0  0
 19 24  1  0  0  0
M  END
> <minimizedAffinity>
-9.19003

$$$$
5BV3_M7G_A_401


 37 39  0  0  0  0  0  0  0  0999 V2000
   43.5276    0.1093   32.0282 C   0  0  0  0  0  0  0  0  0  0  0  0
   42.8847   -0.9018   32.8339 O   0  0  0  0  0  0  0  0  0  0  0  0
   42.5292    0.5369   30.9542 C   0  0  0  0  0  0  0  0  0  0  0  0
   43.0382    0.1276   29.6727 O   0  0  0  0  0  0  0  0  0  0  0  0
   41.2392   -0.2230   31.3041 C   0  0  0  0  0  0  0  0  0  0  0  0
   40.6555   -0.7451   30.1196 O   0  0  0  0  0  0  0  0  0  0  0  0
   41.7530   -1.4068   32.0987 C   0  0  0  0  0  0  0  0  0  0  0  0
   43.2003   -0.8287   29.6797 H   0  0  0  0  0  0  0  0  0  0  0  0
   41.3023   -1.3020   29.6588 H   0  0  0  0  0  0  0  0  0  0  0  0
   40.8081   -1.9237   33.0925 N   0  0  0  0  0  0  0  0  0  0  0  0
   40.2535   -3.2597   32.9843 C   0  0  0  0  0  0  0  0  0  0  0  0
   39.1899   -3.2069   33.9829 N   0  0  0  0  0  0  0  0  0  0  0  0
   38.3203   -4.3880   34.2362 C   0  0  0  0  0  0  0  0  0  0  0  0
   39.1767   -2.0150   34.6025 C   0  0  0  0  0  0  0  0  0  0  0  0
   38.3773   -1.5024   35.6240 C   0  0  0  0  0  0  0  0  0  0  0  0
   37.4505   -2.0777   36.1939 O   0  0  0  0  0  0  0  0  0  0  0  0
   38.7073   -0.1853   35.9896 N   0  0  0  0  0  0  0  0  0  0  0  0
   39.7284    0.5259   35.4044 C   0  0  0  0  0  0  0  0  0  0  0  0
   39.9462    1.7622   35.8438 N   0  0  0  0  0  0  0  0  0  0  0  0
   40.5016    0.0359   34.4247 N   0  0  0  0  0  0  0  0  0  0  0  0
   40.1875   -1.2180   34.0782 C   0  0  0  0  0  0  0  0  0  0  0  0
   38.1813    0.2491   36.6995 H   0  0  0  0  0  0  0  0  0  0  0  0
   39.3862    2.1349   36.5626 H   0  0  0  0  0  0  0  0  0  0  0  0
   40.6674    2.3046   35.4501 H   0  0  0  0  0  0  0  0  0  0  0  0
   43.7158    1.2459   33.0133 C   0  0  0  0  0  0  0  0  0  0  0  0
   43.1196    2.4363   32.5307 O   0  0  0  0  0  0  0  0  0  0  0  0
   42.2616    3.3307   33.5340 P   0  0  0  0  0  0  0  0  0  0  0  0
   40.9195    3.6299   32.9919 O   0  0  0  0  0  0  0  0  0  0  0  0
   42.4032    2.7033   34.8667 O   0  0  0  0  0  0  0  0  0  0  0  0
   41.8967    3.2121   35.5190 H   0  0  0  0  0  0  0  0  0  0  0  0
   43.0665    4.7218   33.3923 O   0  0  0  0  0  0  0  0  0  0  0  0
   43.3437    5.4928   32.0200 P   0  0  0  0  0  0  0  0  0  0  0  0
   44.7819    5.7396   31.7453 O   0  0  0  0  0  0  0  0  0  0  0  0
   42.5073    6.8415   32.1647 O   0  0  0  0  0  0  0  0  0  0  0  0
   42.7074    4.6049   30.9341 O   0  0  0  0  0  0  0  0  0  0  0  0
   42.9093    7.3994   32.8488 H   0  0  0  0  0  0  0  0  0  0  0  0
   43.2176    3.7845   30.8472 H   0  0  0  0  0  0  0  0  0  0  0  0
 27 28  2  0  0  0
 27 29  1  0  0  0
 27 31  1  0  0  0
 27 26  1  0  0  0
 31 32  1  0  0  0
 26 25  1  0  0  0
 32 33  2  0  0  0
 32 34  1  0  0  0
 32 35  1  0  0  0
 25  1  1  0  0  0
  1  2  1  0  0  0
  1  3  1  0  0  0
  2  7  1  0  0  0
  3  4  1  0  0  0
  3  5  1  0  0  0
  5  6  1  0  0  0
  5  7  1  0  0  0
  7 10  1  0  0  0
 10 11  1  0  0  0
 10 21  1  0  0  0
 11 12  1  0  0  0
 12 13  1  0  0  0
 12 14  1  0  0  0
 14 15  1  0  0  0
 14 21  2  0  0  0
 15 16  2  0  0  0
 15 17  1  0  0  0
 17 18  1  0  0  0
 18 19  1  0  0  0
 18 20  2  0  0  0
 20 21  1  0  0  0
 29 30  1  0  0  0
 34 36  1  0  0  0
 35 37  1  0  0  0
  4  8  1  0  0  0
  6  9  1  0  0  0
 17 22  1  0  0  0
 19 23  1  0  0  0
 19 24  1  0  0  0
M  END
> <minimizedAffinity>
-9.01244

$$$$
