5BV3_M7G_A_401
  RCSB PDB12061716593D
Coordinates from PDB:5BV3:A:401 Model:1 without hydrogens
 29 31  0  0  0  0            999 V2000
   43.2580    5.5180   31.9310   P 0  0  0  0  0  0  0  0  0  0  0  0
   44.7110    5.7820   31.8700   O 0  0  0  0  0  0  0  0  0  0  0  0
   42.3460    6.5110   32.5410   O 0  0  0  0  0  0  0  0  0  0  0  0
   43.1480    4.0530   32.5980   O 0  0  0  0  0  0  0  0  0  0  0  0
   42.6550    5.1890   30.4920   O 0  0  0  0  0  0  0  0  0  0  0  0
   42.2330    3.6760   33.8530   P 0  0  0  0  0  0  0  0  0  0  0  0
   40.7760    3.8110   33.6010   O 0  0  0  0  0  0  0  0  0  0  0  0
   42.7480    4.6480   35.0060   O 0  0  0  0  0  0  0  0  0  0  0  0
   42.6130    2.2230   34.1950   O 0  0  0  0  0  0  0  0  0  0  0  0
   43.1350    4.0560   29.7910   C 0  0  0  0  0  0  0  0  0  0  0  0
   42.0020    3.3360   29.0870   C 0  0  0  0  0  0  0  0  0  0  0  0
   42.7030    2.4550   28.1830   O 0  0  0  0  0  0  0  0  0  0  0  0
   41.2630    2.4580   30.0950   C 0  0  0  0  0  0  0  0  0  0  0  0
   39.8490    2.6200   29.8870   O 0  0  0  0  0  0  0  0  0  0  0  0
   41.7100    1.0260   29.7580   C 0  0  0  0  0  0  0  0  0  0  0  0
   40.5900    0.1540   29.7960   O 0  0  0  0  0  0  0  0  0  0  0  0
   42.1290    1.1390   28.3060   C 0  0  0  0  0  0  0  0  0  0  0  0
   43.1710    0.1910   27.9020   N 0  0  0  0  0  0  0  0  0  0  0  0
   44.3220   -0.0710   28.7450   C 0  0  0  0  0  0  0  0  0  0  0  0
   45.1820   -0.8130   27.8280   N 0  0  0  0  0  0  0  0  0  0  0  0
   46.5160   -1.3090   28.2640   C 0  0  0  0  0  0  0  0  0  0  0  0
   44.5770   -0.9850   26.6410   C 0  0  0  0  0  0  0  0  0  0  0  0
   44.9780   -1.6350   25.4740   C 0  0  0  0  0  0  0  0  0  0  0  0
   46.0480   -2.2120   25.2820   O 0  0  0  0  0  0  0  0  0  0  0  0
   44.0220   -1.5830   24.4440   N 0  0  0  0  0  0  0  0  0  0  0  0
   42.8030   -0.9610   24.5780   C 0  0  0  0  0  0  0  0  0  0  0  0
   41.9820   -0.9870   23.5320   N 0  0  0  0  0  0  0  0  0  0  0  0
   42.4120   -0.3380   25.6990   N 0  0  0  0  0  0  0  0  0  0  0  0
   43.3220   -0.3890   26.6790   C 0  0  0  0  0  0  0  0  0  0  0  0
  1  2  2  0  0  0  0
  1  3  1  0  0  0  0
  1  4  1  0  0  0  0
  1  5  1  0  0  0  0
  4  6  1  0  0  0  0
  5 10  1  0  0  0  0
  6  7  2  0  0  0  0
  6  8  1  0  0  0  0
  6  9  1  0  0  0  0
 10 11  1  0  0  0  0
 11 12  1  0  0  0  0
 11 13  1  0  0  0  0
 12 17  1  0  0  0  0
 13 14  1  0  0  0  0
 13 15  1  0  0  0  0
 15 16  1  0  0  0  0
 15 17  1  0  0  0  0
 17 18  1  0  0  0  0
 18 19  1  0  0  0  0
 18 29  1  0  0  0  0
 19 20  1  0  0  0  0
 20 21  1  0  0  0  0
 20 22  1  0  0  0  0
 22 23  1  0  0  0  0
 22 29  2  0  0  0  0
 23 24  2  0  0  0  0
 23 25  1  0  0  0  0
 25 26  1  0  0  0  0
 26 27  1  0  0  0  0
 26 28  2  0  0  0  0
 28 29  1  0  0  0  0
A    1
PA
A    2
O1A
A    3
O2A
A    4
O3A
A    5
O5'
A    6
PB
A    7
O1B
A    8
O2B
A    9
O3B
A   10
C5'
A   11
C4'
A   12
O4'
A   13
C3'
A   14
O3'
A   15
C2'
A   16
O2'
A   17
C1'
A   18
N9
A   19
C8
A   20
N7
A   21
CM7
A   22
C5
A   23
C6
A   24
O6
A   25
N1
A   26
C2
A   27
N2
A   28
N3
A   29
C4
M  END
>  <InstanceId>
5BV3_M7G_A_401

>  <ChemCompId>
M7G

>  <PdbId>
5BV3

>  <ChainId>
A

>  <ResidueNumber>
401

>  <InsertionCode>


>  <Model>
1

>  <AltIds>


>  <MissingHeavyAtoms>
0

>  <ObservedFormula>
C11 N5 O11 P2

>  <Name>
7N-METHYL-8-HYDROGUANOSINE-5'-DIPHOSPHATE

>  <SystematicName>
[(2R,3S,4R,5R)-5-(2-amino-7-methyl-6-oxo-1,8-dihydropurin-9-yl)-3,4-dihydroxy-oxolan-2-yl]methyl phosphono hydrogen phosphate

>  <Synonyms>


>  <Type>
NON-POLYMER

>  <Formula>
C11 H19 N5 O11 P2

>  <MolecularWeight>
459.243

>  <ModifiedDate>
2011-06-04

>  <Parent>


>  <OneLetterCode>


>  <SubcomponentList>


>  <AmbiguousFlag>
N

>  <InChI>
InChI=1S/C11H19N5O11P2/c1-15-3-16(8-5(15)9(19)14-11(12)13-8)10-7(18)6(17)4(26-10)2-25-29(23,24)27-28(20,21)22/h4,6-7,10,17-18H,2-3H2,1H3,(H,23,24)(H2,20,21,22)(H3,12,13,14,19)/t4-,6-,7-,10-/m1/s1

>  <InChIKey>
QQODJOAVWUWVHJ-KQYNXXCUSA-N

>  <SMILES>
CN1CN(C2=C1C(=O)NC(=N2)N)[C@H]3[C@@H]([C@@H]([C@H](O3)CO[P@](=O)(O)OP(=O)(O)O)O)O

$$$$
