1O5C_CR9_B_251
  RCSB PDB12061703303D
Coordinates from PDB:1O5C:B:251 Model:1 without hydrogens
 28 31  0  0  0  0            999 V2000
    9.0020    1.4910   24.6770   C 0  0  0  0  0  0  0  0  0  0  0  0
    9.8640    1.3400   23.5390   C 0  0  0  0  0  0  0  0  0  0  0  0
   10.1700    0.1120   23.0300   F 0  0  0  0  0  0  0  0  0  0  0  0
   10.4530    2.4210   22.8940   C 0  0  0  0  0  0  0  0  0  0  0  0
   10.1720    3.6340   23.4030   C 0  0  0  0  0  0  0  0  0  0  0  0
    9.3730    3.8380   24.4630   C 0  0  0  0  0  0  0  0  0  0  0  0
    8.7640    2.8120   25.1330   C 0  0  0  0  0  0  0  0  0  0  0  0
    8.4260    0.3820   25.3370   C 0  0  0  0  0  0  0  0  0  0  0  0
    8.1470    0.4560   26.6070   N 0  0  0  0  0  0  0  0  0  0  0  0
    8.1560   -0.7490   24.7410   N 0  3  0  0  0  0  0  0  0  0  0  0
   10.5870    4.7790   23.0070   N 0  0  0  0  0  0  0  0  0  0  0  0
    9.2530    5.1110   24.7770   N 0  0  0  0  0  0  0  0  0  0  0  0
   10.0320    5.6180   23.8310   C 0  0  0  0  0  0  0  0  0  0  0  0
   10.2680    7.0030   23.7360   C 0  0  0  0  0  0  0  0  0  0  0  0
    9.8850    7.8860   24.7700   C 0  0  0  0  0  0  0  0  0  0  0  0
   10.1310    9.2490   24.7030   C 0  0  0  0  0  0  0  0  0  0  0  0
   10.7630    9.7800   23.5950   C 0  0  0  0  0  0  0  0  0  0  0  0
   11.1590    8.9310   22.5420   C 0  0  0  0  0  0  0  0  0  0  0  0
   10.9110    7.5780   22.6150   C 0  0  0  0  0  0  0  0  0  0  0  0
   11.3330    6.8450   21.5280   O 0  5  0  0  0  0  0  0  0  0  0  0
   11.8250    9.3430   21.3970   O 0  0  0  0  0  0  0  0  0  0  0  0
   12.1860   11.6150   20.7560   C 0  0  0  0  0  0  0  0  0  0  0  0
   13.0180   11.7970   19.4910   C 0  0  0  0  0  0  0  0  0  0  0  0
   14.4610   12.1430   19.8460   C 0  0  0  0  0  0  0  0  0  0  0  0
   14.9590   11.3970   21.0940   C 0  0  0  0  0  0  0  0  0  0  0  0
   14.1580   10.0860   21.2660   C 0  0  0  0  0  0  0  0  0  0  0  0
   12.7110   10.4360   21.5990   C 0  0  0  0  0  0  0  0  0  0  0  0
   10.7240   11.3220   20.3660   C 0  0  0  0  0  0  0  0  0  0  0  0
  1  2  2  0  0  0  0
  1  7  1  0  0  0  0
  1  8  1  0  0  0  0
  2  3  1  0  0  0  0
  2  4  1  0  0  0  0
  4  5  2  0  0  0  0
  5  6  1  0  0  0  0
  5 11  1  0  0  0  0
  6  7  2  0  0  0  0
  6 12  1  0  0  0  0
  8  9  1  0  0  0  0
  8 10  2  0  0  0  0
 11 13  1  0  0  0  0
 12 13  2  0  0  0  0
 13 14  1  0  0  0  0
 14 15  2  0  0  0  0
 14 19  1  0  0  0  0
 15 16  1  0  0  0  0
 16 17  2  0  0  0  0
 17 18  1  0  0  0  0
 18 19  2  0  0  0  0
 18 21  1  0  0  0  0
 19 20  1  0  0  0  0
 21 27  1  0  0  0  0
 22 23  1  0  0  0  0
 22 27  1  0  0  0  0
 22 28  1  0  0  0  0
 23 24  1  0  0  0  0
 24 25  1  0  0  0  0
 25 26  1  0  0  0  0
 26 27  1  0  0  0  0
M  CHG  2  10   1  20  -1
A    1
C1
A    2
C2
A    3
F2
A    4
C3
A    5
C4
A    6
C5
A    7
C6
A    8
C7
A    9
N1
A   10
N2
A   11
N3
A   12
N4
A   13
C8
A   14
C1'
A   15
C2'
A   16
C3'
A   17
C4'
A   18
C5'
A   19
C6'
A   20
O6'
A   21
O5'
A   22
C1B
A   23
C2B
A   24
C3B
A   25
C4B
A   26
C5B
A   27
C6B
A   28
C1A
M  END
>  <InstanceId>
1O5C_CR9_B_251

>  <ChemCompId>
CR9

>  <PdbId>
1O5C

>  <ChainId>
B

>  <ResidueNumber>
251

>  <InsertionCode>


>  <Model>
1

>  <AltIds>


>  <MissingHeavyAtoms>
0

>  <ObservedFormula>
C21 N4 O2 F

>  <Name>
2-{5-[AMINO(IMINIO)METHYL]-6-FLUORO-1H-BENZIMIDAZOL-2-YL}-6-[(2-METHYLCYCLOHEXYL)OXY]BENZENOLATE

>  <SystematicName>
2-[5-(amino-azaniumylidene-methyl)-6-fluoro-1H-benzimidazol-2-yl]-6-[(1S,2S)-2-methylcyclohexyl]oxy-phenolate

>  <Synonyms>
CRA_11092

>  <Type>
NON-POLYMER

>  <Formula>
C21 H23 F N4 O2

>  <MolecularWeight>
382.431

>  <ModifiedDate>
2011-06-04

>  <Parent>


>  <OneLetterCode>


>  <SubcomponentList>


>  <AmbiguousFlag>
N

>  <InChI>
InChI=1S/C21H23FN4O2/c1-11-5-2-3-7-17(11)28-18-8-4-6-12(19(18)27)21-25-15-9-13(20(23)24)14(22)10-16(15)26-21/h4,6,8-11,17,27H,2-3,5,7H2,1H3,(H3,23,24)(H,25,26)/t11-,17-/m0/s1

>  <InChIKey>
CMCDWLMEDRBWIR-GTNSWQLSSA-N

>  <SMILES>
C[C@H]1CCCC[C@@H]1Oc2cccc(c2[O-])c3[nH]c4cc(c(cc4n3)C(=[NH2+])N)F

$$$$
