1O5C_CR9_B_251


 33 36  0  0  0  0  0  0  0  0999 V2000
    8.6817    0.4901   24.9250 C   0  0  0  0  0  0  0  0  0  0  0  0
    9.0389    0.4915   23.5345 C   0  0  0  0  0  0  0  0  0  0  0  0
    9.1291   -0.6651   22.8169 F   0  0  0  0  0  0  0  0  0  0  0  0
    9.3301    1.6564   22.8348 C   0  0  0  0  0  0  0  0  0  0  0  0
    9.2631    2.7992   23.5413 C   0  0  0  0  0  0  0  0  0  0  0  0
    8.9338    2.8610   24.8418 C   0  0  0  0  0  0  0  0  0  0  0  0
    8.6336    1.7473   25.5781 C   0  0  0  0  0  0  0  0  0  0  0  0
    9.4895    3.9953   23.1436 N   0  0  0  0  0  0  0  0  0  0  0  0
    8.9399    4.0899   25.3143 N   0  0  0  0  0  0  0  0  0  0  0  0
    9.2923    4.7227   24.2033 C   0  0  0  0  0  0  0  0  0  0  0  0
    9.7523    4.2949   22.2434 H   0  0  0  0  0  0  0  0  0  0  0  0
    8.4083   -0.7036   25.6304 C   0  0  0  0  0  0  0  0  0  0  0  0
    8.5164   -1.8529   25.0272 N   0  0  0  0  0  0  0  0  0  0  0  0
    8.0341   -0.7298   26.8820 N   0  0  0  0  0  0  0  0  0  0  0  0
    8.7950   -1.8893   24.0837 H   0  0  0  0  0  0  0  0  0  0  0  0
    8.3195   -2.6852   25.5148 H   0  0  0  0  0  0  0  0  0  0  0  0
    7.9369    0.1113   27.3844 H   0  0  0  0  0  0  0  0  0  0  0  0
    7.8494   -1.5906   27.3226 H   0  0  0  0  0  0  0  0  0  0  0  0
    9.4689    6.1195   24.1764 C   0  0  0  0  0  0  0  0  0  0  0  0
    8.4469    6.9973   24.6012 C   0  0  0  0  0  0  0  0  0  0  0  0
    8.6127    8.3740   24.6034 C   0  0  0  0  0  0  0  0  0  0  0  0
    9.8052    8.9237   24.1734 C   0  0  0  0  0  0  0  0  0  0  0  0
   10.8482    8.0802   23.7406 C   0  0  0  0  0  0  0  0  0  0  0  0
   10.6764    6.7135   23.7406 C   0  0  0  0  0  0  0  0  0  0  0  0
   11.7563    5.9867   23.2907 O   0  0  0  0  0  0  0  0  0  0  0  0
   12.0959    8.5132   23.3165 O   0  0  0  0  0  0  0  0  0  0  0  0
   13.6799    8.6444   21.5341 C   0  0  0  0  0  0  0  0  0  0  0  0
   14.2789   10.0293   21.3129 C   0  0  0  0  0  0  0  0  0  0  0  0
   13.5891   10.7293   20.1457 C   0  0  0  0  0  0  0  0  0  0  0  0
   12.0824   10.4322   20.0838 C   0  0  0  0  0  0  0  0  0  0  0  0
   11.5691   10.0692   21.4962 C   0  0  0  0  0  0  0  0  0  0  0  0
   12.1897    8.7405   21.9165 C   0  0  0  0  0  0  0  0  0  0  0  0
   14.4327    7.9414   22.6806 C   0  0  0  0  0  0  0  0  0  0  0  0
  1  2  2  0  0  0
  1  7  1  0  0  0
  1 12  1  0  0  0
  2  3  1  0  0  0
  2  4  1  0  0  0
  4  5  2  0  0  0
  5  6  1  0  0  0
  5  8  1  0  0  0
  6  7  2  0  0  0
  6  9  1  0  0  0
 12 13  1  0  0  0
 12 14  2  0  0  0
  8 10  1  0  0  0
  9 10  2  0  0  0
 10 19  1  0  0  0
 19 20  2  0  0  0
 19 24  1  0  0  0
 20 21  1  0  0  0
 21 22  2  0  0  0
 22 23  1  0  0  0
 23 24  2  0  0  0
 23 26  1  0  0  0
 24 25  1  0  0  0
 26 32  1  0  0  0
 27 28  1  0  0  0
 27 32  1  0  0  0
 27 33  1  0  0  0
 28 29  1  0  0  0
 29 30  1  0  0  0
 30 31  1  0  0  0
 31 32  1  0  0  0
 13 15  1  0  0  0
 13 16  1  0  0  0
 14 17  1  0  0  0
 14 18  1  0  0  0
  8 11  1  0  0  0
M  CHG 1  14   1
M  CHG 1  25  -1
M  END
> <minimizedAffinity>
-10.02644

$$$$
1O5C_CR9_B_251


 33 36  0  0  0  0  0  0  0  0999 V2000
    8.8188    0.6096   24.2693 C   0  0  0  0  0  0  0  0  0  0  0  0
    8.7398    1.0341   25.6384 C   0  0  0  0  0  0  0  0  0  0  0  0
    8.5512    0.1440   26.6547 F   0  0  0  0  0  0  0  0  0  0  0  0
    8.8327    2.3678   26.0180 C   0  0  0  0  0  0  0  0  0  0  0  0
    8.9984    3.2534   25.0192 C   0  0  0  0  0  0  0  0  0  0  0  0
    9.0806    2.9169   23.7217 C   0  0  0  0  0  0  0  0  0  0  0  0
    9.0000    1.6202   23.2919 C   0  0  0  0  0  0  0  0  0  0  0  0
    9.1026    4.5276   25.0943 N   0  0  0  0  0  0  0  0  0  0  0  0
    9.2382    3.9578   22.9311 N   0  0  0  0  0  0  0  0  0  0  0  0
    9.2407    4.9063   23.8580 C   0  0  0  0  0  0  0  0  0  0  0  0
    9.0826    5.0906   25.9018 H   0  0  0  0  0  0  0  0  0  0  0  0
    8.7018   -0.7480   23.8946 C   0  0  0  0  0  0  0  0  0  0  0  0
    8.4869   -1.0609   22.6487 N   0  0  0  0  0  0  0  0  0  0  0  0
    8.7881   -1.7382   24.7427 N   0  0  0  0  0  0  0  0  0  0  0  0
    8.4134   -0.3526   21.9689 H   0  0  0  0  0  0  0  0  0  0  0  0
    8.3979   -2.0057   22.3868 H   0  0  0  0  0  0  0  0  0  0  0  0
    8.9497   -1.5566   25.6967 H   0  0  0  0  0  0  0  0  0  0  0  0
    8.6915   -2.6660   24.4276 H   0  0  0  0  0  0  0  0  0  0  0  0
    9.3639    6.2672   23.5180 C   0  0  0  0  0  0  0  0  0  0  0  0
    8.2280    7.0958   23.3808 C   0  0  0  0  0  0  0  0  0  0  0  0
    8.3326    8.4430   23.0697 C   0  0  0  0  0  0  0  0  0  0  0  0
    9.5780    9.0095   22.8770 C   0  0  0  0  0  0  0  0  0  0  0  0
   10.7350    8.2147   23.0039 C   0  0  0  0  0  0  0  0  0  0  0  0
   10.6236    6.8769   23.3127 C   0  0  0  0  0  0  0  0  0  0  0  0
   11.8167    6.1948   23.4039 O   0  0  0  0  0  0  0  0  0  0  0  0
   12.0355    8.6766   22.8633 O   0  0  0  0  0  0  0  0  0  0  0  0
   13.9712    8.8391   21.4742 C   0  0  0  0  0  0  0  0  0  0  0  0
   14.5750   10.2364   21.3814 C   0  0  0  0  0  0  0  0  0  0  0  0
   14.1457   10.9187   20.0860 C   0  0  0  0  0  0  0  0  0  0  0  0
   12.6967   10.5883   19.6946 C   0  0  0  0  0  0  0  0  0  0  0  0
   11.8916   10.2169   20.9610 C   0  0  0  0  0  0  0  0  0  0  0  0
   12.4316    8.9030   21.5171 C   0  0  0  0  0  0  0  0  0  0  0  0
   14.4665    8.1552   22.7636 C   0  0  0  0  0  0  0  0  0  0  0  0
  1  2  2  0  0  0
  1  7  1  0  0  0
  1 12  1  0  0  0
  2  3  1  0  0  0
  2  4  1  0  0  0
  4  5  2  0  0  0
  5  6  1  0  0  0
  5  8  1  0  0  0
  6  7  2  0  0  0
  6  9  1  0  0  0
 12 13  1  0  0  0
 12 14  2  0  0  0
  8 10  1  0  0  0
  9 10  2  0  0  0
 10 19  1  0  0  0
 19 20  2  0  0  0
 19 24  1  0  0  0
 20 21  1  0  0  0
 21 22  2  0  0  0
 22 23  1  0  0  0
 23 24  2  0  0  0
 23 26  1  0  0  0
 24 25  1  0  0  0
 26 32  1  0  0  0
 27 28  1  0  0  0
 27 32  1  0  0  0
 27 33  1  0  0  0
 28 29  1  0  0  0
 29 30  1  0  0  0
 30 31  1  0  0  0
 31 32  1  0  0  0
 13 15  1  0  0  0
 13 16  1  0  0  0
 14 17  1  0  0  0
 14 18  1  0  0  0
  8 11  1  0  0  0
M  CHG 1  14   1
M  CHG 1  25  -1
M  END
> <minimizedAffinity>
-9.61343

$$$$
1O5C_CR9_B_251


 33 36  0  0  0  0  0  0  0  0999 V2000
    8.8923    0.7238   24.3080 C   0  0  0  0  0  0  0  0  0  0  0  0
    8.7793    1.1254   25.6816 C   0  0  0  0  0  0  0  0  0  0  0  0
    8.4849    0.2302   26.6679 F   0  0  0  0  0  0  0  0  0  0  0  0
    8.9440    2.4419   26.0954 C   0  0  0  0  0  0  0  0  0  0  0  0
    9.2144    3.3338   25.1255 C   0  0  0  0  0  0  0  0  0  0  0  0
    9.3334    3.0183   23.8256 C   0  0  0  0  0  0  0  0  0  0  0  0
    9.1857    1.7389   23.3630 C   0  0  0  0  0  0  0  0  0  0  0  0
    9.4004    4.5962   25.2344 N   0  0  0  0  0  0  0  0  0  0  0  0
    9.5966    4.0616   23.0668 N   0  0  0  0  0  0  0  0  0  0  0  0
    9.6203    4.9891   24.0144 C   0  0  0  0  0  0  0  0  0  0  0  0
    9.3813    5.1431   26.0528 H   0  0  0  0  0  0  0  0  0  0  0  0
    8.7017   -0.6150   23.8974 C   0  0  0  0  0  0  0  0  0  0  0  0
    8.4254   -0.8786   22.6523 N   0  0  0  0  0  0  0  0  0  0  0  0
    8.7775   -1.6345   24.7111 N   0  0  0  0  0  0  0  0  0  0  0  0
    8.3566   -0.1465   21.9977 H   0  0  0  0  0  0  0  0  0  0  0  0
    8.2852   -1.8100   22.3657 H   0  0  0  0  0  0  0  0  0  0  0  0
    8.9837   -1.4905   25.6629 H   0  0  0  0  0  0  0  0  0  0  0  0
    8.6284   -2.5468   24.3723 H   0  0  0  0  0  0  0  0  0  0  0  0
    9.8500    6.3450   23.7114 C   0  0  0  0  0  0  0  0  0  0  0  0
    8.8278    7.3108   23.8447 C   0  0  0  0  0  0  0  0  0  0  0  0
    9.0435    8.6534   23.5733 C   0  0  0  0  0  0  0  0  0  0  0  0
   10.2886    9.0781   23.1512 C   0  0  0  0  0  0  0  0  0  0  0  0
   11.3337    8.1438   23.0048 C   0  0  0  0  0  0  0  0  0  0  0  0
   11.1122    6.8116   23.2757 C   0  0  0  0  0  0  0  0  0  0  0  0
   12.1999    5.9870   23.0917 O   0  0  0  0  0  0  0  0  0  0  0  0
   12.6290    8.4550   22.6181 O   0  0  0  0  0  0  0  0  0  0  0  0
   13.4593   10.4676   21.6366 C   0  0  0  0  0  0  0  0  0  0  0  0
   14.9783   10.5442   21.5251 C   0  0  0  0  0  0  0  0  0  0  0  0
   15.5545   11.3934   22.6542 C   0  0  0  0  0  0  0  0  0  0  0  0
   14.8057   11.1997   23.9823 C   0  0  0  0  0  0  0  0  0  0  0  0
   14.1383    9.8054   24.0003 C   0  0  0  0  0  0  0  0  0  0  0  0
   13.0346    9.7768   22.9476 C   0  0  0  0  0  0  0  0  0  0  0  0
   12.9026    9.6515   20.4536 C   0  0  0  0  0  0  0  0  0  0  0  0
  1  2  2  0  0  0
  1  7  1  0  0  0
  1 12  1  0  0  0
  2  3  1  0  0  0
  2  4  1  0  0  0
  4  5  2  0  0  0
  5  6  1  0  0  0
  5  8  1  0  0  0
  6  7  2  0  0  0
  6  9  1  0  0  0
 12 13  1  0  0  0
 12 14  2  0  0  0
  8 10  1  0  0  0
  9 10  2  0  0  0
 10 19  1  0  0  0
 19 20  2  0  0  0
 19 24  1  0  0  0
 20 21  1  0  0  0
 21 22  2  0  0  0
 22 23  1  0  0  0
 23 24  2  0  0  0
 23 26  1  0  0  0
 24 25  1  0  0  0
 26 32  1  0  0  0
 27 28  1  0  0  0
 27 32  1  0  0  0
 27 33  1  0  0  0
 28 29  1  0  0  0
 29 30  1  0  0  0
 30 31  1  0  0  0
 31 32  1  0  0  0
 13 15  1  0  0  0
 13 16  1  0  0  0
 14 17  1  0  0  0
 14 18  1  0  0  0
  8 11  1  0  0  0
M  CHG 1  14   1
M  CHG 1  25  -1
M  END
> <minimizedAffinity>
-9.44884

$$$$
1O5C_CR9_B_251


 33 36  0  0  0  0  0  0  0  0999 V2000
    8.8415    0.5639   24.2598 C   0  0  0  0  0  0  0  0  0  0  0  0
    8.7318    0.9981   25.6238 C   0  0  0  0  0  0  0  0  0  0  0  0
    8.4846    0.1195   26.6376 F   0  0  0  0  0  0  0  0  0  0  0  0
    8.8522    2.3305   26.0000 C   0  0  0  0  0  0  0  0  0  0  0  0
    9.0758    3.2053   25.0030 C   0  0  0  0  0  0  0  0  0  0  0  0
    9.1891    2.8593   23.7103 C   0  0  0  0  0  0  0  0  0  0  0  0
    9.0837    1.5633   23.2841 C   0  0  0  0  0  0  0  0  0  0  0  0
    9.2154    4.4763   25.0755 N   0  0  0  0  0  0  0  0  0  0  0  0
    9.4026    3.8908   22.9203 N   0  0  0  0  0  0  0  0  0  0  0  0
    9.4040    4.8439   23.8425 C   0  0  0  0  0  0  0  0  0  0  0  0
    9.1867    5.0440   25.8793 H   0  0  0  0  0  0  0  0  0  0  0  0
    8.6960   -0.7917   23.8878 C   0  0  0  0  0  0  0  0  0  0  0  0
    8.4485   -1.1010   22.6471 N   0  0  0  0  0  0  0  0  0  0  0  0
    8.7869   -1.7835   24.7336 N   0  0  0  0  0  0  0  0  0  0  0  0
    8.3701   -0.3914   21.9691 H   0  0  0  0  0  0  0  0  0  0  0  0
    8.3397   -2.0443   22.3871 H   0  0  0  0  0  0  0  0  0  0  0  0
    8.9727   -1.6046   25.6837 H   0  0  0  0  0  0  0  0  0  0  0  0
    8.6696   -2.7095   24.4208 H   0  0  0  0  0  0  0  0  0  0  0  0
    9.5783    6.1986   23.5004 C   0  0  0  0  0  0  0  0  0  0  0  0
   10.8257    6.8421   23.6607 C   0  0  0  0  0  0  0  0  0  0  0  0
   11.0207    8.1686   23.3068 C   0  0  0  0  0  0  0  0  0  0  0  0
    9.9723    8.9026   22.7861 C   0  0  0  0  0  0  0  0  0  0  0  0
    8.7121    8.2958   22.6125 C   0  0  0  0  0  0  0  0  0  0  0  0
    8.5253    6.9778   22.9667 C   0  0  0  0  0  0  0  0  0  0  0  0
    7.2537    6.4901   22.7618 O   0  0  0  0  0  0  0  0  0  0  0  0
    7.5970    8.9207   22.0737 O   0  0  0  0  0  0  0  0  0  0  0  0
    6.3206   10.8411   22.6950 C   0  0  0  0  0  0  0  0  0  0  0  0
    5.4034   11.3791   21.6019 C   0  0  0  0  0  0  0  0  0  0  0  0
    6.0391   12.5853   20.9170 C   0  0  0  0  0  0  0  0  0  0  0  0
    7.5611   12.4425   20.7590 C   0  0  0  0  0  0  0  0  0  0  0  0
    7.9391   10.9437   20.7312 C   0  0  0  0  0  0  0  0  0  0  0  0
    7.6530   10.3407   22.1029 C   0  0  0  0  0  0  0  0  0  0  0  0
    5.6290    9.6606   23.4046 C   0  0  0  0  0  0  0  0  0  0  0  0
  1  2  2  0  0  0
  1  7  1  0  0  0
  1 12  1  0  0  0
  2  3  1  0  0  0
  2  4  1  0  0  0
  4  5  2  0  0  0
  5  6  1  0  0  0
  5  8  1  0  0  0
  6  7  2  0  0  0
  6  9  1  0  0  0
 12 13  1  0  0  0
 12 14  2  0  0  0
  8 10  1  0  0  0
  9 10  2  0  0  0
 10 19  1  0  0  0
 19 20  2  0  0  0
 19 24  1  0  0  0
 20 21  1  0  0  0
 21 22  2  0  0  0
 22 23  1  0  0  0
 23 24  2  0  0  0
 23 26  1  0  0  0
 24 25  1  0  0  0
 26 32  1  0  0  0
 27 28  1  0  0  0
 27 32  1  0  0  0
 27 33  1  0  0  0
 28 29  1  0  0  0
 29 30  1  0  0  0
 30 31  1  0  0  0
 31 32  1  0  0  0
 13 15  1  0  0  0
 13 16  1  0  0  0
 14 17  1  0  0  0
 14 18  1  0  0  0
  8 11  1  0  0  0
M  CHG 1  14   1
M  CHG 1  25  -1
M  END
> <minimizedAffinity>
-9.07944

$$$$
1O5C_CR9_B_251


 33 36  0  0  0  0  0  0  0  0999 V2000
   12.7230   11.3938   20.3230 C   0  0  0  0  0  0  0  0  0  0  0  0
   13.6955   10.3514   20.4919 C   0  0  0  0  0  0  0  0  0  0  0  0
   14.9389   10.4350   19.9372 F   0  0  0  0  0  0  0  0  0  0  0  0
   13.4355    9.1905   21.2104 C   0  0  0  0  0  0  0  0  0  0  0  0
   12.2043    9.0920   21.7433 C   0  0  0  0  0  0  0  0  0  0  0  0
   11.2543   10.0332   21.6206 C   0  0  0  0  0  0  0  0  0  0  0  0
   11.4566   11.1964   20.9289 C   0  0  0  0  0  0  0  0  0  0  0  0
   11.7108    8.1339   22.4351 N   0  0  0  0  0  0  0  0  0  0  0  0
   10.1305    9.7091   22.2252 N   0  0  0  0  0  0  0  0  0  0  0  0
   10.4996    8.5267   22.6990 C   0  0  0  0  0  0  0  0  0  0  0  0
   12.1476    7.2939   22.7049 H   0  0  0  0  0  0  0  0  0  0  0  0
   12.9929   12.5602   19.5721 C   0  0  0  0  0  0  0  0  0  0  0  0
   12.3003   12.8158   18.4992 N   0  0  0  0  0  0  0  0  0  0  0  0
   13.9256   13.4191   19.8879 N   0  0  0  0  0  0  0  0  0  0  0  0
   11.5854   12.2007   18.2166 H   0  0  0  0  0  0  0  0  0  0  0  0
   12.4915   13.6241   17.9707 H   0  0  0  0  0  0  0  0  0  0  0  0
   14.4782   13.2731   20.6895 H   0  0  0  0  0  0  0  0  0  0  0  0
   14.0757   14.2122   19.3242 H   0  0  0  0  0  0  0  0  0  0  0  0
    9.6119    7.7197   23.4363 C   0  0  0  0  0  0  0  0  0  0  0  0
    8.3136    8.1678   23.7666 C   0  0  0  0  0  0  0  0  0  0  0  0
    7.4188    7.3770   24.4714 C   0  0  0  0  0  0  0  0  0  0  0  0
    7.7930    6.1107   24.8783 C   0  0  0  0  0  0  0  0  0  0  0  0
    9.0807    5.6288   24.5688 C   0  0  0  0  0  0  0  0  0  0  0  0
    9.9647    6.4200   23.8688 C   0  0  0  0  0  0  0  0  0  0  0  0
   11.1964    5.8524   23.6286 O   0  0  0  0  0  0  0  0  0  0  0  0
    9.5572    4.3680   24.8971 O   0  0  0  0  0  0  0  0  0  0  0  0
    8.3419    2.3644   25.3574 C   0  0  0  0  0  0  0  0  0  0  0  0
    9.2001    1.1090   25.4710 C   0  0  0  0  0  0  0  0  0  0  0  0
    9.1455    0.3056   24.1750 C   0  0  0  0  0  0  0  0  0  0  0  0
    9.1035    1.1995   22.9255 C   0  0  0  0  0  0  0  0  0  0  0  0
    9.7518    2.5658   23.2459 C   0  0  0  0  0  0  0  0  0  0  0  0
    8.8736    3.3005   24.2540 C   0  0  0  0  0  0  0  0  0  0  0  0
    8.3722    3.1248   26.6977 C   0  0  0  0  0  0  0  0  0  0  0  0
  1  2  2  0  0  0
  1  7  1  0  0  0
  1 12  1  0  0  0
  2  3  1  0  0  0
  2  4  1  0  0  0
  4  5  2  0  0  0
  5  6  1  0  0  0
  5  8  1  0  0  0
  6  7  2  0  0  0
  6  9  1  0  0  0
 12 13  1  0  0  0
 12 14  2  0  0  0
  8 10  1  0  0  0
  9 10  2  0  0  0
 10 19  1  0  0  0
 19 20  2  0  0  0
 19 24  1  0  0  0
 20 21  1  0  0  0
 21 22  2  0  0  0
 22 23  1  0  0  0
 23 24  2  0  0  0
 23 26  1  0  0  0
 24 25  1  0  0  0
 26 32  1  0  0  0
 27 28  1  0  0  0
 27 32  1  0  0  0
 27 33  1  0  0  0
 28 29  1  0  0  0
 29 30  1  0  0  0
 30 31  1  0  0  0
 31 32  1  0  0  0
 13 15  1  0  0  0
 13 16  1  0  0  0
 14 17  1  0  0  0
 14 18  1  0  0  0
  8 11  1  0  0  0
M  CHG 1  14   1
M  CHG 1  25  -1
M  END
> <minimizedAffinity>
-8.50944

$$$$
1O5C_CR9_B_251


 33 36  0  0  0  0  0  0  0  0999 V2000
   12.0858   10.6321   21.1828 C   0  0  0  0  0  0  0  0  0  0  0  0
   13.0166    9.5700   20.9252 C   0  0  0  0  0  0  0  0  0  0  0  0
   14.0716    9.7322   20.0758 F   0  0  0  0  0  0  0  0  0  0  0  0
   12.8999    8.3119   21.5041 C   0  0  0  0  0  0  0  0  0  0  0  0
   11.8503    8.1382   22.3272 C   0  0  0  0  0  0  0  0  0  0  0  0
   10.9485    9.0931   22.6075 C   0  0  0  0  0  0  0  0  0  0  0  0
   11.0168   10.3496   22.0699 C   0  0  0  0  0  0  0  0  0  0  0  0
   11.5114    7.0861   22.9739 N   0  0  0  0  0  0  0  0  0  0  0  0
   10.0102    8.6847   23.4360 N   0  0  0  0  0  0  0  0  0  0  0  0
   10.4338    7.4400   23.6097 C   0  0  0  0  0  0  0  0  0  0  0  0
   11.9627    6.2112   22.9868 H   0  0  0  0  0  0  0  0  0  0  0  0
   12.2038   11.9007   20.5713 C   0  0  0  0  0  0  0  0  0  0  0  0
   11.5956   12.1366   19.4440 N   0  0  0  0  0  0  0  0  0  0  0  0
   12.9115   12.8779   21.0728 N   0  0  0  0  0  0  0  0  0  0  0  0
   11.0492   11.4341   19.0231 H   0  0  0  0  0  0  0  0  0  0  0  0
   11.6824   13.0173   19.0128 H   0  0  0  0  0  0  0  0  0  0  0  0
   13.3913   12.7521   21.9232 H   0  0  0  0  0  0  0  0  0  0  0  0
   12.9649   13.7399   20.6003 H   0  0  0  0  0  0  0  0  0  0  0  0
    9.7346    6.5323   24.4284 C   0  0  0  0  0  0  0  0  0  0  0  0
    9.3093    6.8914   25.7268 C   0  0  0  0  0  0  0  0  0  0  0  0
    8.5995    6.0181   26.5368 C   0  0  0  0  0  0  0  0  0  0  0  0
    8.2953    4.7500   26.0802 C   0  0  0  0  0  0  0  0  0  0  0  0
    8.7039    4.3545   24.7906 C   0  0  0  0  0  0  0  0  0  0  0  0
    9.4092    5.2270   23.9914 C   0  0  0  0  0  0  0  0  0  0  0  0
    9.7641    4.7338   22.7554 O   0  0  0  0  0  0  0  0  0  0  0  0
    8.4320    3.1223   24.2142 O   0  0  0  0  0  0  0  0  0  0  0  0
    9.5573    1.0552   23.8096 C   0  0  0  0  0  0  0  0  0  0  0  0
    8.6386   -0.1518   23.6526 C   0  0  0  0  0  0  0  0  0  0  0  0
    8.5870   -0.9558   24.9484 C   0  0  0  0  0  0  0  0  0  0  0  0
    8.6172   -0.0644   26.2000 C   0  0  0  0  0  0  0  0  0  0  0  0
    8.0603    1.3349   25.8510 C   0  0  0  0  0  0  0  0  0  0  0  0
    9.0247    2.0198   24.8876 C   0  0  0  0  0  0  0  0  0  0  0  0
    9.6330    1.8149   22.4707 C   0  0  0  0  0  0  0  0  0  0  0  0
  1  2  2  0  0  0
  1  7  1  0  0  0
  1 12  1  0  0  0
  2  3  1  0  0  0
  2  4  1  0  0  0
  4  5  2  0  0  0
  5  6  1  0  0  0
  5  8  1  0  0  0
  6  7  2  0  0  0
  6  9  1  0  0  0
 12 13  1  0  0  0
 12 14  2  0  0  0
  8 10  1  0  0  0
  9 10  2  0  0  0
 10 19  1  0  0  0
 19 20  2  0  0  0
 19 24  1  0  0  0
 20 21  1  0  0  0
 21 22  2  0  0  0
 22 23  1  0  0  0
 23 24  2  0  0  0
 23 26  1  0  0  0
 24 25  1  0  0  0
 26 32  1  0  0  0
 27 28  1  0  0  0
 27 32  1  0  0  0
 27 33  1  0  0  0
 28 29  1  0  0  0
 29 30  1  0  0  0
 30 31  1  0  0  0
 31 32  1  0  0  0
 13 15  1  0  0  0
 13 16  1  0  0  0
 14 17  1  0  0  0
 14 18  1  0  0  0
  8 11  1  0  0  0
M  CHG 1  14   1
M  CHG 1  25  -1
M  END
> <minimizedAffinity>
-8.34802

$$$$
1O5C_CR9_B_251


 33 36  0  0  0  0  0  0  0  0999 V2000
    9.0275    5.4296   23.7020 C   0  0  0  0  0  0  0  0  0  0  0  0
    8.1766    6.5113   23.2936 C   0  0  0  0  0  0  0  0  0  0  0  0
    6.8180    6.3889   23.2818 F   0  0  0  0  0  0  0  0  0  0  0  0
    8.6724    7.7390   22.8713 C   0  0  0  0  0  0  0  0  0  0  0  0
   10.0121    7.8602   22.8610 C   0  0  0  0  0  0  0  0  0  0  0  0
   10.8582    6.8856   23.2324 C   0  0  0  0  0  0  0  0  0  0  0  0
   10.4256    5.6599   23.6604 C   0  0  0  0  0  0  0  0  0  0  0  0
   10.7172    8.8705   22.5117 N   0  0  0  0  0  0  0  0  0  0  0  0
   12.1226    7.2389   23.1325 N   0  0  0  0  0  0  0  0  0  0  0  0
   11.9437    8.4733   22.6821 C   0  0  0  0  0  0  0  0  0  0  0  0
   10.4032    9.7460   22.1888 H   0  0  0  0  0  0  0  0  0  0  0  0
    8.5112    4.1787   24.1093 C   0  0  0  0  0  0  0  0  0  0  0  0
    8.8944    3.0907   23.5046 N   0  0  0  0  0  0  0  0  0  0  0  0
    7.6420    4.0393   25.0749 N   0  0  0  0  0  0  0  0  0  0  0  0
    9.5479    3.1399   22.7700 H   0  0  0  0  0  0  0  0  0  0  0  0
    8.5305    2.2190   23.7822 H   0  0  0  0  0  0  0  0  0  0  0  0
    7.3193    4.8300   25.5647 H   0  0  0  0  0  0  0  0  0  0  0  0
    7.3098    3.1435   25.3127 H   0  0  0  0  0  0  0  0  0  0  0  0
   13.0340    9.3111   22.3783 C   0  0  0  0  0  0  0  0  0  0  0  0
   14.2117    9.2957   23.1582 C   0  0  0  0  0  0  0  0  0  0  0  0
   15.3033   10.0968   22.8592 C   0  0  0  0  0  0  0  0  0  0  0  0
   15.2539   10.9487   21.7725 C   0  0  0  0  0  0  0  0  0  0  0  0
   14.0953   10.9934   20.9711 C   0  0  0  0  0  0  0  0  0  0  0  0
   13.0145   10.1951   21.2743 C   0  0  0  0  0  0  0  0  0  0  0  0
   11.9341   10.3255   20.4301 O   0  0  0  0  0  0  0  0  0  0  0  0
   13.9407   11.7838   19.8417 O   0  0  0  0  0  0  0  0  0  0  0  0
   13.6858   14.0505   19.1345 C   0  0  0  0  0  0  0  0  0  0  0  0
   14.3236   14.3747   17.7878 C   0  0  0  0  0  0  0  0  0  0  0  0
   15.6699   15.0644   17.9867 C   0  0  0  0  0  0  0  0  0  0  0  0
   16.4501   14.5053   19.1870 C   0  0  0  0  0  0  0  0  0  0  0  0
   16.0053   13.0501   19.4596 C   0  0  0  0  0  0  0  0  0  0  0  0
   14.5559   13.0617   19.9354 C   0  0  0  0  0  0  0  0  0  0  0  0
   12.3050   13.4065   18.9020 C   0  0  0  0  0  0  0  0  0  0  0  0
  1  2  2  0  0  0
  1  7  1  0  0  0
  1 12  1  0  0  0
  2  3  1  0  0  0
  2  4  1  0  0  0
  4  5  2  0  0  0
  5  6  1  0  0  0
  5  8  1  0  0  0
  6  7  2  0  0  0
  6  9  1  0  0  0
 12 13  1  0  0  0
 12 14  2  0  0  0
  8 10  1  0  0  0
  9 10  2  0  0  0
 10 19  1  0  0  0
 19 20  2  0  0  0
 19 24  1  0  0  0
 20 21  1  0  0  0
 21 22  2  0  0  0
 22 23  1  0  0  0
 23 24  2  0  0  0
 23 26  1  0  0  0
 24 25  1  0  0  0
 26 32  1  0  0  0
 27 28  1  0  0  0
 27 32  1  0  0  0
 27 33  1  0  0  0
 28 29  1  0  0  0
 29 30  1  0  0  0
 30 31  1  0  0  0
 31 32  1  0  0  0
 13 15  1  0  0  0
 13 16  1  0  0  0
 14 17  1  0  0  0
 14 18  1  0  0  0
  8 11  1  0  0  0
M  CHG 1  14   1
M  CHG 1  25  -1
M  END
> <minimizedAffinity>
-7.95296

$$$$
1O5C_CR9_B_251


 33 36  0  0  0  0  0  0  0  0999 V2000
    8.8602    3.9945   24.9238 C   0  0  0  0  0  0  0  0  0  0  0  0
    9.0702    4.8015   26.0924 C   0  0  0  0  0  0  0  0  0  0  0  0
    9.0373    4.2675   27.3472 F   0  0  0  0  0  0  0  0  0  0  0  0
    9.3029    6.1701   26.0283 C   0  0  0  0  0  0  0  0  0  0  0  0
    9.3166    6.7073   24.7952 C   0  0  0  0  0  0  0  0  0  0  0  0
    9.1281    6.0043   23.6665 C   0  0  0  0  0  0  0  0  0  0  0  0
    8.8996    4.6551   23.6702 C   0  0  0  0  0  0  0  0  0  0  0  0
    9.4982    7.9304   24.4617 N   0  0  0  0  0  0  0  0  0  0  0  0
    9.1821    6.7502   22.5829 N   0  0  0  0  0  0  0  0  0  0  0  0
    9.4129    7.9196   23.1642 C   0  0  0  0  0  0  0  0  0  0  0  0
    9.6642    8.7009   25.0516 H   0  0  0  0  0  0  0  0  0  0  0  0
    8.6035    2.6070   25.0038 C   0  0  0  0  0  0  0  0  0  0  0  0
    8.9329    1.8282   24.0132 N   0  0  0  0  0  0  0  0  0  0  0  0
    8.0320    2.0394   26.0326 N   0  0  0  0  0  0  0  0  0  0  0  0
    9.3663    2.2052   23.2137 H   0  0  0  0  0  0  0  0  0  0  0  0
    8.7485    0.8625   24.0640 H   0  0  0  0  0  0  0  0  0  0  0  0
    7.7631    2.5829   26.8082 H   0  0  0  0  0  0  0  0  0  0  0  0
    7.8704    1.0683   26.0322 H   0  0  0  0  0  0  0  0  0  0  0  0
    9.5370    9.1036   22.4119 C   0  0  0  0  0  0  0  0  0  0  0  0
    8.4015    9.7759   21.9079 C   0  0  0  0  0  0  0  0  0  0  0  0
    8.5044   10.9551   21.1856 C   0  0  0  0  0  0  0  0  0  0  0  0
    9.7485   11.5014   20.9346 C   0  0  0  0  0  0  0  0  0  0  0  0
   10.9052   10.8587   21.4199 C   0  0  0  0  0  0  0  0  0  0  0  0
   10.7955    9.6873   22.1363 C   0  0  0  0  0  0  0  0  0  0  0  0
   11.9890    9.1419   22.5546 O   0  0  0  0  0  0  0  0  0  0  0  0
   12.2011   11.3261   21.2571 O   0  0  0  0  0  0  0  0  0  0  0  0
   13.7929   11.5104   19.4864 C   0  0  0  0  0  0  0  0  0  0  0  0
   14.8714   12.5662   19.7047 C   0  0  0  0  0  0  0  0  0  0  0  0
   14.5393   13.8373   18.9288 C   0  0  0  0  0  0  0  0  0  0  0  0
   13.0338   14.1464   18.9151 C   0  0  0  0  0  0  0  0  0  0  0  0
   12.3647   13.5103   20.1550 C   0  0  0  0  0  0  0  0  0  0  0  0
   12.4301   11.9920   20.0223 C   0  0  0  0  0  0  0  0  0  0  0  0
   14.1832   10.2214   20.2359 C   0  0  0  0  0  0  0  0  0  0  0  0
  1  2  2  0  0  0
  1  7  1  0  0  0
  1 12  1  0  0  0
  2  3  1  0  0  0
  2  4  1  0  0  0
  4  5  2  0  0  0
  5  6  1  0  0  0
  5  8  1  0  0  0
  6  7  2  0  0  0
  6  9  1  0  0  0
 12 13  1  0  0  0
 12 14  2  0  0  0
  8 10  1  0  0  0
  9 10  2  0  0  0
 10 19  1  0  0  0
 19 20  2  0  0  0
 19 24  1  0  0  0
 20 21  1  0  0  0
 21 22  2  0  0  0
 22 23  1  0  0  0
 23 24  2  0  0  0
 23 26  1  0  0  0
 24 25  1  0  0  0
 26 32  1  0  0  0
 27 28  1  0  0  0
 27 32  1  0  0  0
 27 33  1  0  0  0
 28 29  1  0  0  0
 29 30  1  0  0  0
 30 31  1  0  0  0
 31 32  1  0  0  0
 13 15  1  0  0  0
 13 16  1  0  0  0
 14 17  1  0  0  0
 14 18  1  0  0  0
  8 11  1  0  0  0
M  CHG 1  14   1
M  CHG 1  25  -1
M  END
> <minimizedAffinity>
-7.90795

$$$$
1O5C_CR9_B_251


 33 36  0  0  0  0  0  0  0  0999 V2000
    9.8384   11.5626   21.5560 C   0  0  0  0  0  0  0  0  0  0  0  0
    8.4725   11.7612   21.9506 C   0  0  0  0  0  0  0  0  0  0  0  0
    7.7717   12.8691   21.5734 F   0  0  0  0  0  0  0  0  0  0  0  0
    7.7820   10.8569   22.7486 C   0  0  0  0  0  0  0  0  0  0  0  0
    8.4731    9.7718   23.1413 C   0  0  0  0  0  0  0  0  0  0  0  0
    9.7505    9.5310   22.8036 C   0  0  0  0  0  0  0  0  0  0  0  0
   10.4765   10.3838   22.0175 C   0  0  0  0  0  0  0  0  0  0  0  0
    8.0798    8.8014   23.8787 N   0  0  0  0  0  0  0  0  0  0  0  0
   10.2118    8.4072   23.3113 N   0  0  0  0  0  0  0  0  0  0  0  0
    9.1191    8.0238   23.9577 C   0  0  0  0  0  0  0  0  0  0  0  0
    7.1948    8.6736   24.2906 H   0  0  0  0  0  0  0  0  0  0  0  0
   10.5360   12.5003   20.7614 C   0  0  0  0  0  0  0  0  0  0  0  0
   11.4317   13.2732   21.3061 N   0  0  0  0  0  0  0  0  0  0  0  0
   10.3283   12.6535   19.4806 N   0  0  0  0  0  0  0  0  0  0  0  0
   11.6268   13.1987   22.2682 H   0  0  0  0  0  0  0  0  0  0  0  0
   11.9136   13.9321   20.7557 H   0  0  0  0  0  0  0  0  0  0  0  0
    9.6618   12.0944   19.0196 H   0  0  0  0  0  0  0  0  0  0  0  0
   10.8382   13.3281   18.9764 H   0  0  0  0  0  0  0  0  0  0  0  0
    9.0910    6.8382   24.7169 C   0  0  0  0  0  0  0  0  0  0  0  0
    9.1244    6.8690   26.1288 C   0  0  0  0  0  0  0  0  0  0  0  0
    9.0737    5.7124   26.8919 C   0  0  0  0  0  0  0  0  0  0  0  0
    8.9952    4.4811   26.2699 C   0  0  0  0  0  0  0  0  0  0  0  0
    8.9612    4.4095   24.8627 C   0  0  0  0  0  0  0  0  0  0  0  0
    9.0124    5.5625   24.1109 C   0  0  0  0  0  0  0  0  0  0  0  0
    8.9807    5.3750   22.7468 O   0  0  0  0  0  0  0  0  0  0  0  0
    8.8536    3.2369   24.1294 O   0  0  0  0  0  0  0  0  0  0  0  0
    9.9723    1.1455   23.8507 C   0  0  0  0  0  0  0  0  0  0  0  0
    9.0763   -0.0025   23.3978 C   0  0  0  0  0  0  0  0  0  0  0  0
    8.6935   -0.8815   24.5846 C   0  0  0  0  0  0  0  0  0  0  0  0
    8.4578   -0.0719   25.8695 C   0  0  0  0  0  0  0  0  0  0  0  0
    8.0464    1.3723   25.5019 C   0  0  0  0  0  0  0  0  0  0  0  0
    9.2333    2.0667   24.8414 C   0  0  0  0  0  0  0  0  0  0  0  0
   10.3871    1.9819   22.6244 C   0  0  0  0  0  0  0  0  0  0  0  0
  1  2  2  0  0  0
  1  7  1  0  0  0
  1 12  1  0  0  0
  2  3  1  0  0  0
  2  4  1  0  0  0
  4  5  2  0  0  0
  5  6  1  0  0  0
  5  8  1  0  0  0
  6  7  2  0  0  0
  6  9  1  0  0  0
 12 13  1  0  0  0
 12 14  2  0  0  0
  8 10  1  0  0  0
  9 10  2  0  0  0
 10 19  1  0  0  0
 19 20  2  0  0  0
 19 24  1  0  0  0
 20 21  1  0  0  0
 21 22  2  0  0  0
 22 23  1  0  0  0
 23 24  2  0  0  0
 23 26  1  0  0  0
 24 25  1  0  0  0
 26 32  1  0  0  0
 27 28  1  0  0  0
 27 32  1  0  0  0
 27 33  1  0  0  0
 28 29  1  0  0  0
 29 30  1  0  0  0
 30 31  1  0  0  0
 31 32  1  0  0  0
 13 15  1  0  0  0
 13 16  1  0  0  0
 14 17  1  0  0  0
 14 18  1  0  0  0
  8 11  1  0  0  0
M  CHG 1  14   1
M  CHG 1  25  -1
M  END
> <minimizedAffinity>
-7.73407

$$$$
1O5C_CR9_B_251


 33 36  0  0  0  0  0  0  0  0999 V2000
    8.9625    4.9827   26.3070 C   0  0  0  0  0  0  0  0  0  0  0  0
    9.4510    4.2242   25.1904 C   0  0  0  0  0  0  0  0  0  0  0  0
    9.6448    2.8763   25.2697 F   0  0  0  0  0  0  0  0  0  0  0  0
    9.7723    4.8061   23.9699 C   0  0  0  0  0  0  0  0  0  0  0  0
    9.6031    6.1382   23.8907 C   0  0  0  0  0  0  0  0  0  0  0  0
    9.1490    6.8998   24.8993 C   0  0  0  0  0  0  0  0  0  0  0  0
    8.8136    6.3800   26.1199 C   0  0  0  0  0  0  0  0  0  0  0  0
    9.8301    6.9116   22.8955 N   0  0  0  0  0  0  0  0  0  0  0  0
    9.0723    8.1758   24.5838 N   0  0  0  0  0  0  0  0  0  0  0  0
    9.5101    8.0930   23.3347 C   0  0  0  0  0  0  0  0  0  0  0  0
   10.1687    6.6680   22.0038 H   0  0  0  0  0  0  0  0  0  0  0  0
    8.6592    4.3819   27.5498 C   0  0  0  0  0  0  0  0  0  0  0  0
    7.7000    3.5045   27.6293 N   0  0  0  0  0  0  0  0  0  0  0  0
    9.2906    4.6644   28.6583 N   0  0  0  0  0  0  0  0  0  0  0  0
    7.1924    3.2557   26.8233 H   0  0  0  0  0  0  0  0  0  0  0  0
    7.4825    3.0902   28.4955 H   0  0  0  0  0  0  0  0  0  0  0  0
   10.0241    5.3211   28.6534 H   0  0  0  0  0  0  0  0  0  0  0  0
    9.0328    4.2207   29.4985 H   0  0  0  0  0  0  0  0  0  0  0  0
    9.6458    9.2372   22.5252 C   0  0  0  0  0  0  0  0  0  0  0  0
    8.5165    9.9007   21.9960 C   0  0  0  0  0  0  0  0  0  0  0  0
    8.6312   11.0420   21.2168 C   0  0  0  0  0  0  0  0  0  0  0  0
    9.8811   11.5573   20.9320 C   0  0  0  0  0  0  0  0  0  0  0  0
   11.0319   10.9223   21.4409 C   0  0  0  0  0  0  0  0  0  0  0  0
   10.9106    9.7887   22.2139 C   0  0  0  0  0  0  0  0  0  0  0  0
   12.0991    9.2470   22.6509 O   0  0  0  0  0  0  0  0  0  0  0  0
   12.3332   11.3625   21.2477 O   0  0  0  0  0  0  0  0  0  0  0  0
   13.9396   11.5537   19.4909 C   0  0  0  0  0  0  0  0  0  0  0  0
   14.9760   12.6544   19.6906 C   0  0  0  0  0  0  0  0  0  0  0  0
   14.6077   13.8893   18.8737 C   0  0  0  0  0  0  0  0  0  0  0  0
   13.0923   14.1423   18.8334 C   0  0  0  0  0  0  0  0  0  0  0  0
   12.4310   13.5183   20.0837 C   0  0  0  0  0  0  0  0  0  0  0  0
   12.5535   12.0002   19.9966 C   0  0  0  0  0  0  0  0  0  0  0  0
   14.3670   10.3023   20.2826 C   0  0  0  0  0  0  0  0  0  0  0  0
  1  2  2  0  0  0
  1  7  1  0  0  0
  1 12  1  0  0  0
  2  3  1  0  0  0
  2  4  1  0  0  0
  4  5  2  0  0  0
  5  6  1  0  0  0
  5  8  1  0  0  0
  6  7  2  0  0  0
  6  9  1  0  0  0
 12 13  1  0  0  0
 12 14  2  0  0  0
  8 10  1  0  0  0
  9 10  2  0  0  0
 10 19  1  0  0  0
 19 20  2  0  0  0
 19 24  1  0  0  0
 20 21  1  0  0  0
 21 22  2  0  0  0
 22 23  1  0  0  0
 23 24  2  0  0  0
 23 26  1  0  0  0
 24 25  1  0  0  0
 26 32  1  0  0  0
 27 28  1  0  0  0
 27 32  1  0  0  0
 27 33  1  0  0  0
 28 29  1  0  0  0
 29 30  1  0  0  0
 30 31  1  0  0  0
 31 32  1  0  0  0
 13 15  1  0  0  0
 13 16  1  0  0  0
 14 17  1  0  0  0
 14 18  1  0  0  0
  8 11  1  0  0  0
M  CHG 1  14   1
M  CHG 1  25  -1
M  END
> <minimizedAffinity>
-7.68491

$$$$
