5JY3_6OX_A_501


 42 45  0  0  0  0  0  0  0  0999 V2000
   37.4137   19.2449   20.7472 C   0  0  0  0  0  0  0  0  0  0  0  0
   38.1430   21.7543   21.7876 C   0  0  0  0  0  0  0  0  0  0  0  0
   37.7902   20.6826   22.6143 C   0  0  0  0  0  0  0  0  0  0  0  0
   37.7244   20.3064   19.8872 C   0  0  0  0  0  0  0  0  0  0  0  0
   38.0906   21.5562   20.4145 C   0  0  0  0  0  0  0  0  0  0  0  0
   38.4557   22.5500   19.5787 F   0  0  0  0  0  0  0  0  0  0  0  0
   37.4367   19.4374   22.1148 C   0  0  0  0  0  0  0  0  0  0  0  0
   37.5695   16.8623   20.7913 C   0  0  0  0  0  0  0  0  0  0  0  0
   37.1672   15.6100   20.3110 C   0  0  0  0  0  0  0  0  0  0  0  0
   36.2046   15.4915   19.2566 C   0  0  0  0  0  0  0  0  0  0  0  0
   35.7111   16.6745   18.8060 C   0  0  0  0  0  0  0  0  0  0  0  0
   34.8531   16.5283   17.8511 F   0  0  0  0  0  0  0  0  0  0  0  0
   36.0562   17.9254   19.2868 C   0  0  0  0  0  0  0  0  0  0  0  0
   37.0035   18.0153   20.2818 C   0  0  0  0  0  0  0  0  0  0  0  0
   38.7934   14.7444   22.3624 C   0  0  0  0  0  0  0  0  0  0  0  0
   37.8677   14.2458   20.9985 S   0  0  0  0  0  0  0  0  0  0  0  0
   36.8375   13.2634   21.3719 O   0  0  0  0  0  0  0  0  0  0  0  0
   38.8635   13.5644   20.0427 O   0  0  0  0  0  0  0  0  0  0  0  0
   35.6542   14.2087   18.5719 C   0  0  0  0  0  0  0  0  0  0  0  0
   36.7331   13.2688   18.2235 O   0  0  0  0  0  0  0  0  0  0  0  0
   37.3419   13.6927   17.5985 H   0  0  0  0  0  0  0  0  0  0  0  0
   37.6257   23.9666   22.7160 C   0  0  0  0  0  0  0  0  0  0  0  0
   39.5682   24.6277   23.1483 C   0  0  0  0  0  0  0  0  0  0  0  0
   39.7145   23.3968   22.6426 C   0  0  0  0  0  0  0  0  0  0  0  0
   38.4726   22.9505   22.3745 N   0  0  0  0  0  0  0  0  0  0  0  0
   38.3145   24.9794   23.1973 N   0  0  0  0  0  0  0  0  0  0  0  0
   40.5839   25.6272   23.6290 C   0  0  0  0  0  0  0  0  0  0  0  0
   39.9581   27.0137   23.5313 C   0  0  0  0  0  0  0  0  0  0  0  0
   41.0451   25.2735   25.0497 C   0  0  0  0  0  0  0  0  0  0  0  0
   41.6814   25.3971   22.7652 O   0  0  0  0  0  0  0  0  0  0  0  0
   42.0124   24.4948   22.8963 H   0  0  0  0  0  0  0  0  0  0  0  0
   36.0912   24.1093   22.5823 C   0  0  0  0  0  0  0  0  0  0  0  0
   35.7562   25.5253   23.1341 C   0  0  0  0  0  0  0  0  0  0  0  0
   35.3748   23.0666   23.4507 C   0  0  0  0  0  0  0  0  0  0  0  0
   34.9137   23.2618   18.4443 C   0  0  0  0  0  0  0  0  0  0  0  0
   34.5415   22.3798   19.4463 C   0  0  0  0  0  0  0  0  0  0  0  0
   36.0246   24.6747   20.0779 C   0  0  0  0  0  0  0  0  0  0  0  0
   35.6502   23.7894   21.1063 C   0  0  0  0  0  0  0  0  0  0  0  0
   34.9133   22.6478   20.7585 C   0  0  0  0  0  0  0  0  0  0  0  0
   36.9196   26.1355   20.4182 Cl  0  0  0  0  0  0  0  0  0  0  0  0
   35.6492   24.3969   18.7603 C   0  0  0  0  0  0  0  0  0  0  0  0
   34.3948   21.5380   21.9749 Cl  0  0  0  0  0  0  0  0  0  0  0  0
 40 37  1  0  0  0
 41 37  2  0  0  0
 41 35  1  0  0  0
 37 38  1  0  0  0
  6  5  1  0  0  0
 35 36  2  0  0  0
 29 27  1  0  0  0
 34 32  1  0  0  0
 38 32  1  0  0  0
 38 39  2  0  0  0
  5  4  2  0  0  0
  5  2  1  0  0  0
  4  1  1  0  0  0
 15 16  1  0  0  0
 36 39  1  0  0  0
 32 22  1  0  0  0
 32 33  1  0  0  0
 26 22  2  0  0  0
 26 23  1  0  0  0
 22 25  1  0  0  0
 39 42  1  0  0  0
 23 27  1  0  0  0
 23 24  2  0  0  0
 27 28  1  0  0  0
 27 30  1  0  0  0
 25 24  1  0  0  0
 25  2  1  0  0  0
 17 16  2  0  0  0
  2  3  2  0  0  0
  1 14  1  0  0  0
  1  7  2  0  0  0
 16  9  1  0  0  0
 16 18  2  0  0  0
  8 14  2  0  0  0
  8  9  1  0  0  0
 14 13  1  0  0  0
  9 10  2  0  0  0
  3  7  1  0  0  0
 13 11  2  0  0  0
 10 11  1  0  0  0
 10 19  1  0  0  0
 11 12  1  0  0  0
 19 20  1  0  0  0
 20 21  1  0  0  0
 30 31  1  0  0  0
M  END
> <minimizedAffinity>
-13.80509

$$$$
5JY3_6OX_A_501


 42 45  0  0  0  0  0  0  0  0999 V2000
   37.2646   19.2648   20.8957 C   0  0  0  0  0  0  0  0  0  0  0  0
   38.0017   21.7617   21.9605 C   0  0  0  0  0  0  0  0  0  0  0  0
   38.0107   21.5101   20.5846 C   0  0  0  0  0  0  0  0  0  0  0  0
   37.2798   19.4685   22.2818 C   0  0  0  0  0  0  0  0  0  0  0  0
   37.6463   20.7194   22.8060 C   0  0  0  0  0  0  0  0  0  0  0  0
   37.5895   20.9255   24.1379 F   0  0  0  0  0  0  0  0  0  0  0  0
   37.6415   20.2861   20.0456 C   0  0  0  0  0  0  0  0  0  0  0  0
   37.4911   16.8876   20.8685 C   0  0  0  0  0  0  0  0  0  0  0  0
   37.1961   15.6462   20.2916 C   0  0  0  0  0  0  0  0  0  0  0  0
   36.3840   15.5463   19.1156 C   0  0  0  0  0  0  0  0  0  0  0  0
   35.9153   16.7333   18.6496 C   0  0  0  0  0  0  0  0  0  0  0  0
   35.1948   16.6043   17.5849 F   0  0  0  0  0  0  0  0  0  0  0  0
   36.1535   17.9717   19.2195 C   0  0  0  0  0  0  0  0  0  0  0  0
   36.9592   18.0453   20.3334 C   0  0  0  0  0  0  0  0  0  0  0  0
   38.8034   14.7716   22.3541 C   0  0  0  0  0  0  0  0  0  0  0  0
   37.8449   14.2738   21.0127 S   0  0  0  0  0  0  0  0  0  0  0  0
   36.7778   13.3470   21.4227 O   0  0  0  0  0  0  0  0  0  0  0  0
   38.8022   13.5238   20.0690 O   0  0  0  0  0  0  0  0  0  0  0  0
   35.9700   14.2791   18.3156 C   0  0  0  0  0  0  0  0  0  0  0  0
   37.1299   13.6290   17.6821 O   0  0  0  0  0  0  0  0  0  0  0  0
   37.5439   14.2443   17.0570 H   0  0  0  0  0  0  0  0  0  0  0  0
   37.5896   24.0862   22.6318 C   0  0  0  0  0  0  0  0  0  0  0  0
   39.5643   24.7114   22.9586 C   0  0  0  0  0  0  0  0  0  0  0  0
   39.6524   23.4254   22.5978 C   0  0  0  0  0  0  0  0  0  0  0  0
   38.3891   23.0031   22.3997 N   0  0  0  0  0  0  0  0  0  0  0  0
   38.3266   25.1184   22.9828 N   0  0  0  0  0  0  0  0  0  0  0  0
   40.6273   25.7167   23.3063 C   0  0  0  0  0  0  0  0  0  0  0  0
   39.9580   27.0806   23.4322 C   0  0  0  0  0  0  0  0  0  0  0  0
   41.3657   25.2884   24.5820 C   0  0  0  0  0  0  0  0  0  0  0  0
   41.5412   25.5886   22.2329 O   0  0  0  0  0  0  0  0  0  0  0  0
   41.9152   24.6936   22.2317 H   0  0  0  0  0  0  0  0  0  0  0  0
   36.0598   24.2762   22.5025 C   0  0  0  0  0  0  0  0  0  0  0  0
   35.7981   25.7744   22.8322 C   0  0  0  0  0  0  0  0  0  0  0  0
   35.3202   23.4145   23.5346 C   0  0  0  0  0  0  0  0  0  0  0  0
   34.6458   22.7778   18.6317 C   0  0  0  0  0  0  0  0  0  0  0  0
   35.4527   23.9039   18.6659 C   0  0  0  0  0  0  0  0  0  0  0  0
   34.7482   22.6109   21.0526 C   0  0  0  0  0  0  0  0  0  0  0  0
   35.5714   23.7516   21.1020 C   0  0  0  0  0  0  0  0  0  0  0  0
   35.9023   24.3794   19.8921 C   0  0  0  0  0  0  0  0  0  0  0  0
   34.3055   21.7470   22.5047 Cl  0  0  0  0  0  0  0  0  0  0  0  0
   34.2978   22.1404   19.8157 C   0  0  0  0  0  0  0  0  0  0  0  0
   36.9340   25.7634   19.8791 Cl  0  0  0  0  0  0  0  0  0  0  0  0
 40 37  1  0  0  0
 41 37  2  0  0  0
 41 35  1  0  0  0
 37 38  1  0  0  0
  6  5  1  0  0  0
 35 36  2  0  0  0
 29 27  1  0  0  0
 34 32  1  0  0  0
 38 32  1  0  0  0
 38 39  2  0  0  0
  5  4  2  0  0  0
  5  2  1  0  0  0
  4  1  1  0  0  0
 15 16  1  0  0  0
 36 39  1  0  0  0
 32 22  1  0  0  0
 32 33  1  0  0  0
 26 22  2  0  0  0
 26 23  1  0  0  0
 22 25  1  0  0  0
 39 42  1  0  0  0
 23 27  1  0  0  0
 23 24  2  0  0  0
 27 28  1  0  0  0
 27 30  1  0  0  0
 25 24  1  0  0  0
 25  2  1  0  0  0
 17 16  2  0  0  0
  2  3  2  0  0  0
  1 14  1  0  0  0
  1  7  2  0  0  0
 16  9  1  0  0  0
 16 18  2  0  0  0
  8 14  2  0  0  0
  8  9  1  0  0  0
 14 13  1  0  0  0
  9 10  2  0  0  0
  3  7  1  0  0  0
 13 11  2  0  0  0
 10 11  1  0  0  0
 10 19  1  0  0  0
 11 12  1  0  0  0
 19 20  1  0  0  0
 20 21  1  0  0  0
 30 31  1  0  0  0
M  END
> <minimizedAffinity>
-13.65715

$$$$
5JY3_6OX_A_501


 42 45  0  0  0  0  0  0  0  0999 V2000
   37.5406   19.6117   21.6214 C   0  0  0  0  0  0  0  0  0  0  0  0
   37.8891   22.3226   22.2856 C   0  0  0  0  0  0  0  0  0  0  0  0
   38.1454   21.8350   21.0000 C   0  0  0  0  0  0  0  0  0  0  0  0
   37.3102   20.0570   22.9297 C   0  0  0  0  0  0  0  0  0  0  0  0
   37.4837   21.4131   23.2531 C   0  0  0  0  0  0  0  0  0  0  0  0
   37.1913   21.8433   24.4978 F   0  0  0  0  0  0  0  0  0  0  0  0
   37.9696   20.5022   20.6566 C   0  0  0  0  0  0  0  0  0  0  0  0
   36.6280   17.9241   20.1994 C   0  0  0  0  0  0  0  0  0  0  0  0
   36.5009   16.5764   19.8411 C   0  0  0  0  0  0  0  0  0  0  0  0
   37.1528   15.5429   20.5890 C   0  0  0  0  0  0  0  0  0  0  0  0
   37.9096   15.9871   21.6262 C   0  0  0  0  0  0  0  0  0  0  0  0
   38.4746   15.0274   22.2813 F   0  0  0  0  0  0  0  0  0  0  0  0
   38.0894   17.3126   21.9810 C   0  0  0  0  0  0  0  0  0  0  0  0
   37.4310   18.2862   21.2641 C   0  0  0  0  0  0  0  0  0  0  0  0
   35.8641   14.5809   18.0482 C   0  0  0  0  0  0  0  0  0  0  0  0
   35.5384   16.2065   18.5140 S   0  0  0  0  0  0  0  0  0  0  0  0
   34.1151   16.4052   18.8313 O   0  0  0  0  0  0  0  0  0  0  0  0
   35.8872   17.0712   17.2891 O   0  0  0  0  0  0  0  0  0  0  0  0
   37.1139   14.0037   20.3728 C   0  0  0  0  0  0  0  0  0  0  0  0
   36.7278   13.2885   21.6009 O   0  0  0  0  0  0  0  0  0  0  0  0
   37.3789   13.4672   22.2974 H   0  0  0  0  0  0  0  0  0  0  0  0
   37.1589   24.6481   22.5729 C   0  0  0  0  0  0  0  0  0  0  0  0
   39.0234   25.5702   22.8384 C   0  0  0  0  0  0  0  0  0  0  0  0
   39.2883   24.2668   22.6870 C   0  0  0  0  0  0  0  0  0  0  0  0
   38.0979   23.6568   22.5315 N   0  0  0  0  0  0  0  0  0  0  0  0
   37.7443   25.8098   22.7720 N   0  0  0  0  0  0  0  0  0  0  0  0
   39.9355   26.7478   23.0454 C   0  0  0  0  0  0  0  0  0  0  0  0
   39.0701   27.9551   23.3880 C   0  0  0  0  0  0  0  0  0  0  0  0
   40.9778   26.4282   24.1259 C   0  0  0  0  0  0  0  0  0  0  0  0
   40.6253   26.8291   21.8120 O   0  0  0  0  0  0  0  0  0  0  0  0
   41.1466   26.0219   21.6793 H   0  0  0  0  0  0  0  0  0  0  0  0
   35.6240   24.6133   22.3831 C   0  0  0  0  0  0  0  0  0  0  0  0
   35.1809   26.1032   22.3084 C   0  0  0  0  0  0  0  0  0  0  0  0
   34.9451   23.9640   23.5964 C   0  0  0  0  0  0  0  0  0  0  0  0
   34.6495   22.0759   18.9422 C   0  0  0  0  0  0  0  0  0  0  0  0
   34.2693   21.6682   20.2110 C   0  0  0  0  0  0  0  0  0  0  0  0
   35.6394   24.0911   19.8685 C   0  0  0  0  0  0  0  0  0  0  0  0
   35.2561   23.6911   21.1626 C   0  0  0  0  0  0  0  0  0  0  0  0
   34.5768   22.4720   21.3024 C   0  0  0  0  0  0  0  0  0  0  0  0
   36.4651   25.6054   19.5933 Cl  0  0  0  0  0  0  0  0  0  0  0  0
   35.3289   23.2759   18.7762 C   0  0  0  0  0  0  0  0  0  0  0  0
   34.0502   21.9381   22.8573 Cl  0  0  0  0  0  0  0  0  0  0  0  0
 40 37  1  0  0  0
 41 37  2  0  0  0
 41 35  1  0  0  0
 37 38  1  0  0  0
  6  5  1  0  0  0
 35 36  2  0  0  0
 29 27  1  0  0  0
 34 32  1  0  0  0
 38 32  1  0  0  0
 38 39  2  0  0  0
  5  4  2  0  0  0
  5  2  1  0  0  0
  4  1  1  0  0  0
 15 16  1  0  0  0
 36 39  1  0  0  0
 32 22  1  0  0  0
 32 33  1  0  0  0
 26 22  2  0  0  0
 26 23  1  0  0  0
 22 25  1  0  0  0
 39 42  1  0  0  0
 23 27  1  0  0  0
 23 24  2  0  0  0
 27 28  1  0  0  0
 27 30  1  0  0  0
 25 24  1  0  0  0
 25  2  1  0  0  0
 17 16  2  0  0  0
  2  3  2  0  0  0
  1 14  1  0  0  0
  1  7  2  0  0  0
 16  9  1  0  0  0
 16 18  2  0  0  0
  8 14  2  0  0  0
  8  9  1  0  0  0
 14 13  1  0  0  0
  9 10  2  0  0  0
  3  7  1  0  0  0
 13 11  2  0  0  0
 10 11  1  0  0  0
 10 19  1  0  0  0
 11 12  1  0  0  0
 19 20  1  0  0  0
 20 21  1  0  0  0
 30 31  1  0  0  0
M  END
> <minimizedAffinity>
-12.34512

$$$$
5JY3_6OX_A_501


 42 45  0  0  0  0  0  0  0  0999 V2000
   37.7624   19.3501   21.3802 C   0  0  0  0  0  0  0  0  0  0  0  0
   38.1109   22.0770   21.9750 C   0  0  0  0  0  0  0  0  0  0  0  0
   37.9492   21.1141   22.9764 C   0  0  0  0  0  0  0  0  0  0  0  0
   37.8834   20.2913   20.3494 C   0  0  0  0  0  0  0  0  0  0  0  0
   38.0601   21.6512   20.6545 C   0  0  0  0  0  0  0  0  0  0  0  0
   38.2461   22.5387   19.6558 F   0  0  0  0  0  0  0  0  0  0  0  0
   37.7849   19.7649   22.6974 C   0  0  0  0  0  0  0  0  0  0  0  0
   36.6497   17.6323   20.1496 C   0  0  0  0  0  0  0  0  0  0  0  0
   36.4088   16.2745   19.9062 C   0  0  0  0  0  0  0  0  0  0  0  0
   37.0340   15.2548   20.6947 C   0  0  0  0  0  0  0  0  0  0  0  0
   37.8825   15.7186   21.6490 C   0  0  0  0  0  0  0  0  0  0  0  0
   38.4204   14.7717   22.3443 F   0  0  0  0  0  0  0  0  0  0  0  0
   38.1742   17.0502   21.8876 C   0  0  0  0  0  0  0  0  0  0  0  0
   37.5404   18.0132   21.1350 C   0  0  0  0  0  0  0  0  0  0  0  0
   35.9247   16.5817   17.2093 C   0  0  0  0  0  0  0  0  0  0  0  0
   35.3424   15.8780   18.6693 S   0  0  0  0  0  0  0  0  0  0  0  0
   35.2031   14.4178   18.5499 O   0  0  0  0  0  0  0  0  0  0  0  0
   33.9446   16.4812   18.8967 O   0  0  0  0  0  0  0  0  0  0  0  0
   36.8767   13.7107   20.6029 C   0  0  0  0  0  0  0  0  0  0  0  0
   37.5586   13.1609   19.4189 O   0  0  0  0  0  0  0  0  0  0  0  0
   37.1687   13.5405   18.6159 H   0  0  0  0  0  0  0  0  0  0  0  0
   37.2794   24.3291   22.4853 C   0  0  0  0  0  0  0  0  0  0  0  0
   39.1022   25.3030   22.8404 C   0  0  0  0  0  0  0  0  0  0  0  0
   39.4240   24.0334   22.5638 C   0  0  0  0  0  0  0  0  0  0  0  0
   38.2613   23.3891   22.3490 N   0  0  0  0  0  0  0  0  0  0  0  0
   37.8135   25.4909   22.7964 N   0  0  0  0  0  0  0  0  0  0  0  0
   39.9619   26.4945   23.1612 C   0  0  0  0  0  0  0  0  0  0  0  0
   40.9528   26.6777   22.0174 C   0  0  0  0  0  0  0  0  0  0  0  0
   39.0856   27.7314   23.4026 C   0  0  0  0  0  0  0  0  0  0  0  0
   40.5346   26.1401   24.4062 O   0  0  0  0  0  0  0  0  0  0  0  0
   39.8333   26.0457   25.0696 H   0  0  0  0  0  0  0  0  0  0  0  0
   35.7469   24.2447   22.2916 C   0  0  0  0  0  0  0  0  0  0  0  0
   35.1951   25.6297   22.7377 C   0  0  0  0  0  0  0  0  0  0  0  0
   35.1469   23.1655   23.2026 C   0  0  0  0  0  0  0  0  0  0  0  0
   34.7799   22.8942   18.2335 C   0  0  0  0  0  0  0  0  0  0  0  0
   35.4008   24.1209   18.4068 C   0  0  0  0  0  0  0  0  0  0  0  0
   34.7833   22.5346   20.6355 C   0  0  0  0  0  0  0  0  0  0  0  0
   35.4173   23.7768   20.8261 C   0  0  0  0  0  0  0  0  0  0  0  0
   35.7087   24.5497   19.6926 C   0  0  0  0  0  0  0  0  0  0  0  0
   34.4057   21.4913   21.9845 Cl  0  0  0  0  0  0  0  0  0  0  0  0
   34.4745   22.1114   19.3395 C   0  0  0  0  0  0  0  0  0  0  0  0
   36.5140   26.0682   19.8534 Cl  0  0  0  0  0  0  0  0  0  0  0  0
 40 37  1  0  0  0
 41 37  2  0  0  0
 41 35  1  0  0  0
 37 38  1  0  0  0
  6  5  1  0  0  0
 35 36  2  0  0  0
 29 27  1  0  0  0
 34 32  1  0  0  0
 38 32  1  0  0  0
 38 39  2  0  0  0
  5  4  2  0  0  0
  5  2  1  0  0  0
  4  1  1  0  0  0
 15 16  1  0  0  0
 36 39  1  0  0  0
 32 22  1  0  0  0
 32 33  1  0  0  0
 26 22  2  0  0  0
 26 23  1  0  0  0
 22 25  1  0  0  0
 39 42  1  0  0  0
 23 27  1  0  0  0
 23 24  2  0  0  0
 27 28  1  0  0  0
 27 30  1  0  0  0
 25 24  1  0  0  0
 25  2  1  0  0  0
 17 16  2  0  0  0
  2  3  2  0  0  0
  1 14  1  0  0  0
  1  7  2  0  0  0
 16  9  1  0  0  0
 16 18  2  0  0  0
  8 14  2  0  0  0
  8  9  1  0  0  0
 14 13  1  0  0  0
  9 10  2  0  0  0
  3  7  1  0  0  0
 13 11  2  0  0  0
 10 11  1  0  0  0
 10 19  1  0  0  0
 11 12  1  0  0  0
 19 20  1  0  0  0
 20 21  1  0  0  0
 30 31  1  0  0  0
M  END
> <minimizedAffinity>
-11.95803

$$$$
5JY3_6OX_A_501


 42 45  0  0  0  0  0  0  0  0999 V2000
   37.8611   19.5950   21.2713 C   0  0  0  0  0  0  0  0  0  0  0  0
   38.2250   22.3386   21.7731 C   0  0  0  0  0  0  0  0  0  0  0  0
   37.9516   21.4269   22.7980 C   0  0  0  0  0  0  0  0  0  0  0  0
   38.0959   20.4845   20.2147 C   0  0  0  0  0  0  0  0  0  0  0  0
   38.2796   21.8531   20.4736 C   0  0  0  0  0  0  0  0  0  0  0  0
   38.5749   22.6891   19.4569 F   0  0  0  0  0  0  0  0  0  0  0  0
   37.7784   20.0700   22.5657 C   0  0  0  0  0  0  0  0  0  0  0  0
   36.9006   17.8403   19.9669 C   0  0  0  0  0  0  0  0  0  0  0  0
   36.6474   16.4784   19.7624 C   0  0  0  0  0  0  0  0  0  0  0  0
   37.0875   15.4903   20.7017 C   0  0  0  0  0  0  0  0  0  0  0  0
   37.7820   15.9853   21.7593 C   0  0  0  0  0  0  0  0  0  0  0  0
   38.1549   15.0669   22.5881 F   0  0  0  0  0  0  0  0  0  0  0  0
   38.0848   17.3192   21.9694 C   0  0  0  0  0  0  0  0  0  0  0  0
   37.6278   18.2532   21.0670 C   0  0  0  0  0  0  0  0  0  0  0  0
   34.2653   15.4067   18.8794 C   0  0  0  0  0  0  0  0  0  0  0  0
   35.7889   16.0398   18.3857 S   0  0  0  0  0  0  0  0  0  0  0  0
   35.6311   17.1904   17.4818 O   0  0  0  0  0  0  0  0  0  0  0  0
   36.4825   14.9055   17.6099 O   0  0  0  0  0  0  0  0  0  0  0  0
   36.8834   13.9493   20.6708 C   0  0  0  0  0  0  0  0  0  0  0  0
   37.8046   13.2943   19.7266 O   0  0  0  0  0  0  0  0  0  0  0  0
   37.6394   13.6268   18.8304 H   0  0  0  0  0  0  0  0  0  0  0  0
   37.5434   24.6964   21.7734 C   0  0  0  0  0  0  0  0  0  0  0  0
   39.1810   25.5340   22.7801 C   0  0  0  0  0  0  0  0  0  0  0  0
   39.4272   24.2191   22.7306 C   0  0  0  0  0  0  0  0  0  0  0  0
   38.3751   23.6631   22.1004 N   0  0  0  0  0  0  0  0  0  0  0  0
   38.0490   25.8312   22.2073 N   0  0  0  0  0  0  0  0  0  0  0  0
   39.9829   26.6700   23.3530 C   0  0  0  0  0  0  0  0  0  0  0  0
   40.7672   26.1343   24.5453 C   0  0  0  0  0  0  0  0  0  0  0  0
   40.8796   27.2856   22.2700 C   0  0  0  0  0  0  0  0  0  0  0  0
   38.9885   27.6280   23.6647 O   0  0  0  0  0  0  0  0  0  0  0  0
   38.5444   27.9100   22.8498 H   0  0  0  0  0  0  0  0  0  0  0  0
   36.2153   24.7305   20.9808 C   0  0  0  0  0  0  0  0  0  0  0  0
   36.6259   24.9052   19.4899 C   0  0  0  0  0  0  0  0  0  0  0  0
   35.3694   25.9410   21.3976 C   0  0  0  0  0  0  0  0  0  0  0  0
   33.8017   21.1951   21.9312 C   0  0  0  0  0  0  0  0  0  0  0  0
   34.1868   22.0450   22.9558 C   0  0  0  0  0  0  0  0  0  0  0  0
   34.9472   22.5990   20.3139 C   0  0  0  0  0  0  0  0  0  0  0  0
   35.3424   23.4730   21.3442 C   0  0  0  0  0  0  0  0  0  0  0  0
   34.9512   23.1665   22.6557 C   0  0  0  0  0  0  0  0  0  0  0  0
   35.3643   22.9128   18.6470 Cl  0  0  0  0  0  0  0  0  0  0  0  0
   34.1809   21.4718   20.6240 C   0  0  0  0  0  0  0  0  0  0  0  0
   35.3750   24.2131   23.9615 Cl  0  0  0  0  0  0  0  0  0  0  0  0
 40 37  1  0  0  0
 41 37  2  0  0  0
 41 35  1  0  0  0
 37 38  1  0  0  0
  6  5  1  0  0  0
 35 36  2  0  0  0
 29 27  1  0  0  0
 34 32  1  0  0  0
 38 32  1  0  0  0
 38 39  2  0  0  0
  5  4  2  0  0  0
  5  2  1  0  0  0
  4  1  1  0  0  0
 15 16  1  0  0  0
 36 39  1  0  0  0
 32 22  1  0  0  0
 32 33  1  0  0  0
 26 22  2  0  0  0
 26 23  1  0  0  0
 22 25  1  0  0  0
 39 42  1  0  0  0
 23 27  1  0  0  0
 23 24  2  0  0  0
 27 28  1  0  0  0
 27 30  1  0  0  0
 25 24  1  0  0  0
 25  2  1  0  0  0
 17 16  2  0  0  0
  2  3  2  0  0  0
  1 14  1  0  0  0
  1  7  2  0  0  0
 16  9  1  0  0  0
 16 18  2  0  0  0
  8 14  2  0  0  0
  8  9  1  0  0  0
 14 13  1  0  0  0
  9 10  2  0  0  0
  3  7  1  0  0  0
 13 11  2  0  0  0
 10 11  1  0  0  0
 10 19  1  0  0  0
 11 12  1  0  0  0
 19 20  1  0  0  0
 20 21  1  0  0  0
 30 31  1  0  0  0
M  END
> <minimizedAffinity>
-11.66774

$$$$
