2X97_RX4_A_1615


 41 41  0  0  0  0  0  0  0  0999 V2000
   27.7944   -4.5201   43.7512 C   0  0  0  0  0  0  0  0  0  0  0  0
   27.7566   -2.1722   44.2095 C   0  0  0  0  0  0  0  0  0  0  0  0
   28.9629   -2.1024   43.9129 O   0  0  0  0  0  0  0  0  0  0  0  0
   27.0661   -3.3133   44.1312 N   0  0  0  0  0  0  0  0  0  0  0  0
   26.1008   -3.3394   44.3228 H   0  0  0  0  0  0  0  0  0  0  0  0
   27.1150   -0.9462   44.8797 C   0  0  0  0  0  0  0  0  0  0  0  0
   28.1563    1.1624   44.0171 C   0  0  0  0  0  0  0  0  0  0  0  0
   28.2196    2.1821   42.8424 C   0  0  0  0  0  0  0  0  0  0  0  0
   28.8891    1.3055   45.0253 O   0  0  0  0  0  0  0  0  0  0  0  0
   27.2752    0.1562   43.8673 N   0  0  0  0  0  0  0  0  0  0  0  0
   26.7110    0.1404   43.0607 H   0  0  0  0  0  0  0  0  0  0  0  0
   25.6888   -1.1968   45.2532 C   0  0  0  0  0  0  0  0  0  0  0  0
   25.1913    0.0965   45.9410 C   0  0  0  0  0  0  0  0  0  0  0  0
   23.9754    0.4274   45.8423 O   0  0  0  0  0  0  0  0  0  0  0  0
   26.0252    0.7014   46.6096 O   0  0  0  0  0  0  0  0  0  0  0  0
   23.3929   -0.0812   45.3131 H   0  0  0  0  0  0  0  0  0  0  0  0
   27.1182   -5.0023   42.1471 P   0  0  0  0  0  0  0  0  0  0  0  0
   26.8747   -3.7808   41.2776 O   0  0  0  0  0  0  0  0  0  0  0  0
   25.7265   -5.5888   42.2251 O   0  0  0  0  0  0  0  0  0  0  0  0
   26.2304   -3.1991   41.7104 H   0  0  0  0  0  0  0  0  0  0  0  0
   28.3019   -6.1020   41.3839 C   0  0  0  0  0  0  0  0  0  0  0  0
   27.7512   -7.3890   40.7605 C   0  0  0  0  0  0  0  0  0  0  0  0
   28.3143   -7.6705   39.2792 C   0  0  0  0  0  0  0  0  0  0  0  0
   28.3385   -8.5770   41.6158 C   0  0  0  0  0  0  0  0  0  0  0  0
   29.0053   -9.4704   41.0707 O   0  0  0  0  0  0  0  0  0  0  0  0
   28.0093   -8.6197   42.8999 N   0  0  0  0  0  0  0  0  0  0  0  0
   27.4582   -7.9103   43.3027 H   0  0  0  0  0  0  0  0  0  0  0  0
   28.5000   -9.7826   43.7295 C   0  0  0  0  0  0  0  0  0  0  0  0
   29.8837   -9.4573   44.3099 C   0  0  0  0  0  0  0  0  0  0  0  0
   27.4616   -9.9211   44.8950 C   0  0  0  0  0  0  0  0  0  0  0  0
   26.2172   -9.9949   44.6177 O   0  0  0  0  0  0  0  0  0  0  0  0
   27.9229   -9.9943   46.1310 N   0  0  0  0  0  0  0  0  0  0  0  0
   28.8909   -9.9327   46.2996 H   0  0  0  0  0  0  0  0  0  0  0  0
   27.2987  -10.1106   46.8834 H   0  0  0  0  0  0  0  0  0  0  0  0
   27.6372   -5.6412   44.8481 C   0  0  0  0  0  0  0  0  0  0  0  0
   29.1821   -6.6951   46.5328 C   0  0  0  0  0  0  0  0  0  0  0  0
   30.3960   -7.0317   47.1156 C   0  0  0  0  0  0  0  0  0  0  0  0
   31.5294   -6.5642   46.4123 C   0  0  0  0  0  0  0  0  0  0  0  0
   31.4565   -5.8154   45.2143 C   0  0  0  0  0  0  0  0  0  0  0  0
   30.2076   -5.5066   44.6505 C   0  0  0  0  0  0  0  0  0  0  0  0
   29.0768   -5.9748   45.3160 C   0  0  0  0  0  0  0  0  0  0  0  0
 36 37  1  0  0  0
 36 41  2  0  0  0
 37 38  2  0  0  0
 38 39  1  0  0  0
 39 40  2  0  0  0
 40 41  1  0  0  0
 41 35  1  0  0  0
 35  1  1  0  0  0
  1  4  1  0  0  0
  1 17  1  0  0  0
  4  2  1  0  0  0
  2  3  2  0  0  0
  2  6  1  0  0  0
  6 12  1  0  0  0
  6 10  1  0  0  0
 12 13  1  0  0  0
 13 14  1  0  0  0
 13 15  2  0  0  0
 10  7  1  0  0  0
  7  8  1  0  0  0
  7  9  2  0  0  0
 17 18  1  0  0  0
 17 19  2  0  0  0
 17 21  1  0  0  0
 21 22  1  0  0  0
 22 23  1  0  0  0
 22 24  1  0  0  0
 24 25  2  0  0  0
 24 26  1  0  0  0
 26 28  1  0  0  0
 28 29  1  0  0  0
 28 30  1  0  0  0
 30 31  2  0  0  0
 30 32  1  0  0  0
 14 16  1  0  0  0
 10 11  1  0  0  0
 18 20  1  0  0  0
  4  5  1  0  0  0
 26 27  1  0  0  0
 32 33  1  0  0  0
 32 34  1  0  0  0
M  END
> <minimizedAffinity>
-8.37854

$$$$
2X97_RX4_A_1615


 41 41  0  0  0  0  0  0  0  0999 V2000
   25.8185    6.2960   43.2259 C   0  0  0  0  0  0  0  0  0  0  0  0
   24.0082    5.9669   44.7552 C   0  0  0  0  0  0  0  0  0  0  0  0
   23.8222    4.8325   44.2794 O   0  0  0  0  0  0  0  0  0  0  0  0
   24.9925    6.7661   44.3340 N   0  0  0  0  0  0  0  0  0  0  0  0
   25.1550    7.6407   44.7558 H   0  0  0  0  0  0  0  0  0  0  0  0
   22.9375    6.5253   45.7069 C   0  0  0  0  0  0  0  0  0  0  0  0
   24.2646    5.8711   47.7281 C   0  0  0  0  0  0  0  0  0  0  0  0
   24.2800    5.0473   49.0491 C   0  0  0  0  0  0  0  0  0  0  0  0
   25.2521    6.5734   47.4036 O   0  0  0  0  0  0  0  0  0  0  0  0
   23.1458    5.7627   46.9879 N   0  0  0  0  0  0  0  0  0  0  0  0
   22.4329    5.1586   47.2976 H   0  0  0  0  0  0  0  0  0  0  0  0
   23.0609    8.0057   45.8789 C   0  0  0  0  0  0  0  0  0  0  0  0
   21.9246    8.4224   46.8425 C   0  0  0  0  0  0  0  0  0  0  0  0
   22.0145    9.5106   47.4792 O   0  0  0  0  0  0  0  0  0  0  0  0
   20.9521    7.6733   46.8782 O   0  0  0  0  0  0  0  0  0  0  0  0
   22.7881   10.0341   47.4054 H   0  0  0  0  0  0  0  0  0  0  0  0
   27.3338    5.6748   43.9883 P   0  0  0  0  0  0  0  0  0  0  0  0
   27.1526    5.5103   45.4874 O   0  0  0  0  0  0  0  0  0  0  0  0
   28.4855    6.6537   43.9378 O   0  0  0  0  0  0  0  0  0  0  0  0
   26.9498    6.3715   45.8851 H   0  0  0  0  0  0  0  0  0  0  0  0
   27.7096    4.1080   43.2160 C   0  0  0  0  0  0  0  0  0  0  0  0
   26.5384    3.1447   42.9956 C   0  0  0  0  0  0  0  0  0  0  0  0
   26.7404    2.1767   41.7256 C   0  0  0  0  0  0  0  0  0  0  0  0
   26.5462    2.1560   44.2244 C   0  0  0  0  0  0  0  0  0  0  0  0
   26.9580    0.9932   44.0891 O   0  0  0  0  0  0  0  0  0  0  0  0
   26.0136    2.5935   45.3574 N   0  0  0  0  0  0  0  0  0  0  0  0
   25.6714    3.5137   45.4312 H   0  0  0  0  0  0  0  0  0  0  0  0
   25.9444    1.6463   46.5321 C   0  0  0  0  0  0  0  0  0  0  0  0
   26.3877    2.3729   47.8099 C   0  0  0  0  0  0  0  0  0  0  0  0
   24.4325    1.2513   46.6508 C   0  0  0  0  0  0  0  0  0  0  0  0
   23.9705    0.3184   45.9112 O   0  0  0  0  0  0  0  0  0  0  0  0
   23.6958    1.8812   47.5488 N   0  0  0  0  0  0  0  0  0  0  0  0
   24.0929    2.5951   48.0983 H   0  0  0  0  0  0  0  0  0  0  0  0
   22.7497    1.6367   47.6685 H   0  0  0  0  0  0  0  0  0  0  0  0
   26.0806    7.4535   42.1887 C   0  0  0  0  0  0  0  0  0  0  0  0
   25.3307    5.5531   40.7183 C   0  0  0  0  0  0  0  0  0  0  0  0
   24.8575    4.9416   39.5657 C   0  0  0  0  0  0  0  0  0  0  0  0
   24.5725    5.8341   38.5075 C   0  0  0  0  0  0  0  0  0  0  0  0
   24.7467    7.2354   38.5936 C   0  0  0  0  0  0  0  0  0  0  0  0
   25.2163    7.8159   39.7833 C   0  0  0  0  0  0  0  0  0  0  0  0
   25.4847    6.9568   40.8467 C   0  0  0  0  0  0  0  0  0  0  0  0
 36 37  1  0  0  0
 36 41  2  0  0  0
 37 38  2  0  0  0
 38 39  1  0  0  0
 39 40  2  0  0  0
 40 41  1  0  0  0
 41 35  1  0  0  0
 35  1  1  0  0  0
  1  4  1  0  0  0
  1 17  1  0  0  0
  4  2  1  0  0  0
  2  3  2  0  0  0
  2  6  1  0  0  0
  6 12  1  0  0  0
  6 10  1  0  0  0
 12 13  1  0  0  0
 13 14  1  0  0  0
 13 15  2  0  0  0
 10  7  1  0  0  0
  7  8  1  0  0  0
  7  9  2  0  0  0
 17 18  1  0  0  0
 17 19  2  0  0  0
 17 21  1  0  0  0
 21 22  1  0  0  0
 22 23  1  0  0  0
 22 24  1  0  0  0
 24 25  2  0  0  0
 24 26  1  0  0  0
 26 28  1  0  0  0
 28 29  1  0  0  0
 28 30  1  0  0  0
 30 31  2  0  0  0
 30 32  1  0  0  0
 14 16  1  0  0  0
 10 11  1  0  0  0
 18 20  1  0  0  0
  4  5  1  0  0  0
 26 27  1  0  0  0
 32 33  1  0  0  0
 32 34  1  0  0  0
M  END
> <minimizedAffinity>
-8.16438

$$$$
2X97_RX4_A_1615


 41 41  0  0  0  0  0  0  0  0999 V2000
   24.3050    5.8352   46.1831 C   0  0  0  0  0  0  0  0  0  0  0  0
   25.5868    3.8853   45.6548 C   0  0  0  0  0  0  0  0  0  0  0  0
   26.5983    4.5966   45.5171 O   0  0  0  0  0  0  0  0  0  0  0  0
   24.4035    4.3881   46.0186 N   0  0  0  0  0  0  0  0  0  0  0  0
   23.6260    3.8035   46.1702 H   0  0  0  0  0  0  0  0  0  0  0  0
   25.6741    2.4232   45.1872 C   0  0  0  0  0  0  0  0  0  0  0  0
   27.5797    2.0198   43.6123 C   0  0  0  0  0  0  0  0  0  0  0  0
   29.1238    1.8871   43.4642 C   0  0  0  0  0  0  0  0  0  0  0  0
   26.8332    1.9301   42.6081 O   0  0  0  0  0  0  0  0  0  0  0  0
   27.1308    2.2235   44.8646 N   0  0  0  0  0  0  0  0  0  0  0  0
   27.7833    2.2427   45.6015 H   0  0  0  0  0  0  0  0  0  0  0  0
   25.1680    1.4739   46.2259 C   0  0  0  0  0  0  0  0  0  0  0  0
   26.4205    0.8937   46.9244 C   0  0  0  0  0  0  0  0  0  0  0  0
   26.9412    1.5191   47.8917 O   0  0  0  0  0  0  0  0  0  0  0  0
   26.8000   -0.2015   46.5187 O   0  0  0  0  0  0  0  0  0  0  0  0
   26.5998    2.3531   48.1484 H   0  0  0  0  0  0  0  0  0  0  0  0
   23.6873    6.0852   47.8622 P   0  0  0  0  0  0  0  0  0  0  0  0
   22.2674    5.5624   47.9957 O   0  0  0  0  0  0  0  0  0  0  0  0
   23.5001    7.5398   48.2311 O   0  0  0  0  0  0  0  0  0  0  0  0
   21.6861    6.0467   47.3886 H   0  0  0  0  0  0  0  0  0  0  0  0
   24.7924    5.2174   48.9661 C   0  0  0  0  0  0  0  0  0  0  0  0
   24.1488    4.3040   50.0148 C   0  0  0  0  0  0  0  0  0  0  0  0
   24.0928    2.7594   49.5656 C   0  0  0  0  0  0  0  0  0  0  0  0
   25.1276    4.2985   51.2517 C   0  0  0  0  0  0  0  0  0  0  0  0
   24.7643    4.7736   52.3390 O   0  0  0  0  0  0  0  0  0  0  0  0
   26.3612    3.8569   51.0461 N   0  0  0  0  0  0  0  0  0  0  0  0
   26.6313    3.5073   50.1663 H   0  0  0  0  0  0  0  0  0  0  0  0
   27.3419    3.9032   52.1941 C   0  0  0  0  0  0  0  0  0  0  0  0
   28.4023    2.8076   52.0137 C   0  0  0  0  0  0  0  0  0  0  0  0
   28.0211    5.3120   52.0956 C   0  0  0  0  0  0  0  0  0  0  0  0
   28.9611    5.4948   51.2507 O   0  0  0  0  0  0  0  0  0  0  0  0
   27.5635    6.2768   52.8739 N   0  0  0  0  0  0  0  0  0  0  0  0
   26.8368    6.0917   53.5118 H   0  0  0  0  0  0  0  0  0  0  0  0
   27.9492    7.1807   52.8160 H   0  0  0  0  0  0  0  0  0  0  0  0
   23.3686    6.4644   45.0823 C   0  0  0  0  0  0  0  0  0  0  0  0
   25.1230    6.9182   43.3354 C   0  0  0  0  0  0  0  0  0  0  0  0
   26.0137    7.6765   42.5884 C   0  0  0  0  0  0  0  0  0  0  0  0
   26.0103    9.0550   42.9009 C   0  0  0  0  0  0  0  0  0  0  0  0
   25.1780    9.6344   43.8872 C   0  0  0  0  0  0  0  0  0  0  0  0
   24.2810    8.8332   44.6126 C   0  0  0  0  0  0  0  0  0  0  0  0
   24.2528    7.4743   44.3070 C   0  0  0  0  0  0  0  0  0  0  0  0
 36 37  1  0  0  0
 36 41  2  0  0  0
 37 38  2  0  0  0
 38 39  1  0  0  0
 39 40  2  0  0  0
 40 41  1  0  0  0
 41 35  1  0  0  0
 35  1  1  0  0  0
  1  4  1  0  0  0
  1 17  1  0  0  0
  4  2  1  0  0  0
  2  3  2  0  0  0
  2  6  1  0  0  0
  6 12  1  0  0  0
  6 10  1  0  0  0
 12 13  1  0  0  0
 13 14  1  0  0  0
 13 15  2  0  0  0
 10  7  1  0  0  0
  7  8  1  0  0  0
  7  9  2  0  0  0
 17 18  1  0  0  0
 17 19  2  0  0  0
 17 21  1  0  0  0
 21 22  1  0  0  0
 22 23  1  0  0  0
 22 24  1  0  0  0
 24 25  2  0  0  0
 24 26  1  0  0  0
 26 28  1  0  0  0
 28 29  1  0  0  0
 28 30  1  0  0  0
 30 31  2  0  0  0
 30 32  1  0  0  0
 14 16  1  0  0  0
 10 11  1  0  0  0
 18 20  1  0  0  0
  4  5  1  0  0  0
 26 27  1  0  0  0
 32 33  1  0  0  0
 32 34  1  0  0  0
M  END
> <minimizedAffinity>
-8.04348

$$$$
2X97_RX4_A_1615


 41 41  0  0  0  0  0  0  0  0999 V2000
   23.8086    6.6364   48.1411 C   0  0  0  0  0  0  0  0  0  0  0  0
   24.4677    4.3371   48.0882 C   0  0  0  0  0  0  0  0  0  0  0  0
   25.3554    4.6182   47.2630 O   0  0  0  0  0  0  0  0  0  0  0  0
   23.6651    5.2643   48.6184 N   0  0  0  0  0  0  0  0  0  0  0  0
   23.0008    5.0306   49.3064 H   0  0  0  0  0  0  0  0  0  0  0  0
   24.1670    2.8492   48.3329 C   0  0  0  0  0  0  0  0  0  0  0  0
   25.1476    1.2646   46.6591 C   0  0  0  0  0  0  0  0  0  0  0  0
   26.4545    0.6528   46.0746 C   0  0  0  0  0  0  0  0  0  0  0  0
   24.0291    0.9456   46.1891 O   0  0  0  0  0  0  0  0  0  0  0  0
   25.3143    2.1266   47.6790 N   0  0  0  0  0  0  0  0  0  0  0  0
   26.2259    2.2918   48.0119 H   0  0  0  0  0  0  0  0  0  0  0  0
   24.0326    2.5393   49.7897 C   0  0  0  0  0  0  0  0  0  0  0  0
   25.3703    2.9595   50.4435 C   0  0  0  0  0  0  0  0  0  0  0  0
   26.4057    2.2606   50.2501 O   0  0  0  0  0  0  0  0  0  0  0  0
   25.3489    4.0117   51.0763 O   0  0  0  0  0  0  0  0  0  0  0  0
   26.3493    1.4663   49.7562 H   0  0  0  0  0  0  0  0  0  0  0  0
   23.9757    7.6461   49.6296 P   0  0  0  0  0  0  0  0  0  0  0  0
   22.9849    7.2040   50.6928 O   0  0  0  0  0  0  0  0  0  0  0  0
   23.5708    9.0899   49.4338 O   0  0  0  0  0  0  0  0  0  0  0  0
   22.0811    7.3133   50.3579 H   0  0  0  0  0  0  0  0  0  0  0  0
   25.6562    7.4604   50.2078 C   0  0  0  0  0  0  0  0  0  0  0  0
   26.6967    7.0027   49.1801 C   0  0  0  0  0  0  0  0  0  0  0  0
   27.3124    8.2127   48.3154 C   0  0  0  0  0  0  0  0  0  0  0  0
   27.9284    6.4712   50.0096 C   0  0  0  0  0  0  0  0  0  0  0  0
   29.0541    6.4137   49.4906 O   0  0  0  0  0  0  0  0  0  0  0  0
   27.6843    6.0112   51.2293 N   0  0  0  0  0  0  0  0  0  0  0  0
   26.7766    6.0461   51.6088 H   0  0  0  0  0  0  0  0  0  0  0  0
   28.8322    5.4324   52.0224 C   0  0  0  0  0  0  0  0  0  0  0  0
   29.0880    6.2939   53.2672 C   0  0  0  0  0  0  0  0  0  0  0  0
   28.3494    4.0074   52.4608 C   0  0  0  0  0  0  0  0  0  0  0  0
   28.8084    2.9793   51.8581 O   0  0  0  0  0  0  0  0  0  0  0  0
   27.5048    3.9232   53.4735 N   0  0  0  0  0  0  0  0  0  0  0  0
   27.1758    4.7423   53.9095 H   0  0  0  0  0  0  0  0  0  0  0  0
   27.2046    3.0414   53.7921 H   0  0  0  0  0  0  0  0  0  0  0  0
   22.5779    7.0535   47.2488 C   0  0  0  0  0  0  0  0  0  0  0  0
   24.0554    7.2417   45.2197 C   0  0  0  0  0  0  0  0  0  0  0  0
   24.7047    7.8736   44.1682 C   0  0  0  0  0  0  0  0  0  0  0  0
   24.4340    9.2568   44.0632 C   0  0  0  0  0  0  0  0  0  0  0  0
   23.5771    9.9584   44.9435 C   0  0  0  0  0  0  0  0  0  0  0  0
   22.9291    9.2786   45.9879 C   0  0  0  0  0  0  0  0  0  0  0  0
   23.1654    7.9100   46.0982 C   0  0  0  0  0  0  0  0  0  0  0  0
 36 37  1  0  0  0
 36 41  2  0  0  0
 37 38  2  0  0  0
 38 39  1  0  0  0
 39 40  2  0  0  0
 40 41  1  0  0  0
 41 35  1  0  0  0
 35  1  1  0  0  0
  1  4  1  0  0  0
  1 17  1  0  0  0
  4  2  1  0  0  0
  2  3  2  0  0  0
  2  6  1  0  0  0
  6 12  1  0  0  0
  6 10  1  0  0  0
 12 13  1  0  0  0
 13 14  1  0  0  0
 13 15  2  0  0  0
 10  7  1  0  0  0
  7  8  1  0  0  0
  7  9  2  0  0  0
 17 18  1  0  0  0
 17 19  2  0  0  0
 17 21  1  0  0  0
 21 22  1  0  0  0
 22 23  1  0  0  0
 22 24  1  0  0  0
 24 25  2  0  0  0
 24 26  1  0  0  0
 26 28  1  0  0  0
 28 29  1  0  0  0
 28 30  1  0  0  0
 30 31  2  0  0  0
 30 32  1  0  0  0
 14 16  1  0  0  0
 10 11  1  0  0  0
 18 20  1  0  0  0
  4  5  1  0  0  0
 26 27  1  0  0  0
 32 33  1  0  0  0
 32 34  1  0  0  0
M  END
> <minimizedAffinity>
-8.01107

$$$$
2X97_RX4_A_1615


 41 41  0  0  0  0  0  0  0  0999 V2000
   23.2237    6.3603   47.1441 C   0  0  0  0  0  0  0  0  0  0  0  0
   24.2825    4.4344   48.0894 C   0  0  0  0  0  0  0  0  0  0  0  0
   25.3649    4.7948   47.5929 O   0  0  0  0  0  0  0  0  0  0  0  0
   23.1630    5.1522   47.9613 N   0  0  0  0  0  0  0  0  0  0  0  0
   22.3270    4.8764   48.4022 H   0  0  0  0  0  0  0  0  0  0  0  0
   24.2075    3.0190   48.6853 C   0  0  0  0  0  0  0  0  0  0  0  0
   25.1929    1.4684   46.9825 C   0  0  0  0  0  0  0  0  0  0  0  0
   26.4985    0.8364   46.4171 C   0  0  0  0  0  0  0  0  0  0  0  0
   24.0813    1.2055   46.4639 O   0  0  0  0  0  0  0  0  0  0  0  0
   25.3525    2.2842   48.0409 N   0  0  0  0  0  0  0  0  0  0  0  0
   26.2571    2.4058   48.4097 H   0  0  0  0  0  0  0  0  0  0  0  0
   24.2883    3.0370   50.1784 C   0  0  0  0  0  0  0  0  0  0  0  0
   25.7671    3.3306   50.5250 C   0  0  0  0  0  0  0  0  0  0  0  0
   26.1760    4.5263   50.5514 O   0  0  0  0  0  0  0  0  0  0  0  0
   26.4510    2.3544   50.8211 O   0  0  0  0  0  0  0  0  0  0  0  0
   25.5985    5.2243   50.3121 H   0  0  0  0  0  0  0  0  0  0  0  0
   22.2759    7.6011   48.0526 P   0  0  0  0  0  0  0  0  0  0  0  0
   21.8615    7.0698   49.4140 O   0  0  0  0  0  0  0  0  0  0  0  0
   20.9298    7.9096   47.4362 O   0  0  0  0  0  0  0  0  0  0  0  0
   21.2976    6.2891   49.2985 H   0  0  0  0  0  0  0  0  0  0  0  0
   23.3180    9.0427   48.2212 C   0  0  0  0  0  0  0  0  0  0  0  0
   24.8302    8.8226   48.1064 C   0  0  0  0  0  0  0  0  0  0  0  0
   25.6615   10.1904   47.9364 C   0  0  0  0  0  0  0  0  0  0  0  0
   25.3008    8.2705   49.5068 C   0  0  0  0  0  0  0  0  0  0  0  0
   26.2479    7.4718   49.5782 O   0  0  0  0  0  0  0  0  0  0  0  0
   24.5871    8.6225   50.5678 N   0  0  0  0  0  0  0  0  0  0  0  0
   23.8246    9.2390   50.4803 H   0  0  0  0  0  0  0  0  0  0  0  0
   24.9719    8.0548   51.9136 C   0  0  0  0  0  0  0  0  0  0  0  0
   25.0240    9.1816   52.9552 C   0  0  0  0  0  0  0  0  0  0  0  0
   23.8225    7.0546   52.2798 C   0  0  0  0  0  0  0  0  0  0  0  0
   23.6537    6.0085   51.5670 O   0  0  0  0  0  0  0  0  0  0  0  0
   23.0885    7.3173   53.3467 N   0  0  0  0  0  0  0  0  0  0  0  0
   23.2529    8.1362   53.8679 H   0  0  0  0  0  0  0  0  0  0  0  0
   22.3772    6.6941   53.6205 H   0  0  0  0  0  0  0  0  0  0  0  0
   22.6581    6.0906   45.6978 C   0  0  0  0  0  0  0  0  0  0  0  0
   24.0853    7.9047   44.6939 C   0  0  0  0  0  0  0  0  0  0  0  0
   25.0305    8.4608   43.8431 C   0  0  0  0  0  0  0  0  0  0  0  0
   25.6477    7.5341   42.9725 C   0  0  0  0  0  0  0  0  0  0  0  0
   25.3438    6.1526   42.9528 C   0  0  0  0  0  0  0  0  0  0  0  0
   24.3893    5.6276   43.8396 C   0  0  0  0  0  0  0  0  0  0  0  0
   23.7826    6.5197   44.7210 C   0  0  0  0  0  0  0  0  0  0  0  0
 36 37  1  0  0  0
 36 41  2  0  0  0
 37 38  2  0  0  0
 38 39  1  0  0  0
 39 40  2  0  0  0
 40 41  1  0  0  0
 41 35  1  0  0  0
 35  1  1  0  0  0
  1  4  1  0  0  0
  1 17  1  0  0  0
  4  2  1  0  0  0
  2  3  2  0  0  0
  2  6  1  0  0  0
  6 12  1  0  0  0
  6 10  1  0  0  0
 12 13  1  0  0  0
 13 14  1  0  0  0
 13 15  2  0  0  0
 10  7  1  0  0  0
  7  8  1  0  0  0
  7  9  2  0  0  0
 17 18  1  0  0  0
 17 19  2  0  0  0
 17 21  1  0  0  0
 21 22  1  0  0  0
 22 23  1  0  0  0
 22 24  1  0  0  0
 24 25  2  0  0  0
 24 26  1  0  0  0
 26 28  1  0  0  0
 28 29  1  0  0  0
 28 30  1  0  0  0
 30 31  2  0  0  0
 30 32  1  0  0  0
 14 16  1  0  0  0
 10 11  1  0  0  0
 18 20  1  0  0  0
  4  5  1  0  0  0
 26 27  1  0  0  0
 32 33  1  0  0  0
 32 34  1  0  0  0
M  END
> <minimizedAffinity>
-7.96895

$$$$
2X97_RX4_A_1615


 41 41  0  0  0  0  0  0  0  0999 V2000
   30.1062   -6.7141   42.7745 C   0  0  0  0  0  0  0  0  0  0  0  0
   29.1424   -6.3676   40.6124 C   0  0  0  0  0  0  0  0  0  0  0  0
   28.1845   -5.7763   41.1423 O   0  0  0  0  0  0  0  0  0  0  0  0
   30.1700   -6.8428   41.3218 N   0  0  0  0  0  0  0  0  0  0  0  0
   30.9425   -7.2646   40.8807 H   0  0  0  0  0  0  0  0  0  0  0  0
   29.0195   -6.7332   39.1240 C   0  0  0  0  0  0  0  0  0  0  0  0
   26.5727   -6.7875   38.5903 C   0  0  0  0  0  0  0  0  0  0  0  0
   25.3237   -5.9532   38.1806 C   0  0  0  0  0  0  0  0  0  0  0  0
   26.4752   -8.0210   38.7970 O   0  0  0  0  0  0  0  0  0  0  0  0
   27.7245   -6.0988   38.6921 N   0  0  0  0  0  0  0  0  0  0  0  0
   27.7199   -5.1387   38.4746 H   0  0  0  0  0  0  0  0  0  0  0  0
   30.1971   -6.2589   38.3337 C   0  0  0  0  0  0  0  0  0  0  0  0
   31.4281   -6.9948   38.9138 C   0  0  0  0  0  0  0  0  0  0  0  0
   32.2993   -6.3422   39.5564 O   0  0  0  0  0  0  0  0  0  0  0  0
   31.4452   -8.2129   38.7586 O   0  0  0  0  0  0  0  0  0  0  0  0
   32.2237   -5.4115   39.6352 H   0  0  0  0  0  0  0  0  0  0  0  0
   31.0955   -5.2552   43.1697 P   0  0  0  0  0  0  0  0  0  0  0  0
   31.8735   -4.7875   41.9518 O   0  0  0  0  0  0  0  0  0  0  0  0
   32.2169   -5.5273   44.1472 O   0  0  0  0  0  0  0  0  0  0  0  0
   32.4783   -5.4897   41.6653 H   0  0  0  0  0  0  0  0  0  0  0  0
   29.9672   -3.9881   43.7304 C   0  0  0  0  0  0  0  0  0  0  0  0
   28.5961   -4.4531   44.2324 C   0  0  0  0  0  0  0  0  0  0  0  0
   28.5249   -4.6142   45.8323 C   0  0  0  0  0  0  0  0  0  0  0  0
   27.5948   -3.2724   43.9305 C   0  0  0  0  0  0  0  0  0  0  0  0
   26.9428   -3.2596   42.8747 O   0  0  0  0  0  0  0  0  0  0  0  0
   27.5591   -2.2711   44.7995 N   0  0  0  0  0  0  0  0  0  0  0  0
   28.1053   -2.2948   45.6183 H   0  0  0  0  0  0  0  0  0  0  0  0
   26.6606   -1.0937   44.5031 C   0  0  0  0  0  0  0  0  0  0  0  0
   25.7197   -0.8483   45.6913 C   0  0  0  0  0  0  0  0  0  0  0  0
   27.6279    0.1282   44.3388 C   0  0  0  0  0  0  0  0  0  0  0  0
   27.2713    1.2715   44.7823 O   0  0  0  0  0  0  0  0  0  0  0  0
   28.8039   -0.0834   43.7746 N   0  0  0  0  0  0  0  0  0  0  0  0
   29.0378   -0.9815   43.4462 H   0  0  0  0  0  0  0  0  0  0  0  0
   29.4461    0.6571   43.6825 H   0  0  0  0  0  0  0  0  0  0  0  0
   30.6304   -8.0230   43.4791 C   0  0  0  0  0  0  0  0  0  0  0  0
   28.3661   -8.4602   44.4878 C   0  0  0  0  0  0  0  0  0  0  0  0
   27.4253   -8.6029   45.4982 C   0  0  0  0  0  0  0  0  0  0  0  0
   27.9431   -8.4413   46.8035 C   0  0  0  0  0  0  0  0  0  0  0  0
   29.3013   -8.1580   47.0800 C   0  0  0  0  0  0  0  0  0  0  0  0
   30.2241   -8.0336   46.0284 C   0  0  0  0  0  0  0  0  0  0  0  0
   29.7397   -8.2092   44.7340 C   0  0  0  0  0  0  0  0  0  0  0  0
 36 37  1  0  0  0
 36 41  2  0  0  0
 37 38  2  0  0  0
 38 39  1  0  0  0
 39 40  2  0  0  0
 40 41  1  0  0  0
 41 35  1  0  0  0
 35  1  1  0  0  0
  1  4  1  0  0  0
  1 17  1  0  0  0
  4  2  1  0  0  0
  2  3  2  0  0  0
  2  6  1  0  0  0
  6 12  1  0  0  0
  6 10  1  0  0  0
 12 13  1  0  0  0
 13 14  1  0  0  0
 13 15  2  0  0  0
 10  7  1  0  0  0
  7  8  1  0  0  0
  7  9  2  0  0  0
 17 18  1  0  0  0
 17 19  2  0  0  0
 17 21  1  0  0  0
 21 22  1  0  0  0
 22 23  1  0  0  0
 22 24  1  0  0  0
 24 25  2  0  0  0
 24 26  1  0  0  0
 26 28  1  0  0  0
 28 29  1  0  0  0
 28 30  1  0  0  0
 30 31  2  0  0  0
 30 32  1  0  0  0
 14 16  1  0  0  0
 10 11  1  0  0  0
 18 20  1  0  0  0
  4  5  1  0  0  0
 26 27  1  0  0  0
 32 33  1  0  0  0
 32 34  1  0  0  0
M  END
> <minimizedAffinity>
-7.94964

$$$$
2X97_RX4_A_1615


 41 41  0  0  0  0  0  0  0  0999 V2000
   27.8446   -4.7273   44.6925 C   0  0  0  0  0  0  0  0  0  0  0  0
   27.4072   -6.5602   43.2184 C   0  0  0  0  0  0  0  0  0  0  0  0
   26.2979   -6.7203   43.7585 O   0  0  0  0  0  0  0  0  0  0  0  0
   28.2420   -5.5805   43.5767 N   0  0  0  0  0  0  0  0  0  0  0  0
   29.0945   -5.4390   43.1051 H   0  0  0  0  0  0  0  0  0  0  0  0
   27.8979   -7.6566   42.2586 C   0  0  0  0  0  0  0  0  0  0  0  0
   27.2199   -7.1521   39.9006 C   0  0  0  0  0  0  0  0  0  0  0  0
   27.5044   -6.2945   38.6328 C   0  0  0  0  0  0  0  0  0  0  0  0
   26.2710   -7.9725   39.9151 O   0  0  0  0  0  0  0  0  0  0  0  0
   28.0533   -6.9510   40.9380 N   0  0  0  0  0  0  0  0  0  0  0  0
   28.7967   -6.3150   40.8285 H   0  0  0  0  0  0  0  0  0  0  0  0
   29.1646   -8.2913   42.7371 C   0  0  0  0  0  0  0  0  0  0  0  0
   30.2726   -7.8267   41.7625 C   0  0  0  0  0  0  0  0  0  0  0  0
   30.5610   -8.5407   40.7601 O   0  0  0  0  0  0  0  0  0  0  0  0
   30.7705   -6.7300   42.0024 O   0  0  0  0  0  0  0  0  0  0  0  0
   30.1412   -9.3696   40.6388 H   0  0  0  0  0  0  0  0  0  0  0  0
   27.5511   -3.0984   43.9688 P   0  0  0  0  0  0  0  0  0  0  0  0
   26.8222   -3.2234   42.6420 O   0  0  0  0  0  0  0  0  0  0  0  0
   28.8149   -2.3853   43.5430 O   0  0  0  0  0  0  0  0  0  0  0  0
   27.3664   -3.7323   42.0209 H   0  0  0  0  0  0  0  0  0  0  0  0
   26.5805   -2.1655   45.1438 C   0  0  0  0  0  0  0  0  0  0  0  0
   27.0227   -0.7245   45.4198 C   0  0  0  0  0  0  0  0  0  0  0  0
   27.4901    0.0627   44.0959 C   0  0  0  0  0  0  0  0  0  0  0  0
   25.7285    0.0513   45.8788 C   0  0  0  0  0  0  0  0  0  0  0  0
   24.6085   -0.3150   45.4897 O   0  0  0  0  0  0  0  0  0  0  0  0
   25.9045    1.1457   46.6071 N   0  0  0  0  0  0  0  0  0  0  0  0
   26.8065    1.4282   46.8823 H   0  0  0  0  0  0  0  0  0  0  0  0
   24.6880    1.9483   47.0042 C   0  0  0  0  0  0  0  0  0  0  0  0
   24.7011    2.1927   48.5199 C   0  0  0  0  0  0  0  0  0  0  0  0
   24.8354    3.3147   46.2512 C   0  0  0  0  0  0  0  0  0  0  0  0
   25.4789    4.2678   46.8064 O   0  0  0  0  0  0  0  0  0  0  0  0
   24.3138    3.4154   45.0413 N   0  0  0  0  0  0  0  0  0  0  0  0
   23.8250    2.6550   44.6512 H   0  0  0  0  0  0  0  0  0  0  0  0
   24.4139    4.2507   44.5300 H   0  0  0  0  0  0  0  0  0  0  0  0
   28.9534   -4.7128   45.8128 C   0  0  0  0  0  0  0  0  0  0  0  0
   28.6560   -7.1477   46.3772 C   0  0  0  0  0  0  0  0  0  0  0  0
   29.0265   -8.4765   46.5305 C   0  0  0  0  0  0  0  0  0  0  0  0
   30.3608   -8.7562   46.1572 C   0  0  0  0  0  0  0  0  0  0  0  0
   31.2598   -7.7804   45.6664 C   0  0  0  0  0  0  0  0  0  0  0  0
   30.8410   -6.4484   45.5145 C   0  0  0  0  0  0  0  0  0  0  0  0
   29.5232   -6.1537   45.8573 C   0  0  0  0  0  0  0  0  0  0  0  0
 36 37  1  0  0  0
 36 41  2  0  0  0
 37 38  2  0  0  0
 38 39  1  0  0  0
 39 40  2  0  0  0
 40 41  1  0  0  0
 41 35  1  0  0  0
 35  1  1  0  0  0
  1  4  1  0  0  0
  1 17  1  0  0  0
  4  2  1  0  0  0
  2  3  2  0  0  0
  2  6  1  0  0  0
  6 12  1  0  0  0
  6 10  1  0  0  0
 12 13  1  0  0  0
 13 14  1  0  0  0
 13 15  2  0  0  0
 10  7  1  0  0  0
  7  8  1  0  0  0
  7  9  2  0  0  0
 17 18  1  0  0  0
 17 19  2  0  0  0
 17 21  1  0  0  0
 21 22  1  0  0  0
 22 23  1  0  0  0
 22 24  1  0  0  0
 24 25  2  0  0  0
 24 26  1  0  0  0
 26 28  1  0  0  0
 28 29  1  0  0  0
 28 30  1  0  0  0
 30 31  2  0  0  0
 30 32  1  0  0  0
 14 16  1  0  0  0
 10 11  1  0  0  0
 18 20  1  0  0  0
  4  5  1  0  0  0
 26 27  1  0  0  0
 32 33  1  0  0  0
 32 34  1  0  0  0
M  END
> <minimizedAffinity>
-7.88507

$$$$
2X97_RX4_A_1615


 41 41  0  0  0  0  0  0  0  0999 V2000
   27.9106   -4.6244   44.7458 C   0  0  0  0  0  0  0  0  0  0  0  0
   27.4070   -6.4452   43.2777 C   0  0  0  0  0  0  0  0  0  0  0  0
   26.3139   -6.5966   43.8524 O   0  0  0  0  0  0  0  0  0  0  0  0
   28.2630   -5.4760   43.6137 N   0  0  0  0  0  0  0  0  0  0  0  0
   29.1014   -5.3409   43.1156 H   0  0  0  0  0  0  0  0  0  0  0  0
   27.8550   -7.5417   42.2975 C   0  0  0  0  0  0  0  0  0  0  0  0
   27.2196   -7.0088   39.9339 C   0  0  0  0  0  0  0  0  0  0  0  0
   27.5256   -6.1346   38.6825 C   0  0  0  0  0  0  0  0  0  0  0  0
   26.2725   -7.8313   39.9204 O   0  0  0  0  0  0  0  0  0  0  0  0
   28.0332   -6.8192   40.9890 N   0  0  0  0  0  0  0  0  0  0  0  0
   28.7770   -6.1802   40.9014 H   0  0  0  0  0  0  0  0  0  0  0  0
   29.0987   -8.2306   42.7612 C   0  0  0  0  0  0  0  0  0  0  0  0
   30.2137   -7.8158   41.7721 C   0  0  0  0  0  0  0  0  0  0  0  0
   30.4584   -8.5427   40.7675 O   0  0  0  0  0  0  0  0  0  0  0  0
   30.7617   -6.7415   42.0040 O   0  0  0  0  0  0  0  0  0  0  0  0
   30.0015   -9.3527   40.6528 H   0  0  0  0  0  0  0  0  0  0  0  0
   27.5717   -2.9987   44.0347 P   0  0  0  0  0  0  0  0  0  0  0  0
   26.8009   -3.1320   42.7325 O   0  0  0  0  0  0  0  0  0  0  0  0
   28.8111   -2.2685   43.5683 O   0  0  0  0  0  0  0  0  0  0  0  0
   27.3309   -3.6329   42.0929 H   0  0  0  0  0  0  0  0  0  0  0  0
   26.6282   -2.0802   45.2426 C   0  0  0  0  0  0  0  0  0  0  0  0
   25.8766   -0.8428   44.7405 C   0  0  0  0  0  0  0  0  0  0  0  0
   24.7152   -0.3535   45.7418 C   0  0  0  0  0  0  0  0  0  0  0  0
   26.9166    0.3427   44.7664 C   0  0  0  0  0  0  0  0  0  0  0  0
   27.6839    0.4808   45.7319 O   0  0  0  0  0  0  0  0  0  0  0  0
   26.8631    1.2174   43.7709 N   0  0  0  0  0  0  0  0  0  0  0  0
   26.2277    1.0978   43.0285 H   0  0  0  0  0  0  0  0  0  0  0  0
   27.8004    2.4015   43.8032 C   0  0  0  0  0  0  0  0  0  0  0  0
   29.2251    1.9437   43.4599 C   0  0  0  0  0  0  0  0  0  0  0  0
   27.2768    3.3686   42.6868 C   0  0  0  0  0  0  0  0  0  0  0  0
   27.5831    4.6073   42.7390 O   0  0  0  0  0  0  0  0  0  0  0  0
   26.5616    2.8511   41.7036 N   0  0  0  0  0  0  0  0  0  0  0  0
   26.3483    1.8900   41.7031 H   0  0  0  0  0  0  0  0  0  0  0  0
   26.2420    3.4267   40.9716 H   0  0  0  0  0  0  0  0  0  0  0  0
   29.0694   -4.6000   45.8140 C   0  0  0  0  0  0  0  0  0  0  0  0
   28.7667   -7.0261   46.4125 C   0  0  0  0  0  0  0  0  0  0  0  0
   29.1301   -8.3563   46.5706 C   0  0  0  0  0  0  0  0  0  0  0  0
   30.4518   -8.6513   46.1659 C   0  0  0  0  0  0  0  0  0  0  0  0
   31.3458   -7.6885   45.6413 C   0  0  0  0  0  0  0  0  0  0  0  0
   30.9342   -6.3546   45.4858 C   0  0  0  0  0  0  0  0  0  0  0  0
   29.6283   -6.0451   45.8594 C   0  0  0  0  0  0  0  0  0  0  0  0
 36 37  1  0  0  0
 36 41  2  0  0  0
 37 38  2  0  0  0
 38 39  1  0  0  0
 39 40  2  0  0  0
 40 41  1  0  0  0
 41 35  1  0  0  0
 35  1  1  0  0  0
  1  4  1  0  0  0
  1 17  1  0  0  0
  4  2  1  0  0  0
  2  3  2  0  0  0
  2  6  1  0  0  0
  6 12  1  0  0  0
  6 10  1  0  0  0
 12 13  1  0  0  0
 13 14  1  0  0  0
 13 15  2  0  0  0
 10  7  1  0  0  0
  7  8  1  0  0  0
  7  9  2  0  0  0
 17 18  1  0  0  0
 17 19  2  0  0  0
 17 21  1  0  0  0
 21 22  1  0  0  0
 22 23  1  0  0  0
 22 24  1  0  0  0
 24 25  2  0  0  0
 24 26  1  0  0  0
 26 28  1  0  0  0
 28 29  1  0  0  0
 28 30  1  0  0  0
 30 31  2  0  0  0
 30 32  1  0  0  0
 14 16  1  0  0  0
 10 11  1  0  0  0
 18 20  1  0  0  0
  4  5  1  0  0  0
 26 27  1  0  0  0
 32 33  1  0  0  0
 32 34  1  0  0  0
M  END
> <minimizedAffinity>
-7.85701

$$$$
2X97_RX4_A_1615


 41 41  0  0  0  0  0  0  0  0999 V2000
   25.4212    3.9051   46.1028 C   0  0  0  0  0  0  0  0  0  0  0  0
   26.1903    3.4963   48.3311 C   0  0  0  0  0  0  0  0  0  0  0  0
   27.3593    3.4385   47.9092 O   0  0  0  0  0  0  0  0  0  0  0  0
   25.1533    3.7579   47.5302 N   0  0  0  0  0  0  0  0  0  0  0  0
   24.2413    3.8481   47.8899 H   0  0  0  0  0  0  0  0  0  0  0  0
   25.9315    3.0462   49.7783 C   0  0  0  0  0  0  0  0  0  0  0  0
   27.7915    3.6928   51.3266 C   0  0  0  0  0  0  0  0  0  0  0  0
   28.4867    4.8574   52.0909 C   0  0  0  0  0  0  0  0  0  0  0  0
   28.2434    2.5247   51.3976 O   0  0  0  0  0  0  0  0  0  0  0  0
   26.7000    4.0327   50.6164 N   0  0  0  0  0  0  0  0  0  0  0  0
   26.3908    4.9668   50.6463 H   0  0  0  0  0  0  0  0  0  0  0  0
   24.4716    3.0149   50.1005 C   0  0  0  0  0  0  0  0  0  0  0  0
   24.1233    4.4176   50.6524 C   0  0  0  0  0  0  0  0  0  0  0  0
   24.1854    4.6314   51.8967 O   0  0  0  0  0  0  0  0  0  0  0  0
   23.8611    5.2732   49.8113 O   0  0  0  0  0  0  0  0  0  0  0  0
   24.3912    3.9299   52.4828 H   0  0  0  0  0  0  0  0  0  0  0  0
   24.3500    5.2509   45.5509 P   0  0  0  0  0  0  0  0  0  0  0  0
   23.5038    5.7700   46.7007 O   0  0  0  0  0  0  0  0  0  0  0  0
   23.2811    4.8157   44.5736 O   0  0  0  0  0  0  0  0  0  0  0  0
   22.9383    5.0559   47.0341 H   0  0  0  0  0  0  0  0  0  0  0  0
   25.4085    6.5382   44.9068 C   0  0  0  0  0  0  0  0  0  0  0  0
   24.9476    7.2378   43.6237 C   0  0  0  0  0  0  0  0  0  0  0  0
   25.4784    8.7522   43.4983 C   0  0  0  0  0  0  0  0  0  0  0  0
   25.6651    6.4904   42.4344 C   0  0  0  0  0  0  0  0  0  0  0  0
   26.5979    7.0362   41.8245 O   0  0  0  0  0  0  0  0  0  0  0  0
   25.1678    5.3166   42.0685 N   0  0  0  0  0  0  0  0  0  0  0  0
   24.4108    4.9165   42.5544 H   0  0  0  0  0  0  0  0  0  0  0  0
   25.7905    4.6083   40.8886 C   0  0  0  0  0  0  0  0  0  0  0  0
   25.7897    3.0929   41.1350 C   0  0  0  0  0  0  0  0  0  0  0  0
   24.8599    4.9426   39.6728 C   0  0  0  0  0  0  0  0  0  0  0  0
   23.8697    4.1785   39.4152 O   0  0  0  0  0  0  0  0  0  0  0  0
   25.1179    6.0358   38.9767 N   0  0  0  0  0  0  0  0  0  0  0  0
   25.8927    6.5965   39.2101 H   0  0  0  0  0  0  0  0  0  0  0  0
   24.5353    6.2895   38.2248 H   0  0  0  0  0  0  0  0  0  0  0  0
   25.1551    2.5528   45.3378 C   0  0  0  0  0  0  0  0  0  0  0  0
   26.7070    0.8313   44.3560 C   0  0  0  0  0  0  0  0  0  0  0  0
   27.8667    0.3470   43.7670 C   0  0  0  0  0  0  0  0  0  0  0  0
   28.8345    1.3377   43.4848 C   0  0  0  0  0  0  0  0  0  0  0  0
   28.6575    2.7120   43.7696 C   0  0  0  0  0  0  0  0  0  0  0  0
   27.4630    3.1629   44.3551 C   0  0  0  0  0  0  0  0  0  0  0  0
   26.4864    2.2062   44.6235 C   0  0  0  0  0  0  0  0  0  0  0  0
 36 37  1  0  0  0
 36 41  2  0  0  0
 37 38  2  0  0  0
 38 39  1  0  0  0
 39 40  2  0  0  0
 40 41  1  0  0  0
 41 35  1  0  0  0
 35  1  1  0  0  0
  1  4  1  0  0  0
  1 17  1  0  0  0
  4  2  1  0  0  0
  2  3  2  0  0  0
  2  6  1  0  0  0
  6 12  1  0  0  0
  6 10  1  0  0  0
 12 13  1  0  0  0
 13 14  1  0  0  0
 13 15  2  0  0  0
 10  7  1  0  0  0
  7  8  1  0  0  0
  7  9  2  0  0  0
 17 18  1  0  0  0
 17 19  2  0  0  0
 17 21  1  0  0  0
 21 22  1  0  0  0
 22 23  1  0  0  0
 22 24  1  0  0  0
 24 25  2  0  0  0
 24 26  1  0  0  0
 26 28  1  0  0  0
 28 29  1  0  0  0
 28 30  1  0  0  0
 30 31  2  0  0  0
 30 32  1  0  0  0
 14 16  1  0  0  0
 10 11  1  0  0  0
 18 20  1  0  0  0
  4  5  1  0  0  0
 26 27  1  0  0  0
 32 33  1  0  0  0
 32 34  1  0  0  0
M  END
> <minimizedAffinity>
-7.82791

$$$$
2X97_RX4_A_1615


 41 41  0  0  0  0  0  0  0  0999 V2000
   24.8791    5.3096   46.7597 C   0  0  0  0  0  0  0  0  0  0  0  0
   25.2540    3.5219   45.2146 C   0  0  0  0  0  0  0  0  0  0  0  0
   24.7155    4.1945   44.3170 O   0  0  0  0  0  0  0  0  0  0  0  0
   25.4213    3.9890   46.4551 N   0  0  0  0  0  0  0  0  0  0  0  0
   25.8934    3.4614   47.1393 H   0  0  0  0  0  0  0  0  0  0  0  0
   25.5393    2.0398   44.9212 C   0  0  0  0  0  0  0  0  0  0  0  0
   27.5811    1.9764   43.4714 C   0  0  0  0  0  0  0  0  0  0  0  0
   29.1375    1.9723   43.4361 C   0  0  0  0  0  0  0  0  0  0  0  0
   26.9195    1.9642   42.4056 O   0  0  0  0  0  0  0  0  0  0  0  0
   27.0270    1.9857   44.6979 N   0  0  0  0  0  0  0  0  0  0  0  0
   27.6203    1.9559   45.4829 H   0  0  0  0  0  0  0  0  0  0  0  0
   25.0806    1.1522   46.0338 C   0  0  0  0  0  0  0  0  0  0  0  0
   25.9760   -0.1080   45.9749 C   0  0  0  0  0  0  0  0  0  0  0  0
   27.0128   -0.1708   46.6952 O   0  0  0  0  0  0  0  0  0  0  0  0
   25.5725   -1.0175   45.2549 O   0  0  0  0  0  0  0  0  0  0  0  0
   27.2628    0.5631   47.2214 H   0  0  0  0  0  0  0  0  0  0  0  0
   26.3147    6.3983   46.8898 P   0  0  0  0  0  0  0  0  0  0  0  0
   27.5132    5.7943   46.1781 O   0  0  0  0  0  0  0  0  0  0  0  0
   26.8485    6.5353   48.2981 O   0  0  0  0  0  0  0  0  0  0  0  0
   27.7422    4.9476   46.5922 H   0  0  0  0  0  0  0  0  0  0  0  0
   25.8595    7.9626   46.1560 C   0  0  0  0  0  0  0  0  0  0  0  0
   24.8310    7.9230   45.0208 C   0  0  0  0  0  0  0  0  0  0  0  0
   24.0273    9.3060   44.8413 C   0  0  0  0  0  0  0  0  0  0  0  0
   25.6579    7.7949   43.6838 C   0  0  0  0  0  0  0  0  0  0  0  0
   25.7420    8.7578   42.9055 O   0  0  0  0  0  0  0  0  0  0  0  0
   26.1659    6.6037   43.3974 N   0  0  0  0  0  0  0  0  0  0  0  0
   26.0640    5.8491   44.0214 H   0  0  0  0  0  0  0  0  0  0  0  0
   26.9045    6.4324   42.0910 C   0  0  0  0  0  0  0  0  0  0  0  0
   28.1353    5.5399   42.3051 C   0  0  0  0  0  0  0  0  0  0  0  0
   25.8910    5.7089   41.1396 C   0  0  0  0  0  0  0  0  0  0  0  0
   25.2919    6.3833   40.2356 O   0  0  0  0  0  0  0  0  0  0  0  0
   25.7224    4.4067   41.2881 N   0  0  0  0  0  0  0  0  0  0  0  0
   26.2047    3.9259   41.9990 H   0  0  0  0  0  0  0  0  0  0  0  0
   25.1147    3.9174   40.6878 H   0  0  0  0  0  0  0  0  0  0  0  0
   24.0129    5.2726   48.0761 C   0  0  0  0  0  0  0  0  0  0  0  0
   22.1592    6.6442   47.0670 C   0  0  0  0  0  0  0  0  0  0  0  0
   21.3481    7.7557   46.8850 C   0  0  0  0  0  0  0  0  0  0  0  0
   21.6349    8.8346   47.7519 C   0  0  0  0  0  0  0  0  0  0  0  0
   22.6569    8.8061   48.7296 C   0  0  0  0  0  0  0  0  0  0  0  0
   23.4477    7.6563   48.8899 C   0  0  0  0  0  0  0  0  0  0  0  0
   23.1692    6.5728   48.0597 C   0  0  0  0  0  0  0  0  0  0  0  0
 36 37  1  0  0  0
 36 41  2  0  0  0
 37 38  2  0  0  0
 38 39  1  0  0  0
 39 40  2  0  0  0
 40 41  1  0  0  0
 41 35  1  0  0  0
 35  1  1  0  0  0
  1  4  1  0  0  0
  1 17  1  0  0  0
  4  2  1  0  0  0
  2  3  2  0  0  0
  2  6  1  0  0  0
  6 12  1  0  0  0
  6 10  1  0  0  0
 12 13  1  0  0  0
 13 14  1  0  0  0
 13 15  2  0  0  0
 10  7  1  0  0  0
  7  8  1  0  0  0
  7  9  2  0  0  0
 17 18  1  0  0  0
 17 19  2  0  0  0
 17 21  1  0  0  0
 21 22  1  0  0  0
 22 23  1  0  0  0
 22 24  1  0  0  0
 24 25  2  0  0  0
 24 26  1  0  0  0
 26 28  1  0  0  0
 28 29  1  0  0  0
 28 30  1  0  0  0
 30 31  2  0  0  0
 30 32  1  0  0  0
 14 16  1  0  0  0
 10 11  1  0  0  0
 18 20  1  0  0  0
  4  5  1  0  0  0
 26 27  1  0  0  0
 32 33  1  0  0  0
 32 34  1  0  0  0
M  END
> <minimizedAffinity>
-7.81998

$$$$
