4HBM_0Y7_A_201


 32 34  0  0  0  0  0  0  0  0999 V2000
   18.6471   13.4786   15.6080 C   0  0  0  0  0  0  0  0  0  0  0  0
   19.5209   13.8971   14.4887 N   0  0  0  0  0  0  0  0  0  0  0  0
   20.8170   13.5205   14.3932 C   0  0  0  0  0  0  0  0  0  0  0  0
   21.5346   13.9057   13.4823 O   0  0  0  0  0  0  0  0  0  0  0  0
   21.4237   12.5574   15.4764 C   0  0  0  0  0  0  0  0  0  0  0  0
   20.4153   11.7652   16.2848 C   0  0  0  0  0  0  0  0  0  0  0  0
   19.3331   12.6837   16.7909 C   0  0  0  0  0  0  0  0  0  0  0  0
   15.0974   17.8037   17.7527 Cl  0  0  0  0  0  0  0  0  0  0  0  0
   16.1208   16.5730   17.0801 C   0  0  0  0  0  0  0  0  0  0  0  0
   17.4950   16.6376   17.3426 C   0  0  0  0  0  0  0  0  0  0  0  0
   18.3358   15.6403   16.8492 C   0  0  0  0  0  0  0  0  0  0  0  0
   15.5741   15.5280   16.3190 C   0  0  0  0  0  0  0  0  0  0  0  0
   16.4149   14.5318   15.8247 C   0  0  0  0  0  0  0  0  0  0  0  0
   17.7904   14.5837   16.0941 C   0  0  0  0  0  0  0  0  0  0  0  0
   18.3573   11.9633   17.6919 C   0  0  0  0  0  0  0  0  0  0  0  0
   17.8517   10.6809   17.3725 C   0  0  0  0  0  0  0  0  0  0  0  0
   16.9289   10.0645   18.2163 C   0  0  0  0  0  0  0  0  0  0  0  0
   16.4962   10.7003   19.3799 C   0  0  0  0  0  0  0  0  0  0  0  0
   17.0040   11.9669   19.6920 C   0  0  0  0  0  0  0  0  0  0  0  0
   16.4723   12.7483   21.0952 Cl  0  0  0  0  0  0  0  0  0  0  0  0
   17.9237   12.6028   18.8707 C   0  0  0  0  0  0  0  0  0  0  0  0
   18.9410   14.7704   13.4159 C   0  0  0  0  0  0  0  0  0  0  0  0
   18.6001   13.9346   12.1868 C   0  0  0  0  0  0  0  0  0  0  0  0
   19.5655   14.1650   11.1763 O   0  0  0  0  0  0  0  0  0  0  0  0
   20.4432   13.9141   11.5044 H   0  0  0  0  0  0  0  0  0  0  0  0
   19.7848   15.9774   12.9877 C   0  0  0  0  0  0  0  0  0  0  0  0
   19.8993   17.1390   13.9635 C   0  0  0  0  0  0  0  0  0  0  0  0
   22.3904   13.3122   16.4124 C   0  0  0  0  0  0  0  0  0  0  0  0
   23.1674   12.2603   17.2321 C   0  0  0  0  0  0  0  0  0  0  0  0
   23.0883   12.0698   18.4191 O   0  0  0  0  0  0  0  0  0  0  0  0
   23.9724   11.5415   16.4359 O   0  0  0  0  0  0  0  0  0  0  0  0
   22.5131   12.5946   18.9405 H   0  0  0  0  0  0  0  0  0  0  0  0
 23 24  1  0  0  0
 23 22  1  0  0  0
 26 22  1  0  0  0
 26 27  1  0  0  0
 22  2  1  0  0  0
  4  3  2  0  0  0
  3  2  1  0  0  0
  3  5  1  0  0  0
  2  1  1  0  0  0
  5  6  1  0  0  0
  5 28  1  0  0  0
  1 14  1  0  0  0
  1  7  1  0  0  0
 13 14  2  0  0  0
 13 12  1  0  0  0
 14 11  1  0  0  0
 12  9  2  0  0  0
  6  7  1  0  0  0
 28 29  1  0  0  0
 31 29  2  0  0  0
 11 10  2  0  0  0
  7 15  1  0  0  0
  9 10  1  0  0  0
  9  8  1  0  0  0
 29 30  1  0  0  0
 16 15  2  0  0  0
 16 17  1  0  0  0
 15 21  1  0  0  0
 17 18  2  0  0  0
 21 19  2  0  0  0
 18 19  1  0  0  0
 19 20  1  0  0  0
 24 25  1  0  0  0
 30 32  1  0  0  0
M  END
> <minimizedAffinity>
-9.58166

$$$$
4HBM_0Y7_A_201


 32 34  0  0  0  0  0  0  0  0999 V2000
   17.7462   12.2440   15.6548 C   0  0  0  0  0  0  0  0  0  0  0  0
   18.4112   12.2812   14.3326 N   0  0  0  0  0  0  0  0  0  0  0  0
   19.4479   11.4726   14.0130 C   0  0  0  0  0  0  0  0  0  0  0  0
   20.0097   11.5425   12.9301 O   0  0  0  0  0  0  0  0  0  0  0  0
   19.9472   10.4077   15.0549 C   0  0  0  0  0  0  0  0  0  0  0  0
   18.9615   10.0537   16.1508 C   0  0  0  0  0  0  0  0  0  0  0  0
   18.3973   11.3134   16.7556 C   0  0  0  0  0  0  0  0  0  0  0  0
   16.4384   17.6259   17.9419 Cl  0  0  0  0  0  0  0  0  0  0  0  0
   16.8090   16.0873   17.2277 C   0  0  0  0  0  0  0  0  0  0  0  0
   18.1457   15.6695   17.2108 C   0  0  0  0  0  0  0  0  0  0  0  0
   18.4679   14.4207   16.6802 C   0  0  0  0  0  0  0  0  0  0  0  0
   15.7870   15.2767   16.7097 C   0  0  0  0  0  0  0  0  0  0  0  0
   16.1094   14.0288   16.1781 C   0  0  0  0  0  0  0  0  0  0  0  0
   17.4444   13.5988   16.1691 C   0  0  0  0  0  0  0  0  0  0  0  0
   17.4873   11.0192   17.9254 C   0  0  0  0  0  0  0  0  0  0  0  0
   16.6881    9.8527   17.9758 C   0  0  0  0  0  0  0  0  0  0  0  0
   15.8387    9.6350   19.0595 C   0  0  0  0  0  0  0  0  0  0  0  0
   15.7678   10.5586   20.1023 C   0  0  0  0  0  0  0  0  0  0  0  0
   16.5647   11.7081   20.0480 C   0  0  0  0  0  0  0  0  0  0  0  0
   16.4725   12.8383   21.3037 Cl  0  0  0  0  0  0  0  0  0  0  0  0
   17.4191   11.9494   18.9820 C   0  0  0  0  0  0  0  0  0  0  0  0
   17.9094   13.2532   13.3063 C   0  0  0  0  0  0  0  0  0  0  0  0
   17.0248   12.5351   12.2926 C   0  0  0  0  0  0  0  0  0  0  0  0
   15.6831   12.5442   12.7464 O   0  0  0  0  0  0  0  0  0  0  0  0
   15.3818   13.4608   12.8463 H   0  0  0  0  0  0  0  0  0  0  0  0
   18.9730   14.0683   12.5604 C   0  0  0  0  0  0  0  0  0  0  0  0
   18.9463   15.5805   12.7257 C   0  0  0  0  0  0  0  0  0  0  0  0
   21.3040   10.8192   15.6636 C   0  0  0  0  0  0  0  0  0  0  0  0
   21.9163    9.5705   16.3328 C   0  0  0  0  0  0  0  0  0  0  0  0
   22.1739    9.4328   17.5016 O   0  0  0  0  0  0  0  0  0  0  0  0
   22.1317    8.6063   15.4258 O   0  0  0  0  0  0  0  0  0  0  0  0
   22.0081   10.1317   18.1034 H   0  0  0  0  0  0  0  0  0  0  0  0
 23 24  1  0  0  0
 23 22  1  0  0  0
 26 22  1  0  0  0
 26 27  1  0  0  0
 22  2  1  0  0  0
  4  3  2  0  0  0
  3  2  1  0  0  0
  3  5  1  0  0  0
  2  1  1  0  0  0
  5  6  1  0  0  0
  5 28  1  0  0  0
  1 14  1  0  0  0
  1  7  1  0  0  0
 13 14  2  0  0  0
 13 12  1  0  0  0
 14 11  1  0  0  0
 12  9  2  0  0  0
  6  7  1  0  0  0
 28 29  1  0  0  0
 31 29  2  0  0  0
 11 10  2  0  0  0
  7 15  1  0  0  0
  9 10  1  0  0  0
  9  8  1  0  0  0
 29 30  1  0  0  0
 16 15  2  0  0  0
 16 17  1  0  0  0
 15 21  1  0  0  0
 17 18  2  0  0  0
 21 19  2  0  0  0
 18 19  1  0  0  0
 19 20  1  0  0  0
 24 25  1  0  0  0
 30 32  1  0  0  0
M  END
> <minimizedAffinity>
-8.30547

$$$$
4HBM_0Y7_A_201


 32 34  0  0  0  0  0  0  0  0999 V2000
   18.2871   12.7844   16.2345 C   0  0  0  0  0  0  0  0  0  0  0  0
   18.8089   11.6673   15.4151 N   0  0  0  0  0  0  0  0  0  0  0  0
   18.6559   11.6127   14.0718 C   0  0  0  0  0  0  0  0  0  0  0  0
   19.0600   10.6648   13.4152 O   0  0  0  0  0  0  0  0  0  0  0  0
   17.9446   12.7989   13.3262 C   0  0  0  0  0  0  0  0  0  0  0  0
   17.8857   14.1081   14.0881 C   0  0  0  0  0  0  0  0  0  0  0  0
   17.3963   13.8597   15.4916 C   0  0  0  0  0  0  0  0  0  0  0  0
   15.9500   10.7009   21.3436 Cl  0  0  0  0  0  0  0  0  0  0  0  0
   16.5764   11.3239   19.8490 C   0  0  0  0  0  0  0  0  0  0  0  0
   17.3773   12.4721   19.8938 C   0  0  0  0  0  0  0  0  0  0  0  0
   17.9274   12.9717   18.7136 C   0  0  0  0  0  0  0  0  0  0  0  0
   16.3072   10.6718   18.6357 C   0  0  0  0  0  0  0  0  0  0  0  0
   16.8561   11.1722   17.4558 C   0  0  0  0  0  0  0  0  0  0  0  0
   17.6691   12.3145   17.4949 C   0  0  0  0  0  0  0  0  0  0  0  0
   17.2183   15.1465   16.2631 C   0  0  0  0  0  0  0  0  0  0  0  0
   18.3195   15.9531   16.6358 C   0  0  0  0  0  0  0  0  0  0  0  0
   18.1136   17.1172   17.3746 C   0  0  0  0  0  0  0  0  0  0  0  0
   16.8265   17.4997   17.7521 C   0  0  0  0  0  0  0  0  0  0  0  0
   15.7413   16.6994   17.3761 C   0  0  0  0  0  0  0  0  0  0  0  0
   14.1793   17.1517   17.8429 Cl  0  0  0  0  0  0  0  0  0  0  0  0
   15.9175   15.5365   16.6404 C   0  0  0  0  0  0  0  0  0  0  0  0
   19.5405   10.5545   16.1052 C   0  0  0  0  0  0  0  0  0  0  0  0
   21.0402   10.8308   16.1002 C   0  0  0  0  0  0  0  0  0  0  0  0
   21.4398   11.2923   17.3782 O   0  0  0  0  0  0  0  0  0  0  0  0
   21.2380   10.6162   18.0438 H   0  0  0  0  0  0  0  0  0  0  0  0
   19.2863    9.1381   15.5747 C   0  0  0  0  0  0  0  0  0  0  0  0
   20.4487    8.1569   15.5997 C   0  0  0  0  0  0  0  0  0  0  0  0
   16.5356   12.3901   12.8486 C   0  0  0  0  0  0  0  0  0  0  0  0
   16.4854   12.5799   11.3178 C   0  0  0  0  0  0  0  0  0  0  0  0
   15.4985   12.6055   10.6270 O   0  0  0  0  0  0  0  0  0  0  0  0
   17.7215   12.7291   10.8195 O   0  0  0  0  0  0  0  0  0  0  0  0
   14.6524   12.4972   11.0147 H   0  0  0  0  0  0  0  0  0  0  0  0
 23 24  1  0  0  0
 23 22  1  0  0  0
 26 22  1  0  0  0
 26 27  1  0  0  0
 22  2  1  0  0  0
  4  3  2  0  0  0
  3  2  1  0  0  0
  3  5  1  0  0  0
  2  1  1  0  0  0
  5  6  1  0  0  0
  5 28  1  0  0  0
  1 14  1  0  0  0
  1  7  1  0  0  0
 13 14  2  0  0  0
 13 12  1  0  0  0
 14 11  1  0  0  0
 12  9  2  0  0  0
  6  7  1  0  0  0
 28 29  1  0  0  0
 31 29  2  0  0  0
 11 10  2  0  0  0
  7 15  1  0  0  0
  9 10  1  0  0  0
  9  8  1  0  0  0
 29 30  1  0  0  0
 16 15  2  0  0  0
 16 17  1  0  0  0
 15 21  1  0  0  0
 17 18  2  0  0  0
 21 19  2  0  0  0
 18 19  1  0  0  0
 19 20  1  0  0  0
 24 25  1  0  0  0
 30 32  1  0  0  0
M  END
> <minimizedAffinity>
-7.94223

$$$$
4HBM_0Y7_A_201


 32 34  0  0  0  0  0  0  0  0999 V2000
   19.3948   13.2035   16.7478 C   0  0  0  0  0  0  0  0  0  0  0  0
   20.4500   12.3249   16.1946 N   0  0  0  0  0  0  0  0  0  0  0  0
   20.9492   12.4789   14.9465 C   0  0  0  0  0  0  0  0  0  0  0  0
   21.7934   11.7214   14.4920 O   0  0  0  0  0  0  0  0  0  0  0  0
   20.4388   13.6648   14.0510 C   0  0  0  0  0  0  0  0  0  0  0  0
   19.7709   14.8046   14.7945 C   0  0  0  0  0  0  0  0  0  0  0  0
   18.7506   14.2560   15.7584 C   0  0  0  0  0  0  0  0  0  0  0  0
   15.4172    9.9432   19.8228 Cl  0  0  0  0  0  0  0  0  0  0  0  0
   16.5271   10.9158   18.9082 C   0  0  0  0  0  0  0  0  0  0  0  0
   17.2507   11.9072   19.5830 C   0  0  0  0  0  0  0  0  0  0  0  0
   18.1789   12.6766   18.8820 C   0  0  0  0  0  0  0  0  0  0  0  0
   16.7104   10.6889   17.5353 C   0  0  0  0  0  0  0  0  0  0  0  0
   17.6375   11.4591   16.8343 C   0  0  0  0  0  0  0  0  0  0  0  0
   18.3744   12.4454   17.5063 C   0  0  0  0  0  0  0  0  0  0  0  0
   17.9798   15.3558   16.4507 C   0  0  0  0  0  0  0  0  0  0  0  0
   18.6317   16.4326   17.0971 C   0  0  0  0  0  0  0  0  0  0  0  0
   17.8832   17.4102   17.7509 C   0  0  0  0  0  0  0  0  0  0  0  0
   16.4904   17.3400   17.7746 C   0  0  0  0  0  0  0  0  0  0  0  0
   15.8521   16.2745   17.1291 C   0  0  0  0  0  0  0  0  0  0  0  0
   14.1634   16.1772   17.1662 Cl  0  0  0  0  0  0  0  0  0  0  0  0
   16.5722   15.2885   16.4704 C   0  0  0  0  0  0  0  0  0  0  0  0
   20.9888   11.2227   17.0578 C   0  0  0  0  0  0  0  0  0  0  0  0
   22.4939   11.3876   17.2398 C   0  0  0  0  0  0  0  0  0  0  0  0
   22.7461   12.4129   18.1838 O   0  0  0  0  0  0  0  0  0  0  0  0
   22.3417   12.1769   19.0333 H   0  0  0  0  0  0  0  0  0  0  0  0
   20.6893    9.7896   16.6012 C   0  0  0  0  0  0  0  0  0  0  0  0
   20.1362    8.8213   17.6361 C   0  0  0  0  0  0  0  0  0  0  0  0
   19.5253   13.1526   12.9180 C   0  0  0  0  0  0  0  0  0  0  0  0
   19.5199   14.2182   11.8014 C   0  0  0  0  0  0  0  0  0  0  0  0
   18.5537   14.7593   11.3267 O   0  0  0  0  0  0  0  0  0  0  0  0
   20.7712   14.4942   11.4059 O   0  0  0  0  0  0  0  0  0  0  0  0
   17.6957   14.5377   11.6313 H   0  0  0  0  0  0  0  0  0  0  0  0
 23 24  1  0  0  0
 23 22  1  0  0  0
 26 22  1  0  0  0
 26 27  1  0  0  0
 22  2  1  0  0  0
  4  3  2  0  0  0
  3  2  1  0  0  0
  3  5  1  0  0  0
  2  1  1  0  0  0
  5  6  1  0  0  0
  5 28  1  0  0  0
  1 14  1  0  0  0
  1  7  1  0  0  0
 13 14  2  0  0  0
 13 12  1  0  0  0
 14 11  1  0  0  0
 12  9  2  0  0  0
  6  7  1  0  0  0
 28 29  1  0  0  0
 31 29  2  0  0  0
 11 10  2  0  0  0
  7 15  1  0  0  0
  9 10  1  0  0  0
  9  8  1  0  0  0
 29 30  1  0  0  0
 16 15  2  0  0  0
 16 17  1  0  0  0
 15 21  1  0  0  0
 17 18  2  0  0  0
 21 19  2  0  0  0
 18 19  1  0  0  0
 19 20  1  0  0  0
 24 25  1  0  0  0
 30 32  1  0  0  0
M  END
> <minimizedAffinity>
-7.56514

$$$$
4HBM_0Y7_A_201


 32 34  0  0  0  0  0  0  0  0999 V2000
   19.4816   12.9182   15.2325 C   0  0  0  0  0  0  0  0  0  0  0  0
   19.6480   13.7336   14.0081 N   0  0  0  0  0  0  0  0  0  0  0  0
   18.6871   13.8343   13.0610 C   0  0  0  0  0  0  0  0  0  0  0  0
   18.8554   14.4816   12.0384 O   0  0  0  0  0  0  0  0  0  0  0  0
   17.3114   13.1061   13.2753 C   0  0  0  0  0  0  0  0  0  0  0  0
   16.9904   12.7238   14.7067 C   0  0  0  0  0  0  0  0  0  0  0  0
   18.1758   12.0307   15.3274 C   0  0  0  0  0  0  0  0  0  0  0  0
   24.5426    9.9293   16.3984 Cl  0  0  0  0  0  0  0  0  0  0  0  0
   23.0473   10.7548   16.0866 C   0  0  0  0  0  0  0  0  0  0  0  0
   22.7584   11.9058   16.8304 C   0  0  0  0  0  0  0  0  0  0  0  0
   21.5837   12.6123   16.5734 C   0  0  0  0  0  0  0  0  0  0  0  0
   22.1703   10.2914   15.0935 C   0  0  0  0  0  0  0  0  0  0  0  0
   20.9954   10.9970   14.8376 C   0  0  0  0  0  0  0  0  0  0  0  0
   20.7057   12.1574   15.5703 C   0  0  0  0  0  0  0  0  0  0  0  0
   17.8726   11.5340   16.7218 C   0  0  0  0  0  0  0  0  0  0  0  0
   17.7843   10.1538   17.0209 C   0  0  0  0  0  0  0  0  0  0  0  0
   17.4716    9.7387   18.3145 C   0  0  0  0  0  0  0  0  0  0  0  0
   17.2446   10.6737   19.3244 C   0  0  0  0  0  0  0  0  0  0  0  0
   17.3381   12.0373   19.0224 C   0  0  0  0  0  0  0  0  0  0  0  0
   17.0505   13.1757   20.2404 Cl  0  0  0  0  0  0  0  0  0  0  0  0
   17.6484   12.4780   17.7440 C   0  0  0  0  0  0  0  0  0  0  0  0
   20.9341   14.4811   13.8155 C   0  0  0  0  0  0  0  0  0  0  0  0
   20.6993   15.9791   13.9789 C   0  0  0  0  0  0  0  0  0  0  0  0
   20.6103   16.5854   12.7020 O   0  0  0  0  0  0  0  0  0  0  0  0
   19.8719   16.1944   12.2092 H   0  0  0  0  0  0  0  0  0  0  0  0
   21.6807   14.2276   12.5001 C   0  0  0  0  0  0  0  0  0  0  0  0
   22.7833   13.1792   12.5063 C   0  0  0  0  0  0  0  0  0  0  0  0
   17.1814   11.8794   12.3485 C   0  0  0  0  0  0  0  0  0  0  0  0
   16.5689   12.3606   11.0161 C   0  0  0  0  0  0  0  0  0  0  0  0
   15.4505   12.7749   10.8453 O   0  0  0  0  0  0  0  0  0  0  0  0
   17.4664   12.2701   10.0237 O   0  0  0  0  0  0  0  0  0  0  0  0
   14.8533   12.8222   11.5658 H   0  0  0  0  0  0  0  0  0  0  0  0
 23 24  1  0  0  0
 23 22  1  0  0  0
 26 22  1  0  0  0
 26 27  1  0  0  0
 22  2  1  0  0  0
  4  3  2  0  0  0
  3  2  1  0  0  0
  3  5  1  0  0  0
  2  1  1  0  0  0
  5  6  1  0  0  0
  5 28  1  0  0  0
  1 14  1  0  0  0
  1  7  1  0  0  0
 13 14  2  0  0  0
 13 12  1  0  0  0
 14 11  1  0  0  0
 12  9  2  0  0  0
  6  7  1  0  0  0
 28 29  1  0  0  0
 31 29  2  0  0  0
 11 10  2  0  0  0
  7 15  1  0  0  0
  9 10  1  0  0  0
  9  8  1  0  0  0
 29 30  1  0  0  0
 16 15  2  0  0  0
 16 17  1  0  0  0
 15 21  1  0  0  0
 17 18  2  0  0  0
 21 19  2  0  0  0
 18 19  1  0  0  0
 19 20  1  0  0  0
 24 25  1  0  0  0
 30 32  1  0  0  0
M  END
> <minimizedAffinity>
-7.42052

$$$$
4HBM_0Y7_A_201


 32 34  0  0  0  0  0  0  0  0999 V2000
   18.7383   13.5510   15.4952 C   0  0  0  0  0  0  0  0  0  0  0  0
   19.1077   14.9624   15.2439 N   0  0  0  0  0  0  0  0  0  0  0  0
   18.6086   15.9889   15.9704 C   0  0  0  0  0  0  0  0  0  0  0  0
   18.8952   17.1511   15.7253 O   0  0  0  0  0  0  0  0  0  0  0  0
   17.6366   15.6876   17.1676 C   0  0  0  0  0  0  0  0  0  0  0  0
   17.6820   14.2711   17.7056 C   0  0  0  0  0  0  0  0  0  0  0  0
   17.6028   13.2896   16.5648 C   0  0  0  0  0  0  0  0  0  0  0  0
   17.8877   10.7057   10.2906 Cl  0  0  0  0  0  0  0  0  0  0  0  0
   18.0962   11.4962   11.8223 C   0  0  0  0  0  0  0  0  0  0  0  0
   19.2713   11.2463   12.5422 C   0  0  0  0  0  0  0  0  0  0  0  0
   19.4843   11.8984   13.7565 C   0  0  0  0  0  0  0  0  0  0  0  0
   17.1219   12.3833   12.3057 C   0  0  0  0  0  0  0  0  0  0  0  0
   17.3343   13.0342   13.5202 C   0  0  0  0  0  0  0  0  0  0  0  0
   18.5144   12.7980   14.2405 C   0  0  0  0  0  0  0  0  0  0  0  0
   17.5381   11.8611   17.0529 C   0  0  0  0  0  0  0  0  0  0  0  0
   18.4465   10.8749   16.6010 C   0  0  0  0  0  0  0  0  0  0  0  0
   18.3321    9.5611   17.0532 C   0  0  0  0  0  0  0  0  0  0  0  0
   17.3273    9.2051   17.9527 C   0  0  0  0  0  0  0  0  0  0  0  0
   16.4350   10.1870   18.3991 C   0  0  0  0  0  0  0  0  0  0  0  0
   15.2060    9.7577   19.4797 Cl  0  0  0  0  0  0  0  0  0  0  0  0
   16.5263   11.5018   17.9660 C   0  0  0  0  0  0  0  0  0  0  0  0
   20.0790   15.2624   14.1409 C   0  0  0  0  0  0  0  0  0  0  0  0
   21.5093   15.1639   14.6607 C   0  0  0  0  0  0  0  0  0  0  0  0
   22.1200   13.9947   14.1447 O   0  0  0  0  0  0  0  0  0  0  0  0
   22.1304   14.0362   13.1757 H   0  0  0  0  0  0  0  0  0  0  0  0
   19.8963   16.6014   13.4158 C   0  0  0  0  0  0  0  0  0  0  0  0
   19.0284   16.6136   12.1664 C   0  0  0  0  0  0  0  0  0  0  0  0
   16.1868   16.0852   16.8201 C   0  0  0  0  0  0  0  0  0  0  0  0
   15.8168   17.3109   17.6820 C   0  0  0  0  0  0  0  0  0  0  0  0
   16.5358   17.8913   18.4552 O   0  0  0  0  0  0  0  0  0  0  0  0
   14.5476   17.6808   17.4569 O   0  0  0  0  0  0  0  0  0  0  0  0
   17.4172   17.6006   18.5839 H   0  0  0  0  0  0  0  0  0  0  0  0
 23 24  1  0  0  0
 23 22  1  0  0  0
 26 22  1  0  0  0
 26 27  1  0  0  0
 22  2  1  0  0  0
  4  3  2  0  0  0
  3  2  1  0  0  0
  3  5  1  0  0  0
  2  1  1  0  0  0
  5  6  1  0  0  0
  5 28  1  0  0  0
  1 14  1  0  0  0
  1  7  1  0  0  0
 13 14  2  0  0  0
 13 12  1  0  0  0
 14 11  1  0  0  0
 12  9  2  0  0  0
  6  7  1  0  0  0
 28 29  1  0  0  0
 31 29  2  0  0  0
 11 10  2  0  0  0
  7 15  1  0  0  0
  9 10  1  0  0  0
  9  8  1  0  0  0
 29 30  1  0  0  0
 16 15  2  0  0  0
 16 17  1  0  0  0
 15 21  1  0  0  0
 17 18  2  0  0  0
 21 19  2  0  0  0
 18 19  1  0  0  0
 19 20  1  0  0  0
 24 25  1  0  0  0
 30 32  1  0  0  0
M  END
> <minimizedAffinity>
-7.23539

$$$$
4HBM_0Y7_A_201


 32 34  0  0  0  0  0  0  0  0999 V2000
   19.5580   11.9287   15.8197 C   0  0  0  0  0  0  0  0  0  0  0  0
   19.2100   10.6982   16.5657 N   0  0  0  0  0  0  0  0  0  0  0  0
   18.2318   10.6619   17.4997 C   0  0  0  0  0  0  0  0  0  0  0  0
   17.9828    9.6470   18.1330 O   0  0  0  0  0  0  0  0  0  0  0  0
   17.3838   11.9543   17.7814 C   0  0  0  0  0  0  0  0  0  0  0  0
   17.4119   13.0052   16.6892 C   0  0  0  0  0  0  0  0  0  0  0  0
   18.8351   13.2629   16.2661 C   0  0  0  0  0  0  0  0  0  0  0  0
   25.4381   12.8372   15.1096 Cl  0  0  0  0  0  0  0  0  0  0  0  0
   23.7440   12.5187   15.3161 C   0  0  0  0  0  0  0  0  0  0  0  0
   23.1681   12.7811   16.5656 C   0  0  0  0  0  0  0  0  0  0  0  0
   21.8012   12.5731   16.7487 C   0  0  0  0  0  0  0  0  0  0  0  0
   22.9727   12.0388   14.2461 C   0  0  0  0  0  0  0  0  0  0  0  0
   21.6066   11.8296   14.4297 C   0  0  0  0  0  0  0  0  0  0  0  0
   21.0210   12.1019   15.6748 C   0  0  0  0  0  0  0  0  0  0  0  0
   18.9291   14.3793   15.2523 C   0  0  0  0  0  0  0  0  0  0  0  0
   19.1576   15.7215   15.6375 C   0  0  0  0  0  0  0  0  0  0  0  0
   19.2063   16.7260   14.6722 C   0  0  0  0  0  0  0  0  0  0  0  0
   19.0327   16.4217   13.3221 C   0  0  0  0  0  0  0  0  0  0  0  0
   18.8116   15.0911   12.9477 C   0  0  0  0  0  0  0  0  0  0  0  0
   18.5869   14.7185   11.3128 Cl  0  0  0  0  0  0  0  0  0  0  0  0
   18.7591   14.0719   13.8874 C   0  0  0  0  0  0  0  0  0  0  0  0
   19.9722    9.4411   16.2678 C   0  0  0  0  0  0  0  0  0  0  0  0
   19.0567    8.4177   15.6046 C   0  0  0  0  0  0  0  0  0  0  0  0
   19.7111    7.1627   15.5516 O   0  0  0  0  0  0  0  0  0  0  0  0
   19.9237    6.8707   16.4518 H   0  0  0  0  0  0  0  0  0  0  0  0
   20.6923    8.7827   17.4511 C   0  0  0  0  0  0  0  0  0  0  0  0
   22.2115    8.8570   17.4814 C   0  0  0  0  0  0  0  0  0  0  0  0
   17.7595   12.5804   19.1406 C   0  0  0  0  0  0  0  0  0  0  0  0
   16.7513   12.0651   20.1895 C   0  0  0  0  0  0  0  0  0  0  0  0
   16.2057   10.9910   20.1973 O   0  0  0  0  0  0  0  0  0  0  0  0
   16.5473   12.9874   21.1415 O   0  0  0  0  0  0  0  0  0  0  0  0
   16.3756   10.3741   19.5128 H   0  0  0  0  0  0  0  0  0  0  0  0
 23 24  1  0  0  0
 23 22  1  0  0  0
 26 22  1  0  0  0
 26 27  1  0  0  0
 22  2  1  0  0  0
  4  3  2  0  0  0
  3  2  1  0  0  0
  3  5  1  0  0  0
  2  1  1  0  0  0
  5  6  1  0  0  0
  5 28  1  0  0  0
  1 14  1  0  0  0
  1  7  1  0  0  0
 13 14  2  0  0  0
 13 12  1  0  0  0
 14 11  1  0  0  0
 12  9  2  0  0  0
  6  7  1  0  0  0
 28 29  1  0  0  0
 31 29  2  0  0  0
 11 10  2  0  0  0
  7 15  1  0  0  0
  9 10  1  0  0  0
  9  8  1  0  0  0
 29 30  1  0  0  0
 16 15  2  0  0  0
 16 17  1  0  0  0
 15 21  1  0  0  0
 17 18  2  0  0  0
 21 19  2  0  0  0
 18 19  1  0  0  0
 19 20  1  0  0  0
 24 25  1  0  0  0
 30 32  1  0  0  0
M  END
> <minimizedAffinity>
-7.15583

$$$$
4HBM_0Y7_A_201


 32 34  0  0  0  0  0  0  0  0999 V2000
   20.3653   12.1019   16.3436 C   0  0  0  0  0  0  0  0  0  0  0  0
   21.3560   12.9081   15.5951 N   0  0  0  0  0  0  0  0  0  0  0  0
   21.0915   14.1558   15.1434 C   0  0  0  0  0  0  0  0  0  0  0  0
   21.9078   14.7928   14.4946 O   0  0  0  0  0  0  0  0  0  0  0  0
   19.7007   14.8140   15.4612 C   0  0  0  0  0  0  0  0  0  0  0  0
   18.9361   14.2003   16.6174 C   0  0  0  0  0  0  0  0  0  0  0  0
   18.9068   12.7007   16.4705 C   0  0  0  0  0  0  0  0  0  0  0  0
   20.1605    6.3208   14.7805 Cl  0  0  0  0  0  0  0  0  0  0  0  0
   20.2737    7.9972   15.2178 C   0  0  0  0  0  0  0  0  0  0  0  0
   19.6562    8.9415   14.3879 C   0  0  0  0  0  0  0  0  0  0  0  0
   19.6963   10.2915   14.7357 C   0  0  0  0  0  0  0  0  0  0  0  0
   20.9429    8.3853   16.3890 C   0  0  0  0  0  0  0  0  0  0  0  0
   20.9839    9.7351   16.7358 C   0  0  0  0  0  0  0  0  0  0  0  0
   20.3572   10.6848   15.9158 C   0  0  0  0  0  0  0  0  0  0  0  0
   18.0664   12.0452   17.5414 C   0  0  0  0  0  0  0  0  0  0  0  0
   17.5190   10.7511   17.3742 C   0  0  0  0  0  0  0  0  0  0  0  0
   16.7230   10.1955   18.3748 C   0  0  0  0  0  0  0  0  0  0  0  0
   16.4593   10.9038   19.5470 C   0  0  0  0  0  0  0  0  0  0  0  0
   17.0079   12.1816   19.7076 C   0  0  0  0  0  0  0  0  0  0  0  0
   16.6800   13.0506   21.1217 Cl  0  0  0  0  0  0  0  0  0  0  0  0
   17.8038   12.7581   18.7284 C   0  0  0  0  0  0  0  0  0  0  0  0
   22.7089   12.3159   15.3326 C   0  0  0  0  0  0  0  0  0  0  0  0
   23.7579   12.9984   16.2041 C   0  0  0  0  0  0  0  0  0  0  0  0
   24.6275   13.7611   15.3867 O   0  0  0  0  0  0  0  0  0  0  0  0
   24.1162   14.4336   14.9100 H   0  0  0  0  0  0  0  0  0  0  0  0
   23.1843   12.3188   13.8745 C   0  0  0  0  0  0  0  0  0  0  0  0
   22.4089   11.4692   12.8788 C   0  0  0  0  0  0  0  0  0  0  0  0
   18.8131   14.8743   14.2006 C   0  0  0  0  0  0  0  0  0  0  0  0
   18.9301   16.2961   13.6117 C   0  0  0  0  0  0  0  0  0  0  0  0
   18.5981   16.6485   12.5084 O   0  0  0  0  0  0  0  0  0  0  0  0
   19.4597   17.1379   14.5114 O   0  0  0  0  0  0  0  0  0  0  0  0
   18.2317   16.0284   11.9090 H   0  0  0  0  0  0  0  0  0  0  0  0
 23 24  1  0  0  0
 23 22  1  0  0  0
 26 22  1  0  0  0
 26 27  1  0  0  0
 22  2  1  0  0  0
  4  3  2  0  0  0
  3  2  1  0  0  0
  3  5  1  0  0  0
  2  1  1  0  0  0
  5  6  1  0  0  0
  5 28  1  0  0  0
  1 14  1  0  0  0
  1  7  1  0  0  0
 13 14  2  0  0  0
 13 12  1  0  0  0
 14 11  1  0  0  0
 12  9  2  0  0  0
  6  7  1  0  0  0
 28 29  1  0  0  0
 31 29  2  0  0  0
 11 10  2  0  0  0
  7 15  1  0  0  0
  9 10  1  0  0  0
  9  8  1  0  0  0
 29 30  1  0  0  0
 16 15  2  0  0  0
 16 17  1  0  0  0
 15 21  1  0  0  0
 17 18  2  0  0  0
 21 19  2  0  0  0
 18 19  1  0  0  0
 19 20  1  0  0  0
 24 25  1  0  0  0
 30 32  1  0  0  0
M  END
> <minimizedAffinity>
-7.00462

$$$$
4HBM_0Y7_A_201


 32 34  0  0  0  0  0  0  0  0999 V2000
   18.8077   12.1826   16.0606 C   0  0  0  0  0  0  0  0  0  0  0  0
   18.1381   13.0385   17.0659 N   0  0  0  0  0  0  0  0  0  0  0  0
   17.6176   12.5469   18.2139 C   0  0  0  0  0  0  0  0  0  0  0  0
   17.0349   13.2618   19.0154 O   0  0  0  0  0  0  0  0  0  0  0  0
   17.7658   11.0162   18.5364 C   0  0  0  0  0  0  0  0  0  0  0  0
   18.8573   10.2906   17.7748 C   0  0  0  0  0  0  0  0  0  0  0  0
   18.7613   10.6210   16.3076 C   0  0  0  0  0  0  0  0  0  0  0  0
   17.4031   13.4505   10.3750 Cl  0  0  0  0  0  0  0  0  0  0  0  0
   17.8095   13.1381   12.0338 C   0  0  0  0  0  0  0  0  0  0  0  0
   16.8189   12.6081   12.8701 C   0  0  0  0  0  0  0  0  0  0  0  0
   17.1282   12.3093   14.1968 C   0  0  0  0  0  0  0  0  0  0  0  0
   19.1069   13.3852   12.5091 C   0  0  0  0  0  0  0  0  0  0  0  0
   19.4156   13.0876   13.8357 C   0  0  0  0  0  0  0  0  0  0  0  0
   18.4318   12.5453   14.6755 C   0  0  0  0  0  0  0  0  0  0  0  0
   19.7617    9.8409   15.4869 C   0  0  0  0  0  0  0  0  0  0  0  0
   19.3568    8.8752   14.5352 C   0  0  0  0  0  0  0  0  0  0  0  0
   20.3135    8.1552   13.8211 C   0  0  0  0  0  0  0  0  0  0  0  0
   21.6739    8.3778   14.0340 C   0  0  0  0  0  0  0  0  0  0  0  0
   22.0671    9.3378   14.9737 C   0  0  0  0  0  0  0  0  0  0  0  0
   23.7160    9.6021   15.2455 Cl  0  0  0  0  0  0  0  0  0  0  0  0
   21.1364   10.0689   15.6975 C   0  0  0  0  0  0  0  0  0  0  0  0
   18.0386   14.5113   16.7995 C   0  0  0  0  0  0  0  0  0  0  0  0
   19.2057   15.2425   17.4544 C   0  0  0  0  0  0  0  0  0  0  0  0
   18.8801   16.6127   17.6049 O   0  0  0  0  0  0  0  0  0  0  0  0
   18.0912   16.6982   18.1628 H   0  0  0  0  0  0  0  0  0  0  0  0
   16.7251   15.1913   17.2051 C   0  0  0  0  0  0  0  0  0  0  0  0
   15.6538   15.3488   16.1364 C   0  0  0  0  0  0  0  0  0  0  0  0
   16.4185   10.2815   18.3768 C   0  0  0  0  0  0  0  0  0  0  0  0
   15.7174   10.2825   19.7518 C   0  0  0  0  0  0  0  0  0  0  0  0
   15.9932   10.9721   20.7005 O   0  0  0  0  0  0  0  0  0  0  0  0
   14.7133    9.3938   19.7707 O   0  0  0  0  0  0  0  0  0  0  0  0
   16.7031   11.5812   20.6464 H   0  0  0  0  0  0  0  0  0  0  0  0
 23 24  1  0  0  0
 23 22  1  0  0  0
 26 22  1  0  0  0
 26 27  1  0  0  0
 22  2  1  0  0  0
  4  3  2  0  0  0
  3  2  1  0  0  0
  3  5  1  0  0  0
  2  1  1  0  0  0
  5  6  1  0  0  0
  5 28  1  0  0  0
  1 14  1  0  0  0
  1  7  1  0  0  0
 13 14  2  0  0  0
 13 12  1  0  0  0
 14 11  1  0  0  0
 12  9  2  0  0  0
  6  7  1  0  0  0
 28 29  1  0  0  0
 31 29  2  0  0  0
 11 10  2  0  0  0
  7 15  1  0  0  0
  9 10  1  0  0  0
  9  8  1  0  0  0
 29 30  1  0  0  0
 16 15  2  0  0  0
 16 17  1  0  0  0
 15 21  1  0  0  0
 17 18  2  0  0  0
 21 19  2  0  0  0
 18 19  1  0  0  0
 19 20  1  0  0  0
 24 25  1  0  0  0
 30 32  1  0  0  0
M  END
> <minimizedAffinity>
-6.89884

$$$$
4HBM_0Y7_A_201


 32 34  0  0  0  0  0  0  0  0999 V2000
   19.6600   12.5632   16.9921 C   0  0  0  0  0  0  0  0  0  0  0  0
   20.5977   13.3475   16.1571 N   0  0  0  0  0  0  0  0  0  0  0  0
   20.3545   14.6270   15.7902 C   0  0  0  0  0  0  0  0  0  0  0  0
   21.1215   15.2476   15.0693 O   0  0  0  0  0  0  0  0  0  0  0  0
   19.0547   15.3446   16.3044 C   0  0  0  0  0  0  0  0  0  0  0  0
   18.4026   14.7214   17.5226 C   0  0  0  0  0  0  0  0  0  0  0  0
   18.2664   13.2339   17.3232 C   0  0  0  0  0  0  0  0  0  0  0  0
   19.2564    6.9622   14.9011 Cl  0  0  0  0  0  0  0  0  0  0  0  0
   19.3185    8.5835   15.5190 C   0  0  0  0  0  0  0  0  0  0  0  0
   19.9335    8.7967   16.7592 C   0  0  0  0  0  0  0  0  0  0  0  0
   20.0340   10.0938   17.2616 C   0  0  0  0  0  0  0  0  0  0  0  0
   18.7904    9.6508   14.7761 C   0  0  0  0  0  0  0  0  0  0  0  0
   18.8897   10.9473   15.2791 C   0  0  0  0  0  0  0  0  0  0  0  0
   19.5153   11.1695   16.5147 C   0  0  0  0  0  0  0  0  0  0  0  0
   17.5261   12.5770   18.4648 C   0  0  0  0  0  0  0  0  0  0  0  0
   17.4610   13.1649   19.7503 C   0  0  0  0  0  0  0  0  0  0  0  0
   16.7937   12.5100   20.7843 C   0  0  0  0  0  0  0  0  0  0  0  0
   16.1842   11.2747   20.5652 C   0  0  0  0  0  0  0  0  0  0  0  0
   16.2486   10.7011   19.2900 C   0  0  0  0  0  0  0  0  0  0  0  0
   15.5226    9.1966   19.0223 Cl  0  0  0  0  0  0  0  0  0  0  0  0
   16.9054   11.3312   18.2430 C   0  0  0  0  0  0  0  0  0  0  0  0
   21.8706   12.6954   15.7051 C   0  0  0  0  0  0  0  0  0  0  0  0
   23.0173   13.0858   16.6315 C   0  0  0  0  0  0  0  0  0  0  0  0
   22.8514   12.4461   17.8842 O   0  0  0  0  0  0  0  0  0  0  0  0
   22.8506   11.4843   17.7585 H   0  0  0  0  0  0  0  0  0  0  0  0
   22.2879   12.9474   14.2510 C   0  0  0  0  0  0  0  0  0  0  0  0
   21.6995   12.0393   13.1814 C   0  0  0  0  0  0  0  0  0  0  0  0
   18.0245   15.5101   15.1678 C   0  0  0  0  0  0  0  0  0  0  0  0
   16.6475   15.7666   15.8160 C   0  0  0  0  0  0  0  0  0  0  0  0
   16.3442   16.6969   16.5189 O   0  0  0  0  0  0  0  0  0  0  0  0
   15.7823   14.7963   15.4865 O   0  0  0  0  0  0  0  0  0  0  0  0
   16.9790   17.3544   16.7256 H   0  0  0  0  0  0  0  0  0  0  0  0
 23 24  1  0  0  0
 23 22  1  0  0  0
 26 22  1  0  0  0
 26 27  1  0  0  0
 22  2  1  0  0  0
  4  3  2  0  0  0
  3  2  1  0  0  0
  3  5  1  0  0  0
  2  1  1  0  0  0
  5  6  1  0  0  0
  5 28  1  0  0  0
  1 14  1  0  0  0
  1  7  1  0  0  0
 13 14  2  0  0  0
 13 12  1  0  0  0
 14 11  1  0  0  0
 12  9  2  0  0  0
  6  7  1  0  0  0
 28 29  1  0  0  0
 31 29  2  0  0  0
 11 10  2  0  0  0
  7 15  1  0  0  0
  9 10  1  0  0  0
  9  8  1  0  0  0
 29 30  1  0  0  0
 16 15  2  0  0  0
 16 17  1  0  0  0
 15 21  1  0  0  0
 17 18  2  0  0  0
 21 19  2  0  0  0
 18 19  1  0  0  0
 19 20  1  0  0  0
 24 25  1  0  0  0
 30 32  1  0  0  0
M  END
> <minimizedAffinity>
-6.83276

$$$$
