3SUT_OAN_A_2000
  RCSB PDB12061710473D
Coordinates from PDB:3SUT:A:2000 Model:1 without hydrogens
 25 26  0  0  0  0            999 V2000
   32.4220  -20.5560   17.9330   C 0  0  0  0  0  0  0  0  0  0  0  0
   33.3760  -19.8100   17.0460   C 0  0  0  0  0  0  0  0  0  0  0  0
   33.3110  -19.8900   15.8240   O 0  0  0  0  0  0  0  0  0  0  0  0
   34.2730  -19.0900   17.7120   N 0  0  0  0  0  0  0  0  0  0  0  0
   35.2680  -18.2410   17.0460   C 0  0  0  0  0  0  0  0  0  0  0  0
   34.6120  -16.8860   16.5930   C 0  0  0  0  0  0  0  0  0  0  0  0
   34.7150  -15.8780   17.6110   O 0  0  0  0  0  0  0  0  0  0  0  0
   35.2680  -16.3990   15.2920   C 0  0  0  0  0  0  0  0  0  0  0  0
   34.6490  -15.1640   14.8480   O 0  0  0  0  0  0  0  0  0  0  0  0
   35.0590  -17.4870   14.2510   C 0  0  0  0  0  0  0  0  0  0  0  0
   35.5360  -17.0210   12.8770   C 0  0  0  0  0  0  0  0  0  0  0  0
   35.2140  -18.0650   11.9610   O 0  0  0  0  0  0  0  0  0  0  0  0
   35.7710  -18.7020   14.6590   O 0  0  0  0  0  0  0  0  0  0  0  0
   36.0560  -18.8410   16.0060   C 0  0  0  0  0  0  0  0  0  0  0  0
   36.8030  -19.9320   16.1370   N 0  0  0  0  0  0  0  0  0  0  0  0
   38.1310  -19.6790   15.6270   O 0  0  0  0  0  0  0  0  0  0  0  0
   39.0970  -20.5490   15.2760   C 0  0  0  0  0  0  0  0  0  0  0  0
   39.3150  -21.4650   16.0880   O 0  0  0  0  0  0  0  0  0  0  0  0
   39.9950  -20.1600   14.3350   N 0  0  0  0  0  0  0  0  0  0  0  0
   41.1710  -20.7840   14.1310   C 0  0  0  0  0  0  0  0  0  0  0  0
   41.3800  -22.1050   14.5820   C 0  0  0  0  0  0  0  0  0  0  0  0
   42.5750  -22.7890   14.3050   C 0  0  0  0  0  0  0  0  0  0  0  0
   43.5440  -22.1400   13.5280   C 0  0  0  0  0  0  0  0  0  0  0  0
   43.3400  -20.8420   13.0340   C 0  0  0  0  0  0  0  0  0  0  0  0
   42.1480  -20.1700   13.3250   C 0  0  0  0  0  0  0  0  0  0  0  0
  1  2  1  0  0  0  0
  2  3  2  0  0  0  0
  2  4  1  0  0  0  0
  4  5  1  0  0  0  0
  5  6  1  0  0  0  0
  5 14  1  0  0  0  0
  6  7  1  0  0  0  0
  6  8  1  0  0  0  0
  8  9  1  0  0  0  0
  8 10  1  0  0  0  0
 10 11  1  0  0  0  0
 10 13  1  0  0  0  0
 11 12  1  0  0  0  0
 13 14  1  0  0  0  0
 14 15  2  0  0  0  0
 15 16  1  0  0  0  0
 16 17  1  0  0  0  0
 17 18  2  0  0  0  0
 17 19  1  0  0  0  0
 19 20  1  0  0  0  0
 20 21  2  0  0  0  0
 20 25  1  0  0  0  0
 21 22  1  0  0  0  0
 22 23  2  0  0  0  0
 23 24  1  0  0  0  0
 24 25  2  0  0  0  0
A    1
CAH
A    2
CAG
A    3
OAN
A    4
NAI
A    5
CAB
A    6
CAC
A    7
OAJ
A    8
CAD
A    9
OAK
A   10
CAE
A   11
CAF
A   12
OAM
A   13
OAL
A   14
CAA
A   15
NAY
A   16
OAQ
A   17
CAP
A   18
OAR
A   19
NAO
A   20
CAS
A   21
CAT
A   22
CAU
A   23
CAV
A   24
CAW
A   25
CAX
M  END
>  <InstanceId>
3SUT_OAN_A_2000

>  <ChemCompId>
OAN

>  <PdbId>
3SUT

>  <ChainId>
A

>  <ResidueNumber>
2000

>  <InsertionCode>


>  <Model>
1

>  <AltIds>


>  <MissingHeavyAtoms>
0

>  <ObservedFormula>
C15 N3 O7

>  <Name>
O-(2-ACETAMIDO-2-DEOXY D-GLUCOPYRANOSYLIDENE) AMINO-N-PHENYLCARBAMATE

>  <SystematicName>
[(Z)-[(3R,4R,5S,6R)-3-acetamido-6-(hydroxymethyl)-4,5-bis(oxidanyl)oxan-2-ylidene]amino] N-phenylcarbamate

>  <Synonyms>
PUGNAc

>  <Type>
NON-POLYMER

>  <Formula>
C15 H19 N3 O7

>  <MolecularWeight>
353.327

>  <ModifiedDate>
2011-08-15

>  <Parent>


>  <OneLetterCode>


>  <SubcomponentList>


>  <AmbiguousFlag>
N

>  <InChI>
InChI=1S/C15H19N3O7/c1-8(20)16-11-13(22)12(21)10(7-19)24-14(11)18-25-15(23)17-9-5-3-2-4-6-9/h2-6,10-13,19,21-22H,7H2,1H3,(H,16,20)(H,17,23)/b18-14-/t10-,11-,12-,13-/m1/s1

>  <InChIKey>
PBLNJFVQMUMOJY-JXZOILRNSA-N

>  <SMILES>
CC(=O)N[C@@H]\1[C@H]([C@@H]([C@H](O/C1=N\OC(=O)Nc2ccccc2)CO)O)O

$$$$
