3COZ_54H_A_401


 37 39  0  0  0  0  0  0  0  0999 V2000
   13.0070   10.4210    1.7858 C   0  0  0  0  0  0  0  0  0  0  0  0
   13.3258   10.8296    0.4147 O   0  0  0  0  0  0  0  0  0  0  0  0
   13.4520    8.9627    1.9311 C   0  0  0  0  0  0  0  0  0  0  0  0
   12.2929    8.1852    1.8670 O   0  0  0  0  0  0  0  0  0  0  0  0
   14.3151    8.7389    0.6929 C   0  0  0  0  0  0  0  0  0  0  0  0
   14.3308    7.3629    0.2433 O   0  0  0  0  0  0  0  0  0  0  0  0
   13.6043    9.6473   -0.3167 C   0  0  0  0  0  0  0  0  0  0  0  0
   11.8094    8.3922    1.0520 H   0  0  0  0  0  0  0  0  0  0  0  0
   13.4230    7.0695    0.0682 H   0  0  0  0  0  0  0  0  0  0  0  0
   14.1065    9.8321   -2.7438 C   0  0  0  0  0  0  0  0  0  0  0  0
   15.1908   10.1886   -3.5515 C   0  0  0  0  0  0  0  0  0  0  0  0
   15.0146   10.1246   -4.9282 C   0  0  0  0  0  0  0  0  0  0  0  0
   15.7861   10.3468   -1.4714 C   0  0  0  0  0  0  0  0  0  0  0  0
   13.8009    9.7488   -5.4149 N   0  0  0  0  0  0  0  0  0  0  0  0
   12.9262    9.4715   -3.2903 N   0  0  0  0  0  0  0  0  0  0  0  0
   14.4978    9.9423   -1.4793 N   0  0  0  0  0  0  0  0  0  0  0  0
   16.2130   10.4917   -2.7416 N   0  0  0  0  0  0  0  0  0  0  0  0
   12.7856    9.4370   -4.6152 C   0  0  0  0  0  0  0  0  0  0  0  0
   16.0117   10.4164   -5.7615 N   0  0  0  0  0  0  0  0  0  0  0  0
   16.8881   10.6878   -5.4045 H   0  0  0  0  0  0  0  0  0  0  0  0
   15.8723   10.3606   -6.7345 H   0  0  0  0  0  0  0  0  0  0  0  0
   13.8004   11.2625    2.7604 C   0  0  0  0  0  0  0  0  0  0  0  0
   15.2194   10.9957    2.6233 O   0  0  0  0  0  0  0  0  0  0  0  0
   16.1561   11.5609    3.5733 S   0  0  0  0  0  0  0  0  0  0  0  0
   17.5005   11.1130    3.1138 O   0  0  0  0  0  0  0  0  0  0  0  0
   15.9773   13.0654    3.5528 O   0  0  0  0  0  0  0  0  0  0  0  0
   15.9173    9.6770    5.3926 C   0  0  0  0  0  0  0  0  0  0  0  0
   16.0449    8.7789    4.5557 O   0  0  0  0  0  0  0  0  0  0  0  0
   15.9462   10.9860    5.0977 N   0  0  0  0  0  0  0  0  0  0  0  0
   15.8362   11.6336    5.8311 H   0  0  0  0  0  0  0  0  0  0  0  0
   15.7728    9.3367    6.9100 C   0  0  0  0  0  0  0  0  0  0  0  0
   16.6858    8.2160    7.2861 N   0  0  0  0  0  0  0  0  0  0  0  0
   16.4080    7.3697    6.7890 H   0  0  0  0  0  0  0  0  0  0  0  0
   16.6288    8.0539    8.2915 H   0  0  0  0  0  0  0  0  0  0  0  0
   14.0204    9.7084    8.7179 C   0  0  0  0  0  0  0  0  0  0  0  0
   14.3263    9.0571    7.3774 C   0  0  0  0  0  0  0  0  0  0  0  0
   14.0534    7.5542    7.4461 C   0  0  0  0  0  0  0  0  0  0  0  0
 10 11  2  0  0  0
 10 15  1  0  0  0
 10 16  1  0  0  0
 11 12  1  0  0  0
 11 17  1  0  0  0
 12 14  2  0  0  0
 12 19  1  0  0  0
 13 16  1  0  0  0
 13 17  2  0  0  0
 14 18  1  0  0  0
 15 18  2  0  0  0
 35 36  1  0  0  0
 36 37  1  0  0  0
 36 31  1  0  0  0
 31 32  1  0  0  0
 31 27  1  0  0  0
 27 28  2  0  0  0
 27 29  1  0  0  0
 29 24  1  0  0  0
 24 25  2  0  0  0
 24 26  2  0  0  0
 24 23  1  0  0  0
 23 22  1  0  0  0
 22  1  1  0  0  0
  1  2  1  0  0  0
  1  3  1  0  0  0
  2  7  1  0  0  0
  3  4  1  0  0  0
  3  5  1  0  0  0
  5  6  1  0  0  0
  5  7  1  0  0  0
  7 16  1  0  0  0
 32 33  1  0  0  0
 32 34  1  0  0  0
 29 30  1  0  0  0
  4  8  1  0  0  0
  6  9  1  0  0  0
 19 20  1  0  0  0
 19 21  1  0  0  0
M  END
> <minimizedAffinity>
-11.25834

$$$$
3COZ_54H_A_401


 37 39  0  0  0  0  0  0  0  0999 V2000
   13.1667   10.4215    1.8848 C   0  0  0  0  0  0  0  0  0  0  0  0
   13.4747   10.8592    0.5203 O   0  0  0  0  0  0  0  0  0  0  0  0
   13.5337    8.9370    1.9701 C   0  0  0  0  0  0  0  0  0  0  0  0
   12.3321    8.2265    1.9103 O   0  0  0  0  0  0  0  0  0  0  0  0
   14.3532    8.7094    0.7034 C   0  0  0  0  0  0  0  0  0  0  0  0
   14.2820    7.3509    0.2081 O   0  0  0  0  0  0  0  0  0  0  0  0
   13.6698    9.6895   -0.2569 C   0  0  0  0  0  0  0  0  0  0  0  0
   11.8414    8.4875    1.1153 H   0  0  0  0  0  0  0  0  0  0  0  0
   13.3554    7.1137    0.0469 H   0  0  0  0  0  0  0  0  0  0  0  0
   14.1461    9.8507   -2.6908 C   0  0  0  0  0  0  0  0  0  0  0  0
   15.2208   10.2024   -3.5135 C   0  0  0  0  0  0  0  0  0  0  0  0
   15.0305   10.1235   -4.8875 C   0  0  0  0  0  0  0  0  0  0  0  0
   15.8371   10.3841   -1.4414 C   0  0  0  0  0  0  0  0  0  0  0  0
   13.8131    9.7388   -5.3576 N   0  0  0  0  0  0  0  0  0  0  0  0
   12.9615    9.4807   -3.2213 N   0  0  0  0  0  0  0  0  0  0  0  0
   14.5501    9.9753   -1.4317 N   0  0  0  0  0  0  0  0  0  0  0  0
   16.2503   10.5171   -2.7174 N   0  0  0  0  0  0  0  0  0  0  0  0
   12.8071    9.4320   -4.5442 C   0  0  0  0  0  0  0  0  0  0  0  0
   16.0179   10.4099   -5.7341 N   0  0  0  0  0  0  0  0  0  0  0  0
   16.8971   10.6879   -5.3891 H   0  0  0  0  0  0  0  0  0  0  0  0
   15.8686   10.3436   -6.7050 H   0  0  0  0  0  0  0  0  0  0  0  0
   14.0286   11.1844    2.8660 C   0  0  0  0  0  0  0  0  0  0  0  0
   15.3821   11.3118    2.3607 O   0  0  0  0  0  0  0  0  0  0  0  0
   16.4607   11.6602    3.2631 S   0  0  0  0  0  0  0  0  0  0  0  0
   16.3913   13.1414    3.4053 O   0  0  0  0  0  0  0  0  0  0  0  0
   16.2305   10.9139    4.5615 O   0  0  0  0  0  0  0  0  0  0  0  0
   18.3695   11.7178    1.4551 C   0  0  0  0  0  0  0  0  0  0  0  0
   17.6960   12.4131    0.6894 O   0  0  0  0  0  0  0  0  0  0  0  0
   17.9438   11.2983    2.6568 N   0  0  0  0  0  0  0  0  0  0  0  0
   18.5503   10.7465    3.2018 H   0  0  0  0  0  0  0  0  0  0  0  0
   19.8352   11.3213    1.0893 C   0  0  0  0  0  0  0  0  0  0  0  0
   20.2840   12.0442   -0.1383 N   0  0  0  0  0  0  0  0  0  0  0  0
   19.7156   11.7506   -0.9327 H   0  0  0  0  0  0  0  0  0  0  0  0
   21.2634   11.8265   -0.3221 H   0  0  0  0  0  0  0  0  0  0  0  0
   21.2203    9.3287    1.8564 C   0  0  0  0  0  0  0  0  0  0  0  0
   20.0837    9.8011    0.9623 C   0  0  0  0  0  0  0  0  0  0  0  0
   20.3571    9.4100   -0.4904 C   0  0  0  0  0  0  0  0  0  0  0  0
 10 11  2  0  0  0
 10 15  1  0  0  0
 10 16  1  0  0  0
 11 12  1  0  0  0
 11 17  1  0  0  0
 12 14  2  0  0  0
 12 19  1  0  0  0
 13 16  1  0  0  0
 13 17  2  0  0  0
 14 18  1  0  0  0
 15 18  2  0  0  0
 35 36  1  0  0  0
 36 37  1  0  0  0
 36 31  1  0  0  0
 31 32  1  0  0  0
 31 27  1  0  0  0
 27 28  2  0  0  0
 27 29  1  0  0  0
 29 24  1  0  0  0
 24 25  2  0  0  0
 24 26  2  0  0  0
 24 23  1  0  0  0
 23 22  1  0  0  0
 22  1  1  0  0  0
  1  2  1  0  0  0
  1  3  1  0  0  0
  2  7  1  0  0  0
  3  4  1  0  0  0
  3  5  1  0  0  0
  5  6  1  0  0  0
  5  7  1  0  0  0
  7 16  1  0  0  0
 32 33  1  0  0  0
 32 34  1  0  0  0
 29 30  1  0  0  0
  4  8  1  0  0  0
  6  9  1  0  0  0
 19 20  1  0  0  0
 19 21  1  0  0  0
M  END
> <minimizedAffinity>
-11.12100

$$$$
3COZ_54H_A_401


 37 39  0  0  0  0  0  0  0  0999 V2000
   13.3807   10.1578    1.8647 C   0  0  0  0  0  0  0  0  0  0  0  0
   13.6494   10.6623    0.5151 O   0  0  0  0  0  0  0  0  0  0  0  0
   13.7352    8.6677    1.8622 C   0  0  0  0  0  0  0  0  0  0  0  0
   12.5251    7.9715    1.8051 O   0  0  0  0  0  0  0  0  0  0  0  0
   14.5113    8.4985    0.5595 C   0  0  0  0  0  0  0  0  0  0  0  0
   14.4106    7.1680   -0.0019 O   0  0  0  0  0  0  0  0  0  0  0  0
   13.8076    9.5325   -0.3267 C   0  0  0  0  0  0  0  0  0  0  0  0
   12.0119    8.2772    1.0409 H   0  0  0  0  0  0  0  0  0  0  0  0
   13.4769    6.9472   -0.1449 H   0  0  0  0  0  0  0  0  0  0  0  0
   14.2135    9.7953   -2.7646 C   0  0  0  0  0  0  0  0  0  0  0  0
   15.2627   10.1861   -3.6023 C   0  0  0  0  0  0  0  0  0  0  0  0
   15.0336   10.1622   -4.9725 C   0  0  0  0  0  0  0  0  0  0  0  0
   15.9372   10.2867   -1.5429 C   0  0  0  0  0  0  0  0  0  0  0  0
   13.8050    9.7901   -5.4233 N   0  0  0  0  0  0  0  0  0  0  0  0
   13.0159    9.4406   -3.2759 N   0  0  0  0  0  0  0  0  0  0  0  0
   14.6528    9.8707   -1.5134 N   0  0  0  0  0  0  0  0  0  0  0  0
   16.3132   10.4739   -2.8236 N   0  0  0  0  0  0  0  0  0  0  0  0
   12.8240    9.4449   -4.5948 C   0  0  0  0  0  0  0  0  0  0  0  0
   15.9952   10.4883   -5.8343 N   0  0  0  0  0  0  0  0  0  0  0  0
   16.8826   10.7569   -5.5033 H   0  0  0  0  0  0  0  0  0  0  0  0
   15.8185   10.4607   -6.8025 H   0  0  0  0  0  0  0  0  0  0  0  0
   14.2813   10.8618    2.8552 C   0  0  0  0  0  0  0  0  0  0  0  0
   13.9145   10.5105    4.2136 O   0  0  0  0  0  0  0  0  0  0  0  0
   14.9455   10.3090    5.2115 S   0  0  0  0  0  0  0  0  0  0  0  0
   15.5048    8.9569    4.9315 O   0  0  0  0  0  0  0  0  0  0  0  0
   15.9558   11.4278    5.0583 O   0  0  0  0  0  0  0  0  0  0  0  0
   15.0685    9.8601    7.7998 C   0  0  0  0  0  0  0  0  0  0  0  0
   16.2302    9.4497    7.7270 O   0  0  0  0  0  0  0  0  0  0  0  0
   14.3558   10.2840    6.7444 N   0  0  0  0  0  0  0  0  0  0  0  0
   13.4343   10.5953    6.8965 H   0  0  0  0  0  0  0  0  0  0  0  0
   14.3501    9.9764    9.1817 C   0  0  0  0  0  0  0  0  0  0  0  0
   13.0426    9.2549    9.1562 N   0  0  0  0  0  0  0  0  0  0  0  0
   12.4191    9.7046    8.4858 H   0  0  0  0  0  0  0  0  0  0  0  0
   12.6208    9.2827   10.0845 H   0  0  0  0  0  0  0  0  0  0  0  0
   14.6567   11.5717   11.1408 C   0  0  0  0  0  0  0  0  0  0  0  0
   14.1789   11.4208    9.7044 C   0  0  0  0  0  0  0  0  0  0  0  0
   12.7256   11.8798    9.5803 C   0  0  0  0  0  0  0  0  0  0  0  0
 10 11  2  0  0  0
 10 15  1  0  0  0
 10 16  1  0  0  0
 11 12  1  0  0  0
 11 17  1  0  0  0
 12 14  2  0  0  0
 12 19  1  0  0  0
 13 16  1  0  0  0
 13 17  2  0  0  0
 14 18  1  0  0  0
 15 18  2  0  0  0
 35 36  1  0  0  0
 36 37  1  0  0  0
 36 31  1  0  0  0
 31 32  1  0  0  0
 31 27  1  0  0  0
 27 28  2  0  0  0
 27 29  1  0  0  0
 29 24  1  0  0  0
 24 25  2  0  0  0
 24 26  2  0  0  0
 24 23  1  0  0  0
 23 22  1  0  0  0
 22  1  1  0  0  0
  1  2  1  0  0  0
  1  3  1  0  0  0
  2  7  1  0  0  0
  3  4  1  0  0  0
  3  5  1  0  0  0
  5  6  1  0  0  0
  5  7  1  0  0  0
  7 16  1  0  0  0
 32 33  1  0  0  0
 32 34  1  0  0  0
 29 30  1  0  0  0
  4  8  1  0  0  0
  6  9  1  0  0  0
 19 20  1  0  0  0
 19 21  1  0  0  0
M  END
> <minimizedAffinity>
-10.98182

$$$$
3COZ_54H_A_401


 37 39  0  0  0  0  0  0  0  0999 V2000
   17.6349   11.5451   -0.5156 C   0  0  0  0  0  0  0  0  0  0  0  0
   17.2105   10.9235    0.7421 O   0  0  0  0  0  0  0  0  0  0  0  0
   19.0591   12.0646   -0.2976 C   0  0  0  0  0  0  0  0  0  0  0  0
   18.9557   13.4473   -0.1257 O   0  0  0  0  0  0  0  0  0  0  0  0
   19.4768   11.3933    1.0073 C   0  0  0  0  0  0  0  0  0  0  0  0
   20.4521   12.1540    1.7596 O   0  0  0  0  0  0  0  0  0  0  0  0
   18.1313   11.3335    1.7393 C   0  0  0  0  0  0  0  0  0  0  0  0
   18.3303   13.6382    0.5908 H   0  0  0  0  0  0  0  0  0  0  0  0
   20.1000   13.0389    1.9435 H   0  0  0  0  0  0  0  0  0  0  0  0
   17.3131   10.3246    3.8582 C   0  0  0  0  0  0  0  0  0  0  0  0
   17.6613    9.2648    4.7014 C   0  0  0  0  0  0  0  0  0  0  0  0
   16.8930    9.0731    5.8430 C   0  0  0  0  0  0  0  0  0  0  0  0
   19.0615    9.3307    3.0456 C   0  0  0  0  0  0  0  0  0  0  0  0
   15.8359    9.9002    6.0658 N   0  0  0  0  0  0  0  0  0  0  0  0
   16.2486   11.1070    4.1346 N   0  0  0  0  0  0  0  0  0  0  0  0
   18.1824   10.3377    2.8541 N   0  0  0  0  0  0  0  0  0  0  0  0
   18.7461    8.6769    4.1813 N   0  0  0  0  0  0  0  0  0  0  0  0
   15.5221   10.8853    5.2297 C   0  0  0  0  0  0  0  0  0  0  0  0
   17.1839    8.1058    6.7110 N   0  0  0  0  0  0  0  0  0  0  0  0
   17.9498    7.5098    6.5454 H   0  0  0  0  0  0  0  0  0  0  0  0
   16.6330    7.9867    7.5182 H   0  0  0  0  0  0  0  0  0  0  0  0
   17.6691   10.5000   -1.6085 C   0  0  0  0  0  0  0  0  0  0  0  0
   16.5744   10.7018   -2.5382 O   0  0  0  0  0  0  0  0  0  0  0  0
   15.2258   10.3339   -2.1575 S   0  0  0  0  0  0  0  0  0  0  0  0
   14.4699   11.6164   -2.0996 O   0  0  0  0  0  0  0  0  0  0  0  0
   14.7030    9.3674   -3.2008 O   0  0  0  0  0  0  0  0  0  0  0  0
   13.9966    9.2494   -0.1011 C   0  0  0  0  0  0  0  0  0  0  0  0
   12.8920    9.3456   -0.6432 O   0  0  0  0  0  0  0  0  0  0  0  0
   15.1457    9.6539   -0.6644 N   0  0  0  0  0  0  0  0  0  0  0  0
   15.9817    9.5374   -0.1578 H   0  0  0  0  0  0  0  0  0  0  0  0
   14.1408    8.5687    1.2971 C   0  0  0  0  0  0  0  0  0  0  0  0
   13.7045    7.1416    1.2340 N   0  0  0  0  0  0  0  0  0  0  0  0
   12.7100    7.0997    1.0114 H   0  0  0  0  0  0  0  0  0  0  0  0
   13.8702    6.6952    2.1360 H   0  0  0  0  0  0  0  0  0  0  0  0
   12.0412    8.7812    2.7197 C   0  0  0  0  0  0  0  0  0  0  0  0
   13.4418    9.3138    2.4568 C   0  0  0  0  0  0  0  0  0  0  0  0
   13.3931   10.8188    2.1908 C   0  0  0  0  0  0  0  0  0  0  0  0
 10 11  2  0  0  0
 10 15  1  0  0  0
 10 16  1  0  0  0
 11 12  1  0  0  0
 11 17  1  0  0  0
 12 14  2  0  0  0
 12 19  1  0  0  0
 13 16  1  0  0  0
 13 17  2  0  0  0
 14 18  1  0  0  0
 15 18  2  0  0  0
 35 36  1  0  0  0
 36 37  1  0  0  0
 36 31  1  0  0  0
 31 32  1  0  0  0
 31 27  1  0  0  0
 27 28  2  0  0  0
 27 29  1  0  0  0
 29 24  1  0  0  0
 24 25  2  0  0  0
 24 26  2  0  0  0
 24 23  1  0  0  0
 23 22  1  0  0  0
 22  1  1  0  0  0
  1  2  1  0  0  0
  1  3  1  0  0  0
  2  7  1  0  0  0
  3  4  1  0  0  0
  3  5  1  0  0  0
  5  6  1  0  0  0
  5  7  1  0  0  0
  7 16  1  0  0  0
 32 33  1  0  0  0
 32 34  1  0  0  0
 29 30  1  0  0  0
  4  8  1  0  0  0
  6  9  1  0  0  0
 19 20  1  0  0  0
 19 21  1  0  0  0
M  END
> <minimizedAffinity>
-10.16687

$$$$
3COZ_54H_A_401


 37 39  0  0  0  0  0  0  0  0999 V2000
   20.3114   10.1198    1.6669 C   0  0  0  0  0  0  0  0  0  0  0  0
   19.0013    9.6955    1.1648 O   0  0  0  0  0  0  0  0  0  0  0  0
   20.4757   11.5957    1.2919 C   0  0  0  0  0  0  0  0  0  0  0  0
   21.3412   11.6332    0.1957 O   0  0  0  0  0  0  0  0  0  0  0  0
   19.0666   12.0061    0.8750 C   0  0  0  0  0  0  0  0  0  0  0  0
   19.0432   13.0831   -0.0921 O   0  0  0  0  0  0  0  0  0  0  0  0
   18.5585   10.6958    0.2627 C   0  0  0  0  0  0  0  0  0  0  0  0
   20.9961   11.0622   -0.5084 H   0  0  0  0  0  0  0  0  0  0  0  0
   19.5555   12.8262   -0.8747 H   0  0  0  0  0  0  0  0  0  0  0  0
   16.4082   10.6715   -0.9832 C   0  0  0  0  0  0  0  0  0  0  0  0
   15.0414   10.6839   -0.6880 C   0  0  0  0  0  0  0  0  0  0  0  0
   14.1534   10.6792   -1.7565 C   0  0  0  0  0  0  0  0  0  0  0  0
   16.1592   10.7402    1.1705 C   0  0  0  0  0  0  0  0  0  0  0  0
   14.6531   10.6356   -3.0213 N   0  0  0  0  0  0  0  0  0  0  0  0
   16.8391   10.6241   -2.2614 N   0  0  0  0  0  0  0  0  0  0  0  0
   17.0658   10.7021    0.1704 N   0  0  0  0  0  0  0  0  0  0  0  0
   14.9183   10.7355    0.6443 N   0  0  0  0  0  0  0  0  0  0  0  0
   15.9601   10.6034   -3.2631 C   0  0  0  0  0  0  0  0  0  0  0  0
   12.8377   10.7241   -1.5550 N   0  0  0  0  0  0  0  0  0  0  0  0
   12.4810   10.7555   -0.6380 H   0  0  0  0  0  0  0  0  0  0  0  0
   12.2219   10.7259   -2.3231 H   0  0  0  0  0  0  0  0  0  0  0  0
   20.3355   10.0038    3.1747 C   0  0  0  0  0  0  0  0  0  0  0  0
   19.0811    9.4635    3.6625 O   0  0  0  0  0  0  0  0  0  0  0  0
   19.0841    8.3206    4.5530 S   0  0  0  0  0  0  0  0  0  0  0  0
   18.5604    7.1874    3.7401 O   0  0  0  0  0  0  0  0  0  0  0  0
   20.5070    8.1175    5.0325 O   0  0  0  0  0  0  0  0  0  0  0  0
   16.8256    8.9844    5.7254 C   0  0  0  0  0  0  0  0  0  0  0  0
   16.3113    9.3293    4.6578 O   0  0  0  0  0  0  0  0  0  0  0  0
   18.0750    8.5066    5.8357 N   0  0  0  0  0  0  0  0  0  0  0  0
   18.4028    8.2553    6.7294 H   0  0  0  0  0  0  0  0  0  0  0  0
   16.0051    9.0232    7.0537 C   0  0  0  0  0  0  0  0  0  0  0  0
   16.2260    7.7751    7.8440 N   0  0  0  0  0  0  0  0  0  0  0  0
   15.8657    6.9751    7.3239 H   0  0  0  0  0  0  0  0  0  0  0  0
   15.7386    7.8475    8.7371 H   0  0  0  0  0  0  0  0  0  0  0  0
   14.0804   10.6180    7.5330 C   0  0  0  0  0  0  0  0  0  0  0  0
   14.4967    9.3103    6.8765 C   0  0  0  0  0  0  0  0  0  0  0  0
   13.6520    8.1558    7.4168 C   0  0  0  0  0  0  0  0  0  0  0  0
 10 11  2  0  0  0
 10 15  1  0  0  0
 10 16  1  0  0  0
 11 12  1  0  0  0
 11 17  1  0  0  0
 12 14  2  0  0  0
 12 19  1  0  0  0
 13 16  1  0  0  0
 13 17  2  0  0  0
 14 18  1  0  0  0
 15 18  2  0  0  0
 35 36  1  0  0  0
 36 37  1  0  0  0
 36 31  1  0  0  0
 31 32  1  0  0  0
 31 27  1  0  0  0
 27 28  2  0  0  0
 27 29  1  0  0  0
 29 24  1  0  0  0
 24 25  2  0  0  0
 24 26  2  0  0  0
 24 23  1  0  0  0
 23 22  1  0  0  0
 22  1  1  0  0  0
  1  2  1  0  0  0
  1  3  1  0  0  0
  2  7  1  0  0  0
  3  4  1  0  0  0
  3  5  1  0  0  0
  5  6  1  0  0  0
  5  7  1  0  0  0
  7 16  1  0  0  0
 32 33  1  0  0  0
 32 34  1  0  0  0
 29 30  1  0  0  0
  4  8  1  0  0  0
  6  9  1  0  0  0
 19 20  1  0  0  0
 19 21  1  0  0  0
M  END
> <minimizedAffinity>
-10.00063

$$$$
3COZ_54H_A_401


 37 39  0  0  0  0  0  0  0  0999 V2000
   17.9706   11.3467    2.5240 C   0  0  0  0  0  0  0  0  0  0  0  0
   17.2921   10.5738    1.4796 O   0  0  0  0  0  0  0  0  0  0  0  0
   18.7783   12.4388    1.8164 C   0  0  0  0  0  0  0  0  0  0  0  0
   20.1115   12.0210    1.8334 O   0  0  0  0  0  0  0  0  0  0  0  0
   18.2272   12.4106    0.3940 C   0  0  0  0  0  0  0  0  0  0  0  0
   19.1849   12.8403   -0.6030 O   0  0  0  0  0  0  0  0  0  0  0  0
   17.8989   10.9207    0.2460 C   0  0  0  0  0  0  0  0  0  0  0  0
   20.1780   11.1361    1.4416 H   0  0  0  0  0  0  0  0  0  0  0  0
   19.9796   12.2869   -0.5477 H   0  0  0  0  0  0  0  0  0  0  0  0
   15.6474   10.5111   -0.7237 C   0  0  0  0  0  0  0  0  0  0  0  0
   15.0817   10.3463   -1.9918 C   0  0  0  0  0  0  0  0  0  0  0  0
   13.7143   10.1093   -2.0592 C   0  0  0  0  0  0  0  0  0  0  0  0
   17.2179   10.6528   -2.2132 C   0  0  0  0  0  0  0  0  0  0  0  0
   12.9988   10.0775   -0.9025 N   0  0  0  0  0  0  0  0  0  0  0  0
   14.8802   10.4722    0.3861 N   0  0  0  0  0  0  0  0  0  0  0  0
   16.9514   10.7008   -0.8902 N   0  0  0  0  0  0  0  0  0  0  0  0
   16.0729   10.4291   -2.8881 N   0  0  0  0  0  0  0  0  0  0  0  0
   13.5683   10.2598    0.2850 C   0  0  0  0  0  0  0  0  0  0  0  0
   13.1100    9.9088   -3.2289 N   0  0  0  0  0  0  0  0  0  0  0  0
   13.6320    9.9328   -4.0633 H   0  0  0  0  0  0  0  0  0  0  0  0
   12.1411    9.7364   -3.2593 H   0  0  0  0  0  0  0  0  0  0  0  0
   16.9403   12.0117    3.4094 C   0  0  0  0  0  0  0  0  0  0  0  0
   16.5955   11.1491    4.5232 O   0  0  0  0  0  0  0  0  0  0  0  0
   15.3436   10.4198    4.5120 S   0  0  0  0  0  0  0  0  0  0  0  0
   14.4079   11.2573    3.7106 O   0  0  0  0  0  0  0  0  0  0  0  0
   15.6125    9.0581    3.9043 O   0  0  0  0  0  0  0  0  0  0  0  0
   15.3440    9.7040    7.0425 C   0  0  0  0  0  0  0  0  0  0  0  0
   16.4985    9.2730    6.9753 O   0  0  0  0  0  0  0  0  0  0  0  0
   14.6874   10.2528    6.0085 N   0  0  0  0  0  0  0  0  0  0  0  0
   13.7671   10.5710    6.1542 H   0  0  0  0  0  0  0  0  0  0  0  0
   14.5689    9.6965    8.3984 C   0  0  0  0  0  0  0  0  0  0  0  0
   13.2408    9.0316    8.2404 N   0  0  0  0  0  0  0  0  0  0  0  0
   12.6629    9.5745    7.5988 H   0  0  0  0  0  0  0  0  0  0  0  0
   12.7792    8.9742    9.1482 H   0  0  0  0  0  0  0  0  0  0  0  0
   15.1829   11.1651   10.3843 C   0  0  0  0  0  0  0  0  0  0  0  0
   14.4220   11.0810    9.0696 C   0  0  0  0  0  0  0  0  0  0  0  0
   12.9496   11.4305    9.2883 C   0  0  0  0  0  0  0  0  0  0  0  0
 10 11  2  0  0  0
 10 15  1  0  0  0
 10 16  1  0  0  0
 11 12  1  0  0  0
 11 17  1  0  0  0
 12 14  2  0  0  0
 12 19  1  0  0  0
 13 16  1  0  0  0
 13 17  2  0  0  0
 14 18  1  0  0  0
 15 18  2  0  0  0
 35 36  1  0  0  0
 36 37  1  0  0  0
 36 31  1  0  0  0
 31 32  1  0  0  0
 31 27  1  0  0  0
 27 28  2  0  0  0
 27 29  1  0  0  0
 29 24  1  0  0  0
 24 25  2  0  0  0
 24 26  2  0  0  0
 24 23  1  0  0  0
 23 22  1  0  0  0
 22  1  1  0  0  0
  1  2  1  0  0  0
  1  3  1  0  0  0
  2  7  1  0  0  0
  3  4  1  0  0  0
  3  5  1  0  0  0
  5  6  1  0  0  0
  5  7  1  0  0  0
  7 16  1  0  0  0
 32 33  1  0  0  0
 32 34  1  0  0  0
 29 30  1  0  0  0
  4  8  1  0  0  0
  6  9  1  0  0  0
 19 20  1  0  0  0
 19 21  1  0  0  0
M  END
> <minimizedAffinity>
-9.49248

$$$$
3COZ_54H_A_401


 37 39  0  0  0  0  0  0  0  0999 V2000
   20.0452   10.3272    1.7564 C   0  0  0  0  0  0  0  0  0  0  0  0
   18.9962    9.7880    0.8863 O   0  0  0  0  0  0  0  0  0  0  0  0
   20.2615   11.7858    1.3424 C   0  0  0  0  0  0  0  0  0  0  0  0
   21.4399   11.8154    0.5922 O   0  0  0  0  0  0  0  0  0  0  0  0
   19.0551   12.0765    0.4547 C   0  0  0  0  0  0  0  0  0  0  0  0
   19.3086   13.0902   -0.5472 O   0  0  0  0  0  0  0  0  0  0  0  0
   18.8362   10.7014   -0.1863 C   0  0  0  0  0  0  0  0  0  0  0  0
   21.3734   11.1820   -0.1394 H   0  0  0  0  0  0  0  0  0  0  0  0
   20.0625   12.8217   -1.0953 H   0  0  0  0  0  0  0  0  0  0  0  0
   16.3603   10.5614   -0.0212 C   0  0  0  0  0  0  0  0  0  0  0  0
   15.2688   10.4759   -0.8910 C   0  0  0  0  0  0  0  0  0  0  0  0
   14.0019   10.3969   -0.3261 C   0  0  0  0  0  0  0  0  0  0  0  0
   17.0936   10.5397   -2.0624 C   0  0  0  0  0  0  0  0  0  0  0  0
   13.8872   10.4341    1.0291 N   0  0  0  0  0  0  0  0  0  0  0  0
   16.1779   10.5980    1.3156 N   0  0  0  0  0  0  0  0  0  0  0  0
   17.4603   10.6033   -0.7644 N   0  0  0  0  0  0  0  0  0  0  0  0
   15.7507   10.4551   -2.1401 N   0  0  0  0  0  0  0  0  0  0  0  0
   14.9476   10.5374    1.8246 C   0  0  0  0  0  0  0  0  0  0  0  0
   12.9168   10.2792   -1.0892 N   0  0  0  0  0  0  0  0  0  0  0  0
   13.0049   10.2527   -2.0694 H   0  0  0  0  0  0  0  0  0  0  0  0
   12.0266   10.2186   -0.6732 H   0  0  0  0  0  0  0  0  0  0  0  0
   19.5714   10.3029    3.1926 C   0  0  0  0  0  0  0  0  0  0  0  0
   18.6776    9.1823    3.4134 O   0  0  0  0  0  0  0  0  0  0  0  0
   18.9801    8.2085    4.4427 S   0  0  0  0  0  0  0  0  0  0  0  0
   18.7720    6.8804    3.8007 O   0  0  0  0  0  0  0  0  0  0  0  0
   20.4065    8.4479    4.8945 O   0  0  0  0  0  0  0  0  0  0  0  0
   16.9358    9.1625    5.7942 C   0  0  0  0  0  0  0  0  0  0  0  0
   16.6624    9.9771    4.9082 O   0  0  0  0  0  0  0  0  0  0  0  0
   17.9575    8.2948    5.7252 N   0  0  0  0  0  0  0  0  0  0  0  0
   18.1009    7.6797    6.4804 H   0  0  0  0  0  0  0  0  0  0  0  0
   16.0411    9.0417    7.0685 C   0  0  0  0  0  0  0  0  0  0  0  0
   16.3327    7.7704    7.7963 N   0  0  0  0  0  0  0  0  0  0  0  0
   16.0791    6.9763    7.2085 H   0  0  0  0  0  0  0  0  0  0  0  0
   15.7907    7.7410    8.6599 H   0  0  0  0  0  0  0  0  0  0  0  0
   13.9872   10.5154    7.3638 C   0  0  0  0  0  0  0  0  0  0  0  0
   14.5250    9.2026    6.8145 C   0  0  0  0  0  0  0  0  0  0  0  0
   13.7434    8.0257    7.3996 C   0  0  0  0  0  0  0  0  0  0  0  0
 10 11  2  0  0  0
 10 15  1  0  0  0
 10 16  1  0  0  0
 11 12  1  0  0  0
 11 17  1  0  0  0
 12 14  2  0  0  0
 12 19  1  0  0  0
 13 16  1  0  0  0
 13 17  2  0  0  0
 14 18  1  0  0  0
 15 18  2  0  0  0
 35 36  1  0  0  0
 36 37  1  0  0  0
 36 31  1  0  0  0
 31 32  1  0  0  0
 31 27  1  0  0  0
 27 28  2  0  0  0
 27 29  1  0  0  0
 29 24  1  0  0  0
 24 25  2  0  0  0
 24 26  2  0  0  0
 24 23  1  0  0  0
 23 22  1  0  0  0
 22  1  1  0  0  0
  1  2  1  0  0  0
  1  3  1  0  0  0
  2  7  1  0  0  0
  3  4  1  0  0  0
  3  5  1  0  0  0
  5  6  1  0  0  0
  5  7  1  0  0  0
  7 16  1  0  0  0
 32 33  1  0  0  0
 32 34  1  0  0  0
 29 30  1  0  0  0
  4  8  1  0  0  0
  6  9  1  0  0  0
 19 20  1  0  0  0
 19 21  1  0  0  0
M  END
> <minimizedAffinity>
-9.46693

$$$$
3COZ_54H_A_401


 37 39  0  0  0  0  0  0  0  0999 V2000
   17.1611   10.5887    1.2629 C   0  0  0  0  0  0  0  0  0  0  0  0
   16.0500    9.8978    0.6024 O   0  0  0  0  0  0  0  0  0  0  0  0
   17.8571   11.4365    0.1939 C   0  0  0  0  0  0  0  0  0  0  0  0
   19.0267   10.7556   -0.1538 O   0  0  0  0  0  0  0  0  0  0  0  0
   16.8635   11.4183   -0.9638 C   0  0  0  0  0  0  0  0  0  0  0  0
   17.4885   11.5675   -2.2611 O   0  0  0  0  0  0  0  0  0  0  0  0
   16.2562   10.0210   -0.7949 C   0  0  0  0  0  0  0  0  0  0  0  0
   18.8060    9.8498   -0.4214 H   0  0  0  0  0  0  0  0  0  0  0  0
   18.1490   10.8680   -2.3842 H   0  0  0  0  0  0  0  0  0  0  0  0
   14.8759    9.8940   -2.8579 C   0  0  0  0  0  0  0  0  0  0  0  0
   13.5222    9.7880   -3.1918 C   0  0  0  0  0  0  0  0  0  0  0  0
   13.1933    9.7678   -4.5415 C   0  0  0  0  0  0  0  0  0  0  0  0
   13.7079    9.8388   -1.0310 C   0  0  0  0  0  0  0  0  0  0  0  0
   14.1960    9.8238   -5.4594 N   0  0  0  0  0  0  0  0  0  0  0  0
   15.8233    9.9416   -3.8180 N   0  0  0  0  0  0  0  0  0  0  0  0
   14.9592    9.9183   -1.5325 N   0  0  0  0  0  0  0  0  0  0  0  0
   12.8265    9.7654   -2.0480 N   0  0  0  0  0  0  0  0  0  0  0  0
   15.4747    9.9028   -5.1039 C   0  0  0  0  0  0  0  0  0  0  0  0
   11.9232    9.7028   -4.9370 N   0  0  0  0  0  0  0  0  0  0  0  0
   11.2011    9.6624   -4.2690 H   0  0  0  0  0  0  0  0  0  0  0  0
   11.7064    9.6951   -5.8973 H   0  0  0  0  0  0  0  0  0  0  0  0
   16.6176   11.5145    2.3284 C   0  0  0  0  0  0  0  0  0  0  0  0
   16.8421   10.9567    3.6482 O   0  0  0  0  0  0  0  0  0  0  0  0
   15.8832   10.0293    4.2135 S   0  0  0  0  0  0  0  0  0  0  0  0
   14.5504   10.5178    3.7618 O   0  0  0  0  0  0  0  0  0  0  0  0
   16.2283    8.6455    3.7019 O   0  0  0  0  0  0  0  0  0  0  0  0
   15.1343    9.1979    6.5934 C   0  0  0  0  0  0  0  0  0  0  0  0
   14.3911    8.3356    6.1166 O   0  0  0  0  0  0  0  0  0  0  0  0
   15.8747   10.0403    5.8561 N   0  0  0  0  0  0  0  0  0  0  0  0
   16.4404   10.6972    6.3227 H   0  0  0  0  0  0  0  0  0  0  0  0
   15.3162    9.3261    8.1393 C   0  0  0  0  0  0  0  0  0  0  0  0
   15.2253    7.9856    8.7917 N   0  0  0  0  0  0  0  0  0  0  0  0
   14.2884    7.6051    8.6578 H   0  0  0  0  0  0  0  0  0  0  0  0
   15.4147    8.0795    9.7895 H   0  0  0  0  0  0  0  0  0  0  0  0
   15.0419   11.0535    9.9881 C   0  0  0  0  0  0  0  0  0  0  0  0
   14.3726   10.3424    8.8216 C   0  0  0  0  0  0  0  0  0  0  0  0
   13.0821    9.6661    9.2856 C   0  0  0  0  0  0  0  0  0  0  0  0
 10 11  2  0  0  0
 10 15  1  0  0  0
 10 16  1  0  0  0
 11 12  1  0  0  0
 11 17  1  0  0  0
 12 14  2  0  0  0
 12 19  1  0  0  0
 13 16  1  0  0  0
 13 17  2  0  0  0
 14 18  1  0  0  0
 15 18  2  0  0  0
 35 36  1  0  0  0
 36 37  1  0  0  0
 36 31  1  0  0  0
 31 32  1  0  0  0
 31 27  1  0  0  0
 27 28  2  0  0  0
 27 29  1  0  0  0
 29 24  1  0  0  0
 24 25  2  0  0  0
 24 26  2  0  0  0
 24 23  1  0  0  0
 23 22  1  0  0  0
 22  1  1  0  0  0
  1  2  1  0  0  0
  1  3  1  0  0  0
  2  7  1  0  0  0
  3  4  1  0  0  0
  3  5  1  0  0  0
  5  6  1  0  0  0
  5  7  1  0  0  0
  7 16  1  0  0  0
 32 33  1  0  0  0
 32 34  1  0  0  0
 29 30  1  0  0  0
  4  8  1  0  0  0
  6  9  1  0  0  0
 19 20  1  0  0  0
 19 21  1  0  0  0
M  END
> <minimizedAffinity>
-9.30825

$$$$
3COZ_54H_A_401


 37 39  0  0  0  0  0  0  0  0999 V2000
   19.1257   10.2447    2.7955 C   0  0  0  0  0  0  0  0  0  0  0  0
   17.7638   10.5789    3.2220 O   0  0  0  0  0  0  0  0  0  0  0  0
   19.4477    8.8637    3.3744 C   0  0  0  0  0  0  0  0  0  0  0  0
   20.2844    9.0786    4.4726 O   0  0  0  0  0  0  0  0  0  0  0  0
   18.0846    8.3537    3.8324 C   0  0  0  0  0  0  0  0  0  0  0  0
   18.1601    7.4250    4.9404 O   0  0  0  0  0  0  0  0  0  0  0  0
   17.4156    9.6679    4.2511 C   0  0  0  0  0  0  0  0  0  0  0  0
   19.8592    9.6971    5.0870 H   0  0  0  0  0  0  0  0  0  0  0  0
   18.6202    7.8451    5.6837 H   0  0  0  0  0  0  0  0  0  0  0  0
   15.1460    9.4577    3.2603 C   0  0  0  0  0  0  0  0  0  0  0  0
   13.8326    9.2898    3.7098 C   0  0  0  0  0  0  0  0  0  0  0  0
   12.8274    9.2399    2.7519 C   0  0  0  0  0  0  0  0  0  0  0  0
   15.1547    9.3734    5.4277 C   0  0  0  0  0  0  0  0  0  0  0  0
   13.1712    9.3284    1.4385 N   0  0  0  0  0  0  0  0  0  0  0  0
   15.4208    9.5350    1.9411 N   0  0  0  0  0  0  0  0  0  0  0  0
   15.9315    9.5010    4.3305 N   0  0  0  0  0  0  0  0  0  0  0  0
   13.8675    9.2504    5.0477 N   0  0  0  0  0  0  0  0  0  0  0  0
   14.4344    9.4664    1.0474 C   0  0  0  0  0  0  0  0  0  0  0  0
   11.5493    9.1157    3.1050 N   0  0  0  0  0  0  0  0  0  0  0  0
   11.3055    9.0520    4.0567 H   0  0  0  0  0  0  0  0  0  0  0  0
   10.8483    9.0876    2.4143 H   0  0  0  0  0  0  0  0  0  0  0  0
   19.1738   10.1536    1.2865 C   0  0  0  0  0  0  0  0  0  0  0  0
   18.2649   11.1141    0.6907 O   0  0  0  0  0  0  0  0  0  0  0  0
   18.5219   11.6223   -0.6415 S   0  0  0  0  0  0  0  0  0  0  0  0
   19.0078   13.0165   -0.4436 O   0  0  0  0  0  0  0  0  0  0  0  0
   19.5426   10.7098   -1.2906 O   0  0  0  0  0  0  0  0  0  0  0  0
   16.4715   10.6242   -1.9513 C   0  0  0  0  0  0  0  0  0  0  0  0
   16.7758    9.4663   -1.6514 O   0  0  0  0  0  0  0  0  0  0  0  0
   17.1671   11.7056   -1.5666 N   0  0  0  0  0  0  0  0  0  0  0  0
   16.8497   12.5925   -1.8529 H   0  0  0  0  0  0  0  0  0  0  0  0
   15.1765   10.9198   -2.7728 C   0  0  0  0  0  0  0  0  0  0  0  0
   14.0446   11.2664   -1.8621 N   0  0  0  0  0  0  0  0  0  0  0  0
   13.8193   10.4611   -1.2780 H   0  0  0  0  0  0  0  0  0  0  0  0
   13.2281   11.5230   -2.4170 H   0  0  0  0  0  0  0  0  0  0  0  0
   15.2998   10.0708   -5.1690 C   0  0  0  0  0  0  0  0  0  0  0  0
   14.7708    9.8080   -3.7670 C   0  0  0  0  0  0  0  0  0  0  0  0
   13.2525    9.6300   -3.8002 C   0  0  0  0  0  0  0  0  0  0  0  0
 10 11  2  0  0  0
 10 15  1  0  0  0
 10 16  1  0  0  0
 11 12  1  0  0  0
 11 17  1  0  0  0
 12 14  2  0  0  0
 12 19  1  0  0  0
 13 16  1  0  0  0
 13 17  2  0  0  0
 14 18  1  0  0  0
 15 18  2  0  0  0
 35 36  1  0  0  0
 36 37  1  0  0  0
 36 31  1  0  0  0
 31 32  1  0  0  0
 31 27  1  0  0  0
 27 28  2  0  0  0
 27 29  1  0  0  0
 29 24  1  0  0  0
 24 25  2  0  0  0
 24 26  2  0  0  0
 24 23  1  0  0  0
 23 22  1  0  0  0
 22  1  1  0  0  0
  1  2  1  0  0  0
  1  3  1  0  0  0
  2  7  1  0  0  0
  3  4  1  0  0  0
  3  5  1  0  0  0
  5  6  1  0  0  0
  5  7  1  0  0  0
  7 16  1  0  0  0
 32 33  1  0  0  0
 32 34  1  0  0  0
 29 30  1  0  0  0
  4  8  1  0  0  0
  6  9  1  0  0  0
 19 20  1  0  0  0
 19 21  1  0  0  0
M  END
> <minimizedAffinity>
-9.07861

$$$$
3COZ_54H_A_401


 37 39  0  0  0  0  0  0  0  0999 V2000
   20.6958    9.5293    3.2784 C   0  0  0  0  0  0  0  0  0  0  0  0
   19.3546    9.9862    3.6537 O   0  0  0  0  0  0  0  0  0  0  0  0
   20.7574    8.0298    3.5842 C   0  0  0  0  0  0  0  0  0  0  0  0
   21.4894    7.8952    4.7668 O   0  0  0  0  0  0  0  0  0  0  0  0
   19.2946    7.6631    3.8161 C   0  0  0  0  0  0  0  0  0  0  0  0
   19.1179    6.5391    4.7112 O   0  0  0  0  0  0  0  0  0  0  0  0
   18.7721    8.9614    4.4415 C   0  0  0  0  0  0  0  0  0  0  0  0
   21.0887    8.4437    5.4592 H   0  0  0  0  0  0  0  0  0  0  0  0
   19.5469    6.7309    5.5598 H   0  0  0  0  0  0  0  0  0  0  0  0
   16.4959    9.0236    5.4376 C   0  0  0  0  0  0  0  0  0  0  0  0
   15.1726    9.0879    4.9905 C   0  0  0  0  0  0  0  0  0  0  0  0
   14.1689    9.0816    5.9512 C   0  0  0  0  0  0  0  0  0  0  0  0
   16.4926    9.0704    3.2690 C   0  0  0  0  0  0  0  0  0  0  0  0
   14.5218    9.0413    7.2646 N   0  0  0  0  0  0  0  0  0  0  0  0
   16.7792    8.9897    6.7568 N   0  0  0  0  0  0  0  0  0  0  0  0
   17.2795    9.0188    4.3651 N   0  0  0  0  0  0  0  0  0  0  0  0
   15.2008    9.1063    3.6519 N   0  0  0  0  0  0  0  0  0  0  0  0
   15.7928    9.0021    7.6531 C   0  0  0  0  0  0  0  0  0  0  0  0
   12.8842    9.1065    5.6011 N   0  0  0  0  0  0  0  0  0  0  0  0
   12.6339    9.1356    4.6495 H   0  0  0  0  0  0  0  0  0  0  0  0
   12.1849    9.0958    6.2940 H   0  0  0  0  0  0  0  0  0  0  0  0
   20.8972    9.7228    1.7919 C   0  0  0  0  0  0  0  0  0  0  0  0
   19.9486   10.6893    1.2727 O   0  0  0  0  0  0  0  0  0  0  0  0
   19.7342   10.7958   -0.1563 S   0  0  0  0  0  0  0  0  0  0  0  0
   20.0315   12.2160   -0.4936 O   0  0  0  0  0  0  0  0  0  0  0  0
   20.6589    9.8044   -0.8331 O   0  0  0  0  0  0  0  0  0  0  0  0
   17.1243   11.0595    0.0306 C   0  0  0  0  0  0  0  0  0  0  0  0
   17.2179   11.8342    0.9867 O   0  0  0  0  0  0  0  0  0  0  0  0
   18.1771   10.5074   -0.5926 N   0  0  0  0  0  0  0  0  0  0  0  0
   18.0077    9.8997   -1.3484 H   0  0  0  0  0  0  0  0  0  0  0  0
   15.7289   10.7098   -0.5773 C   0  0  0  0  0  0  0  0  0  0  0  0
   14.7938   10.2417    0.4892 N   0  0  0  0  0  0  0  0  0  0  0  0
   15.1431    9.3709    0.8893 H   0  0  0  0  0  0  0  0  0  0  0  0
   13.8701   10.0843    0.0864 H   0  0  0  0  0  0  0  0  0  0  0  0
   15.6170   10.4146   -3.1028 C   0  0  0  0  0  0  0  0  0  0  0  0
   15.7670    9.7154   -1.7600 C   0  0  0  0  0  0  0  0  0  0  0  0
   14.6947    8.6366   -1.6037 C   0  0  0  0  0  0  0  0  0  0  0  0
 10 11  2  0  0  0
 10 15  1  0  0  0
 10 16  1  0  0  0
 11 12  1  0  0  0
 11 17  1  0  0  0
 12 14  2  0  0  0
 12 19  1  0  0  0
 13 16  1  0  0  0
 13 17  2  0  0  0
 14 18  1  0  0  0
 15 18  2  0  0  0
 35 36  1  0  0  0
 36 37  1  0  0  0
 36 31  1  0  0  0
 31 32  1  0  0  0
 31 27  1  0  0  0
 27 28  2  0  0  0
 27 29  1  0  0  0
 29 24  1  0  0  0
 24 25  2  0  0  0
 24 26  2  0  0  0
 24 23  1  0  0  0
 23 22  1  0  0  0
 22  1  1  0  0  0
  1  2  1  0  0  0
  1  3  1  0  0  0
  2  7  1  0  0  0
  3  4  1  0  0  0
  3  5  1  0  0  0
  5  6  1  0  0  0
  5  7  1  0  0  0
  7 16  1  0  0  0
 32 33  1  0  0  0
 32 34  1  0  0  0
 29 30  1  0  0  0
  4  8  1  0  0  0
  6  9  1  0  0  0
 19 20  1  0  0  0
 19 21  1  0  0  0
M  END
> <minimizedAffinity>
-8.91057

$$$$
