3MI2_PFU_A_1


 30 31  0  0  0  0  0  0  0  0999 V2000
   23.6361   -8.1130   16.0842 C   0  0  0  0  0  0  0  0  0  0  0  0
   23.4091   -9.2024   17.1278 C   0  0  0  0  0  0  0  0  0  0  0  0
   22.8690   -8.6414   18.3408 O   0  0  0  0  0  0  0  0  0  0  0  0
   24.7909   -9.7725   17.3728 C   0  0  0  0  0  0  0  0  0  0  0  0
   25.4922   -8.9972   18.3549 O   0  0  0  0  0  0  0  0  0  0  0  0
   25.4731   -9.5848   16.0301 C   0  0  0  0  0  0  0  0  0  0  0  0
   24.8982   -8.4118   15.4499 O   0  0  0  0  0  0  0  0  0  0  0  0
   23.4711   -7.9597   18.6779 H   0  0  0  0  0  0  0  0  0  0  0  0
   25.5337   -8.0719   18.0669 H   0  0  0  0  0  0  0  0  0  0  0  0
   22.6182   -8.1299   15.0338 C   0  0  0  0  0  0  0  0  0  0  0  0
   21.1691   -8.7720   13.3897 N   0  0  0  0  0  0  0  0  0  0  0  0
   22.0895   -5.6338   14.8074 O   0  0  0  0  0  0  0  0  0  0  0  0
   21.9130   -7.0094   14.4621 C   0  0  0  0  0  0  0  0  0  0  0  0
   22.1210   -9.1802   14.3397 N   0  0  0  0  0  0  0  0  0  0  0  0
   20.9938   -7.4239   13.4335 C   0  0  0  0  0  0  0  0  0  0  0  0
   20.6944   -9.3786   12.7766 H   0  0  0  0  0  0  0  0  0  0  0  0
   22.6949   -5.3938   15.4811 H   0  0  0  0  0  0  0  0  0  0  0  0
   19.9460   -6.8498   11.4033 O   0  0  0  0  0  0  0  0  0  0  0  0
   19.6961   -5.5165   13.2023 N   0  0  0  0  0  0  0  0  0  0  0  0
   20.1868   -6.5485   12.5949 C   0  0  0  0  0  0  0  0  0  0  0  0
   19.1383   -4.8734   12.7079 H   0  0  0  0  0  0  0  0  0  0  0  0
   19.8805   -5.3746   14.1589 H   0  0  0  0  0  0  0  0  0  0  0  0
   25.2171  -10.7638   15.0936 C   0  0  0  0  0  0  0  0  0  0  0  0
   26.4164  -11.5178   15.0815 O   0  0  0  0  0  0  0  0  0  0  0  0
   26.4962  -13.1293   15.1139 P   0  0  0  0  0  0  0  0  0  0  0  0
   26.8248  -13.5158   16.5191 O   0  0  0  0  0  0  0  0  0  0  0  0
   27.5534  -13.5207   14.1207 O   0  0  0  0  0  0  0  0  0  0  0  0
   25.1069  -13.4862   14.7621 O   0  0  0  0  0  0  0  0  0  0  0  0
   28.4231  -13.2415   14.4472 H   0  0  0  0  0  0  0  0  0  0  0  0
   25.0153  -14.4518   14.7459 H   0  0  0  0  0  0  0  0  0  0  0  0
 26 25  2  0  0  0
 27 25  1  0  0  0
 25 24  1  0  0  0
 25 28  1  0  0  0
 14 10  2  0  0  0
 13 10  1  0  0  0
 10  1  1  0  0  0
 11 15  1  0  0  0
 11 14  1  0  0  0
 13 12  1  0  0  0
 15 13  2  0  0  0
 20 18  2  0  0  0
 20 15  1  0  0  0
 19 20  1  0  0  0
  7  1  1  0  0  0
  1  2  1  0  0  0
  2  4  1  0  0  0
  2  3  1  0  0  0
  6  4  1  0  0  0
  4  5  1  0  0  0
 23  6  1  0  0  0
  7  6  1  0  0  0
 23 24  1  0  0  0
 11 16  1  0  0  0
 12 17  1  0  0  0
 19 21  1  0  0  0
 19 22  1  0  0  0
  3  8  1  0  0  0
 27 29  1  0  0  0
  5  9  1  0  0  0
 28 30  1  0  0  0
M  END
> <minimizedAffinity>
-10.82006

$$$$
3MI2_PFU_A_1


 30 31  0  0  0  0  0  0  0  0999 V2000
   23.5785   -7.9370   15.9164 C   0  0  0  0  0  0  0  0  0  0  0  0
   23.2637   -8.9115   17.0471 C   0  0  0  0  0  0  0  0  0  0  0  0
   22.9332   -8.1996   18.2561 O   0  0  0  0  0  0  0  0  0  0  0  0
   24.5463   -9.6977   17.2246 C   0  0  0  0  0  0  0  0  0  0  0  0
   25.4506   -9.0024   18.0942 O   0  0  0  0  0  0  0  0  0  0  0  0
   25.1307   -9.7050   15.8239 C   0  0  0  0  0  0  0  0  0  0  0  0
   24.7124   -8.4840   15.2096 O   0  0  0  0  0  0  0  0  0  0  0  0
   23.6682   -7.6147   18.4982 H   0  0  0  0  0  0  0  0  0  0  0  0
   25.6216   -8.1155   17.7406 H   0  0  0  0  0  0  0  0  0  0  0  0
   22.4846   -7.8354   14.9505 C   0  0  0  0  0  0  0  0  0  0  0  0
   20.8587   -8.3025   13.4163 N   0  0  0  0  0  0  0  0  0  0  0  0
   22.1723   -5.2968   14.8114 O   0  0  0  0  0  0  0  0  0  0  0  0
   21.8433   -6.6418   14.4569 C   0  0  0  0  0  0  0  0  0  0  0  0
   21.8401   -8.8188   14.2798 N   0  0  0  0  0  0  0  0  0  0  0  0
   20.8124   -6.9456   13.4979 C   0  0  0  0  0  0  0  0  0  0  0  0
   20.2837   -8.8481   12.8325 H   0  0  0  0  0  0  0  0  0  0  0  0
   22.8479   -5.1295   15.4386 H   0  0  0  0  0  0  0  0  0  0  0  0
   19.5226   -4.9834   13.3092 O   0  0  0  0  0  0  0  0  0  0  0  0
   19.9750   -6.2011   11.4681 N   0  0  0  0  0  0  0  0  0  0  0  0
   20.0267   -5.9800   12.7421 C   0  0  0  0  0  0  0  0  0  0  0  0
   19.4644   -5.5953   10.8837 H   0  0  0  0  0  0  0  0  0  0  0  0
   20.4463   -6.9751   11.0833 H   0  0  0  0  0  0  0  0  0  0  0  0
   24.5998  -10.8717   14.9936 C   0  0  0  0  0  0  0  0  0  0  0  0
   25.2882  -10.8132   13.7567 O   0  0  0  0  0  0  0  0  0  0  0  0
   26.8269  -11.2454   13.5332 P   0  0  0  0  0  0  0  0  0  0  0  0
   27.0289  -12.5216   14.2830 O   0  0  0  0  0  0  0  0  0  0  0  0
   27.6646  -10.1085   14.0463 O   0  0  0  0  0  0  0  0  0  0  0  0
   26.8478  -11.4632   12.0725 O   0  0  0  0  0  0  0  0  0  0  0  0
   27.5796  -10.0540   15.0110 H   0  0  0  0  0  0  0  0  0  0  0  0
   27.7380  -11.7342   11.7988 H   0  0  0  0  0  0  0  0  0  0  0  0
 26 25  2  0  0  0
 27 25  1  0  0  0
 25 24  1  0  0  0
 25 28  1  0  0  0
 14 10  2  0  0  0
 13 10  1  0  0  0
 10  1  1  0  0  0
 11 15  1  0  0  0
 11 14  1  0  0  0
 13 12  1  0  0  0
 15 13  2  0  0  0
 20 18  2  0  0  0
 20 15  1  0  0  0
 19 20  1  0  0  0
  7  1  1  0  0  0
  1  2  1  0  0  0
  2  4  1  0  0  0
  2  3  1  0  0  0
  6  4  1  0  0  0
  4  5  1  0  0  0
 23  6  1  0  0  0
  7  6  1  0  0  0
 23 24  1  0  0  0
 11 16  1  0  0  0
 12 17  1  0  0  0
 19 21  1  0  0  0
 19 22  1  0  0  0
  3  8  1  0  0  0
 27 29  1  0  0  0
  5  9  1  0  0  0
 28 30  1  0  0  0
M  END
> <minimizedAffinity>
-10.13447

$$$$
3MI2_PFU_A_1


 30 31  0  0  0  0  0  0  0  0999 V2000
   25.4585  -10.9462   17.1944 C   0  0  0  0  0  0  0  0  0  0  0  0
   24.7931  -12.2404   17.6524 C   0  0  0  0  0  0  0  0  0  0  0  0
   24.2904  -12.1069   18.9967 O   0  0  0  0  0  0  0  0  0  0  0  0
   25.9060  -13.2667   17.5985 C   0  0  0  0  0  0  0  0  0  0  0  0
   26.6720  -13.2477   18.8110 O   0  0  0  0  0  0  0  0  0  0  0  0
   26.7781  -12.7552   16.4665 C   0  0  0  0  0  0  0  0  0  0  0  0
   26.6486  -11.3318   16.4736 O   0  0  0  0  0  0  0  0  0  0  0  0
   25.0171  -11.8625   19.5909 H   0  0  0  0  0  0  0  0  0  0  0  0
   27.0176  -12.3539   18.9611 H   0  0  0  0  0  0  0  0  0  0  0  0
   24.6220  -10.1923   16.2608 C   0  0  0  0  0  0  0  0  0  0  0  0
   23.4456   -9.5061   14.4276 N   0  0  0  0  0  0  0  0  0  0  0  0
   24.1743   -8.0558   17.6011 O   0  0  0  0  0  0  0  0  0  0  0  0
   24.0345   -8.8886   16.4479 C   0  0  0  0  0  0  0  0  0  0  0  0
   24.2266  -10.5200   15.0083 N   0  0  0  0  0  0  0  0  0  0  0  0
   23.2859   -8.4678   15.2915 C   0  0  0  0  0  0  0  0  0  0  0  0
   23.0661   -9.5424   13.5199 H   0  0  0  0  0  0  0  0  0  0  0  0
   24.6674   -8.3562   18.3390 H   0  0  0  0  0  0  0  0  0  0  0  0
   21.3907   -7.0964   15.0150 O   0  0  0  0  0  0  0  0  0  0  0  0
   23.4365   -6.1596   15.1330 N   0  0  0  0  0  0  0  0  0  0  0  0
   22.6372   -7.1770   15.1077 C   0  0  0  0  0  0  0  0  0  0  0  0
   23.0791   -5.2498   15.0164 H   0  0  0  0  0  0  0  0  0  0  0  0
   24.4021   -6.2955   15.2690 H   0  0  0  0  0  0  0  0  0  0  0  0
   26.3108  -13.2773   15.1095 C   0  0  0  0  0  0  0  0  0  0  0  0
   27.2989  -12.8753   14.1773 O   0  0  0  0  0  0  0  0  0  0  0  0
   27.0703  -11.8058   12.9905 P   0  0  0  0  0  0  0  0  0  0  0  0
   25.7018  -12.0540   12.4451 O   0  0  0  0  0  0  0  0  0  0  0  0
   28.1669  -12.0422   11.9909 O   0  0  0  0  0  0  0  0  0  0  0  0
   27.1350  -10.5355   13.7411 O   0  0  0  0  0  0  0  0  0  0  0  0
   28.0298  -12.8989   11.5571 H   0  0  0  0  0  0  0  0  0  0  0  0
   27.0094   -9.7924   13.1305 H   0  0  0  0  0  0  0  0  0  0  0  0
 26 25  2  0  0  0
 27 25  1  0  0  0
 25 24  1  0  0  0
 25 28  1  0  0  0
 14 10  2  0  0  0
 13 10  1  0  0  0
 10  1  1  0  0  0
 11 15  1  0  0  0
 11 14  1  0  0  0
 13 12  1  0  0  0
 15 13  2  0  0  0
 20 18  2  0  0  0
 20 15  1  0  0  0
 19 20  1  0  0  0
  7  1  1  0  0  0
  1  2  1  0  0  0
  2  4  1  0  0  0
  2  3  1  0  0  0
  6  4  1  0  0  0
  4  5  1  0  0  0
 23  6  1  0  0  0
  7  6  1  0  0  0
 23 24  1  0  0  0
 11 16  1  0  0  0
 12 17  1  0  0  0
 19 21  1  0  0  0
 19 22  1  0  0  0
  3  8  1  0  0  0
 27 29  1  0  0  0
  5  9  1  0  0  0
 28 30  1  0  0  0
M  END
> <minimizedAffinity>
-9.53644

$$$$
3MI2_PFU_A_1


 30 31  0  0  0  0  0  0  0  0999 V2000
   24.5730  -10.4707   16.4317 C   0  0  0  0  0  0  0  0  0  0  0  0
   24.8906   -9.0472   16.8789 C   0  0  0  0  0  0  0  0  0  0  0  0
   25.5260   -9.0493   18.1728 O   0  0  0  0  0  0  0  0  0  0  0  0
   23.5365   -8.3720   16.9506 C   0  0  0  0  0  0  0  0  0  0  0  0
   22.9147   -8.6171   18.2197 O   0  0  0  0  0  0  0  0  0  0  0  0
   22.7451   -9.0946   15.8759 C   0  0  0  0  0  0  0  0  0  0  0  0
   23.2644  -10.4253   15.8233 O   0  0  0  0  0  0  0  0  0  0  0  0
   24.9503   -9.4932   18.8150 H   0  0  0  0  0  0  0  0  0  0  0  0
   22.8449   -9.5734   18.3663 H   0  0  0  0  0  0  0  0  0  0  0  0
   25.5010  -10.9510   15.4081 C   0  0  0  0  0  0  0  0  0  0  0  0
   26.8324  -11.1323   13.5615 N   0  0  0  0  0  0  0  0  0  0  0  0
   25.9177  -13.3526   16.1957 O   0  0  0  0  0  0  0  0  0  0  0  0
   26.1154  -12.2517   15.3059 C   0  0  0  0  0  0  0  0  0  0  0  0
   25.9774  -10.3100   14.3152 N   0  0  0  0  0  0  0  0  0  0  0  0
   26.9614  -12.3543   14.1446 C   0  0  0  0  0  0  0  0  0  0  0  0
   27.2769  -10.8610   12.7260 H   0  0  0  0  0  0  0  0  0  0  0  0
   25.3614  -13.2565   16.9435 H   0  0  0  0  0  0  0  0  0  0  0  0
   27.5499  -14.6290   14.3137 O   0  0  0  0  0  0  0  0  0  0  0  0
   28.3214  -13.4036   12.5874 N   0  0  0  0  0  0  0  0  0  0  0  0
   27.6641  -13.5472   13.6929 C   0  0  0  0  0  0  0  0  0  0  0  0
   28.8246  -14.1618   12.2119 H   0  0  0  0  0  0  0  0  0  0  0  0
   28.3182  -12.5361   12.1220 H   0  0  0  0  0  0  0  0  0  0  0  0
   22.9290   -8.4483   14.5044 C   0  0  0  0  0  0  0  0  0  0  0  0
   22.1718   -7.2514   14.5343 O   0  0  0  0  0  0  0  0  0  0  0  0
   20.6398   -7.1135   14.0458 P   0  0  0  0  0  0  0  0  0  0  0  0
   20.4408   -8.1233   12.9629 O   0  0  0  0  0  0  0  0  0  0  0  0
   20.4696   -5.6945   13.5821 O   0  0  0  0  0  0  0  0  0  0  0  0
   19.9175   -7.4878   15.2784 O   0  0  0  0  0  0  0  0  0  0  0  0
   20.9825   -5.5558   12.7706 H   0  0  0  0  0  0  0  0  0  0  0  0
   18.9617   -7.4453   15.1186 H   0  0  0  0  0  0  0  0  0  0  0  0
 26 25  2  0  0  0
 27 25  1  0  0  0
 25 24  1  0  0  0
 25 28  1  0  0  0
 14 10  2  0  0  0
 13 10  1  0  0  0
 10  1  1  0  0  0
 11 15  1  0  0  0
 11 14  1  0  0  0
 13 12  1  0  0  0
 15 13  2  0  0  0
 20 18  2  0  0  0
 20 15  1  0  0  0
 19 20  1  0  0  0
  7  1  1  0  0  0
  1  2  1  0  0  0
  2  4  1  0  0  0
  2  3  1  0  0  0
  6  4  1  0  0  0
  4  5  1  0  0  0
 23  6  1  0  0  0
  7  6  1  0  0  0
 23 24  1  0  0  0
 11 16  1  0  0  0
 12 17  1  0  0  0
 19 21  1  0  0  0
 19 22  1  0  0  0
  3  8  1  0  0  0
 27 29  1  0  0  0
  5  9  1  0  0  0
 28 30  1  0  0  0
M  END
> <minimizedAffinity>
-9.22196

$$$$
3MI2_PFU_A_1


 30 31  0  0  0  0  0  0  0  0999 V2000
   25.2669   -9.0227   15.4219 C   0  0  0  0  0  0  0  0  0  0  0  0
   23.7587   -8.8051   15.3480 C   0  0  0  0  0  0  0  0  0  0  0  0
   23.4475   -7.6736   14.5110 O   0  0  0  0  0  0  0  0  0  0  0  0
   23.3541   -8.5348   16.7826 C   0  0  0  0  0  0  0  0  0  0  0  0
   23.5245   -7.1474   17.1043 O   0  0  0  0  0  0  0  0  0  0  0  0
   24.3661   -9.3433   17.5736 C   0  0  0  0  0  0  0  0  0  0  0  0
   25.5647   -9.3557   16.7949 O   0  0  0  0  0  0  0  0  0  0  0  0
   23.8944   -6.8843   14.8549 H   0  0  0  0  0  0  0  0  0  0  0  0
   24.4441   -6.8875   16.9377 H   0  0  0  0  0  0  0  0  0  0  0  0
   25.7050  -10.1546   14.6056 C   0  0  0  0  0  0  0  0  0  0  0  0
   26.0216  -11.6412   12.9011 N   0  0  0  0  0  0  0  0  0  0  0  0
   27.0690  -11.5008   16.3053 O   0  0  0  0  0  0  0  0  0  0  0  0
   26.5267  -11.2712   15.0031 C   0  0  0  0  0  0  0  0  0  0  0  0
   25.4278  -10.4350   13.3107 N   0  0  0  0  0  0  0  0  0  0  0  0
   26.7301  -12.1984   13.9197 C   0  0  0  0  0  0  0  0  0  0  0  0
   25.9364  -12.0295   12.0005 H   0  0  0  0  0  0  0  0  0  0  0  0
   26.9203  -10.8796   16.9910 H   0  0  0  0  0  0  0  0  0  0  0  0
   27.1634  -14.2989   14.8940 O   0  0  0  0  0  0  0  0  0  0  0  0
   28.2737  -13.6836   13.0325 N   0  0  0  0  0  0  0  0  0  0  0  0
   27.4352  -13.4704   13.9949 C   0  0  0  0  0  0  0  0  0  0  0  0
   28.7923  -14.5200   13.0076 H   0  0  0  0  0  0  0  0  0  0  0  0
   28.3930  -13.0092   12.3252 H   0  0  0  0  0  0  0  0  0  0  0  0
   23.9060  -10.7852   17.7775 C   0  0  0  0  0  0  0  0  0  0  0  0
   24.9429  -11.4254   18.5001 O   0  0  0  0  0  0  0  0  0  0  0  0
   25.0346  -13.0128   18.7758 P   0  0  0  0  0  0  0  0  0  0  0  0
   23.6309  -13.5126   18.8845 O   0  0  0  0  0  0  0  0  0  0  0  0
   25.8301  -13.1776   20.0397 O   0  0  0  0  0  0  0  0  0  0  0  0
   25.6826  -13.4766   17.5323 O   0  0  0  0  0  0  0  0  0  0  0  0
   25.3159  -12.8436   20.7913 H   0  0  0  0  0  0  0  0  0  0  0  0
   25.7997  -14.4389   17.5682 H   0  0  0  0  0  0  0  0  0  0  0  0
 26 25  2  0  0  0
 27 25  1  0  0  0
 25 24  1  0  0  0
 25 28  1  0  0  0
 14 10  2  0  0  0
 13 10  1  0  0  0
 10  1  1  0  0  0
 11 15  1  0  0  0
 11 14  1  0  0  0
 13 12  1  0  0  0
 15 13  2  0  0  0
 20 18  2  0  0  0
 20 15  1  0  0  0
 19 20  1  0  0  0
  7  1  1  0  0  0
  1  2  1  0  0  0
  2  4  1  0  0  0
  2  3  1  0  0  0
  6  4  1  0  0  0
  4  5  1  0  0  0
 23  6  1  0  0  0
  7  6  1  0  0  0
 23 24  1  0  0  0
 11 16  1  0  0  0
 12 17  1  0  0  0
 19 21  1  0  0  0
 19 22  1  0  0  0
  3  8  1  0  0  0
 27 29  1  0  0  0
  5  9  1  0  0  0
 28 30  1  0  0  0
M  END
> <minimizedAffinity>
-9.10894

$$$$
3MI2_PFU_A_1


 30 31  0  0  0  0  0  0  0  0999 V2000
   25.2362  -11.4721   14.1122 C   0  0  0  0  0  0  0  0  0  0  0  0
   26.7407  -11.4145   13.8659 C   0  0  0  0  0  0  0  0  0  0  0  0
   27.0201  -11.1736   12.4725 O   0  0  0  0  0  0  0  0  0  0  0  0
   27.2352  -12.7852   14.2800 C   0  0  0  0  0  0  0  0  0  0  0  0
   27.1077  -13.7180   13.1979 O   0  0  0  0  0  0  0  0  0  0  0  0
   26.2590  -13.1765   15.3743 C   0  0  0  0  0  0  0  0  0  0  0  0
   25.0158  -12.5539   15.0427 O   0  0  0  0  0  0  0  0  0  0  0  0
   26.6080  -11.8682   11.9353 H   0  0  0  0  0  0  0  0  0  0  0  0
   26.1843  -13.7460   12.9022 H   0  0  0  0  0  0  0  0  0  0  0  0
   24.7310  -10.2554   14.7480 C   0  0  0  0  0  0  0  0  0  0  0  0
   24.4295   -8.4610   16.1280 N   0  0  0  0  0  0  0  0  0  0  0  0
   22.6120   -9.8160   13.3774 O   0  0  0  0  0  0  0  0  0  0  0  0
   23.5485   -9.5020   14.4104 C   0  0  0  0  0  0  0  0  0  0  0  0
   25.2288   -9.5708   15.8043 N   0  0  0  0  0  0  0  0  0  0  0  0
   23.3715   -8.3664   15.2786 C   0  0  0  0  0  0  0  0  0  0  0  0
   24.6107   -7.8375   16.8681 H   0  0  0  0  0  0  0  0  0  0  0  0
   22.7534  -10.5615   12.8277 H   0  0  0  0  0  0  0  0  0  0  0  0
   22.4276   -6.2114   15.1579 O   0  0  0  0  0  0  0  0  0  0  0  0
   21.0806   -8.0109   15.3134 N   0  0  0  0  0  0  0  0  0  0  0  0
   22.2437   -7.4450   15.2733 C   0  0  0  0  0  0  0  0  0  0  0  0
   20.2648   -7.4599   15.3130 H   0  0  0  0  0  0  0  0  0  0  0  0
   21.0116   -8.9925   15.3442 H   0  0  0  0  0  0  0  0  0  0  0  0
   26.7062  -12.6667   16.7427 C   0  0  0  0  0  0  0  0  0  0  0  0
   25.9611  -13.4050   17.6949 O   0  0  0  0  0  0  0  0  0  0  0  0
   24.9132  -12.7688   18.7445 P   0  0  0  0  0  0  0  0  0  0  0  0
   23.6280  -13.5108   18.5730 O   0  0  0  0  0  0  0  0  0  0  0  0
   24.8124  -11.3078   18.4089 O   0  0  0  0  0  0  0  0  0  0  0  0
   25.5656  -13.0996   20.0276 O   0  0  0  0  0  0  0  0  0  0  0  0
   24.3707  -11.2027   17.5517 H   0  0  0  0  0  0  0  0  0  0  0  0
   25.0254  -12.7652   20.7606 H   0  0  0  0  0  0  0  0  0  0  0  0
 26 25  2  0  0  0
 27 25  1  0  0  0
 25 24  1  0  0  0
 25 28  1  0  0  0
 14 10  2  0  0  0
 13 10  1  0  0  0
 10  1  1  0  0  0
 11 15  1  0  0  0
 11 14  1  0  0  0
 13 12  1  0  0  0
 15 13  2  0  0  0
 20 18  2  0  0  0
 20 15  1  0  0  0
 19 20  1  0  0  0
  7  1  1  0  0  0
  1  2  1  0  0  0
  2  4  1  0  0  0
  2  3  1  0  0  0
  6  4  1  0  0  0
  4  5  1  0  0  0
 23  6  1  0  0  0
  7  6  1  0  0  0
 23 24  1  0  0  0
 11 16  1  0  0  0
 12 17  1  0  0  0
 19 21  1  0  0  0
 19 22  1  0  0  0
  3  8  1  0  0  0
 27 29  1  0  0  0
  5  9  1  0  0  0
 28 30  1  0  0  0
M  END
> <minimizedAffinity>
-8.50317

$$$$
3MI2_PFU_A_1


 30 31  0  0  0  0  0  0  0  0999 V2000
   23.8625  -10.3904   16.7052 C   0  0  0  0  0  0  0  0  0  0  0  0
   24.2798   -8.9236   16.7471 C   0  0  0  0  0  0  0  0  0  0  0  0
   23.1925   -8.0974   17.2084 O   0  0  0  0  0  0  0  0  0  0  0  0
   24.6250   -8.5969   15.3087 C   0  0  0  0  0  0  0  0  0  0  0  0
   23.4483   -8.2268   14.5768 O   0  0  0  0  0  0  0  0  0  0  0  0
   25.1292   -9.9254   14.7756 C   0  0  0  0  0  0  0  0  0  0  0  0
   24.4193  -10.9389   15.4912 O   0  0  0  0  0  0  0  0  0  0  0  0
   22.4238   -8.2219   16.6300 H   0  0  0  0  0  0  0  0  0  0  0  0
   22.7943   -8.9409   14.6335 H   0  0  0  0  0  0  0  0  0  0  0  0
   24.4244  -11.1592   17.8155 C   0  0  0  0  0  0  0  0  0  0  0  0
   25.0533  -11.8874   19.8867 N   0  0  0  0  0  0  0  0  0  0  0  0
   25.6450  -13.0308   16.5628 O   0  0  0  0  0  0  0  0  0  0  0  0
   25.2238  -12.3579   17.7513 C   0  0  0  0  0  0  0  0  0  0  0  0
   24.3526  -10.9201   19.1459 N   0  0  0  0  0  0  0  0  0  0  0  0
   25.6073  -12.8162   19.0619 C   0  0  0  0  0  0  0  0  0  0  0  0
   25.1322  -11.8919   20.8680 H   0  0  0  0  0  0  0  0  0  0  0  0
   25.3798  -12.7095   15.7235 H   0  0  0  0  0  0  0  0  0  0  0  0
   26.0432  -14.9474   19.9659 O   0  0  0  0  0  0  0  0  0  0  0  0
   27.6793  -13.8408   18.8816 N   0  0  0  0  0  0  0  0  0  0  0  0
   26.4810  -13.9427   19.3595 C   0  0  0  0  0  0  0  0  0  0  0  0
   28.3340  -14.5594   19.0371 H   0  0  0  0  0  0  0  0  0  0  0  0
   27.9363  -13.0447   18.3626 H   0  0  0  0  0  0  0  0  0  0  0  0
   26.6238  -10.1089   15.0308 C   0  0  0  0  0  0  0  0  0  0  0  0
   27.1795  -10.5308   13.7978 O   0  0  0  0  0  0  0  0  0  0  0  0
   27.0859  -12.0290   13.2054 P   0  0  0  0  0  0  0  0  0  0  0  0
   25.6978  -12.1982   12.6798 O   0  0  0  0  0  0  0  0  0  0  0  0
   27.4145  -12.9548   14.3422 O   0  0  0  0  0  0  0  0  0  0  0  0
   28.0771  -11.9611   12.1126 O   0  0  0  0  0  0  0  0  0  0  0  0
   26.7028  -12.9237   15.0006 H   0  0  0  0  0  0  0  0  0  0  0  0
   28.1214  -12.8191   11.6624 H   0  0  0  0  0  0  0  0  0  0  0  0
 26 25  2  0  0  0
 27 25  1  0  0  0
 25 24  1  0  0  0
 25 28  1  0  0  0
 14 10  2  0  0  0
 13 10  1  0  0  0
 10  1  1  0  0  0
 11 15  1  0  0  0
 11 14  1  0  0  0
 13 12  1  0  0  0
 15 13  2  0  0  0
 20 18  2  0  0  0
 20 15  1  0  0  0
 19 20  1  0  0  0
  7  1  1  0  0  0
  1  2  1  0  0  0
  2  4  1  0  0  0
  2  3  1  0  0  0
  6  4  1  0  0  0
  4  5  1  0  0  0
 23  6  1  0  0  0
  7  6  1  0  0  0
 23 24  1  0  0  0
 11 16  1  0  0  0
 12 17  1  0  0  0
 19 21  1  0  0  0
 19 22  1  0  0  0
  3  8  1  0  0  0
 27 29  1  0  0  0
  5  9  1  0  0  0
 28 30  1  0  0  0
M  END
> <minimizedAffinity>
-8.03107

$$$$
