2CBV_CGB_A_1447


 17 18  0  0  0  0  0  0  0  0999 V2000
    0.6427   12.4570   10.5209 O   0  0  0  0  0  0  0  0  0  0  0  0
   -0.0306   11.3449    9.9332 C   0  0  0  0  0  0  0  0  0  0  0  0
   -1.1771   10.9521   10.7264 N   0  0  0  0  0  0  0  0  0  0  0  0
    0.7913   10.0588    9.9398 C   0  0  0  0  0  0  0  0  0  0  0  0
   -0.2421    8.9331   10.0458 C   0  0  0  0  0  0  0  0  0  0  0  0
   -1.5841    9.6572   10.2590 C   0  0  0  0  0  0  0  0  0  0  0  0
   -0.4944   11.6542    8.4920 C   0  0  0  0  0  0  0  0  0  0  0  0
    0.6826   11.8844    7.7022 O   0  0  0  0  0  0  0  0  0  0  0  0
   -1.3648   10.5001    7.9167 C   0  0  0  0  0  0  0  0  0  0  0  0
   -2.0657   10.9252    6.7501 O   0  0  0  0  0  0  0  0  0  0  0  0
   -2.3446    9.9379    8.9496 C   0  0  0  0  0  0  0  0  0  0  0  0
   -2.9654    8.7180    8.4973 O   0  0  0  0  0  0  0  0  0  0  0  0
    0.9189   12.2282   11.4221 H   0  0  0  0  0  0  0  0  0  0  0  0
   -1.9352   11.6235   10.6035 H   0  0  0  0  0  0  0  0  0  0  0  0
    1.2432   11.0930    7.7191 H   0  0  0  0  0  0  0  0  0  0  0  0
   -2.6770   11.6414    6.9832 H   0  0  0  0  0  0  0  0  0  0  0  0
   -2.2840    8.0430    8.3522 H   0  0  0  0  0  0  0  0  0  0  0  0
  1  2  1  0  0  0
  2  3  1  0  0  0
  2  4  1  0  0  0
  2  7  1  0  0  0
  3  6  1  0  0  0
  4  5  1  0  0  0
  5  6  1  0  0  0
  6 11  1  0  0  0
  7  8  1  0  0  0
  7  9  1  0  0  0
  9 10  1  0  0  0
  9 11  1  0  0  0
 11 12  1  0  0  0
  1 13  1  0  0  0
  3 14  1  0  0  0
  8 15  1  0  0  0
 10 16  1  0  0  0
 12 17  1  0  0  0
M  END
> <minimizedAffinity>
-8.06163

$$$$
2CBV_CGB_A_1447


 17 18  0  0  0  0  0  0  0  0999 V2000
   -1.3069   10.9565    6.4897 O   0  0  0  0  0  0  0  0  0  0  0  0
   -1.2191   10.5905    7.8658 C   0  0  0  0  0  0  0  0  0  0  0  0
   -0.9189    9.1809    8.0113 N   0  0  0  0  0  0  0  0  0  0  0  0
   -2.5468   10.6912    8.6118 C   0  0  0  0  0  0  0  0  0  0  0  0
   -2.4760    9.6034    9.6879 C   0  0  0  0  0  0  0  0  0  0  0  0
   -1.1749    8.8390    9.3819 C   0  0  0  0  0  0  0  0  0  0  0  0
   -0.1449   11.4158    8.6093 C   0  0  0  0  0  0  0  0  0  0  0  0
   -0.5605   12.7900    8.5768 O   0  0  0  0  0  0  0  0  0  0  0  0
    0.0574   10.9032   10.0642 C   0  0  0  0  0  0  0  0  0  0  0  0
    1.2621   11.4222   10.6230 O   0  0  0  0  0  0  0  0  0  0  0  0
    0.0470    9.3750   10.1509 C   0  0  0  0  0  0  0  0  0  0  0  0
   -0.0172    8.9117   11.5145 O   0  0  0  0  0  0  0  0  0  0  0  0
   -1.9886   10.4203    6.0554 H   0  0  0  0  0  0  0  0  0  0  0  0
    0.0595    9.0053    7.7830 H   0  0  0  0  0  0  0  0  0  0  0  0
   -1.4224   12.8775    9.0132 H   0  0  0  0  0  0  0  0  0  0  0  0
    2.0206   11.1019   10.1101 H   0  0  0  0  0  0  0  0  0  0  0  0
   -0.8376    9.2272   11.9249 H   0  0  0  0  0  0  0  0  0  0  0  0
  1  2  1  0  0  0
  2  3  1  0  0  0
  2  4  1  0  0  0
  2  7  1  0  0  0
  3  6  1  0  0  0
  4  5  1  0  0  0
  5  6  1  0  0  0
  6 11  1  0  0  0
  7  8  1  0  0  0
  7  9  1  0  0  0
  9 10  1  0  0  0
  9 11  1  0  0  0
 11 12  1  0  0  0
  1 13  1  0  0  0
  3 14  1  0  0  0
  8 15  1  0  0  0
 10 16  1  0  0  0
 12 17  1  0  0  0
M  END
> <minimizedAffinity>
-7.36583

$$$$
2CBV_CGB_A_1447


 17 18  0  0  0  0  0  0  0  0999 V2000
    0.4140   12.3396    7.6317 O   0  0  0  0  0  0  0  0  0  0  0  0
   -0.3046   11.3350    8.3457 C   0  0  0  0  0  0  0  0  0  0  0  0
   -0.7560   10.2856    7.4551 N   0  0  0  0  0  0  0  0  0  0  0  0
   -1.6290   11.8248    8.9249 C   0  0  0  0  0  0  0  0  0  0  0  0
   -2.5406   10.5938    8.9159 C   0  0  0  0  0  0  0  0  0  0  0  0
   -1.7279    9.5146    8.1774 C   0  0  0  0  0  0  0  0  0  0  0  0
    0.5515   10.7104    9.4704 C   0  0  0  0  0  0  0  0  0  0  0  0
    0.8465   11.7518   10.4142 O   0  0  0  0  0  0  0  0  0  0  0  0
   -0.1784    9.5096   10.1380 C   0  0  0  0  0  0  0  0  0  0  0  0
    0.7287    8.7331   10.9172 O   0  0  0  0  0  0  0  0  0  0  0  0
   -0.8958    8.6226    9.1174 C   0  0  0  0  0  0  0  0  0  0  0  0
   -1.7690    7.6670    9.7516 O   0  0  0  0  0  0  0  0  0  0  0  0
   -0.1519   12.7087    6.9357 H   0  0  0  0  0  0  0  0  0  0  0  0
    0.0294    9.6942    7.1835 H   0  0  0  0  0  0  0  0  0  0  0  0
    0.0182   12.1081   10.7719 H   0  0  0  0  0  0  0  0  0  0  0  0
    1.4096    8.3547   10.3391 H   0  0  0  0  0  0  0  0  0  0  0  0
   -2.4534    8.1373   10.2530 H   0  0  0  0  0  0  0  0  0  0  0  0
  1  2  1  0  0  0
  2  3  1  0  0  0
  2  4  1  0  0  0
  2  7  1  0  0  0
  3  6  1  0  0  0
  4  5  1  0  0  0
  5  6  1  0  0  0
  6 11  1  0  0  0
  7  8  1  0  0  0
  7  9  1  0  0  0
  9 10  1  0  0  0
  9 11  1  0  0  0
 11 12  1  0  0  0
  1 13  1  0  0  0
  3 14  1  0  0  0
  8 15  1  0  0  0
 10 16  1  0  0  0
 12 17  1  0  0  0
M  END
> <minimizedAffinity>
-6.29231

$$$$
2CBV_CGB_A_1447


 17 18  0  0  0  0  0  0  0  0999 V2000
   -3.0187    8.4159    8.3864 O   0  0  0  0  0  0  0  0  0  0  0  0
   -2.0655    9.1797    9.1235 C   0  0  0  0  0  0  0  0  0  0  0  0
   -0.7533    8.5689    9.0668 N   0  0  0  0  0  0  0  0  0  0  0  0
   -2.3235    9.1930   10.6278 C   0  0  0  0  0  0  0  0  0  0  0  0
   -0.9350    9.3154   11.2631 C   0  0  0  0  0  0  0  0  0  0  0  0
    0.0443    9.1987   10.0807 C   0  0  0  0  0  0  0  0  0  0  0  0
   -1.9708   10.6314    8.6027 C   0  0  0  0  0  0  0  0  0  0  0  0
   -3.2481   11.2501    8.8209 O   0  0  0  0  0  0  0  0  0  0  0  0
   -0.8197   11.4104    9.3018 C   0  0  0  0  0  0  0  0  0  0  0  0
   -0.5127   12.6084    8.5923 O   0  0  0  0  0  0  0  0  0  0  0  0
    0.4400   10.5583    9.4753 C   0  0  0  0  0  0  0  0  0  0  0  0
    1.4063   11.1919   10.3372 O   0  0  0  0  0  0  0  0  0  0  0  0
   -3.0519    7.5129    8.7392 H   0  0  0  0  0  0  0  0  0  0  0  0
   -0.3358    8.7193    8.1484 H   0  0  0  0  0  0  0  0  0  0  0  0
   -3.4551   11.2390    9.7685 H   0  0  0  0  0  0  0  0  0  0  0  0
   -0.1943   12.3853    7.7036 H   0  0  0  0  0  0  0  0  0  0  0  0
    1.0210   11.3158   11.2188 H   0  0  0  0  0  0  0  0  0  0  0  0
  1  2  1  0  0  0
  2  3  1  0  0  0
  2  4  1  0  0  0
  2  7  1  0  0  0
  3  6  1  0  0  0
  4  5  1  0  0  0
  5  6  1  0  0  0
  6 11  1  0  0  0
  7  8  1  0  0  0
  7  9  1  0  0  0
  9 10  1  0  0  0
  9 11  1  0  0  0
 11 12  1  0  0  0
  1 13  1  0  0  0
  3 14  1  0  0  0
  8 15  1  0  0  0
 10 16  1  0  0  0
 12 17  1  0  0  0
M  END
> <minimizedAffinity>
-6.20028

$$$$
2CBV_CGB_A_1447


 17 18  0  0  0  0  0  0  0  0999 V2000
    1.0380    7.8701   11.1187 O   0  0  0  0  0  0  0  0  0  0  0  0
   -0.1046    8.4823   10.5230 C   0  0  0  0  0  0  0  0  0  0  0  0
   -0.4350    9.7259   11.1884 N   0  0  0  0  0  0  0  0  0  0  0  0
   -1.3943    7.6892   10.7161 C   0  0  0  0  0  0  0  0  0  0  0  0
   -2.5020    8.7461   10.7625 C   0  0  0  0  0  0  0  0  0  0  0  0
   -1.7544   10.0921   10.7573 C   0  0  0  0  0  0  0  0  0  0  0  0
    0.1131    8.7562    9.0179 C   0  0  0  0  0  0  0  0  0  0  0  0
    0.2811    7.4856    8.3703 O   0  0  0  0  0  0  0  0  0  0  0  0
   -1.0691    9.5663    8.4123 C   0  0  0  0  0  0  0  0  0  0  0  0
   -0.7158   10.1078    7.1416 O   0  0  0  0  0  0  0  0  0  0  0  0
   -1.5541   10.6773    9.3469 C   0  0  0  0  0  0  0  0  0  0  0  0
   -2.7959   11.2563    8.8989 O   0  0  0  0  0  0  0  0  0  0  0  0
    0.8667    7.7132   12.0604 H   0  0  0  0  0  0  0  0  0  0  0  0
    0.2331   10.4513   10.9278 H   0  0  0  0  0  0  0  0  0  0  0  0
   -0.5120    6.9446    8.5087 H   0  0  0  0  0  0  0  0  0  0  0  0
    0.0192   10.7317    7.2491 H   0  0  0  0  0  0  0  0  0  0  0  0
   -3.4846   10.5733    8.8848 H   0  0  0  0  0  0  0  0  0  0  0  0
  1  2  1  0  0  0
  2  3  1  0  0  0
  2  4  1  0  0  0
  2  7  1  0  0  0
  3  6  1  0  0  0
  4  5  1  0  0  0
  5  6  1  0  0  0
  6 11  1  0  0  0
  7  8  1  0  0  0
  7  9  1  0  0  0
  9 10  1  0  0  0
  9 11  1  0  0  0
 11 12  1  0  0  0
  1 13  1  0  0  0
  3 14  1  0  0  0
  8 15  1  0  0  0
 10 16  1  0  0  0
 12 17  1  0  0  0
M  END
> <minimizedAffinity>
-6.14936

$$$$
2CBV_CGB_A_1447


 17 18  0  0  0  0  0  0  0  0999 V2000
   -1.2653    9.0477   12.8251 O   0  0  0  0  0  0  0  0  0  0  0  0
   -1.3671    9.0784   11.4024 C   0  0  0  0  0  0  0  0  0  0  0  0
   -1.3241   10.4388   10.9068 N   0  0  0  0  0  0  0  0  0  0  0  0
   -2.7215    8.6119   10.8755 C   0  0  0  0  0  0  0  0  0  0  0  0
   -2.9344    9.4055    9.5828 C   0  0  0  0  0  0  0  0  0  0  0  0
   -1.7587   10.3987    9.5392 C   0  0  0  0  0  0  0  0  0  0  0  0
   -0.2417    8.2596   10.7311 C   0  0  0  0  0  0  0  0  0  0  0  0
   -0.4144    6.8894   11.1244 O   0  0  0  0  0  0  0  0  0  0  0  0
   -0.2631    8.4283    9.1846 C   0  0  0  0  0  0  0  0  0  0  0  0
    0.9556    7.9669    8.6061 O   0  0  0  0  0  0  0  0  0  0  0  0
   -0.5395    9.8725    8.7592 C   0  0  0  0  0  0  0  0  0  0  0  0
   -0.8058    9.9779    7.3464 O   0  0  0  0  0  0  0  0  0  0  0  0
   -1.9851    9.5702   13.2121 H   0  0  0  0  0  0  0  0  0  0  0  0
   -0.3726   10.8023   10.9619 H   0  0  0  0  0  0  0  0  0  0  0  0
   -1.2854    6.5769   10.8337 H   0  0  0  0  0  0  0  0  0  0  0  0
    1.6928    8.5065    8.9319 H   0  0  0  0  0  0  0  0  0  0  0  0
   -1.5952    9.4588    7.1265 H   0  0  0  0  0  0  0  0  0  0  0  0
  1  2  1  0  0  0
  2  3  1  0  0  0
  2  4  1  0  0  0
  2  7  1  0  0  0
  3  6  1  0  0  0
  4  5  1  0  0  0
  5  6  1  0  0  0
  6 11  1  0  0  0
  7  8  1  0  0  0
  7  9  1  0  0  0
  9 10  1  0  0  0
  9 11  1  0  0  0
 11 12  1  0  0  0
  1 13  1  0  0  0
  3 14  1  0  0  0
  8 15  1  0  0  0
 10 16  1  0  0  0
 12 17  1  0  0  0
M  END
> <minimizedAffinity>
-5.92587

$$$$
2CBV_CGB_A_1447


 17 18  0  0  0  0  0  0  0  0999 V2000
   -0.9638    5.5105    9.4933 O   0  0  0  0  0  0  0  0  0  0  0  0
   -0.7820    6.8698    9.8863 C   0  0  0  0  0  0  0  0  0  0  0  0
   -1.8116    7.7172    9.3206 N   0  0  0  0  0  0  0  0  0  0  0  0
    0.4793    7.5095    9.3122 C   0  0  0  0  0  0  0  0  0  0  0  0
    0.1276    8.9911    9.1468 C   0  0  0  0  0  0  0  0  0  0  0  0
   -1.3722    9.0740    9.4847 C   0  0  0  0  0  0  0  0  0  0  0  0
   -0.7865    7.0258   11.4236 C   0  0  0  0  0  0  0  0  0  0  0  0
    0.3421    6.2981   11.9323 O   0  0  0  0  0  0  0  0  0  0  0  0
   -0.7495    8.5239   11.8415 C   0  0  0  0  0  0  0  0  0  0  0  0
   -1.0980    8.6770   13.2155 O   0  0  0  0  0  0  0  0  0  0  0  0
   -1.6509    9.3965   10.9645 C   0  0  0  0  0  0  0  0  0  0  0  0
   -1.4249   10.8026   11.1885 O   0  0  0  0  0  0  0  0  0  0  0  0
   -0.9557    5.4499    8.5252 H   0  0  0  0  0  0  0  0  0  0  0  0
   -2.6939    7.5725    9.8116 H   0  0  0  0  0  0  0  0  0  0  0  0
    1.1581    6.6609   11.5537 H   0  0  0  0  0  0  0  0  0  0  0  0
   -2.0094    8.3750   13.3535 H   0  0  0  0  0  0  0  0  0  0  0  0
   -0.5074   11.0224   10.9635 H   0  0  0  0  0  0  0  0  0  0  0  0
  1  2  1  0  0  0
  2  3  1  0  0  0
  2  4  1  0  0  0
  2  7  1  0  0  0
  3  6  1  0  0  0
  4  5  1  0  0  0
  5  6  1  0  0  0
  6 11  1  0  0  0
  7  8  1  0  0  0
  7  9  1  0  0  0
  9 10  1  0  0  0
  9 11  1  0  0  0
 11 12  1  0  0  0
  1 13  1  0  0  0
  3 14  1  0  0  0
  8 15  1  0  0  0
 10 16  1  0  0  0
 12 17  1  0  0  0
M  END
> <minimizedAffinity>
-5.86415

$$$$
2CBV_CGB_A_1447


 17 18  0  0  0  0  0  0  0  0999 V2000
   -1.3879    5.9094   12.7606 O   0  0  0  0  0  0  0  0  0  0  0  0
   -0.7506    6.8402   11.8872 C   0  0  0  0  0  0  0  0  0  0  0  0
   -0.8826    6.4306   10.5041 N   0  0  0  0  0  0  0  0  0  0  0  0
    0.7672    6.8840   12.0418 C   0  0  0  0  0  0  0  0  0  0  0  0
    1.2935    7.2417   10.6484 C   0  0  0  0  0  0  0  0  0  0  0  0
    0.0468    7.2185    9.7451 C   0  0  0  0  0  0  0  0  0  0  0  0
   -1.3278    8.2643   12.0503 C   0  0  0  0  0  0  0  0  0  0  0  0
   -1.0377    8.6944   13.3894 O   0  0  0  0  0  0  0  0  0  0  0  0
   -0.7435    9.2380   10.9868 C   0  0  0  0  0  0  0  0  0  0  0  0
   -1.5155   10.4345   10.9148 O   0  0  0  0  0  0  0  0  0  0  0  0
   -0.6337    8.5927    9.6032 C   0  0  0  0  0  0  0  0  0  0  0  0
    0.1317    9.4026    8.6886 O   0  0  0  0  0  0  0  0  0  0  0  0
   -1.0021    5.0288   12.6318 H   0  0  0  0  0  0  0  0  0  0  0  0
   -1.8340    6.5993   10.1776 H   0  0  0  0  0  0  0  0  0  0  0  0
   -0.0776    8.6961   13.5276 H   0  0  0  0  0  0  0  0  0  0  0  0
   -2.4168   10.2209   10.6270 H   0  0  0  0  0  0  0  0  0  0  0  0
    1.0344    9.5079    9.0277 H   0  0  0  0  0  0  0  0  0  0  0  0
  1  2  1  0  0  0
  2  3  1  0  0  0
  2  4  1  0  0  0
  2  7  1  0  0  0
  3  6  1  0  0  0
  4  5  1  0  0  0
  5  6  1  0  0  0
  6 11  1  0  0  0
  7  8  1  0  0  0
  7  9  1  0  0  0
  9 10  1  0  0  0
  9 11  1  0  0  0
 11 12  1  0  0  0
  1 13  1  0  0  0
  3 14  1  0  0  0
  8 15  1  0  0  0
 10 16  1  0  0  0
 12 17  1  0  0  0
M  END
> <minimizedAffinity>
-5.84674

$$$$
2CBV_CGB_A_1447


 17 18  0  0  0  0  0  0  0  0999 V2000
   -0.6364    8.9627   12.3526 O   0  0  0  0  0  0  0  0  0  0  0  0
   -1.0759    9.0758   11.0000 C   0  0  0  0  0  0  0  0  0  0  0  0
   -2.5081    8.8828   10.9003 N   0  0  0  0  0  0  0  0  0  0  0  0
   -0.5610    7.9607   10.0939 C   0  0  0  0  0  0  0  0  0  0  0  0
   -1.6572    7.7731    9.0406 C   0  0  0  0  0  0  0  0  0  0  0  0
   -2.8065    8.6837    9.5103 C   0  0  0  0  0  0  0  0  0  0  0  0
   -0.7067   10.4475   10.3920 C   0  0  0  0  0  0  0  0  0  0  0  0
    0.7264   10.5337   10.3654 O   0  0  0  0  0  0  0  0  0  0  0  0
   -1.3269   10.6254    8.9762 C   0  0  0  0  0  0  0  0  0  0  0  0
   -1.2810   11.9911    8.5693 O   0  0  0  0  0  0  0  0  0  0  0  0
   -2.7607   10.0954    8.8968 C   0  0  0  0  0  0  0  0  0  0  0  0
   -3.2385   10.0319    7.5381 O   0  0  0  0  0  0  0  0  0  0  0  0
   -0.8842    8.0921   12.7013 H   0  0  0  0  0  0  0  0  0  0  0  0
   -2.9981    9.7063   11.2497 H   0  0  0  0  0  0  0  0  0  0  0  0
    1.0838    9.8120    9.8246 H   0  0  0  0  0  0  0  0  0  0  0  0
   -1.8174   12.5270    9.1743 H   0  0  0  0  0  0  0  0  0  0  0  0
   -2.6804    9.4250    7.0272 H   0  0  0  0  0  0  0  0  0  0  0  0
  1  2  1  0  0  0
  2  3  1  0  0  0
  2  4  1  0  0  0
  2  7  1  0  0  0
  3  6  1  0  0  0
  4  5  1  0  0  0
  5  6  1  0  0  0
  6 11  1  0  0  0
  7  8  1  0  0  0
  7  9  1  0  0  0
  9 10  1  0  0  0
  9 11  1  0  0  0
 11 12  1  0  0  0
  1 13  1  0  0  0
  3 14  1  0  0  0
  8 15  1  0  0  0
 10 16  1  0  0  0
 12 17  1  0  0  0
M  END
> <minimizedAffinity>
-5.56044

$$$$
2CBV_CGB_A_1447


 17 18  0  0  0  0  0  0  0  0999 V2000
    0.1744    8.6917    9.1966 O   0  0  0  0  0  0  0  0  0  0  0  0
   -0.1263    7.9619   10.3850 C   0  0  0  0  0  0  0  0  0  0  0  0
    1.0853    7.5578   11.0682 N   0  0  0  0  0  0  0  0  0  0  0  0
   -0.7858    6.6106   10.1230 C   0  0  0  0  0  0  0  0  0  0  0  0
   -0.3227    5.7173   11.2780 C   0  0  0  0  0  0  0  0  0  0  0  0
    0.7071    6.5713   12.0401 C   0  0  0  0  0  0  0  0  0  0  0  0
   -1.0033    8.7854   11.3548 C   0  0  0  0  0  0  0  0  0  0  0  0
   -2.2560    9.0314   10.6973 O   0  0  0  0  0  0  0  0  0  0  0  0
   -1.1931    8.0488   12.7119 C   0  0  0  0  0  0  0  0  0  0  0  0
   -1.6958    8.9378   13.7067 O   0  0  0  0  0  0  0  0  0  0  0  0
    0.0956    7.3813   13.1984 C   0  0  0  0  0  0  0  0  0  0  0  0
   -0.1408    6.4991   14.3138 O   0  0  0  0  0  0  0  0  0  0  0  0
    0.7245    8.1463    8.6127 H   0  0  0  0  0  0  0  0  0  0  0  0
    1.5114    8.3607   11.5310 H   0  0  0  0  0  0  0  0  0  0  0  0
   -2.6813    8.1858   10.4850 H   0  0  0  0  0  0  0  0  0  0  0  0
   -1.0504    9.6444   13.8648 H   0  0  0  0  0  0  0  0  0  0  0  0
   -0.7454    5.7905   14.0431 H   0  0  0  0  0  0  0  0  0  0  0  0
  1  2  1  0  0  0
  2  3  1  0  0  0
  2  4  1  0  0  0
  2  7  1  0  0  0
  3  6  1  0  0  0
  4  5  1  0  0  0
  5  6  1  0  0  0
  6 11  1  0  0  0
  7  8  1  0  0  0
  7  9  1  0  0  0
  9 10  1  0  0  0
  9 11  1  0  0  0
 11 12  1  0  0  0
  1 13  1  0  0  0
  3 14  1  0  0  0
  8 15  1  0  0  0
 10 16  1  0  0  0
 12 17  1  0  0  0
M  END
> <minimizedAffinity>
-5.33328

$$$$
