4QEV_31O_A_501


 30 33  0  0  0  0  0  0  0  0999 V2000
   70.0199   -6.9805   71.4832 C   0  0  0  0  0  0  0  0  0  0  0  0
   69.9212   -6.4550   72.8876 N   0  0  0  0  0  0  0  0  0  0  0  0
   69.1005   -6.2181   70.7261 C   0  0  0  0  0  0  0  0  0  0  0  0
   67.9526   -6.6570   70.1810 N   0  0  0  0  0  0  0  0  0  0  0  0
   67.3975   -5.7205   69.6247 N   0  0  0  0  0  0  0  0  0  0  0  0
   68.1558   -4.6191   69.7719 C   0  0  0  0  0  0  0  0  0  0  0  0
   67.8031   -3.2476   69.2038 C   0  0  0  0  0  0  0  0  0  0  0  0
   69.2426   -4.9120   70.4837 N   0  0  0  0  0  0  0  0  0  0  0  0
   70.3343   -4.2434   70.9412 C   0  0  0  0  0  0  0  0  0  0  0  0
   70.9767   -3.3970   70.0308 C   0  0  0  0  0  0  0  0  0  0  0  0
   72.1331   -2.7019   70.4064 C   0  0  0  0  0  0  0  0  0  0  0  0
   72.6862   -2.8586   71.6821 C   0  0  0  0  0  0  0  0  0  0  0  0
   72.0588   -3.7122   72.5838 C   0  0  0  0  0  0  0  0  0  0  0  0
   70.8993   -4.3972   72.2211 C   0  0  0  0  0  0  0  0  0  0  0  0
   70.3805   -5.2290   73.2177 C   0  0  0  0  0  0  0  0  0  0  0  0
   70.2346   -4.7700   74.5381 C   0  0  0  0  0  0  0  0  0  0  0  0
   70.4206   -5.6427   75.6189 C   0  0  0  0  0  0  0  0  0  0  0  0
   70.2648   -5.1863   76.9284 C   0  0  0  0  0  0  0  0  0  0  0  0
   69.9182   -3.8574   77.1741 C   0  0  0  0  0  0  0  0  0  0  0  0
   69.7210   -3.2936   78.8052 Cl  0  0  0  0  0  0  0  0  0  0  0  0
   69.7314   -2.9867   76.1103 C   0  0  0  0  0  0  0  0  0  0  0  0
   69.8880   -3.4400   74.8018 C   0  0  0  0  0  0  0  0  0  0  0  0
   69.8815   -8.4880   71.3503 C   0  0  0  0  0  0  0  0  0  0  0  0
   70.5340   -8.8963   70.0159 C   0  0  0  0  0  0  0  0  0  0  0  0
   70.5971   -9.1878   72.5416 C   0  0  0  0  0  0  0  0  0  0  0  0
   69.9733   -9.7498   73.4478 O   0  0  0  0  0  0  0  0  0  0  0  0
   72.5677   -8.7350   73.7193 C   0  0  0  0  0  0  0  0  0  0  0  0
   71.9551   -9.1489   72.4971 O   0  0  0  0  0  0  0  0  0  0  0  0
   73.8190   -2.2114   72.1223 O   0  0  0  0  0  0  0  0  0  0  0  0
   74.3045   -1.0530   71.4205 C   0  0  0  0  0  0  0  0  0  0  0  0
  7  6  1  0  0  0
  5  6  2  0  0  0
  5  4  1  0  0  0
  6  8  1  0  0  0
 24 23  1  0  0  0
 10 11  2  0  0  0
 10  9  1  0  0  0
  4  3  2  0  0  0
 11 12  1  0  0  0
  8  3  1  0  0  0
  8  9  1  0  0  0
  3  1  1  0  0  0
  9 14  2  0  0  0
 30 29  1  0  0  0
 23  1  1  0  0  0
 23 25  1  0  0  0
  1  2  1  0  0  0
 12 29  1  0  0  0
 12 13  2  0  0  0
 14 13  1  0  0  0
 14 15  1  0  0  0
 25 28  1  0  0  0
 25 26  2  0  0  0
 28 27  1  0  0  0
  2 15  2  0  0  0
 15 16  1  0  0  0
 16 22  2  0  0  0
 16 17  1  0  0  0
 22 21  1  0  0  0
 17 18  2  0  0  0
 21 19  2  0  0  0
 18 19  1  0  0  0
 19 20  1  0  0  0
M  END
> <minimizedAffinity>
-8.35637

$$$$
4QEV_31O_A_501


 30 33  0  0  0  0  0  0  0  0999 V2000
   68.8893   -5.4227   70.5732 C   0  0  0  0  0  0  0  0  0  0  0  0
   70.0558   -4.4830   70.6927 N   0  0  0  0  0  0  0  0  0  0  0  0
   69.4363   -6.7229   70.6724 C   0  0  0  0  0  0  0  0  0  0  0  0
   69.5160   -7.6362   69.6890 N   0  0  0  0  0  0  0  0  0  0  0  0
   70.0742   -8.6338   70.1223 N   0  0  0  0  0  0  0  0  0  0  0  0
   70.3853   -8.4282   71.4149 C   0  0  0  0  0  0  0  0  0  0  0  0
   71.0819   -9.4514   72.3071 C   0  0  0  0  0  0  0  0  0  0  0  0
   69.9980   -7.2083   71.7831 N   0  0  0  0  0  0  0  0  0  0  0  0
   70.0376   -6.4589   72.9166 C   0  0  0  0  0  0  0  0  0  0  0  0
   69.6621   -7.0984   74.1032 C   0  0  0  0  0  0  0  0  0  0  0  0
   69.6345   -6.3891   75.3105 C   0  0  0  0  0  0  0  0  0  0  0  0
   69.9511   -5.0268   75.3538 C   0  0  0  0  0  0  0  0  0  0  0  0
   70.3088   -4.3846   74.1728 C   0  0  0  0  0  0  0  0  0  0  0  0
   70.3516   -5.0878   72.9691 C   0  0  0  0  0  0  0  0  0  0  0  0
   70.7146   -4.3186   71.8597 C   0  0  0  0  0  0  0  0  0  0  0  0
   71.8206   -3.4528   71.9117 C   0  0  0  0  0  0  0  0  0  0  0  0
   71.8284   -2.2639   71.1696 C   0  0  0  0  0  0  0  0  0  0  0  0
   72.9324   -1.4116   71.2153 C   0  0  0  0  0  0  0  0  0  0  0  0
   74.0410   -1.7371   71.9973 C   0  0  0  0  0  0  0  0  0  0  0  0
   75.4152   -0.6758   72.0488 Cl  0  0  0  0  0  0  0  0  0  0  0  0
   74.0422   -2.9122   72.7348 C   0  0  0  0  0  0  0  0  0  0  0  0
   72.9401   -3.7641   72.6917 C   0  0  0  0  0  0  0  0  0  0  0  0
   67.9923   -5.1832   69.3701 C   0  0  0  0  0  0  0  0  0  0  0  0
   66.7249   -6.0378   69.5609 C   0  0  0  0  0  0  0  0  0  0  0  0
   67.6223   -3.6744   69.2833 C   0  0  0  0  0  0  0  0  0  0  0  0
   67.3102   -3.0133   70.2792 O   0  0  0  0  0  0  0  0  0  0  0  0
   66.4850   -3.2776   67.2772 C   0  0  0  0  0  0  0  0  0  0  0  0
   67.6876   -3.1392   68.0354 O   0  0  0  0  0  0  0  0  0  0  0  0
   69.9448   -4.2642   76.5002 O   0  0  0  0  0  0  0  0  0  0  0  0
   69.2350   -3.0130   76.5282 C   0  0  0  0  0  0  0  0  0  0  0  0
  7  6  1  0  0  0
  5  6  2  0  0  0
  5  4  1  0  0  0
  6  8  1  0  0  0
 24 23  1  0  0  0
 10 11  2  0  0  0
 10  9  1  0  0  0
  4  3  2  0  0  0
 11 12  1  0  0  0
  8  3  1  0  0  0
  8  9  1  0  0  0
  3  1  1  0  0  0
  9 14  2  0  0  0
 30 29  1  0  0  0
 23  1  1  0  0  0
 23 25  1  0  0  0
  1  2  1  0  0  0
 12 29  1  0  0  0
 12 13  2  0  0  0
 14 13  1  0  0  0
 14 15  1  0  0  0
 25 28  1  0  0  0
 25 26  2  0  0  0
 28 27  1  0  0  0
  2 15  2  0  0  0
 15 16  1  0  0  0
 16 22  2  0  0  0
 16 17  1  0  0  0
 22 21  1  0  0  0
 17 18  2  0  0  0
 21 19  2  0  0  0
 18 19  1  0  0  0
 19 20  1  0  0  0
M  END
> <minimizedAffinity>
-8.05156

$$$$
4QEV_31O_A_501


 30 33  0  0  0  0  0  0  0  0999 V2000
   70.4872   -3.8756   73.9826 C   0  0  0  0  0  0  0  0  0  0  0  0
   70.6149   -5.3726   74.0108 N   0  0  0  0  0  0  0  0  0  0  0  0
   71.3357   -3.4408   72.9382 C   0  0  0  0  0  0  0  0  0  0  0  0
   72.4818   -2.7508   73.0712 N   0  0  0  0  0  0  0  0  0  0  0  0
   72.9659   -2.5737   71.9626 N   0  0  0  0  0  0  0  0  0  0  0  0
   72.1589   -3.1346   71.0439 C   0  0  0  0  0  0  0  0  0  0  0  0
   72.4183   -3.1125   69.5404 C   0  0  0  0  0  0  0  0  0  0  0  0
   71.1177   -3.7054   71.6469 N   0  0  0  0  0  0  0  0  0  0  0  0
   70.0125   -4.3987   71.2651 C   0  0  0  0  0  0  0  0  0  0  0  0
   69.2920   -3.8812   70.1829 C   0  0  0  0  0  0  0  0  0  0  0  0
   68.1176   -4.5097   69.7501 C   0  0  0  0  0  0  0  0  0  0  0  0
   67.6245   -5.6448   70.4030 C   0  0  0  0  0  0  0  0  0  0  0  0
   68.3300   -6.1518   71.4895 C   0  0  0  0  0  0  0  0  0  0  0  0
   69.5075   -5.5390   71.9176 C   0  0  0  0  0  0  0  0  0  0  0  0
   70.1074   -6.1442   73.0259 C   0  0  0  0  0  0  0  0  0  0  0  0
   70.2822   -7.5377   73.0815 C   0  0  0  0  0  0  0  0  0  0  0  0
   70.9520   -8.2119   72.0514 C   0  0  0  0  0  0  0  0  0  0  0  0
   71.1147   -9.5968   72.1045 C   0  0  0  0  0  0  0  0  0  0  0  0
   70.6083  -10.3242   73.1820 C   0  0  0  0  0  0  0  0  0  0  0  0
   70.8091  -12.0485   73.2430 Cl  0  0  0  0  0  0  0  0  0  0  0  0
   69.9433   -9.6652   74.2058 C   0  0  0  0  0  0  0  0  0  0  0  0
   69.7810   -8.2820   74.1555 C   0  0  0  0  0  0  0  0  0  0  0  0
   70.6968   -3.1878   75.3214 C   0  0  0  0  0  0  0  0  0  0  0  0
   69.3055   -2.9141   75.9235 C   0  0  0  0  0  0  0  0  0  0  0  0
   71.5238   -4.1111   76.2620 C   0  0  0  0  0  0  0  0  0  0  0  0
   72.7502   -4.2233   76.1649 O   0  0  0  0  0  0  0  0  0  0  0  0
   71.2805   -6.0753   77.5101 C   0  0  0  0  0  0  0  0  0  0  0  0
   70.7971   -4.7661   77.2058 O   0  0  0  0  0  0  0  0  0  0  0  0
   66.4787   -6.3148   70.0371 O   0  0  0  0  0  0  0  0  0  0  0  0
   66.2118   -6.5786   68.6481 C   0  0  0  0  0  0  0  0  0  0  0  0
  7  6  1  0  0  0
  5  6  2  0  0  0
  5  4  1  0  0  0
  6  8  1  0  0  0
 24 23  1  0  0  0
 10 11  2  0  0  0
 10  9  1  0  0  0
  4  3  2  0  0  0
 11 12  1  0  0  0
  8  3  1  0  0  0
  8  9  1  0  0  0
  3  1  1  0  0  0
  9 14  2  0  0  0
 30 29  1  0  0  0
 23  1  1  0  0  0
 23 25  1  0  0  0
  1  2  1  0  0  0
 12 29  1  0  0  0
 12 13  2  0  0  0
 14 13  1  0  0  0
 14 15  1  0  0  0
 25 28  1  0  0  0
 25 26  2  0  0  0
 28 27  1  0  0  0
  2 15  2  0  0  0
 15 16  1  0  0  0
 16 22  2  0  0  0
 16 17  1  0  0  0
 22 21  1  0  0  0
 17 18  2  0  0  0
 21 19  2  0  0  0
 18 19  1  0  0  0
 19 20  1  0  0  0
M  END
> <minimizedAffinity>
-7.81001

$$$$
4QEV_31O_A_501


 30 33  0  0  0  0  0  0  0  0999 V2000
   71.7655   -3.9155   73.0426 C   0  0  0  0  0  0  0  0  0  0  0  0
   70.6501   -3.7655   72.0469 N   0  0  0  0  0  0  0  0  0  0  0  0
   71.1407   -4.2487   74.2667 C   0  0  0  0  0  0  0  0  0  0  0  0
   71.0587   -3.4734   75.3619 N   0  0  0  0  0  0  0  0  0  0  0  0
   70.4231   -4.0692   76.2196 N   0  0  0  0  0  0  0  0  0  0  0  0
   70.0593   -5.2693   75.7326 C   0  0  0  0  0  0  0  0  0  0  0  0
   69.2612   -6.3101   76.5123 C   0  0  0  0  0  0  0  0  0  0  0  0
   70.4967   -5.3994   74.4814 N   0  0  0  0  0  0  0  0  0  0  0  0
   70.4428   -6.3479   73.5091 C   0  0  0  0  0  0  0  0  0  0  0  0
   70.7206   -7.6622   73.9009 C   0  0  0  0  0  0  0  0  0  0  0  0
   70.7277   -8.6953   72.9553 C   0  0  0  0  0  0  0  0  0  0  0  0
   70.4878   -8.4353   71.6015 C   0  0  0  0  0  0  0  0  0  0  0  0
   70.2275   -7.1271   71.2067 C   0  0  0  0  0  0  0  0  0  0  0  0
   70.2055   -6.0953   72.1449 C   0  0  0  0  0  0  0  0  0  0  0  0
   69.9436   -4.8302   71.6108 C   0  0  0  0  0  0  0  0  0  0  0  0
   68.8878   -4.6333   70.7042 C   0  0  0  0  0  0  0  0  0  0  0  0
   68.8839   -3.5243   69.8472 C   0  0  0  0  0  0  0  0  0  0  0  0
   67.8290   -3.3262   68.9555 C   0  0  0  0  0  0  0  0  0  0  0  0
   66.7656   -4.2283   68.9116 C   0  0  0  0  0  0  0  0  0  0  0  0
   65.4520   -3.9764   67.8033 Cl  0  0  0  0  0  0  0  0  0  0  0  0
   66.7607   -5.3285   69.7568 C   0  0  0  0  0  0  0  0  0  0  0  0
   67.8140   -5.5291   70.6470 C   0  0  0  0  0  0  0  0  0  0  0  0
   72.7344   -2.7463   73.1028 C   0  0  0  0  0  0  0  0  0  0  0  0
   74.0221   -3.2475   73.7836 C   0  0  0  0  0  0  0  0  0  0  0  0
   73.0413   -2.2445   71.6624 C   0  0  0  0  0  0  0  0  0  0  0  0
   72.7297   -1.1127   71.2775 O   0  0  0  0  0  0  0  0  0  0  0  0
   73.2489   -3.1470   69.5135 C   0  0  0  0  0  0  0  0  0  0  0  0
   73.6928   -3.1374   70.8711 O   0  0  0  0  0  0  0  0  0  0  0  0
   70.4797   -9.3966   70.6157 O   0  0  0  0  0  0  0  0  0  0  0  0
   70.9811   -9.0857   69.3034 C   0  0  0  0  0  0  0  0  0  0  0  0
  7  6  1  0  0  0
  5  6  2  0  0  0
  5  4  1  0  0  0
  6  8  1  0  0  0
 24 23  1  0  0  0
 10 11  2  0  0  0
 10  9  1  0  0  0
  4  3  2  0  0  0
 11 12  1  0  0  0
  8  3  1  0  0  0
  8  9  1  0  0  0
  3  1  1  0  0  0
  9 14  2  0  0  0
 30 29  1  0  0  0
 23  1  1  0  0  0
 23 25  1  0  0  0
  1  2  1  0  0  0
 12 29  1  0  0  0
 12 13  2  0  0  0
 14 13  1  0  0  0
 14 15  1  0  0  0
 25 28  1  0  0  0
 25 26  2  0  0  0
 28 27  1  0  0  0
  2 15  2  0  0  0
 15 16  1  0  0  0
 16 22  2  0  0  0
 16 17  1  0  0  0
 22 21  1  0  0  0
 17 18  2  0  0  0
 21 19  2  0  0  0
 18 19  1  0  0  0
 19 20  1  0  0  0
M  END
> <minimizedAffinity>
-7.21429

$$$$
4QEV_31O_A_501


 30 33  0  0  0  0  0  0  0  0999 V2000
   69.1931   -6.3384   72.6821 C   0  0  0  0  0  0  0  0  0  0  0  0
   70.4291   -5.4981   72.5268 N   0  0  0  0  0  0  0  0  0  0  0  0
   69.5748   -7.4302   73.4957 C   0  0  0  0  0  0  0  0  0  0  0  0
   69.6856   -8.7143   73.1136 N   0  0  0  0  0  0  0  0  0  0  0  0
   70.0666   -9.3776   74.0673 N   0  0  0  0  0  0  0  0  0  0  0  0
   70.2208   -8.5628   75.1266 C   0  0  0  0  0  0  0  0  0  0  0  0
   70.6731   -9.0229   76.5093 C   0  0  0  0  0  0  0  0  0  0  0  0
   69.9241   -7.3117   74.7798 N   0  0  0  0  0  0  0  0  0  0  0  0
   69.8924   -6.0977   75.3908 C   0  0  0  0  0  0  0  0  0  0  0  0
   69.2916   -6.0482   76.6536 C   0  0  0  0  0  0  0  0  0  0  0  0
   69.1793   -4.8302   77.3358 C   0  0  0  0  0  0  0  0  0  0  0  0
   69.6354   -3.6380   76.7627 C   0  0  0  0  0  0  0  0  0  0  0  0
   70.2183   -3.6819   75.5003 C   0  0  0  0  0  0  0  0  0  0  0  0
   70.3457   -4.8932   74.8208 C   0  0  0  0  0  0  0  0  0  0  0  0
   70.9381   -4.7916   73.5586 C   0  0  0  0  0  0  0  0  0  0  0  0
   72.1155   -4.0473   73.3712 C   0  0  0  0  0  0  0  0  0  0  0  0
   73.1613   -4.1248   74.3011 C   0  0  0  0  0  0  0  0  0  0  0  0
   74.3248   -3.3766   74.1175 C   0  0  0  0  0  0  0  0  0  0  0  0
   74.4563   -2.5406   73.0083 C   0  0  0  0  0  0  0  0  0  0  0  0
   75.9043   -1.6074   72.7849 Cl  0  0  0  0  0  0  0  0  0  0  0  0
   73.4259   -2.4571   72.0831 C   0  0  0  0  0  0  0  0  0  0  0  0
   72.2638   -3.2047   72.2637 C   0  0  0  0  0  0  0  0  0  0  0  0
   68.4990   -6.7065   71.3813 C   0  0  0  0  0  0  0  0  0  0  0  0
   67.5985   -5.5207   70.9860 C   0  0  0  0  0  0  0  0  0  0  0  0
   69.5618   -6.9734   70.2767 C   0  0  0  0  0  0  0  0  0  0  0  0
   70.3344   -6.0955   69.8785 O   0  0  0  0  0  0  0  0  0  0  0  0
   70.8847   -8.8409   69.7891 C   0  0  0  0  0  0  0  0  0  0  0  0
   69.5860   -8.2464   69.8004 O   0  0  0  0  0  0  0  0  0  0  0  0
   69.5583   -2.4049   77.3704 O   0  0  0  0  0  0  0  0  0  0  0  0
   69.6845   -2.2979   78.7997 C   0  0  0  0  0  0  0  0  0  0  0  0
  7  6  1  0  0  0
  5  6  2  0  0  0
  5  4  1  0  0  0
  6  8  1  0  0  0
 24 23  1  0  0  0
 10 11  2  0  0  0
 10  9  1  0  0  0
  4  3  2  0  0  0
 11 12  1  0  0  0
  8  3  1  0  0  0
  8  9  1  0  0  0
  3  1  1  0  0  0
  9 14  2  0  0  0
 30 29  1  0  0  0
 23  1  1  0  0  0
 23 25  1  0  0  0
  1  2  1  0  0  0
 12 29  1  0  0  0
 12 13  2  0  0  0
 14 13  1  0  0  0
 14 15  1  0  0  0
 25 28  1  0  0  0
 25 26  2  0  0  0
 28 27  1  0  0  0
  2 15  2  0  0  0
 15 16  1  0  0  0
 16 22  2  0  0  0
 16 17  1  0  0  0
 22 21  1  0  0  0
 17 18  2  0  0  0
 21 19  2  0  0  0
 18 19  1  0  0  0
 19 20  1  0  0  0
M  END
> <minimizedAffinity>
-6.80187

$$$$
4QEV_31O_A_501


 30 33  0  0  0  0  0  0  0  0999 V2000
   70.0704   -6.8795   72.2215 C   0  0  0  0  0  0  0  0  0  0  0  0
   71.2244   -6.1582   72.8587 N   0  0  0  0  0  0  0  0  0  0  0  0
   70.2383   -8.2417   72.5616 C   0  0  0  0  0  0  0  0  0  0  0  0
   70.5613   -9.2430   71.7245 N   0  0  0  0  0  0  0  0  0  0  0  0
   70.6514  -10.2795   72.3665 N   0  0  0  0  0  0  0  0  0  0  0  0
   70.3870  -10.0124   73.6582 C   0  0  0  0  0  0  0  0  0  0  0  0
   70.3875  -11.0556   74.7717 C   0  0  0  0  0  0  0  0  0  0  0  0
   70.1331   -8.7135   73.8071 N   0  0  0  0  0  0  0  0  0  0  0  0
   69.8138   -7.8800   74.8324 C   0  0  0  0  0  0  0  0  0  0  0  0
   68.8266   -8.3267   75.7179 C   0  0  0  0  0  0  0  0  0  0  0  0
   68.4076   -7.5135   76.7783 C   0  0  0  0  0  0  0  0  0  0  0  0
   68.9411   -6.2326   76.9591 C   0  0  0  0  0  0  0  0  0  0  0  0
   69.9108   -5.7795   76.0705 C   0  0  0  0  0  0  0  0  0  0  0  0
   70.3426   -6.5892   75.0201 C   0  0  0  0  0  0  0  0  0  0  0  0
   71.3108   -6.0060   74.1974 C   0  0  0  0  0  0  0  0  0  0  0  0
   72.4272   -5.3526   74.7471 C   0  0  0  0  0  0  0  0  0  0  0  0
   72.7250   -4.0307   74.3890 C   0  0  0  0  0  0  0  0  0  0  0  0
   73.8401   -3.3883   74.9285 C   0  0  0  0  0  0  0  0  0  0  0  0
   74.6719   -4.0576   75.8267 C   0  0  0  0  0  0  0  0  0  0  0  0
   76.0615   -3.2564   76.4933 Cl  0  0  0  0  0  0  0  0  0  0  0  0
   74.3852   -5.3665   76.1863 C   0  0  0  0  0  0  0  0  0  0  0  0
   73.2712   -6.0094   75.6498 C   0  0  0  0  0  0  0  0  0  0  0  0
   69.8748   -6.5968   70.7412 C   0  0  0  0  0  0  0  0  0  0  0  0
   68.4965   -7.1570   70.3417 C   0  0  0  0  0  0  0  0  0  0  0  0
   69.9319   -5.0627   70.4878 C   0  0  0  0  0  0  0  0  0  0  0  0
   70.8497   -4.5326   69.8532 O   0  0  0  0  0  0  0  0  0  0  0  0
   68.2580   -3.4838   70.0630 C   0  0  0  0  0  0  0  0  0  0  0  0
   68.8885   -4.3580   71.0003 O   0  0  0  0  0  0  0  0  0  0  0  0
   68.5787   -5.3767   77.9749 O   0  0  0  0  0  0  0  0  0  0  0  0
   68.8099   -3.9629   77.8415 C   0  0  0  0  0  0  0  0  0  0  0  0
  7  6  1  0  0  0
  5  6  2  0  0  0
  5  4  1  0  0  0
  6  8  1  0  0  0
 24 23  1  0  0  0
 10 11  2  0  0  0
 10  9  1  0  0  0
  4  3  2  0  0  0
 11 12  1  0  0  0
  8  3  1  0  0  0
  8  9  1  0  0  0
  3  1  1  0  0  0
  9 14  2  0  0  0
 30 29  1  0  0  0
 23  1  1  0  0  0
 23 25  1  0  0  0
  1  2  1  0  0  0
 12 29  1  0  0  0
 12 13  2  0  0  0
 14 13  1  0  0  0
 14 15  1  0  0  0
 25 28  1  0  0  0
 25 26  2  0  0  0
 28 27  1  0  0  0
  2 15  2  0  0  0
 15 16  1  0  0  0
 16 22  2  0  0  0
 16 17  1  0  0  0
 22 21  1  0  0  0
 17 18  2  0  0  0
 21 19  2  0  0  0
 18 19  1  0  0  0
 19 20  1  0  0  0
M  END
> <minimizedAffinity>
-6.36445

$$$$
4QEV_31O_A_501


 30 33  0  0  0  0  0  0  0  0999 V2000
   71.4264   -8.1484   73.4552 C   0  0  0  0  0  0  0  0  0  0  0  0
   71.7161   -6.8342   72.7867 N   0  0  0  0  0  0  0  0  0  0  0  0
   72.4928   -8.3584   74.3598 C   0  0  0  0  0  0  0  0  0  0  0  0
   73.4550   -9.2922   74.2617 N   0  0  0  0  0  0  0  0  0  0  0  0
   74.2267   -9.1628   75.2011 N   0  0  0  0  0  0  0  0  0  0  0  0
   73.8073   -8.1398   75.9674 C   0  0  0  0  0  0  0  0  0  0  0  0
   74.5040   -7.6765   77.2434 C   0  0  0  0  0  0  0  0  0  0  0  0
   72.7079   -7.6034   75.4408 N   0  0  0  0  0  0  0  0  0  0  0  0
   71.8599   -6.5862   75.7478 C   0  0  0  0  0  0  0  0  0  0  0  0
   71.4438   -6.4990   77.0809 C   0  0  0  0  0  0  0  0  0  0  0  0
   70.5380   -5.5062   77.4753 C   0  0  0  0  0  0  0  0  0  0  0  0
   70.0089   -4.6029   76.5469 C   0  0  0  0  0  0  0  0  0  0  0  0
   70.4083   -4.6977   75.2177 C   0  0  0  0  0  0  0  0  0  0  0  0
   71.3203   -5.6753   74.8203 C   0  0  0  0  0  0  0  0  0  0  0  0
   71.6248   -5.6651   73.4559 C   0  0  0  0  0  0  0  0  0  0  0  0
   71.9384   -4.4651   72.7948 C   0  0  0  0  0  0  0  0  0  0  0  0
   73.0598   -3.7156   73.1757 C   0  0  0  0  0  0  0  0  0  0  0  0
   73.3626   -2.5193   72.5242 C   0  0  0  0  0  0  0  0  0  0  0  0
   72.5491   -2.0557   71.4898 C   0  0  0  0  0  0  0  0  0  0  0  0
   72.9266   -0.5640   70.6837 Cl  0  0  0  0  0  0  0  0  0  0  0  0
   71.4367   -2.7907   71.1066 C   0  0  0  0  0  0  0  0  0  0  0  0
   71.1334   -3.9865   71.7549 C   0  0  0  0  0  0  0  0  0  0  0  0
   71.1390   -9.3013   72.5079 C   0  0  0  0  0  0  0  0  0  0  0  0
   70.2595  -10.3140   73.2655 C   0  0  0  0  0  0  0  0  0  0  0  0
   70.3955   -8.7722   71.2476 C   0  0  0  0  0  0  0  0  0  0  0  0
   70.9165   -8.7678   70.1275 O   0  0  0  0  0  0  0  0  0  0  0  0
   68.7371   -7.2327   70.6515 C   0  0  0  0  0  0  0  0  0  0  0  0
   69.1279   -8.3352   71.4714 O   0  0  0  0  0  0  0  0  0  0  0  0
   69.1150   -3.6032   76.8587 O   0  0  0  0  0  0  0  0  0  0  0  0
   68.8648   -3.2648   78.2346 C   0  0  0  0  0  0  0  0  0  0  0  0
  7  6  1  0  0  0
  5  6  2  0  0  0
  5  4  1  0  0  0
  6  8  1  0  0  0
 24 23  1  0  0  0
 10 11  2  0  0  0
 10  9  1  0  0  0
  4  3  2  0  0  0
 11 12  1  0  0  0
  8  3  1  0  0  0
  8  9  1  0  0  0
  3  1  1  0  0  0
  9 14  2  0  0  0
 30 29  1  0  0  0
 23  1  1  0  0  0
 23 25  1  0  0  0
  1  2  1  0  0  0
 12 29  1  0  0  0
 12 13  2  0  0  0
 14 13  1  0  0  0
 14 15  1  0  0  0
 25 28  1  0  0  0
 25 26  2  0  0  0
 28 27  1  0  0  0
  2 15  2  0  0  0
 15 16  1  0  0  0
 16 22  2  0  0  0
 16 17  1  0  0  0
 22 21  1  0  0  0
 17 18  2  0  0  0
 21 19  2  0  0  0
 18 19  1  0  0  0
 19 20  1  0  0  0
M  END
> <minimizedAffinity>
-6.27467

$$$$
4QEV_31O_A_501


 30 33  0  0  0  0  0  0  0  0999 V2000
   71.3443   -5.6530   72.9136 C   0  0  0  0  0  0  0  0  0  0  0  0
   70.7556   -5.1258   74.1916 N   0  0  0  0  0  0  0  0  0  0  0  0
   71.4226   -4.5411   72.0434 C   0  0  0  0  0  0  0  0  0  0  0  0
   70.6921   -4.3393   70.9330 N   0  0  0  0  0  0  0  0  0  0  0  0
   71.0027   -3.2610   70.4478 N   0  0  0  0  0  0  0  0  0  0  0  0
   71.9575   -2.7016   71.2128 C   0  0  0  0  0  0  0  0  0  0  0  0
   72.6126   -1.3538   70.9255 C   0  0  0  0  0  0  0  0  0  0  0  0
   72.2315   -3.4971   72.2451 N   0  0  0  0  0  0  0  0  0  0  0  0
   73.0697   -3.4745   73.3151 C   0  0  0  0  0  0  0  0  0  0  0  0
   74.3930   -3.0939   73.0656 C   0  0  0  0  0  0  0  0  0  0  0  0
   75.3332   -3.0832   74.1036 C   0  0  0  0  0  0  0  0  0  0  0  0
   74.9816   -3.4780   75.3991 C   0  0  0  0  0  0  0  0  0  0  0  0
   73.6708   -3.8726   75.6463 C   0  0  0  0  0  0  0  0  0  0  0  0
   72.7258   -3.8729   74.6205 C   0  0  0  0  0  0  0  0  0  0  0  0
   71.4521   -4.3028   75.0044 C   0  0  0  0  0  0  0  0  0  0  0  0
   70.8449   -3.8099   76.1721 C   0  0  0  0  0  0  0  0  0  0  0  0
   69.7122   -2.9884   76.0921 C   0  0  0  0  0  0  0  0  0  0  0  0
   69.1179   -2.4921   77.2531 C   0  0  0  0  0  0  0  0  0  0  0  0
   69.6483   -2.8058   78.5048 C   0  0  0  0  0  0  0  0  0  0  0  0
   68.9084   -2.1830   79.9477 Cl  0  0  0  0  0  0  0  0  0  0  0  0
   70.7697   -3.6178   78.5935 C   0  0  0  0  0  0  0  0  0  0  0  0
   71.3639   -4.1157   77.4354 C   0  0  0  0  0  0  0  0  0  0  0  0
   70.6494   -6.8785   72.3439 C   0  0  0  0  0  0  0  0  0  0  0  0
   71.4648   -8.1133   72.7721 C   0  0  0  0  0  0  0  0  0  0  0  0
   69.1990   -6.9656   72.9004 C   0  0  0  0  0  0  0  0  0  0  0  0
   68.9567   -7.3244   74.0574 O   0  0  0  0  0  0  0  0  0  0  0  0
   68.4469   -7.0478   70.6861 C   0  0  0  0  0  0  0  0  0  0  0  0
   68.2262   -6.5996   72.0243 O   0  0  0  0  0  0  0  0  0  0  0  0
   75.8492   -3.4951   76.4681 O   0  0  0  0  0  0  0  0  0  0  0  0
   76.9772   -4.3882   76.4651 C   0  0  0  0  0  0  0  0  0  0  0  0
  7  6  1  0  0  0
  5  6  2  0  0  0
  5  4  1  0  0  0
  6  8  1  0  0  0
 24 23  1  0  0  0
 10 11  2  0  0  0
 10  9  1  0  0  0
  4  3  2  0  0  0
 11 12  1  0  0  0
  8  3  1  0  0  0
  8  9  1  0  0  0
  3  1  1  0  0  0
  9 14  2  0  0  0
 30 29  1  0  0  0
 23  1  1  0  0  0
 23 25  1  0  0  0
  1  2  1  0  0  0
 12 29  1  0  0  0
 12 13  2  0  0  0
 14 13  1  0  0  0
 14 15  1  0  0  0
 25 28  1  0  0  0
 25 26  2  0  0  0
 28 27  1  0  0  0
  2 15  2  0  0  0
 15 16  1  0  0  0
 16 22  2  0  0  0
 16 17  1  0  0  0
 22 21  1  0  0  0
 17 18  2  0  0  0
 21 19  2  0  0  0
 18 19  1  0  0  0
 19 20  1  0  0  0
M  END
> <minimizedAffinity>
-6.04793

$$$$
4QEV_31O_A_501


 30 33  0  0  0  0  0  0  0  0999 V2000
   70.8653   -5.1321   73.0670 C   0  0  0  0  0  0  0  0  0  0  0  0
   70.3139   -6.5046   73.3318 N   0  0  0  0  0  0  0  0  0  0  0  0
   70.7568   -4.4353   74.2927 C   0  0  0  0  0  0  0  0  0  0  0  0
   69.9312   -3.4087   74.5607 N   0  0  0  0  0  0  0  0  0  0  0  0
   70.0841   -3.0743   75.7267 N   0  0  0  0  0  0  0  0  0  0  0  0
   71.0224   -3.8618   76.2827 C   0  0  0  0  0  0  0  0  0  0  0  0
   71.5008   -3.7445   77.7269 C   0  0  0  0  0  0  0  0  0  0  0  0
   71.4564   -4.7470   75.3873 N   0  0  0  0  0  0  0  0  0  0  0  0
   72.3609   -5.7614   75.3586 C   0  0  0  0  0  0  0  0  0  0  0  0
   73.6122   -5.5006   75.9280 C   0  0  0  0  0  0  0  0  0  0  0  0
   74.6168   -6.4761   75.9045 C   0  0  0  0  0  0  0  0  0  0  0  0
   74.4047   -7.7150   75.2897 C   0  0  0  0  0  0  0  0  0  0  0  0
   73.1670   -7.9709   74.7083 C   0  0  0  0  0  0  0  0  0  0  0  0
   72.1574   -7.0091   74.7398 C   0  0  0  0  0  0  0  0  0  0  0  0
   70.9703   -7.3926   74.1088 C   0  0  0  0  0  0  0  0  0  0  0  0
   70.3965   -8.6521   74.3533 C   0  0  0  0  0  0  0  0  0  0  0  0
   70.4266   -9.6502   73.3699 C   0  0  0  0  0  0  0  0  0  0  0  0
   69.8468  -10.8961   73.6120 C   0  0  0  0  0  0  0  0  0  0  0  0
   69.2276  -11.1588   74.8344 C   0  0  0  0  0  0  0  0  0  0  0  0
   68.5033  -12.7095   75.1310 Cl  0  0  0  0  0  0  0  0  0  0  0  0
   69.1925  -10.1765   75.8134 C   0  0  0  0  0  0  0  0  0  0  0  0
   69.7723   -8.9320   75.5743 C   0  0  0  0  0  0  0  0  0  0  0  0
   70.2729   -4.4237   71.8601 C   0  0  0  0  0  0  0  0  0  0  0  0
   71.4398   -3.8010   71.0705 C   0  0  0  0  0  0  0  0  0  0  0  0
   69.5037   -5.4473   70.9760 C   0  0  0  0  0  0  0  0  0  0  0  0
   68.2760   -5.5742   71.0297 O   0  0  0  0  0  0  0  0  0  0  0  0
   69.7403   -7.4503   69.7896 C   0  0  0  0  0  0  0  0  0  0  0  0
   70.2824   -6.1736   70.1310 O   0  0  0  0  0  0  0  0  0  0  0  0
   75.3427   -8.7209   75.2256 O   0  0  0  0  0  0  0  0  0  0  0  0
   76.7395   -8.3960   75.1099 C   0  0  0  0  0  0  0  0  0  0  0  0
  7  6  1  0  0  0
  5  6  2  0  0  0
  5  4  1  0  0  0
  6  8  1  0  0  0
 24 23  1  0  0  0
 10 11  2  0  0  0
 10  9  1  0  0  0
  4  3  2  0  0  0
 11 12  1  0  0  0
  8  3  1  0  0  0
  8  9  1  0  0  0
  3  1  1  0  0  0
  9 14  2  0  0  0
 30 29  1  0  0  0
 23  1  1  0  0  0
 23 25  1  0  0  0
  1  2  1  0  0  0
 12 29  1  0  0  0
 12 13  2  0  0  0
 14 13  1  0  0  0
 14 15  1  0  0  0
 25 28  1  0  0  0
 25 26  2  0  0  0
 28 27  1  0  0  0
  2 15  2  0  0  0
 15 16  1  0  0  0
 16 22  2  0  0  0
 16 17  1  0  0  0
 22 21  1  0  0  0
 17 18  2  0  0  0
 21 19  2  0  0  0
 18 19  1  0  0  0
 19 20  1  0  0  0
M  END
> <minimizedAffinity>
-5.77185

$$$$
4QEV_31O_A_501


 30 33  0  0  0  0  0  0  0  0999 V2000
   71.3316   -4.9260   75.2170 C   0  0  0  0  0  0  0  0  0  0  0  0
   70.5879   -4.7341   73.9255 N   0  0  0  0  0  0  0  0  0  0  0  0
   70.3414   -5.1944   76.1902 C   0  0  0  0  0  0  0  0  0  0  0  0
   69.9753   -4.3910   77.2040 N   0  0  0  0  0  0  0  0  0  0  0  0
   69.0710   -4.9292   77.8263 N   0  0  0  0  0  0  0  0  0  0  0  0
   68.8005   -6.1169   77.2554 C   0  0  0  0  0  0  0  0  0  0  0  0
   67.7381   -7.0914   77.7551 C   0  0  0  0  0  0  0  0  0  0  0  0
   69.5922   -6.3005   76.2003 N   0  0  0  0  0  0  0  0  0  0  0  0
   69.7806   -7.2662   75.2622 C   0  0  0  0  0  0  0  0  0  0  0  0
   69.8422   -8.5852   75.7254 C   0  0  0  0  0  0  0  0  0  0  0  0
   70.0751   -9.6382   74.8319 C   0  0  0  0  0  0  0  0  0  0  0  0
   70.2795   -9.3955   73.4691 C   0  0  0  0  0  0  0  0  0  0  0  0
   70.2353   -8.0836   73.0085 C   0  0  0  0  0  0  0  0  0  0  0  0
   69.9903   -7.0312   73.8904 C   0  0  0  0  0  0  0  0  0  0  0  0
   69.9846   -5.7655   73.2969 C   0  0  0  0  0  0  0  0  0  0  0  0
   69.2729   -5.5283   72.1083 C   0  0  0  0  0  0  0  0  0  0  0  0
   69.5463   -4.3952   71.3300 C   0  0  0  0  0  0  0  0  0  0  0  0
   68.8307   -4.1571   70.1559 C   0  0  0  0  0  0  0  0  0  0  0  0
   67.8330   -5.0429   69.7478 C   0  0  0  0  0  0  0  0  0  0  0  0
   66.9413   -4.7413   68.2879 Cl  0  0  0  0  0  0  0  0  0  0  0  0
   67.5551   -6.1666   70.5124 C   0  0  0  0  0  0  0  0  0  0  0  0
   68.2697   -6.4072   71.6845 C   0  0  0  0  0  0  0  0  0  0  0  0
   72.3060   -3.8141   75.5684 C   0  0  0  0  0  0  0  0  0  0  0  0
   73.0544   -4.2415   76.8452 C   0  0  0  0  0  0  0  0  0  0  0  0
   73.3075   -3.6040   74.3963 C   0  0  0  0  0  0  0  0  0  0  0  0
   72.9549   -3.1598   73.2988 O   0  0  0  0  0  0  0  0  0  0  0  0
   75.5396   -2.9026   74.3622 C   0  0  0  0  0  0  0  0  0  0  0  0
   74.5970   -3.9280   74.6794 O   0  0  0  0  0  0  0  0  0  0  0  0
   70.5149  -10.3768   72.5324 O   0  0  0  0  0  0  0  0  0  0  0  0
   71.3934  -11.4729   72.8436 C   0  0  0  0  0  0  0  0  0  0  0  0
  7  6  1  0  0  0
  5  6  2  0  0  0
  5  4  1  0  0  0
  6  8  1  0  0  0
 24 23  1  0  0  0
 10 11  2  0  0  0
 10  9  1  0  0  0
  4  3  2  0  0  0
 11 12  1  0  0  0
  8  3  1  0  0  0
  8  9  1  0  0  0
  3  1  1  0  0  0
  9 14  2  0  0  0
 30 29  1  0  0  0
 23  1  1  0  0  0
 23 25  1  0  0  0
  1  2  1  0  0  0
 12 29  1  0  0  0
 12 13  2  0  0  0
 14 13  1  0  0  0
 14 15  1  0  0  0
 25 28  1  0  0  0
 25 26  2  0  0  0
 28 27  1  0  0  0
  2 15  2  0  0  0
 15 16  1  0  0  0
 16 22  2  0  0  0
 16 17  1  0  0  0
 22 21  1  0  0  0
 17 18  2  0  0  0
 21 19  2  0  0  0
 18 19  1  0  0  0
 19 20  1  0  0  0
M  END
> <minimizedAffinity>
-5.75545

$$$$
