2J7D_GI1_A_1446


 24 25  0  0  0  0  0  0  0  0999 V2000
   -0.7717   10.2125   10.7738 C   0  0  0  0  0  0  0  0  0  0  0  0
    0.2437   11.0476   10.0820 C   0  0  0  0  0  0  0  0  0  0  0  0
    0.5520   12.2091   10.8383 O   0  0  0  0  0  0  0  0  0  0  0  0
   -0.2705   11.5290    8.7252 C   0  0  0  0  0  0  0  0  0  0  0  0
    0.8708   11.8525    7.9285 O   0  0  0  0  0  0  0  0  0  0  0  0
   -1.2121   10.4866    8.0941 C   0  0  0  0  0  0  0  0  0  0  0  0
   -2.6103    9.0641   11.1821 C   0  0  0  0  0  0  0  0  0  0  0  0
   -1.9991    9.8803   10.3016 N   0  0  0  0  0  0  0  0  0  0  0  0
   -1.5327   10.7965    6.7406 O   0  0  0  0  0  0  0  0  0  0  0  0
   -2.4817   10.3531    8.9711 C   0  0  0  0  0  0  0  0  0  0  0  0
   -0.6001    9.6222   11.9721 N   0  0  0  0  0  0  0  0  0  0  0  0
   -1.7123    8.9106   12.2227 C   0  0  0  0  0  0  0  0  0  0  0  0
   -0.2453   12.7531   10.9350 H   0  0  0  0  0  0  0  0  0  0  0  0
    1.4314   11.0667    7.8326 H   0  0  0  0  0  0  0  0  0  0  0  0
   -1.9963   11.6478    6.7049 H   0  0  0  0  0  0  0  0  0  0  0  0
    0.1903    9.6977   12.5542 H   0  0  0  0  0  0  0  0  0  0  0  0
   -3.4822    9.3858    8.3985 C   0  0  0  0  0  0  0  0  0  0  0  0
   -4.0801    9.8877    7.2040 O   0  0  0  0  0  0  0  0  0  0  0  0
   -4.5525   10.7119    7.4005 H   0  0  0  0  0  0  0  0  0  0  0  0
   -2.1045    8.1029   13.4062 C   0  0  0  0  0  0  0  0  0  0  0  0
   -1.3682    6.8794   13.5415 O   0  0  0  0  0  0  0  0  0  0  0  0
   -0.4305    7.0808   13.6867 H   0  0  0  0  0  0  0  0  0  0  0  0
   -2.6398    8.3912   15.8133 C   0  0  0  0  0  0  0  0  0  0  0  0
   -2.0676    8.9124   14.5912 O   0  0  0  0  0  0  0  0  0  0  0  0
  1  2  1  0  0  0
  1  8  2  0  0  0
  1 11  1  0  0  0
  2  3  1  0  0  0
  2  4  1  0  0  0
  4  5  1  0  0  0
  4  6  1  0  0  0
  6  9  1  0  0  0
  6 10  1  0  0  0
  7  8  1  0  0  0
  7 12  2  0  0  0
  8 10  1  0  0  0
 10 17  1  0  0  0
 17 18  1  0  0  0
 11 12  1  0  0  0
 12 20  1  0  0  0
 20 21  1  0  0  0
 20 24  1  0  0  0
 23 24  1  0  0  0
  3 13  1  0  0  0
  5 14  1  0  0  0
  9 15  1  0  0  0
 18 19  1  0  0  0
 11 16  1  0  0  0
 21 22  1  0  0  0
M  CHG 1   8   1
M  END
> <minimizedAffinity>
-9.11940

$$$$
2J7D_GI1_A_1446


 24 25  0  0  0  0  0  0  0  0999 V2000
   -0.4856    7.2274   14.2796 C   0  0  0  0  0  0  0  0  0  0  0  0
    0.3240    6.3701   15.1832 C   0  0  0  0  0  0  0  0  0  0  0  0
    0.8074    5.2220   14.5018 O   0  0  0  0  0  0  0  0  0  0  0  0
   -0.5123    5.8650   16.3590 C   0  0  0  0  0  0  0  0  0  0  0  0
    0.3945    5.5160   17.4068 O   0  0  0  0  0  0  0  0  0  0  0  0
   -1.5784    6.9017   16.7594 C   0  0  0  0  0  0  0  0  0  0  0  0
   -2.1621    8.3987   13.4529 C   0  0  0  0  0  0  0  0  0  0  0  0
   -1.7909    7.5596   14.4394 N   0  0  0  0  0  0  0  0  0  0  0  0
   -2.2260    6.5665   17.9838 O   0  0  0  0  0  0  0  0  0  0  0  0
   -2.5900    7.0634   15.5978 C   0  0  0  0  0  0  0  0  0  0  0  0
   -0.0202    7.8409   13.1746 N   0  0  0  0  0  0  0  0  0  0  0  0
   -1.0335    8.5664   12.6715 C   0  0  0  0  0  0  0  0  0  0  0  0
    0.0577    4.6866   14.1983 H   0  0  0  0  0  0  0  0  0  0  0  0
    0.9158    6.2951   17.6561 H   0  0  0  0  0  0  0  0  0  0  0  0
   -2.6861    5.7184   17.8845 H   0  0  0  0  0  0  0  0  0  0  0  0
    0.8898    7.7711   12.8054 H   0  0  0  0  0  0  0  0  0  0  0  0
   -3.6989    8.0267   15.9252 C   0  0  0  0  0  0  0  0  0  0  0  0
   -4.7372    7.4023   16.6790 O   0  0  0  0  0  0  0  0  0  0  0  0
   -5.1239    6.6798   16.1600 H   0  0  0  0  0  0  0  0  0  0  0  0
   -1.1172    9.4015   11.4457 C   0  0  0  0  0  0  0  0  0  0  0  0
   -1.2128   10.8081   11.7093 O   0  0  0  0  0  0  0  0  0  0  0  0
   -0.4042   11.1098   12.1520 H   0  0  0  0  0  0  0  0  0  0  0  0
   -0.2651    9.1880    9.1236 C   0  0  0  0  0  0  0  0  0  0  0  0
   -0.0460    9.0715   10.5487 O   0  0  0  0  0  0  0  0  0  0  0  0
  1  2  1  0  0  0
  1  8  2  0  0  0
  1 11  1  0  0  0
  2  3  1  0  0  0
  2  4  1  0  0  0
  4  5  1  0  0  0
  4  6  1  0  0  0
  6  9  1  0  0  0
  6 10  1  0  0  0
  7  8  1  0  0  0
  7 12  2  0  0  0
  8 10  1  0  0  0
 10 17  1  0  0  0
 17 18  1  0  0  0
 11 12  1  0  0  0
 12 20  1  0  0  0
 20 21  1  0  0  0
 20 24  1  0  0  0
 23 24  1  0  0  0
  3 13  1  0  0  0
  5 14  1  0  0  0
  9 15  1  0  0  0
 18 19  1  0  0  0
 11 16  1  0  0  0
 21 22  1  0  0  0
M  CHG 1   8   1
M  END
> <minimizedAffinity>
-7.93934

$$$$
2J7D_GI1_A_1446


 24 25  0  0  0  0  0  0  0  0999 V2000
   -2.6038    7.1054   15.1376 C   0  0  0  0  0  0  0  0  0  0  0  0
   -3.8262    6.9649   15.9701 C   0  0  0  0  0  0  0  0  0  0  0  0
   -4.3225    8.2343   16.3682 O   0  0  0  0  0  0  0  0  0  0  0  0
   -3.5332    6.1846   17.2516 C   0  0  0  0  0  0  0  0  0  0  0  0
   -4.7744    5.6516   17.7179 O   0  0  0  0  0  0  0  0  0  0  0  0
   -2.4373    5.1294   17.0131 C   0  0  0  0  0  0  0  0  0  0  0  0
   -0.5336    6.8899   14.4071 C   0  0  0  0  0  0  0  0  0  0  0  0
   -1.3727    6.6135   15.4242 N   0  0  0  0  0  0  0  0  0  0  0  0
   -2.2950    4.2384   18.1161 O   0  0  0  0  0  0  0  0  0  0  0  0
   -1.1067    5.8472   16.6768 C   0  0  0  0  0  0  0  0  0  0  0  0
   -2.5516    7.7173   13.9389 N   0  0  0  0  0  0  0  0  0  0  0  0
   -1.2953    7.5799   13.4818 C   0  0  0  0  0  0  0  0  0  0  0  0
   -3.6581    8.6850   16.9126 H   0  0  0  0  0  0  0  0  0  0  0  0
   -5.1556    5.0763   17.0363 H   0  0  0  0  0  0  0  0  0  0  0  0
   -2.0323    4.7389   18.9043 H   0  0  0  0  0  0  0  0  0  0  0  0
   -3.2932    8.1779   13.4838 H   0  0  0  0  0  0  0  0  0  0  0  0
    0.0347    4.8873   16.4757 C   0  0  0  0  0  0  0  0  0  0  0  0
    0.5995    4.4689   17.7176 O   0  0  0  0  0  0  0  0  0  0  0  0
    0.9488    5.2406   18.1902 H   0  0  0  0  0  0  0  0  0  0  0  0
   -0.6482    8.0913   12.2462 C   0  0  0  0  0  0  0  0  0  0  0  0
   -0.8212    9.5006   12.0433 O   0  0  0  0  0  0  0  0  0  0  0  0
   -0.3870    9.9865   12.7618 H   0  0  0  0  0  0  0  0  0  0  0  0
    1.1920    6.8995   11.0811 C   0  0  0  0  0  0  0  0  0  0  0  0
    0.7278    7.6844   12.2042 O   0  0  0  0  0  0  0  0  0  0  0  0
  1  2  1  0  0  0
  1  8  2  0  0  0
  1 11  1  0  0  0
  2  3  1  0  0  0
  2  4  1  0  0  0
  4  5  1  0  0  0
  4  6  1  0  0  0
  6  9  1  0  0  0
  6 10  1  0  0  0
  7  8  1  0  0  0
  7 12  2  0  0  0
  8 10  1  0  0  0
 10 17  1  0  0  0
 17 18  1  0  0  0
 11 12  1  0  0  0
 12 20  1  0  0  0
 20 21  1  0  0  0
 20 24  1  0  0  0
 23 24  1  0  0  0
  3 13  1  0  0  0
  5 14  1  0  0  0
  9 15  1  0  0  0
 18 19  1  0  0  0
 11 16  1  0  0  0
 21 22  1  0  0  0
M  CHG 1   8   1
M  END
> <minimizedAffinity>
-7.70807

$$$$
2J7D_GI1_A_1446


 24 25  0  0  0  0  0  0  0  0999 V2000
   -1.7554    8.0622   14.6552 C   0  0  0  0  0  0  0  0  0  0  0  0
   -2.5485    7.9018   15.9011 C   0  0  0  0  0  0  0  0  0  0  0  0
   -2.6597    9.1334   16.5989 O   0  0  0  0  0  0  0  0  0  0  0  0
   -1.8797    6.9131   16.8563 C   0  0  0  0  0  0  0  0  0  0  0  0
   -2.8918    6.4236   17.7384 O   0  0  0  0  0  0  0  0  0  0  0  0
   -1.1316    5.8166   16.0757 C   0  0  0  0  0  0  0  0  0  0  0  0
   -0.2039    7.7840   13.1121 C   0  0  0  0  0  0  0  0  0  0  0  0
   -0.5952    7.4287   14.3513 N   0  0  0  0  0  0  0  0  0  0  0  0
   -0.6864    4.7590   16.9207 O   0  0  0  0  0  0  0  0  0  0  0  0
    0.0395    6.4606   15.2930 C   0  0  0  0  0  0  0  0  0  0  0  0
   -2.1021    8.8429   13.6139 N   0  0  0  0  0  0  0  0  0  0  0  0
   -1.1670    8.6697   12.6643 C   0  0  0  0  0  0  0  0  0  0  0  0
   -1.7767    9.4373   16.8612 H   0  0  0  0  0  0  0  0  0  0  0  0
   -3.5910    5.9937   17.2215 H   0  0  0  0  0  0  0  0  0  0  0  0
   -0.0624    5.1092   17.5756 H   0  0  0  0  0  0  0  0  0  0  0  0
   -2.8910    9.4293   13.5589 H   0  0  0  0  0  0  0  0  0  0  0  0
    0.8573    5.4483   14.5372 C   0  0  0  0  0  0  0  0  0  0  0  0
    0.0702    4.3303   14.1289 O   0  0  0  0  0  0  0  0  0  0  0  0
   -0.2909    3.8859   14.9118 H   0  0  0  0  0  0  0  0  0  0  0  0
   -1.0041    9.3061   11.3319 C   0  0  0  0  0  0  0  0  0  0  0  0
   -0.9883   10.7397   11.3734 O   0  0  0  0  0  0  0  0  0  0  0  0
   -0.2176   11.0400   11.8801 H   0  0  0  0  0  0  0  0  0  0  0  0
   -0.0596    8.0812    9.3897 C   0  0  0  0  0  0  0  0  0  0  0  0
    0.1353    8.7530   10.6560 O   0  0  0  0  0  0  0  0  0  0  0  0
  1  2  1  0  0  0
  1  8  2  0  0  0
  1 11  1  0  0  0
  2  3  1  0  0  0
  2  4  1  0  0  0
  4  5  1  0  0  0
  4  6  1  0  0  0
  6  9  1  0  0  0
  6 10  1  0  0  0
  7  8  1  0  0  0
  7 12  2  0  0  0
  8 10  1  0  0  0
 10 17  1  0  0  0
 17 18  1  0  0  0
 11 12  1  0  0  0
 12 20  1  0  0  0
 20 21  1  0  0  0
 20 24  1  0  0  0
 23 24  1  0  0  0
  3 13  1  0  0  0
  5 14  1  0  0  0
  9 15  1  0  0  0
 18 19  1  0  0  0
 11 16  1  0  0  0
 21 22  1  0  0  0
M  CHG 1   8   1
M  END
> <minimizedAffinity>
-7.55508

$$$$
2J7D_GI1_A_1446


 24 25  0  0  0  0  0  0  0  0999 V2000
   -0.3717    7.6666    9.8081 C   0  0  0  0  0  0  0  0  0  0  0  0
    0.7103    6.6488    9.8234 C   0  0  0  0  0  0  0  0  0  0  0  0
    0.5236    5.6882    8.7945 O   0  0  0  0  0  0  0  0  0  0  0  0
    0.7256    5.8810   11.1453 C   0  0  0  0  0  0  0  0  0  0  0  0
    2.0345    5.3293   11.3013 O   0  0  0  0  0  0  0  0  0  0  0  0
    0.2725    6.7825   12.3087 C   0  0  0  0  0  0  0  0  0  0  0  0
   -2.0407    8.9561   10.4542 C   0  0  0  0  0  0  0  0  0  0  0  0
   -1.2457    7.9288   10.8116 N   0  0  0  0  0  0  0  0  0  0  0  0
    0.4853    6.1737   13.5794 O   0  0  0  0  0  0  0  0  0  0  0  0
   -1.2111    7.1743   12.0985 C   0  0  0  0  0  0  0  0  0  0  0  0
   -0.6180    8.5170    8.7931 N   0  0  0  0  0  0  0  0  0  0  0  0
   -1.6268    9.3142    9.1842 C   0  0  0  0  0  0  0  0  0  0  0  0
   -0.3118    5.2172    8.9396 H   0  0  0  0  0  0  0  0  0  0  0  0
    2.6890    6.0453   11.3038 H   0  0  0  0  0  0  0  0  0  0  0  0
   -0.0374    5.3588   13.6392 H   0  0  0  0  0  0  0  0  0  0  0  0
   -0.1482    8.5485    7.9285 H   0  0  0  0  0  0  0  0  0  0  0  0
   -1.7517    8.0194   13.2203 C   0  0  0  0  0  0  0  0  0  0  0  0
   -0.7508    8.8774   13.7664 O   0  0  0  0  0  0  0  0  0  0  0  0
   -0.0281    8.3414   14.1288 H   0  0  0  0  0  0  0  0  0  0  0  0
   -2.3470   10.3959    8.4644 C   0  0  0  0  0  0  0  0  0  0  0  0
   -3.7752   10.3020    8.5582 O   0  0  0  0  0  0  0  0  0  0  0  0
   -4.0461   10.4062    9.4838 H   0  0  0  0  0  0  0  0  0  0  0  0
   -0.4974   12.0520    8.4885 C   0  0  0  0  0  0  0  0  0  0  0  0
   -1.8427   11.6783    8.8670 O   0  0  0  0  0  0  0  0  0  0  0  0
  1  2  1  0  0  0
  1  8  2  0  0  0
  1 11  1  0  0  0
  2  3  1  0  0  0
  2  4  1  0  0  0
  4  5  1  0  0  0
  4  6  1  0  0  0
  6  9  1  0  0  0
  6 10  1  0  0  0
  7  8  1  0  0  0
  7 12  2  0  0  0
  8 10  1  0  0  0
 10 17  1  0  0  0
 17 18  1  0  0  0
 11 12  1  0  0  0
 12 20  1  0  0  0
 20 21  1  0  0  0
 20 24  1  0  0  0
 23 24  1  0  0  0
  3 13  1  0  0  0
  5 14  1  0  0  0
  9 15  1  0  0  0
 18 19  1  0  0  0
 11 16  1  0  0  0
 21 22  1  0  0  0
M  CHG 1   8   1
M  END
> <minimizedAffinity>
-7.50039

$$$$
2J7D_GI1_A_1446


 24 25  0  0  0  0  0  0  0  0999 V2000
   -1.3461    8.8257   11.8279 C   0  0  0  0  0  0  0  0  0  0  0  0
   -1.6452    8.5194   13.2504 C   0  0  0  0  0  0  0  0  0  0  0  0
   -1.6649    9.7025   14.0353 O   0  0  0  0  0  0  0  0  0  0  0  0
   -0.5766    7.6079   13.8541 C   0  0  0  0  0  0  0  0  0  0  0  0
   -1.1625    6.9555   14.9824 O   0  0  0  0  0  0  0  0  0  0  0  0
   -0.0073    6.6507   12.7905 C   0  0  0  0  0  0  0  0  0  0  0  0
   -0.3858    8.8135    9.8420 C   0  0  0  0  0  0  0  0  0  0  0  0
   -0.2883    8.3712   11.1108 N   0  0  0  0  0  0  0  0  0  0  0  0
    0.8239    5.6427   13.3594 O   0  0  0  0  0  0  0  0  0  0  0  0
    0.7414    7.4757   11.7146 C   0  0  0  0  0  0  0  0  0  0  0  0
   -2.1177    9.5793   11.0212 N   0  0  0  0  0  0  0  0  0  0  0  0
   -1.5449    9.5670    9.8055 C   0  0  0  0  0  0  0  0  0  0  0  0
   -0.7897   10.1203   14.0124 H   0  0  0  0  0  0  0  0  0  0  0  0
   -1.9366    6.4463   14.6955 H   0  0  0  0  0  0  0  0  0  0  0  0
    1.5844    6.0585   13.7950 H   0  0  0  0  0  0  0  0  0  0  0  0
   -2.9446   10.0499   11.2741 H   0  0  0  0  0  0  0  0  0  0  0  0
    1.3737    6.6109   10.6576 C   0  0  0  0  0  0  0  0  0  0  0  0
    0.6649    5.3848   10.4831 O   0  0  0  0  0  0  0  0  0  0  0  0
    0.6764    4.8836   11.3135 H   0  0  0  0  0  0  0  0  0  0  0  0
   -1.9216   10.2579    8.5455 C   0  0  0  0  0  0  0  0  0  0  0  0
   -3.2266    9.9099    8.0626 O   0  0  0  0  0  0  0  0  0  0  0  0
   -3.8956   10.1960    8.7040 H   0  0  0  0  0  0  0  0  0  0  0  0
   -0.4073   12.2252    8.5239 C   0  0  0  0  0  0  0  0  0  0  0  0
   -1.7354   11.6746    8.6839 O   0  0  0  0  0  0  0  0  0  0  0  0
  1  2  1  0  0  0
  1  8  2  0  0  0
  1 11  1  0  0  0
  2  3  1  0  0  0
  2  4  1  0  0  0
  4  5  1  0  0  0
  4  6  1  0  0  0
  6  9  1  0  0  0
  6 10  1  0  0  0
  7  8  1  0  0  0
  7 12  2  0  0  0
  8 10  1  0  0  0
 10 17  1  0  0  0
 17 18  1  0  0  0
 11 12  1  0  0  0
 12 20  1  0  0  0
 20 21  1  0  0  0
 20 24  1  0  0  0
 23 24  1  0  0  0
  3 13  1  0  0  0
  5 14  1  0  0  0
  9 15  1  0  0  0
 18 19  1  0  0  0
 11 16  1  0  0  0
 21 22  1  0  0  0
M  CHG 1   8   1
M  END
> <minimizedAffinity>
-7.28427

$$$$
2J7D_GI1_A_1446


 24 25  0  0  0  0  0  0  0  0999 V2000
   -1.3050    8.9736   11.8975 C   0  0  0  0  0  0  0  0  0  0  0  0
   -0.9251    9.8986   10.7988 C   0  0  0  0  0  0  0  0  0  0  0  0
   -1.9751   10.8103   10.5118 O   0  0  0  0  0  0  0  0  0  0  0  0
   -0.6416    9.1322    9.5068 C   0  0  0  0  0  0  0  0  0  0  0  0
    0.1853    9.9650    8.6915 O   0  0  0  0  0  0  0  0  0  0  0  0
   -0.0445    7.7457    9.8110 C   0  0  0  0  0  0  0  0  0  0  0  0
   -1.7048    7.1242   13.0315 C   0  0  0  0  0  0  0  0  0  0  0  0
   -1.3895    7.6220   11.8200 N   0  0  0  0  0  0  0  0  0  0  0  0
    0.4372    7.0950    8.6383 O   0  0  0  0  0  0  0  0  0  0  0  0
   -1.1016    6.8899   10.5520 C   0  0  0  0  0  0  0  0  0  0  0  0
   -1.5856    9.3481   13.1604 N   0  0  0  0  0  0  0  0  0  0  0  0
   -1.8190    8.2250   13.8608 C   0  0  0  0  0  0  0  0  0  0  0  0
   -2.7567   10.3197   10.2128 H   0  0  0  0  0  0  0  0  0  0  0  0
    1.0065   10.1689    9.1658 H   0  0  0  0  0  0  0  0  0  0  0  0
   -0.2985    6.9520    8.0225 H   0  0  0  0  0  0  0  0  0  0  0  0
   -1.6143   10.2698   13.5051 H   0  0  0  0  0  0  0  0  0  0  0  0
   -0.6159    5.4962   10.8461 C   0  0  0  0  0  0  0  0  0  0  0  0
    0.7988    5.4560   11.0283 O   0  0  0  0  0  0  0  0  0  0  0  0
    1.2380    5.7511   10.2153 H   0  0  0  0  0  0  0  0  0  0  0  0
   -2.2214    8.0278   15.2772 C   0  0  0  0  0  0  0  0  0  0  0  0
   -3.6005    7.6702   15.4425 O   0  0  0  0  0  0  0  0  0  0  0  0
   -3.7643    6.8110   15.0232 H   0  0  0  0  0  0  0  0  0  0  0  0
   -1.5169    6.8142   17.3253 C   0  0  0  0  0  0  0  0  0  0  0  0
   -1.3243    7.1117   15.9228 O   0  0  0  0  0  0  0  0  0  0  0  0
  1  2  1  0  0  0
  1  8  2  0  0  0
  1 11  1  0  0  0
  2  3  1  0  0  0
  2  4  1  0  0  0
  4  5  1  0  0  0
  4  6  1  0  0  0
  6  9  1  0  0  0
  6 10  1  0  0  0
  7  8  1  0  0  0
  7 12  2  0  0  0
  8 10  1  0  0  0
 10 17  1  0  0  0
 17 18  1  0  0  0
 11 12  1  0  0  0
 12 20  1  0  0  0
 20 21  1  0  0  0
 20 24  1  0  0  0
 23 24  1  0  0  0
  3 13  1  0  0  0
  5 14  1  0  0  0
  9 15  1  0  0  0
 18 19  1  0  0  0
 11 16  1  0  0  0
 21 22  1  0  0  0
M  CHG 1   8   1
M  END
> <minimizedAffinity>
-7.21425

$$$$
2J7D_GI1_A_1446


 24 25  0  0  0  0  0  0  0  0999 V2000
   -1.3922    6.7853   12.9366 C   0  0  0  0  0  0  0  0  0  0  0  0
   -0.9584    5.7460   11.9678 C   0  0  0  0  0  0  0  0  0  0  0  0
    0.1027    4.9647   12.4967 O   0  0  0  0  0  0  0  0  0  0  0  0
   -0.4386    6.3789   10.6770 C   0  0  0  0  0  0  0  0  0  0  0  0
   -0.5364    5.3905    9.6496 O   0  0  0  0  0  0  0  0  0  0  0  0
   -1.1840    7.6911   10.3703 C   0  0  0  0  0  0  0  0  0  0  0  0
   -1.8913    8.7436   13.8208 C   0  0  0  0  0  0  0  0  0  0  0  0
   -1.3648    8.1277   12.7445 N   0  0  0  0  0  0  0  0  0  0  0  0
   -0.8860    8.1913    9.0697 O   0  0  0  0  0  0  0  0  0  0  0  0
   -0.8610    8.7278   11.4746 C   0  0  0  0  0  0  0  0  0  0  0  0
   -1.9217    6.5375   14.1500 N   0  0  0  0  0  0  0  0  0  0  0  0
   -2.2394    7.7262   14.6905 C   0  0  0  0  0  0  0  0  0  0  0  0
    0.8699    5.5336   12.6658 H   0  0  0  0  0  0  0  0  0  0  0  0
   -1.4607    5.1117    9.5561 H   0  0  0  0  0  0  0  0  0  0  0  0
    0.0617    8.3890    9.0086 H   0  0  0  0  0  0  0  0  0  0  0  0
   -2.0515    5.6531   14.5627 H   0  0  0  0  0  0  0  0  0  0  0  0
   -1.5129   10.0612   11.2260 C   0  0  0  0  0  0  0  0  0  0  0  0
   -0.5480   11.0931   11.0253 O   0  0  0  0  0  0  0  0  0  0  0  0
    0.0006   11.1818   11.8203 H   0  0  0  0  0  0  0  0  0  0  0  0
   -2.8037    8.0703   16.0210 C   0  0  0  0  0  0  0  0  0  0  0  0
   -2.7413    9.4692   16.3318 O   0  0  0  0  0  0  0  0  0  0  0  0
   -3.2879    9.9650   15.7022 H   0  0  0  0  0  0  0  0  0  0  0  0
   -4.3096    6.3113   16.9167 C   0  0  0  0  0  0  0  0  0  0  0  0
   -4.1255    7.5260   16.1529 O   0  0  0  0  0  0  0  0  0  0  0  0
  1  2  1  0  0  0
  1  8  2  0  0  0
  1 11  1  0  0  0
  2  3  1  0  0  0
  2  4  1  0  0  0
  4  5  1  0  0  0
  4  6  1  0  0  0
  6  9  1  0  0  0
  6 10  1  0  0  0
  7  8  1  0  0  0
  7 12  2  0  0  0
  8 10  1  0  0  0
 10 17  1  0  0  0
 17 18  1  0  0  0
 11 12  1  0  0  0
 12 20  1  0  0  0
 20 21  1  0  0  0
 20 24  1  0  0  0
 23 24  1  0  0  0
  3 13  1  0  0  0
  5 14  1  0  0  0
  9 15  1  0  0  0
 18 19  1  0  0  0
 11 16  1  0  0  0
 21 22  1  0  0  0
M  CHG 1   8   1
M  END
> <minimizedAffinity>
-7.13138

$$$$
2J7D_GI1_A_1446


 24 25  0  0  0  0  0  0  0  0999 V2000
   -0.4342    8.4940   11.5341 C   0  0  0  0  0  0  0  0  0  0  0  0
   -0.6925    7.8575   12.8514 C   0  0  0  0  0  0  0  0  0  0  0  0
    0.1178    8.4334   13.8654 O   0  0  0  0  0  0  0  0  0  0  0  0
   -0.3609    6.3656   12.8167 C   0  0  0  0  0  0  0  0  0  0  0  0
   -1.0904    5.7434   13.8763 O   0  0  0  0  0  0  0  0  0  0  0  0
   -0.6368    5.7745   11.4218 C   0  0  0  0  0  0  0  0  0  0  0  0
    0.0737    8.7645    9.4046 C   0  0  0  0  0  0  0  0  0  0  0  0
    0.0207    7.8759   10.4158 N   0  0  0  0  0  0  0  0  0  0  0  0
   -0.5533    4.3519   11.4108 O   0  0  0  0  0  0  0  0  0  0  0  0
    0.3320    6.4166   10.3982 C   0  0  0  0  0  0  0  0  0  0  0  0
   -0.6571    9.7906   11.2457 N   0  0  0  0  0  0  0  0  0  0  0  0
   -0.3608    9.9607    9.9459 C   0  0  0  0  0  0  0  0  0  0  0  0
    1.0530    8.2837   13.6558 H   0  0  0  0  0  0  0  0  0  0  0  0
   -2.0398    5.8948   13.7477 H   0  0  0  0  0  0  0  0  0  0  0  0
    0.3446    4.0789   11.6560 H   0  0  0  0  0  0  0  0  0  0  0  0
   -0.9765   10.4826   11.8689 H   0  0  0  0  0  0  0  0  0  0  0  0
    0.1631    5.8578    9.0111 C   0  0  0  0  0  0  0  0  0  0  0  0
   -1.1868    5.4712    8.7569 O   0  0  0  0  0  0  0  0  0  0  0  0
   -1.4480    4.7780    9.3831 H   0  0  0  0  0  0  0  0  0  0  0  0
   -0.3687   11.1804    9.0978 C   0  0  0  0  0  0  0  0  0  0  0  0
    0.9059   11.4896    8.5170 O   0  0  0  0  0  0  0  0  0  0  0  0
    1.1672   10.7772    7.9127 H   0  0  0  0  0  0  0  0  0  0  0  0
   -2.6851   10.5080    8.5095 C   0  0  0  0  0  0  0  0  0  0  0  0
   -1.4220   11.0997    8.1258 O   0  0  0  0  0  0  0  0  0  0  0  0
  1  2  1  0  0  0
  1  8  2  0  0  0
  1 11  1  0  0  0
  2  3  1  0  0  0
  2  4  1  0  0  0
  4  5  1  0  0  0
  4  6  1  0  0  0
  6  9  1  0  0  0
  6 10  1  0  0  0
  7  8  1  0  0  0
  7 12  2  0  0  0
  8 10  1  0  0  0
 10 17  1  0  0  0
 17 18  1  0  0  0
 11 12  1  0  0  0
 12 20  1  0  0  0
 20 21  1  0  0  0
 20 24  1  0  0  0
 23 24  1  0  0  0
  3 13  1  0  0  0
  5 14  1  0  0  0
  9 15  1  0  0  0
 18 19  1  0  0  0
 11 16  1  0  0  0
 21 22  1  0  0  0
M  CHG 1   8   1
M  END
> <minimizedAffinity>
-7.07948

$$$$
2J7D_GI1_A_1446


 24 25  0  0  0  0  0  0  0  0999 V2000
   -1.0370    6.6408   12.1367 C   0  0  0  0  0  0  0  0  0  0  0  0
   -0.6956    5.8222   10.9450 C   0  0  0  0  0  0  0  0  0  0  0  0
    0.3938    4.9530   11.2165 O   0  0  0  0  0  0  0  0  0  0  0  0
   -0.2719    6.7066    9.7722 C   0  0  0  0  0  0  0  0  0  0  0  0
   -0.4643    5.9479    8.5766 O   0  0  0  0  0  0  0  0  0  0  0  0
   -1.0219    8.0512    9.8000 C   0  0  0  0  0  0  0  0  0  0  0  0
   -1.4380    8.3763   13.4381 C   0  0  0  0  0  0  0  0  0  0  0  0
   -1.0072    7.9943   12.2201 N   0  0  0  0  0  0  0  0  0  0  0  0
   -0.8219    8.8070    8.6086 O   0  0  0  0  0  0  0  0  0  0  0  0
   -0.5982    8.8423   11.0623 C   0  0  0  0  0  0  0  0  0  0  0  0
   -1.4713    6.1492   13.3130 N   0  0  0  0  0  0  0  0  0  0  0  0
   -1.7291    7.2018   14.1079 C   0  0  0  0  0  0  0  0  0  0  0  0
    1.1796    5.4780   11.4353 H   0  0  0  0  0  0  0  0  0  0  0  0
   -1.3968    5.6910    8.5033 H   0  0  0  0  0  0  0  0  0  0  0  0
    0.1205    9.0161    8.5127 H   0  0  0  0  0  0  0  0  0  0  0  0
   -1.5795    5.1989   13.5464 H   0  0  0  0  0  0  0  0  0  0  0  0
   -1.2502   10.1962   11.1436 C   0  0  0  0  0  0  0  0  0  0  0  0
   -0.3500   11.2402   10.7749 O   0  0  0  0  0  0  0  0  0  0  0  0
    0.4059   11.2450   11.3827 H   0  0  0  0  0  0  0  0  0  0  0  0
   -2.1810    7.2657   15.5216 C   0  0  0  0  0  0  0  0  0  0  0  0
   -3.4311    6.6040   15.7599 O   0  0  0  0  0  0  0  0  0  0  0  0
   -3.3343    5.6557   15.5802 H   0  0  0  0  0  0  0  0  0  0  0  0
   -1.4521    6.5267   17.7769 C   0  0  0  0  0  0  0  0  0  0  0  0
   -1.1345    6.8170   16.3958 O   0  0  0  0  0  0  0  0  0  0  0  0
  1  2  1  0  0  0
  1  8  2  0  0  0
  1 11  1  0  0  0
  2  3  1  0  0  0
  2  4  1  0  0  0
  4  5  1  0  0  0
  4  6  1  0  0  0
  6  9  1  0  0  0
  6 10  1  0  0  0
  7  8  1  0  0  0
  7 12  2  0  0  0
  8 10  1  0  0  0
 10 17  1  0  0  0
 17 18  1  0  0  0
 11 12  1  0  0  0
 12 20  1  0  0  0
 20 21  1  0  0  0
 20 24  1  0  0  0
 23 24  1  0  0  0
  3 13  1  0  0  0
  5 14  1  0  0  0
  9 15  1  0  0  0
 18 19  1  0  0  0
 11 16  1  0  0  0
 21 22  1  0  0  0
M  CHG 1   8   1
M  END
> <minimizedAffinity>
-6.77319

$$$$
