3T3U_BK6_A_701
  RCSB PDB12061710493D
Coordinates from PDB:3T3U:A:701 Model:1 without hydrogens
 29 33  0  0  0  0            999 V2000
   21.5610   12.4820   63.8090   N 0  0  0  0  0  0  0  0  0  0  0  0
   22.7250   13.1140   63.6140   C 0  0  0  0  0  0  0  0  0  0  0  0
   22.7860   14.4420   63.5800   N 0  0  0  0  0  0  0  0  0  0  0  0
   21.6650   15.1730   63.7270   C 0  0  0  0  0  0  0  0  0  0  0  0
   20.4330   14.5580   63.9430   C 0  0  0  0  0  0  0  0  0  0  0  0
   20.4040   13.1540   63.9870   C 0  0  0  0  0  0  0  0  0  0  0  0
   11.3180   15.3120   65.6420   C 0  0  0  0  0  0  0  0  0  0  0  0
   19.2780   12.4500   64.1820   N 0  0  0  0  0  0  0  0  0  0  0  0
   14.4590   14.0080   67.0670   C 0  0  0  0  0  0  0  0  0  0  0  0
   17.2700   16.3190   63.5590   C 0  0  0  0  0  0  0  0  0  0  0  0
   15.8160   14.0710   66.7710   C 0  0  0  0  0  0  0  0  0  0  0  0
   15.8970   16.2790   63.8460   C 0  0  0  0  0  0  0  0  0  0  0  0
   14.0360   15.4850   65.2110   C 0  0  0  0  0  0  0  0  0  0  0  0
   17.6670   14.8430   65.4160   C 0  0  0  0  0  0  0  0  0  0  0  0
   24.4330   19.0180   60.5210   C 0  0  0  0  0  0  0  0  0  0  0  0
   22.2180   18.4930   59.7240   C 0  0  0  0  0  0  0  0  0  0  0  0
   24.0460   18.7430   61.9830   C 0  0  0  0  0  0  0  0  0  0  0  0
   21.8050   17.9810   61.1280   C 0  0  0  0  0  0  0  0  0  0  0  0
   22.4990   17.4990   63.5420   C 0  0  0  0  0  0  0  0  0  0  0  0
   20.2480   16.7590   63.9460   N 0  0  0  0  0  0  0  0  0  0  0  0
   23.2440   19.5490   59.8300   N 0  0  0  0  0  0  0  0  0  0  0  0
   12.2270   14.6540   66.5740   O 0  0  0  0  0  0  0  0  0  0  0  0
   13.5600   14.7260   66.2790   C 0  0  0  0  0  0  0  0  0  0  0  0
   18.1670   15.5720   64.3270   C 0  0  0  0  0  0  0  0  0  0  0  0
   19.5360   15.6320   64.0730   C 0  0  0  0  0  0  0  0  0  0  0  0
   15.4050   15.5250   64.9210   C 0  0  0  0  0  0  0  0  0  0  0  0
   16.2980   14.8110   65.7070   C 0  0  0  0  0  0  0  0  0  0  0  0
   22.9870   17.6320   62.0540   C 0  0  0  0  0  0  0  0  0  0  0  0
   21.4410   16.4820   63.7340   N 0  0  0  0  0  0  0  0  0  0  0  0
  1  6  2  0  0  0  0
  2  1  1  0  0  0  0
  3  2  2  0  0  0  0
  3  4  1  0  0  0  0
  4 29  1  0  0  0  0
  4  5  2  0  0  0  0
  5  6  1  0  0  0  0
  5 25  1  0  0  0  0
  6  8  1  0  0  0  0
  7 22  1  0  0  0  0
 10 12  2  0  0  0  0
 10 24  1  0  0  0  0
 11  9  2  0  0  0  0
 12 26  1  0  0  0  0
 13 23  2  0  0  0  0
 14 27  1  0  0  0  0
 15 17  1  0  0  0  0
 16 21  1  0  0  0  0
 16 18  1  0  0  0  0
 17 28  1  0  0  0  0
 18 28  1  0  0  0  0
 19 29  1  0  0  0  0
 20 25  2  0  0  0  0
 21 15  1  0  0  0  0
 23  9  1  0  0  0  0
 23 22  1  0  0  0  0
 24 14  2  0  0  0  0
 25 24  1  0  0  0  0
 26 13  1  0  0  0  0
 26 27  2  0  0  0  0
 27 11  1  0  0  0  0
 28 19  1  0  0  0  0
 29 20  1  0  0  0  0
A    1
N1
A    2
C2
A    3
N3
A    4
C4
A    5
C5
A    6
C6
A    7
CAA
A    8
NAB
A    9
CAC
A   10
CAD
A   11
CAE
A   12
CAF
A   13
CAH
A   14
CAI
A   15
CAJ
A   16
CAK
A   17
CAL
A   18
CAM
A   19
CAN
A   20
NAQ
A   21
NAR
A   22
OAS
A   23
CAT
A   24
CAU
A   25
CAW
A   26
CAX
A   27
CAY
A   28
CBB
A   29
NBC
M  END
>  <InstanceId>
3T3U_BK6_A_701

>  <ChemCompId>
BK6

>  <PdbId>
3T3U

>  <ChainId>
A

>  <ResidueNumber>
701

>  <InsertionCode>


>  <Model>
1

>  <AltIds>


>  <MissingHeavyAtoms>
0

>  <ObservedFormula>
C22 N6 O

>  <Name>
3-(6-methoxynaphthalen-2-yl)-1-(piperidin-4-ylmethyl)-1H-pyrazolo[3,4-d]pyrimidin-4-amine

>  <SystematicName>
3-(6-methoxynaphthalen-2-yl)-1-(piperidin-4-ylmethyl)pyrazolo[3,4-d]pyrimidin-4-amine

>  <Synonyms>
RM-1-130

>  <Type>
NON-POLYMER

>  <Formula>
C22 H24 N6 O

>  <MolecularWeight>
388.466

>  <ModifiedDate>
2012-03-09

>  <Parent>


>  <OneLetterCode>


>  <SubcomponentList>


>  <AmbiguousFlag>
N

>  <InChI>
InChI=1S/C22H24N6O/c1-29-18-5-4-15-10-17(3-2-16(15)11-18)20-19-21(23)25-13-26-22(19)28(27-20)12-14-6-8-24-9-7-14/h2-5,10-11,13-14,24H,6-9,12H2,1H3,(H2,23,25,26)

>  <InChIKey>
MBHHJCMRPHUOAD-UHFFFAOYSA-N

>  <SMILES>
COc1ccc2cc(ccc2c1)c3c4c(ncnc4n(n3)CC5CCNCC5)N

$$$$
