4YO8_4EZ_A_301


 24 25  0  0  0  0  0  0  0  0999 V2000
   -6.5340   19.5045  -26.7736 C   0  0  0  0  0  0  0  0  0  0  0  0
   -5.5622   20.5955  -26.7876 C   0  0  0  0  0  0  0  0  0  0  0  0
   -4.4129   20.7452  -26.1327 N   0  0  0  0  0  0  0  0  0  0  0  0
   -7.4912   19.9239  -27.6921 C   0  0  0  0  0  0  0  0  0  0  0  0
   -7.1878   21.1394  -28.2150 N   0  0  0  0  0  0  0  0  0  0  0  0
   -6.0540   21.6008  -27.7210 C   0  0  0  0  0  0  0  0  0  0  0  0
   -5.2134   22.7939  -27.8945 C   0  0  0  0  0  0  0  0  0  0  0  0
   -5.5506   23.7878  -28.7316 N   0  0  0  0  0  0  0  0  0  0  0  0
   -4.0761   22.8487  -27.1841 N   0  0  0  0  0  0  0  0  0  0  0  0
   -3.6989   21.8682  -26.3588 C   0  0  0  0  0  0  0  0  0  0  0  0
   -7.7411   21.6147  -28.8762 H   0  0  0  0  0  0  0  0  0  0  0  0
   -6.3879   23.7347  -29.2468 H   0  0  0  0  0  0  0  0  0  0  0  0
   -4.9606   24.5697  -28.8303 H   0  0  0  0  0  0  0  0  0  0  0  0
   -6.5699   18.2075  -26.0019 C   0  0  0  0  0  0  0  0  0  0  0  0
   -7.2296   18.1825  -24.6835 N   0  0  0  0  0  0  0  0  0  0  0  0
   -7.7215   16.7713  -24.5099 C   0  0  0  0  0  0  0  0  0  0  0  0
   -7.6198   16.1499  -25.7692 O   0  0  0  0  0  0  0  0  0  0  0  0
   -8.1510   16.6406  -26.4157 H   0  0  0  0  0  0  0  0  0  0  0  0
   -6.4173   18.4355  -23.4673 C   0  0  0  0  0  0  0  0  0  0  0  0
   -7.1007   19.3090  -22.4214 C   0  0  0  0  0  0  0  0  0  0  0  0
   -7.9435   20.3671  -23.1623 C   0  0  0  0  0  0  0  0  0  0  0  0
   -8.6707   21.3607  -22.2492 C   0  0  0  0  0  0  0  0  0  0  0  0
   -7.8420   21.6807  -21.0116 C   0  0  0  0  0  0  0  0  0  0  0  0
   -8.7209   21.8954  -19.7976 C   0  0  0  0  0  0  0  0  0  0  0  0
  8  7  1  0  0  0
  5  4  1  0  0  0
  5  6  1  0  0  0
  4  1  2  0  0  0
  7  6  2  0  0  0
  7  9  1  0  0  0
  6  2  1  0  0  0
  9 10  2  0  0  0
  1  2  1  0  0  0
  1 14  1  0  0  0
  2  3  2  0  0  0
 14 15  1  0  0  0
 10  3  1  0  0  0
 15 16  1  0  0  0
 15 19  1  0  0  0
 16 17  1  0  0  0
 19 20  1  0  0  0
 20 21  1  0  0  0
 21 22  1  0  0  0
 22 23  1  0  0  0
 23 24  1  0  0  0
  5 11  1  0  0  0
  8 12  1  0  0  0
  8 13  1  0  0  0
 17 18  1  0  0  0
M  END
> <minimizedAffinity>
-9.46806

$$$$
4YO8_4EZ_A_301


 24 25  0  0  0  0  0  0  0  0999 V2000
   -5.6083   19.1063  -25.2905 C   0  0  0  0  0  0  0  0  0  0  0  0
   -6.3804   19.5963  -26.4300 C   0  0  0  0  0  0  0  0  0  0  0  0
   -7.4747   19.1112  -27.0125 N   0  0  0  0  0  0  0  0  0  0  0  0
   -4.6114   20.0666  -25.1495 C   0  0  0  0  0  0  0  0  0  0  0  0
   -4.7135   21.0393  -26.0909 N   0  0  0  0  0  0  0  0  0  0  0  0
   -5.7425   20.8237  -26.8889 C   0  0  0  0  0  0  0  0  0  0  0  0
   -6.3711   21.4936  -28.0362 C   0  0  0  0  0  0  0  0  0  0  0  0
   -5.8857   22.6358  -28.5482 N   0  0  0  0  0  0  0  0  0  0  0  0
   -7.4687   20.9197  -28.5530 N   0  0  0  0  0  0  0  0  0  0  0  0
   -7.9914   19.7956  -28.0550 C   0  0  0  0  0  0  0  0  0  0  0  0
   -4.1001   21.8055  -26.1684 H   0  0  0  0  0  0  0  0  0  0  0  0
   -5.0797   23.0461  -28.1594 H   0  0  0  0  0  0  0  0  0  0  0  0
   -6.3358   23.0631  -29.3124 H   0  0  0  0  0  0  0  0  0  0  0  0
   -5.7789   17.8864  -24.4177 C   0  0  0  0  0  0  0  0  0  0  0  0
   -7.0637   17.6826  -23.7237 N   0  0  0  0  0  0  0  0  0  0  0  0
   -7.1106   16.2156  -23.3931 C   0  0  0  0  0  0  0  0  0  0  0  0
   -6.9088   15.5222  -24.6018 O   0  0  0  0  0  0  0  0  0  0  0  0
   -7.5984   15.7717  -25.2367 H   0  0  0  0  0  0  0  0  0  0  0  0
   -7.2924   18.3553  -22.4205 C   0  0  0  0  0  0  0  0  0  0  0  0
   -7.7602   19.8021  -22.5297 C   0  0  0  0  0  0  0  0  0  0  0  0
   -7.1555   20.5881  -21.3485 C   0  0  0  0  0  0  0  0  0  0  0  0
   -7.8192   21.9423  -21.0737 C   0  0  0  0  0  0  0  0  0  0  0  0
   -8.8262   21.8419  -19.9350 C   0  0  0  0  0  0  0  0  0  0  0  0
  -10.2339   21.6463  -20.4570 C   0  0  0  0  0  0  0  0  0  0  0  0
  8  7  1  0  0  0
  5  4  1  0  0  0
  5  6  1  0  0  0
  4  1  2  0  0  0
  7  6  2  0  0  0
  7  9  1  0  0  0
  6  2  1  0  0  0
  9 10  2  0  0  0
  1  2  1  0  0  0
  1 14  1  0  0  0
  2  3  2  0  0  0
 14 15  1  0  0  0
 10  3  1  0  0  0
 15 16  1  0  0  0
 15 19  1  0  0  0
 16 17  1  0  0  0
 19 20  1  0  0  0
 20 21  1  0  0  0
 21 22  1  0  0  0
 22 23  1  0  0  0
 23 24  1  0  0  0
  5 11  1  0  0  0
  8 12  1  0  0  0
  8 13  1  0  0  0
 17 18  1  0  0  0
M  END
> <minimizedAffinity>
-7.31808

$$$$
4YO8_4EZ_A_301


 24 25  0  0  0  0  0  0  0  0999 V2000
   -7.7701   20.5216  -22.5315 C   0  0  0  0  0  0  0  0  0  0  0  0
   -8.7953   20.7444  -21.5146 C   0  0  0  0  0  0  0  0  0  0  0  0
   -9.9942   20.1893  -21.3519 N   0  0  0  0  0  0  0  0  0  0  0  0
   -6.7418   21.3698  -22.1327 C   0  0  0  0  0  0  0  0  0  0  0  0
   -7.0699   22.0670  -21.0151 N   0  0  0  0  0  0  0  0  0  0  0  0
   -8.2787   21.7475  -20.5922 C   0  0  0  0  0  0  0  0  0  0  0  0
   -9.1586   22.1178  -19.4746 C   0  0  0  0  0  0  0  0  0  0  0  0
   -8.7958   23.0226  -18.5516 N   0  0  0  0  0  0  0  0  0  0  0  0
  -10.3491   21.5022  -19.4041 N   0  0  0  0  0  0  0  0  0  0  0  0
  -10.7332   20.5814  -20.2925 C   0  0  0  0  0  0  0  0  0  0  0  0
   -6.4829   22.7251  -20.5772 H   0  0  0  0  0  0  0  0  0  0  0  0
   -7.9195   23.4668  -18.6154 H   0  0  0  0  0  0  0  0  0  0  0  0
   -9.4061   23.2420  -17.8109 H   0  0  0  0  0  0  0  0  0  0  0  0
   -7.7388   19.6142  -23.7375 C   0  0  0  0  0  0  0  0  0  0  0  0
   -6.4363   19.2790  -24.3416 N   0  0  0  0  0  0  0  0  0  0  0  0
   -6.0138   17.9902  -23.6902 C   0  0  0  0  0  0  0  0  0  0  0  0
   -5.0735   17.3917  -24.5504 O   0  0  0  0  0  0  0  0  0  0  0  0
   -5.4792   17.2415  -25.4186 H   0  0  0  0  0  0  0  0  0  0  0  0
   -6.3707   18.9887  -25.7957 C   0  0  0  0  0  0  0  0  0  0  0  0
   -7.2004   19.9263  -26.6654 C   0  0  0  0  0  0  0  0  0  0  0  0
   -6.2287   20.7955  -27.4894 C   0  0  0  0  0  0  0  0  0  0  0  0
   -4.9475   21.1994  -26.7510 C   0  0  0  0  0  0  0  0  0  0  0  0
   -4.2952   22.4126  -27.4017 C   0  0  0  0  0  0  0  0  0  0  0  0
   -5.2921   23.2030  -28.2227 C   0  0  0  0  0  0  0  0  0  0  0  0
  8  7  1  0  0  0
  5  4  1  0  0  0
  5  6  1  0  0  0
  4  1  2  0  0  0
  7  6  2  0  0  0
  7  9  1  0  0  0
  6  2  1  0  0  0
  9 10  2  0  0  0
  1  2  1  0  0  0
  1 14  1  0  0  0
  2  3  2  0  0  0
 14 15  1  0  0  0
 10  3  1  0  0  0
 15 16  1  0  0  0
 15 19  1  0  0  0
 16 17  1  0  0  0
 19 20  1  0  0  0
 20 21  1  0  0  0
 21 22  1  0  0  0
 22 23  1  0  0  0
 23 24  1  0  0  0
  5 11  1  0  0  0
  8 12  1  0  0  0
  8 13  1  0  0  0
 17 18  1  0  0  0
M  END
> <minimizedAffinity>
-6.57368

$$$$
