5ER2_0EK_E_327


 80 83  0  0  0  0  0  0  0  0999 V2000
    4.8425   33.2945   14.9847 C   0  0  0  0  0  0  0  0  0  0  0  0
    3.0210   32.2639   16.1813 C   0  0  0  0  0  0  0  0  0  0  0  0
    2.7417   33.3147   16.7547 O   0  0  0  0  0  0  0  0  0  0  0  0
    3.9358   32.1643   15.2442 N   0  0  0  0  0  0  0  0  0  0  0  0
    4.0149   31.3365   14.7171 H   0  0  0  0  0  0  0  0  0  0  0  0
    2.3295   30.9526   16.5228 C   0  0  0  0  0  0  0  0  0  0  0  0
    3.5440   29.0674   17.4799 C   0  0  0  0  0  0  0  0  0  0  0  0
    3.4325   28.4060   16.4531 O   0  0  0  0  0  0  0  0  0  0  0  0
    3.0777   30.3002   17.6504 N   0  0  0  0  0  0  0  0  0  0  0  0
    3.2200   30.7771   18.4998 H   0  0  0  0  0  0  0  0  0  0  0  0
    4.3140   28.5219   18.6734 C   0  0  0  0  0  0  0  0  0  0  0  0
    2.5496   27.2461   20.4932 O   0  0  0  0  0  0  0  0  0  0  0  0
    3.2161   26.5760   19.7108 C   0  0  0  0  0  0  0  0  0  0  0  0
    4.0622   27.0857   18.8355 N   0  0  0  0  0  0  0  0  0  0  0  0
    4.5556   26.4626   18.2545 H   0  0  0  0  0  0  0  0  0  0  0  0
    3.1743   25.1562   19.6438 O   0  0  0  0  0  0  0  0  0  0  0  0
    1.8916   24.5803   19.4200 C   0  0  0  0  0  0  0  0  0  0  0  0
    2.0067   23.0643   19.2331 C   0  0  0  0  0  0  0  0  0  0  0  0
    1.3562   25.1948   18.1172 C   0  0  0  0  0  0  0  0  0  0  0  0
    0.9332   24.8954   20.5685 C   0  0  0  0  0  0  0  0  0  0  0  0
    5.8095   28.7766   18.4628 C   0  0  0  0  0  0  0  0  0  0  0  0
    6.4110   29.4093   19.7188 C   0  0  0  0  0  0  0  0  0  0  0  0
    5.6360   30.2638   20.4934 C   0  0  0  0  0  0  0  0  0  0  0  0
    7.7247   29.1193   20.0648 C   0  0  0  0  0  0  0  0  0  0  0  0
    6.1812   30.8412   21.6348 C   0  0  0  0  0  0  0  0  0  0  0  0
    8.2626   29.7009   21.2069 C   0  0  0  0  0  0  0  0  0  0  0  0
    7.4951   30.5559   21.9888 C   0  0  0  0  0  0  0  0  0  0  0  0
    0.9129   31.2560   16.9663 C   0  0  0  0  0  0  0  0  0  0  0  0
    0.2911   29.9905   17.5456 C   0  0  0  0  0  0  0  0  0  0  0  0
    0.0730   29.7706   18.9038 N   0  0  0  0  0  0  0  0  0  0  0  0
   -0.1410   28.8491   16.8456 C   0  0  0  0  0  0  0  0  0  0  0  0
   -0.5024   28.5087   19.0408 C   0  0  0  0  0  0  0  0  0  0  0  0
   -0.6256   27.9251   17.7725 N   0  0  0  0  0  0  0  0  0  0  0  0
    0.2868   30.3941   19.6350 H   0  0  0  0  0  0  0  0  0  0  0  0
   -0.9863   27.0311   17.5729 H   0  0  0  0  0  0  0  0  0  0  0  0
    4.5150   33.9124   13.6193 C   0  0  0  0  0  0  0  0  0  0  0  0
    5.1488   33.1442   12.5896 O   0  0  0  0  0  0  0  0  0  0  0  0
    4.8112   32.2351   12.6103 H   0  0  0  0  0  0  0  0  0  0  0  0
    3.0091   33.9512   13.3751 C   0  0  0  0  0  0  0  0  0  0  0  0
    2.7200   34.9557   12.3413 N   0  0  0  0  0  0  0  0  0  0  0  0
    2.8980   36.2363   12.6152 C   0  0  0  0  0  0  0  0  0  0  0  0
    3.2744   36.5652   13.7431 O   0  0  0  0  0  0  0  0  0  0  0  0
    2.8091   37.1347   11.6481 N   0  0  0  0  0  0  0  0  0  0  0  0
    2.7412   36.8529   10.7072 H   0  0  0  0  0  0  0  0  0  0  0  0
    2.1517   34.5298   11.0535 C   0  0  0  0  0  0  0  0  0  0  0  0
    0.8286   33.7979   11.2342 C   0  0  0  0  0  0  0  0  0  0  0  0
   -0.3044   34.7560   11.5542 C   0  0  0  0  0  0  0  0  0  0  0  0
    0.5087   32.8765   10.0731 C   0  0  0  0  0  0  0  0  0  0  0  0
    2.8134   38.5642   12.0041 C   0  0  0  0  0  0  0  0  0  0  0  0
    1.4119   39.0327   12.3441 C   0  0  0  0  0  0  0  0  0  0  0  0
    0.9169   40.0285   11.8175 O   0  0  0  0  0  0  0  0  0  0  0  0
    0.7249   38.3325   13.2303 N   0  0  0  0  0  0  0  0  0  0  0  0
    1.1173   37.5418   13.6664 H   0  0  0  0  0  0  0  0  0  0  0  0
   -0.6506   38.7729   13.5466 C   0  0  0  0  0  0  0  0  0  0  0  0
   -0.7560   39.1130   15.0257 C   0  0  0  0  0  0  0  0  0  0  0  0
   -1.6779   38.6322   15.6861 O   0  0  0  0  0  0  0  0  0  0  0  0
    0.1467   39.9379   15.5194 O   0  0  0  0  0  0  0  0  0  0  0  0
    0.8266   40.2726   14.9684 H   0  0  0  0  0  0  0  0  0  0  0  0
   -1.6462   37.6753   13.1939 C   0  0  0  0  0  0  0  0  0  0  0  0
   -2.3830   37.8159   11.8647 C   0  0  0  0  0  0  0  0  0  0  0  0
   -3.7647   37.6301   11.8312 C   0  0  0  0  0  0  0  0  0  0  0  0
   -1.7442   38.1206   10.6664 C   0  0  0  0  0  0  0  0  0  0  0  0
   -4.4810   37.7473   10.6463 C   0  0  0  0  0  0  0  0  0  0  0  0
   -2.4483   38.2405    9.4712 C   0  0  0  0  0  0  0  0  0  0  0  0
   -3.8282   38.0533    9.4567 C   0  0  0  0  0  0  0  0  0  0  0  0
    3.3785   39.3821   10.8552 C   0  0  0  0  0  0  0  0  0  0  0  0
    4.4442   40.3351   11.3681 C   0  0  0  0  0  0  0  0  0  0  0  0
    4.1370   41.7615   10.9429 C   0  0  0  0  0  0  0  0  0  0  0  0
    3.8658   42.6130   12.1745 C   0  0  0  0  0  0  0  0  0  0  0  0
    3.7142   41.7390   13.3480 N   0  0  0  0  0  0  0  0  0  0  0  0
    2.9345   41.0989   13.1968 H   0  0  0  0  0  0  0  0  0  0  0  0
    3.5315   42.3081   14.1745 H   0  0  0  0  0  0  0  0  0  0  0  0
    4.5714   41.2038   13.4864 H   0  0  0  0  0  0  0  0  0  0  0  0
    6.2974   32.8352   15.0566 C   0  0  0  0  0  0  0  0  0  0  0  0
    6.7592   32.5580   16.4841 C   0  0  0  0  0  0  0  0  0  0  0  0
    6.4364   33.6880   17.4642 C   0  0  0  0  0  0  0  0  0  0  0  0
    8.2497   32.2138   16.5438 C   0  0  0  0  0  0  0  0  0  0  0  0
    6.8037   33.2543   18.8892 C   0  0  0  0  0  0  0  0  0  0  0  0
    8.6567   31.7953   17.9573 C   0  0  0  0  0  0  0  0  0  0  0  0
    8.2777   32.8570   18.9909 C   0  0  0  0  0  0  0  0  0  0  0  0
 12 13  2  0  0  0
 13 16  1  0  0  0
 16 17  1  0  0  0
 17 18  1  0  0  0
 17 19  1  0  0  0
 17 20  1  0  0  0
 14 11  1  0  0  0
 11  7  1  0  0  0
 11 21  1  0  0  0
  7  8  2  0  0  0
 21 22  1  0  0  0
 22 23  2  0  0  0
 22 24  1  0  0  0
 23 25  1  0  0  0
 24 26  2  0  0  0
 25 27  2  0  0  0
 26 27  1  0  0  0
  9  6  1  0  0  0
  6  2  1  0  0  0
  6 28  1  0  0  0
  2  3  2  0  0  0
 28 29  1  0  0  0
 29 30  1  0  0  0
 29 31  2  0  0  0
 30 32  2  0  0  0
 31 33  1  0  0  0
 32 33  1  0  0  0
  4  1  1  0  0  0
  1 74  1  0  0  0
  1 36  1  0  0  0
 74 75  1  0  0  0
 75 76  1  0  0  0
 75 77  1  0  0  0
 76 78  1  0  0  0
 77 79  1  0  0  0
 78 80  1  0  0  0
 79 80  1  0  0  0
 36 37  1  0  0  0
 36 39  1  0  0  0
 39 40  1  0  0  0
 40 45  1  0  0  0
 40 41  1  0  0  0
 45 46  1  0  0  0
 46 47  1  0  0  0
 46 48  1  0  0  0
 41 42  2  0  0  0
 43 49  1  0  0  0
 49 50  1  0  0  0
 49 66  1  0  0  0
 50 51  2  0  0  0
 66 67  1  0  0  0
 67 68  1  0  0  0
 68 69  1  0  0  0
 69 70  1  0  0  0
 52 54  1  0  0  0
 54 55  1  0  0  0
 54 59  1  0  0  0
 55 56  2  0  0  0
 55 57  1  0  0  0
 59 60  1  0  0  0
 60 61  2  0  0  0
 60 62  1  0  0  0
 61 63  1  0  0  0
 62 64  2  0  0  0
 63 65  2  0  0  0
 64 65  1  0  0  0
 13 14  1  0  0  0
  7  9  1  0  0  0
  2  4  1  0  0  0
 41 43  1  0  0  0
 50 52  1  0  0  0
 14 15  1  0  0  0
  9 10  1  0  0  0
 30 34  1  0  0  0
 33 35  1  0  0  0
  4  5  1  0  0  0
 37 38  1  0  0  0
 43 44  1  0  0  0
 70 71  1  0  0  0
 70 72  1  0  0  0
 70 73  1  0  0  0
 52 53  1  0  0  0
 57 58  1  0  0  0
M  CHG 1  30   1
M  CHG 1  70   1
M  END
> <minimizedAffinity>
-9.54224

$$$$
5ER2_0EK_E_327


 80 83  0  0  0  0  0  0  0  0999 V2000
    4.7537   33.4605   14.8469 C   0  0  0  0  0  0  0  0  0  0  0  0
    2.9686   32.4205   16.0894 C   0  0  0  0  0  0  0  0  0  0  0  0
    2.7225   33.4607   16.6963 O   0  0  0  0  0  0  0  0  0  0  0  0
    3.8458   32.3334   15.1157 N   0  0  0  0  0  0  0  0  0  0  0  0
    3.8960   31.5171   14.5676 H   0  0  0  0  0  0  0  0  0  0  0  0
    2.2769   31.1086   16.4278 C   0  0  0  0  0  0  0  0  0  0  0  0
    3.5174   29.2419   17.3879 C   0  0  0  0  0  0  0  0  0  0  0  0
    3.4450   28.5913   16.3507 O   0  0  0  0  0  0  0  0  0  0  0  0
    3.0166   30.4604   17.5634 N   0  0  0  0  0  0  0  0  0  0  0  0
    3.1284   30.9296   18.4217 H   0  0  0  0  0  0  0  0  0  0  0  0
    4.2748   28.7002   18.5912 C   0  0  0  0  0  0  0  0  0  0  0  0
    3.7593   27.2106   20.9507 O   0  0  0  0  0  0  0  0  0  0  0  0
    3.8268   26.6408   19.8663 C   0  0  0  0  0  0  0  0  0  0  0  0
    4.0659   27.2540   18.7224 N   0  0  0  0  0  0  0  0  0  0  0  0
    4.1067   26.7063   17.9053 H   0  0  0  0  0  0  0  0  0  0  0  0
    3.6635   25.2388   19.6929 O   0  0  0  0  0  0  0  0  0  0  0  0
    2.3704   24.7207   19.9872 C   0  0  0  0  0  0  0  0  0  0  0  0
    1.2814   25.6813   19.4998 C   0  0  0  0  0  0  0  0  0  0  0  0
    2.2791   24.6129   21.5174 C   0  0  0  0  0  0  0  0  0  0  0  0
    2.1698   23.3402   19.3621 C   0  0  0  0  0  0  0  0  0  0  0  0
    5.7660   29.0065   18.4231 C   0  0  0  0  0  0  0  0  0  0  0  0
    6.3359   29.5507   19.7342 C   0  0  0  0  0  0  0  0  0  0  0  0
    7.5836   29.1209   20.1691 C   0  0  0  0  0  0  0  0  0  0  0  0
    5.5951   30.4668   20.4701 C   0  0  0  0  0  0  0  0  0  0  0  0
    8.1029   29.6132   21.3614 C   0  0  0  0  0  0  0  0  0  0  0  0
    6.1208   30.9539   21.6611 C   0  0  0  0  0  0  0  0  0  0  0  0
    7.3684   30.5309   22.1039 C   0  0  0  0  0  0  0  0  0  0  0  0
    0.8559   31.4100   16.8582 C   0  0  0  0  0  0  0  0  0  0  0  0
    0.2159   30.1331   17.3909 C   0  0  0  0  0  0  0  0  0  0  0  0
   -0.1840   29.9441   18.7118 N   0  0  0  0  0  0  0  0  0  0  0  0
   -0.0592   28.9504   16.6801 C   0  0  0  0  0  0  0  0  0  0  0  0
   -0.7150   28.6597   18.8134 C   0  0  0  0  0  0  0  0  0  0  0  0
   -0.6288   28.0320   17.5631 N   0  0  0  0  0  0  0  0  0  0  0  0
   -0.1055   30.5998   19.4420 H   0  0  0  0  0  0  0  0  0  0  0  0
   -0.9161   27.1152   17.3482 H   0  0  0  0  0  0  0  0  0  0  0  0
    4.4107   34.0830   13.4874 C   0  0  0  0  0  0  0  0  0  0  0  0
    5.0984   33.3679   12.4541 O   0  0  0  0  0  0  0  0  0  0  0  0
    4.8105   32.4417   12.4552 H   0  0  0  0  0  0  0  0  0  0  0  0
    2.9082   34.0446   13.2232 C   0  0  0  0  0  0  0  0  0  0  0  0
    2.5950   34.9638   12.1195 N   0  0  0  0  0  0  0  0  0  0  0  0
    2.4252   36.2491   12.3759 C   0  0  0  0  0  0  0  0  0  0  0  0
    2.5030   36.6472   13.5410 O   0  0  0  0  0  0  0  0  0  0  0  0
    2.3152   37.1104   11.3776 N   0  0  0  0  0  0  0  0  0  0  0  0
    2.4874   36.8274   10.4505 H   0  0  0  0  0  0  0  0  0  0  0  0
    2.3852   34.4286   10.7659 C   0  0  0  0  0  0  0  0  0  0  0  0
    0.9642   33.9151   10.5753 C   0  0  0  0  0  0  0  0  0  0  0  0
    0.3059   34.5248    9.3510 C   0  0  0  0  0  0  0  0  0  0  0  0
    0.8842   32.4010   10.5928 C   0  0  0  0  0  0  0  0  0  0  0  0
    1.9304   38.5003   11.6780 C   0  0  0  0  0  0  0  0  0  0  0  0
    0.4230   38.6577   11.6315 C   0  0  0  0  0  0  0  0  0  0  0  0
   -0.1329   39.3061   10.7458 O   0  0  0  0  0  0  0  0  0  0  0  0
   -0.2886   38.0696   12.5777 N   0  0  0  0  0  0  0  0  0  0  0  0
    0.1481   37.5594   13.2977 H   0  0  0  0  0  0  0  0  0  0  0  0
   -1.7601   38.2012   12.5219 C   0  0  0  0  0  0  0  0  0  0  0  0
   -2.3049   38.4930   13.9122 C   0  0  0  0  0  0  0  0  0  0  0  0
   -3.4900   38.8046   14.0373 O   0  0  0  0  0  0  0  0  0  0  0  0
   -1.4563   38.4193   14.9188 O   0  0  0  0  0  0  0  0  0  0  0  0
   -0.5648   38.1765   14.7632 H   0  0  0  0  0  0  0  0  0  0  0  0
   -2.3806   36.9202   11.9795 C   0  0  0  0  0  0  0  0  0  0  0  0
   -2.3144   35.6891   12.8792 C   0  0  0  0  0  0  0  0  0  0  0  0
   -1.2446   34.8049   12.7429 C   0  0  0  0  0  0  0  0  0  0  0  0
   -3.2768   35.3932   13.8401 C   0  0  0  0  0  0  0  0  0  0  0  0
   -1.1390   33.6705   13.5381 C   0  0  0  0  0  0  0  0  0  0  0  0
   -3.1850   34.2599   14.6437 C   0  0  0  0  0  0  0  0  0  0  0  0
   -2.1087   33.3889   14.4948 C   0  0  0  0  0  0  0  0  0  0  0  0
    2.5899   39.4455   10.6881 C   0  0  0  0  0  0  0  0  0  0  0  0
    3.9393   39.8980   11.2187 C   0  0  0  0  0  0  0  0  0  0  0  0
    4.0401   41.4144   11.2031 C   0  0  0  0  0  0  0  0  0  0  0  0
    5.4205   41.8382   11.6832 C   0  0  0  0  0  0  0  0  0  0  0  0
    6.4469   41.1354   10.8979 N   0  0  0  0  0  0  0  0  0  0  0  0
    6.3373   40.1285   11.0189 H   0  0  0  0  0  0  0  0  0  0  0  0
    7.3730   41.4176   11.2189 H   0  0  0  0  0  0  0  0  0  0  0  0
    6.3420   41.3727    9.9115 H   0  0  0  0  0  0  0  0  0  0  0  0
    6.2075   32.9949   14.8983 C   0  0  0  0  0  0  0  0  0  0  0  0
    6.6645   32.6410   16.3103 C   0  0  0  0  0  0  0  0  0  0  0  0
    6.4977   33.7838   17.3142 C   0  0  0  0  0  0  0  0  0  0  0  0
    8.1055   32.1242   16.3298 C   0  0  0  0  0  0  0  0  0  0  0  0
    6.8425   33.2856   18.7236 C   0  0  0  0  0  0  0  0  0  0  0  0
    8.4913   31.6366   17.7270 C   0  0  0  0  0  0  0  0  0  0  0  0
    8.2617   32.7173   18.7847 C   0  0  0  0  0  0  0  0  0  0  0  0
 12 13  2  0  0  0
 13 16  1  0  0  0
 16 17  1  0  0  0
 17 18  1  0  0  0
 17 19  1  0  0  0
 17 20  1  0  0  0
 14 11  1  0  0  0
 11  7  1  0  0  0
 11 21  1  0  0  0
  7  8  2  0  0  0
 21 22  1  0  0  0
 22 23  2  0  0  0
 22 24  1  0  0  0
 23 25  1  0  0  0
 24 26  2  0  0  0
 25 27  2  0  0  0
 26 27  1  0  0  0
  9  6  1  0  0  0
  6  2  1  0  0  0
  6 28  1  0  0  0
  2  3  2  0  0  0
 28 29  1  0  0  0
 29 30  1  0  0  0
 29 31  2  0  0  0
 30 32  2  0  0  0
 31 33  1  0  0  0
 32 33  1  0  0  0
  4  1  1  0  0  0
  1 74  1  0  0  0
  1 36  1  0  0  0
 74 75  1  0  0  0
 75 76  1  0  0  0
 75 77  1  0  0  0
 76 78  1  0  0  0
 77 79  1  0  0  0
 78 80  1  0  0  0
 79 80  1  0  0  0
 36 37  1  0  0  0
 36 39  1  0  0  0
 39 40  1  0  0  0
 40 45  1  0  0  0
 40 41  1  0  0  0
 45 46  1  0  0  0
 46 47  1  0  0  0
 46 48  1  0  0  0
 41 42  2  0  0  0
 43 49  1  0  0  0
 49 50  1  0  0  0
 49 66  1  0  0  0
 50 51  2  0  0  0
 66 67  1  0  0  0
 67 68  1  0  0  0
 68 69  1  0  0  0
 69 70  1  0  0  0
 52 54  1  0  0  0
 54 55  1  0  0  0
 54 59  1  0  0  0
 55 56  2  0  0  0
 55 57  1  0  0  0
 59 60  1  0  0  0
 60 61  2  0  0  0
 60 62  1  0  0  0
 61 63  1  0  0  0
 62 64  2  0  0  0
 63 65  2  0  0  0
 64 65  1  0  0  0
 13 14  1  0  0  0
  7  9  1  0  0  0
  2  4  1  0  0  0
 41 43  1  0  0  0
 50 52  1  0  0  0
 14 15  1  0  0  0
  9 10  1  0  0  0
 30 34  1  0  0  0
 33 35  1  0  0  0
  4  5  1  0  0  0
 37 38  1  0  0  0
 43 44  1  0  0  0
 70 71  1  0  0  0
 70 72  1  0  0  0
 70 73  1  0  0  0
 52 53  1  0  0  0
 57 58  1  0  0  0
M  CHG 1  30   1
M  CHG 1  70   1
M  END
> <minimizedAffinity>
-9.48495

$$$$
5ER2_0EK_E_327


 80 83  0  0  0  0  0  0  0  0999 V2000
    4.4782   27.8188   19.4094 C   0  0  0  0  0  0  0  0  0  0  0  0
    3.2890   28.6472   17.4829 C   0  0  0  0  0  0  0  0  0  0  0  0
    3.7014   27.7301   16.7759 O   0  0  0  0  0  0  0  0  0  0  0  0
    3.5135   28.7313   18.7742 N   0  0  0  0  0  0  0  0  0  0  0  0
    3.0381   29.4022   19.3156 H   0  0  0  0  0  0  0  0  0  0  0  0
    2.4778   29.8007   16.9123 C   0  0  0  0  0  0  0  0  0  0  0  0
    3.6750   31.7300   16.0238 C   0  0  0  0  0  0  0  0  0  0  0  0
    3.4347   32.4044   17.0196 O   0  0  0  0  0  0  0  0  0  0  0  0
    3.2916   30.4705   15.8419 N   0  0  0  0  0  0  0  0  0  0  0  0
    3.5366   29.9855   15.0209 H   0  0  0  0  0  0  0  0  0  0  0  0
    4.5222   32.2930   14.8924 C   0  0  0  0  0  0  0  0  0  0  0  0
    2.1129   33.7832   14.7297 O   0  0  0  0  0  0  0  0  0  0  0  0
    2.5832   33.2629   13.7230 C   0  0  0  0  0  0  0  0  0  0  0  0
    3.6945   32.5511   13.7089 N   0  0  0  0  0  0  0  0  0  0  0  0
    3.9866   32.1692   12.8498 H   0  0  0  0  0  0  0  0  0  0  0  0
    1.9916   33.3489   12.4327 O   0  0  0  0  0  0  0  0  0  0  0  0
    1.8979   34.6559   11.8759 C   0  0  0  0  0  0  0  0  0  0  0  0
    0.5154   35.2582   12.1446 C   0  0  0  0  0  0  0  0  0  0  0  0
    2.0772   34.4996   10.3577 C   0  0  0  0  0  0  0  0  0  0  0  0
    2.9866   35.5749   12.4299 C   0  0  0  0  0  0  0  0  0  0  0  0
    5.1899   33.5882   15.3640 C   0  0  0  0  0  0  0  0  0  0  0  0
    6.4563   33.2613   16.1572 C   0  0  0  0  0  0  0  0  0  0  0  0
    7.4122   32.4181   15.6039 C   0  0  0  0  0  0  0  0  0  0  0  0
    6.6301   33.8132   17.4200 C   0  0  0  0  0  0  0  0  0  0  0  0
    8.5635   32.1184   16.3238 C   0  0  0  0  0  0  0  0  0  0  0  0
    7.7834   33.5084   18.1335 C   0  0  0  0  0  0  0  0  0  0  0  0
    8.7457   32.6670   17.5882 C   0  0  0  0  0  0  0  0  0  0  0  0
    1.2072   29.2421   16.3046 C   0  0  0  0  0  0  0  0  0  0  0  0
    0.4195   30.3798   15.6652 C   0  0  0  0  0  0  0  0  0  0  0  0
    0.0487   30.4244   14.3232 N   0  0  0  0  0  0  0  0  0  0  0  0
   -0.0420   31.5568   16.2829 C   0  0  0  0  0  0  0  0  0  0  0  0
   -0.6488   31.6130   14.1164 C   0  0  0  0  0  0  0  0  0  0  0  0
   -0.6975   32.3271   15.3214 N   0  0  0  0  0  0  0  0  0  0  0  0
    0.2441   29.7396   13.6434 H   0  0  0  0  0  0  0  0  0  0  0  0
   -1.1156   33.2071   15.4630 H   0  0  0  0  0  0  0  0  0  0  0  0
    3.8195   26.4520   19.6362 C   0  0  0  0  0  0  0  0  0  0  0  0
    4.7788   25.5550   20.2082 O   0  0  0  0  0  0  0  0  0  0  0  0
    5.0778   25.9034   21.0626 H   0  0  0  0  0  0  0  0  0  0  0  0
    2.6106   26.5656   20.5606 C   0  0  0  0  0  0  0  0  0  0  0  0
    1.3869   26.3616   19.7718 N   0  0  0  0  0  0  0  0  0  0  0  0
    0.3988   27.2333   19.8727 C   0  0  0  0  0  0  0  0  0  0  0  0
    0.5109   28.1849   20.6499 O   0  0  0  0  0  0  0  0  0  0  0  0
   -0.6313   27.1591   19.0458 N   0  0  0  0  0  0  0  0  0  0  0  0
   -0.6120   26.5468   18.2751 H   0  0  0  0  0  0  0  0  0  0  0  0
    1.2433   25.1469   18.9552 C   0  0  0  0  0  0  0  0  0  0  0  0
    1.1397   23.8957   19.8170 C   0  0  0  0  0  0  0  0  0  0  0  0
   -0.3046   23.5391   20.1187 C   0  0  0  0  0  0  0  0  0  0  0  0
    1.9265   22.7302   19.2497 C   0  0  0  0  0  0  0  0  0  0  0  0
   -1.8078   28.0088   19.2988 C   0  0  0  0  0  0  0  0  0  0  0  0
   -3.0132   27.1588   19.6507 C   0  0  0  0  0  0  0  0  0  0  0  0
   -3.2985   26.8920   20.8175 O   0  0  0  0  0  0  0  0  0  0  0  0
   -3.7619   26.7085   18.6586 N   0  0  0  0  0  0  0  0  0  0  0  0
   -3.5343   26.9061   17.7213 H   0  0  0  0  0  0  0  0  0  0  0  0
   -4.9513   25.8992   18.9993 C   0  0  0  0  0  0  0  0  0  0  0  0
   -4.8240   24.5121   18.3874 C   0  0  0  0  0  0  0  0  0  0  0  0
   -3.7044   24.0829   18.1055 O   0  0  0  0  0  0  0  0  0  0  0  0
   -5.9410   23.8470   18.1662 O   0  0  0  0  0  0  0  0  0  0  0  0
   -6.7655   24.2245   18.4020 H   0  0  0  0  0  0  0  0  0  0  0  0
   -6.2131   26.5799   18.4846 C   0  0  0  0  0  0  0  0  0  0  0  0
   -6.2519   28.1038   18.5591 C   0  0  0  0  0  0  0  0  0  0  0  0
   -6.3922   28.7197   19.8023 C   0  0  0  0  0  0  0  0  0  0  0  0
   -6.1568   28.9254   17.4397 C   0  0  0  0  0  0  0  0  0  0  0  0
   -6.4327   30.1033   19.9227 C   0  0  0  0  0  0  0  0  0  0  0  0
   -6.1967   30.3132   17.5445 C   0  0  0  0  0  0  0  0  0  0  0  0
   -6.3354   30.9111   18.7945 C   0  0  0  0  0  0  0  0  0  0  0  0
   -2.1028   28.8618   18.0767 C   0  0  0  0  0  0  0  0  0  0  0  0
   -2.3628   30.2989   18.4941 C   0  0  0  0  0  0  0  0  0  0  0  0
   -2.6774   30.3772   19.9788 C   0  0  0  0  0  0  0  0  0  0  0  0
   -2.7190   31.8345   20.4146 C   0  0  0  0  0  0  0  0  0  0  0  0
   -3.6988   31.9910   21.5007 N   0  0  0  0  0  0  0  0  0  0  0  0
   -4.6209   31.7068   21.1703 H   0  0  0  0  0  0  0  0  0  0  0  0
   -3.7286   32.9676   21.7936 H   0  0  0  0  0  0  0  0  0  0  0  0
   -3.4261   31.4071   22.2913 H   0  0  0  0  0  0  0  0  0  0  0  0
    4.9919   28.4163   20.7177 C   0  0  0  0  0  0  0  0  0  0  0  0
    6.0639   29.4800   20.5002 C   0  0  0  0  0  0  0  0  0  0  0  0
    7.4742   28.9072   20.3432 C   0  0  0  0  0  0  0  0  0  0  0  0
    6.0430   30.5432   21.6016 C   0  0  0  0  0  0  0  0  0  0  0  0
    8.4507   30.0344   19.9834 C   0  0  0  0  0  0  0  0  0  0  0  0
    7.0214   31.6753   21.2855 C   0  0  0  0  0  0  0  0  0  0  0  0
    8.4342   31.1459   21.0346 C   0  0  0  0  0  0  0  0  0  0  0  0
 12 13  2  0  0  0
 13 16  1  0  0  0
 16 17  1  0  0  0
 17 18  1  0  0  0
 17 19  1  0  0  0
 17 20  1  0  0  0
 14 11  1  0  0  0
 11  7  1  0  0  0
 11 21  1  0  0  0
  7  8  2  0  0  0
 21 22  1  0  0  0
 22 23  2  0  0  0
 22 24  1  0  0  0
 23 25  1  0  0  0
 24 26  2  0  0  0
 25 27  2  0  0  0
 26 27  1  0  0  0
  9  6  1  0  0  0
  6  2  1  0  0  0
  6 28  1  0  0  0
  2  3  2  0  0  0
 28 29  1  0  0  0
 29 30  1  0  0  0
 29 31  2  0  0  0
 30 32  2  0  0  0
 31 33  1  0  0  0
 32 33  1  0  0  0
  4  1  1  0  0  0
  1 74  1  0  0  0
  1 36  1  0  0  0
 74 75  1  0  0  0
 75 76  1  0  0  0
 75 77  1  0  0  0
 76 78  1  0  0  0
 77 79  1  0  0  0
 78 80  1  0  0  0
 79 80  1  0  0  0
 36 37  1  0  0  0
 36 39  1  0  0  0
 39 40  1  0  0  0
 40 45  1  0  0  0
 40 41  1  0  0  0
 45 46  1  0  0  0
 46 47  1  0  0  0
 46 48  1  0  0  0
 41 42  2  0  0  0
 43 49  1  0  0  0
 49 50  1  0  0  0
 49 66  1  0  0  0
 50 51  2  0  0  0
 66 67  1  0  0  0
 67 68  1  0  0  0
 68 69  1  0  0  0
 69 70  1  0  0  0
 52 54  1  0  0  0
 54 55  1  0  0  0
 54 59  1  0  0  0
 55 56  2  0  0  0
 55 57  1  0  0  0
 59 60  1  0  0  0
 60 61  2  0  0  0
 60 62  1  0  0  0
 61 63  1  0  0  0
 62 64  2  0  0  0
 63 65  2  0  0  0
 64 65  1  0  0  0
 13 14  1  0  0  0
  7  9  1  0  0  0
  2  4  1  0  0  0
 41 43  1  0  0  0
 50 52  1  0  0  0
 14 15  1  0  0  0
  9 10  1  0  0  0
 30 34  1  0  0  0
 33 35  1  0  0  0
  4  5  1  0  0  0
 37 38  1  0  0  0
 43 44  1  0  0  0
 70 71  1  0  0  0
 70 72  1  0  0  0
 70 73  1  0  0  0
 52 53  1  0  0  0
 57 58  1  0  0  0
M  CHG 1  30   1
M  CHG 1  70   1
M  END
> <minimizedAffinity>
-9.45417

$$$$
5ER2_0EK_E_327


 80 83  0  0  0  0  0  0  0  0999 V2000
    3.4950   28.9910   18.3192 C   0  0  0  0  0  0  0  0  0  0  0  0
    3.3201   27.7969   20.4062 C   0  0  0  0  0  0  0  0  0  0  0  0
    2.5040   28.6010   20.8514 O   0  0  0  0  0  0  0  0  0  0  0  0
    3.7805   27.8289   19.1765 N   0  0  0  0  0  0  0  0  0  0  0  0
    4.3147   27.0783   18.8293 H   0  0  0  0  0  0  0  0  0  0  0  0
    3.8954   26.6775   21.2609 C   0  0  0  0  0  0  0  0  0  0  0  0
    2.3495   25.0220   20.3584 C   0  0  0  0  0  0  0  0  0  0  0  0
    2.7046   25.2414   19.2051 O   0  0  0  0  0  0  0  0  0  0  0  0
    2.8395   25.6237   21.4374 N   0  0  0  0  0  0  0  0  0  0  0  0
    2.5164   25.3832   22.3358 H   0  0  0  0  0  0  0  0  0  0  0  0
    1.3131   23.9496   20.6595 C   0  0  0  0  0  0  0  0  0  0  0  0
   -0.3570   26.2304   20.9060 O   0  0  0  0  0  0  0  0  0  0  0  0
   -0.6573   25.3296   20.1291 C   0  0  0  0  0  0  0  0  0  0  0  0
    0.0582   24.2344   19.9548 N   0  0  0  0  0  0  0  0  0  0  0  0
   -0.2710   23.5661   19.3111 H   0  0  0  0  0  0  0  0  0  0  0  0
   -1.8222   25.3378   19.3136 O   0  0  0  0  0  0  0  0  0  0  0  0
   -3.0626   25.1910   19.9971 C   0  0  0  0  0  0  0  0  0  0  0  0
   -2.9025   24.2730   21.2128 C   0  0  0  0  0  0  0  0  0  0  0  0
   -4.0330   24.5278   19.0072 C   0  0  0  0  0  0  0  0  0  0  0  0
   -3.6200   26.5460   20.4334 C   0  0  0  0  0  0  0  0  0  0  0  0
    1.8640   22.5867   20.2297 C   0  0  0  0  0  0  0  0  0  0  0  0
    1.8050   21.6084   21.4041 C   0  0  0  0  0  0  0  0  0  0  0  0
    2.8399   21.5884   22.3312 C   0  0  0  0  0  0  0  0  0  0  0  0
    0.7163   20.7541   21.5244 C   0  0  0  0  0  0  0  0  0  0  0  0
    2.7890   20.6988   23.3988 C   0  0  0  0  0  0  0  0  0  0  0  0
    0.6731   19.8675   22.5940 C   0  0  0  0  0  0  0  0  0  0  0  0
    1.7027   19.8407   23.5271 C   0  0  0  0  0  0  0  0  0  0  0  0
    5.0863   26.0824   20.5376 C   0  0  0  0  0  0  0  0  0  0  0  0
    6.3590   26.4404   21.2964 C   0  0  0  0  0  0  0  0  0  0  0  0
    6.4502   26.5302   22.6835 N   0  0  0  0  0  0  0  0  0  0  0  0
    7.6201   26.7534   20.7567 C   0  0  0  0  0  0  0  0  0  0  0  0
    7.7612   26.8822   22.9992 C   0  0  0  0  0  0  0  0  0  0  0  0
    8.4891   27.0363   21.8115 N   0  0  0  0  0  0  0  0  0  0  0  0
    5.7202   26.3733   23.3252 H   0  0  0  0  0  0  0  0  0  0  0  0
    9.4358   27.2956   21.7355 H   0  0  0  0  0  0  0  0  0  0  0  0
    2.5234   28.5807   17.2052 C   0  0  0  0  0  0  0  0  0  0  0  0
    2.8848   27.2829   16.7182 O   0  0  0  0  0  0  0  0  0  0  0  0
    2.8229   26.6379   17.4400 H   0  0  0  0  0  0  0  0  0  0  0  0
    1.0826   28.5556   17.7075 C   0  0  0  0  0  0  0  0  0  0  0  0
    0.4041   29.7840   17.2695 N   0  0  0  0  0  0  0  0  0  0  0  0
    0.7387   30.3316   16.1141 C   0  0  0  0  0  0  0  0  0  0  0  0
    1.6352   29.8178   15.4402 O   0  0  0  0  0  0  0  0  0  0  0  0
    0.0221   31.3320   15.6280 N   0  0  0  0  0  0  0  0  0  0  0  0
   -0.8303   31.5884   16.0486 H   0  0  0  0  0  0  0  0  0  0  0  0
   -0.5677   30.4344   18.1613 C   0  0  0  0  0  0  0  0  0  0  0  0
   -1.5362   29.4294   18.7705 C   0  0  0  0  0  0  0  0  0  0  0  0
   -2.0589   29.8976   20.1165 C   0  0  0  0  0  0  0  0  0  0  0  0
   -2.6452   29.0351   17.8145 C   0  0  0  0  0  0  0  0  0  0  0  0
    0.5225   32.0554   14.4462 C   0  0  0  0  0  0  0  0  0  0  0  0
    1.7774   32.8340   14.7901 C   0  0  0  0  0  0  0  0  0  0  0  0
    1.9085   33.4050   15.8721 O   0  0  0  0  0  0  0  0  0  0  0  0
    2.7415   32.8813   13.8868 N   0  0  0  0  0  0  0  0  0  0  0  0
    2.6405   32.4384   13.0134 H   0  0  0  0  0  0  0  0  0  0  0  0
    3.9761   33.6198   14.2282 C   0  0  0  0  0  0  0  0  0  0  0  0
    4.4781   34.3771   13.0079 C   0  0  0  0  0  0  0  0  0  0  0  0
    4.2166   35.5757   12.8981 O   0  0  0  0  0  0  0  0  0  0  0  0
    5.1549   33.6893   12.1091 O   0  0  0  0  0  0  0  0  0  0  0  0
    5.3242   32.7780   12.2466 H   0  0  0  0  0  0  0  0  0  0  0  0
    5.0471   32.6527   14.7160 C   0  0  0  0  0  0  0  0  0  0  0  0
    5.7710   33.0223   16.0078 C   0  0  0  0  0  0  0  0  0  0  0  0
    7.1558   33.1855   15.9874 C   0  0  0  0  0  0  0  0  0  0  0  0
    5.1181   33.2056   17.2231 C   0  0  0  0  0  0  0  0  0  0  0  0
    7.8607   33.5218   17.1366 C   0  0  0  0  0  0  0  0  0  0  0  0
    5.8108   33.5419   18.3831 C   0  0  0  0  0  0  0  0  0  0  0  0
    7.1936   33.7026   18.3438 C   0  0  0  0  0  0  0  0  0  0  0  0
   -0.5514   32.9920   13.9195 C   0  0  0  0  0  0  0  0  0  0  0  0
   -0.6871   32.8363   12.4147 C   0  0  0  0  0  0  0  0  0  0  0  0
   -0.1874   34.0809   11.7000 C   0  0  0  0  0  0  0  0  0  0  0  0
    1.1244   33.7708   10.9939 C   0  0  0  0  0  0  0  0  0  0  0  0
    1.1237   32.3655   10.5589 N   0  0  0  0  0  0  0  0  0  0  0  0
    1.0214   31.7580   11.3719 H   0  0  0  0  0  0  0  0  0  0  0  0
    2.0027   32.1555   10.0860 H   0  0  0  0  0  0  0  0  0  0  0  0
    0.3465   32.2086    9.9172 H   0  0  0  0  0  0  0  0  0  0  0  0
    4.7921   29.5610   17.7486 C   0  0  0  0  0  0  0  0  0  0  0  0
    5.9194   29.6059   18.7757 C   0  0  0  0  0  0  0  0  0  0  0  0
    5.6308   30.5253   19.9644 C   0  0  0  0  0  0  0  0  0  0  0  0
    7.2600   29.9736   18.1342 C   0  0  0  0  0  0  0  0  0  0  0  0
    6.7495   30.3882   21.0050 C   0  0  0  0  0  0  0  0  0  0  0  0
    8.3983   29.8671   19.1500 C   0  0  0  0  0  0  0  0  0  0  0  0
    8.1188   30.7035   20.3996 C   0  0  0  0  0  0  0  0  0  0  0  0
 12 13  2  0  0  0
 13 16  1  0  0  0
 16 17  1  0  0  0
 17 18  1  0  0  0
 17 19  1  0  0  0
 17 20  1  0  0  0
 14 11  1  0  0  0
 11  7  1  0  0  0
 11 21  1  0  0  0
  7  8  2  0  0  0
 21 22  1  0  0  0
 22 23  2  0  0  0
 22 24  1  0  0  0
 23 25  1  0  0  0
 24 26  2  0  0  0
 25 27  2  0  0  0
 26 27  1  0  0  0
  9  6  1  0  0  0
  6  2  1  0  0  0
  6 28  1  0  0  0
  2  3  2  0  0  0
 28 29  1  0  0  0
 29 30  1  0  0  0
 29 31  2  0  0  0
 30 32  2  0  0  0
 31 33  1  0  0  0
 32 33  1  0  0  0
  4  1  1  0  0  0
  1 74  1  0  0  0
  1 36  1  0  0  0
 74 75  1  0  0  0
 75 76  1  0  0  0
 75 77  1  0  0  0
 76 78  1  0  0  0
 77 79  1  0  0  0
 78 80  1  0  0  0
 79 80  1  0  0  0
 36 37  1  0  0  0
 36 39  1  0  0  0
 39 40  1  0  0  0
 40 45  1  0  0  0
 40 41  1  0  0  0
 45 46  1  0  0  0
 46 47  1  0  0  0
 46 48  1  0  0  0
 41 42  2  0  0  0
 43 49  1  0  0  0
 49 50  1  0  0  0
 49 66  1  0  0  0
 50 51  2  0  0  0
 66 67  1  0  0  0
 67 68  1  0  0  0
 68 69  1  0  0  0
 69 70  1  0  0  0
 52 54  1  0  0  0
 54 55  1  0  0  0
 54 59  1  0  0  0
 55 56  2  0  0  0
 55 57  1  0  0  0
 59 60  1  0  0  0
 60 61  2  0  0  0
 60 62  1  0  0  0
 61 63  1  0  0  0
 62 64  2  0  0  0
 63 65  2  0  0  0
 64 65  1  0  0  0
 13 14  1  0  0  0
  7  9  1  0  0  0
  2  4  1  0  0  0
 41 43  1  0  0  0
 50 52  1  0  0  0
 14 15  1  0  0  0
  9 10  1  0  0  0
 30 34  1  0  0  0
 33 35  1  0  0  0
  4  5  1  0  0  0
 37 38  1  0  0  0
 43 44  1  0  0  0
 70 71  1  0  0  0
 70 72  1  0  0  0
 70 73  1  0  0  0
 52 53  1  0  0  0
 57 58  1  0  0  0
M  CHG 1  30   1
M  CHG 1  70   1
M  END
> <minimizedAffinity>
-9.28905

$$$$
5ER2_0EK_E_327


 80 83  0  0  0  0  0  0  0  0999 V2000
    3.8715   29.8432   17.2046 C   0  0  0  0  0  0  0  0  0  0  0  0
    4.4447   32.0834   16.5228 C   0  0  0  0  0  0  0  0  0  0  0  0
    3.6363   32.5783   17.3054 O   0  0  0  0  0  0  0  0  0  0  0  0
    4.7112   30.7986   16.4638 N   0  0  0  0  0  0  0  0  0  0  0  0
    5.4700   30.4758   15.9260 H   0  0  0  0  0  0  0  0  0  0  0  0
    5.2146   32.9290   15.5196 C   0  0  0  0  0  0  0  0  0  0  0  0
    4.2485   34.0857   13.6029 C   0  0  0  0  0  0  0  0  0  0  0  0
    4.9301   33.4479   12.8073 O   0  0  0  0  0  0  0  0  0  0  0  0
    4.2718   33.9350   14.9232 N   0  0  0  0  0  0  0  0  0  0  0  0
    3.6821   34.4728   15.4996 H   0  0  0  0  0  0  0  0  0  0  0  0
    3.2324   35.1052   13.1099 C   0  0  0  0  0  0  0  0  0  0  0  0
    2.5663   37.7480   13.8999 O   0  0  0  0  0  0  0  0  0  0  0  0
    3.5223   37.5510   13.1566 C   0  0  0  0  0  0  0  0  0  0  0  0
    3.8994   36.3577   12.7374 N   0  0  0  0  0  0  0  0  0  0  0  0
    4.6775   36.3047   12.1366 H   0  0  0  0  0  0  0  0  0  0  0  0
    4.3524   38.5825   12.6379 O   0  0  0  0  0  0  0  0  0  0  0  0
    3.7088   39.5402   11.8038 C   0  0  0  0  0  0  0  0  0  0  0  0
    2.4661   38.9330   11.1456 C   0  0  0  0  0  0  0  0  0  0  0  0
    4.7151   39.9094   10.7026 C   0  0  0  0  0  0  0  0  0  0  0  0
    3.3255   40.7936   12.5907 C   0  0  0  0  0  0  0  0  0  0  0  0
    2.4852   34.5248   11.9055 C   0  0  0  0  0  0  0  0  0  0  0  0
    1.0218   34.2738   12.2733 C   0  0  0  0  0  0  0  0  0  0  0  0
    0.1118   35.3222   12.2156 C   0  0  0  0  0  0  0  0  0  0  0  0
    0.6262   32.9997   12.6601 C   0  0  0  0  0  0  0  0  0  0  0  0
   -1.2187   35.0965   12.5509 C   0  0  0  0  0  0  0  0  0  0  0  0
   -0.7054   32.7822   12.9942 C   0  0  0  0  0  0  0  0  0  0  0  0
   -1.6234   33.8241   12.9386 C   0  0  0  0  0  0  0  0  0  0  0  0
    6.3267   33.6520   16.2517 C   0  0  0  0  0  0  0  0  0  0  0  0
    7.1263   32.6407   17.0653 C   0  0  0  0  0  0  0  0  0  0  0  0
    7.0862   32.5387   18.4539 N   0  0  0  0  0  0  0  0  0  0  0  0
    8.0313   31.6765   16.5846 C   0  0  0  0  0  0  0  0  0  0  0  0
    7.9490   31.5100   18.8275 C   0  0  0  0  0  0  0  0  0  0  0  0
    8.5492   30.9798   17.6773 N   0  0  0  0  0  0  0  0  0  0  0  0
    6.5458   33.0933   19.0619 H   0  0  0  0  0  0  0  0  0  0  0  0
    9.2119   30.2524   17.6460 H   0  0  0  0  0  0  0  0  0  0  0  0
    4.7433   28.6982   17.7362 C   0  0  0  0  0  0  0  0  0  0  0  0
    6.0956   28.8967   17.3073 O   0  0  0  0  0  0  0  0  0  0  0  0
    6.4285   29.7348   17.6647 H   0  0  0  0  0  0  0  0  0  0  0  0
    4.6952   28.6261   19.2597 C   0  0  0  0  0  0  0  0  0  0  0  0
    4.6897   27.2143   19.6698 N   0  0  0  0  0  0  0  0  0  0  0  0
    3.5353   26.6027   19.8694 C   0  0  0  0  0  0  0  0  0  0  0  0
    2.4856   27.2373   19.7370 O   0  0  0  0  0  0  0  0  0  0  0  0
    3.5092   25.2949   20.0684 N   0  0  0  0  0  0  0  0  0  0  0  0
    4.3209   24.7525   19.9413 H   0  0  0  0  0  0  0  0  0  0  0  0
    5.9639   26.5316   19.9402 C   0  0  0  0  0  0  0  0  0  0  0  0
    6.8251   27.3117   20.9244 C   0  0  0  0  0  0  0  0  0  0  0  0
    6.3082   27.1856   22.3461 C   0  0  0  0  0  0  0  0  0  0  0  0
    8.2988   26.9758   20.8031 C   0  0  0  0  0  0  0  0  0  0  0  0
    2.2439   24.6649   20.4835 C   0  0  0  0  0  0  0  0  0  0  0  0
    2.3355   24.1800   21.9174 C   0  0  0  0  0  0  0  0  0  0  0  0
    1.8287   24.8078   22.8463 O   0  0  0  0  0  0  0  0  0  0  0  0
    2.9794   23.0485   22.1465 N   0  0  0  0  0  0  0  0  0  0  0  0
    3.3991   22.5459   21.4113 H   0  0  0  0  0  0  0  0  0  0  0  0
    3.0502   22.5607   23.5404 C   0  0  0  0  0  0  0  0  0  0  0  0
    4.4680   22.7161   24.0699 C   0  0  0  0  0  0  0  0  0  0  0  0
    4.8914   23.8444   24.3248 O   0  0  0  0  0  0  0  0  0  0  0  0
    5.1842   21.6170   24.2039 O   0  0  0  0  0  0  0  0  0  0  0  0
    4.8086   20.7845   23.9943 H   0  0  0  0  0  0  0  0  0  0  0  0
    2.6289   21.0984   23.6058 C   0  0  0  0  0  0  0  0  0  0  0  0
    1.1402   20.8190   23.7933 C   0  0  0  0  0  0  0  0  0  0  0  0
    0.2152   21.5173   23.0178 C   0  0  0  0  0  0  0  0  0  0  0  0
    0.6464   19.8954   24.7099 C   0  0  0  0  0  0  0  0  0  0  0  0
   -1.1505   21.2989   23.1509 C   0  0  0  0  0  0  0  0  0  0  0  0
   -0.7192   19.6663   24.8552 C   0  0  0  0  0  0  0  0  0  0  0  0
   -1.6285   20.3716   24.0710 C   0  0  0  0  0  0  0  0  0  0  0  0
    1.9129   23.5081   19.5560 C   0  0  0  0  0  0  0  0  0  0  0  0
    0.4721   23.0723   19.7593 C   0  0  0  0  0  0  0  0  0  0  0  0
   -0.4742   24.2471   19.5749 C   0  0  0  0  0  0  0  0  0  0  0  0
   -1.5895   24.1699   20.6072 C   0  0  0  0  0  0  0  0  0  0  0  0
   -1.1281   24.7688   21.8692 N   0  0  0  0  0  0  0  0  0  0  0  0
   -0.3122   24.2596   22.2089 H   0  0  0  0  0  0  0  0  0  0  0  0
   -1.8742   24.7171   22.5628 H   0  0  0  0  0  0  0  0  0  0  0  0
   -0.8781   25.7449   21.7109 H   0  0  0  0  0  0  0  0  0  0  0  0
    2.7467   29.3222   16.3123 C   0  0  0  0  0  0  0  0  0  0  0  0
    1.3699   29.8110   16.7518 C   0  0  0  0  0  0  0  0  0  0  0  0
    0.3060   28.7114   16.7736 C   0  0  0  0  0  0  0  0  0  0  0  0
    0.8905   30.9960   15.9093 C   0  0  0  0  0  0  0  0  0  0  0  0
   -0.9958   29.2659   17.3663 C   0  0  0  0  0  0  0  0  0  0  0  0
   -0.4185   31.5631   16.4605 C   0  0  0  0  0  0  0  0  0  0  0  0
   -1.4937   30.4823   16.5833 C   0  0  0  0  0  0  0  0  0  0  0  0
 12 13  2  0  0  0
 13 16  1  0  0  0
 16 17  1  0  0  0
 17 18  1  0  0  0
 17 19  1  0  0  0
 17 20  1  0  0  0
 14 11  1  0  0  0
 11  7  1  0  0  0
 11 21  1  0  0  0
  7  8  2  0  0  0
 21 22  1  0  0  0
 22 23  2  0  0  0
 22 24  1  0  0  0
 23 25  1  0  0  0
 24 26  2  0  0  0
 25 27  2  0  0  0
 26 27  1  0  0  0
  9  6  1  0  0  0
  6  2  1  0  0  0
  6 28  1  0  0  0
  2  3  2  0  0  0
 28 29  1  0  0  0
 29 30  1  0  0  0
 29 31  2  0  0  0
 30 32  2  0  0  0
 31 33  1  0  0  0
 32 33  1  0  0  0
  4  1  1  0  0  0
  1 74  1  0  0  0
  1 36  1  0  0  0
 74 75  1  0  0  0
 75 76  1  0  0  0
 75 77  1  0  0  0
 76 78  1  0  0  0
 77 79  1  0  0  0
 78 80  1  0  0  0
 79 80  1  0  0  0
 36 37  1  0  0  0
 36 39  1  0  0  0
 39 40  1  0  0  0
 40 45  1  0  0  0
 40 41  1  0  0  0
 45 46  1  0  0  0
 46 47  1  0  0  0
 46 48  1  0  0  0
 41 42  2  0  0  0
 43 49  1  0  0  0
 49 50  1  0  0  0
 49 66  1  0  0  0
 50 51  2  0  0  0
 66 67  1  0  0  0
 67 68  1  0  0  0
 68 69  1  0  0  0
 69 70  1  0  0  0
 52 54  1  0  0  0
 54 55  1  0  0  0
 54 59  1  0  0  0
 55 56  2  0  0  0
 55 57  1  0  0  0
 59 60  1  0  0  0
 60 61  2  0  0  0
 60 62  1  0  0  0
 61 63  1  0  0  0
 62 64  2  0  0  0
 63 65  2  0  0  0
 64 65  1  0  0  0
 13 14  1  0  0  0
  7  9  1  0  0  0
  2  4  1  0  0  0
 41 43  1  0  0  0
 50 52  1  0  0  0
 14 15  1  0  0  0
  9 10  1  0  0  0
 30 34  1  0  0  0
 33 35  1  0  0  0
  4  5  1  0  0  0
 37 38  1  0  0  0
 43 44  1  0  0  0
 70 71  1  0  0  0
 70 72  1  0  0  0
 70 73  1  0  0  0
 52 53  1  0  0  0
 57 58  1  0  0  0
M  CHG 1  30   1
M  CHG 1  70   1
M  END
> <minimizedAffinity>
-9.25912

$$$$
5ER2_0EK_E_327


 80 83  0  0  0  0  0  0  0  0999 V2000
    5.4423   29.0033   19.1037 C   0  0  0  0  0  0  0  0  0  0  0  0
    4.7607   27.8939   21.1326 C   0  0  0  0  0  0  0  0  0  0  0  0
    3.9544   28.7818   21.4023 O   0  0  0  0  0  0  0  0  0  0  0  0
    5.4479   27.8468   20.0144 N   0  0  0  0  0  0  0  0  0  0  0  0
    5.9650   27.0408   19.7860 H   0  0  0  0  0  0  0  0  0  0  0  0
    5.0540   26.7537   22.0960 C   0  0  0  0  0  0  0  0  0  0  0  0
    3.3090   25.3119   21.1899 C   0  0  0  0  0  0  0  0  0  0  0  0
    3.8005   25.3338   20.0664 O   0  0  0  0  0  0  0  0  0  0  0  0
    3.8060   25.9326   22.2548 N   0  0  0  0  0  0  0  0  0  0  0  0
    3.3646   25.8558   23.1314 H   0  0  0  0  0  0  0  0  0  0  0  0
    2.0655   24.4831   21.4758 C   0  0  0  0  0  0  0  0  0  0  0  0
   -0.4223   24.3893   22.8374 O   0  0  0  0  0  0  0  0  0  0  0  0
   -0.2666   25.1575   21.8936 C   0  0  0  0  0  0  0  0  0  0  0  0
    0.8532   25.2632   21.2032 N   0  0  0  0  0  0  0  0  0  0  0  0
    0.8766   25.9062   20.4581 H   0  0  0  0  0  0  0  0  0  0  0  0
   -1.2741   26.0359   21.4084 O   0  0  0  0  0  0  0  0  0  0  0  0
   -2.3616   25.4206   20.7258 C   0  0  0  0  0  0  0  0  0  0  0  0
   -3.2179   26.4741   20.0164 C   0  0  0  0  0  0  0  0  0  0  0  0
   -3.2204   24.7333   21.7989 C   0  0  0  0  0  0  0  0  0  0  0  0
   -1.8686   24.3813   19.7190 C   0  0  0  0  0  0  0  0  0  0  0  0
    2.0919   23.2241   20.6040 C   0  0  0  0  0  0  0  0  0  0  0  0
    1.9782   21.9790   21.4853 C   0  0  0  0  0  0  0  0  0  0  0  0
    0.9284   21.0913   21.2840 C   0  0  0  0  0  0  0  0  0  0  0  0
    2.9276   21.7563   22.4745 C   0  0  0  0  0  0  0  0  0  0  0  0
    0.8222   19.9596   22.0850 C   0  0  0  0  0  0  0  0  0  0  0  0
    2.8143   20.6230   23.2713 C   0  0  0  0  0  0  0  0  0  0  0  0
    1.7685   19.7285   23.0771 C   0  0  0  0  0  0  0  0  0  0  0  0
    6.1520   25.8935   21.5045 C   0  0  0  0  0  0  0  0  0  0  0  0
    7.2570   25.7160   22.5395 C   0  0  0  0  0  0  0  0  0  0  0  0
    7.3915   24.6021   23.3651 N   0  0  0  0  0  0  0  0  0  0  0  0
    8.2911   26.6170   22.8535 C   0  0  0  0  0  0  0  0  0  0  0  0
    8.5083   24.8069   24.1732 C   0  0  0  0  0  0  0  0  0  0  0  0
    9.0633   26.0584   23.8729 N   0  0  0  0  0  0  0  0  0  0  0  0
    6.8036   23.8125   23.3759 H   0  0  0  0  0  0  0  0  0  0  0  0
    9.8502   26.4668   24.3009 H   0  0  0  0  0  0  0  0  0  0  0  0
    4.6732   28.6463   17.8252 C   0  0  0  0  0  0  0  0  0  0  0  0
    5.4088   27.6596   17.0922 O   0  0  0  0  0  0  0  0  0  0  0  0
    5.5046   26.8599   17.6328 H   0  0  0  0  0  0  0  0  0  0  0  0
    3.2805   28.1117   18.1469 C   0  0  0  0  0  0  0  0  0  0  0  0
    2.3037   29.1980   17.9825 N   0  0  0  0  0  0  0  0  0  0  0  0
    2.2048   29.8083   16.8144 C   0  0  0  0  0  0  0  0  0  0  0  0
    2.9555   29.4746   15.8940 O   0  0  0  0  0  0  0  0  0  0  0  0
    1.2186   30.6639   16.6004 N   0  0  0  0  0  0  0  0  0  0  0  0
    0.4845   30.7550   17.2501 H   0  0  0  0  0  0  0  0  0  0  0  0
    1.5183   29.6500   19.1407 C   0  0  0  0  0  0  0  0  0  0  0  0
    0.6462   28.5349   19.7020 C   0  0  0  0  0  0  0  0  0  0  0  0
    0.0353   28.9176   21.0378 C   0  0  0  0  0  0  0  0  0  0  0  0
   -0.3840   28.0423   18.7043 C   0  0  0  0  0  0  0  0  0  0  0  0
    1.2384   31.4778   15.3726 C   0  0  0  0  0  0  0  0  0  0  0  0
    2.3096   32.5475   15.4598 C   0  0  0  0  0  0  0  0  0  0  0  0
    2.2493   33.4578   16.2854 O   0  0  0  0  0  0  0  0  0  0  0  0
    3.3254   32.4741   14.6170 N   0  0  0  0  0  0  0  0  0  0  0  0
    3.3757   31.7568   13.9446 H   0  0  0  0  0  0  0  0  0  0  0  0
    4.3836   33.5020   14.7150 C   0  0  0  0  0  0  0  0  0  0  0  0
    4.1521   34.5819   13.6688 C   0  0  0  0  0  0  0  0  0  0  0  0
    4.8581   34.5986   12.6595 O   0  0  0  0  0  0  0  0  0  0  0  0
    3.2092   35.4694   13.9183 O   0  0  0  0  0  0  0  0  0  0  0  0
    2.7026   35.4064   14.7040 H   0  0  0  0  0  0  0  0  0  0  0  0
    5.7525   32.8658   14.5105 C   0  0  0  0  0  0  0  0  0  0  0  0
    6.7238   32.9308   15.6860 C   0  0  0  0  0  0  0  0  0  0  0  0
    6.4339   33.7703   16.7611 C   0  0  0  0  0  0  0  0  0  0  0  0
    7.9011   32.1908   15.7451 C   0  0  0  0  0  0  0  0  0  0  0  0
    7.2860   33.8646   17.8545 C   0  0  0  0  0  0  0  0  0  0  0  0
    8.7652   32.2754   16.8336 C   0  0  0  0  0  0  0  0  0  0  0  0
    8.4587   33.1179   17.8993 C   0  0  0  0  0  0  0  0  0  0  0  0
   -0.1238   32.1126   15.1503 C   0  0  0  0  0  0  0  0  0  0  0  0
   -0.3279   32.4061   13.6741 C   0  0  0  0  0  0  0  0  0  0  0  0
   -1.4404   33.4229   13.4787 C   0  0  0  0  0  0  0  0  0  0  0  0
   -0.8840   34.6608   12.7906 C   0  0  0  0  0  0  0  0  0  0  0  0
    0.5814   34.5581   12.7121 N   0  0  0  0  0  0  0  0  0  0  0  0
    0.9682   34.4874   13.6532 H   0  0  0  0  0  0  0  0  0  0  0  0
    0.9562   35.3876   12.2518 H   0  0  0  0  0  0  0  0  0  0  0  0
    0.8358   33.7280   12.1767 H   0  0  0  0  0  0  0  0  0  0  0  0
    6.8721   29.4410   18.7928 C   0  0  0  0  0  0  0  0  0  0  0  0
    7.3734   30.5322   19.7340 C   0  0  0  0  0  0  0  0  0  0  0  0
    8.3295   30.0203   20.8135 C   0  0  0  0  0  0  0  0  0  0  0  0
    6.2186   31.3079   20.3729 C   0  0  0  0  0  0  0  0  0  0  0  0
    8.8896   31.2061   21.6097 C   0  0  0  0  0  0  0  0  0  0  0  0
    6.7418   32.4883   21.1927 C   0  0  0  0  0  0  0  0  0  0  0  0
    7.7692   32.0405   22.2335 C   0  0  0  0  0  0  0  0  0  0  0  0
 12 13  2  0  0  0
 13 16  1  0  0  0
 16 17  1  0  0  0
 17 18  1  0  0  0
 17 19  1  0  0  0
 17 20  1  0  0  0
 14 11  1  0  0  0
 11  7  1  0  0  0
 11 21  1  0  0  0
  7  8  2  0  0  0
 21 22  1  0  0  0
 22 23  2  0  0  0
 22 24  1  0  0  0
 23 25  1  0  0  0
 24 26  2  0  0  0
 25 27  2  0  0  0
 26 27  1  0  0  0
  9  6  1  0  0  0
  6  2  1  0  0  0
  6 28  1  0  0  0
  2  3  2  0  0  0
 28 29  1  0  0  0
 29 30  1  0  0  0
 29 31  2  0  0  0
 30 32  2  0  0  0
 31 33  1  0  0  0
 32 33  1  0  0  0
  4  1  1  0  0  0
  1 74  1  0  0  0
  1 36  1  0  0  0
 74 75  1  0  0  0
 75 76  1  0  0  0
 75 77  1  0  0  0
 76 78  1  0  0  0
 77 79  1  0  0  0
 78 80  1  0  0  0
 79 80  1  0  0  0
 36 37  1  0  0  0
 36 39  1  0  0  0
 39 40  1  0  0  0
 40 45  1  0  0  0
 40 41  1  0  0  0
 45 46  1  0  0  0
 46 47  1  0  0  0
 46 48  1  0  0  0
 41 42  2  0  0  0
 43 49  1  0  0  0
 49 50  1  0  0  0
 49 66  1  0  0  0
 50 51  2  0  0  0
 66 67  1  0  0  0
 67 68  1  0  0  0
 68 69  1  0  0  0
 69 70  1  0  0  0
 52 54  1  0  0  0
 54 55  1  0  0  0
 54 59  1  0  0  0
 55 56  2  0  0  0
 55 57  1  0  0  0
 59 60  1  0  0  0
 60 61  2  0  0  0
 60 62  1  0  0  0
 61 63  1  0  0  0
 62 64  2  0  0  0
 63 65  2  0  0  0
 64 65  1  0  0  0
 13 14  1  0  0  0
  7  9  1  0  0  0
  2  4  1  0  0  0
 41 43  1  0  0  0
 50 52  1  0  0  0
 14 15  1  0  0  0
  9 10  1  0  0  0
 30 34  1  0  0  0
 33 35  1  0  0  0
  4  5  1  0  0  0
 37 38  1  0  0  0
 43 44  1  0  0  0
 70 71  1  0  0  0
 70 72  1  0  0  0
 70 73  1  0  0  0
 52 53  1  0  0  0
 57 58  1  0  0  0
M  CHG 1  30   1
M  CHG 1  70   1
M  END
> <minimizedAffinity>
-9.16259

$$$$
5ER2_0EK_E_327


 80 83  0  0  0  0  0  0  0  0999 V2000
    3.3148   30.0124   16.9037 C   0  0  0  0  0  0  0  0  0  0  0  0
    4.1286   32.1511   16.1451 C   0  0  0  0  0  0  0  0  0  0  0  0
    3.7882   32.7032   17.1892 O   0  0  0  0  0  0  0  0  0  0  0  0
    4.0435   30.8562   15.9425 N   0  0  0  0  0  0  0  0  0  0  0  0
    4.4656   30.4513   15.1506 H   0  0  0  0  0  0  0  0  0  0  0  0
    4.6760   32.9350   14.9618 C   0  0  0  0  0  0  0  0  0  0  0  0
    3.7095   34.2462   13.1475 C   0  0  0  0  0  0  0  0  0  0  0  0
    4.6978   34.0911   12.4380 O   0  0  0  0  0  0  0  0  0  0  0  0
    3.5570   33.7423   14.3678 N   0  0  0  0  0  0  0  0  0  0  0  0
    2.7260   33.8953   14.8732 H   0  0  0  0  0  0  0  0  0  0  0  0
    2.5006   35.0149   12.6352 C   0  0  0  0  0  0  0  0  0  0  0  0
    1.4122   37.6348   12.6951 O   0  0  0  0  0  0  0  0  0  0  0  0
    2.3614   37.3800   11.9608 C   0  0  0  0  0  0  0  0  0  0  0  0
    2.9258   36.1906   11.8676 N   0  0  0  0  0  0  0  0  0  0  0  0
    3.6799   36.0857   11.2435 H   0  0  0  0  0  0  0  0  0  0  0  0
    2.9806   38.3299   11.1026 O   0  0  0  0  0  0  0  0  0  0  0  0
    3.6520   39.4075   11.7470 C   0  0  0  0  0  0  0  0  0  0  0  0
    2.6601   40.5124   12.1235 C   0  0  0  0  0  0  0  0  0  0  0  0
    4.6520   39.9740   10.7269 C   0  0  0  0  0  0  0  0  0  0  0  0
    4.4018   38.9302   12.9909 C   0  0  0  0  0  0  0  0  0  0  0  0
    1.6533   34.0882   11.7581 C   0  0  0  0  0  0  0  0  0  0  0  0
    0.3955   33.6612   12.5166 C   0  0  0  0  0  0  0  0  0  0  0  0
   -0.7215   34.4876   12.5104 C   0  0  0  0  0  0  0  0  0  0  0  0
    0.3908   32.4523   13.2008 C   0  0  0  0  0  0  0  0  0  0  0  0
   -1.8655   34.1020   13.2004 C   0  0  0  0  0  0  0  0  0  0  0  0
   -0.7564   32.0741   13.8886 C   0  0  0  0  0  0  0  0  0  0  0  0
   -1.8791   32.8933   13.8874 C   0  0  0  0  0  0  0  0  0  0  0  0
    5.7606   33.8674   15.4617 C   0  0  0  0  0  0  0  0  0  0  0  0
    6.8822   33.0400   16.0792 C   0  0  0  0  0  0  0  0  0  0  0  0
    7.1498   32.9704   17.4445 N   0  0  0  0  0  0  0  0  0  0  0  0
    7.8284   32.2425   15.4097 C   0  0  0  0  0  0  0  0  0  0  0  0
    8.2441   32.1253   17.6185 C   0  0  0  0  0  0  0  0  0  0  0  0
    8.6797   31.6812   16.3625 N   0  0  0  0  0  0  0  0  0  0  0  0
    6.6550   33.4346   18.1579 H   0  0  0  0  0  0  0  0  0  0  0  0
    9.4429   31.0850   16.1856 H   0  0  0  0  0  0  0  0  0  0  0  0
    4.2854   29.0165   17.5515 C   0  0  0  0  0  0  0  0  0  0  0  0
    4.8326   28.1642   16.5385 O   0  0  0  0  0  0  0  0  0  0  0  0
    5.3195   28.7003   15.8932 H   0  0  0  0  0  0  0  0  0  0  0  0
    5.4164   29.7379   18.2789 C   0  0  0  0  0  0  0  0  0  0  0  0
    5.5838   29.1395   19.6113 N   0  0  0  0  0  0  0  0  0  0  0  0
    4.9688   29.6833   20.6471 C   0  0  0  0  0  0  0  0  0  0  0  0
    4.2907   30.7003   20.4801 O   0  0  0  0  0  0  0  0  0  0  0  0
    4.9693   29.0602   21.8142 N   0  0  0  0  0  0  0  0  0  0  0  0
    5.3083   28.1390   21.8902 H   0  0  0  0  0  0  0  0  0  0  0  0
    6.5023   28.0046   19.7876 C   0  0  0  0  0  0  0  0  0  0  0  0
    7.8608   28.4530   20.3095 C   0  0  0  0  0  0  0  0  0  0  0  0
    8.4622   27.4333   21.2596 C   0  0  0  0  0  0  0  0  0  0  0  0
    8.8106   28.8508   19.1965 C   0  0  0  0  0  0  0  0  0  0  0  0
    4.4534   29.7693   22.9980 C   0  0  0  0  0  0  0  0  0  0  0  0
    2.9817   30.0916   22.8266 C   0  0  0  0  0  0  0  0  0  0  0  0
    2.5251   31.1994   23.1064 O   0  0  0  0  0  0  0  0  0  0  0  0
    2.1917   29.1403   22.3591 N   0  0  0  0  0  0  0  0  0  0  0  0
    2.5456   28.2470   22.1445 H   0  0  0  0  0  0  0  0  0  0  0  0
    0.7606   29.4587   22.1683 C   0  0  0  0  0  0  0  0  0  0  0  0
   -0.0909   28.5498   23.0421 C   0  0  0  0  0  0  0  0  0  0  0  0
    0.4102   27.5248   23.5063 O   0  0  0  0  0  0  0  0  0  0  0  0
   -1.3464   28.9041   23.2351 O   0  0  0  0  0  0  0  0  0  0  0  0
   -1.6731   29.6964   22.8564 H   0  0  0  0  0  0  0  0  0  0  0  0
    0.3751   29.2824   20.7052 C   0  0  0  0  0  0  0  0  0  0  0  0
    0.6318   27.9110   20.0866 C   0  0  0  0  0  0  0  0  0  0  0  0
    1.9205   27.5873   19.6633 C   0  0  0  0  0  0  0  0  0  0  0  0
   -0.3627   26.9523   19.9160 C   0  0  0  0  0  0  0  0  0  0  0  0
    2.2051   26.3521   19.0942 C   0  0  0  0  0  0  0  0  0  0  0  0
   -0.0929   25.7107   19.3466 C   0  0  0  0  0  0  0  0  0  0  0  0
    1.2004   25.4040   18.9312 C   0  0  0  0  0  0  0  0  0  0  0  0
    5.2492   31.0432   23.2259 C   0  0  0  0  0  0  0  0  0  0  0  0
    6.7324   30.7251   23.3019 C   0  0  0  0  0  0  0  0  0  0  0  0
    7.5224   31.6265   22.3675 C   0  0  0  0  0  0  0  0  0  0  0  0
    6.7783   32.9400   22.1769 C   0  0  0  0  0  0  0  0  0  0  0  0
    6.4052   33.0883   20.7617 N   0  0  0  0  0  0  0  0  0  0  0  0
    7.2472   33.0860   20.1861 H   0  0  0  0  0  0  0  0  0  0  0  0
    5.9070   33.9688   20.6318 H   0  0  0  0  0  0  0  0  0  0  0  0
    5.8027   32.3128   20.4859 H   0  0  0  0  0  0  0  0  0  0  0  0
    2.1579   29.2957   16.2103 C   0  0  0  0  0  0  0  0  0  0  0  0
    0.8131   29.5594   16.8810 C   0  0  0  0  0  0  0  0  0  0  0  0
   -0.3513   28.7998   16.2417 C   0  0  0  0  0  0  0  0  0  0  0  0
    0.4954   31.0554   16.9515 C   0  0  0  0  0  0  0  0  0  0  0  0
   -1.6233   29.0131   17.0724 C   0  0  0  0  0  0  0  0  0  0  0  0
   -0.7803   31.3048   17.7572 C   0  0  0  0  0  0  0  0  0  0  0  0
   -1.9596   30.4994   17.2094 C   0  0  0  0  0  0  0  0  0  0  0  0
 12 13  2  0  0  0
 13 16  1  0  0  0
 16 17  1  0  0  0
 17 18  1  0  0  0
 17 19  1  0  0  0
 17 20  1  0  0  0
 14 11  1  0  0  0
 11  7  1  0  0  0
 11 21  1  0  0  0
  7  8  2  0  0  0
 21 22  1  0  0  0
 22 23  2  0  0  0
 22 24  1  0  0  0
 23 25  1  0  0  0
 24 26  2  0  0  0
 25 27  2  0  0  0
 26 27  1  0  0  0
  9  6  1  0  0  0
  6  2  1  0  0  0
  6 28  1  0  0  0
  2  3  2  0  0  0
 28 29  1  0  0  0
 29 30  1  0  0  0
 29 31  2  0  0  0
 30 32  2  0  0  0
 31 33  1  0  0  0
 32 33  1  0  0  0
  4  1  1  0  0  0
  1 74  1  0  0  0
  1 36  1  0  0  0
 74 75  1  0  0  0
 75 76  1  0  0  0
 75 77  1  0  0  0
 76 78  1  0  0  0
 77 79  1  0  0  0
 78 80  1  0  0  0
 79 80  1  0  0  0
 36 37  1  0  0  0
 36 39  1  0  0  0
 39 40  1  0  0  0
 40 45  1  0  0  0
 40 41  1  0  0  0
 45 46  1  0  0  0
 46 47  1  0  0  0
 46 48  1  0  0  0
 41 42  2  0  0  0
 43 49  1  0  0  0
 49 50  1  0  0  0
 49 66  1  0  0  0
 50 51  2  0  0  0
 66 67  1  0  0  0
 67 68  1  0  0  0
 68 69  1  0  0  0
 69 70  1  0  0  0
 52 54  1  0  0  0
 54 55  1  0  0  0
 54 59  1  0  0  0
 55 56  2  0  0  0
 55 57  1  0  0  0
 59 60  1  0  0  0
 60 61  2  0  0  0
 60 62  1  0  0  0
 61 63  1  0  0  0
 62 64  2  0  0  0
 63 65  2  0  0  0
 64 65  1  0  0  0
 13 14  1  0  0  0
  7  9  1  0  0  0
  2  4  1  0  0  0
 41 43  1  0  0  0
 50 52  1  0  0  0
 14 15  1  0  0  0
  9 10  1  0  0  0
 30 34  1  0  0  0
 33 35  1  0  0  0
  4  5  1  0  0  0
 37 38  1  0  0  0
 43 44  1  0  0  0
 70 71  1  0  0  0
 70 72  1  0  0  0
 70 73  1  0  0  0
 52 53  1  0  0  0
 57 58  1  0  0  0
M  CHG 1  30   1
M  CHG 1  70   1
M  END
> <minimizedAffinity>
-9.12424

$$$$
5ER2_0EK_E_327


 80 83  0  0  0  0  0  0  0  0999 V2000
    1.1478   24.1877   20.9439 C   0  0  0  0  0  0  0  0  0  0  0  0
   -0.6268   25.5134   21.8954 C   0  0  0  0  0  0  0  0  0  0  0  0
   -0.1732   25.3897   23.0312 O   0  0  0  0  0  0  0  0  0  0  0  0
   -0.0245   25.0688   20.8163 N   0  0  0  0  0  0  0  0  0  0  0  0
   -0.3559   25.3239   19.9250 H   0  0  0  0  0  0  0  0  0  0  0  0
   -1.9623   26.1926   21.6319 C   0  0  0  0  0  0  0  0  0  0  0  0
   -1.5262   28.0569   20.1223 C   0  0  0  0  0  0  0  0  0  0  0  0
   -1.1577   28.7827   21.0397 O   0  0  0  0  0  0  0  0  0  0  0  0
   -1.9254   26.7964   20.2569 N   0  0  0  0  0  0  0  0  0  0  0  0
   -2.1920   26.2682   19.4700 H   0  0  0  0  0  0  0  0  0  0  0  0
   -1.4956   28.5505   18.6834 C   0  0  0  0  0  0  0  0  0  0  0  0
   -4.0440   27.6419   17.8276 O   0  0  0  0  0  0  0  0  0  0  0  0
   -3.8433   28.8404   17.9960 C   0  0  0  0  0  0  0  0  0  0  0  0
   -2.6903   29.3492   18.3879 N   0  0  0  0  0  0  0  0  0  0  0  0
   -2.6279   30.3266   18.4883 H   0  0  0  0  0  0  0  0  0  0  0  0
   -4.8239   29.8485   17.7852 O   0  0  0  0  0  0  0  0  0  0  0  0
   -5.9027   29.8725   18.7140 C   0  0  0  0  0  0  0  0  0  0  0  0
   -7.0678   29.0158   18.2089 C   0  0  0  0  0  0  0  0  0  0  0  0
   -6.3719   31.3331   18.8036 C   0  0  0  0  0  0  0  0  0  0  0  0
   -5.4577   29.3902   20.0947 C   0  0  0  0  0  0  0  0  0  0  0  0
   -0.2320   29.3890   18.4688 C   0  0  0  0  0  0  0  0  0  0  0  0
   -0.2370   29.9854   17.0602 C   0  0  0  0  0  0  0  0  0  0  0  0
   -0.4323   29.1530   15.9649 C   0  0  0  0  0  0  0  0  0  0  0  0
   -0.0452   31.3516   16.8988 C   0  0  0  0  0  0  0  0  0  0  0  0
   -0.4358   29.6927   14.6835 C   0  0  0  0  0  0  0  0  0  0  0  0
   -0.0495   31.8835   15.6146 C   0  0  0  0  0  0  0  0  0  0  0  0
   -0.2452   31.0593   14.5129 C   0  0  0  0  0  0  0  0  0  0  0  0
   -3.0559   25.1458   21.6941 C   0  0  0  0  0  0  0  0  0  0  0  0
   -3.6393   24.9525   20.2991 C   0  0  0  0  0  0  0  0  0  0  0  0
   -4.8894   25.4172   19.8967 N   0  0  0  0  0  0  0  0  0  0  0  0
   -3.0553   24.2785   19.2109 C   0  0  0  0  0  0  0  0  0  0  0  0
   -5.0704   25.0455   18.5659 C   0  0  0  0  0  0  0  0  0  0  0  0
   -3.9455   24.3277   18.1373 N   0  0  0  0  0  0  0  0  0  0  0  0
   -5.5295   25.9179   20.4524 H   0  0  0  0  0  0  0  0  0  0  0  0
   -3.8090   23.9324   17.2460 H   0  0  0  0  0  0  0  0  0  0  0  0
    2.3858   24.8952   20.3780 C   0  0  0  0  0  0  0  0  0  0  0  0
    3.1189   23.9785   19.5569 O   0  0  0  0  0  0  0  0  0  0  0  0
    2.5606   23.6876   18.8190 H   0  0  0  0  0  0  0  0  0  0  0  0
    1.9968   26.1202   19.5553 C   0  0  0  0  0  0  0  0  0  0  0  0
    2.9060   27.2263   19.8888 N   0  0  0  0  0  0  0  0  0  0  0  0
    3.4903   27.9004   18.9137 C   0  0  0  0  0  0  0  0  0  0  0  0
    3.2845   27.5686   17.7434 O   0  0  0  0  0  0  0  0  0  0  0  0
    4.1704   29.0011   19.1903 N   0  0  0  0  0  0  0  0  0  0  0  0
    4.1393   29.3960   20.0915 H   0  0  0  0  0  0  0  0  0  0  0  0
    3.2230   27.5064   21.2973 C   0  0  0  0  0  0  0  0  0  0  0  0
    2.0761   28.2165   22.0041 C   0  0  0  0  0  0  0  0  0  0  0  0
    1.9996   27.8370   23.4718 C   0  0  0  0  0  0  0  0  0  0  0  0
    2.0962   29.7169   21.7855 C   0  0  0  0  0  0  0  0  0  0  0  0
    4.9749   29.6251   18.1256 C   0  0  0  0  0  0  0  0  0  0  0  0
    6.4531   29.5306   18.4501 C   0  0  0  0  0  0  0  0  0  0  0  0
    7.1813   28.6962   17.9138 O   0  0  0  0  0  0  0  0  0  0  0  0
    6.9469   30.3813   19.3332 N   0  0  0  0  0  0  0  0  0  0  0  0
    6.3696   31.0440   19.7769 H   0  0  0  0  0  0  0  0  0  0  0  0
    8.3925   30.3075   19.6343 C   0  0  0  0  0  0  0  0  0  0  0  0
    8.6074   30.3284   21.1403 C   0  0  0  0  0  0  0  0  0  0  0  0
    8.1689   29.3998   21.8204 O   0  0  0  0  0  0  0  0  0  0  0  0
    9.2398   31.3705   21.6436 O   0  0  0  0  0  0  0  0  0  0  0  0
    9.5518   32.0479   21.0764 H   0  0  0  0  0  0  0  0  0  0  0  0
    9.1225   31.4785   18.9894 C   0  0  0  0  0  0  0  0  0  0  0  0
    8.3693   32.2468   17.9068 C   0  0  0  0  0  0  0  0  0  0  0  0
    8.4579   31.8175   16.5830 C   0  0  0  0  0  0  0  0  0  0  0  0
    7.5899   33.3695   18.1697 C   0  0  0  0  0  0  0  0  0  0  0  0
    7.7911   32.4827   15.5615 C   0  0  0  0  0  0  0  0  0  0  0  0
    6.9166   34.0469   17.1566 C   0  0  0  0  0  0  0  0  0  0  0  0
    7.0151   33.6030   15.8404 C   0  0  0  0  0  0  0  0  0  0  0  0
    4.5652   31.0776   17.9510 C   0  0  0  0  0  0  0  0  0  0  0  0
    3.8406   31.2599   16.6286 C   0  0  0  0  0  0  0  0  0  0  0  0
    3.4709   32.7186   16.4168 C   0  0  0  0  0  0  0  0  0  0  0  0
    3.4008   33.0152   14.9259 C   0  0  0  0  0  0  0  0  0  0  0  0
    4.1298   31.9730   14.1867 N   0  0  0  0  0  0  0  0  0  0  0  0
    5.1044   31.9616   14.4873 H   0  0  0  0  0  0  0  0  0  0  0  0
    4.0846   32.1706   13.1870 H   0  0  0  0  0  0  0  0  0  0  0  0
    3.7058   31.0642   14.3731 H   0  0  0  0  0  0  0  0  0  0  0  0
    0.8917   22.8578   20.2379 C   0  0  0  0  0  0  0  0  0  0  0  0
    0.7814   21.6858   21.2085 C   0  0  0  0  0  0  0  0  0  0  0  0
   -0.2293   21.9140   22.3345 C   0  0  0  0  0  0  0  0  0  0  0  0
    2.1435   21.2971   21.7893 C   0  0  0  0  0  0  0  0  0  0  0  0
   -0.3748   20.6316   23.1637 C   0  0  0  0  0  0  0  0  0  0  0  0
    2.0327   20.0311   22.6400 C   0  0  0  0  0  0  0  0  0  0  0  0
    0.9710   20.1764   23.7314 C   0  0  0  0  0  0  0  0  0  0  0  0
 12 13  2  0  0  0
 13 16  1  0  0  0
 16 17  1  0  0  0
 17 18  1  0  0  0
 17 19  1  0  0  0
 17 20  1  0  0  0
 14 11  1  0  0  0
 11  7  1  0  0  0
 11 21  1  0  0  0
  7  8  2  0  0  0
 21 22  1  0  0  0
 22 23  2  0  0  0
 22 24  1  0  0  0
 23 25  1  0  0  0
 24 26  2  0  0  0
 25 27  2  0  0  0
 26 27  1  0  0  0
  9  6  1  0  0  0
  6  2  1  0  0  0
  6 28  1  0  0  0
  2  3  2  0  0  0
 28 29  1  0  0  0
 29 30  1  0  0  0
 29 31  2  0  0  0
 30 32  2  0  0  0
 31 33  1  0  0  0
 32 33  1  0  0  0
  4  1  1  0  0  0
  1 74  1  0  0  0
  1 36  1  0  0  0
 74 75  1  0  0  0
 75 76  1  0  0  0
 75 77  1  0  0  0
 76 78  1  0  0  0
 77 79  1  0  0  0
 78 80  1  0  0  0
 79 80  1  0  0  0
 36 37  1  0  0  0
 36 39  1  0  0  0
 39 40  1  0  0  0
 40 45  1  0  0  0
 40 41  1  0  0  0
 45 46  1  0  0  0
 46 47  1  0  0  0
 46 48  1  0  0  0
 41 42  2  0  0  0
 43 49  1  0  0  0
 49 50  1  0  0  0
 49 66  1  0  0  0
 50 51  2  0  0  0
 66 67  1  0  0  0
 67 68  1  0  0  0
 68 69  1  0  0  0
 69 70  1  0  0  0
 52 54  1  0  0  0
 54 55  1  0  0  0
 54 59  1  0  0  0
 55 56  2  0  0  0
 55 57  1  0  0  0
 59 60  1  0  0  0
 60 61  2  0  0  0
 60 62  1  0  0  0
 61 63  1  0  0  0
 62 64  2  0  0  0
 63 65  2  0  0  0
 64 65  1  0  0  0
 13 14  1  0  0  0
  7  9  1  0  0  0
  2  4  1  0  0  0
 41 43  1  0  0  0
 50 52  1  0  0  0
 14 15  1  0  0  0
  9 10  1  0  0  0
 30 34  1  0  0  0
 33 35  1  0  0  0
  4  5  1  0  0  0
 37 38  1  0  0  0
 43 44  1  0  0  0
 70 71  1  0  0  0
 70 72  1  0  0  0
 70 73  1  0  0  0
 52 53  1  0  0  0
 57 58  1  0  0  0
M  CHG 1  30   1
M  CHG 1  70   1
M  END
> <minimizedAffinity>
-8.90445

$$$$
5ER2_0EK_E_327


 80 83  0  0  0  0  0  0  0  0999 V2000
    3.9474   27.6186   19.3516 C   0  0  0  0  0  0  0  0  0  0  0  0
    3.2135   28.6604   17.3052 C   0  0  0  0  0  0  0  0  0  0  0  0
    3.9176   27.9204   16.6214 O   0  0  0  0  0  0  0  0  0  0  0  0
    3.0733   28.5383   18.6053 N   0  0  0  0  0  0  0  0  0  0  0  0
    2.3860   29.0601   19.0792 H   0  0  0  0  0  0  0  0  0  0  0  0
    2.4367   29.8189   16.6979 C   0  0  0  0  0  0  0  0  0  0  0  0
    3.4132   31.8362   15.7378 C   0  0  0  0  0  0  0  0  0  0  0  0
    2.8455   32.5607   16.5485 O   0  0  0  0  0  0  0  0  0  0  0  0
    3.3193   30.5111   15.6986 N   0  0  0  0  0  0  0  0  0  0  0  0
    3.8189   29.9927   15.0271 H   0  0  0  0  0  0  0  0  0  0  0  0
    4.3606   32.4246   14.7029 C   0  0  0  0  0  0  0  0  0  0  0  0
    2.7082   34.6776   14.2075 O   0  0  0  0  0  0  0  0  0  0  0  0
    2.8865   33.8407   13.3283 C   0  0  0  0  0  0  0  0  0  0  0  0
    3.6345   32.7631   13.4739 N   0  0  0  0  0  0  0  0  0  0  0  0
    3.7099   32.1475   12.7094 H   0  0  0  0  0  0  0  0  0  0  0  0
    2.3056   33.9123   12.0323 O   0  0  0  0  0  0  0  0  0  0  0  0
    0.9414   33.5159   11.9379 C   0  0  0  0  0  0  0  0  0  0  0  0
    0.6642   32.8573   10.5829 C   0  0  0  0  0  0  0  0  0  0  0  0
    0.1035   34.8000   12.0386 C   0  0  0  0  0  0  0  0  0  0  0  0
    0.5602   32.5634   13.0712 C   0  0  0  0  0  0  0  0  0  0  0  0
    5.0250   33.6752   15.2866 C   0  0  0  0  0  0  0  0  0  0  0  0
    6.2589   33.2773   16.0985 C   0  0  0  0  0  0  0  0  0  0  0  0
    6.3168   33.5865   17.4519 C   0  0  0  0  0  0  0  0  0  0  0  0
    7.3032   32.6128   15.4682 C   0  0  0  0  0  0  0  0  0  0  0  0
    7.4381   33.2270   18.1916 C   0  0  0  0  0  0  0  0  0  0  0  0
    8.4208   32.2573   16.2143 C   0  0  0  0  0  0  0  0  0  0  0  0
    8.4877   32.5611   17.5688 C   0  0  0  0  0  0  0  0  0  0  0  0
    1.2157   29.2637   15.9934 C   0  0  0  0  0  0  0  0  0  0  0  0
   -0.0193   30.0219   16.4663 C   0  0  0  0  0  0  0  0  0  0  0  0
   -0.1309   31.4103   16.4879 N   0  0  0  0  0  0  0  0  0  0  0  0
   -1.2181   29.4817   16.9671 C   0  0  0  0  0  0  0  0  0  0  0  0
   -1.3942   31.7253   16.9850 C   0  0  0  0  0  0  0  0  0  0  0  0
   -2.0690   30.5373   17.2975 N   0  0  0  0  0  0  0  0  0  0  0  0
    0.5583   32.0531   16.2034 H   0  0  0  0  0  0  0  0  0  0  0  0
   -2.9735   30.4617   17.6787 H   0  0  0  0  0  0  0  0  0  0  0  0
    3.1930   26.3143   19.6403 C   0  0  0  0  0  0  0  0  0  0  0  0
    4.1010   25.3582   20.2003 O   0  0  0  0  0  0  0  0  0  0  0  0
    4.4600   25.7025   21.0330 H   0  0  0  0  0  0  0  0  0  0  0  0
    2.0344   26.5459   20.6059 C   0  0  0  0  0  0  0  0  0  0  0  0
    0.8116   25.9676   20.0301 N   0  0  0  0  0  0  0  0  0  0  0  0
   -0.3614   26.4888   20.3449 C   0  0  0  0  0  0  0  0  0  0  0  0
   -0.4091   27.4313   21.1396 O   0  0  0  0  0  0  0  0  0  0  0  0
   -1.4500   26.0939   19.7050 N   0  0  0  0  0  0  0  0  0  0  0  0
   -1.3826   25.5148   18.9117 H   0  0  0  0  0  0  0  0  0  0  0  0
    0.9034   24.7651   19.1885 C   0  0  0  0  0  0  0  0  0  0  0  0
    1.1289   23.5094   20.0200 C   0  0  0  0  0  0  0  0  0  0  0  0
   -0.1743   22.9571   20.5685 C   0  0  0  0  0  0  0  0  0  0  0  0
    1.9478   22.4644   19.2875 C   0  0  0  0  0  0  0  0  0  0  0  0
   -2.7650   26.5362   20.2007 C   0  0  0  0  0  0  0  0  0  0  0  0
   -3.1976   25.6958   21.3864 C   0  0  0  0  0  0  0  0  0  0  0  0
   -3.7843   24.6242   21.2402 O   0  0  0  0  0  0  0  0  0  0  0  0
   -2.9214   26.1483   22.5973 N   0  0  0  0  0  0  0  0  0  0  0  0
   -2.4637   27.0106   22.7245 H   0  0  0  0  0  0  0  0  0  0  0  0
   -3.3207   25.3199   23.7551 C   0  0  0  0  0  0  0  0  0  0  0  0
   -4.2267   26.1233   24.6761 C   0  0  0  0  0  0  0  0  0  0  0  0
   -3.7660   27.1034   25.2630 O   0  0  0  0  0  0  0  0  0  0  0  0
   -5.4685   25.7022   24.8160 O   0  0  0  0  0  0  0  0  0  0  0  0
   -5.7640   24.9492   24.3431 H   0  0  0  0  0  0  0  0  0  0  0  0
   -2.0865   24.8548   24.5171 C   0  0  0  0  0  0  0  0  0  0  0  0
   -1.5782   23.4486   24.2110 C   0  0  0  0  0  0  0  0  0  0  0  0
   -0.2303   23.1544   24.4144 C   0  0  0  0  0  0  0  0  0  0  0  0
   -2.3953   22.4294   23.7308 C   0  0  0  0  0  0  0  0  0  0  0  0
    0.2808   21.8896   24.1509 C   0  0  0  0  0  0  0  0  0  0  0  0
   -1.8973   21.1574   23.4614 C   0  0  0  0  0  0  0  0  0  0  0  0
   -0.5488   20.8809   23.6720 C   0  0  0  0  0  0  0  0  0  0  0  0
   -3.7947   26.4468   19.0873 C   0  0  0  0  0  0  0  0  0  0  0  0
   -4.0282   27.8198   18.4812 C   0  0  0  0  0  0  0  0  0  0  0  0
   -5.3386   27.8503   17.7121 C   0  0  0  0  0  0  0  0  0  0  0  0
   -6.1413   29.0764   18.1216 C   0  0  0  0  0  0  0  0  0  0  0  0
   -5.2475   30.0519   18.7649 N   0  0  0  0  0  0  0  0  0  0  0  0
   -4.8223   29.6304   19.5907 H   0  0  0  0  0  0  0  0  0  0  0  0
   -5.7841   30.8742   19.0409 H   0  0  0  0  0  0  0  0  0  0  0  0
   -4.5164   30.3272   18.1091 H   0  0  0  0  0  0  0  0  0  0  0  0
    4.4366   28.2787   20.6391 C   0  0  0  0  0  0  0  0  0  0  0  0
    5.5986   29.2395   20.4053 C   0  0  0  0  0  0  0  0  0  0  0  0
    6.9236   28.5377   20.0995 C   0  0  0  0  0  0  0  0  0  0  0  0
    5.7728   30.2169   21.5707 C   0  0  0  0  0  0  0  0  0  0  0  0
    7.9873   29.5816   19.7359 C   0  0  0  0  0  0  0  0  0  0  0  0
    6.8421   31.2623   21.2507 C   0  0  0  0  0  0  0  0  0  0  0  0
    8.1675   30.6101   20.8542 C   0  0  0  0  0  0  0  0  0  0  0  0
 12 13  2  0  0  0
 13 16  1  0  0  0
 16 17  1  0  0  0
 17 18  1  0  0  0
 17 19  1  0  0  0
 17 20  1  0  0  0
 14 11  1  0  0  0
 11  7  1  0  0  0
 11 21  1  0  0  0
  7  8  2  0  0  0
 21 22  1  0  0  0
 22 23  2  0  0  0
 22 24  1  0  0  0
 23 25  1  0  0  0
 24 26  2  0  0  0
 25 27  2  0  0  0
 26 27  1  0  0  0
  9  6  1  0  0  0
  6  2  1  0  0  0
  6 28  1  0  0  0
  2  3  2  0  0  0
 28 29  1  0  0  0
 29 30  1  0  0  0
 29 31  2  0  0  0
 30 32  2  0  0  0
 31 33  1  0  0  0
 32 33  1  0  0  0
  4  1  1  0  0  0
  1 74  1  0  0  0
  1 36  1  0  0  0
 74 75  1  0  0  0
 75 76  1  0  0  0
 75 77  1  0  0  0
 76 78  1  0  0  0
 77 79  1  0  0  0
 78 80  1  0  0  0
 79 80  1  0  0  0
 36 37  1  0  0  0
 36 39  1  0  0  0
 39 40  1  0  0  0
 40 45  1  0  0  0
 40 41  1  0  0  0
 45 46  1  0  0  0
 46 47  1  0  0  0
 46 48  1  0  0  0
 41 42  2  0  0  0
 43 49  1  0  0  0
 49 50  1  0  0  0
 49 66  1  0  0  0
 50 51  2  0  0  0
 66 67  1  0  0  0
 67 68  1  0  0  0
 68 69  1  0  0  0
 69 70  1  0  0  0
 52 54  1  0  0  0
 54 55  1  0  0  0
 54 59  1  0  0  0
 55 56  2  0  0  0
 55 57  1  0  0  0
 59 60  1  0  0  0
 60 61  2  0  0  0
 60 62  1  0  0  0
 61 63  1  0  0  0
 62 64  2  0  0  0
 63 65  2  0  0  0
 64 65  1  0  0  0
 13 14  1  0  0  0
  7  9  1  0  0  0
  2  4  1  0  0  0
 41 43  1  0  0  0
 50 52  1  0  0  0
 14 15  1  0  0  0
  9 10  1  0  0  0
 30 34  1  0  0  0
 33 35  1  0  0  0
  4  5  1  0  0  0
 37 38  1  0  0  0
 43 44  1  0  0  0
 70 71  1  0  0  0
 70 72  1  0  0  0
 70 73  1  0  0  0
 52 53  1  0  0  0
 57 58  1  0  0  0
M  CHG 1  30   1
M  CHG 1  70   1
M  END
> <minimizedAffinity>
-8.89599

$$$$
5ER2_0EK_E_327


 80 83  0  0  0  0  0  0  0  0999 V2000
    4.1578   31.6630   16.2571 C   0  0  0  0  0  0  0  0  0  0  0  0
    3.9240   32.8933   14.1971 C   0  0  0  0  0  0  0  0  0  0  0  0
    4.9690   32.4284   13.7467 O   0  0  0  0  0  0  0  0  0  0  0  0
    3.3917   32.5211   15.3387 N   0  0  0  0  0  0  0  0  0  0  0  0
    2.4834   32.8149   15.5792 H   0  0  0  0  0  0  0  0  0  0  0  0
    3.1441   33.9759   13.4664 C   0  0  0  0  0  0  0  0  0  0  0  0
    0.8902   33.0753   13.2344 C   0  0  0  0  0  0  0  0  0  0  0  0
    1.2194   32.3485   12.3029 O   0  0  0  0  0  0  0  0  0  0  0  0
    1.7055   33.8941   13.8911 N   0  0  0  0  0  0  0  0  0  0  0  0
    1.3727   34.4370   14.6419 H   0  0  0  0  0  0  0  0  0  0  0  0
   -0.5325   33.0486   13.7729 C   0  0  0  0  0  0  0  0  0  0  0  0
   -2.9379   34.3140   14.5884 O   0  0  0  0  0  0  0  0  0  0  0  0
   -2.5012   34.4950   13.4563 C   0  0  0  0  0  0  0  0  0  0  0  0
   -1.3946   33.9443   12.9938 N   0  0  0  0  0  0  0  0  0  0  0  0
   -1.1308   34.1474   12.0673 H   0  0  0  0  0  0  0  0  0  0  0  0
   -3.1314   35.3181   12.4828 O   0  0  0  0  0  0  0  0  0  0  0  0
   -2.8029   36.7026   12.5304 C   0  0  0  0  0  0  0  0  0  0  0  0
   -2.6092   37.1610   13.9791 C   0  0  0  0  0  0  0  0  0  0  0  0
   -4.0006   37.4583   11.9337 C   0  0  0  0  0  0  0  0  0  0  0  0
   -1.5466   37.0037   11.7130 C   0  0  0  0  0  0  0  0  0  0  0  0
   -1.0648   31.6139   13.7091 C   0  0  0  0  0  0  0  0  0  0  0  0
   -0.9807   30.9663   15.0923 C   0  0  0  0  0  0  0  0  0  0  0  0
   -0.8011   29.5923   15.1953 C   0  0  0  0  0  0  0  0  0  0  0  0
   -1.0861   31.7637   16.2248 C   0  0  0  0  0  0  0  0  0  0  0  0
   -0.7258   29.0013   16.4518 C   0  0  0  0  0  0  0  0  0  0  0  0
   -1.0103   31.1655   17.4771 C   0  0  0  0  0  0  0  0  0  0  0  0
   -0.8296   29.7922   17.5905 C   0  0  0  0  0  0  0  0  0  0  0  0
    3.7100   35.3255   13.8586 C   0  0  0  0  0  0  0  0  0  0  0  0
    2.9873   36.4149   13.0745 C   0  0  0  0  0  0  0  0  0  0  0  0
    2.6156   36.3075   11.7363 N   0  0  0  0  0  0  0  0  0  0  0  0
    2.5965   37.6863   13.5333 C   0  0  0  0  0  0  0  0  0  0  0  0
    1.9874   37.4978   11.3749 C   0  0  0  0  0  0  0  0  0  0  0  0
    1.9837   38.3628   12.4777 N   0  0  0  0  0  0  0  0  0  0  0  0
    2.7691   35.5307   11.1513 H   0  0  0  0  0  0  0  0  0  0  0  0
    1.6175   39.2764   12.5029 H   0  0  0  0  0  0  0  0  0  0  0  0
    3.2804   30.4919   16.7177 C   0  0  0  0  0  0  0  0  0  0  0  0
    2.3874   30.1265   15.6589 O   0  0  0  0  0  0  0  0  0  0  0  0
    2.9009   29.8468   14.8849 H   0  0  0  0  0  0  0  0  0  0  0  0
    4.1279   29.2854   17.1113 C   0  0  0  0  0  0  0  0  0  0  0  0
    3.4573   28.5692   18.2062 N   0  0  0  0  0  0  0  0  0  0  0  0
    2.6329   27.5764   17.9210 C   0  0  0  0  0  0  0  0  0  0  0  0
    2.4191   27.2901   16.7401 O   0  0  0  0  0  0  0  0  0  0  0  0
    2.1590   26.8145   18.8934 N   0  0  0  0  0  0  0  0  0  0  0  0
    2.5117   26.8939   19.8091 H   0  0  0  0  0  0  0  0  0  0  0  0
    3.6411   29.0250   19.5922 C   0  0  0  0  0  0  0  0  0  0  0  0
    5.1142   29.1107   19.9682 C   0  0  0  0  0  0  0  0  0  0  0  0
    5.3224   29.8984   21.2490 C   0  0  0  0  0  0  0  0  0  0  0  0
    5.7885   27.7528   19.9974 C   0  0  0  0  0  0  0  0  0  0  0  0
    1.0942   25.8454   18.5815 C   0  0  0  0  0  0  0  0  0  0  0  0
   -0.1504   26.1411   19.3956 C   0  0  0  0  0  0  0  0  0  0  0  0
   -0.3452   27.2455   19.9019 O   0  0  0  0  0  0  0  0  0  0  0  0
   -1.0345   25.1700   19.5465 N   0  0  0  0  0  0  0  0  0  0  0  0
   -0.8813   24.2794   19.1559 H   0  0  0  0  0  0  0  0  0  0  0  0
   -2.2604   25.4621   20.3198 C   0  0  0  0  0  0  0  0  0  0  0  0
   -2.2351   24.6976   21.6349 C   0  0  0  0  0  0  0  0  0  0  0  0
   -1.8175   23.5388   21.6456 O   0  0  0  0  0  0  0  0  0  0  0  0
   -2.6935   25.3213   22.7025 O   0  0  0  0  0  0  0  0  0  0  0  0
   -2.9986   26.2046   22.6342 H   0  0  0  0  0  0  0  0  0  0  0  0
   -3.4931   25.0704   19.5152 C   0  0  0  0  0  0  0  0  0  0  0  0
   -4.2335   26.1966   18.7990 C   0  0  0  0  0  0  0  0  0  0  0  0
   -5.4917   25.9429   18.2536 C   0  0  0  0  0  0  0  0  0  0  0  0
   -3.7153   27.4802   18.6548 C   0  0  0  0  0  0  0  0  0  0  0  0
   -6.2058   26.9346   17.5923 C   0  0  0  0  0  0  0  0  0  0  0  0
   -4.4186   28.4839   17.9941 C   0  0  0  0  0  0  0  0  0  0  0  0
   -5.6746   28.2131   17.4572 C   0  0  0  0  0  0  0  0  0  0  0  0
    1.5820   24.4335   18.8581 C   0  0  0  0  0  0  0  0  0  0  0  0
    2.5347   24.4331   20.0411 C   0  0  0  0  0  0  0  0  0  0  0  0
    2.0856   23.4297   21.0904 C   0  0  0  0  0  0  0  0  0  0  0  0
    1.2218   22.3611   20.4368 C   0  0  0  0  0  0  0  0  0  0  0  0
    0.5549   21.5674   21.4805 N   0  0  0  0  0  0  0  0  0  0  0  0
    1.2579   21.1240   22.0717 H   0  0  0  0  0  0  0  0  0  0  0  0
   -0.0241   20.8499   21.0441 H   0  0  0  0  0  0  0  0  0  0  0  0
   -0.0316   22.1781   22.0493 H   0  0  0  0  0  0  0  0  0  0  0  0
    4.6699   32.4786   17.4426 C   0  0  0  0  0  0  0  0  0  0  0  0
    6.1185   32.1577   17.7982 C   0  0  0  0  0  0  0  0  0  0  0  0
    6.5277   32.6326   19.1942 C   0  0  0  0  0  0  0  0  0  0  0  0
    7.0949   32.6941   16.7482 C   0  0  0  0  0  0  0  0  0  0  0  0
    7.9437   32.1358   19.5126 C   0  0  0  0  0  0  0  0  0  0  0  0
    8.5228   32.2341   17.0457 C   0  0  0  0  0  0  0  0  0  0  0  0
    8.9523   32.6103   18.4645 C   0  0  0  0  0  0  0  0  0  0  0  0
 12 13  2  0  0  0
 13 16  1  0  0  0
 16 17  1  0  0  0
 17 18  1  0  0  0
 17 19  1  0  0  0
 17 20  1  0  0  0
 14 11  1  0  0  0
 11  7  1  0  0  0
 11 21  1  0  0  0
  7  8  2  0  0  0
 21 22  1  0  0  0
 22 23  2  0  0  0
 22 24  1  0  0  0
 23 25  1  0  0  0
 24 26  2  0  0  0
 25 27  2  0  0  0
 26 27  1  0  0  0
  9  6  1  0  0  0
  6  2  1  0  0  0
  6 28  1  0  0  0
  2  3  2  0  0  0
 28 29  1  0  0  0
 29 30  1  0  0  0
 29 31  2  0  0  0
 30 32  2  0  0  0
 31 33  1  0  0  0
 32 33  1  0  0  0
  4  1  1  0  0  0
  1 74  1  0  0  0
  1 36  1  0  0  0
 74 75  1  0  0  0
 75 76  1  0  0  0
 75 77  1  0  0  0
 76 78  1  0  0  0
 77 79  1  0  0  0
 78 80  1  0  0  0
 79 80  1  0  0  0
 36 37  1  0  0  0
 36 39  1  0  0  0
 39 40  1  0  0  0
 40 45  1  0  0  0
 40 41  1  0  0  0
 45 46  1  0  0  0
 46 47  1  0  0  0
 46 48  1  0  0  0
 41 42  2  0  0  0
 43 49  1  0  0  0
 49 50  1  0  0  0
 49 66  1  0  0  0
 50 51  2  0  0  0
 66 67  1  0  0  0
 67 68  1  0  0  0
 68 69  1  0  0  0
 69 70  1  0  0  0
 52 54  1  0  0  0
 54 55  1  0  0  0
 54 59  1  0  0  0
 55 56  2  0  0  0
 55 57  1  0  0  0
 59 60  1  0  0  0
 60 61  2  0  0  0
 60 62  1  0  0  0
 61 63  1  0  0  0
 62 64  2  0  0  0
 63 65  2  0  0  0
 64 65  1  0  0  0
 13 14  1  0  0  0
  7  9  1  0  0  0
  2  4  1  0  0  0
 41 43  1  0  0  0
 50 52  1  0  0  0
 14 15  1  0  0  0
  9 10  1  0  0  0
 30 34  1  0  0  0
 33 35  1  0  0  0
  4  5  1  0  0  0
 37 38  1  0  0  0
 43 44  1  0  0  0
 70 71  1  0  0  0
 70 72  1  0  0  0
 70 73  1  0  0  0
 52 53  1  0  0  0
 57 58  1  0  0  0
M  CHG 1  30   1
M  CHG 1  70   1
M  END
> <minimizedAffinity>
-8.88671

$$$$
