5ER2_0EK_E_327
  RCSB PDB12061717313D
Coordinates from PDB:5ER2:E:327 Model:1 without hydrogens
 68 71  0  0  0  0            999 V2000
    1.8910   27.1630   20.0240   O 0  0  0  0  0  0  0  0  0  0  0  0
    2.6450   26.3830   19.4510   C 0  0  0  0  0  0  0  0  0  0  0  0
    2.5120   24.9680   19.4990   O 0  0  0  0  0  0  0  0  0  0  0  0
    1.4250   24.4700   20.2720   C 0  0  0  0  0  0  0  0  0  0  0  0
    1.5460   24.9270   21.7290   C 0  0  0  0  0  0  0  0  0  0  0  0
    1.5230   22.9370   20.2300   C 0  0  0  0  0  0  0  0  0  0  0  0
    0.0820   24.9150   19.6930   C 0  0  0  0  0  0  0  0  0  0  0  0
    3.6800   26.7560   18.7220   N 0  0  0  0  0  0  0  0  0  0  0  0
    4.0640   28.1530   18.4910   C 0  0  0  0  0  0  0  0  0  0  0  0
    3.2970   28.7290   17.3100   C 0  0  0  0  0  0  0  0  0  0  0  0
    2.9620   28.0120   16.3730   O 0  0  0  0  0  0  0  0  0  0  0  0
    5.5660   28.2490   18.2070   C 0  0  0  0  0  0  0  0  0  0  0  0
    6.3520   28.1020   19.5110   C 0  0  0  0  0  0  0  0  0  0  0  0
    5.9790   28.8470   20.6230   C 0  0  0  0  0  0  0  0  0  0  0  0
    7.4280   27.2250   19.5620   C 0  0  0  0  0  0  0  0  0  0  0  0
    6.6930   28.7160   21.8090   C 0  0  0  0  0  0  0  0  0  0  0  0
    8.1370   27.1000   20.7510   C 0  0  0  0  0  0  0  0  0  0  0  0
    7.7710   27.8400   21.8690   C 0  0  0  0  0  0  0  0  0  0  0  0
    3.0910   30.0400   17.3820   N 0  0  0  0  0  0  0  0  0  0  0  0
    2.3720   30.7220   16.2530   C 0  0  0  0  0  0  0  0  0  0  0  0
    3.0440   32.0620   15.9940   C 0  0  0  0  0  0  0  0  0  0  0  0
    2.6860   33.0900   16.5650   O 0  0  0  0  0  0  0  0  0  0  0  0
    0.9320   30.9740   16.6510   C 0  0  0  0  0  0  0  0  0  0  0  0
    0.1370   31.3760   15.4140   C 0  0  0  0  0  0  0  0  0  0  0  0
    0.5090   31.0740   14.1060   N 0  3  0  0  0  0  0  0  0  0  0  0
   -1.0600   32.1140   15.3660   C 0  0  0  0  0  0  0  0  0  0  0  0
   -0.4580   31.6090   13.2570   C 0  0  0  0  0  0  0  0  0  0  0  0
   -1.4260   32.2670   14.0280   N 0  0  0  0  0  0  0  0  0  0  0  0
    4.0320   32.0130   15.1300   N 0  0  0  0  0  0  0  0  0  0  0  0
    4.9180   33.1770   14.9660   C 0  0  0  0  0  0  0  0  0  0  0  0
    6.3790   32.7570   15.1140   C 0  0  0  0  0  0  0  0  0  0  0  0
    6.7400   32.3700   16.5450   C 0  0  0  0  0  0  0  0  0  0  0  0
    6.3080   33.4030   17.5880   C 0  0  0  0  0  0  0  0  0  0  0  0
    8.2320   32.0600   16.6920   C 0  0  0  0  0  0  0  0  0  0  0  0
    6.5800   32.8580   18.9960   C 0  0  0  0  0  0  0  0  0  0  0  0
    8.5440   31.5320   18.0930   C 0  0  0  0  0  0  0  0  0  0  0  0
    8.0540   32.4910   19.1790   C 0  0  0  0  0  0  0  0  0  0  0  0
    4.6570   33.8330   13.6040   C 0  0  0  0  0  0  0  0  0  0  0  0
    5.2410   33.0280   12.5730   O 0  0  0  0  0  0  0  0  0  0  0  0
    3.1620   33.9930   13.3430   C 0  0  0  0  0  0  0  0  0  0  0  0
    2.9580   35.1140   12.4140   N 0  0  0  0  0  0  0  0  0  0  0  0
    2.5730   34.8420   11.0210   C 0  0  0  0  0  0  0  0  0  0  0  0
    1.1240   34.3860   10.9140   C 0  0  0  0  0  0  0  0  0  0  0  0
    0.1630   35.5610   10.9230   C 0  0  0  0  0  0  0  0  0  0  0  0
    0.8930   33.4470    9.7460   C 0  0  0  0  0  0  0  0  0  0  0  0
    3.0430   36.3530   12.8660   C 0  0  0  0  0  0  0  0  0  0  0  0
    3.2620   36.5440   14.0650   O 0  0  0  0  0  0  0  0  0  0  0  0
    3.0340   37.3660   12.0150   N 0  0  0  0  0  0  0  0  0  0  0  0
    2.9300   38.7370   12.5440   C 0  0  0  0  0  0  0  0  0  0  0  0
    1.4770   39.1560   12.6560   C 0  0  0  0  0  0  0  0  0  0  0  0
    0.7080   39.0870   11.6980   O 0  0  0  0  0  0  0  0  0  0  0  0
    3.6880   39.6980   11.6440   C 0  0  0  0  0  0  0  0  0  0  0  0
    3.8990   41.0230   12.3560   C 0  0  0  0  0  0  0  0  0  0  0  0
    4.0770   42.1490   11.3510   C 0  0  0  0  0  0  0  0  0  0  0  0
    3.7560   43.4800   12.0150   C 0  0  0  0  0  0  0  0  0  0  0  0
    3.8870   44.5620   11.0270   N 0  3  0  0  0  0  0  0  0  0  0  0
    1.0510   39.6000   13.8260   N 0  0  0  0  0  0  0  0  0  0  0  0
   -0.3710   39.9870   13.9450   C 0  0  0  0  0  0  0  0  0  0  0  0
   -0.4890   41.2800   14.7380   C 0  0  0  0  0  0  0  0  0  0  0  0
   -0.2760   42.3520   14.1700   O 0  0  0  0  0  0  0  0  0  0  0  0
   -1.1590   38.8810   14.6350   C 0  0  0  0  0  0  0  0  0  0  0  0
   -2.3310   38.2850   13.8600   C 0  0  0  0  0  0  0  0  0  0  0  0
   -3.4900   37.9290   14.5490   C 0  0  0  0  0  0  0  0  0  0  0  0
   -2.3070   38.0710   12.4850   C 0  0  0  0  0  0  0  0  0  0  0  0
   -4.5840   37.3830   13.8890   C 0  0  0  0  0  0  0  0  0  0  0  0
   -3.3950   37.5240   11.8100   C 0  0  0  0  0  0  0  0  0  0  0  0
   -4.5450   37.1760   12.5140   C 0  0  0  0  0  0  0  0  0  0  0  0
   -0.7930   41.1760   16.0170   O 0  0  0  0  0  0  0  0  0  0  0  0
  1  2  2  0  0  0  0
  2  3  1  0  0  0  0
  3  4  1  0  0  0  0
  4  5  1  0  0  0  0
  4  6  1  0  0  0  0
  4  7  1  0  0  0  0
  8  9  1  0  0  0  0
  9 10  1  0  0  0  0
  9 12  1  0  0  0  0
 10 11  2  0  0  0  0
 12 13  1  0  0  0  0
 13 14  2  0  0  0  0
 13 15  1  0  0  0  0
 14 16  1  0  0  0  0
 15 17  2  0  0  0  0
 16 18  2  0  0  0  0
 17 18  1  0  0  0  0
 19 20  1  0  0  0  0
 20 21  1  0  0  0  0
 20 23  1  0  0  0  0
 21 22  2  0  0  0  0
 23 24  1  0  0  0  0
 24 25  1  0  0  0  0
 24 26  2  0  0  0  0
 25 27  2  0  0  0  0
 26 28  1  0  0  0  0
 27 28  1  0  0  0  0
 29 30  1  0  0  0  0
 30 31  1  0  0  0  0
 30 38  1  0  0  0  0
 31 32  1  0  0  0  0
 32 33  1  0  0  0  0
 32 34  1  0  0  0  0
 33 35  1  0  0  0  0
 34 36  1  0  0  0  0
 35 37  1  0  0  0  0
 36 37  1  0  0  0  0
 38 39  1  0  0  0  0
 38 40  1  0  0  0  0
 40 41  1  0  0  0  0
 41 42  1  0  0  0  0
 41 46  1  0  0  0  0
 42 43  1  0  0  0  0
 43 44  1  0  0  0  0
 43 45  1  0  0  0  0
 46 47  2  0  0  0  0
 48 49  1  0  0  0  0
 49 50  1  0  0  0  0
 49 52  1  0  0  0  0
 50 51  2  0  0  0  0
 52 53  1  0  0  0  0
 53 54  1  0  0  0  0
 54 55  1  0  0  0  0
 55 56  1  0  0  0  0
 57 58  1  0  0  0  0
 58 59  1  0  0  0  0
 58 61  1  0  0  0  0
 59 60  2  0  0  0  0
 59 68  1  0  0  0  0
 61 62  1  0  0  0  0
 62 63  2  0  0  0  0
 62 64  1  0  0  0  0
 63 65  1  0  0  0  0
 64 66  2  0  0  0  0
 65 67  2  0  0  0  0
 66 67  1  0  0  0  0
  2  8  1  0  0  0  0
 10 19  1  0  0  0  0
 21 29  1  0  0  0  0
 46 48  1  0  0  0  0
 50 57  1  0  0  0  0
M  CHG  2  25   1  56   1
A    1
O1
A    2
C
A    3
O2
A    4
CT
A    5
C1
A    6
C2
A    7
C3
A    8
N
A    9
CA
A   10
C4
A   11
O
A   12
CB
A   13
CG
A   14
CD1
A   15
CD2
A   16
CE1
A   17
CE2
A   18
CZ
A   19
N1
A   20
CA1
A   21
C5
A   22
O3
A   23
CB1
A   24
CG1
A   25
ND1
A   26
CD21
A   27
CE11
A   28
NE2
A   29
N2
A   30
CA2
A   31
CB2
A   32
CG2
A   33
CD11
A   34
CD22
A   35
CE12
A   36
CE21
A   37
CZ1
A   38
CH
A   39
OH
A   40
CM
A   41
N11
A   42
CB21
A   43
CG21
A   44
CD3
A   45
CD4
A   46
C6
A   47
O4
A   48
N3
A   49
CA3
A   50
C7
A   51
O5
A   52
CB3
A   53
CG3
A   54
CD
A   55
CE
A   56
NZ
A   57
N4
A   58
CA4
A   59
C8
A   60
O6
A   61
CB4
A   62
CG4
A   63
CD12
A   64
CD23
A   65
CE13
A   66
CE22
A   67
CZ2
A   68
OXT
M  END
>  <InstanceId>
5ER2_0EK_E_327

>  <ChemCompId>
0EK

>  <PdbId>
5ER2

>  <ChainId>
E

>  <ResidueNumber>
327

>  <InsertionCode>


>  <Model>
1

>  <AltIds>


>  <MissingHeavyAtoms>
0

>  <ObservedFormula>
C50 N9 O9

>  <Name>
6-ammonio-N-{[(2R,3R)-3-{[N-(tert-butoxycarbonyl)-L-phenylalanyl-3-(1H-imidazol-3-ium-4-yl)-L-alanyl]amino}-4-cyclohexyl-2-hydroxybutyl](2-methylpropyl)carbamoyl}-L-norleucyl-L-phenylalanine

>  <SystematicName>
[(5S)-5-[[[(2S,3S)-4-cyclohexyl-2-hydroxy-3-[[(2S)-3-(1H-imidazol-3-ium-4-yl)-2-[[(2S)-2-[(2-methylpropan-2-yl)oxycarbonylamino]-3-phenyl-propanoyl]amino]propanoyl]amino]butyl]-(2-methylpropyl)carbamoyl]amino]-6-[[(2S)-1-hydroxy-1-oxo-3-phenyl-propan-2-yl]amino]-6-oxo-hexyl]azanium

>  <Synonyms>
CP-69,799

>  <Type>
peptide-like

>  <Formula>
C50 H77 N9 O9

>  <MolecularWeight>
948.201

>  <ModifiedDate>
2011-07-13

>  <Parent>


>  <OneLetterCode>


>  <SubcomponentList>
BOC PHE HIS AHS LYS PHE

>  <AmbiguousFlag>
N

>  <InChI>
InChI=1S/C50H75N9O9/c1-33(2)30-59(48(66)57-38(23-15-16-24-51)44(61)56-42(47(64)65)27-36-21-13-8-14-22-36)31-43(60)39(25-34-17-9-6-10-18-34)54-46(63)41(28-37-29-52-32-53-37)55-45(62)40(26-35-19-11-7-12-20-35)58-49(67)68-50(3,4)5/h7-8,11-14,19-22,29,32-34,38-43,60H,6,9-10,15-18,23-28,30-31,51H2,1-5H3,(H,52,53)(H,54,63)(H,55,62)(H,56,61)(H,57,66)(H,58,67)(H,64,65)/p+2/t38-,39-,40-,41-,42-,43-/m0/s1

>  <InChIKey>
QBCYEBFUOBJJAC-KHVQSSSXSA-P

>  <SMILES>


$$$$
