4ZB6_GDS_A_300


 52 51  0  0  0  0  0  0  0  0999 V2000
   24.4604    2.9473   10.3351 S   0  0  0  0  0  0  0  0  0  0  0  0
   26.2501    3.0461   10.5187 C   0  0  0  0  0  0  0  0  0  0  0  0
   26.5438    4.1303   11.5494 C   0  0  0  0  0  0  0  0  0  0  0  0
   27.6897    4.9418   10.9857 C   0  0  0  0  0  0  0  0  0  0  0  0
   27.5817    5.5016    9.8810 O   0  0  0  0  0  0  0  0  0  0  0  0
   28.8176    4.9826   11.7132 N   0  0  0  0  0  0  0  0  0  0  0  0
   28.8679    4.5294   12.5857 H   0  0  0  0  0  0  0  0  0  0  0  0
   29.9484    5.6988   11.1959 C   0  0  0  0  0  0  0  0  0  0  0  0
   31.1712    4.8399   11.4312 C   0  0  0  0  0  0  0  0  0  0  0  0
   31.2874    4.3922   12.6045 O   0  0  0  0  0  0  0  0  0  0  0  0
   31.9402    4.6502   10.4929 O   0  0  0  0  0  0  0  0  0  0  0  0
   31.7608    5.0309    9.6558 H   0  0  0  0  0  0  0  0  0  0  0  0
   25.0574    5.3897   13.0362 C   0  0  0  0  0  0  0  0  0  0  0  0
   25.7801    5.1016   13.9914 O   0  0  0  0  0  0  0  0  0  0  0  0
   25.3645    4.9492   11.7627 N   0  0  0  0  0  0  0  0  0  0  0  0
   24.7858    5.1898   11.0035 H   0  0  0  0  0  0  0  0  0  0  0  0
   23.7909    6.2253   13.1430 C   0  0  0  0  0  0  0  0  0  0  0  0
   23.5102    6.9297   11.8234 C   0  0  0  0  0  0  0  0  0  0  0  0
   22.6956    9.2532   11.4602 N   0  0  0  0  0  0  0  0  0  0  0  0
   23.8348    8.4432   11.9608 C   0  0  0  0  0  0  0  0  0  0  0  0
   22.9162   10.2446   11.5538 H   0  0  0  0  0  0  0  0  0  0  0  0
   21.8602    9.0380   12.0045 H   0  0  0  0  0  0  0  0  0  0  0  0
   25.1250    8.7692   11.2042 C   0  0  0  0  0  0  0  0  0  0  0  0
   25.3634    9.9976   11.0197 O   0  0  0  0  0  0  0  0  0  0  0  0
   25.8256    7.8439   10.8026 O   0  0  0  0  0  0  0  0  0  0  0  0
   25.5791    6.9578   10.9814 H   0  0  0  0  0  0  0  0  0  0  0  0
   24.2125    2.3598    8.3928 S   0  0  0  0  0  0  0  0  0  0  0  0
   25.3244    0.9399    8.1849 C   0  0  0  0  0  0  0  0  0  0  0  0
   24.5432   -0.2715    7.6792 C   0  0  0  0  0  0  0  0  0  0  0  0
   23.2037   -0.4472    8.3023 N   0  0  0  0  0  0  0  0  0  0  0  0
   22.0486   -0.3459    7.5164 C   0  0  0  0  0  0  0  0  0  0  0  0
   22.1590   -0.0844    6.3172 O   0  0  0  0  0  0  0  0  0  0  0  0
   23.1292   -0.6345    9.2660 H   0  0  0  0  0  0  0  0  0  0  0  0
   20.7123   -0.5641    8.2130 C   0  0  0  0  0  0  0  0  0  0  0  0
   20.7952   -0.0080    9.6359 C   0  0  0  0  0  0  0  0  0  0  0  0
   20.6501   -1.1870   10.6375 C   0  0  0  0  0  0  0  0  0  0  0  0
   19.3692   -1.9125   10.4078 N   0  0  0  0  0  0  0  0  0  0  0  0
   18.5868   -1.2722   10.5430 H   0  0  0  0  0  0  0  0  0  0  0  0
   19.2934   -2.6861   11.0682 H   0  0  0  0  0  0  0  0  0  0  0  0
   20.7224   -0.6433   12.0617 C   0  0  0  0  0  0  0  0  0  0  0  0
   21.6926    0.1232   12.3111 O   0  0  0  0  0  0  0  0  0  0  0  0
   19.8353   -0.9508   12.8552 O   0  0  0  0  0  0  0  0  0  0  0  0
   19.1477   -1.5287   12.5884 H   0  0  0  0  0  0  0  0  0  0  0  0
   26.5471   -1.2985    8.7199 N   0  0  0  0  0  0  0  0  0  0  0  0
   25.3865   -1.4882    8.0394 C   0  0  0  0  0  0  0  0  0  0  0  0
   24.9952   -2.6181    7.6913 O   0  0  0  0  0  0  0  0  0  0  0  0
   26.8388   -0.3929    8.9729 H   0  0  0  0  0  0  0  0  0  0  0  0
   27.3601   -2.4757    9.0715 C   0  0  0  0  0  0  0  0  0  0  0  0
   27.1391   -2.9005   10.5147 C   0  0  0  0  0  0  0  0  0  0  0  0
   26.3956   -2.1423   11.2013 O   0  0  0  0  0  0  0  0  0  0  0  0
   27.6840   -3.9244   10.9089 O   0  0  0  0  0  0  0  0  0  0  0  0
   28.2199   -4.4245   10.3251 H   0  0  0  0  0  0  0  0  0  0  0  0
 19 20  1  0  0  0
 20 23  1  0  0  0
 20 18  1  0  0  0
 23 24  2  0  0  0
 23 25  1  0  0  0
 18 17  1  0  0  0
 17 13  1  0  0  0
 13 14  2  0  0  0
 13 15  1  0  0  0
 15  3  1  0  0  0
  3  4  1  0  0  0
  3  2  1  0  0  0
  4  5  2  0  0  0
  4  6  1  0  0  0
  2  1  1  0  0  0
  1 27  1  0  0  0
  6  8  1  0  0  0
  8  9  1  0  0  0
  9 10  2  0  0  0
  9 11  1  0  0  0
 44 48  1  0  0  0
 44 45  1  0  0  0
 48 49  1  0  0  0
 49 50  2  0  0  0
 49 51  1  0  0  0
 45 46  2  0  0  0
 45 29  1  0  0  0
 29 30  1  0  0  0
 29 28  1  0  0  0
 30 31  1  0  0  0
 28 27  1  0  0  0
 36 40  1  0  0  0
 36 37  1  0  0  0
 36 35  1  0  0  0
 40 41  2  0  0  0
 40 42  1  0  0  0
 35 34  1  0  0  0
 34 31  1  0  0  0
 31 32  2  0  0  0
 19 21  1  0  0  0
 19 22  1  0  0  0
 25 26  1  0  0  0
 15 16  1  0  0  0
  6  7  1  0  0  0
 11 12  1  0  0  0
 44 47  1  0  0  0
 51 52  1  0  0  0
 30 33  1  0  0  0
 42 43  1  0  0  0
 37 38  1  0  0  0
 37 39  1  0  0  0
M  END
> <minimizedAffinity>
-9.04287

$$$$
4ZB6_GDS_A_300


 52 51  0  0  0  0  0  0  0  0999 V2000
   25.3346    1.7211    8.0074 S   0  0  0  0  0  0  0  0  0  0  0  0
   26.0301    0.1346    8.5032 C   0  0  0  0  0  0  0  0  0  0  0  0
   24.9422   -0.9176    8.3204 C   0  0  0  0  0  0  0  0  0  0  0  0
   25.5143   -2.2078    8.8657 C   0  0  0  0  0  0  0  0  0  0  0  0
   24.9338   -3.2887    8.6654 O   0  0  0  0  0  0  0  0  0  0  0  0
   26.6355   -2.1106    9.5983 N   0  0  0  0  0  0  0  0  0  0  0  0
   27.0707   -1.2382    9.7351 H   0  0  0  0  0  0  0  0  0  0  0  0
   27.1879   -3.3013   10.1780 C   0  0  0  0  0  0  0  0  0  0  0  0
   27.2053   -3.1054   11.6779 C   0  0  0  0  0  0  0  0  0  0  0  0
   28.2755   -3.4549   12.2463 O   0  0  0  0  0  0  0  0  0  0  0  0
   26.2057   -2.6385   12.2169 O   0  0  0  0  0  0  0  0  0  0  0  0
   25.4582   -2.4101   11.7001 H   0  0  0  0  0  0  0  0  0  0  0  0
   22.5094   -0.6377    8.4172 C   0  0  0  0  0  0  0  0  0  0  0  0
   22.4199   -1.0798    7.2709 O   0  0  0  0  0  0  0  0  0  0  0  0
   23.7411   -0.5232    9.0337 N   0  0  0  0  0  0  0  0  0  0  0  0
   23.8036   -0.1757    9.9527 H   0  0  0  0  0  0  0  0  0  0  0  0
   21.3237   -0.1792    9.2526 C   0  0  0  0  0  0  0  0  0  0  0  0
   21.7089   -0.1113   10.7234 C   0  0  0  0  0  0  0  0  0  0  0  0
   20.2094   -0.7757   12.5954 N   0  0  0  0  0  0  0  0  0  0  0  0
   21.0535   -1.2940   11.4892 C   0  0  0  0  0  0  0  0  0  0  0  0
   19.7831   -1.5576   13.0928 H   0  0  0  0  0  0  0  0  0  0  0  0
   19.4779   -0.1766   12.2129 H   0  0  0  0  0  0  0  0  0  0  0  0
   22.1378   -2.2396   12.0120 C   0  0  0  0  0  0  0  0  0  0  0  0
   21.7799   -3.0445   12.9198 O   0  0  0  0  0  0  0  0  0  0  0  0
   23.2737   -2.1485   11.5542 O   0  0  0  0  0  0  0  0  0  0  0  0
   23.4585   -1.5243   10.8802 H   0  0  0  0  0  0  0  0  0  0  0  0
   24.9525    2.6510    9.7875 S   0  0  0  0  0  0  0  0  0  0  0  0
   26.5717    3.2222   10.3772 C   0  0  0  0  0  0  0  0  0  0  0  0
   26.4042    4.0732   11.6347 C   0  0  0  0  0  0  0  0  0  0  0  0
   25.2460    5.0064   11.5998 N   0  0  0  0  0  0  0  0  0  0  0  0
   24.4289    5.1487   12.7287 C   0  0  0  0  0  0  0  0  0  0  0  0
   24.6677    4.4739   13.7318 O   0  0  0  0  0  0  0  0  0  0  0  0
   25.0541    5.5233   10.7842 H   0  0  0  0  0  0  0  0  0  0  0  0
   23.2780    6.1410   12.6333 C   0  0  0  0  0  0  0  0  0  0  0  0
   23.3787    6.8953   11.3060 C   0  0  0  0  0  0  0  0  0  0  0  0
   23.8655    8.3424   11.5946 C   0  0  0  0  0  0  0  0  0  0  0  0
   23.4815    9.2542   10.4806 N   0  0  0  0  0  0  0  0  0  0  0  0
   23.9124    8.9324    9.6139 H   0  0  0  0  0  0  0  0  0  0  0  0
   23.8023   10.1997   10.6892 H   0  0  0  0  0  0  0  0  0  0  0  0
   25.3787    8.3293   11.7932 C   0  0  0  0  0  0  0  0  0  0  0  0
   25.7906    8.7176   12.9204 O   0  0  0  0  0  0  0  0  0  0  0  0
   26.0893    7.9211   10.8770 O   0  0  0  0  0  0  0  0  0  0  0  0
   25.7015    7.6506   10.0681 H   0  0  0  0  0  0  0  0  0  0  0  0
   28.6000    4.8164   10.7518 N   0  0  0  0  0  0  0  0  0  0  0  0
   27.6726    4.9105   11.7403 C   0  0  0  0  0  0  0  0  0  0  0  0
   27.8286    5.6473   12.7322 O   0  0  0  0  0  0  0  0  0  0  0  0
   28.4566    4.2171    9.9840 H   0  0  0  0  0  0  0  0  0  0  0  0
   29.8244    5.6294   10.8523 C   0  0  0  0  0  0  0  0  0  0  0  0
   31.0179    4.7959   11.2917 C   0  0  0  0  0  0  0  0  0  0  0  0
   30.9734    4.3575   12.4769 O   0  0  0  0  0  0  0  0  0  0  0  0
   31.9235    4.6092   10.4881 O   0  0  0  0  0  0  0  0  0  0  0  0
   31.8690    4.9756    9.6274 H   0  0  0  0  0  0  0  0  0  0  0  0
 19 20  1  0  0  0
 20 23  1  0  0  0
 20 18  1  0  0  0
 23 24  2  0  0  0
 23 25  1  0  0  0
 18 17  1  0  0  0
 17 13  1  0  0  0
 13 14  2  0  0  0
 13 15  1  0  0  0
 15  3  1  0  0  0
  3  4  1  0  0  0
  3  2  1  0  0  0
  4  5  2  0  0  0
  4  6  1  0  0  0
  2  1  1  0  0  0
  1 27  1  0  0  0
  6  8  1  0  0  0
  8  9  1  0  0  0
  9 10  2  0  0  0
  9 11  1  0  0  0
 44 48  1  0  0  0
 44 45  1  0  0  0
 48 49  1  0  0  0
 49 50  2  0  0  0
 49 51  1  0  0  0
 45 46  2  0  0  0
 45 29  1  0  0  0
 29 30  1  0  0  0
 29 28  1  0  0  0
 30 31  1  0  0  0
 28 27  1  0  0  0
 36 40  1  0  0  0
 36 37  1  0  0  0
 36 35  1  0  0  0
 40 41  2  0  0  0
 40 42  1  0  0  0
 35 34  1  0  0  0
 34 31  1  0  0  0
 31 32  2  0  0  0
 19 21  1  0  0  0
 19 22  1  0  0  0
 25 26  1  0  0  0
 15 16  1  0  0  0
  6  7  1  0  0  0
 11 12  1  0  0  0
 44 47  1  0  0  0
 51 52  1  0  0  0
 30 33  1  0  0  0
 42 43  1  0  0  0
 37 38  1  0  0  0
 37 39  1  0  0  0
M  END
> <minimizedAffinity>
-9.04025

$$$$
4ZB6_GDS_A_300


 52 51  0  0  0  0  0  0  0  0999 V2000
   24.7183    2.5693    7.3810 S   0  0  0  0  0  0  0  0  0  0  0  0
   25.8072    1.1425    7.5392 C   0  0  0  0  0  0  0  0  0  0  0  0
   26.3747    1.1564    8.9541 C   0  0  0  0  0  0  0  0  0  0  0  0
   27.3239   -0.0191    9.0340 C   0  0  0  0  0  0  0  0  0  0  0  0
   28.4487    0.0425    8.5081 O   0  0  0  0  0  0  0  0  0  0  0  0
   26.8716   -1.1211    9.6538 N   0  0  0  0  0  0  0  0  0  0  0  0
   25.9756   -1.1347   10.0616 H   0  0  0  0  0  0  0  0  0  0  0  0
   27.7177   -2.2787    9.7110 C   0  0  0  0  0  0  0  0  0  0  0  0
   27.7076   -2.7734   11.1405 C   0  0  0  0  0  0  0  0  0  0  0  0
   26.6528   -2.5179   11.7830 O   0  0  0  0  0  0  0  0  0  0  0  0
   28.6980   -3.3659   11.5598 O   0  0  0  0  0  0  0  0  0  0  0  0
   29.4341   -3.5048   10.9970 H   0  0  0  0  0  0  0  0  0  0  0  0
   26.7234    3.1637   10.3162 C   0  0  0  0  0  0  0  0  0  0  0  0
   25.8565    2.7741   11.0999 O   0  0  0  0  0  0  0  0  0  0  0  0
   27.0582    2.4120    9.2057 N   0  0  0  0  0  0  0  0  0  0  0  0
   27.7572    2.7267    8.5881 H   0  0  0  0  0  0  0  0  0  0  0  0
   27.4919    4.4675   10.4694 C   0  0  0  0  0  0  0  0  0  0  0  0
   28.4998    4.3561   11.6043 C   0  0  0  0  0  0  0  0  0  0  0  0
   29.4401    6.1191   10.1204 N   0  0  0  0  0  0  0  0  0  0  0  0
   29.6063    5.4326   11.4265 C   0  0  0  0  0  0  0  0  0  0  0  0
   30.1696    6.8236   10.0114 H   0  0  0  0  0  0  0  0  0  0  0  0
   28.5252    6.5688   10.0867 H   0  0  0  0  0  0  0  0  0  0  0  0
   30.9875    4.7829   11.5425 C   0  0  0  0  0  0  0  0  0  0  0  0
   31.2975    4.3417   12.6867 O   0  0  0  0  0  0  0  0  0  0  0  0
   31.7121    4.7519   10.5515 O   0  0  0  0  0  0  0  0  0  0  0  0
   31.4074    5.1010    9.7371 H   0  0  0  0  0  0  0  0  0  0  0  0
   22.9348    1.8912    8.1149 S   0  0  0  0  0  0  0  0  0  0  0  0
   23.2530    1.5296    9.8652 C   0  0  0  0  0  0  0  0  0  0  0  0
   22.2767    2.3038   10.7491 C   0  0  0  0  0  0  0  0  0  0  0  0
   22.9222    3.2169   11.7305 N   0  0  0  0  0  0  0  0  0  0  0  0
   22.8713    4.6029   11.5338 C   0  0  0  0  0  0  0  0  0  0  0  0
   22.3118    5.0469   10.5296 O   0  0  0  0  0  0  0  0  0  0  0  0
   23.3845    2.8474   12.5172 H   0  0  0  0  0  0  0  0  0  0  0  0
   23.5285    5.4797   12.5911 C   0  0  0  0  0  0  0  0  0  0  0  0
   24.6989    6.2334   11.9566 C   0  0  0  0  0  0  0  0  0  0  0  0
   24.3440    7.7452   11.9037 C   0  0  0  0  0  0  0  0  0  0  0  0
   23.2945    7.9994   10.8772 N   0  0  0  0  0  0  0  0  0  0  0  0
   23.6391    7.7136    9.9607 H   0  0  0  0  0  0  0  0  0  0  0  0
   23.0690    8.9940   10.8606 H   0  0  0  0  0  0  0  0  0  0  0  0
   25.6088    8.5442   11.6018 C   0  0  0  0  0  0  0  0  0  0  0  0
   25.4465    9.6038   10.9370 O   0  0  0  0  0  0  0  0  0  0  0  0
   26.6821    8.1357   12.0403 O   0  0  0  0  0  0  0  0  0  0  0  0
   26.7154    7.3354   12.5264 H   0  0  0  0  0  0  0  0  0  0  0  0
   21.4608   -0.0191   11.0522 N   0  0  0  0  0  0  0  0  0  0  0  0
   21.5032    1.2510   11.5329 C   0  0  0  0  0  0  0  0  0  0  0  0
   20.9238    1.5854   12.5834 O   0  0  0  0  0  0  0  0  0  0  0  0
   21.9185   -0.2540   10.2127 H   0  0  0  0  0  0  0  0  0  0  0  0
   20.7162   -1.0377   11.8127 C   0  0  0  0  0  0  0  0  0  0  0  0
   21.6469   -1.9254   12.6237 C   0  0  0  0  0  0  0  0  0  0  0  0
   21.9210   -1.5134   13.7872 O   0  0  0  0  0  0  0  0  0  0  0  0
   22.0614   -2.9566   12.1084 O   0  0  0  0  0  0  0  0  0  0  0  0
   21.8028   -3.1813   11.2362 H   0  0  0  0  0  0  0  0  0  0  0  0
 19 20  1  0  0  0
 20 23  1  0  0  0
 20 18  1  0  0  0
 23 24  2  0  0  0
 23 25  1  0  0  0
 18 17  1  0  0  0
 17 13  1  0  0  0
 13 14  2  0  0  0
 13 15  1  0  0  0
 15  3  1  0  0  0
  3  4  1  0  0  0
  3  2  1  0  0  0
  4  5  2  0  0  0
  4  6  1  0  0  0
  2  1  1  0  0  0
  1 27  1  0  0  0
  6  8  1  0  0  0
  8  9  1  0  0  0
  9 10  2  0  0  0
  9 11  1  0  0  0
 44 48  1  0  0  0
 44 45  1  0  0  0
 48 49  1  0  0  0
 49 50  2  0  0  0
 49 51  1  0  0  0
 45 46  2  0  0  0
 45 29  1  0  0  0
 29 30  1  0  0  0
 29 28  1  0  0  0
 30 31  1  0  0  0
 28 27  1  0  0  0
 36 40  1  0  0  0
 36 37  1  0  0  0
 36 35  1  0  0  0
 40 41  2  0  0  0
 40 42  1  0  0  0
 35 34  1  0  0  0
 34 31  1  0  0  0
 31 32  2  0  0  0
 19 21  1  0  0  0
 19 22  1  0  0  0
 25 26  1  0  0  0
 15 16  1  0  0  0
  6  7  1  0  0  0
 11 12  1  0  0  0
 44 47  1  0  0  0
 51 52  1  0  0  0
 30 33  1  0  0  0
 42 43  1  0  0  0
 37 38  1  0  0  0
 37 39  1  0  0  0
M  END
> <minimizedAffinity>
-8.99767

$$$$
4ZB6_GDS_A_300


 52 51  0  0  0  0  0  0  0  0999 V2000
   25.5801    1.6053    7.8446 S   0  0  0  0  0  0  0  0  0  0  0  0
   24.2870    0.3852    7.5517 C   0  0  0  0  0  0  0  0  0  0  0  0
   24.0691   -0.3709    8.8574 C   0  0  0  0  0  0  0  0  0  0  0  0
   22.5940   -0.2458    9.1703 C   0  0  0  0  0  0  0  0  0  0  0  0
   21.8529    0.4428    8.4478 O   0  0  0  0  0  0  0  0  0  0  0  0
   22.1542   -0.8724   10.2735 N   0  0  0  0  0  0  0  0  0  0  0  0
   22.7686   -1.4118   10.8220 H   0  0  0  0  0  0  0  0  0  0  0  0
   20.7726   -0.7417   10.6384 C   0  0  0  0  0  0  0  0  0  0  0  0
   20.7261   -0.4123   12.1141 C   0  0  0  0  0  0  0  0  0  0  0  0
   21.5855    0.4273   12.4977 O   0  0  0  0  0  0  0  0  0  0  0  0
   19.8837   -0.9719   12.8105 O   0  0  0  0  0  0  0  0  0  0  0  0
   19.2879   -1.5834   12.4245 H   0  0  0  0  0  0  0  0  0  0  0  0
   25.0963   -2.4110    9.7456 C   0  0  0  0  0  0  0  0  0  0  0  0
   25.3172   -1.8288   10.8085 O   0  0  0  0  0  0  0  0  0  0  0  0
   24.4658   -1.7586    8.7030 N   0  0  0  0  0  0  0  0  0  0  0  0
   24.2864   -2.2331    7.8592 H   0  0  0  0  0  0  0  0  0  0  0  0
   25.4812   -3.8557    9.4653 C   0  0  0  0  0  0  0  0  0  0  0  0
   26.9451   -4.0886    9.8104 C   0  0  0  0  0  0  0  0  0  0  0  0
   25.7401   -5.5404   11.4334 N   0  0  0  0  0  0  0  0  0  0  0  0
   27.0465   -4.9035   11.1297 C   0  0  0  0  0  0  0  0  0  0  0  0
   25.8149   -6.0731   12.3001 H   0  0  0  0  0  0  0  0  0  0  0  0
   25.4816   -6.1665   10.6708 H   0  0  0  0  0  0  0  0  0  0  0  0
   27.4998   -3.9903   12.2715 C   0  0  0  0  0  0  0  0  0  0  0  0
   27.4807   -4.4999   13.4290 O   0  0  0  0  0  0  0  0  0  0  0  0
   27.8216   -2.8337   12.0124 O   0  0  0  0  0  0  0  0  0  0  0  0
   27.8094   -2.5316   11.1255 H   0  0  0  0  0  0  0  0  0  0  0  0
   25.1560    2.3089    9.7166 S   0  0  0  0  0  0  0  0  0  0  0  0
   26.6893    3.1006   10.2805 C   0  0  0  0  0  0  0  0  0  0  0  0
   26.4199    3.9435   11.5257 C   0  0  0  0  0  0  0  0  0  0  0  0
   25.2188    4.8165   11.4331 N   0  0  0  0  0  0  0  0  0  0  0  0
   24.3033    4.8600   12.4925 C   0  0  0  0  0  0  0  0  0  0  0  0
   24.4941    4.1492   13.4808 O   0  0  0  0  0  0  0  0  0  0  0  0
   25.0676    5.3630   10.6283 H   0  0  0  0  0  0  0  0  0  0  0  0
   23.1111    5.7954   12.3431 C   0  0  0  0  0  0  0  0  0  0  0  0
   23.3774    6.7620   11.1875 C   0  0  0  0  0  0  0  0  0  0  0  0
   23.7440    8.1514   11.7787 C   0  0  0  0  0  0  0  0  0  0  0  0
   23.1045    9.2403   10.9881 N   0  0  0  0  0  0  0  0  0  0  0  0
   23.4346    9.1993   10.0238 H   0  0  0  0  0  0  0  0  0  0  0  0
   23.3496   10.1437   11.3932 H   0  0  0  0  0  0  0  0  0  0  0  0
   25.2626    8.3037   11.7900 C   0  0  0  0  0  0  0  0  0  0  0  0
   25.7465    8.9344   12.7692 O   0  0  0  0  0  0  0  0  0  0  0  0
   25.9128    7.7884   10.8830 O   0  0  0  0  0  0  0  0  0  0  0  0
   25.4734    7.3360   10.1900 H   0  0  0  0  0  0  0  0  0  0  0  0
   28.6487    4.7424   10.7853 N   0  0  0  0  0  0  0  0  0  0  0  0
   27.6378    4.8445   11.6875 C   0  0  0  0  0  0  0  0  0  0  0  0
   27.6776    5.6393   12.6455 O   0  0  0  0  0  0  0  0  0  0  0  0
   28.5965    4.0973   10.0434 H   0  0  0  0  0  0  0  0  0  0  0  0
   29.8242    5.6168   10.9398 C   0  0  0  0  0  0  0  0  0  0  0  0
   31.0538    4.8339   11.3726 C   0  0  0  0  0  0  0  0  0  0  0  0
   31.0650    4.4540   12.5786 O   0  0  0  0  0  0  0  0  0  0  0  0
   31.9329    4.6284   10.5445 O   0  0  0  0  0  0  0  0  0  0  0  0
   31.8369    4.9502    9.6697 H   0  0  0  0  0  0  0  0  0  0  0  0
 19 20  1  0  0  0
 20 23  1  0  0  0
 20 18  1  0  0  0
 23 24  2  0  0  0
 23 25  1  0  0  0
 18 17  1  0  0  0
 17 13  1  0  0  0
 13 14  2  0  0  0
 13 15  1  0  0  0
 15  3  1  0  0  0
  3  4  1  0  0  0
  3  2  1  0  0  0
  4  5  2  0  0  0
  4  6  1  0  0  0
  2  1  1  0  0  0
  1 27  1  0  0  0
  6  8  1  0  0  0
  8  9  1  0  0  0
  9 10  2  0  0  0
  9 11  1  0  0  0
 44 48  1  0  0  0
 44 45  1  0  0  0
 48 49  1  0  0  0
 49 50  2  0  0  0
 49 51  1  0  0  0
 45 46  2  0  0  0
 45 29  1  0  0  0
 29 30  1  0  0  0
 29 28  1  0  0  0
 30 31  1  0  0  0
 28 27  1  0  0  0
 36 40  1  0  0  0
 36 37  1  0  0  0
 36 35  1  0  0  0
 40 41  2  0  0  0
 40 42  1  0  0  0
 35 34  1  0  0  0
 34 31  1  0  0  0
 31 32  2  0  0  0
 19 21  1  0  0  0
 19 22  1  0  0  0
 25 26  1  0  0  0
 15 16  1  0  0  0
  6  7  1  0  0  0
 11 12  1  0  0  0
 44 47  1  0  0  0
 51 52  1  0  0  0
 30 33  1  0  0  0
 42 43  1  0  0  0
 37 38  1  0  0  0
 37 39  1  0  0  0
M  END
> <minimizedAffinity>
-8.85288

$$$$
4ZB6_GDS_A_300


 52 51  0  0  0  0  0  0  0  0999 V2000
   21.5094    3.1063   12.0422 S   0  0  0  0  0  0  0  0  0  0  0  0
   22.7713    4.0880   12.8729 C   0  0  0  0  0  0  0  0  0  0  0  0
   23.7934    4.5022   11.8204 C   0  0  0  0  0  0  0  0  0  0  0  0
   23.3852    5.8862   11.3649 C   0  0  0  0  0  0  0  0  0  0  0  0
   22.7934    6.0444   10.2832 O   0  0  0  0  0  0  0  0  0  0  0  0
   23.7318    6.9115   12.1597 N   0  0  0  0  0  0  0  0  0  0  0  0
   24.1983    6.7499   13.0114 H   0  0  0  0  0  0  0  0  0  0  0  0
   23.4100    8.2470   11.7451 C   0  0  0  0  0  0  0  0  0  0  0  0
   24.7132    8.9456   11.4257 C   0  0  0  0  0  0  0  0  0  0  0  0
   25.4836    9.1078   12.4110 O   0  0  0  0  0  0  0  0  0  0  0  0
   24.9183    9.2966   10.2671 O   0  0  0  0  0  0  0  0  0  0  0  0
   24.2767    9.1270    9.6056 H   0  0  0  0  0  0  0  0  0  0  0  0
   26.2228    4.2921   11.5751 C   0  0  0  0  0  0  0  0  0  0  0  0
   26.0784    4.1161   10.3644 O   0  0  0  0  0  0  0  0  0  0  0  0
   25.1276    4.5008   12.3920 N   0  0  0  0  0  0  0  0  0  0  0  0
   25.2519    4.6478   13.3575 H   0  0  0  0  0  0  0  0  0  0  0  0
   27.5681    4.2945   12.2850 C   0  0  0  0  0  0  0  0  0  0  0  0
   28.5222    5.2660   11.6049 C   0  0  0  0  0  0  0  0  0  0  0  0
   30.4379    4.2179   12.7989 N   0  0  0  0  0  0  0  0  0  0  0  0
   29.9225    4.6076   11.4621 C   0  0  0  0  0  0  0  0  0  0  0  0
   31.3566    3.7868   12.6967 H   0  0  0  0  0  0  0  0  0  0  0  0
   29.7962    3.5524   13.2300 H   0  0  0  0  0  0  0  0  0  0  0  0
   30.8800    5.5700   10.7549 C   0  0  0  0  0  0  0  0  0  0  0  0
   30.3391    6.5023   10.0928 O   0  0  0  0  0  0  0  0  0  0  0  0
   32.0890    5.3732   10.8427 O   0  0  0  0  0  0  0  0  0  0  0  0
   32.4113    4.6580   11.3551 H   0  0  0  0  0  0  0  0  0  0  0  0
   22.5601    2.0916   10.6119 S   0  0  0  0  0  0  0  0  0  0  0  0
   21.3516    0.9769    9.8421 C   0  0  0  0  0  0  0  0  0  0  0  0
   22.0524   -0.2694    9.3043 C   0  0  0  0  0  0  0  0  0  0  0  0
   23.5381   -0.1921    9.3056 N   0  0  0  0  0  0  0  0  0  0  0  0
   24.2980   -1.3520    9.5043 C   0  0  0  0  0  0  0  0  0  0  0  0
   23.7200   -2.4220    9.7031 O   0  0  0  0  0  0  0  0  0  0  0  0
   23.9867    0.6732    9.1669 H   0  0  0  0  0  0  0  0  0  0  0  0
   25.8131   -1.2056    9.4662 C   0  0  0  0  0  0  0  0  0  0  0  0
   26.2228   -0.6103    8.1177 C   0  0  0  0  0  0  0  0  0  0  0  0
   26.6670    0.8618    8.3407 C   0  0  0  0  0  0  0  0  0  0  0  0
   26.5040    1.2452    9.7712 N   0  0  0  0  0  0  0  0  0  0  0  0
   25.5232    1.1572   10.0371 H   0  0  0  0  0  0  0  0  0  0  0  0
   26.8061    2.2107    9.9010 H   0  0  0  0  0  0  0  0  0  0  0  0
   25.8456    1.7736    7.4334 C   0  0  0  0  0  0  0  0  0  0  0  0
   26.2973    2.9396    7.2682 O   0  0  0  0  0  0  0  0  0  0  0  0
   24.8331    1.3202    6.9039 O   0  0  0  0  0  0  0  0  0  0  0  0
   24.5659    0.4398    7.0811 H   0  0  0  0  0  0  0  0  0  0  0  0
   22.0896    0.4534    6.9315 N   0  0  0  0  0  0  0  0  0  0  0  0
   21.5957   -0.4096    7.8575 C   0  0  0  0  0  0  0  0  0  0  0  0
   20.7764   -1.3015    7.5670 O   0  0  0  0  0  0  0  0  0  0  0  0
   22.7277    1.1569    7.1905 H   0  0  0  0  0  0  0  0  0  0  0  0
   21.6508    0.3148    5.5320 C   0  0  0  0  0  0  0  0  0  0  0  0
   22.6347   -0.5061    4.7133 C   0  0  0  0  0  0  0  0  0  0  0  0
   22.1988   -0.9424    3.6094 O   0  0  0  0  0  0  0  0  0  0  0  0
   23.7582   -0.6877    5.1666 O   0  0  0  0  0  0  0  0  0  0  0  0
   23.9926   -0.3236    5.9975 H   0  0  0  0  0  0  0  0  0  0  0  0
 19 20  1  0  0  0
 20 23  1  0  0  0
 20 18  1  0  0  0
 23 24  2  0  0  0
 23 25  1  0  0  0
 18 17  1  0  0  0
 17 13  1  0  0  0
 13 14  2  0  0  0
 13 15  1  0  0  0
 15  3  1  0  0  0
  3  4  1  0  0  0
  3  2  1  0  0  0
  4  5  2  0  0  0
  4  6  1  0  0  0
  2  1  1  0  0  0
  1 27  1  0  0  0
  6  8  1  0  0  0
  8  9  1  0  0  0
  9 10  2  0  0  0
  9 11  1  0  0  0
 44 48  1  0  0  0
 44 45  1  0  0  0
 48 49  1  0  0  0
 49 50  2  0  0  0
 49 51  1  0  0  0
 45 46  2  0  0  0
 45 29  1  0  0  0
 29 30  1  0  0  0
 29 28  1  0  0  0
 30 31  1  0  0  0
 28 27  1  0  0  0
 36 40  1  0  0  0
 36 37  1  0  0  0
 36 35  1  0  0  0
 40 41  2  0  0  0
 40 42  1  0  0  0
 35 34  1  0  0  0
 34 31  1  0  0  0
 31 32  2  0  0  0
 19 21  1  0  0  0
 19 22  1  0  0  0
 25 26  1  0  0  0
 15 16  1  0  0  0
  6  7  1  0  0  0
 11 12  1  0  0  0
 44 47  1  0  0  0
 51 52  1  0  0  0
 30 33  1  0  0  0
 42 43  1  0  0  0
 37 38  1  0  0  0
 37 39  1  0  0  0
M  END
> <minimizedAffinity>
-8.82363

$$$$
4ZB6_GDS_A_300


 52 51  0  0  0  0  0  0  0  0999 V2000
   22.5819    1.9689   10.2138 S   0  0  0  0  0  0  0  0  0  0  0  0
   24.0744    2.8583    9.7366 C   0  0  0  0  0  0  0  0  0  0  0  0
   24.7042    3.4092   11.0108 C   0  0  0  0  0  0  0  0  0  0  0  0
   26.1896    3.4984   10.7368 C   0  0  0  0  0  0  0  0  0  0  0  0
   26.7120    2.7896    9.8592 O   0  0  0  0  0  0  0  0  0  0  0  0
   26.8984    4.3366   11.5102 N   0  0  0  0  0  0  0  0  0  0  0  0
   26.4518    4.8853   12.1949 H   0  0  0  0  0  0  0  0  0  0  0  0
   28.3184    4.4183   11.3207 C   0  0  0  0  0  0  0  0  0  0  0  0
   28.9638    4.2568   12.6793 C   0  0  0  0  0  0  0  0  0  0  0  0
   28.1555    4.1486   13.6413 O   0  0  0  0  0  0  0  0  0  0  0  0
   30.1899    4.2472   12.7452 O   0  0  0  0  0  0  0  0  0  0  0  0
   30.7017    4.3352   11.9653 H   0  0  0  0  0  0  0  0  0  0  0  0
   23.9598    5.0775   12.6445 C   0  0  0  0  0  0  0  0  0  0  0  0
   24.2805    4.3159   13.5581 O   0  0  0  0  0  0  0  0  0  0  0  0
   24.1407    4.7096   11.3246 N   0  0  0  0  0  0  0  0  0  0  0  0
   23.8885    5.3269   10.6003 H   0  0  0  0  0  0  0  0  0  0  0  0
   23.3466    6.4538   12.8533 C   0  0  0  0  0  0  0  0  0  0  0  0
   23.3911    7.2535   11.5591 C   0  0  0  0  0  0  0  0  0  0  0  0
   24.1173    9.4360   10.6085 N   0  0  0  0  0  0  0  0  0  0  0  0
   24.2975    8.5015   11.7483 C   0  0  0  0  0  0  0  0  0  0  0  0
   24.7151   10.2519   10.7400 H   0  0  0  0  0  0  0  0  0  0  0  0
   23.1424    9.7326   10.5629 H   0  0  0  0  0  0  0  0  0  0  0  0
   25.7588    8.0668   11.8864 C   0  0  0  0  0  0  0  0  0  0  0  0
   26.1775    7.2486   11.0175 O   0  0  0  0  0  0  0  0  0  0  0  0
   26.4197    8.5024   12.8254 O   0  0  0  0  0  0  0  0  0  0  0  0
   26.0349    9.1079   13.4281 H   0  0  0  0  0  0  0  0  0  0  0  0
   22.0153    1.0290    8.4889 S   0  0  0  0  0  0  0  0  0  0  0  0
   23.5664    0.6745    7.6147 C   0  0  0  0  0  0  0  0  0  0  0  0
   24.1125   -0.6868    8.0417 C   0  0  0  0  0  0  0  0  0  0  0  0
   23.2713   -1.4060    9.0360 N   0  0  0  0  0  0  0  0  0  0  0  0
   22.5886   -2.5704    8.6618 C   0  0  0  0  0  0  0  0  0  0  0  0
   22.6742   -2.9695    7.4990 O   0  0  0  0  0  0  0  0  0  0  0  0
   23.1947   -1.0639    9.9560 H   0  0  0  0  0  0  0  0  0  0  0  0
   21.7682   -3.2711    9.7363 C   0  0  0  0  0  0  0  0  0  0  0  0
   22.1087   -2.6640   11.0987 C   0  0  0  0  0  0  0  0  0  0  0  0
   20.8432   -1.9543   11.6548 C   0  0  0  0  0  0  0  0  0  0  0  0
   20.1255   -1.2367   10.5640 N   0  0  0  0  0  0  0  0  0  0  0  0
   20.7415   -0.5327   10.1574 H   0  0  0  0  0  0  0  0  0  0  0  0
   19.2950   -0.7829   10.9446 H   0  0  0  0  0  0  0  0  0  0  0  0
   21.2583   -0.9901   12.7626 C   0  0  0  0  0  0  0  0  0  0  0  0
   20.6781    0.1299   12.7653 O   0  0  0  0  0  0  0  0  0  0  0  0
   22.0906   -1.3631   13.5867 O   0  0  0  0  0  0  0  0  0  0  0  0
   22.4752   -2.2143   13.5118 H   0  0  0  0  0  0  0  0  0  0  0  0
   26.5441   -0.2198    7.8904 N   0  0  0  0  0  0  0  0  0  0  0  0
   25.4621   -0.4067    8.6907 C   0  0  0  0  0  0  0  0  0  0  0  0
   25.5379   -0.3680    9.9333 O   0  0  0  0  0  0  0  0  0  0  0  0
   26.4583   -0.2671    6.9108 H   0  0  0  0  0  0  0  0  0  0  0  0
   27.8481    0.0551    8.5184 C   0  0  0  0  0  0  0  0  0  0  0  0
   28.6339   -1.2232    8.7645 C   0  0  0  0  0  0  0  0  0  0  0  0
   29.7203   -1.3298    8.1263 O   0  0  0  0  0  0  0  0  0  0  0  0
   28.1733   -2.0471    9.5453 O   0  0  0  0  0  0  0  0  0  0  0  0
   27.3570   -1.8808    9.9742 H   0  0  0  0  0  0  0  0  0  0  0  0
 19 20  1  0  0  0
 20 23  1  0  0  0
 20 18  1  0  0  0
 23 24  2  0  0  0
 23 25  1  0  0  0
 18 17  1  0  0  0
 17 13  1  0  0  0
 13 14  2  0  0  0
 13 15  1  0  0  0
 15  3  1  0  0  0
  3  4  1  0  0  0
  3  2  1  0  0  0
  4  5  2  0  0  0
  4  6  1  0  0  0
  2  1  1  0  0  0
  1 27  1  0  0  0
  6  8  1  0  0  0
  8  9  1  0  0  0
  9 10  2  0  0  0
  9 11  1  0  0  0
 44 48  1  0  0  0
 44 45  1  0  0  0
 48 49  1  0  0  0
 49 50  2  0  0  0
 49 51  1  0  0  0
 45 46  2  0  0  0
 45 29  1  0  0  0
 29 30  1  0  0  0
 29 28  1  0  0  0
 30 31  1  0  0  0
 28 27  1  0  0  0
 36 40  1  0  0  0
 36 37  1  0  0  0
 36 35  1  0  0  0
 40 41  2  0  0  0
 40 42  1  0  0  0
 35 34  1  0  0  0
 34 31  1  0  0  0
 31 32  2  0  0  0
 19 21  1  0  0  0
 19 22  1  0  0  0
 25 26  1  0  0  0
 15 16  1  0  0  0
  6  7  1  0  0  0
 11 12  1  0  0  0
 44 47  1  0  0  0
 51 52  1  0  0  0
 30 33  1  0  0  0
 42 43  1  0  0  0
 37 38  1  0  0  0
 37 39  1  0  0  0
M  END
> <minimizedAffinity>
-8.80894

$$$$
4ZB6_GDS_A_300


 52 51  0  0  0  0  0  0  0  0999 V2000
   27.4865    3.1045   10.6144 S   0  0  0  0  0  0  0  0  0  0  0  0
   27.3957    4.8760   10.2979 C   0  0  0  0  0  0  0  0  0  0  0  0
   27.2734    5.5748   11.6472 C   0  0  0  0  0  0  0  0  0  0  0  0
   27.3870    7.0563   11.3611 C   0  0  0  0  0  0  0  0  0  0  0  0
   28.1486    7.4691   10.4695 O   0  0  0  0  0  0  0  0  0  0  0  0
   26.6665    7.8798   12.1394 N   0  0  0  0  0  0  0  0  0  0  0  0
   26.0712    7.5185   12.8353 H   0  0  0  0  0  0  0  0  0  0  0  0
   26.7798    9.2961   11.9384 C   0  0  0  0  0  0  0  0  0  0  0  0
   25.4324    9.7924   11.4622 C   0  0  0  0  0  0  0  0  0  0  0  0
   24.4762    8.9912   11.6473 O   0  0  0  0  0  0  0  0  0  0  0  0
   25.3702   10.9031   10.9425 O   0  0  0  0  0  0  0  0  0  0  0  0
   26.1451   11.4221   10.8520 H   0  0  0  0  0  0  0  0  0  0  0  0
   25.9013    5.2035   13.6437 C   0  0  0  0  0  0  0  0  0  0  0  0
   26.8786    5.4489   14.3524 O   0  0  0  0  0  0  0  0  0  0  0  0
   26.0018    5.2471   12.2659 N   0  0  0  0  0  0  0  0  0  0  0  0
   25.2144    5.0567   11.7065 H   0  0  0  0  0  0  0  0  0  0  0  0
   24.5269    4.8330   14.1798 C   0  0  0  0  0  0  0  0  0  0  0  0
   23.4424    5.5693   13.4063 C   0  0  0  0  0  0  0  0  0  0  0  0
   23.4591    3.2828   12.4236 N   0  0  0  0  0  0  0  0  0  0  0  0
   22.8628    4.6375   12.3060 C   0  0  0  0  0  0  0  0  0  0  0  0
   23.0738    2.6776   11.6986 H   0  0  0  0  0  0  0  0  0  0  0  0
   23.2421    2.8943   13.3415 H   0  0  0  0  0  0  0  0  0  0  0  0
   23.1214    5.2417   10.9236 C   0  0  0  0  0  0  0  0  0  0  0  0
   22.9523    4.4653    9.9395 O   0  0  0  0  0  0  0  0  0  0  0  0
   23.4969    6.4086   10.8484 O   0  0  0  0  0  0  0  0  0  0  0  0
   23.5978    6.9194   11.6274 H   0  0  0  0  0  0  0  0  0  0  0  0
   25.9405    2.3441    9.5140 S   0  0  0  0  0  0  0  0  0  0  0  0
   26.4672    0.6677    9.0580 C   0  0  0  0  0  0  0  0  0  0  0  0
   25.2480   -0.2258    8.8370 C   0  0  0  0  0  0  0  0  0  0  0  0
   23.9613    0.3580    9.3028 N   0  0  0  0  0  0  0  0  0  0  0  0
   22.7908    0.1501    8.5620 C   0  0  0  0  0  0  0  0  0  0  0  0
   22.8499   -0.4954    7.5139 O   0  0  0  0  0  0  0  0  0  0  0  0
   23.9325    0.8898   10.1308 H   0  0  0  0  0  0  0  0  0  0  0  0
   21.5045    0.7527    9.1106 C   0  0  0  0  0  0  0  0  0  0  0  0
   20.8201   -0.2729   10.0164 C   0  0  0  0  0  0  0  0  0  0  0  0
   20.8546    0.2556   11.4772 C   0  0  0  0  0  0  0  0  0  0  0  0
   22.1636    0.9057   11.7663 N   0  0  0  0  0  0  0  0  0  0  0  0
   22.9144    0.2255   11.6484 H   0  0  0  0  0  0  0  0  0  0  0  0
   22.1665    1.2524   12.7256 H   0  0  0  0  0  0  0  0  0  0  0  0
   20.5978   -0.9055   12.4339 C   0  0  0  0  0  0  0  0  0  0  0  0
   20.0771   -1.9352   11.9245 O   0  0  0  0  0  0  0  0  0  0  0  0
   20.9340   -0.7847   13.6101 O   0  0  0  0  0  0  0  0  0  0  0  0
   21.3154    0.0175   13.9083 H   0  0  0  0  0  0  0  0  0  0  0  0
   26.6740   -2.1574    9.4607 N   0  0  0  0  0  0  0  0  0  0  0  0
   25.5068   -1.4882    9.6498 C   0  0  0  0  0  0  0  0  0  0  0  0
   24.6390   -1.8764   10.4544 O   0  0  0  0  0  0  0  0  0  0  0  0
   27.3382   -1.8347    8.8096 H   0  0  0  0  0  0  0  0  0  0  0  0
   26.9255   -3.3757   10.2499 C   0  0  0  0  0  0  0  0  0  0  0  0
   27.7297   -3.0761   11.5051 C   0  0  0  0  0  0  0  0  0  0  0  0
   27.0524   -2.8189   12.5414 O   0  0  0  0  0  0  0  0  0  0  0  0
   28.9523   -3.1018   11.4316 O   0  0  0  0  0  0  0  0  0  0  0  0
   29.3685   -3.3033   10.6167 H   0  0  0  0  0  0  0  0  0  0  0  0
 19 20  1  0  0  0
 20 23  1  0  0  0
 20 18  1  0  0  0
 23 24  2  0  0  0
 23 25  1  0  0  0
 18 17  1  0  0  0
 17 13  1  0  0  0
 13 14  2  0  0  0
 13 15  1  0  0  0
 15  3  1  0  0  0
  3  4  1  0  0  0
  3  2  1  0  0  0
  4  5  2  0  0  0
  4  6  1  0  0  0
  2  1  1  0  0  0
  1 27  1  0  0  0
  6  8  1  0  0  0
  8  9  1  0  0  0
  9 10  2  0  0  0
  9 11  1  0  0  0
 44 48  1  0  0  0
 44 45  1  0  0  0
 48 49  1  0  0  0
 49 50  2  0  0  0
 49 51  1  0  0  0
 45 46  2  0  0  0
 45 29  1  0  0  0
 29 30  1  0  0  0
 29 28  1  0  0  0
 30 31  1  0  0  0
 28 27  1  0  0  0
 36 40  1  0  0  0
 36 37  1  0  0  0
 36 35  1  0  0  0
 40 41  2  0  0  0
 40 42  1  0  0  0
 35 34  1  0  0  0
 34 31  1  0  0  0
 31 32  2  0  0  0
 19 21  1  0  0  0
 19 22  1  0  0  0
 25 26  1  0  0  0
 15 16  1  0  0  0
  6  7  1  0  0  0
 11 12  1  0  0  0
 44 47  1  0  0  0
 51 52  1  0  0  0
 30 33  1  0  0  0
 42 43  1  0  0  0
 37 38  1  0  0  0
 37 39  1  0  0  0
M  END
> <minimizedAffinity>
-8.75820

$$$$
4ZB6_GDS_A_300


 52 51  0  0  0  0  0  0  0  0999 V2000
   24.9048    2.0265    9.3242 S   0  0  0  0  0  0  0  0  0  0  0  0
   26.4176    2.8396    9.8688 C   0  0  0  0  0  0  0  0  0  0  0  0
   26.1246    3.4948   11.2138 C   0  0  0  0  0  0  0  0  0  0  0  0
   27.4585    3.9741   11.7433 C   0  0  0  0  0  0  0  0  0  0  0  0
   27.6187    4.1727   12.9600 O   0  0  0  0  0  0  0  0  0  0  0  0
   28.4208    4.2082   10.8365 N   0  0  0  0  0  0  0  0  0  0  0  0
   28.2604    4.0378    9.8802 H   0  0  0  0  0  0  0  0  0  0  0  0
   29.6871    4.7114   11.2864 C   0  0  0  0  0  0  0  0  0  0  0  0
   29.8553    6.0958   10.7004 C   0  0  0  0  0  0  0  0  0  0  0  0
   28.8759    6.8701   10.8788 O   0  0  0  0  0  0  0  0  0  0  0  0
   30.8992    6.3558   10.1085 O   0  0  0  0  0  0  0  0  0  0  0  0
   31.5688    5.7049   10.0315 H   0  0  0  0  0  0  0  0  0  0  0  0
   24.1983    4.8031   11.9778 C   0  0  0  0  0  0  0  0  0  0  0  0
   24.1000    4.0701   12.9631 O   0  0  0  0  0  0  0  0  0  0  0  0
   25.1930    4.5944   11.0412 N   0  0  0  0  0  0  0  0  0  0  0  0
   25.2693    5.1891   10.2603 H   0  0  0  0  0  0  0  0  0  0  0  0
   23.2708    5.9727   11.6856 C   0  0  0  0  0  0  0  0  0  0  0  0
   23.7920    7.2388   12.3502 C   0  0  0  0  0  0  0  0  0  0  0  0
   26.2520    7.5264   12.5948 N   0  0  0  0  0  0  0  0  0  0  0  0
   25.1101    7.6858   11.6591 C   0  0  0  0  0  0  0  0  0  0  0  0
   27.1128    7.8216   12.1341 H   0  0  0  0  0  0  0  0  0  0  0  0
   26.3320    6.5474   12.8698 H   0  0  0  0  0  0  0  0  0  0  0  0
   24.9809    9.1338   11.1797 C   0  0  0  0  0  0  0  0  0  0  0  0
   25.9319    9.9072   11.4915 O   0  0  0  0  0  0  0  0  0  0  0  0
   23.9737    9.4643   10.5595 O   0  0  0  0  0  0  0  0  0  0  0  0
   23.3123    8.8291   10.3672 H   0  0  0  0  0  0  0  0  0  0  0  0
   25.5076    0.9342    7.7046 S   0  0  0  0  0  0  0  0  0  0  0  0
   24.6456   -0.6558    7.8620 C   0  0  0  0  0  0  0  0  0  0  0  0
   24.5164   -1.0415    9.3344 C   0  0  0  0  0  0  0  0  0  0  0  0
   25.1223   -2.3544    9.6849 N   0  0  0  0  0  0  0  0  0  0  0  0
   26.4487   -2.4150   10.1312 C   0  0  0  0  0  0  0  0  0  0  0  0
   27.1068   -1.3755   10.2017 O   0  0  0  0  0  0  0  0  0  0  0  0
   24.5916   -3.1796    9.6032 H   0  0  0  0  0  0  0  0  0  0  0  0
   26.9965   -3.7873   10.4988 C   0  0  0  0  0  0  0  0  0  0  0  0
   26.3591   -4.2430   11.8128 C   0  0  0  0  0  0  0  0  0  0  0  0
   26.7327   -3.2234   12.9242 C   0  0  0  0  0  0  0  0  0  0  0  0
   28.1954   -2.9404   12.9026 N   0  0  0  0  0  0  0  0  0  0  0  0
   28.7113   -3.8048   13.0668 H   0  0  0  0  0  0  0  0  0  0  0  0
   28.4219   -2.2652   13.6328 H   0  0  0  0  0  0  0  0  0  0  0  0
   26.3041   -3.7820   14.2782 C   0  0  0  0  0  0  0  0  0  0  0  0
   25.9326   -4.9874   14.2851 O   0  0  0  0  0  0  0  0  0  0  0  0
   26.3739   -3.0525   15.2651 O   0  0  0  0  0  0  0  0  0  0  0  0
   26.6610   -2.1654   15.1725 H   0  0  0  0  0  0  0  0  0  0  0  0
   22.6065   -1.6114   10.8113 N   0  0  0  0  0  0  0  0  0  0  0  0
   23.0205   -1.1320    9.6093 C   0  0  0  0  0  0  0  0  0  0  0  0
   22.2214   -0.7754    8.7231 O   0  0  0  0  0  0  0  0  0  0  0  0
   23.2597   -1.8972   11.4901 H   0  0  0  0  0  0  0  0  0  0  0  0
   21.1600   -1.6947   11.0781 C   0  0  0  0  0  0  0  0  0  0  0  0
   20.7677   -0.8885   12.3061 C   0  0  0  0  0  0  0  0  0  0  0  0
   21.6260   -0.0521   12.7096 O   0  0  0  0  0  0  0  0  0  0  0  0
   19.6723   -1.0979   12.8130 O   0  0  0  0  0  0  0  0  0  0  0  0
   19.0999   -1.7407   12.4427 H   0  0  0  0  0  0  0  0  0  0  0  0
 19 20  1  0  0  0
 20 23  1  0  0  0
 20 18  1  0  0  0
 23 24  2  0  0  0
 23 25  1  0  0  0
 18 17  1  0  0  0
 17 13  1  0  0  0
 13 14  2  0  0  0
 13 15  1  0  0  0
 15  3  1  0  0  0
  3  4  1  0  0  0
  3  2  1  0  0  0
  4  5  2  0  0  0
  4  6  1  0  0  0
  2  1  1  0  0  0
  1 27  1  0  0  0
  6  8  1  0  0  0
  8  9  1  0  0  0
  9 10  2  0  0  0
  9 11  1  0  0  0
 44 48  1  0  0  0
 44 45  1  0  0  0
 48 49  1  0  0  0
 49 50  2  0  0  0
 49 51  1  0  0  0
 45 46  2  0  0  0
 45 29  1  0  0  0
 29 30  1  0  0  0
 29 28  1  0  0  0
 30 31  1  0  0  0
 28 27  1  0  0  0
 36 40  1  0  0  0
 36 37  1  0  0  0
 36 35  1  0  0  0
 40 41  2  0  0  0
 40 42  1  0  0  0
 35 34  1  0  0  0
 34 31  1  0  0  0
 31 32  2  0  0  0
 19 21  1  0  0  0
 19 22  1  0  0  0
 25 26  1  0  0  0
 15 16  1  0  0  0
  6  7  1  0  0  0
 11 12  1  0  0  0
 44 47  1  0  0  0
 51 52  1  0  0  0
 30 33  1  0  0  0
 42 43  1  0  0  0
 37 38  1  0  0  0
 37 39  1  0  0  0
M  END
> <minimizedAffinity>
-8.74281

$$$$
4ZB6_GDS_A_300


 52 51  0  0  0  0  0  0  0  0999 V2000
   23.2858    2.4594    8.4125 S   0  0  0  0  0  0  0  0  0  0  0  0
   23.2430    1.7799   10.0807 C   0  0  0  0  0  0  0  0  0  0  0  0
   22.3387    2.6787   10.9164 C   0  0  0  0  0  0  0  0  0  0  0  0
   21.4732    1.7497   11.7393 C   0  0  0  0  0  0  0  0  0  0  0  0
   20.8851    2.1682   12.7515 O   0  0  0  0  0  0  0  0  0  0  0  0
   21.4161    0.4675   11.3444 N   0  0  0  0  0  0  0  0  0  0  0  0
   21.8929    0.1705   10.5359 H   0  0  0  0  0  0  0  0  0  0  0  0
   20.6477   -0.4618   12.1222 C   0  0  0  0  0  0  0  0  0  0  0  0
   21.5826   -1.5713   12.5506 C   0  0  0  0  0  0  0  0  0  0  0  0
   22.1593   -1.3819   13.6561 O   0  0  0  0  0  0  0  0  0  0  0  0
   21.7111   -2.5436   11.8119 O   0  0  0  0  0  0  0  0  0  0  0  0
   21.2336   -2.5868   11.0069 H   0  0  0  0  0  0  0  0  0  0  0  0
   23.2640    4.8868   11.4401 C   0  0  0  0  0  0  0  0  0  0  0  0
   22.6942    5.3523   10.4520 O   0  0  0  0  0  0  0  0  0  0  0  0
   23.1396    3.5478   11.7591 N   0  0  0  0  0  0  0  0  0  0  0  0
   23.5922    3.1850   12.5546 H   0  0  0  0  0  0  0  0  0  0  0  0
   24.1401    5.6970   12.3834 C   0  0  0  0  0  0  0  0  0  0  0  0
   23.8879    7.1855   12.1906 C   0  0  0  0  0  0  0  0  0  0  0  0
   26.1789    8.0001   12.7217 N   0  0  0  0  0  0  0  0  0  0  0  0
   25.1720    7.8648   11.6388 C   0  0  0  0  0  0  0  0  0  0  0  0
   27.0181    8.4465   12.3518 H   0  0  0  0  0  0  0  0  0  0  0  0
   26.4162    7.0761   13.0827 H   0  0  0  0  0  0  0  0  0  0  0  0
   24.8207    9.2254   11.0317 C   0  0  0  0  0  0  0  0  0  0  0  0
   25.6781   10.1415   11.1925 O   0  0  0  0  0  0  0  0  0  0  0  0
   23.7412    9.3582   10.4614 O   0  0  0  0  0  0  0  0  0  0  0  0
   23.1595    8.6278   10.3835 H   0  0  0  0  0  0  0  0  0  0  0  0
   24.8011    1.4219    7.5142 S   0  0  0  0  0  0  0  0  0  0  0  0
   26.2912    2.4161    7.8084 C   0  0  0  0  0  0  0  0  0  0  0  0
   27.0765    1.8512    8.9906 C   0  0  0  0  0  0  0  0  0  0  0  0
   26.6166    0.5151    9.4564 N   0  0  0  0  0  0  0  0  0  0  0  0
   27.4168   -0.6140    9.2397 C   0  0  0  0  0  0  0  0  0  0  0  0
   28.4850   -0.4869    8.6387 O   0  0  0  0  0  0  0  0  0  0  0  0
   25.7508    0.4247    9.9162 H   0  0  0  0  0  0  0  0  0  0  0  0
   26.8981   -1.9452    9.7666 C   0  0  0  0  0  0  0  0  0  0  0  0
   25.8659   -2.5021    8.7842 C   0  0  0  0  0  0  0  0  0  0  0  0
   24.5372   -2.7511    9.5503 C   0  0  0  0  0  0  0  0  0  0  0  0
   24.3950   -4.1939    9.8935 N   0  0  0  0  0  0  0  0  0  0  0  0
   24.3857   -4.7478    9.0370 H   0  0  0  0  0  0  0  0  0  0  0  0
   23.5221   -4.3382   10.4011 H   0  0  0  0  0  0  0  0  0  0  0  0
   23.3691   -2.2761    8.6904 C   0  0  0  0  0  0  0  0  0  0  0  0
   22.5861   -1.4486    9.2319 O   0  0  0  0  0  0  0  0  0  0  0  0
   23.2790   -2.6927    7.5375 O   0  0  0  0  0  0  0  0  0  0  0  0
   23.9051   -3.3091    7.2118 H   0  0  0  0  0  0  0  0  0  0  0  0
   27.6747    3.9313   10.2027 N   0  0  0  0  0  0  0  0  0  0  0  0
   26.8715    2.8376   10.1335 C   0  0  0  0  0  0  0  0  0  0  0  0
   25.9833    2.6088   10.9762 O   0  0  0  0  0  0  0  0  0  0  0  0
   28.3770    4.0820    9.5294 H   0  0  0  0  0  0  0  0  0  0  0  0
   27.4732    4.8869   11.3057 C   0  0  0  0  0  0  0  0  0  0  0  0
   28.0727    4.3776   12.6069 C   0  0  0  0  0  0  0  0  0  0  0  0
   29.3323    4.2678   12.6238 O   0  0  0  0  0  0  0  0  0  0  0  0
   27.3140    4.1120   13.5314 O   0  0  0  0  0  0  0  0  0  0  0  0
   26.3899    4.2255   13.4263 H   0  0  0  0  0  0  0  0  0  0  0  0
 19 20  1  0  0  0
 20 23  1  0  0  0
 20 18  1  0  0  0
 23 24  2  0  0  0
 23 25  1  0  0  0
 18 17  1  0  0  0
 17 13  1  0  0  0
 13 14  2  0  0  0
 13 15  1  0  0  0
 15  3  1  0  0  0
  3  4  1  0  0  0
  3  2  1  0  0  0
  4  5  2  0  0  0
  4  6  1  0  0  0
  2  1  1  0  0  0
  1 27  1  0  0  0
  6  8  1  0  0  0
  8  9  1  0  0  0
  9 10  2  0  0  0
  9 11  1  0  0  0
 44 48  1  0  0  0
 44 45  1  0  0  0
 48 49  1  0  0  0
 49 50  2  0  0  0
 49 51  1  0  0  0
 45 46  2  0  0  0
 45 29  1  0  0  0
 29 30  1  0  0  0
 29 28  1  0  0  0
 30 31  1  0  0  0
 28 27  1  0  0  0
 36 40  1  0  0  0
 36 37  1  0  0  0
 36 35  1  0  0  0
 40 41  2  0  0  0
 40 42  1  0  0  0
 35 34  1  0  0  0
 34 31  1  0  0  0
 31 32  2  0  0  0
 19 21  1  0  0  0
 19 22  1  0  0  0
 25 26  1  0  0  0
 15 16  1  0  0  0
  6  7  1  0  0  0
 11 12  1  0  0  0
 44 47  1  0  0  0
 51 52  1  0  0  0
 30 33  1  0  0  0
 42 43  1  0  0  0
 37 38  1  0  0  0
 37 39  1  0  0  0
M  END
> <minimizedAffinity>
-8.69961

$$$$
4ZB6_GDS_A_300


 52 51  0  0  0  0  0  0  0  0999 V2000
   23.0465    1.6951    8.1099 S   0  0  0  0  0  0  0  0  0  0  0  0
   21.7318    0.4883    8.3581 C   0  0  0  0  0  0  0  0  0  0  0  0
   21.4594    0.4120    9.8561 C   0  0  0  0  0  0  0  0  0  0  0  0
   22.3359   -0.7031   10.3829 C   0  0  0  0  0  0  0  0  0  0  0  0
   23.5587   -0.7025   10.1588 O   0  0  0  0  0  0  0  0  0  0  0  0
   21.7209   -1.6912   11.0526 N   0  0  0  0  0  0  0  0  0  0  0  0
   20.7503   -1.6585   11.2142 H   0  0  0  0  0  0  0  0  0  0  0  0
   22.5038   -2.7956   11.5284 C   0  0  0  0  0  0  0  0  0  0  0  0
   22.4804   -2.7457   13.0401 C   0  0  0  0  0  0  0  0  0  0  0  0
   22.6505   -1.5986   13.5359 O   0  0  0  0  0  0  0  0  0  0  0  0
   22.3068   -3.7939   13.6558 O   0  0  0  0  0  0  0  0  0  0  0  0
   22.1896   -4.5976   13.1887 H   0  0  0  0  0  0  0  0  0  0  0  0
   21.4075    1.9036   11.8000 C   0  0  0  0  0  0  0  0  0  0  0  0
   20.8233    1.0315   12.4448 O   0  0  0  0  0  0  0  0  0  0  0  0
   21.7744    1.6812   10.4862 N   0  0  0  0  0  0  0  0  0  0  0  0
   22.2475    2.3805    9.9799 H   0  0  0  0  0  0  0  0  0  0  0  0
   21.7736    3.2737   12.3500 C   0  0  0  0  0  0  0  0  0  0  0  0
   22.5317    4.0775   11.3032 C   0  0  0  0  0  0  0  0  0  0  0  0
   23.3082    5.0060   13.4778 N   0  0  0  0  0  0  0  0  0  0  0  0
   23.5033    5.0650   12.0071 C   0  0  0  0  0  0  0  0  0  0  0  0
   23.9491    5.6565   13.9322 H   0  0  0  0  0  0  0  0  0  0  0  0
   23.4944    4.0589   13.8078 H   0  0  0  0  0  0  0  0  0  0  0  0
   23.2820    6.4822   11.4723 C   0  0  0  0  0  0  0  0  0  0  0  0
   23.3623    7.4141   12.3238 O   0  0  0  0  0  0  0  0  0  0  0  0
   23.0171    6.6312   10.2824 O   0  0  0  0  0  0  0  0  0  0  0  0
   22.9765    5.8869    9.7147 H   0  0  0  0  0  0  0  0  0  0  0  0
   24.1903    0.8574    6.6370 S   0  0  0  0  0  0  0  0  0  0  0  0
   25.8861    1.3997    6.9921 C   0  0  0  0  0  0  0  0  0  0  0  0
   26.0955    1.5207    8.5005 C   0  0  0  0  0  0  0  0  0  0  0  0
   26.7611    2.7790    8.9331 N   0  0  0  0  0  0  0  0  0  0  0  0
   26.5607    3.2648   10.2316 C   0  0  0  0  0  0  0  0  0  0  0  0
   25.8095    2.6525   10.9927 O   0  0  0  0  0  0  0  0  0  0  0  0
   27.3418    3.2696    8.3075 H   0  0  0  0  0  0  0  0  0  0  0  0
   27.2940    4.5425   10.6167 C   0  0  0  0  0  0  0  0  0  0  0  0
   28.5636    4.1757   11.3877 C   0  0  0  0  0  0  0  0  0  0  0  0
   29.4747    5.4319   11.4676 C   0  0  0  0  0  0  0  0  0  0  0  0
   29.1089    6.4103   10.4052 N   0  0  0  0  0  0  0  0  0  0  0  0
   29.2294    5.9784    9.4891 H   0  0  0  0  0  0  0  0  0  0  0  0
   29.7113    7.2304   10.4764 H   0  0  0  0  0  0  0  0  0  0  0  0
   30.9324    5.0000   11.3345 C   0  0  0  0  0  0  0  0  0  0  0  0
   31.6922    5.3207   12.2889 O   0  0  0  0  0  0  0  0  0  0  0  0
   31.2668    4.3530   10.3442 O   0  0  0  0  0  0  0  0  0  0  0  0
   30.6376    4.1569    9.6783 H   0  0  0  0  0  0  0  0  0  0  0  0
   26.4443   -0.7402    9.4597 N   0  0  0  0  0  0  0  0  0  0  0  0
   27.0018    0.3588    8.8874 C   0  0  0  0  0  0  0  0  0  0  0  0
   28.2261    0.4530    8.6791 O   0  0  0  0  0  0  0  0  0  0  0  0
   25.4746   -0.7839    9.6236 H   0  0  0  0  0  0  0  0  0  0  0  0
   27.3206   -1.8651    9.8299 C   0  0  0  0  0  0  0  0  0  0  0  0
   26.7421   -3.1986    9.3835 C   0  0  0  0  0  0  0  0  0  0  0  0
   25.6009   -3.4835    9.8475 O   0  0  0  0  0  0  0  0  0  0  0  0
   27.4045   -3.8936    8.6226 O   0  0  0  0  0  0  0  0  0  0  0  0
   28.2443   -3.5987    8.3299 H   0  0  0  0  0  0  0  0  0  0  0  0
 19 20  1  0  0  0
 20 23  1  0  0  0
 20 18  1  0  0  0
 23 24  2  0  0  0
 23 25  1  0  0  0
 18 17  1  0  0  0
 17 13  1  0  0  0
 13 14  2  0  0  0
 13 15  1  0  0  0
 15  3  1  0  0  0
  3  4  1  0  0  0
  3  2  1  0  0  0
  4  5  2  0  0  0
  4  6  1  0  0  0
  2  1  1  0  0  0
  1 27  1  0  0  0
  6  8  1  0  0  0
  8  9  1  0  0  0
  9 10  2  0  0  0
  9 11  1  0  0  0
 44 48  1  0  0  0
 44 45  1  0  0  0
 48 49  1  0  0  0
 49 50  2  0  0  0
 49 51  1  0  0  0
 45 46  2  0  0  0
 45 29  1  0  0  0
 29 30  1  0  0  0
 29 28  1  0  0  0
 30 31  1  0  0  0
 28 27  1  0  0  0
 36 40  1  0  0  0
 36 37  1  0  0  0
 36 35  1  0  0  0
 40 41  2  0  0  0
 40 42  1  0  0  0
 35 34  1  0  0  0
 34 31  1  0  0  0
 31 32  2  0  0  0
 19 21  1  0  0  0
 19 22  1  0  0  0
 25 26  1  0  0  0
 15 16  1  0  0  0
  6  7  1  0  0  0
 11 12  1  0  0  0
 44 47  1  0  0  0
 51 52  1  0  0  0
 30 33  1  0  0  0
 42 43  1  0  0  0
 37 38  1  0  0  0
 37 39  1  0  0  0
M  END
> <minimizedAffinity>
-8.67113

$$$$
