4ZB6_GDS_A_300
  RCSB PDB12061716363D
Coordinates from PDB:4ZB6:A:300 Model:1 without hydrogens
 40 39  0  0  0  0            999 V2000
   25.0480   -4.1520   12.9860   N 0  0  0  0  0  0  0  0  0  0  0  0
   23.8700   -3.4370   12.4330   C 0  0  0  0  0  0  0  0  0  0  0  0
   22.6210   -3.6800   13.2840   C 0  0  0  0  0  0  0  0  0  0  0  0
   21.7480   -2.7650   13.2600   O 0  0  0  0  0  0  0  0  0  0  0  0
   22.5490   -4.7100   13.9490   O 0  0  0  0  0  0  0  0  0  0  0  0
   23.6100   -3.8950   10.9710   C 0  0  0  0  0  0  0  0  0  0  0  0
   22.5700   -2.9880   10.3290   C 0  0  0  0  0  0  0  0  0  0  0  0
   23.1490   -1.6000   10.1010   C 0  0  0  0  0  0  0  0  0  0  0  0
   24.3540   -1.3560   10.0230   O 0  0  0  0  0  0  0  0  0  0  0  0
   22.2160   -0.5880    9.9760   N 0  0  0  0  0  0  0  0  0  0  0  0
   22.6590    0.7740    9.7400   C 0  0  0  0  0  0  0  0  0  0  0  0
   22.1120    1.7250   10.7820   C 0  0  0  0  0  0  0  0  0  0  0  0
   21.0300    1.4870   11.3460   O 0  0  0  0  0  0  0  0  0  0  0  0
   22.1320    1.2720    8.3990   C 0  0  0  0  0  0  0  0  0  0  0  0
   23.0500    0.4150    7.1070   S 0  0  0  0  0  0  0  0  0  0  0  0
   22.8270    2.8360   11.0220   N 0  0  0  0  0  0  0  0  0  0  0  0
   22.3230    3.7920   11.9660   C 0  0  0  0  0  0  0  0  0  0  0  0
   22.6700    5.1680   11.4420   C 0  0  0  0  0  0  0  0  0  0  0  0
   22.6710    6.0820   12.3110   O 0  0  0  0  0  0  0  0  0  0  0  0
   22.9140    5.2920   10.2450   O 0  0  0  0  0  0  0  0  0  0  0  0
   27.0200   -1.4910    9.2970   N 0  0  0  0  0  0  0  0  0  0  0  0
   27.9840   -2.5750    9.5540   C 0  0  0  0  0  0  0  0  0  0  0  0
   27.6750   -3.3060   10.8510   C 0  0  0  0  0  0  0  0  0  0  0  0
   27.0100   -2.6510   11.7040   O 0  0  0  0  0  0  0  0  0  0  0  0
   28.0820   -4.4540   10.9820   O 0  0  0  0  0  0  0  0  0  0  0  0
   27.4840   -0.3060    8.8210   C 0  0  0  0  0  0  0  0  0  0  0  0
   28.6940   -0.1010    8.6090   O 0  0  0  0  0  0  0  0  0  0  0  0
   26.4870    0.8140    8.5510   C 0  0  0  0  0  0  0  0  0  0  0  0
   27.1430    2.1010    8.9070   N 0  0  0  0  0  0  0  0  0  0  0  0
   26.1040    0.6830    7.0780   C 0  0  0  0  0  0  0  0  0  0  0  0
   24.6200    1.6680    6.7270   S 0  0  0  0  0  0  0  0  0  0  0  0
   27.4830    6.0410   11.9460   C 0  0  0  0  0  0  0  0  0  0  0  0
   27.8560    7.0560   10.8690   C 0  0  0  0  0  0  0  0  0  0  0  0
   27.0070    7.9620   10.6470   O 0  0  0  0  0  0  0  0  0  0  0  0
   28.9490    6.9530   10.3160   O 0  0  0  0  0  0  0  0  0  0  0  0
   26.7990    6.7050   13.0910   N 0  0  0  0  0  0  0  0  0  0  0  0
   26.5670    4.9520   11.3220   C 0  0  0  0  0  0  0  0  0  0  0  0
   27.3790    4.1630   10.2930   C 0  0  0  0  0  0  0  0  0  0  0  0
   26.6430    2.8710    9.9650   C 0  0  0  0  0  0  0  0  0  0  0  0
   25.6440    2.4810   10.5720   O 0  0  0  0  0  0  0  0  0  0  0  0
  1  2  1  0  0  0  0
  2  3  1  0  0  0  0
  2  6  1  0  0  0  0
  3  4  2  0  0  0  0
  3  5  1  0  0  0  0
  6  7  1  0  0  0  0
  7  8  1  0  0  0  0
  8  9  2  0  0  0  0
  8 10  1  0  0  0  0
 10 11  1  0  0  0  0
 11 12  1  0  0  0  0
 11 14  1  0  0  0  0
 12 13  2  0  0  0  0
 12 16  1  0  0  0  0
 14 15  1  0  0  0  0
 15 31  1  0  0  0  0
 16 17  1  0  0  0  0
 17 18  1  0  0  0  0
 18 19  2  0  0  0  0
 18 20  1  0  0  0  0
 21 22  1  0  0  0  0
 21 26  1  0  0  0  0
 22 23  1  0  0  0  0
 23 24  2  0  0  0  0
 23 25  1  0  0  0  0
 26 27  2  0  0  0  0
 26 28  1  0  0  0  0
 28 29  1  0  0  0  0
 28 30  1  0  0  0  0
 29 39  1  0  0  0  0
 30 31  1  0  0  0  0
 32 33  1  0  0  0  0
 32 36  1  0  0  0  0
 32 37  1  0  0  0  0
 33 34  2  0  0  0  0
 33 35  1  0  0  0  0
 37 38  1  0  0  0  0
 38 39  1  0  0  0  0
 39 40  2  0  0  0  0
A    1
N1
A    2
CA1
A    3
C1
A    4
OE1
A    5
OE2
A    6
CB1
A    7
CG1
A    8
CD1
A    9
O1
A   10
N2
A   11
CA2
A   12
C2
A   13
O2
A   14
CB2
A   15
SG2
A   16
N3
A   17
CA3
A   18
C3
A   19
OE3
A   20
OE4
A   21
N4
A   22
CA4
A   23
C4
A   24
OE5
A   25
OE6
A   26
C5
A   27
O5
A   28
CA5
A   29
N5
A   30
CB5
A   31
SG5
A   32
CA6
A   33
C6
A   34
OE7
A   35
OE8
A   36
N6
A   37
CB6
A   38
CG6
A   39
CD6
A   40
O6
M  END
>  <InstanceId>
4ZB6_GDS_A_300

>  <ChemCompId>
GDS

>  <PdbId>
4ZB6

>  <ChainId>
A

>  <ResidueNumber>
300

>  <InsertionCode>


>  <Model>
1

>  <AltIds>


>  <MissingHeavyAtoms>
0

>  <ObservedFormula>
C20 N6 O12 S2

>  <Name>
OXIDIZED GLUTATHIONE DISULFIDE

>  <SystematicName>
(2S)-2-amino-5-[[(2R)-3-[(2R)-2-[[(4S)-4-amino-5-hydroxy-5-oxo-pentanoyl]amino]-3-(carboxymethylamino)-3-oxo-propyl]disulfanyl-1-(carboxymethylamino)-1-oxo-propan-2-yl]amino]-5-oxo-pentanoic acid

>  <Synonyms>


>  <Type>
NON-POLYMER

>  <Formula>
C20 H32 N6 O12 S2

>  <MolecularWeight>
612.631

>  <ModifiedDate>
2011-06-04

>  <Parent>


>  <OneLetterCode>


>  <SubcomponentList>


>  <AmbiguousFlag>
N

>  <InChI>
InChI=1S/C20H32N6O12S2/c21-9(19(35)36)1-3-13(27)25-11(17(33)23-5-15(29)30)7-39-40-8-12(18(34)24-6-16(31)32)26-14(28)4-2-10(22)20(37)38/h9-12H,1-8,21-22H2,(H,23,33)(H,24,34)(H,25,27)(H,26,28)(H,29,30)(H,31,32)(H,35,36)(H,37,38)/t9-,10-,11-,12-/m0/s1

>  <InChIKey>
YPZRWBKMTBYPTK-BJDJZHNGSA-N

>  <SMILES>
C(CC(=O)N[C@@H](CSSC[C@@H](C(=O)NCC(=O)O)NC(=O)CC[C@@H](C(=O)O)N)C(=O)NCC(=O)O)[C@@H](C(=O)O)N

$$$$
