5JSJ_6PD_A_301


 51 57  0  0  0  0  0  0  0  0999 V2000
   12.0907    0.8506   -0.0305 C   0  0  0  0  0  0  0  0  0  0  0  0
   12.5431    0.5840    1.2642 C   0  0  0  0  0  0  0  0  0  0  0  0
   11.9015   -0.4818    2.0028 C   0  0  0  0  0  0  0  0  0  0  0  0
   10.8856   -1.2792    1.5407 C   0  0  0  0  0  0  0  0  0  0  0  0
   10.4659   -1.0153    0.2376 C   0  0  0  0  0  0  0  0  0  0  0  0
   11.0713    0.0213   -0.4961 C   0  0  0  0  0  0  0  0  0  0  0  0
   12.5028   -5.9628    3.2493 C   0  0  0  0  0  0  0  0  0  0  0  0
   11.8272   -4.2222    1.5303 C   0  0  0  0  0  0  0  0  0  0  0  0
   10.3728   -2.3689    2.4645 C   0  0  0  0  0  0  0  0  0  0  0  0
   10.8361   -3.6695    2.4422 N   0  0  0  0  0  0  0  0  0  0  0  0
   10.3318   -4.6525    3.4140 C   0  0  0  0  0  0  0  0  0  0  0  0
   11.5174   -5.2619    4.2040 C   0  0  0  0  0  0  0  0  0  0  0  0
   12.9583   -4.9795    2.2076 C   0  0  0  0  0  0  0  0  0  0  0  0
    9.5519   -2.1205    3.3405 O   0  0  0  0  0  0  0  0  0  0  0  0
   13.6990   -6.6342    3.9614 C   0  0  0  0  0  0  0  0  0  0  0  0
   13.2134   -7.2515    5.2586 C   0  0  0  0  0  0  0  0  0  0  0  0
   13.8228  -10.6133    3.9107 C   0  0  0  0  0  0  0  0  0  0  0  0
   14.0349  -10.7222    5.3959 C   0  0  0  0  0  0  0  0  0  0  0  0
   13.2109   -9.5876    6.0224 C   0  0  0  0  0  0  0  0  0  0  0  0
   12.7456   -8.6706    4.9607 N   0  0  0  0  0  0  0  0  0  0  0  0
   13.2694   -9.2199    3.6646 C   0  0  0  0  0  0  0  0  0  0  0  0
   13.8044    1.7979   -1.2924 O   0  0  0  0  0  0  0  0  0  0  0  0
   12.6382    1.9036   -0.9174 C   0  0  0  0  0  0  0  0  0  0  0  0
   11.9660    3.0572   -1.3488 N   0  0  0  0  0  0  0  0  0  0  0  0
   12.6128    4.0570   -2.1976 C   0  0  0  0  0  0  0  0  0  0  0  0
   12.7516    5.3820   -1.4472 C   0  0  0  0  0  0  0  0  0  0  0  0
   11.5005    5.8292   -0.6680 C   0  0  0  0  0  0  0  0  0  0  0  0
   10.3011    4.9337   -0.9722 C   0  0  0  0  0  0  0  0  0  0  0  0
   10.6015    3.4353   -1.0382 C   0  0  0  0  0  0  0  0  0  0  0  0
   11.0949    7.2232   -1.0018 C   0  0  0  0  0  0  0  0  0  0  0  0
    9.6732    7.2909   -1.5214 C   0  0  0  0  0  0  0  0  0  0  0  0
    8.9879    8.5238   -0.9244 N   0  0  0  0  0  0  0  0  0  0  0  0
    7.5083    8.5810   -0.9988 C   0  0  0  0  0  0  0  0  0  0  0  0
    7.1276    9.8052   -0.1366 C   0  0  0  0  0  0  0  0  0  0  0  0
    8.2636    9.9219    0.8851 C   0  0  0  0  0  0  0  0  0  0  0  0
    9.3165    8.8557    0.4823 C   0  0  0  0  0  0  0  0  0  0  0  0
   13.5398    1.3322    1.8983 N   0  0  0  0  0  0  0  0  0  0  0  0
   14.4144    0.9264    2.0975 H   0  0  0  0  0  0  0  0  0  0  0  0
   12.1270    2.9796    2.8157 C   0  0  0  0  0  0  0  0  0  0  0  0
   12.5689    5.2029    2.7683 C   0  0  0  0  0  0  0  0  0  0  0  0
   13.2905    2.6246    2.2372 C   0  0  0  0  0  0  0  0  0  0  0  0
   11.7614    4.2491    3.0724 C   0  0  0  0  0  0  0  0  0  0  0  0
   13.7397    4.8793    2.1780 C   0  0  0  0  0  0  0  0  0  0  0  0
   14.0665    3.6019    1.8981 C   0  0  0  0  0  0  0  0  0  0  0  0
   12.1953    6.4324    3.0245 O   0  0  0  0  0  0  0  0  0  0  0  0
   13.0430    7.3078    2.1397 C   0  0  0  0  0  0  0  0  0  0  0  0
   14.2227    8.0093    2.9761 N   0  0  0  0  0  0  0  0  0  0  0  0
   15.1805    8.8975    2.2124 C   0  0  0  0  0  0  0  0  0  0  0  0
   16.0309    9.6391    3.2724 C   0  0  0  0  0  0  0  0  0  0  0  0
   15.0421    9.8234    4.4270 C   0  0  0  0  0  0  0  0  0  0  0  0
   13.7945    8.9385    4.0716 C   0  0  0  0  0  0  0  0  0  0  0  0
 22 23  2  0  0  0
 25 24  1  0  0  0
 25 26  1  0  0  0
 23 24  1  0  0  0
 23  1  1  0  0  0
  6  5  2  0  0  0
  6  1  1  0  0  0
 24 29  1  0  0  0
  5  4  1  0  0  0
 26 27  1  0  0  0
  1  2  2  0  0  0
 29 28  1  0  0  0
  4  3  2  0  0  0
  4  9  1  0  0  0
  2  3  1  0  0  0
  2 37  1  0  0  0
 27 28  1  0  0  0
 27 30  1  0  0  0
  8 10  1  0  0  0
  8 13  1  0  0  0
 30 31  1  0  0  0
  9 10  1  0  0  0
  9 14  2  0  0  0
 10 11  1  0  0  0
 37 41  1  0  0  0
 33 34  1  0  0  0
 33 32  1  0  0  0
 13  7  1  0  0  0
 11 12  1  0  0  0
 34 35  1  0  0  0
 31 32  1  0  0  0
 41 44  2  0  0  0
 41 39  1  0  0  0
  7 12  1  0  0  0
  7 15  1  0  0  0
 32 36  1  0  0  0
 44 43  1  0  0  0
 21 17  1  0  0  0
 21 20  1  0  0  0
 17 18  1  0  0  0
 39 42  2  0  0  0
 35 36  1  0  0  0
 15 16  1  0  0  0
 20 16  1  0  0  0
 20 19  1  0  0  0
 43 40  2  0  0  0
 48 49  1  0  0  0
 48 47  1  0  0  0
 49 50  1  0  0  0
 18 19  1  0  0  0
 42 40  1  0  0  0
 40 45  1  0  0  0
 50 51  1  0  0  0
 47 46  1  0  0  0
 47 51  1  0  0  0
 46 45  1  0  0  0
 37 38  1  0  0  0
M  END
> <minimizedAffinity>
-10.04743

$$$$
5JSJ_6PD_A_301


 51 57  0  0  0  0  0  0  0  0999 V2000
   10.7324   -1.5319    1.0700 C   0  0  0  0  0  0  0  0  0  0  0  0
   11.4297   -0.7056    1.9548 C   0  0  0  0  0  0  0  0  0  0  0  0
   12.0424    0.4936    1.4259 C   0  0  0  0  0  0  0  0  0  0  0  0
   11.9903    0.9122    0.1206 C   0  0  0  0  0  0  0  0  0  0  0  0
   11.2680    0.0883   -0.7415 C   0  0  0  0  0  0  0  0  0  0  0  0
   10.6700   -1.0863   -0.2496 C   0  0  0  0  0  0  0  0  0  0  0  0
   12.0287    5.8306    1.9312 C   0  0  0  0  0  0  0  0  0  0  0  0
   11.0071    3.7161    0.9687 C   0  0  0  0  0  0  0  0  0  0  0  0
   12.6724    2.2236   -0.2238 C   0  0  0  0  0  0  0  0  0  0  0  0
   12.2118    3.4567    0.1936 N   0  0  0  0  0  0  0  0  0  0  0  0
   12.9659    4.6778   -0.1303 C   0  0  0  0  0  0  0  0  0  0  0  0
   13.3121    5.4396    1.1739 C   0  0  0  0  0  0  0  0  0  0  0  0
   11.2184    4.5920    2.1934 C   0  0  0  0  0  0  0  0  0  0  0  0
   13.7281    2.2426   -0.8468 O   0  0  0  0  0  0  0  0  0  0  0  0
   12.2827    6.6311    3.2286 C   0  0  0  0  0  0  0  0  0  0  0  0
   12.8178    8.0018    2.8620 C   0  0  0  0  0  0  0  0  0  0  0  0
   15.9772    9.8427    3.2074 C   0  0  0  0  0  0  0  0  0  0  0  0
   15.3010    9.9331    4.5481 C   0  0  0  0  0  0  0  0  0  0  0  0
   14.3675    8.7164    4.6308 C   0  0  0  0  0  0  0  0  0  0  0  0
   14.2745    8.0739    3.3029 N   0  0  0  0  0  0  0  0  0  0  0  0
   15.1461    8.8768    2.3801 C   0  0  0  0  0  0  0  0  0  0  0  0
    8.8237   -2.7818    1.5404 O   0  0  0  0  0  0  0  0  0  0  0  0
   10.0499   -2.7911    1.4489 C   0  0  0  0  0  0  0  0  0  0  0  0
   10.6709   -4.0091    1.7644 N   0  0  0  0  0  0  0  0  0  0  0  0
    9.9031   -5.1879    2.1634 C   0  0  0  0  0  0  0  0  0  0  0  0
   10.2199   -5.5639    3.6113 C   0  0  0  0  0  0  0  0  0  0  0  0
   11.7146   -5.5435    3.9827 C   0  0  0  0  0  0  0  0  0  0  0  0
   12.5949   -5.3350    2.7520 C   0  0  0  0  0  0  0  0  0  0  0  0
   12.0937   -4.2866    1.7573 C   0  0  0  0  0  0  0  0  0  0  0  0
   12.1562   -6.8157    4.6195 C   0  0  0  0  0  0  0  0  0  0  0  0
   13.6654   -6.9046    4.7214 C   0  0  0  0  0  0  0  0  0  0  0  0
   14.0651   -8.3773    4.8534 N   0  0  0  0  0  0  0  0  0  0  0  0
   13.3146   -9.1997    5.8324 C   0  0  0  0  0  0  0  0  0  0  0  0
   13.7960  -10.6440    5.5697 C   0  0  0  0  0  0  0  0  0  0  0  0
   14.2065  -10.6481    4.0934 C   0  0  0  0  0  0  0  0  0  0  0  0
   14.0809   -9.1799    3.6072 C   0  0  0  0  0  0  0  0  0  0  0  0
   11.6132   -1.0105    3.3071 N   0  0  0  0  0  0  0  0  0  0  0  0
   12.2833   -1.6785    3.5790 H   0  0  0  0  0  0  0  0  0  0  0  0
    9.5369   -0.6161    4.3487 C   0  0  0  0  0  0  0  0  0  0  0  0
    9.1864    0.9795    5.9208 C   0  0  0  0  0  0  0  0  0  0  0  0
   10.8583   -0.3766    4.2427 C   0  0  0  0  0  0  0  0  0  0  0  0
    8.7056    0.0544    5.1676 C   0  0  0  0  0  0  0  0  0  0  0  0
   10.5065    1.2497    5.8303 C   0  0  0  0  0  0  0  0  0  0  0  0
   11.3113    0.5881    4.9750 C   0  0  0  0  0  0  0  0  0  0  0  0
    8.3617    1.6224    6.7105 O   0  0  0  0  0  0  0  0  0  0  0  0
    7.3441    2.2612    5.8026 C   0  0  0  0  0  0  0  0  0  0  0  0
    7.7519    3.7748    5.4476 N   0  0  0  0  0  0  0  0  0  0  0  0
    8.0106    4.1000    3.9927 C   0  0  0  0  0  0  0  0  0  0  0  0
    8.1177    5.6417    3.9002 C   0  0  0  0  0  0  0  0  0  0  0  0
    7.1333    6.1117    4.9747 C   0  0  0  0  0  0  0  0  0  0  0  0
    6.7449    4.8297    5.7941 C   0  0  0  0  0  0  0  0  0  0  0  0
 22 23  2  0  0  0
 25 24  1  0  0  0
 25 26  1  0  0  0
 23 24  1  0  0  0
 23  1  1  0  0  0
  6  5  2  0  0  0
  6  1  1  0  0  0
 24 29  1  0  0  0
  5  4  1  0  0  0
 26 27  1  0  0  0
  1  2  2  0  0  0
 29 28  1  0  0  0
  4  3  2  0  0  0
  4  9  1  0  0  0
  2  3  1  0  0  0
  2 37  1  0  0  0
 27 28  1  0  0  0
 27 30  1  0  0  0
  8 10  1  0  0  0
  8 13  1  0  0  0
 30 31  1  0  0  0
  9 10  1  0  0  0
  9 14  2  0  0  0
 10 11  1  0  0  0
 37 41  1  0  0  0
 33 34  1  0  0  0
 33 32  1  0  0  0
 13  7  1  0  0  0
 11 12  1  0  0  0
 34 35  1  0  0  0
 31 32  1  0  0  0
 41 44  2  0  0  0
 41 39  1  0  0  0
  7 12  1  0  0  0
  7 15  1  0  0  0
 32 36  1  0  0  0
 44 43  1  0  0  0
 21 17  1  0  0  0
 21 20  1  0  0  0
 17 18  1  0  0  0
 39 42  2  0  0  0
 35 36  1  0  0  0
 15 16  1  0  0  0
 20 16  1  0  0  0
 20 19  1  0  0  0
 43 40  2  0  0  0
 48 49  1  0  0  0
 48 47  1  0  0  0
 49 50  1  0  0  0
 18 19  1  0  0  0
 42 40  1  0  0  0
 40 45  1  0  0  0
 50 51  1  0  0  0
 47 46  1  0  0  0
 47 51  1  0  0  0
 46 45  1  0  0  0
 37 38  1  0  0  0
M  END
> <minimizedAffinity>
-9.61620

$$$$
5JSJ_6PD_A_301


 51 57  0  0  0  0  0  0  0  0999 V2000
   10.8068   -1.4737    1.0111 C   0  0  0  0  0  0  0  0  0  0  0  0
   11.5004   -0.6425    1.8944 C   0  0  0  0  0  0  0  0  0  0  0  0
   12.1096    0.5572    1.3628 C   0  0  0  0  0  0  0  0  0  0  0  0
   12.0575    0.9720    0.0563 C   0  0  0  0  0  0  0  0  0  0  0  0
   11.3388    0.1434   -0.8043 C   0  0  0  0  0  0  0  0  0  0  0  0
   10.7443   -1.0319   -0.3097 C   0  0  0  0  0  0  0  0  0  0  0  0
   12.0671    5.8986    1.8449 C   0  0  0  0  0  0  0  0  0  0  0  0
   11.0587    3.7755    0.8875 C   0  0  0  0  0  0  0  0  0  0  0  0
   12.7355    2.2848   -0.2910 C   0  0  0  0  0  0  0  0  0  0  0  0
   12.2679    3.5177    0.1188 N   0  0  0  0  0  0  0  0  0  0  0  0
   13.0182    4.7406   -0.2073 C   0  0  0  0  0  0  0  0  0  0  0  0
   13.3555    5.5097    1.0949 C   0  0  0  0  0  0  0  0  0  0  0  0
   11.2609    4.6577    2.1092 C   0  0  0  0  0  0  0  0  0  0  0  0
   13.7938    2.3054   -0.9095 O   0  0  0  0  0  0  0  0  0  0  0  0
   12.3121    6.7059    3.1398 C   0  0  0  0  0  0  0  0  0  0  0  0
   12.8845    8.0611    2.7716 C   0  0  0  0  0  0  0  0  0  0  0  0
   16.0606    9.8540    3.2053 C   0  0  0  0  0  0  0  0  0  0  0  0
   15.3288    9.9937    4.5121 C   0  0  0  0  0  0  0  0  0  0  0  0
   14.3695    8.7967    4.5867 C   0  0  0  0  0  0  0  0  0  0  0  0
   14.3218    8.1193    3.2738 N   0  0  0  0  0  0  0  0  0  0  0  0
   15.2477    8.8804    2.3687 C   0  0  0  0  0  0  0  0  0  0  0  0
    8.9003   -2.7347    1.4602 O   0  0  0  0  0  0  0  0  0  0  0  0
   10.1281   -2.7341    1.3928 C   0  0  0  0  0  0  0  0  0  0  0  0
   10.7536   -3.9423    1.7360 N   0  0  0  0  0  0  0  0  0  0  0  0
    9.9884   -5.1229    2.1350 C   0  0  0  0  0  0  0  0  0  0  0  0
   10.2801   -5.4775    3.5936 C   0  0  0  0  0  0  0  0  0  0  0  0
   11.7669   -5.4389    3.9938 C   0  0  0  0  0  0  0  0  0  0  0  0
   12.6694   -5.2380    2.7780 C   0  0  0  0  0  0  0  0  0  0  0  0
   12.1786   -4.2069    1.7602 C   0  0  0  0  0  0  0  0  0  0  0  0
   12.2072   -6.6989    4.6554 C   0  0  0  0  0  0  0  0  0  0  0  0
   13.7154   -6.8447    4.6506 C   0  0  0  0  0  0  0  0  0  0  0  0
   14.0687   -8.3241    4.8308 N   0  0  0  0  0  0  0  0  0  0  0  0
   13.2674   -9.0995    5.8079 C   0  0  0  0  0  0  0  0  0  0  0  0
   13.7142  -10.5632    5.5954 C   0  0  0  0  0  0  0  0  0  0  0  0
   14.1660  -10.6168    4.1322 C   0  0  0  0  0  0  0  0  0  0  0  0
   14.0965   -9.1587    3.6061 C   0  0  0  0  0  0  0  0  0  0  0  0
   11.6834   -0.9431    3.2477 N   0  0  0  0  0  0  0  0  0  0  0  0
   12.3562   -1.6072    3.5223 H   0  0  0  0  0  0  0  0  0  0  0  0
    9.6616   -0.7053    4.4340 C   0  0  0  0  0  0  0  0  0  0  0  0
    9.2184    0.9995    5.8615 C   0  0  0  0  0  0  0  0  0  0  0  0
   10.9242   -0.3102    4.1806 C   0  0  0  0  0  0  0  0  0  0  0  0
    8.8127   -0.0596    5.2548 C   0  0  0  0  0  0  0  0  0  0  0  0
   10.4768    1.4264    5.6204 C   0  0  0  0  0  0  0  0  0  0  0  0
   11.2954    0.7819    4.7652 C   0  0  0  0  0  0  0  0  0  0  0  0
    8.3776    1.6156    6.6554 O   0  0  0  0  0  0  0  0  0  0  0  0
    7.2937    0.6142    6.9560 C   0  0  0  0  0  0  0  0  0  0  0  0
    6.9967    0.5362    8.5336 N   0  0  0  0  0  0  0  0  0  0  0  0
    8.1004    0.9783    9.4695 C   0  0  0  0  0  0  0  0  0  0  0  0
    7.4728    1.0545   10.8827 C   0  0  0  0  0  0  0  0  0  0  0  0
    6.0364    1.4962   10.5888 C   0  0  0  0  0  0  0  0  0  0  0  0
    5.8563    1.3705    9.0339 C   0  0  0  0  0  0  0  0  0  0  0  0
 22 23  2  0  0  0
 25 24  1  0  0  0
 25 26  1  0  0  0
 23 24  1  0  0  0
 23  1  1  0  0  0
  6  5  2  0  0  0
  6  1  1  0  0  0
 24 29  1  0  0  0
  5  4  1  0  0  0
 26 27  1  0  0  0
  1  2  2  0  0  0
 29 28  1  0  0  0
  4  3  2  0  0  0
  4  9  1  0  0  0
  2  3  1  0  0  0
  2 37  1  0  0  0
 27 28  1  0  0  0
 27 30  1  0  0  0
  8 10  1  0  0  0
  8 13  1  0  0  0
 30 31  1  0  0  0
  9 10  1  0  0  0
  9 14  2  0  0  0
 10 11  1  0  0  0
 37 41  1  0  0  0
 33 34  1  0  0  0
 33 32  1  0  0  0
 13  7  1  0  0  0
 11 12  1  0  0  0
 34 35  1  0  0  0
 31 32  1  0  0  0
 41 44  2  0  0  0
 41 39  1  0  0  0
  7 12  1  0  0  0
  7 15  1  0  0  0
 32 36  1  0  0  0
 44 43  1  0  0  0
 21 17  1  0  0  0
 21 20  1  0  0  0
 17 18  1  0  0  0
 39 42  2  0  0  0
 35 36  1  0  0  0
 15 16  1  0  0  0
 20 16  1  0  0  0
 20 19  1  0  0  0
 43 40  2  0  0  0
 48 49  1  0  0  0
 48 47  1  0  0  0
 49 50  1  0  0  0
 18 19  1  0  0  0
 42 40  1  0  0  0
 40 45  1  0  0  0
 50 51  1  0  0  0
 47 46  1  0  0  0
 47 51  1  0  0  0
 46 45  1  0  0  0
 37 38  1  0  0  0
M  END
> <minimizedAffinity>
-9.59836

$$$$
5JSJ_6PD_A_301


 51 57  0  0  0  0  0  0  0  0999 V2000
   11.7857    0.7868    0.0294 C   0  0  0  0  0  0  0  0  0  0  0  0
   10.8488   -0.1395   -0.4355 C   0  0  0  0  0  0  0  0  0  0  0  0
   10.5126   -1.2554    0.4217 C   0  0  0  0  0  0  0  0  0  0  0  0
   11.0220   -1.4868    1.6741 C   0  0  0  0  0  0  0  0  0  0  0  0
   11.9353   -0.5376    2.1312 C   0  0  0  0  0  0  0  0  0  0  0  0
   12.2818    0.5517    1.3110 C   0  0  0  0  0  0  0  0  0  0  0  0
   12.9274   -6.0770    3.3384 C   0  0  0  0  0  0  0  0  0  0  0  0
   12.3218   -4.2898    1.6412 C   0  0  0  0  0  0  0  0  0  0  0  0
   10.5102   -2.7013    2.4269 C   0  0  0  0  0  0  0  0  0  0  0  0
   11.1337   -3.9332    2.4030 N   0  0  0  0  0  0  0  0  0  0  0  0
   10.6088   -5.0451    3.2111 C   0  0  0  0  0  0  0  0  0  0  0  0
   11.7189   -5.5764    4.1525 C   0  0  0  0  0  0  0  0  0  0  0  0
   13.4159   -4.9646    2.4532 C   0  0  0  0  0  0  0  0  0  0  0  0
    9.5334   -2.6231    3.1635 O   0  0  0  0  0  0  0  0  0  0  0  0
   14.0685   -6.6621    4.2011 C   0  0  0  0  0  0  0  0  0  0  0  0
   13.4628   -7.4750    5.3288 C   0  0  0  0  0  0  0  0  0  0  0  0
   14.3537  -10.7807    3.9988 C   0  0  0  0  0  0  0  0  0  0  0  0
   14.0273  -10.9972    5.4512 C   0  0  0  0  0  0  0  0  0  0  0  0
   13.0880   -9.8483    5.8466 C   0  0  0  0  0  0  0  0  0  0  0  0
   13.0655   -8.8357    4.7701 N   0  0  0  0  0  0  0  0  0  0  0  0
   13.9847   -9.3387    3.6940 C   0  0  0  0  0  0  0  0  0  0  0  0
   13.0168    1.8165   -1.6590 O   0  0  0  0  0  0  0  0  0  0  0  0
   12.2384    1.9810   -0.7215 C   0  0  0  0  0  0  0  0  0  0  0  0
   11.9002    3.3139   -0.4427 N   0  0  0  0  0  0  0  0  0  0  0  0
   12.4332    4.4271   -1.2270 C   0  0  0  0  0  0  0  0  0  0  0  0
   13.3323    5.3073   -0.3581 C   0  0  0  0  0  0  0  0  0  0  0  0
   12.7740    5.6392    1.0385 C   0  0  0  0  0  0  0  0  0  0  0  0
   11.3287    5.1691    1.1904 C   0  0  0  0  0  0  0  0  0  0  0  0
   11.0248    3.7860    0.6119 C   0  0  0  0  0  0  0  0  0  0  0  0
   12.7843    7.1023    1.3184 C   0  0  0  0  0  0  0  0  0  0  0  0
   14.1637    7.7037    1.1412 C   0  0  0  0  0  0  0  0  0  0  0  0
   14.6547    8.2201    2.4970 N   0  0  0  0  0  0  0  0  0  0  0  0
   15.6644    9.3056    2.4851 C   0  0  0  0  0  0  0  0  0  0  0  0
   15.7795    9.7393    3.9635 C   0  0  0  0  0  0  0  0  0  0  0  0
   14.4112    9.4064    4.5676 C   0  0  0  0  0  0  0  0  0  0  0  0
   13.6179    8.6682    3.4569 C   0  0  0  0  0  0  0  0  0  0  0  0
   10.2685   -0.0726   -1.7059 N   0  0  0  0  0  0  0  0  0  0  0  0
    9.6624    0.6681   -1.9367 H   0  0  0  0  0  0  0  0  0  0  0  0
    9.9261   -2.2333   -2.5810 C   0  0  0  0  0  0  0  0  0  0  0  0
   11.1667   -3.1410   -4.2476 C   0  0  0  0  0  0  0  0  0  0  0  0
   10.5484   -1.0393   -2.6194 C   0  0  0  0  0  0  0  0  0  0  0  0
   10.2317   -3.2763   -3.3748 C   0  0  0  0  0  0  0  0  0  0  0  0
   11.8160   -1.9582   -4.3040 C   0  0  0  0  0  0  0  0  0  0  0  0
   11.5154   -0.9408   -3.4724 C   0  0  0  0  0  0  0  0  0  0  0  0
   11.4511   -4.1675   -5.0106 O   0  0  0  0  0  0  0  0  0  0  0  0
   12.7838   -4.6762   -4.5279 C   0  0  0  0  0  0  0  0  0  0  0  0
   12.6403   -6.1256   -3.8480 N   0  0  0  0  0  0  0  0  0  0  0  0
   11.3246   -6.8500   -4.0312 C   0  0  0  0  0  0  0  0  0  0  0  0
   11.5443   -8.2945   -3.5193 C   0  0  0  0  0  0  0  0  0  0  0  0
   13.0073   -8.5610   -3.8840 C   0  0  0  0  0  0  0  0  0  0  0  0
   13.6034   -7.1742   -4.3169 C   0  0  0  0  0  0  0  0  0  0  0  0
 22 23  2  0  0  0
 25 24  1  0  0  0
 25 26  1  0  0  0
 23 24  1  0  0  0
 23  1  1  0  0  0
  6  5  2  0  0  0
  6  1  1  0  0  0
 24 29  1  0  0  0
  5  4  1  0  0  0
 26 27  1  0  0  0
  1  2  2  0  0  0
 29 28  1  0  0  0
  4  3  2  0  0  0
  4  9  1  0  0  0
  2  3  1  0  0  0
  2 37  1  0  0  0
 27 28  1  0  0  0
 27 30  1  0  0  0
  8 10  1  0  0  0
  8 13  1  0  0  0
 30 31  1  0  0  0
  9 10  1  0  0  0
  9 14  2  0  0  0
 10 11  1  0  0  0
 37 41  1  0  0  0
 33 34  1  0  0  0
 33 32  1  0  0  0
 13  7  1  0  0  0
 11 12  1  0  0  0
 34 35  1  0  0  0
 31 32  1  0  0  0
 41 44  2  0  0  0
 41 39  1  0  0  0
  7 12  1  0  0  0
  7 15  1  0  0  0
 32 36  1  0  0  0
 44 43  1  0  0  0
 21 17  1  0  0  0
 21 20  1  0  0  0
 17 18  1  0  0  0
 39 42  2  0  0  0
 35 36  1  0  0  0
 15 16  1  0  0  0
 20 16  1  0  0  0
 20 19  1  0  0  0
 43 40  2  0  0  0
 48 49  1  0  0  0
 48 47  1  0  0  0
 49 50  1  0  0  0
 18 19  1  0  0  0
 42 40  1  0  0  0
 40 45  1  0  0  0
 50 51  1  0  0  0
 47 46  1  0  0  0
 47 51  1  0  0  0
 46 45  1  0  0  0
 37 38  1  0  0  0
M  END
> <minimizedAffinity>
-9.26069

$$$$
5JSJ_6PD_A_301


 51 57  0  0  0  0  0  0  0  0999 V2000
   11.7847    0.6506   -0.9606 C   0  0  0  0  0  0  0  0  0  0  0  0
   12.2885    0.5749    0.3404 C   0  0  0  0  0  0  0  0  0  0  0  0
   11.6535   -0.3406    1.2633 C   0  0  0  0  0  0  0  0  0  0  0  0
   10.5969   -1.1664    0.9747 C   0  0  0  0  0  0  0  0  0  0  0  0
   10.1253   -1.0957   -0.3355 C   0  0  0  0  0  0  0  0  0  0  0  0
   10.7237   -0.2071   -1.2475 C   0  0  0  0  0  0  0  0  0  0  0  0
   12.0411   -5.6996    3.1736 C   0  0  0  0  0  0  0  0  0  0  0  0
   11.3302   -4.1512    1.2925 C   0  0  0  0  0  0  0  0  0  0  0  0
   10.0984   -2.0807    2.0789 C   0  0  0  0  0  0  0  0  0  0  0  0
   10.4677   -3.4059    2.1980 N   0  0  0  0  0  0  0  0  0  0  0  0
    9.9893   -4.2092    3.3341 C   0  0  0  0  0  0  0  0  0  0  0  0
   11.1983   -4.8026    4.1003 C   0  0  0  0  0  0  0  0  0  0  0  0
   12.4646   -4.9013    1.9723 C   0  0  0  0  0  0  0  0  0  0  0  0
    9.3808   -1.6544    2.9768 O   0  0  0  0  0  0  0  0  0  0  0  0
   13.2492   -6.3655    3.8705 C   0  0  0  0  0  0  0  0  0  0  0  0
   12.7373   -7.3600    4.8945 C   0  0  0  0  0  0  0  0  0  0  0  0
   13.8254  -10.8372    5.3578 C   0  0  0  0  0  0  0  0  0  0  0  0
   14.1070  -10.5077    3.9174 C   0  0  0  0  0  0  0  0  0  0  0  0
   14.2668   -8.9814    3.8589 C   0  0  0  0  0  0  0  0  0  0  0  0
   13.8327   -8.3896    5.1419 N   0  0  0  0  0  0  0  0  0  0  0  0
   13.4005   -9.5341    6.0133 C   0  0  0  0  0  0  0  0  0  0  0  0
   13.1544    1.0698   -2.7976 O   0  0  0  0  0  0  0  0  0  0  0  0
   12.3186    1.5333   -2.0239 C   0  0  0  0  0  0  0  0  0  0  0  0
   11.9974    2.8851   -2.2191 N   0  0  0  0  0  0  0  0  0  0  0  0
   12.6116    3.6801   -3.2818 C   0  0  0  0  0  0  0  0  0  0  0  0
   13.4723    4.7933   -2.6833 C   0  0  0  0  0  0  0  0  0  0  0  0
   12.8291    5.5641   -1.5151 C   0  0  0  0  0  0  0  0  0  0  0  0
   11.3650    5.1731   -1.3244 C   0  0  0  0  0  0  0  0  0  0  0  0
   11.0650    3.6778   -1.4422 C   0  0  0  0  0  0  0  0  0  0  0  0
   12.8588    7.0384   -1.7264 C   0  0  0  0  0  0  0  0  0  0  0  0
   13.7093    7.4231   -2.9199 C   0  0  0  0  0  0  0  0  0  0  0  0
   15.0891    7.8632   -2.4213 N   0  0  0  0  0  0  0  0  0  0  0  0
   15.3777    7.6866   -0.9779 C   0  0  0  0  0  0  0  0  0  0  0  0
   16.8828    8.0092   -0.8450 C   0  0  0  0  0  0  0  0  0  0  0  0
   17.4708    7.6641   -2.2172 C   0  0  0  0  0  0  0  0  0  0  0  0
   16.2654    7.2955   -3.1222 C   0  0  0  0  0  0  0  0  0  0  0  0
   13.3324    1.3796    0.8073 N   0  0  0  0  0  0  0  0  0  0  0  0
   14.2613    1.0550    0.7771 H   0  0  0  0  0  0  0  0  0  0  0  0
   13.9620    3.6066    1.2493 C   0  0  0  0  0  0  0  0  0  0  0  0
   12.7111    5.0665    2.4510 C   0  0  0  0  0  0  0  0  0  0  0  0
   13.0532    2.6138    1.3032 C   0  0  0  0  0  0  0  0  0  0  0  0
   13.8033    4.8150    1.8201 C   0  0  0  0  0  0  0  0  0  0  0  0
   11.7842    4.0876    2.5307 C   0  0  0  0  0  0  0  0  0  0  0  0
   11.9830    2.8728    1.9813 C   0  0  0  0  0  0  0  0  0  0  0  0
   12.5750    6.2478    3.0014 O   0  0  0  0  0  0  0  0  0  0  0  0
   13.1502    7.2264    2.0118 C   0  0  0  0  0  0  0  0  0  0  0  0
   13.8005    8.4925    2.7585 N   0  0  0  0  0  0  0  0  0  0  0  0
   13.9398    8.4137    4.2630 C   0  0  0  0  0  0  0  0  0  0  0  0
   14.8169    9.6174    4.6859 C   0  0  0  0  0  0  0  0  0  0  0  0
   15.7719    9.7703    3.4989 C   0  0  0  0  0  0  0  0  0  0  0  0
   15.2045    8.8420    2.3665 C   0  0  0  0  0  0  0  0  0  0  0  0
 22 23  2  0  0  0
 25 24  1  0  0  0
 25 26  1  0  0  0
 23 24  1  0  0  0
 23  1  1  0  0  0
  6  5  2  0  0  0
  6  1  1  0  0  0
 24 29  1  0  0  0
  5  4  1  0  0  0
 26 27  1  0  0  0
  1  2  2  0  0  0
 29 28  1  0  0  0
  4  3  2  0  0  0
  4  9  1  0  0  0
  2  3  1  0  0  0
  2 37  1  0  0  0
 27 28  1  0  0  0
 27 30  1  0  0  0
  8 10  1  0  0  0
  8 13  1  0  0  0
 30 31  1  0  0  0
  9 10  1  0  0  0
  9 14  2  0  0  0
 10 11  1  0  0  0
 37 41  1  0  0  0
 33 34  1  0  0  0
 33 32  1  0  0  0
 13  7  1  0  0  0
 11 12  1  0  0  0
 34 35  1  0  0  0
 31 32  1  0  0  0
 41 44  2  0  0  0
 41 39  1  0  0  0
  7 12  1  0  0  0
  7 15  1  0  0  0
 32 36  1  0  0  0
 44 43  1  0  0  0
 21 17  1  0  0  0
 21 20  1  0  0  0
 17 18  1  0  0  0
 39 42  2  0  0  0
 35 36  1  0  0  0
 15 16  1  0  0  0
 20 16  1  0  0  0
 20 19  1  0  0  0
 43 40  2  0  0  0
 48 49  1  0  0  0
 48 47  1  0  0  0
 49 50  1  0  0  0
 18 19  1  0  0  0
 42 40  1  0  0  0
 40 45  1  0  0  0
 50 51  1  0  0  0
 47 46  1  0  0  0
 47 51  1  0  0  0
 46 45  1  0  0  0
 37 38  1  0  0  0
M  END
> <minimizedAffinity>
-9.20401

$$$$
5JSJ_6PD_A_301


 51 57  0  0  0  0  0  0  0  0999 V2000
    9.9384   -1.3954    0.7652 C   0  0  0  0  0  0  0  0  0  0  0  0
   10.8430   -1.2079    1.8132 C   0  0  0  0  0  0  0  0  0  0  0  0
   11.8480   -0.1774    1.6680 C   0  0  0  0  0  0  0  0  0  0  0  0
   11.9906    0.6576    0.5891 C   0  0  0  0  0  0  0  0  0  0  0  0
   11.0625    0.4728   -0.4348 C   0  0  0  0  0  0  0  0  0  0  0  0
   10.0810   -0.5283   -0.3172 C   0  0  0  0  0  0  0  0  0  0  0  0
   12.4980    5.6500    2.1021 C   0  0  0  0  0  0  0  0  0  0  0  0
   11.5556    3.7118    0.7617 C   0  0  0  0  0  0  0  0  0  0  0  0
   13.0923    1.6999    0.6487 C   0  0  0  0  0  0  0  0  0  0  0  0
   12.8555    3.0567    0.7473 N   0  0  0  0  0  0  0  0  0  0  0  0
   13.9798    3.9986    0.8633 C   0  0  0  0  0  0  0  0  0  0  0  0
   13.8157    4.8528    2.1457 C   0  0  0  0  0  0  0  0  0  0  0  0
   11.3543    4.6948    1.9041 C   0  0  0  0  0  0  0  0  0  0  0  0
   14.2728    1.3708    0.6816 O   0  0  0  0  0  0  0  0  0  0  0  0
   12.2733    6.5619    3.3295 C   0  0  0  0  0  0  0  0  0  0  0  0
   12.7661    7.9576    2.9998 C   0  0  0  0  0  0  0  0  0  0  0  0
   15.9704    9.7528    3.0153 C   0  0  0  0  0  0  0  0  0  0  0  0
   15.4009    9.9179    4.3978 C   0  0  0  0  0  0  0  0  0  0  0  0
   14.4581    8.7241    4.6093 C   0  0  0  0  0  0  0  0  0  0  0  0
   14.2533    8.0226    3.3245 N   0  0  0  0  0  0  0  0  0  0  0  0
   15.0634    8.7653    2.3007 C   0  0  0  0  0  0  0  0  0  0  0  0
    7.8096   -2.1388    1.3500 O   0  0  0  0  0  0  0  0  0  0  0  0
    8.8528   -2.4036    0.7555 C   0  0  0  0  0  0  0  0  0  0  0  0
    8.9063   -3.6748    0.1640 N   0  0  0  0  0  0  0  0  0  0  0  0
    7.7868   -4.6123    0.2438 C   0  0  0  0  0  0  0  0  0  0  0  0
    8.1839   -5.8469    1.0539 C   0  0  0  0  0  0  0  0  0  0  0  0
    9.5672   -6.4353    0.7180 C   0  0  0  0  0  0  0  0  0  0  0  0
   10.1789   -5.7633   -0.5096 C   0  0  0  0  0  0  0  0  0  0  0  0
   10.0163   -4.2437   -0.5746 C   0  0  0  0  0  0  0  0  0  0  0  0
    9.5048   -7.8947    0.4258 C   0  0  0  0  0  0  0  0  0  0  0  0
    8.8988   -8.1752   -0.9344 C   0  0  0  0  0  0  0  0  0  0  0  0
    8.0413   -9.4409   -0.8410 N   0  0  0  0  0  0  0  0  0  0  0  0
    7.4853   -9.9792   -2.1056 C   0  0  0  0  0  0  0  0  0  0  0  0
    6.8746  -11.3414   -1.7073 C   0  0  0  0  0  0  0  0  0  0  0  0
    7.6964  -11.7892   -0.4941 C   0  0  0  0  0  0  0  0  0  0  0  0
    8.6459  -10.6089   -0.1574 C   0  0  0  0  0  0  0  0  0  0  0  0
   10.8610   -2.0031    2.9633 N   0  0  0  0  0  0  0  0  0  0  0  0
   10.5933   -1.6257    3.8322 H   0  0  0  0  0  0  0  0  0  0  0  0
   10.6492   -4.2620    3.5989 C   0  0  0  0  0  0  0  0  0  0  0  0
   12.0718   -5.9038    2.9497 C   0  0  0  0  0  0  0  0  0  0  0  0
   11.2511   -3.3018    2.8708 C   0  0  0  0  0  0  0  0  0  0  0  0
   11.0538   -5.5446    3.6490 C   0  0  0  0  0  0  0  0  0  0  0  0
   12.7026   -4.9613    2.2165 C   0  0  0  0  0  0  0  0  0  0  0  0
   12.2994   -3.6751    2.2121 C   0  0  0  0  0  0  0  0  0  0  0  0
   12.4519   -7.1562    3.0122 O   0  0  0  0  0  0  0  0  0  0  0  0
   13.8542   -7.1289    3.5603 C   0  0  0  0  0  0  0  0  0  0  0  0
   14.0780   -8.2973    4.6410 N   0  0  0  0  0  0  0  0  0  0  0  0
   13.1992   -8.2801    5.8726 C   0  0  0  0  0  0  0  0  0  0  0  0
   13.4317   -9.6289    6.5962 C   0  0  0  0  0  0  0  0  0  0  0  0
   13.6790  -10.5949    5.4342 C   0  0  0  0  0  0  0  0  0  0  0  0
   13.8520   -9.6979    4.1570 C   0  0  0  0  0  0  0  0  0  0  0  0
 22 23  2  0  0  0
 25 24  1  0  0  0
 25 26  1  0  0  0
 23 24  1  0  0  0
 23  1  1  0  0  0
  6  5  2  0  0  0
  6  1  1  0  0  0
 24 29  1  0  0  0
  5  4  1  0  0  0
 26 27  1  0  0  0
  1  2  2  0  0  0
 29 28  1  0  0  0
  4  3  2  0  0  0
  4  9  1  0  0  0
  2  3  1  0  0  0
  2 37  1  0  0  0
 27 28  1  0  0  0
 27 30  1  0  0  0
  8 10  1  0  0  0
  8 13  1  0  0  0
 30 31  1  0  0  0
  9 10  1  0  0  0
  9 14  2  0  0  0
 10 11  1  0  0  0
 37 41  1  0  0  0
 33 34  1  0  0  0
 33 32  1  0  0  0
 13  7  1  0  0  0
 11 12  1  0  0  0
 34 35  1  0  0  0
 31 32  1  0  0  0
 41 44  2  0  0  0
 41 39  1  0  0  0
  7 12  1  0  0  0
  7 15  1  0  0  0
 32 36  1  0  0  0
 44 43  1  0  0  0
 21 17  1  0  0  0
 21 20  1  0  0  0
 17 18  1  0  0  0
 39 42  2  0  0  0
 35 36  1  0  0  0
 15 16  1  0  0  0
 20 16  1  0  0  0
 20 19  1  0  0  0
 43 40  2  0  0  0
 48 49  1  0  0  0
 48 47  1  0  0  0
 49 50  1  0  0  0
 18 19  1  0  0  0
 42 40  1  0  0  0
 40 45  1  0  0  0
 50 51  1  0  0  0
 47 46  1  0  0  0
 47 51  1  0  0  0
 46 45  1  0  0  0
 37 38  1  0  0  0
M  END
> <minimizedAffinity>
-9.19699

$$$$
5JSJ_6PD_A_301


 51 57  0  0  0  0  0  0  0  0999 V2000
   11.6608    0.3226   -0.6267 C   0  0  0  0  0  0  0  0  0  0  0  0
   12.0139    0.2470    0.7230 C   0  0  0  0  0  0  0  0  0  0  0  0
   11.4551   -0.8285    1.5130 C   0  0  0  0  0  0  0  0  0  0  0  0
   10.6102   -1.8064    1.0530 C   0  0  0  0  0  0  0  0  0  0  0  0
   10.2904   -1.7293   -0.3019 C   0  0  0  0  0  0  0  0  0  0  0  0
   10.8173   -0.6875   -1.0870 C   0  0  0  0  0  0  0  0  0  0  0  0
   12.6606   -6.0551    3.3366 C   0  0  0  0  0  0  0  0  0  0  0  0
   11.9196   -4.5827    1.4068 C   0  0  0  0  0  0  0  0  0  0  0  0
   10.1631   -2.8692    2.0400 C   0  0  0  0  0  0  0  0  0  0  0  0
   10.7899   -4.0913    2.1823 N   0  0  0  0  0  0  0  0  0  0  0  0
   10.3331   -5.0434    3.2069 C   0  0  0  0  0  0  0  0  0  0  0  0
   11.5136   -5.4128    4.1402 C   0  0  0  0  0  0  0  0  0  0  0  0
   13.0752   -5.1155    2.2389 C   0  0  0  0  0  0  0  0  0  0  0  0
    9.2437   -2.6580    2.8230 O   0  0  0  0  0  0  0  0  0  0  0  0
   13.8663   -6.4913    4.1995 C   0  0  0  0  0  0  0  0  0  0  0  0
   13.3741   -7.4110    5.3001 C   0  0  0  0  0  0  0  0  0  0  0  0
   14.4247  -10.6813    3.9997 C   0  0  0  0  0  0  0  0  0  0  0  0
   13.9549  -10.9310    5.4067 C   0  0  0  0  0  0  0  0  0  0  0  0
   12.9702   -9.7973    5.7284 C   0  0  0  0  0  0  0  0  0  0  0  0
   13.0476   -8.7621    4.6761 N   0  0  0  0  0  0  0  0  0  0  0  0
   14.0755   -9.2358    3.6886 C   0  0  0  0  0  0  0  0  0  0  0  0
   13.1316    1.1025   -2.2561 O   0  0  0  0  0  0  0  0  0  0  0  0
   12.1435    1.3578   -1.5702 C   0  0  0  0  0  0  0  0  0  0  0  0
   11.6075    2.6438   -1.7364 N   0  0  0  0  0  0  0  0  0  0  0  0
   12.1844    3.6067   -2.6736 C   0  0  0  0  0  0  0  0  0  0  0  0
   12.7563    4.8070   -1.9182 C   0  0  0  0  0  0  0  0  0  0  0  0
   11.8561    5.3696   -0.8022 C   0  0  0  0  0  0  0  0  0  0  0  0
   10.4747    4.7180   -0.8145 C   0  0  0  0  0  0  0  0  0  0  0  0
   10.4651    3.2055   -1.0429 C   0  0  0  0  0  0  0  0  0  0  0  0
   11.6426    6.8379   -0.9345 C   0  0  0  0  0  0  0  0  0  0  0  0
   12.6504    7.4754   -1.8693 C   0  0  0  0  0  0  0  0  0  0  0  0
   13.7975    8.0557   -1.0366 N   0  0  0  0  0  0  0  0  0  0  0  0
   13.8677    7.6613    0.3908 C   0  0  0  0  0  0  0  0  0  0  0  0
   15.2228    8.2213    0.8778 C   0  0  0  0  0  0  0  0  0  0  0  0
   16.0959    8.2588   -0.3808 C   0  0  0  0  0  0  0  0  0  0  0  0
   15.1702    7.8571   -1.5596 C   0  0  0  0  0  0  0  0  0  0  0  0
   12.8294    1.1895    1.3570 N   0  0  0  0  0  0  0  0  0  0  0  0
   13.8017    1.0459    1.4152 H   0  0  0  0  0  0  0  0  0  0  0  0
   12.9873    3.4314    2.0642 C   0  0  0  0  0  0  0  0  0  0  0  0
   11.3350    4.5409    3.1502 C   0  0  0  0  0  0  0  0  0  0  0  0
   12.2680    2.3056    1.8921 C   0  0  0  0  0  0  0  0  0  0  0  0
   12.5364    4.5337    2.6910 C   0  0  0  0  0  0  0  0  0  0  0  0
   10.5919    3.4231    3.0015 C   0  0  0  0  0  0  0  0  0  0  0  0
   11.0797    2.3188    2.4019 C   0  0  0  0  0  0  0  0  0  0  0  0
   10.9139    5.6224    3.7585 O   0  0  0  0  0  0  0  0  0  0  0  0
    9.4129    5.5074    3.8001 C   0  0  0  0  0  0  0  0  0  0  0  0
    8.7358    6.3013    2.5775 N   0  0  0  0  0  0  0  0  0  0  0  0
    7.5057    7.1272    2.8837 C   0  0  0  0  0  0  0  0  0  0  0  0
    7.2228    7.9774    1.6212 C   0  0  0  0  0  0  0  0  0  0  0  0
    8.6286    8.2553    1.0817 C   0  0  0  0  0  0  0  0  0  0  0  0
    9.5950    7.3231    1.8958 C   0  0  0  0  0  0  0  0  0  0  0  0
 22 23  2  0  0  0
 25 24  1  0  0  0
 25 26  1  0  0  0
 23 24  1  0  0  0
 23  1  1  0  0  0
  6  5  2  0  0  0
  6  1  1  0  0  0
 24 29  1  0  0  0
  5  4  1  0  0  0
 26 27  1  0  0  0
  1  2  2  0  0  0
 29 28  1  0  0  0
  4  3  2  0  0  0
  4  9  1  0  0  0
  2  3  1  0  0  0
  2 37  1  0  0  0
 27 28  1  0  0  0
 27 30  1  0  0  0
  8 10  1  0  0  0
  8 13  1  0  0  0
 30 31  1  0  0  0
  9 10  1  0  0  0
  9 14  2  0  0  0
 10 11  1  0  0  0
 37 41  1  0  0  0
 33 34  1  0  0  0
 33 32  1  0  0  0
 13  7  1  0  0  0
 11 12  1  0  0  0
 34 35  1  0  0  0
 31 32  1  0  0  0
 41 44  2  0  0  0
 41 39  1  0  0  0
  7 12  1  0  0  0
  7 15  1  0  0  0
 32 36  1  0  0  0
 44 43  1  0  0  0
 21 17  1  0  0  0
 21 20  1  0  0  0
 17 18  1  0  0  0
 39 42  2  0  0  0
 35 36  1  0  0  0
 15 16  1  0  0  0
 20 16  1  0  0  0
 20 19  1  0  0  0
 43 40  2  0  0  0
 48 49  1  0  0  0
 48 47  1  0  0  0
 49 50  1  0  0  0
 18 19  1  0  0  0
 42 40  1  0  0  0
 40 45  1  0  0  0
 50 51  1  0  0  0
 47 46  1  0  0  0
 47 51  1  0  0  0
 46 45  1  0  0  0
 37 38  1  0  0  0
M  END
> <minimizedAffinity>
-9.01478

$$$$
5JSJ_6PD_A_301


 51 57  0  0  0  0  0  0  0  0999 V2000
   10.8060   -1.9740    1.1654 C   0  0  0  0  0  0  0  0  0  0  0  0
   10.3980   -1.5062   -0.0863 C   0  0  0  0  0  0  0  0  0  0  0  0
   10.8734   -0.2089   -0.5155 C   0  0  0  0  0  0  0  0  0  0  0  0
   11.7126    0.6126    0.1933 C   0  0  0  0  0  0  0  0  0  0  0  0
   12.1298    0.1170    1.4279 C   0  0  0  0  0  0  0  0  0  0  0  0
   11.6739   -1.1392    1.8679 C   0  0  0  0  0  0  0  0  0  0  0  0
   11.5908    5.7110    1.4022 C   0  0  0  0  0  0  0  0  0  0  0  0
   10.6316    3.4021    0.9662 C   0  0  0  0  0  0  0  0  0  0  0  0
   12.1225    1.9235   -0.4527 C   0  0  0  0  0  0  0  0  0  0  0  0
   11.6310    3.1536   -0.0627 N   0  0  0  0  0  0  0  0  0  0  0  0
   12.1263    4.3847   -0.6981 C   0  0  0  0  0  0  0  0  0  0  0  0
   12.6865    5.3422    0.3838 C   0  0  0  0  0  0  0  0  0  0  0  0
   11.0285    4.4492    1.9948 C   0  0  0  0  0  0  0  0  0  0  0  0
   12.9819    1.9562   -1.3264 O   0  0  0  0  0  0  0  0  0  0  0  0
   12.0560    6.6973    2.4974 C   0  0  0  0  0  0  0  0  0  0  0  0
   12.9931    7.7143    1.8752 C   0  0  0  0  0  0  0  0  0  0  0  0
   15.5940    9.6999    3.5433 C   0  0  0  0  0  0  0  0  0  0  0  0
   14.5601    9.4102    4.5968 C   0  0  0  0  0  0  0  0  0  0  0  0
   13.8452    8.1290    4.1430 C   0  0  0  0  0  0  0  0  0  0  0  0
   14.2347    7.8118    2.7528 N   0  0  0  0  0  0  0  0  0  0  0  0
   15.1944    8.8850    2.3248 C   0  0  0  0  0  0  0  0  0  0  0  0
    9.2523   -3.4096    2.1408 O   0  0  0  0  0  0  0  0  0  0  0  0
   10.4109   -3.2762    1.7512 C   0  0  0  0  0  0  0  0  0  0  0  0
   11.2486   -4.3835    1.9534 N   0  0  0  0  0  0  0  0  0  0  0  0
   10.7653   -5.6150    2.5764 C   0  0  0  0  0  0  0  0  0  0  0  0
   11.4663   -5.8438    3.9160 C   0  0  0  0  0  0  0  0  0  0  0  0
   12.9894   -5.6148    3.9073 C   0  0  0  0  0  0  0  0  0  0  0  0
   13.5142   -5.3902    2.4906 C   0  0  0  0  0  0  0  0  0  0  0  0
   12.6527   -4.4854    1.6080 C   0  0  0  0  0  0  0  0  0  0  0  0
   13.7385   -6.7743    4.4671 C   0  0  0  0  0  0  0  0  0  0  0  0
   12.8517   -7.6694    5.3087 C   0  0  0  0  0  0  0  0  0  0  0  0
   13.1517   -9.1302    4.9597 N   0  0  0  0  0  0  0  0  0  0  0  0
   14.0992   -9.3820    3.8476 C   0  0  0  0  0  0  0  0  0  0  0  0
   14.3505  -10.9057    3.8946 C   0  0  0  0  0  0  0  0  0  0  0  0
   14.1244  -11.2857    5.3617 C   0  0  0  0  0  0  0  0  0  0  0  0
   13.6160  -10.0001    6.0664 C   0  0  0  0  0  0  0  0  0  0  0  0
    9.5101   -2.2011   -0.9134 N   0  0  0  0  0  0  0  0  0  0  0  0
    8.5381   -2.1035   -0.7914 H   0  0  0  0  0  0  0  0  0  0  0  0
   10.2577   -4.3123   -1.6450 C   0  0  0  0  0  0  0  0  0  0  0  0
   11.1882   -4.6972   -3.6764 C   0  0  0  0  0  0  0  0  0  0  0  0
   10.0009   -3.0123   -1.8871 C   0  0  0  0  0  0  0  0  0  0  0  0
   10.8505   -5.1462   -2.5194 C   0  0  0  0  0  0  0  0  0  0  0  0
   10.9524   -3.3950   -3.9456 C   0  0  0  0  0  0  0  0  0  0  0  0
   10.3904   -2.5712   -3.0387 C   0  0  0  0  0  0  0  0  0  0  0  0
   11.7653   -5.5234   -4.5139 O   0  0  0  0  0  0  0  0  0  0  0  0
   13.2365   -5.4607   -4.1983 C   0  0  0  0  0  0  0  0  0  0  0  0
   13.9133   -6.9154   -4.2944 N   0  0  0  0  0  0  0  0  0  0  0  0
   15.1728   -7.1485   -3.4891 C   0  0  0  0  0  0  0  0  0  0  0  0
   15.4565   -8.6693   -3.5491 C   0  0  0  0  0  0  0  0  0  0  0  0
   14.0495   -9.2719   -3.5905 C   0  0  0  0  0  0  0  0  0  0  0  0
   13.0717   -8.0678   -3.8354 C   0  0  0  0  0  0  0  0  0  0  0  0
 22 23  2  0  0  0
 25 24  1  0  0  0
 25 26  1  0  0  0
 23 24  1  0  0  0
 23  1  1  0  0  0
  6  5  2  0  0  0
  6  1  1  0  0  0
 24 29  1  0  0  0
  5  4  1  0  0  0
 26 27  1  0  0  0
  1  2  2  0  0  0
 29 28  1  0  0  0
  4  3  2  0  0  0
  4  9  1  0  0  0
  2  3  1  0  0  0
  2 37  1  0  0  0
 27 28  1  0  0  0
 27 30  1  0  0  0
  8 10  1  0  0  0
  8 13  1  0  0  0
 30 31  1  0  0  0
  9 10  1  0  0  0
  9 14  2  0  0  0
 10 11  1  0  0  0
 37 41  1  0  0  0
 33 34  1  0  0  0
 33 32  1  0  0  0
 13  7  1  0  0  0
 11 12  1  0  0  0
 34 35  1  0  0  0
 31 32  1  0  0  0
 41 44  2  0  0  0
 41 39  1  0  0  0
  7 12  1  0  0  0
  7 15  1  0  0  0
 32 36  1  0  0  0
 44 43  1  0  0  0
 21 17  1  0  0  0
 21 20  1  0  0  0
 17 18  1  0  0  0
 39 42  2  0  0  0
 35 36  1  0  0  0
 15 16  1  0  0  0
 20 16  1  0  0  0
 20 19  1  0  0  0
 43 40  2  0  0  0
 48 49  1  0  0  0
 48 47  1  0  0  0
 49 50  1  0  0  0
 18 19  1  0  0  0
 42 40  1  0  0  0
 40 45  1  0  0  0
 50 51  1  0  0  0
 47 46  1  0  0  0
 47 51  1  0  0  0
 46 45  1  0  0  0
 37 38  1  0  0  0
M  END
> <minimizedAffinity>
-8.98469

$$$$
5JSJ_6PD_A_301


 51 57  0  0  0  0  0  0  0  0999 V2000
    9.6056    1.1327    2.8591 C   0  0  0  0  0  0  0  0  0  0  0  0
    9.4894    0.4790    1.6298 C   0  0  0  0  0  0  0  0  0  0  0  0
    9.4929   -0.9677    1.6259 C   0  0  0  0  0  0  0  0  0  0  0  0
    9.5850   -1.7727    2.7328 C   0  0  0  0  0  0  0  0  0  0  0  0
    9.6736   -1.1022    3.9520 C   0  0  0  0  0  0  0  0  0  0  0  0
    9.6791    0.3045    3.9782 C   0  0  0  0  0  0  0  0  0  0  0  0
   12.9918   -5.7470    2.4704 C   0  0  0  0  0  0  0  0  0  0  0  0
   11.9558   -3.5263    1.8098 C   0  0  0  0  0  0  0  0  0  0  0  0
    9.5348   -3.2739    2.5153 C   0  0  0  0  0  0  0  0  0  0  0  0
   10.6245   -4.0256    2.1225 N   0  0  0  0  0  0  0  0  0  0  0  0
   10.5093   -5.4868    1.9941 C   0  0  0  0  0  0  0  0  0  0  0  0
   11.5718   -6.1752    2.8875 C   0  0  0  0  0  0  0  0  0  0  0  0
   13.0869   -4.2478    2.5251 C   0  0  0  0  0  0  0  0  0  0  0  0
    8.5155   -3.9131    2.7508 O   0  0  0  0  0  0  0  0  0  0  0  0
   14.1176   -6.4200    3.2878 C   0  0  0  0  0  0  0  0  0  0  0  0
   13.5757   -6.7922    4.6544 C   0  0  0  0  0  0  0  0  0  0  0  0
   13.1400  -10.2666    5.7629 C   0  0  0  0  0  0  0  0  0  0  0  0
   13.3115  -10.3308    4.2698 C   0  0  0  0  0  0  0  0  0  0  0  0
   14.0936   -9.0673    3.8819 C   0  0  0  0  0  0  0  0  0  0  0  0
   14.1535   -8.1487    5.0384 N   0  0  0  0  0  0  0  0  0  0  0  0
   13.4145   -8.8253    6.1574 C   0  0  0  0  0  0  0  0  0  0  0  0
    8.5425    3.1984    3.0290 O   0  0  0  0  0  0  0  0  0  0  0  0
    9.6185    2.6035    3.0367 C   0  0  0  0  0  0  0  0  0  0  0  0
   10.7566    3.4131    3.1717 N   0  0  0  0  0  0  0  0  0  0  0  0
   10.6603    4.8661    3.3055 C   0  0  0  0  0  0  0  0  0  0  0  0
   11.2908    5.5546    2.0945 C   0  0  0  0  0  0  0  0  0  0  0  0
   12.6485    4.9814    1.6468 C   0  0  0  0  0  0  0  0  0  0  0  0
   13.1784    3.9523    2.6434 C   0  0  0  0  0  0  0  0  0  0  0  0
   12.1380    2.9741    3.1915 C   0  0  0  0  0  0  0  0  0  0  0  0
   13.6926    6.0360    1.5181 C   0  0  0  0  0  0  0  0  0  0  0  0
   13.0877    7.4156    1.3539 C   0  0  0  0  0  0  0  0  0  0  0  0
   13.6517    8.3344    2.4419 N   0  0  0  0  0  0  0  0  0  0  0  0
   13.5851    7.8501    3.8415 C   0  0  0  0  0  0  0  0  0  0  0  0
   14.4125    8.8790    4.6437 C   0  0  0  0  0  0  0  0  0  0  0  0
   15.4230    9.4298    3.6321 C   0  0  0  0  0  0  0  0  0  0  0  0
   15.0458    8.8052    2.2626 C   0  0  0  0  0  0  0  0  0  0  0  0
    9.4301    1.1517    0.4054 N   0  0  0  0  0  0  0  0  0  0  0  0
    8.5671    1.2757   -0.0518 H   0  0  0  0  0  0  0  0  0  0  0  0
   11.7468    0.9878    0.0081 C   0  0  0  0  0  0  0  0  0  0  0  0
   12.9779    2.5942   -1.0139 C   0  0  0  0  0  0  0  0  0  0  0  0
   10.5745    1.6327   -0.1481 C   0  0  0  0  0  0  0  0  0  0  0  0
   12.9361    1.4601   -0.4086 C   0  0  0  0  0  0  0  0  0  0  0  0
   11.8198    3.2696   -1.1771 C   0  0  0  0  0  0  0  0  0  0  0  0
   10.6462    2.7914   -0.7177 C   0  0  0  0  0  0  0  0  0  0  0  0
   14.1448    3.0386   -1.4111 O   0  0  0  0  0  0  0  0  0  0  0  0
   14.0797    3.0640   -2.9154 C   0  0  0  0  0  0  0  0  0  0  0  0
   14.2817    4.5553   -3.4800 N   0  0  0  0  0  0  0  0  0  0  0  0
   13.1277    5.1708   -4.2407 C   0  0  0  0  0  0  0  0  0  0  0  0
   13.4774    6.6665   -4.4334 C   0  0  0  0  0  0  0  0  0  0  0  0
   14.2543    6.9969   -3.1560 C   0  0  0  0  0  0  0  0  0  0  0  0
   14.5408    5.6201   -2.4572 C   0  0  0  0  0  0  0  0  0  0  0  0
 22 23  2  0  0  0
 25 24  1  0  0  0
 25 26  1  0  0  0
 23 24  1  0  0  0
 23  1  1  0  0  0
  6  5  2  0  0  0
  6  1  1  0  0  0
 24 29  1  0  0  0
  5  4  1  0  0  0
 26 27  1  0  0  0
  1  2  2  0  0  0
 29 28  1  0  0  0
  4  3  2  0  0  0
  4  9  1  0  0  0
  2  3  1  0  0  0
  2 37  1  0  0  0
 27 28  1  0  0  0
 27 30  1  0  0  0
  8 10  1  0  0  0
  8 13  1  0  0  0
 30 31  1  0  0  0
  9 10  1  0  0  0
  9 14  2  0  0  0
 10 11  1  0  0  0
 37 41  1  0  0  0
 33 34  1  0  0  0
 33 32  1  0  0  0
 13  7  1  0  0  0
 11 12  1  0  0  0
 34 35  1  0  0  0
 31 32  1  0  0  0
 41 44  2  0  0  0
 41 39  1  0  0  0
  7 12  1  0  0  0
  7 15  1  0  0  0
 32 36  1  0  0  0
 44 43  1  0  0  0
 21 17  1  0  0  0
 21 20  1  0  0  0
 17 18  1  0  0  0
 39 42  2  0  0  0
 35 36  1  0  0  0
 15 16  1  0  0  0
 20 16  1  0  0  0
 20 19  1  0  0  0
 43 40  2  0  0  0
 48 49  1  0  0  0
 48 47  1  0  0  0
 49 50  1  0  0  0
 18 19  1  0  0  0
 42 40  1  0  0  0
 40 45  1  0  0  0
 50 51  1  0  0  0
 47 46  1  0  0  0
 47 51  1  0  0  0
 46 45  1  0  0  0
 37 38  1  0  0  0
M  END
> <minimizedAffinity>
-8.84417

$$$$
5JSJ_6PD_A_301


 51 57  0  0  0  0  0  0  0  0999 V2000
   12.2250    0.2923    2.6868 C   0  0  0  0  0  0  0  0  0  0  0  0
   11.3431    0.0367    3.7399 C   0  0  0  0  0  0  0  0  0  0  0  0
   10.4723   -1.1137    3.6338 C   0  0  0  0  0  0  0  0  0  0  0  0
   10.4396   -2.0013    2.5884 C   0  0  0  0  0  0  0  0  0  0  0  0
   11.3449   -1.7446    1.5596 C   0  0  0  0  0  0  0  0  0  0  0  0
   12.1961   -0.6272    1.6392 C   0  0  0  0  0  0  0  0  0  0  0  0
   10.7198   -7.2104    3.0956 C   0  0  0  0  0  0  0  0  0  0  0  0
   11.1352   -4.9553    2.0077 C   0  0  0  0  0  0  0  0  0  0  0  0
    9.4729   -3.1672    2.6873 C   0  0  0  0  0  0  0  0  0  0  0  0
    9.8296   -4.4780    2.4398 N   0  0  0  0  0  0  0  0  0  0  0  0
    8.8479   -5.5594    2.6186 C   0  0  0  0  0  0  0  0  0  0  0  0
    9.4012   -6.6075    3.6167 C   0  0  0  0  0  0  0  0  0  0  0  0
   11.6979   -6.0985    2.8372 C   0  0  0  0  0  0  0  0  0  0  0  0
    8.3193   -3.0013    3.0675 O   0  0  0  0  0  0  0  0  0  0  0  0
   11.3217   -8.2971    4.0151 C   0  0  0  0  0  0  0  0  0  0  0  0
   12.5929   -8.8270    3.3803 C   0  0  0  0  0  0  0  0  0  0  0  0
   13.7163   -8.2542    6.8300 C   0  0  0  0  0  0  0  0  0  0  0  0
   13.3138   -9.7022    6.7646 C   0  0  0  0  0  0  0  0  0  0  0  0
   13.4538  -10.1112    5.2910 C   0  0  0  0  0  0  0  0  0  0  0  0
   13.6636   -8.9059    4.4615 N   0  0  0  0  0  0  0  0  0  0  0  0
   13.6589   -7.7357    5.4030 C   0  0  0  0  0  0  0  0  0  0  0  0
   14.2572    1.2995    3.2178 O   0  0  0  0  0  0  0  0  0  0  0  0
   13.1795    1.4244    2.6391 C   0  0  0  0  0  0  0  0  0  0  0  0
   12.9617    2.6681    2.0273 N   0  0  0  0  0  0  0  0  0  0  0  0
   13.9600    3.7359    2.0696 C   0  0  0  0  0  0  0  0  0  0  0  0
   13.4295    4.9285    2.8662 C   0  0  0  0  0  0  0  0  0  0  0  0
   11.9794    5.3382    2.5470 C   0  0  0  0  0  0  0  0  0  0  0  0
   11.4332    4.5735    1.3429 C   0  0  0  0  0  0  0  0  0  0  0  0
   11.7783    3.0839    1.3006 C   0  0  0  0  0  0  0  0  0  0  0  0
   11.8588    6.7885    2.2290 C   0  0  0  0  0  0  0  0  0  0  0  0
   13.1249    7.3393    1.6048 C   0  0  0  0  0  0  0  0  0  0  0  0
   13.7073    8.4096    2.5328 N   0  0  0  0  0  0  0  0  0  0  0  0
   13.6289    8.1590    3.9920 C   0  0  0  0  0  0  0  0  0  0  0  0
   14.4774    9.2864    4.6213 C   0  0  0  0  0  0  0  0  0  0  0  0
   15.5004    9.6454    3.5386 C   0  0  0  0  0  0  0  0  0  0  0  0
   15.1113    8.8161    2.2861 C   0  0  0  0  0  0  0  0  0  0  0  0
   11.2209    0.8680    4.8576 N   0  0  0  0  0  0  0  0  0  0  0  0
   11.9448    0.9149    5.5232 H   0  0  0  0  0  0  0  0  0  0  0  0
    9.9502    2.7980    4.3969 C   0  0  0  0  0  0  0  0  0  0  0  0
    7.9892    3.3021    5.4171 C   0  0  0  0  0  0  0  0  0  0  0  0
   10.0939    1.6108    5.0170 C   0  0  0  0  0  0  0  0  0  0  0  0
    8.9196    3.6403    4.5960 C   0  0  0  0  0  0  0  0  0  0  0  0
    8.1098    2.1216    6.0618 C   0  0  0  0  0  0  0  0  0  0  0  0
    9.1709    1.3122    5.8720 C   0  0  0  0  0  0  0  0  0  0  0  0
    6.9946    4.1355    5.5991 O   0  0  0  0  0  0  0  0  0  0  0  0
    7.0030    5.0469    4.4004 C   0  0  0  0  0  0  0  0  0  0  0  0
    6.9720    6.5911    4.8450 N   0  0  0  0  0  0  0  0  0  0  0  0
    5.9044    7.4687    4.2290 C   0  0  0  0  0  0  0  0  0  0  0  0
    5.9300    8.8048    5.0107 C   0  0  0  0  0  0  0  0  0  0  0  0
    6.3057    8.3583    6.4264 C   0  0  0  0  0  0  0  0  0  0  0  0
    6.7428    6.8551    6.3027 C   0  0  0  0  0  0  0  0  0  0  0  0
 22 23  2  0  0  0
 25 24  1  0  0  0
 25 26  1  0  0  0
 23 24  1  0  0  0
 23  1  1  0  0  0
  6  5  2  0  0  0
  6  1  1  0  0  0
 24 29  1  0  0  0
  5  4  1  0  0  0
 26 27  1  0  0  0
  1  2  2  0  0  0
 29 28  1  0  0  0
  4  3  2  0  0  0
  4  9  1  0  0  0
  2  3  1  0  0  0
  2 37  1  0  0  0
 27 28  1  0  0  0
 27 30  1  0  0  0
  8 10  1  0  0  0
  8 13  1  0  0  0
 30 31  1  0  0  0
  9 10  1  0  0  0
  9 14  2  0  0  0
 10 11  1  0  0  0
 37 41  1  0  0  0
 33 34  1  0  0  0
 33 32  1  0  0  0
 13  7  1  0  0  0
 11 12  1  0  0  0
 34 35  1  0  0  0
 31 32  1  0  0  0
 41 44  2  0  0  0
 41 39  1  0  0  0
  7 12  1  0  0  0
  7 15  1  0  0  0
 32 36  1  0  0  0
 44 43  1  0  0  0
 21 17  1  0  0  0
 21 20  1  0  0  0
 17 18  1  0  0  0
 39 42  2  0  0  0
 35 36  1  0  0  0
 15 16  1  0  0  0
 20 16  1  0  0  0
 20 19  1  0  0  0
 43 40  2  0  0  0
 48 49  1  0  0  0
 48 47  1  0  0  0
 49 50  1  0  0  0
 18 19  1  0  0  0
 42 40  1  0  0  0
 40 45  1  0  0  0
 50 51  1  0  0  0
 47 46  1  0  0  0
 47 51  1  0  0  0
 46 45  1  0  0  0
 37 38  1  0  0  0
M  END
> <minimizedAffinity>
-8.65818

$$$$
