4DSU_BZI_A_203


 10 11  0  0  0  0  0  0  0  0999 V2000
   25.2407   12.4689   11.6407 N   0  0  0  0  0  0  0  0  0  0  0  0
   24.9021   12.4457   12.8967 C   0  0  0  0  0  0  0  0  0  0  0  0
   23.7073   13.0745   13.0686 N   0  0  0  0  0  0  0  0  0  0  0  0
   23.2874   13.5139   11.8223 C   0  0  0  0  0  0  0  0  0  0  0  0
   22.1739   14.2032   11.3636 C   0  0  0  0  0  0  0  0  0  0  0  0
   22.0562   14.4926   10.0199 C   0  0  0  0  0  0  0  0  0  0  0  0
   23.0416   14.0965    9.1261 C   0  0  0  0  0  0  0  0  0  0  0  0
   24.1490   13.4189    9.5592 C   0  0  0  0  0  0  0  0  0  0  0  0
   24.2860   13.1149   10.9165 C   0  0  0  0  0  0  0  0  0  0  0  0
   26.0643   12.0778   11.2694 H   0  0  0  0  0  0  0  0  0  0  0  0
  1  2  1  0  0  0
  1  9  1  0  0  0
  2  3  2  0  0  0
  3  4  1  0  0  0
  4  5  2  0  0  0
  4  9  1  0  0  0
  5  6  1  0  0  0
  6  7  2  0  0  0
  7  8  1  0  0  0
  8  9  2  0  0  0
  1 10  1  0  0  0
M  END
> <minimizedAffinity>
-4.96257

$$$$
4DSU_BZI_A_203


 10 11  0  0  0  0  0  0  0  0999 V2000
   22.9675   13.0948   13.0144 N   0  0  0  0  0  0  0  0  0  0  0  0
   24.0274   12.3534   13.1540 C   0  0  0  0  0  0  0  0  0  0  0  0
   24.7014   12.2776   11.9740 N   0  0  0  0  0  0  0  0  0  0  0  0
   23.9976   13.0300   11.0460 C   0  0  0  0  0  0  0  0  0  0  0  0
   24.1803   13.3285    9.7032 C   0  0  0  0  0  0  0  0  0  0  0  0
   23.2672   14.1321    9.0525 C   0  0  0  0  0  0  0  0  0  0  0  0
   22.1711   14.6450    9.7325 C   0  0  0  0  0  0  0  0  0  0  0  0
   21.9713   14.3594   11.0560 C   0  0  0  0  0  0  0  0  0  0  0  0
   22.8860   13.5482   11.7334 C   0  0  0  0  0  0  0  0  0  0  0  0
   22.3209   13.2977   13.7286 H   0  0  0  0  0  0  0  0  0  0  0  0
  1  2  1  0  0  0
  1  9  1  0  0  0
  2  3  2  0  0  0
  3  4  1  0  0  0
  4  5  2  0  0  0
  4  9  1  0  0  0
  5  6  1  0  0  0
  6  7  2  0  0  0
  7  8  1  0  0  0
  8  9  2  0  0  0
  1 10  1  0  0  0
M  END
> <minimizedAffinity>
-4.74289

$$$$
4DSU_BZI_A_203


 10 11  0  0  0  0  0  0  0  0999 V2000
   23.7313   12.4218   12.9090 N   0  0  0  0  0  0  0  0  0  0  0  0
   22.7364   12.7828   13.6658 C   0  0  0  0  0  0  0  0  0  0  0  0
   21.8913   13.5912   12.9696 N   0  0  0  0  0  0  0  0  0  0  0  0
   22.4119   13.7328   11.6923 C   0  0  0  0  0  0  0  0  0  0  0  0
   22.0115   14.4186   10.5544 C   0  0  0  0  0  0  0  0  0  0  0  0
   22.7796   14.3501    9.4106 C   0  0  0  0  0  0  0  0  0  0  0  0
   23.9464   13.5984    9.3909 C   0  0  0  0  0  0  0  0  0  0  0  0
   24.3602   12.9177   10.5038 C   0  0  0  0  0  0  0  0  0  0  0  0
   23.5949   12.9734   11.6720 C   0  0  0  0  0  0  0  0  0  0  0  0
   24.4721   11.8370   13.1892 H   0  0  0  0  0  0  0  0  0  0  0  0
  1  2  1  0  0  0
  1  9  1  0  0  0
  2  3  2  0  0  0
  3  4  1  0  0  0
  4  5  2  0  0  0
  4  9  1  0  0  0
  5  6  1  0  0  0
  6  7  2  0  0  0
  7  8  1  0  0  0
  8  9  2  0  0  0
  1 10  1  0  0  0
M  END
> <minimizedAffinity>
-4.73496

$$$$
4DSU_BZI_A_203


 10 11  0  0  0  0  0  0  0  0999 V2000
   24.7671   12.5177   10.4314 N   0  0  0  0  0  0  0  0  0  0  0  0
   24.4315   13.2802    9.4321 C   0  0  0  0  0  0  0  0  0  0  0  0
   23.3590   14.0467    9.7710 N   0  0  0  0  0  0  0  0  0  0  0  0
   23.0162   13.7258   11.0755 C   0  0  0  0  0  0  0  0  0  0  0  0
   22.0330   14.1606   11.9529 C   0  0  0  0  0  0  0  0  0  0  0  0
   21.9627   13.6214   13.2207 C   0  0  0  0  0  0  0  0  0  0  0  0
   22.8696   12.6508   13.6235 C   0  0  0  0  0  0  0  0  0  0  0  0
   23.8443   12.2061   12.7720 C   0  0  0  0  0  0  0  0  0  0  0  0
   23.9330   12.7412   11.4838 C   0  0  0  0  0  0  0  0  0  0  0  0
   25.5129   11.8750   10.4271 H   0  0  0  0  0  0  0  0  0  0  0  0
  1  2  1  0  0  0
  1  9  1  0  0  0
  2  3  2  0  0  0
  3  4  1  0  0  0
  4  5  2  0  0  0
  4  9  1  0  0  0
  5  6  1  0  0  0
  6  7  2  0  0  0
  7  8  1  0  0  0
  8  9  2  0  0  0
  1 10  1  0  0  0
M  END
> <minimizedAffinity>
-4.66256

$$$$
4DSU_BZI_A_203


 10 11  0  0  0  0  0  0  0  0999 V2000
   22.8059   14.3814    9.6134 N   0  0  0  0  0  0  0  0  0  0  0  0
   23.7356   13.7723    8.9369 C   0  0  0  0  0  0  0  0  0  0  0  0
   24.3829   12.8796    9.7347 N   0  0  0  0  0  0  0  0  0  0  0  0
   23.8030   12.9512   10.9921 C   0  0  0  0  0  0  0  0  0  0  0  0
   24.0237   12.3017   12.1982 C   0  0  0  0  0  0  0  0  0  0  0  0
   23.2468   12.6150   13.2943 C   0  0  0  0  0  0  0  0  0  0  0  0
   22.2460   13.5721   13.1966 C   0  0  0  0  0  0  0  0  0  0  0  0
   22.0150   14.2264   12.0170 C   0  0  0  0  0  0  0  0  0  0  0  0
   22.7905   13.9219   10.8947 C   0  0  0  0  0  0  0  0  0  0  0  0
   22.2036   15.0714    9.2525 H   0  0  0  0  0  0  0  0  0  0  0  0
  1  2  1  0  0  0
  1  9  1  0  0  0
  2  3  2  0  0  0
  3  4  1  0  0  0
  4  5  2  0  0  0
  4  9  1  0  0  0
  5  6  1  0  0  0
  6  7  2  0  0  0
  7  8  1  0  0  0
  8  9  2  0  0  0
  1 10  1  0  0  0
M  END
> <minimizedAffinity>
-4.45582

$$$$
4DSU_BZI_A_203


 10 11  0  0  0  0  0  0  0  0999 V2000
   21.7924   15.1198   12.9547 N   0  0  0  0  0  0  0  0  0  0  0  0
   22.6521   14.9395   13.9145 C   0  0  0  0  0  0  0  0  0  0  0  0
   23.7922   14.3844   13.4202 N   0  0  0  0  0  0  0  0  0  0  0  0
   23.6121   14.2138   12.0560 C   0  0  0  0  0  0  0  0  0  0  0  0
   24.3996   13.7081   11.0315 C   0  0  0  0  0  0  0  0  0  0  0  0
   23.9073   13.6788    9.7432 C   0  0  0  0  0  0  0  0  0  0  0  0
   22.6327   14.1539    9.4663 C   0  0  0  0  0  0  0  0  0  0  0  0
   21.8392   14.6532   10.4633 C   0  0  0  0  0  0  0  0  0  0  0  0
   22.3206   14.6928   11.7749 C   0  0  0  0  0  0  0  0  0  0  0  0
   20.8940   15.5072   13.0651 H   0  0  0  0  0  0  0  0  0  0  0  0
  1  2  1  0  0  0
  1  9  1  0  0  0
  2  3  2  0  0  0
  3  4  1  0  0  0
  4  5  2  0  0  0
  4  9  1  0  0  0
  5  6  1  0  0  0
  6  7  2  0  0  0
  7  8  1  0  0  0
  8  9  2  0  0  0
  1 10  1  0  0  0
M  END
> <minimizedAffinity>
-4.34819

$$$$
4DSU_BZI_A_203


 10 11  0  0  0  0  0  0  0  0999 V2000
   23.8649   11.7426   13.8367 N   0  0  0  0  0  0  0  0  0  0  0  0
   22.8214   11.9709   14.5796 C   0  0  0  0  0  0  0  0  0  0  0  0
   21.9784   12.8317   13.9465 N   0  0  0  0  0  0  0  0  0  0  0  0
   22.5529   13.1514   12.7258 C   0  0  0  0  0  0  0  0  0  0  0  0
   22.1796   13.9616   11.6629 C   0  0  0  0  0  0  0  0  0  0  0  0
   23.0033   14.0645   10.5611 C   0  0  0  0  0  0  0  0  0  0  0  0
   24.1991   13.3615   10.5087 C   0  0  0  0  0  0  0  0  0  0  0  0
   24.5868   12.5600   11.5482 C   0  0  0  0  0  0  0  0  0  0  0  0
   23.7652   12.4414   12.6727 C   0  0  0  0  0  0  0  0  0  0  0  0
   24.6145   11.1527   14.0801 H   0  0  0  0  0  0  0  0  0  0  0  0
  1  2  1  0  0  0
  1  9  1  0  0  0
  2  3  2  0  0  0
  3  4  1  0  0  0
  4  5  2  0  0  0
  4  9  1  0  0  0
  5  6  1  0  0  0
  6  7  2  0  0  0
  7  8  1  0  0  0
  8  9  2  0  0  0
  1 10  1  0  0  0
M  END
> <minimizedAffinity>
-4.09385

$$$$
4DSU_BZI_A_203


 10 11  0  0  0  0  0  0  0  0999 V2000
   17.9871   13.0883   16.0782 N   0  0  0  0  0  0  0  0  0  0  0  0
   17.9111   11.8117   15.8391 C   0  0  0  0  0  0  0  0  0  0  0  0
   18.9652   11.4177   15.0735 N   0  0  0  0  0  0  0  0  0  0  0  0
   19.7413   12.5402   14.8281 C   0  0  0  0  0  0  0  0  0  0  0  0
   20.9158   12.7703   14.1260 C   0  0  0  0  0  0  0  0  0  0  0  0
   21.4421   14.0445   14.0751 C   0  0  0  0  0  0  0  0  0  0  0  0
   20.8062   15.0945   14.7232 C   0  0  0  0  0  0  0  0  0  0  0  0
   19.6451   14.8889   15.4179 C   0  0  0  0  0  0  0  0  0  0  0  0
   19.0969   13.6048   15.4825 C   0  0  0  0  0  0  0  0  0  0  0  0
   17.3389   13.6038   16.6104 H   0  0  0  0  0  0  0  0  0  0  0  0
  1  2  1  0  0  0
  1  9  1  0  0  0
  2  3  2  0  0  0
  3  4  1  0  0  0
  4  5  2  0  0  0
  4  9  1  0  0  0
  5  6  1  0  0  0
  6  7  2  0  0  0
  7  8  1  0  0  0
  8  9  2  0  0  0
  1 10  1  0  0  0
M  END
> <minimizedAffinity>
-4.06657

$$$$
4DSU_BZI_A_203


 10 11  0  0  0  0  0  0  0  0999 V2000
   24.8992   12.1922   13.8809 N   0  0  0  0  0  0  0  0  0  0  0  0
   26.1808   12.4153   13.8562 C   0  0  0  0  0  0  0  0  0  0  0  0
   26.4868   13.2593   12.8332 N   0  0  0  0  0  0  0  0  0  0  0  0
   25.3012   13.5731   12.1864 C   0  0  0  0  0  0  0  0  0  0  0  0
   24.9739   14.3679   11.0970 C   0  0  0  0  0  0  0  0  0  0  0  0
   23.6575   14.4689   10.6969 C   0  0  0  0  0  0  0  0  0  0  0  0
   22.6607   13.7839   11.3782 C   0  0  0  0  0  0  0  0  0  0  0  0
   22.9635   12.9922   12.4527 C   0  0  0  0  0  0  0  0  0  0  0  0
   24.2912   12.8781   12.8745 C   0  0  0  0  0  0  0  0  0  0  0  0
   24.4381   11.6136   14.5305 H   0  0  0  0  0  0  0  0  0  0  0  0
  1  2  1  0  0  0
  1  9  1  0  0  0
  2  3  2  0  0  0
  3  4  1  0  0  0
  4  5  2  0  0  0
  4  9  1  0  0  0
  5  6  1  0  0  0
  6  7  2  0  0  0
  7  8  1  0  0  0
  8  9  2  0  0  0
  1 10  1  0  0  0
M  END
> <minimizedAffinity>
-3.88074

$$$$
4DSU_BZI_A_203


 10 11  0  0  0  0  0  0  0  0999 V2000
   22.4979   14.6318   13.7402 N   0  0  0  0  0  0  0  0  0  0  0  0
   22.4932   15.9071   13.9978 C   0  0  0  0  0  0  0  0  0  0  0  0
   21.3654   16.2396   14.6832 N   0  0  0  0  0  0  0  0  0  0  0  0
   20.6278   15.0782   14.8555 C   0  0  0  0  0  0  0  0  0  0  0  0
   19.4152   14.7826   15.4619 C   0  0  0  0  0  0  0  0  0  0  0  0
   18.9488   13.4844   15.4579 C   0  0  0  0  0  0  0  0  0  0  0  0
   19.6854   12.4742   14.8547 C   0  0  0  0  0  0  0  0  0  0  0  0
   20.8818   12.7458   14.2483 C   0  0  0  0  0  0  0  0  0  0  0  0
   21.3721   14.0547   14.2430 C   0  0  0  0  0  0  0  0  0  0  0  0
   23.2093   14.1553   13.2544 H   0  0  0  0  0  0  0  0  0  0  0  0
  1  2  1  0  0  0
  1  9  1  0  0  0
  2  3  2  0  0  0
  3  4  1  0  0  0
  4  5  2  0  0  0
  4  9  1  0  0  0
  5  6  1  0  0  0
  6  7  2  0  0  0
  7  8  1  0  0  0
  8  9  2  0  0  0
  1 10  1  0  0  0
M  END
> <minimizedAffinity>
-3.82364

$$$$
