2YEK_EAM_A_1188


 31 34  0  0  0  0  0  0  0  0999 V2000
   20.2198   11.4157  -11.2294 C   0  0  0  0  0  0  0  0  0  0  0  0
   21.3240   10.9714  -11.7096 N   0  0  0  0  0  0  0  0  0  0  0  0
   19.0502   10.6086  -10.8142 C   0  0  0  0  0  0  0  0  0  0  0  0
   19.1842    9.4363  -10.0792 C   0  0  0  0  0  0  0  0  0  0  0  0
   18.0550    8.7261   -9.7189 C   0  0  0  0  0  0  0  0  0  0  0  0
   16.7940    9.1683  -10.0633 C   0  0  0  0  0  0  0  0  0  0  0  0
   16.6836   10.3402  -10.7871 C   0  0  0  0  0  0  0  0  0  0  0  0
   17.7940   11.0634  -11.1601 C   0  0  0  0  0  0  0  0  0  0  0  0
   20.4841    8.9389   -9.7079 N   0  0  0  0  0  0  0  0  0  0  0  0
   21.5579    8.8858  -10.5696 C   0  0  0  0  0  0  0  0  0  0  0  0
   22.5451    8.2420   -9.9969 N   0  0  0  0  0  0  0  0  0  0  0  0
   22.1421    7.8523   -8.7609 N   0  0  0  0  0  0  0  0  0  0  0  0
   20.9067    8.2677   -8.5891 C   0  0  0  0  0  0  0  0  0  0  0  0
   20.1049    8.0526   -7.3792 C   0  0  0  0  0  0  0  0  0  0  0  0
   21.4721    9.5294  -11.9372 C   0  0  0  0  0  0  0  0  0  0  0  0
   19.8324   17.3177  -10.8592 Cl  0  0  0  0  0  0  0  0  0  0  0  0
   19.9373   15.5889  -10.9641 C   0  0  0  0  0  0  0  0  0  0  0  0
   19.6288   14.8592   -9.8418 C   0  0  0  0  0  0  0  0  0  0  0  0
   19.7231   13.4989   -9.9220 C   0  0  0  0  0  0  0  0  0  0  0  0
   20.3214   15.0267  -12.1578 C   0  0  0  0  0  0  0  0  0  0  0  0
   20.3973   13.6601  -12.2074 C   0  0  0  0  0  0  0  0  0  0  0  0
   20.1112   12.8933  -11.1015 C   0  0  0  0  0  0  0  0  0  0  0  0
   15.4518   10.8591  -11.1747 O   0  0  0  0  0  0  0  0  0  0  0  0
   14.2964   10.4749  -10.4385 C   0  0  0  0  0  0  0  0  0  0  0  0
   22.7168    9.3204  -12.8208 C   0  0  0  0  0  0  0  0  0  0  0  0
   23.1118   10.6817  -13.3232 C   0  0  0  0  0  0  0  0  0  0  0  0
   22.6377   11.1329  -14.3555 O   0  0  0  0  0  0  0  0  0  0  0  0
   23.9943   11.3404  -12.5827 N   0  0  0  0  0  0  0  0  0  0  0  0
   24.2972   10.9278  -11.7417 H   0  0  0  0  0  0  0  0  0  0  0  0
   24.5341   12.6296  -12.9443 C   0  0  0  0  0  0  0  0  0  0  0  0
   24.1180   13.6054  -11.8741 C   0  0  0  0  0  0  0  0  0  0  0  0
 16 17  1  0  0  0
 17 18  2  0  0  0
 17 20  1  0  0  0
 18 19  1  0  0  0
 19 22  2  0  0  0
 20 21  2  0  0  0
 21 22  1  0  0  0
 22  1  1  0  0  0
  1  2  2  0  0  0
  1  3  1  0  0  0
  2 15  1  0  0  0
  3  4  2  0  0  0
  3  8  1  0  0  0
  4  5  1  0  0  0
  4  9  1  0  0  0
  5  6  2  0  0  0
  6  7  1  0  0  0
  7 23  1  0  0  0
  7  8  2  0  0  0
 23 24  1  0  0  0
  9 10  1  0  0  0
  9 13  1  0  0  0
 10 11  2  0  0  0
 10 15  1  0  0  0
 11 12  1  0  0  0
 12 13  2  0  0  0
 13 14  1  0  0  0
 15 25  1  0  0  0
 25 26  1  0  0  0
 26 27  2  0  0  0
 26 28  1  0  0  0
 28 30  1  0  0  0
 30 31  1  0  0  0
 28 29  1  0  0  0
M  END
> <minimizedAffinity>
-8.73418

$$$$
2YEK_EAM_A_1188


 31 34  0  0  0  0  0  0  0  0999 V2000
   19.4292   10.5707  -10.8531 C   0  0  0  0  0  0  0  0  0  0  0  0
   19.8981    9.3981  -10.6245 N   0  0  0  0  0  0  0  0  0  0  0  0
   20.2007   11.8327  -10.9148 C   0  0  0  0  0  0  0  0  0  0  0  0
   21.4203   11.9222  -11.5760 C   0  0  0  0  0  0  0  0  0  0  0  0
   22.0939   13.1283  -11.6012 C   0  0  0  0  0  0  0  0  0  0  0  0
   21.5698   14.2511  -10.9937 C   0  0  0  0  0  0  0  0  0  0  0  0
   20.3524   14.1416  -10.3491 C   0  0  0  0  0  0  0  0  0  0  0  0
   19.6641   12.9500  -10.3079 C   0  0  0  0  0  0  0  0  0  0  0  0
   22.0031   10.7703  -12.2150 N   0  0  0  0  0  0  0  0  0  0  0  0
   22.0575    9.5205  -11.6375 C   0  0  0  0  0  0  0  0  0  0  0  0
   22.7828    8.7258  -12.3853 N   0  0  0  0  0  0  0  0  0  0  0  0
   23.2256    9.4321  -13.4563 N   0  0  0  0  0  0  0  0  0  0  0  0
   22.7605   10.6572  -13.3527 C   0  0  0  0  0  0  0  0  0  0  0  0
   23.0078   11.7377  -14.3143 C   0  0  0  0  0  0  0  0  0  0  0  0
   21.3294    9.2472  -10.3386 C   0  0  0  0  0  0  0  0  0  0  0  0
   13.5497   10.8116  -11.5557 Cl  0  0  0  0  0  0  0  0  0  0  0  0
   15.2714   10.7502  -11.3490 C   0  0  0  0  0  0  0  0  0  0  0  0
   16.0398   11.5828  -12.1259 C   0  0  0  0  0  0  0  0  0  0  0  0
   17.3957   11.5254  -11.9708 C   0  0  0  0  0  0  0  0  0  0  0  0
   15.7898    9.8776  -10.4226 C   0  0  0  0  0  0  0  0  0  0  0  0
   17.1522    9.8509  -10.2853 C   0  0  0  0  0  0  0  0  0  0  0  0
   17.9585   10.6578  -11.0546 C   0  0  0  0  0  0  0  0  0  0  0  0
   19.7506   15.2229   -9.7123 O   0  0  0  0  0  0  0  0  0  0  0  0
   19.9990   16.5284  -10.2205 C   0  0  0  0  0  0  0  0  0  0  0  0
   21.5464    7.8317   -9.7702 C   0  0  0  0  0  0  0  0  0  0  0  0
   21.4961    7.9651   -8.2732 C   0  0  0  0  0  0  0  0  0  0  0  0
   22.5220    7.9849   -7.6089 O   0  0  0  0  0  0  0  0  0  0  0  0
   20.2848    8.0546   -7.7386 N   0  0  0  0  0  0  0  0  0  0  0  0
   19.5087    8.0747   -8.3439 H   0  0  0  0  0  0  0  0  0  0  0  0
   20.0442    8.1241   -6.3168 C   0  0  0  0  0  0  0  0  0  0  0  0
   20.1682    6.7243   -5.7728 C   0  0  0  0  0  0  0  0  0  0  0  0
 16 17  1  0  0  0
 17 18  2  0  0  0
 17 20  1  0  0  0
 18 19  1  0  0  0
 19 22  2  0  0  0
 20 21  2  0  0  0
 21 22  1  0  0  0
 22  1  1  0  0  0
  1  2  2  0  0  0
  1  3  1  0  0  0
  2 15  1  0  0  0
  3  4  2  0  0  0
  3  8  1  0  0  0
  4  5  1  0  0  0
  4  9  1  0  0  0
  5  6  2  0  0  0
  6  7  1  0  0  0
  7 23  1  0  0  0
  7  8  2  0  0  0
 23 24  1  0  0  0
  9 10  1  0  0  0
  9 13  1  0  0  0
 10 11  2  0  0  0
 10 15  1  0  0  0
 11 12  1  0  0  0
 12 13  2  0  0  0
 13 14  1  0  0  0
 15 25  1  0  0  0
 25 26  1  0  0  0
 26 27  2  0  0  0
 26 28  1  0  0  0
 28 30  1  0  0  0
 30 31  1  0  0  0
 28 29  1  0  0  0
M  END
> <minimizedAffinity>
-8.31153

$$$$
2YEK_EAM_A_1188


 31 34  0  0  0  0  0  0  0  0999 V2000
   19.8991   11.4308  -11.8002 C   0  0  0  0  0  0  0  0  0  0  0  0
   20.0301   10.1607  -11.6708 N   0  0  0  0  0  0  0  0  0  0  0  0
   20.9099   12.4603  -11.4682 C   0  0  0  0  0  0  0  0  0  0  0  0
   22.2509   12.3156  -11.8051 C   0  0  0  0  0  0  0  0  0  0  0  0
   23.1481   13.3116  -11.4701 C   0  0  0  0  0  0  0  0  0  0  0  0
   22.7336   14.4559  -10.8196 C   0  0  0  0  0  0  0  0  0  0  0  0
   21.3949   14.5826  -10.5015 C   0  0  0  0  0  0  0  0  0  0  0  0
   20.4828   13.6025  -10.8220 C   0  0  0  0  0  0  0  0  0  0  0  0
   22.7226   11.1321  -12.4772 N   0  0  0  0  0  0  0  0  0  0  0  0
   22.3550    9.8526  -12.1222 C   0  0  0  0  0  0  0  0  0  0  0  0
   23.0656    8.9894  -12.8054 N   0  0  0  0  0  0  0  0  0  0  0  0
   23.9154    9.6763  -13.6103 N   0  0  0  0  0  0  0  0  0  0  0  0
   23.7115   10.9597  -13.4116 C   0  0  0  0  0  0  0  0  0  0  0  0
   24.4283   12.0434  -14.0936 C   0  0  0  0  0  0  0  0  0  0  0  0
   21.2688    9.6283  -11.0918 C   0  0  0  0  0  0  0  0  0  0  0  0
   14.6039   13.2180  -13.7718 Cl  0  0  0  0  0  0  0  0  0  0  0  0
   16.1568   12.7035  -13.1934 C   0  0  0  0  0  0  0  0  0  0  0  0
   17.2720   13.2584  -13.7727 C   0  0  0  0  0  0  0  0  0  0  0  0
   18.4941   12.8441  -13.3248 C   0  0  0  0  0  0  0  0  0  0  0  0
   16.2049   11.7695  -12.1866 C   0  0  0  0  0  0  0  0  0  0  0  0
   17.4453   11.3821  -11.7543 C   0  0  0  0  0  0  0  0  0  0  0  0
   18.5874   11.9025  -12.3182 C   0  0  0  0  0  0  0  0  0  0  0  0
   20.8908   15.7031   -9.8478 O   0  0  0  0  0  0  0  0  0  0  0  0
   20.7495   16.9095  -10.5888 C   0  0  0  0  0  0  0  0  0  0  0  0
   21.0213    8.1498  -10.7359 C   0  0  0  0  0  0  0  0  0  0  0  0
   21.7425    7.9007   -9.4400 C   0  0  0  0  0  0  0  0  0  0  0  0
   22.9153    7.5566   -9.4292 O   0  0  0  0  0  0  0  0  0  0  0  0
   21.0282    8.0747   -8.3352 N   0  0  0  0  0  0  0  0  0  0  0  0
   20.1015    8.3946   -8.4252 H   0  0  0  0  0  0  0  0  0  0  0  0
   21.5372    7.8199   -7.0085 C   0  0  0  0  0  0  0  0  0  0  0  0
   20.3555    7.5035   -6.1287 C   0  0  0  0  0  0  0  0  0  0  0  0
 16 17  1  0  0  0
 17 18  2  0  0  0
 17 20  1  0  0  0
 18 19  1  0  0  0
 19 22  2  0  0  0
 20 21  2  0  0  0
 21 22  1  0  0  0
 22  1  1  0  0  0
  1  2  2  0  0  0
  1  3  1  0  0  0
  2 15  1  0  0  0
  3  4  2  0  0  0
  3  8  1  0  0  0
  4  5  1  0  0  0
  4  9  1  0  0  0
  5  6  2  0  0  0
  6  7  1  0  0  0
  7 23  1  0  0  0
  7  8  2  0  0  0
 23 24  1  0  0  0
  9 10  1  0  0  0
  9 13  1  0  0  0
 10 11  2  0  0  0
 10 15  1  0  0  0
 11 12  1  0  0  0
 12 13  2  0  0  0
 13 14  1  0  0  0
 15 25  1  0  0  0
 25 26  1  0  0  0
 26 27  2  0  0  0
 26 28  1  0  0  0
 28 30  1  0  0  0
 30 31  1  0  0  0
 28 29  1  0  0  0
M  END
> <minimizedAffinity>
-7.54526

$$$$
2YEK_EAM_A_1188


 31 34  0  0  0  0  0  0  0  0999 V2000
   18.7074   11.8356  -11.8664 C   0  0  0  0  0  0  0  0  0  0  0  0
   19.3316   12.9429  -12.0434 N   0  0  0  0  0  0  0  0  0  0  0  0
   17.2428   11.6287  -11.9285 C   0  0  0  0  0  0  0  0  0  0  0  0
   16.4573   12.1975  -12.9245 C   0  0  0  0  0  0  0  0  0  0  0  0
   15.0949   11.9671  -12.9317 C   0  0  0  0  0  0  0  0  0  0  0  0
   14.5013   11.1691  -11.9750 C   0  0  0  0  0  0  0  0  0  0  0  0
   15.3020   10.6073  -10.9990 C   0  0  0  0  0  0  0  0  0  0  0  0
   16.6611   10.8248  -10.9694 C   0  0  0  0  0  0  0  0  0  0  0  0
   17.0395   13.0425  -13.9355 N   0  0  0  0  0  0  0  0  0  0  0  0
   17.9611   14.0313  -13.6686 C   0  0  0  0  0  0  0  0  0  0  0  0
   18.1800   14.7284  -14.7563 N   0  0  0  0  0  0  0  0  0  0  0  0
   17.4065   14.2241  -15.7508 N   0  0  0  0  0  0  0  0  0  0  0  0
   16.7217   13.2159  -15.2582 C   0  0  0  0  0  0  0  0  0  0  0  0
   15.7677   12.3950  -16.0129 C   0  0  0  0  0  0  0  0  0  0  0  0
   18.5572   14.1659  -12.2835 C   0  0  0  0  0  0  0  0  0  0  0  0
   22.1445    7.1446  -10.7252 Cl  0  0  0  0  0  0  0  0  0  0  0  0
   21.1399    8.5214  -11.0509 C   0  0  0  0  0  0  0  0  0  0  0  0
   20.1722    8.8406  -10.1295 C   0  0  0  0  0  0  0  0  0  0  0  0
   19.3742    9.9176  -10.3925 C   0  0  0  0  0  0  0  0  0  0  0  0
   21.3540    9.2299  -12.2088 C   0  0  0  0  0  0  0  0  0  0  0  0
   20.5428   10.3093  -12.4382 C   0  0  0  0  0  0  0  0  0  0  0  0
   19.5520   10.6538  -11.5480 C   0  0  0  0  0  0  0  0  0  0  0  0
   14.7873    9.7890   -9.9978 O   0  0  0  0  0  0  0  0  0  0  0  0
   13.3742    9.6592   -9.8930 C   0  0  0  0  0  0  0  0  0  0  0  0
   19.5099   15.3644  -12.1117 C   0  0  0  0  0  0  0  0  0  0  0  0
   20.6286   14.8914  -11.2249 C   0  0  0  0  0  0  0  0  0  0  0  0
   20.5188   14.9149  -10.0078 O   0  0  0  0  0  0  0  0  0  0  0  0
   21.7190   14.4596  -11.8459 N   0  0  0  0  0  0  0  0  0  0  0  0
   21.7143   14.4314  -12.8300 H   0  0  0  0  0  0  0  0  0  0  0  0
   22.9116   14.0291  -11.1558 C   0  0  0  0  0  0  0  0  0  0  0  0
   23.8818   15.1819  -11.1767 C   0  0  0  0  0  0  0  0  0  0  0  0
 16 17  1  0  0  0
 17 18  2  0  0  0
 17 20  1  0  0  0
 18 19  1  0  0  0
 19 22  2  0  0  0
 20 21  2  0  0  0
 21 22  1  0  0  0
 22  1  1  0  0  0
  1  2  2  0  0  0
  1  3  1  0  0  0
  2 15  1  0  0  0
  3  4  2  0  0  0
  3  8  1  0  0  0
  4  5  1  0  0  0
  4  9  1  0  0  0
  5  6  2  0  0  0
  6  7  1  0  0  0
  7 23  1  0  0  0
  7  8  2  0  0  0
 23 24  1  0  0  0
  9 10  1  0  0  0
  9 13  1  0  0  0
 10 11  2  0  0  0
 10 15  1  0  0  0
 11 12  1  0  0  0
 12 13  2  0  0  0
 13 14  1  0  0  0
 15 25  1  0  0  0
 25 26  1  0  0  0
 26 27  2  0  0  0
 26 28  1  0  0  0
 28 30  1  0  0  0
 30 31  1  0  0  0
 28 29  1  0  0  0
M  END
> <minimizedAffinity>
-6.60350

$$$$
2YEK_EAM_A_1188


 31 34  0  0  0  0  0  0  0  0999 V2000
   20.7180   11.0347  -11.7700 C   0  0  0  0  0  0  0  0  0  0  0  0
   20.1641   12.1924  -11.7540 N   0  0  0  0  0  0  0  0  0  0  0  0
   20.5619    9.9679  -10.7556 C   0  0  0  0  0  0  0  0  0  0  0  0
   19.3256    9.6417  -10.2098 C   0  0  0  0  0  0  0  0  0  0  0  0
   19.2421    8.6348   -9.2673 C   0  0  0  0  0  0  0  0  0  0  0  0
   20.3633    7.9360   -8.8685 C   0  0  0  0  0  0  0  0  0  0  0  0
   21.5806    8.2713   -9.4297 C   0  0  0  0  0  0  0  0  0  0  0  0
   21.6894    9.2728  -10.3682 C   0  0  0  0  0  0  0  0  0  0  0  0
   18.1343   10.3538  -10.5953 N   0  0  0  0  0  0  0  0  0  0  0  0
   18.0664   11.7249  -10.7123 C   0  0  0  0  0  0  0  0  0  0  0  0
   16.8231   12.0840  -10.9175 N   0  0  0  0  0  0  0  0  0  0  0  0
   16.0516   10.9676  -10.9298 N   0  0  0  0  0  0  0  0  0  0  0  0
   16.8369    9.9316  -10.7342 C   0  0  0  0  0  0  0  0  0  0  0  0
   16.3925    8.5341  -10.6814 C   0  0  0  0  0  0  0  0  0  0  0  0
   19.3230   12.5631  -10.6103 C   0  0  0  0  0  0  0  0  0  0  0  0
   24.2011    9.8732  -16.4219 Cl  0  0  0  0  0  0  0  0  0  0  0  0
   23.1844   10.2220  -15.0598 C   0  0  0  0  0  0  0  0  0  0  0  0
   23.7604   10.8253  -13.9683 C   0  0  0  0  0  0  0  0  0  0  0  0
   22.9617   11.0888  -12.8920 C   0  0  0  0  0  0  0  0  0  0  0  0
   21.8545    9.8828  -15.1305 C   0  0  0  0  0  0  0  0  0  0  0  0
   21.0793   10.1686  -14.0383 C   0  0  0  0  0  0  0  0  0  0  0  0
   21.6204   10.7587  -12.9193 C   0  0  0  0  0  0  0  0  0  0  0  0
   22.7605    7.6178   -9.0868 O   0  0  0  0  0  0  0  0  0  0  0  0
   22.7722    6.8218   -7.9075 C   0  0  0  0  0  0  0  0  0  0  0  0
   19.0839   14.0836  -10.6785 C   0  0  0  0  0  0  0  0  0  0  0  0
   20.3557   14.7329  -10.2068 C   0  0  0  0  0  0  0  0  0  0  0  0
   20.4354   15.2206   -9.0888 O   0  0  0  0  0  0  0  0  0  0  0  0
   21.3602   14.7404  -11.0739 N   0  0  0  0  0  0  0  0  0  0  0  0
   21.2319   14.2891  -11.9394 H   0  0  0  0  0  0  0  0  0  0  0  0
   22.6311   15.3747  -10.8160 C   0  0  0  0  0  0  0  0  0  0  0  0
   23.7055   14.4454  -11.3187 C   0  0  0  0  0  0  0  0  0  0  0  0
 16 17  1  0  0  0
 17 18  2  0  0  0
 17 20  1  0  0  0
 18 19  1  0  0  0
 19 22  2  0  0  0
 20 21  2  0  0  0
 21 22  1  0  0  0
 22  1  1  0  0  0
  1  2  2  0  0  0
  1  3  1  0  0  0
  2 15  1  0  0  0
  3  4  2  0  0  0
  3  8  1  0  0  0
  4  5  1  0  0  0
  4  9  1  0  0  0
  5  6  2  0  0  0
  6  7  1  0  0  0
  7 23  1  0  0  0
  7  8  2  0  0  0
 23 24  1  0  0  0
  9 10  1  0  0  0
  9 13  1  0  0  0
 10 11  2  0  0  0
 10 15  1  0  0  0
 11 12  1  0  0  0
 12 13  2  0  0  0
 13 14  1  0  0  0
 15 25  1  0  0  0
 25 26  1  0  0  0
 26 27  2  0  0  0
 26 28  1  0  0  0
 28 30  1  0  0  0
 30 31  1  0  0  0
 28 29  1  0  0  0
M  END
> <minimizedAffinity>
-6.54343

$$$$
2YEK_EAM_A_1188


 31 34  0  0  0  0  0  0  0  0999 V2000
   20.2717   12.4310  -12.4816 C   0  0  0  0  0  0  0  0  0  0  0  0
   20.3849   13.6948  -12.6743 N   0  0  0  0  0  0  0  0  0  0  0  0
   19.1432   11.7368  -11.8212 C   0  0  0  0  0  0  0  0  0  0  0  0
   17.8180   12.0653  -12.0829 C   0  0  0  0  0  0  0  0  0  0  0  0
   16.8066   11.3806  -11.4368 C   0  0  0  0  0  0  0  0  0  0  0  0
   17.0886   10.3648  -10.5463 C   0  0  0  0  0  0  0  0  0  0  0  0
   18.4124   10.0493  -10.3071 C   0  0  0  0  0  0  0  0  0  0  0  0
   19.4373   10.7194  -10.9364 C   0  0  0  0  0  0  0  0  0  0  0  0
   17.4844   13.1248  -13.0002 N   0  0  0  0  0  0  0  0  0  0  0  0
   18.1137   14.3504  -13.0151 C   0  0  0  0  0  0  0  0  0  0  0  0
   17.4888   15.1514  -13.8426 N   0  0  0  0  0  0  0  0  0  0  0  0
   16.4382   14.4791  -14.3777 N   0  0  0  0  0  0  0  0  0  0  0  0
   16.4344   13.2661  -13.8709 C   0  0  0  0  0  0  0  0  0  0  0  0
   15.4586   12.2193  -14.1953 C   0  0  0  0  0  0  0  0  0  0  0  0
   19.3409   14.5892  -12.1613 C   0  0  0  0  0  0  0  0  0  0  0  0
   24.8830    9.1990  -14.3286 Cl  0  0  0  0  0  0  0  0  0  0  0  0
   23.5294   10.1379  -13.7835 C   0  0  0  0  0  0  0  0  0  0  0  0
   22.2702    9.6374  -14.0095 C   0  0  0  0  0  0  0  0  0  0  0  0
   21.2050   10.3827  -13.5905 C   0  0  0  0  0  0  0  0  0  0  0  0
   23.7729   11.3341  -13.1525 C   0  0  0  0  0  0  0  0  0  0  0  0
   22.6836   12.0527  -12.7368 C   0  0  0  0  0  0  0  0  0  0  0  0
   21.4053   11.5941  -12.9570 C   0  0  0  0  0  0  0  0  0  0  0  0
   18.7865    9.0388   -9.4263 O   0  0  0  0  0  0  0  0  0  0  0  0
   20.1112    8.5264   -9.5113 C   0  0  0  0  0  0  0  0  0  0  0  0
   19.8882   16.0282  -12.2177 C   0  0  0  0  0  0  0  0  0  0  0  0
   21.1887   16.0156  -11.4626 C   0  0  0  0  0  0  0  0  0  0  0  0
   21.2084   15.8966  -10.2463 O   0  0  0  0  0  0  0  0  0  0  0  0
   22.2872   16.1433  -12.1961 N   0  0  0  0  0  0  0  0  0  0  0  0
   22.1911   16.1911  -13.1747 H   0  0  0  0  0  0  0  0  0  0  0  0
   23.6158   16.2158  -11.6358 C   0  0  0  0  0  0  0  0  0  0  0  0
   24.4681   15.2159  -12.3736 C   0  0  0  0  0  0  0  0  0  0  0  0
 16 17  1  0  0  0
 17 18  2  0  0  0
 17 20  1  0  0  0
 18 19  1  0  0  0
 19 22  2  0  0  0
 20 21  2  0  0  0
 21 22  1  0  0  0
 22  1  1  0  0  0
  1  2  2  0  0  0
  1  3  1  0  0  0
  2 15  1  0  0  0
  3  4  2  0  0  0
  3  8  1  0  0  0
  4  5  1  0  0  0
  4  9  1  0  0  0
  5  6  2  0  0  0
  6  7  1  0  0  0
  7 23  1  0  0  0
  7  8  2  0  0  0
 23 24  1  0  0  0
  9 10  1  0  0  0
  9 13  1  0  0  0
 10 11  2  0  0  0
 10 15  1  0  0  0
 11 12  1  0  0  0
 12 13  2  0  0  0
 13 14  1  0  0  0
 15 25  1  0  0  0
 25 26  1  0  0  0
 26 27  2  0  0  0
 26 28  1  0  0  0
 28 30  1  0  0  0
 30 31  1  0  0  0
 28 29  1  0  0  0
M  END
> <minimizedAffinity>
-6.44378

$$$$
2YEK_EAM_A_1188


 31 34  0  0  0  0  0  0  0  0999 V2000
   21.3921   12.6172  -12.4132 C   0  0  0  0  0  0  0  0  0  0  0  0
   21.6034   13.8831  -12.4022 N   0  0  0  0  0  0  0  0  0  0  0  0
   20.2372   11.9104  -11.8146 C   0  0  0  0  0  0  0  0  0  0  0  0
   18.9348   12.3784  -11.9459 C   0  0  0  0  0  0  0  0  0  0  0  0
   17.8969   11.6744  -11.3662 C   0  0  0  0  0  0  0  0  0  0  0  0
   18.1286   10.5051  -10.6708 C   0  0  0  0  0  0  0  0  0  0  0  0
   19.4299   10.0538  -10.5595 C   0  0  0  0  0  0  0  0  0  0  0  0
   20.4808   10.7396  -11.1258 C   0  0  0  0  0  0  0  0  0  0  0  0
   18.6542   13.5990  -12.6575 N   0  0  0  0  0  0  0  0  0  0  0  0
   19.3836   14.7581  -12.5060 C   0  0  0  0  0  0  0  0  0  0  0  0
   18.7948   15.7319  -13.1556 N   0  0  0  0  0  0  0  0  0  0  0  0
   17.6700   15.2410  -13.7352 N   0  0  0  0  0  0  0  0  0  0  0  0
   17.5848   13.9642  -13.4345 C   0  0  0  0  0  0  0  0  0  0  0  0
   16.5115   13.0642  -13.8720 C   0  0  0  0  0  0  0  0  0  0  0  0
   20.6608   14.7559  -11.6932 C   0  0  0  0  0  0  0  0  0  0  0  0
   25.6337    9.3985  -15.0150 Cl  0  0  0  0  0  0  0  0  0  0  0  0
   24.3879   10.3331  -14.2500 C   0  0  0  0  0  0  0  0  0  0  0  0
   23.0828    9.9718  -14.4809 C   0  0  0  0  0  0  0  0  0  0  0  0
   22.1026   10.7154  -13.8876 C   0  0  0  0  0  0  0  0  0  0  0  0
   24.7573   11.3879  -13.4503 C   0  0  0  0  0  0  0  0  0  0  0  0
   23.7507   12.1075  -12.8632 C   0  0  0  0  0  0  0  0  0  0  0  0
   22.4303   11.7878  -13.0806 C   0  0  0  0  0  0  0  0  0  0  0  0
   19.7534    8.8843   -9.8780 O   0  0  0  0  0  0  0  0  0  0  0  0
   20.7863    8.0601  -10.4056 C   0  0  0  0  0  0  0  0  0  0  0  0
   21.3249   16.1379  -11.5430 C   0  0  0  0  0  0  0  0  0  0  0  0
   22.8032   15.8864  -11.4298 C   0  0  0  0  0  0  0  0  0  0  0  0
   23.3023   15.5377  -10.3699 O   0  0  0  0  0  0  0  0  0  0  0  0
   23.5100   16.0696  -12.5379 N   0  0  0  0  0  0  0  0  0  0  0  0
   23.0291   16.3092  -13.3629 H   0  0  0  0  0  0  0  0  0  0  0  0
   24.9462   15.9363  -12.5985 C   0  0  0  0  0  0  0  0  0  0  0  0
   25.5276   17.3252  -12.5392 C   0  0  0  0  0  0  0  0  0  0  0  0
 16 17  1  0  0  0
 17 18  2  0  0  0
 17 20  1  0  0  0
 18 19  1  0  0  0
 19 22  2  0  0  0
 20 21  2  0  0  0
 21 22  1  0  0  0
 22  1  1  0  0  0
  1  2  2  0  0  0
  1  3  1  0  0  0
  2 15  1  0  0  0
  3  4  2  0  0  0
  3  8  1  0  0  0
  4  5  1  0  0  0
  4  9  1  0  0  0
  5  6  2  0  0  0
  6  7  1  0  0  0
  7 23  1  0  0  0
  7  8  2  0  0  0
 23 24  1  0  0  0
  9 10  1  0  0  0
  9 13  1  0  0  0
 10 11  2  0  0  0
 10 15  1  0  0  0
 11 12  1  0  0  0
 12 13  2  0  0  0
 13 14  1  0  0  0
 15 25  1  0  0  0
 25 26  1  0  0  0
 26 27  2  0  0  0
 26 28  1  0  0  0
 28 30  1  0  0  0
 30 31  1  0  0  0
 28 29  1  0  0  0
M  END
> <minimizedAffinity>
-6.40220

$$$$
2YEK_EAM_A_1188


 31 34  0  0  0  0  0  0  0  0999 V2000
   25.0177   10.8622  -14.1178 C   0  0  0  0  0  0  0  0  0  0  0  0
   25.3681   12.0689  -14.3790 N   0  0  0  0  0  0  0  0  0  0  0  0
   23.6684   10.4021  -13.7185 C   0  0  0  0  0  0  0  0  0  0  0  0
   22.5151   10.8636  -14.3426 C   0  0  0  0  0  0  0  0  0  0  0  0
   21.2829   10.3962  -13.9273 C   0  0  0  0  0  0  0  0  0  0  0  0
   21.1774    9.4668  -12.9126 C   0  0  0  0  0  0  0  0  0  0  0  0
   22.3370    9.0157  -12.3117 C   0  0  0  0  0  0  0  0  0  0  0  0
   23.5757    9.4689  -12.7060 C   0  0  0  0  0  0  0  0  0  0  0  0
   22.5845   11.8394  -15.4000 N   0  0  0  0  0  0  0  0  0  0  0  0
   23.3793   12.9638  -15.3526 C   0  0  0  0  0  0  0  0  0  0  0  0
   23.1080   13.7331  -16.3781 N   0  0  0  0  0  0  0  0  0  0  0  0
   22.1304   13.1413  -17.1102 N   0  0  0  0  0  0  0  0  0  0  0  0
   21.8153   12.0084  -16.5227 C   0  0  0  0  0  0  0  0  0  0  0  0
   20.7997   11.0636  -17.0015 C   0  0  0  0  0  0  0  0  0  0  0  0
   24.3808   13.1444  -14.2318 C   0  0  0  0  0  0  0  0  0  0  0  0
   29.3551    6.8315  -14.3660 Cl  0  0  0  0  0  0  0  0  0  0  0  0
   28.0789    8.0049  -14.2942 C   0  0  0  0  0  0  0  0  0  0  0  0
   27.1217    7.9713  -15.2790 C   0  0  0  0  0  0  0  0  0  0  0  0
   26.1240    8.9028  -15.2282 C   0  0  0  0  0  0  0  0  0  0  0  0
   28.0795    8.9118  -13.2617 C   0  0  0  0  0  0  0  0  0  0  0  0
   27.0606    9.8265  -13.2348 C   0  0  0  0  0  0  0  0  0  0  0  0
   26.0903    9.8364  -14.2103 C   0  0  0  0  0  0  0  0  0  0  0  0
   22.3229    8.0785  -11.2829 O   0  0  0  0  0  0  0  0  0  0  0  0
   21.7052    8.4373  -10.0523 C   0  0  0  0  0  0  0  0  0  0  0  0
   25.1403   14.4844  -14.2634 C   0  0  0  0  0  0  0  0  0  0  0  0
   24.8377   15.1726  -12.9610 C   0  0  0  0  0  0  0  0  0  0  0  0
   25.2627   16.2950  -12.7293 O   0  0  0  0  0  0  0  0  0  0  0  0
   24.0957   14.4869  -12.1006 N   0  0  0  0  0  0  0  0  0  0  0  0
   23.7553   13.6057  -12.3779 H   0  0  0  0  0  0  0  0  0  0  0  0
   23.7608   14.9639  -10.7798 C   0  0  0  0  0  0  0  0  0  0  0  0
   22.2931   15.3055  -10.7860 C   0  0  0  0  0  0  0  0  0  0  0  0
 16 17  1  0  0  0
 17 18  2  0  0  0
 17 20  1  0  0  0
 18 19  1  0  0  0
 19 22  2  0  0  0
 20 21  2  0  0  0
 21 22  1  0  0  0
 22  1  1  0  0  0
  1  2  2  0  0  0
  1  3  1  0  0  0
  2 15  1  0  0  0
  3  4  2  0  0  0
  3  8  1  0  0  0
  4  5  1  0  0  0
  4  9  1  0  0  0
  5  6  2  0  0  0
  6  7  1  0  0  0
  7 23  1  0  0  0
  7  8  2  0  0  0
 23 24  1  0  0  0
  9 10  1  0  0  0
  9 13  1  0  0  0
 10 11  2  0  0  0
 10 15  1  0  0  0
 11 12  1  0  0  0
 12 13  2  0  0  0
 13 14  1  0  0  0
 15 25  1  0  0  0
 25 26  1  0  0  0
 26 27  2  0  0  0
 26 28  1  0  0  0
 28 30  1  0  0  0
 30 31  1  0  0  0
 28 29  1  0  0  0
M  END
> <minimizedAffinity>
-6.37449

$$$$
2YEK_EAM_A_1188


 31 34  0  0  0  0  0  0  0  0999 V2000
   24.3699   11.9458  -13.7396 C   0  0  0  0  0  0  0  0  0  0  0  0
   23.6820   11.7417  -12.6755 N   0  0  0  0  0  0  0  0  0  0  0  0
   24.2394   13.0911  -14.6684 C   0  0  0  0  0  0  0  0  0  0  0  0
   24.0933   14.3974  -14.2156 C   0  0  0  0  0  0  0  0  0  0  0  0
   23.9777   15.4260  -15.1309 C   0  0  0  0  0  0  0  0  0  0  0  0
   24.0198   15.1813  -16.4883 C   0  0  0  0  0  0  0  0  0  0  0  0
   24.1738   13.8765  -16.9163 C   0  0  0  0  0  0  0  0  0  0  0  0
   24.2879   12.8347  -16.0235 C   0  0  0  0  0  0  0  0  0  0  0  0
   24.0371   14.6914  -12.8066 N   0  0  0  0  0  0  0  0  0  0  0  0
   23.2902   13.9675  -11.9030 C   0  0  0  0  0  0  0  0  0  0  0  0
   23.3130   14.5676  -10.7385 N   0  0  0  0  0  0  0  0  0  0  0  0
   24.0605   15.6946  -10.8523 N   0  0  0  0  0  0  0  0  0  0  0  0
   24.4920   15.7697  -12.0918 C   0  0  0  0  0  0  0  0  0  0  0  0
   25.3396   16.8416  -12.6266 C   0  0  0  0  0  0  0  0  0  0  0  0
   22.6112   12.6831  -12.3289 C   0  0  0  0  0  0  0  0  0  0  0  0
   28.2974    7.7187  -15.0914 Cl  0  0  0  0  0  0  0  0  0  0  0  0
   27.1521    8.9622  -14.7010 C   0  0  0  0  0  0  0  0  0  0  0  0
   27.6415   10.1727  -14.2739 C   0  0  0  0  0  0  0  0  0  0  0  0
   26.7388   11.1472  -13.9556 C   0  0  0  0  0  0  0  0  0  0  0  0
   25.8127    8.6856  -14.8354 C   0  0  0  0  0  0  0  0  0  0  0  0
   24.9342    9.6868  -14.5167 C   0  0  0  0  0  0  0  0  0  0  0  0
   25.3828   10.9087  -14.0709 C   0  0  0  0  0  0  0  0  0  0  0  0
   24.2281   13.5401  -18.2656 O   0  0  0  0  0  0  0  0  0  0  0  0
   25.5064   13.3843  -18.8709 C   0  0  0  0  0  0  0  0  0  0  0  0
   21.7454   12.0258  -11.2371 C   0  0  0  0  0  0  0  0  0  0  0  0
   21.5941   10.5821  -11.6298 C   0  0  0  0  0  0  0  0  0  0  0  0
   20.7627   10.2396  -12.4578 O   0  0  0  0  0  0  0  0  0  0  0  0
   22.4080    9.7270  -11.0237 N   0  0  0  0  0  0  0  0  0  0  0  0
   23.0802   10.0858  -10.4002 H   0  0  0  0  0  0  0  0  0  0  0  0
   22.3607    8.2989  -11.2296 C   0  0  0  0  0  0  0  0  0  0  0  0
   21.8409    7.6802   -9.9577 C   0  0  0  0  0  0  0  0  0  0  0  0
 16 17  1  0  0  0
 17 18  2  0  0  0
 17 20  1  0  0  0
 18 19  1  0  0  0
 19 22  2  0  0  0
 20 21  2  0  0  0
 21 22  1  0  0  0
 22  1  1  0  0  0
  1  2  2  0  0  0
  1  3  1  0  0  0
  2 15  1  0  0  0
  3  4  2  0  0  0
  3  8  1  0  0  0
  4  5  1  0  0  0
  4  9  1  0  0  0
  5  6  2  0  0  0
  6  7  1  0  0  0
  7 23  1  0  0  0
  7  8  2  0  0  0
 23 24  1  0  0  0
  9 10  1  0  0  0
  9 13  1  0  0  0
 10 11  2  0  0  0
 10 15  1  0  0  0
 11 12  1  0  0  0
 12 13  2  0  0  0
 13 14  1  0  0  0
 15 25  1  0  0  0
 25 26  1  0  0  0
 26 27  2  0  0  0
 26 28  1  0  0  0
 28 30  1  0  0  0
 30 31  1  0  0  0
 28 29  1  0  0  0
M  END
> <minimizedAffinity>
-6.34830

$$$$
2YEK_EAM_A_1188


 31 34  0  0  0  0  0  0  0  0999 V2000
   22.2047   11.5838  -12.9410 C   0  0  0  0  0  0  0  0  0  0  0  0
   23.0345   12.3589  -12.3429 N   0  0  0  0  0  0  0  0  0  0  0  0
   22.1217   11.3364  -14.3983 C   0  0  0  0  0  0  0  0  0  0  0  0
   23.2536   11.1352  -15.1798 C   0  0  0  0  0  0  0  0  0  0  0  0
   23.1131   10.9070  -16.5353 C   0  0  0  0  0  0  0  0  0  0  0  0
   21.8665   10.8604  -17.1255 C   0  0  0  0  0  0  0  0  0  0  0  0
   20.7546   11.0551  -16.3285 C   0  0  0  0  0  0  0  0  0  0  0  0
   20.8695   11.2871  -14.9764 C   0  0  0  0  0  0  0  0  0  0  0  0
   24.5719   11.1843  -14.6012 N   0  0  0  0  0  0  0  0  0  0  0  0
   24.9813   12.1529  -13.7110 C   0  0  0  0  0  0  0  0  0  0  0  0
   26.2667   12.0270  -13.4903 N   0  0  0  0  0  0  0  0  0  0  0  0
   26.7286   10.9884  -14.2318 N   0  0  0  0  0  0  0  0  0  0  0  0
   25.7137   10.4854  -14.8990 C   0  0  0  0  0  0  0  0  0  0  0  0
   25.7904    9.3432  -15.8169 C   0  0  0  0  0  0  0  0  0  0  0  0
   23.9832   13.1402  -13.1444 C   0  0  0  0  0  0  0  0  0  0  0  0
   18.3691    8.6821   -9.4784 Cl  0  0  0  0  0  0  0  0  0  0  0  0
   19.4919    9.5388  -10.4865 C   0  0  0  0  0  0  0  0  0  0  0  0
   19.1677   10.8202  -10.8611 C   0  0  0  0  0  0  0  0  0  0  0  0
   20.0468   11.4895  -11.6642 C   0  0  0  0  0  0  0  0  0  0  0  0
   20.6505    8.9037  -10.8642 C   0  0  0  0  0  0  0  0  0  0  0  0
   21.5145    9.6055  -11.6621 C   0  0  0  0  0  0  0  0  0  0  0  0
   21.2206   10.8856  -12.0718 C   0  0  0  0  0  0  0  0  0  0  0  0
   19.4607   11.0230  -16.8402 O   0  0  0  0  0  0  0  0  0  0  0  0
   18.8470   12.2553  -17.1998 C   0  0  0  0  0  0  0  0  0  0  0  0
   24.5977   14.2144  -12.2268 C   0  0  0  0  0  0  0  0  0  0  0  0
   23.4591   15.0880  -11.7774 C   0  0  0  0  0  0  0  0  0  0  0  0
   23.4424   15.5710  -10.6547 O   0  0  0  0  0  0  0  0  0  0  0  0
   22.4951   15.2888  -12.6670 N   0  0  0  0  0  0  0  0  0  0  0  0
   22.6019   14.9005  -13.5653 H   0  0  0  0  0  0  0  0  0  0  0  0
   21.2981   16.0461  -12.3880 C   0  0  0  0  0  0  0  0  0  0  0  0
   20.1920   15.0560  -12.1293 C   0  0  0  0  0  0  0  0  0  0  0  0
 16 17  1  0  0  0
 17 18  2  0  0  0
 17 20  1  0  0  0
 18 19  1  0  0  0
 19 22  2  0  0  0
 20 21  2  0  0  0
 21 22  1  0  0  0
 22  1  1  0  0  0
  1  2  2  0  0  0
  1  3  1  0  0  0
  2 15  1  0  0  0
  3  4  2  0  0  0
  3  8  1  0  0  0
  4  5  1  0  0  0
  4  9  1  0  0  0
  5  6  2  0  0  0
  6  7  1  0  0  0
  7 23  1  0  0  0
  7  8  2  0  0  0
 23 24  1  0  0  0
  9 10  1  0  0  0
  9 13  1  0  0  0
 10 11  2  0  0  0
 10 15  1  0  0  0
 11 12  1  0  0  0
 12 13  2  0  0  0
 13 14  1  0  0  0
 15 25  1  0  0  0
 25 26  1  0  0  0
 26 27  2  0  0  0
 26 28  1  0  0  0
 28 30  1  0  0  0
 30 31  1  0  0  0
 28 29  1  0  0  0
M  END
> <minimizedAffinity>
-6.30736

$$$$
