1SIV_PSI_B_100


 48 48  0  0  0  0  0  0  0  0999 V2000
    3.8695   13.3375   39.9420 C   0  0  0  0  0  0  0  0  0  0  0  0
    3.6723   14.7148   40.2295 O   0  0  0  0  0  0  0  0  0  0  0  0
    3.2888   15.1551   39.4549 H   0  0  0  0  0  0  0  0  0  0  0  0
    4.9144   13.1530   38.8319 C   0  0  0  0  0  0  0  0  0  0  0  0
    4.1563   13.7306   36.6057 C   0  0  0  0  0  0  0  0  0  0  0  0
    3.8552   12.5459   36.4566 O   0  0  0  0  0  0  0  0  0  0  0  0
    4.6913   14.1127   37.7538 N   0  0  0  0  0  0  0  0  0  0  0  0
    4.9423   15.0558   37.8830 H   0  0  0  0  0  0  0  0  0  0  0  0
    3.9370   14.7743   35.5101 C   0  0  0  0  0  0  0  0  0  0  0  0
    2.6052   14.5902   34.8271 C   0  0  0  0  0  0  0  0  0  0  0  0
    5.2951   15.5665   33.7378 C   0  0  0  0  0  0  0  0  0  0  0  0
    4.7541   16.6760   33.8186 O   0  0  0  0  0  0  0  0  0  0  0  0
    4.9509   14.5975   34.5164 N   0  0  0  0  0  0  0  0  0  0  0  0
    5.3929   13.7225   34.4254 H   0  0  0  0  0  0  0  0  0  0  0  0
    6.6316   16.5214   31.9574 N   0  0  0  0  0  0  0  0  0  0  0  0
    6.3700   15.2934   32.6984 C   0  0  0  0  0  0  0  0  0  0  0  0
    7.6112   14.8027   33.4191 C   0  0  0  0  0  0  0  0  0  0  0  0
    5.7785   16.8225   31.4863 H   0  0  0  0  0  0  0  0  0  0  0  0
    7.3608   16.3518   31.2647 H   0  0  0  0  0  0  0  0  0  0  0  0
    6.3291   13.3546   39.3396 C   0  0  0  0  0  0  0  0  0  0  0  0
    7.3424   13.1349   38.2382 C   0  0  0  0  0  0  0  0  0  0  0  0
    7.4459   11.8940   37.6525 C   0  0  0  0  0  0  0  0  0  0  0  0
    8.1597   14.1805   37.8434 C   0  0  0  0  0  0  0  0  0  0  0  0
    8.3842   11.7237   36.6609 C   0  0  0  0  0  0  0  0  0  0  0  0
    9.0956   14.0080   36.8544 C   0  0  0  0  0  0  0  0  0  0  0  0
    9.2011   12.7728   36.2648 C   0  0  0  0  0  0  0  0  0  0  0  0
    2.5055   12.8055   39.6541 C   0  0  0  0  0  0  0  0  0  0  0  0
    1.7146   12.6739   40.9139 C   0  0  0  0  0  0  0  0  0  0  0  0
    1.8422   11.2526   41.4438 C   0  0  0  0  0  0  0  0  0  0  0  0
    1.5796   10.2958   40.6999 O   0  0  0  0  0  0  0  0  0  0  0  0
    2.2282   11.0835   42.7004 N   0  0  0  0  0  0  0  0  0  0  0  0
    2.4456   11.8564   43.2702 H   0  0  0  0  0  0  0  0  0  0  0  0
    2.3208    9.7483   43.2075 C   0  0  0  0  0  0  0  0  0  0  0  0
    1.2962    9.7442   44.3128 C   0  0  0  0  0  0  0  0  0  0  0  0
    1.5818    9.5296   45.4941 O   0  0  0  0  0  0  0  0  0  0  0  0
    0.0568    9.9657   43.9318 N   0  0  0  0  0  0  0  0  0  0  0  0
   -0.1208   10.1412   42.9795 H   0  0  0  0  0  0  0  0  0  0  0  0
   -1.0632    9.9615   44.8630 C   0  0  0  0  0  0  0  0  0  0  0  0
   -2.1436   10.9913   44.4624 C   0  0  0  0  0  0  0  0  0  0  0  0
   -2.0338   11.3290   42.9910 C   0  0  0  0  0  0  0  0  0  0  0  0
   -2.0221   12.1968   45.3738 C   0  0  0  0  0  0  0  0  0  0  0  0
   -1.6461    8.5336   44.8299 C   0  0  0  0  0  0  0  0  0  0  0  0
   -2.2763    8.0333   45.7685 O   0  0  0  0  0  0  0  0  0  0  0  0
   -2.8226    7.3088   43.1556 C   0  0  0  0  0  0  0  0  0  0  0  0
   -1.5423    7.7107   43.6857 O   0  0  0  0  0  0  0  0  0  0  0  0
    3.6858    9.3364   43.8368 C   0  0  0  0  0  0  0  0  0  0  0  0
    3.9779    7.9018   43.4174 C   0  0  0  0  0  0  0  0  0  0  0  0
    4.8528   10.1769   43.3362 C   0  0  0  0  0  0  0  0  0  0  0  0
 15 16  1  0  0  0
 16 11  1  0  0  0
 16 17  1  0  0  0
 11 12  2  0  0  0
 13  9  1  0  0  0
  9  5  1  0  0  0
  9 10  1  0  0  0
  5  6  2  0  0  0
  7  4  1  0  0  0
  4  1  1  0  0  0
  4 20  1  0  0  0
  1  2  1  0  0  0
  1 27  1  0  0  0
 20 21  1  0  0  0
 21 22  2  0  0  0
 21 23  1  0  0  0
 22 24  1  0  0  0
 23 25  2  0  0  0
 24 26  2  0  0  0
 25 26  1  0  0  0
 28 29  1  0  0  0
 29 30  2  0  0  0
 31 33  1  0  0  0
 33 34  1  0  0  0
 33 46  1  0  0  0
 34 35  2  0  0  0
 46 47  1  0  0  0
 46 48  1  0  0  0
 36 38  1  0  0  0
 38 42  1  0  0  0
 38 39  1  0  0  0
 42 43  2  0  0  0
 39 40  1  0  0  0
 39 41  1  0  0  0
 44 45  1  0  0  0
 11 13  1  0  0  0
  5  7  1  0  0  0
 27 28  1  0  0  0
 29 31  1  0  0  0
 34 36  1  0  0  0
 42 45  1  0  0  0
 15 18  1  0  0  0
 15 19  1  0  0  0
 13 14  1  0  0  0
  2  3  1  0  0  0
  7  8  1  0  0  0
 31 32  1  0  0  0
 36 37  1  0  0  0
M  END
> <minimizedAffinity>
-9.82447

$$$$
1SIV_PSI_B_100


 48 48  0  0  0  0  0  0  0  0999 V2000
    3.8094   13.3322   39.9378 C   0  0  0  0  0  0  0  0  0  0  0  0
    3.6744   14.6976   40.3063 O   0  0  0  0  0  0  0  0  0  0  0  0
    3.3263   15.2025   39.5548 H   0  0  0  0  0  0  0  0  0  0  0  0
    4.8633   13.1637   38.8338 C   0  0  0  0  0  0  0  0  0  0  0  0
    4.1437   13.7371   36.5937 C   0  0  0  0  0  0  0  0  0  0  0  0
    3.8849   12.5448   36.4270 O   0  0  0  0  0  0  0  0  0  0  0  0
    4.6369   14.1256   37.7583 N   0  0  0  0  0  0  0  0  0  0  0  0
    4.8539   15.0751   37.9017 H   0  0  0  0  0  0  0  0  0  0  0  0
    3.9188   14.7832   35.5015 C   0  0  0  0  0  0  0  0  0  0  0  0
    2.5811   14.6040   34.8288 C   0  0  0  0  0  0  0  0  0  0  0  0
    5.2836   15.5815   33.7371 C   0  0  0  0  0  0  0  0  0  0  0  0
    4.7645   16.6996   33.8410 O   0  0  0  0  0  0  0  0  0  0  0  0
    4.9243   14.6051   34.4996 N   0  0  0  0  0  0  0  0  0  0  0  0
    5.3487   13.7236   34.3903 H   0  0  0  0  0  0  0  0  0  0  0  0
    6.6271   16.5421   31.9651 N   0  0  0  0  0  0  0  0  0  0  0  0
    6.3479   15.3068   32.6873 C   0  0  0  0  0  0  0  0  0  0  0  0
    7.5841   14.7827   33.3930 C   0  0  0  0  0  0  0  0  0  0  0  0
    5.7769   16.8657   31.5038 H   0  0  0  0  0  0  0  0  0  0  0  0
    7.3495   16.3712   31.2656 H   0  0  0  0  0  0  0  0  0  0  0  0
    6.2725   13.3783   39.3514 C   0  0  0  0  0  0  0  0  0  0  0  0
    7.2974   13.1347   38.2660 C   0  0  0  0  0  0  0  0  0  0  0  0
    7.4212   11.8762   37.7234 C   0  0  0  0  0  0  0  0  0  0  0  0
    8.1048   14.1767   37.8424 C   0  0  0  0  0  0  0  0  0  0  0  0
    8.3696   11.6846   36.7453 C   0  0  0  0  0  0  0  0  0  0  0  0
    9.0508   13.9830   36.8670 C   0  0  0  0  0  0  0  0  0  0  0  0
    9.1765   12.7301   36.3203 C   0  0  0  0  0  0  0  0  0  0  0  0
    2.4264   12.8868   39.5981 C   0  0  0  0  0  0  0  0  0  0  0  0
    1.6325   12.6409   40.8387 C   0  0  0  0  0  0  0  0  0  0  0  0
    1.8361   11.2019   41.2913 C   0  0  0  0  0  0  0  0  0  0  0  0
    1.8304   10.2892   40.4518 O   0  0  0  0  0  0  0  0  0  0  0  0
    2.0083   10.9691   42.5847 N   0  0  0  0  0  0  0  0  0  0  0  0
    2.0236   11.7095   43.2334 H   0  0  0  0  0  0  0  0  0  0  0  0
    2.1713    9.6135   43.0139 C   0  0  0  0  0  0  0  0  0  0  0  0
    1.0801    9.4603   44.0423 C   0  0  0  0  0  0  0  0  0  0  0  0
    1.0242   10.1409   45.0702 O   0  0  0  0  0  0  0  0  0  0  0  0
    0.1896    8.5276   43.7829 N   0  0  0  0  0  0  0  0  0  0  0  0
    0.2705    8.0166   42.9453 H   0  0  0  0  0  0  0  0  0  0  0  0
   -0.9114    8.2208   44.6858 C   0  0  0  0  0  0  0  0  0  0  0  0
   -2.2460    8.0555   43.9245 C   0  0  0  0  0  0  0  0  0  0  0  0
   -1.9941    7.5685   42.5136 C   0  0  0  0  0  0  0  0  0  0  0  0
   -3.0037    9.3670   43.9891 C   0  0  0  0  0  0  0  0  0  0  0  0
   -0.5330    6.9044   45.3954 C   0  0  0  0  0  0  0  0  0  0  0  0
    0.0788    5.9838   44.8417 O   0  0  0  0  0  0  0  0  0  0  0  0
   -1.8333    5.6807   46.9763 C   0  0  0  0  0  0  0  0  0  0  0  0
   -0.8183    6.6834   46.7617 O   0  0  0  0  0  0  0  0  0  0  0  0
    3.5202    9.2620   43.7108 C   0  0  0  0  0  0  0  0  0  0  0  0
    3.7935    7.7822   43.4767 C   0  0  0  0  0  0  0  0  0  0  0  0
    4.7081   10.0161   43.1286 C   0  0  0  0  0  0  0  0  0  0  0  0
 15 16  1  0  0  0
 16 11  1  0  0  0
 16 17  1  0  0  0
 11 12  2  0  0  0
 13  9  1  0  0  0
  9  5  1  0  0  0
  9 10  1  0  0  0
  5  6  2  0  0  0
  7  4  1  0  0  0
  4  1  1  0  0  0
  4 20  1  0  0  0
  1  2  1  0  0  0
  1 27  1  0  0  0
 20 21  1  0  0  0
 21 22  2  0  0  0
 21 23  1  0  0  0
 22 24  1  0  0  0
 23 25  2  0  0  0
 24 26  2  0  0  0
 25 26  1  0  0  0
 28 29  1  0  0  0
 29 30  2  0  0  0
 31 33  1  0  0  0
 33 34  1  0  0  0
 33 46  1  0  0  0
 34 35  2  0  0  0
 46 47  1  0  0  0
 46 48  1  0  0  0
 36 38  1  0  0  0
 38 42  1  0  0  0
 38 39  1  0  0  0
 42 43  2  0  0  0
 39 40  1  0  0  0
 39 41  1  0  0  0
 44 45  1  0  0  0
 11 13  1  0  0  0
  5  7  1  0  0  0
 27 28  1  0  0  0
 29 31  1  0  0  0
 34 36  1  0  0  0
 42 45  1  0  0  0
 15 18  1  0  0  0
 15 19  1  0  0  0
 13 14  1  0  0  0
  2  3  1  0  0  0
  7  8  1  0  0  0
 31 32  1  0  0  0
 36 37  1  0  0  0
M  END
> <minimizedAffinity>
-9.70371

$$$$
1SIV_PSI_B_100


 48 48  0  0  0  0  0  0  0  0999 V2000
    2.4400   11.3202   38.0593 C   0  0  0  0  0  0  0  0  0  0  0  0
    3.0042   10.0197   37.9664 O   0  0  0  0  0  0  0  0  0  0  0  0
    3.2287    9.7004   38.8544 H   0  0  0  0  0  0  0  0  0  0  0  0
    3.4706   12.3289   38.5869 C   0  0  0  0  0  0  0  0  0  0  0  0
    5.8246   11.7649   38.6587 C   0  0  0  0  0  0  0  0  0  0  0  0
    5.7006   11.6224   39.8756 O   0  0  0  0  0  0  0  0  0  0  0  0
    4.7668   12.1189   37.9474 N   0  0  0  0  0  0  0  0  0  0  0  0
    4.8544   12.2423   36.9746 H   0  0  0  0  0  0  0  0  0  0  0  0
    7.1581   11.5509   37.9419 C   0  0  0  0  0  0  0  0  0  0  0  0
    8.1429   10.8109   38.8118 C   0  0  0  0  0  0  0  0  0  0  0  0
    8.1483   13.1278   36.4771 C   0  0  0  0  0  0  0  0  0  0  0  0
    8.0896   12.3071   35.5533 O   0  0  0  0  0  0  0  0  0  0  0  0
    7.7233   12.8343   37.6590 N   0  0  0  0  0  0  0  0  0  0  0  0
    7.7889   13.5039   38.3777 H   0  0  0  0  0  0  0  0  0  0  0  0
    8.1123   15.1227   35.1036 N   0  0  0  0  0  0  0  0  0  0  0  0
    8.7489   14.5074   36.2619 C   0  0  0  0  0  0  0  0  0  0  0  0
    8.5232   15.3232   37.5205 C   0  0  0  0  0  0  0  0  0  0  0  0
    8.2836   14.5499   34.2772 H   0  0  0  0  0  0  0  0  0  0  0  0
    8.5002   16.0547   34.9576 H   0  0  0  0  0  0  0  0  0  0  0  0
    3.0550   13.7628   38.3205 C   0  0  0  0  0  0  0  0  0  0  0  0
    3.2215   14.1185   36.8598 C   0  0  0  0  0  0  0  0  0  0  0  0
    2.1960   13.8591   35.9797 C   0  0  0  0  0  0  0  0  0  0  0  0
    4.4067   14.6880   36.4262 C   0  0  0  0  0  0  0  0  0  0  0  0
    2.3823   14.1848   34.6562 C   0  0  0  0  0  0  0  0  0  0  0  0
    4.5906   15.0114   35.1050 C   0  0  0  0  0  0  0  0  0  0  0  0
    3.5696   14.7574   34.2233 C   0  0  0  0  0  0  0  0  0  0  0  0
    1.2091   11.1474   38.8848 C   0  0  0  0  0  0  0  0  0  0  0  0
    1.4423   11.6166   40.2831 C   0  0  0  0  0  0  0  0  0  0  0  0
    1.7576   10.4209   41.1707 C   0  0  0  0  0  0  0  0  0  0  0  0
    1.9120    9.3020   40.6588 O   0  0  0  0  0  0  0  0  0  0  0  0
    1.8512   10.6171   42.4782 N   0  0  0  0  0  0  0  0  0  0  0  0
    1.7391   11.5162   42.8632 H   0  0  0  0  0  0  0  0  0  0  0  0
    2.1195    9.4880   43.3158 C   0  0  0  0  0  0  0  0  0  0  0  0
    0.9696    9.5199   44.2897 C   0  0  0  0  0  0  0  0  0  0  0  0
    1.1248    9.6004   45.5113 O   0  0  0  0  0  0  0  0  0  0  0  0
   -0.2270    9.4338   43.7502 N   0  0  0  0  0  0  0  0  0  0  0  0
   -0.3009    9.3809   42.7699 H   0  0  0  0  0  0  0  0  0  0  0  0
   -1.4470    9.4138   44.5457 C   0  0  0  0  0  0  0  0  0  0  0  0
   -2.6370   10.0390   43.7832 C   0  0  0  0  0  0  0  0  0  0  0  0
   -2.9551   11.4129   44.3328 C   0  0  0  0  0  0  0  0  0  0  0  0
   -3.8060    9.0754   43.8404 C   0  0  0  0  0  0  0  0  0  0  0  0
   -1.7322    7.9308   44.8602 C   0  0  0  0  0  0  0  0  0  0  0  0
   -2.1792    7.5383   45.9441 O   0  0  0  0  0  0  0  0  0  0  0  0
   -1.3215    5.6130   44.4772 C   0  0  0  0  0  0  0  0  0  0  0  0
   -1.5489    6.9139   43.8962 O   0  0  0  0  0  0  0  0  0  0  0  0
    3.4359    9.5367   44.1485 C   0  0  0  0  0  0  0  0  0  0  0  0
    3.9777    8.1169   44.2469 C   0  0  0  0  0  0  0  0  0  0  0  0
    4.5285   10.3694   43.4912 C   0  0  0  0  0  0  0  0  0  0  0  0
 15 16  1  0  0  0
 16 11  1  0  0  0
 16 17  1  0  0  0
 11 12  2  0  0  0
 13  9  1  0  0  0
  9  5  1  0  0  0
  9 10  1  0  0  0
  5  6  2  0  0  0
  7  4  1  0  0  0
  4  1  1  0  0  0
  4 20  1  0  0  0
  1  2  1  0  0  0
  1 27  1  0  0  0
 20 21  1  0  0  0
 21 22  2  0  0  0
 21 23  1  0  0  0
 22 24  1  0  0  0
 23 25  2  0  0  0
 24 26  2  0  0  0
 25 26  1  0  0  0
 28 29  1  0  0  0
 29 30  2  0  0  0
 31 33  1  0  0  0
 33 34  1  0  0  0
 33 46  1  0  0  0
 34 35  2  0  0  0
 46 47  1  0  0  0
 46 48  1  0  0  0
 36 38  1  0  0  0
 38 42  1  0  0  0
 38 39  1  0  0  0
 42 43  2  0  0  0
 39 40  1  0  0  0
 39 41  1  0  0  0
 44 45  1  0  0  0
 11 13  1  0  0  0
  5  7  1  0  0  0
 27 28  1  0  0  0
 29 31  1  0  0  0
 34 36  1  0  0  0
 42 45  1  0  0  0
 15 18  1  0  0  0
 15 19  1  0  0  0
 13 14  1  0  0  0
  2  3  1  0  0  0
  7  8  1  0  0  0
 31 32  1  0  0  0
 36 37  1  0  0  0
M  END
> <minimizedAffinity>
-8.35056

$$$$
1SIV_PSI_B_100


 48 48  0  0  0  0  0  0  0  0999 V2000
    4.9722   10.9752   40.3652 C   0  0  0  0  0  0  0  0  0  0  0  0
    4.0915   10.5946   39.3174 O   0  0  0  0  0  0  0  0  0  0  0  0
    3.6567   11.3836   38.9578 H   0  0  0  0  0  0  0  0  0  0  0  0
    4.1929   11.5644   41.5499 C   0  0  0  0  0  0  0  0  0  0  0  0
    1.8032   11.9050   41.3565 C   0  0  0  0  0  0  0  0  0  0  0  0
    2.0396   13.1008   41.1819 O   0  0  0  0  0  0  0  0  0  0  0  0
    2.8162   11.0767   41.5509 N   0  0  0  0  0  0  0  0  0  0  0  0
    2.6399   10.1193   41.6981 H   0  0  0  0  0  0  0  0  0  0  0  0
    0.3805   11.3447   41.3603 C   0  0  0  0  0  0  0  0  0  0  0  0
   -0.6220   12.3733   40.9011 C   0  0  0  0  0  0  0  0  0  0  0  0
   -0.4289    9.8285   42.9910 C   0  0  0  0  0  0  0  0  0  0  0  0
   -0.6127    8.9792   42.1106 O   0  0  0  0  0  0  0  0  0  0  0  0
    0.0426   10.9947   42.7057 N   0  0  0  0  0  0  0  0  0  0  0  0
    0.1720   11.6543   43.4250 H   0  0  0  0  0  0  0  0  0  0  0  0
   -0.4534   10.7124   45.2462 N   0  0  0  0  0  0  0  0  0  0  0  0
   -0.7769    9.5400   44.4422 C   0  0  0  0  0  0  0  0  0  0  0  0
   -2.2542    9.2041   44.5165 C   0  0  0  0  0  0  0  0  0  0  0  0
    0.5448   10.9095   45.1737 H   0  0  0  0  0  0  0  0  0  0  0  0
   -0.6946   10.5333   46.2209 H   0  0  0  0  0  0  0  0  0  0  0  0
    4.8122   11.1920   42.8832 C   0  0  0  0  0  0  0  0  0  0  0  0
    4.2080    9.9179   43.4304 C   0  0  0  0  0  0  0  0  0  0  0  0
    3.1712    9.9942   44.3320 C   0  0  0  0  0  0  0  0  0  0  0  0
    4.7138    8.6937   43.0271 C   0  0  0  0  0  0  0  0  0  0  0  0
    2.6503    8.8177   44.8190 C   0  0  0  0  0  0  0  0  0  0  0  0
    4.1930    7.5212   43.5149 C   0  0  0  0  0  0  0  0  0  0  0  0
    3.1567    7.5917   44.4124 C   0  0  0  0  0  0  0  0  0  0  0  0
    5.9688   11.8795   39.7206 C   0  0  0  0  0  0  0  0  0  0  0  0
    5.3048   13.1143   39.2065 C   0  0  0  0  0  0  0  0  0  0  0  0
    5.4485   13.1715   37.6922 C   0  0  0  0  0  0  0  0  0  0  0  0
    5.7169   12.1371   37.0630 O   0  0  0  0  0  0  0  0  0  0  0  0
    5.2863   14.3410   37.0901 N   0  0  0  0  0  0  0  0  0  0  0  0
    5.0595   15.1478   37.6067 H   0  0  0  0  0  0  0  0  0  0  0  0
    5.4495   14.4006   35.6694 C   0  0  0  0  0  0  0  0  0  0  0  0
    6.9299   14.6393   35.5178 C   0  0  0  0  0  0  0  0  0  0  0  0
    7.4882   15.6698   35.9042 O   0  0  0  0  0  0  0  0  0  0  0  0
    7.5967   13.6759   34.9198 N   0  0  0  0  0  0  0  0  0  0  0  0
    7.1094   12.8684   34.6375 H   0  0  0  0  0  0  0  0  0  0  0  0
    9.0275   13.7565   34.6589 C   0  0  0  0  0  0  0  0  0  0  0  0
    9.7376   12.4146   34.9473 C   0  0  0  0  0  0  0  0  0  0  0  0
    8.7264   11.3459   35.3028 C   0  0  0  0  0  0  0  0  0  0  0  0
   10.7835   12.6435   36.0207 C   0  0  0  0  0  0  0  0  0  0  0  0
    9.1736   14.1304   33.1695 C   0  0  0  0  0  0  0  0  0  0  0  0
    9.7695   15.1398   32.7760 O   0  0  0  0  0  0  0  0  0  0  0  0
    9.6846   12.9052   31.1883 C   0  0  0  0  0  0  0  0  0  0  0  0
    8.6745   13.3024   32.1388 O   0  0  0  0  0  0  0  0  0  0  0  0
    4.7134   15.5601   34.9328 C   0  0  0  0  0  0  0  0  0  0  0  0
    5.2399   15.6131   33.5048 C   0  0  0  0  0  0  0  0  0  0  0  0
    3.2097   15.3430   34.8290 C   0  0  0  0  0  0  0  0  0  0  0  0
 15 16  1  0  0  0
 16 11  1  0  0  0
 16 17  1  0  0  0
 11 12  2  0  0  0
 13  9  1  0  0  0
  9  5  1  0  0  0
  9 10  1  0  0  0
  5  6  2  0  0  0
  7  4  1  0  0  0
  4  1  1  0  0  0
  4 20  1  0  0  0
  1  2  1  0  0  0
  1 27  1  0  0  0
 20 21  1  0  0  0
 21 22  2  0  0  0
 21 23  1  0  0  0
 22 24  1  0  0  0
 23 25  2  0  0  0
 24 26  2  0  0  0
 25 26  1  0  0  0
 28 29  1  0  0  0
 29 30  2  0  0  0
 31 33  1  0  0  0
 33 34  1  0  0  0
 33 46  1  0  0  0
 34 35  2  0  0  0
 46 47  1  0  0  0
 46 48  1  0  0  0
 36 38  1  0  0  0
 38 42  1  0  0  0
 38 39  1  0  0  0
 42 43  2  0  0  0
 39 40  1  0  0  0
 39 41  1  0  0  0
 44 45  1  0  0  0
 11 13  1  0  0  0
  5  7  1  0  0  0
 27 28  1  0  0  0
 29 31  1  0  0  0
 34 36  1  0  0  0
 42 45  1  0  0  0
 15 18  1  0  0  0
 15 19  1  0  0  0
 13 14  1  0  0  0
  2  3  1  0  0  0
  7  8  1  0  0  0
 31 32  1  0  0  0
 36 37  1  0  0  0
M  END
> <minimizedAffinity>
-8.33741

$$$$
1SIV_PSI_B_100


 48 48  0  0  0  0  0  0  0  0999 V2000
    6.9644   12.8785   39.0646 C   0  0  0  0  0  0  0  0  0  0  0  0
    7.7049   11.6702   39.1644 O   0  0  0  0  0  0  0  0  0  0  0  0
    7.4835   11.0926   38.4172 H   0  0  0  0  0  0  0  0  0  0  0  0
    5.4590   12.6129   39.2103 C   0  0  0  0  0  0  0  0  0  0  0  0
    3.6914   13.7978   38.0546 C   0  0  0  0  0  0  0  0  0  0  0  0
    3.3072   14.1938   39.1555 O   0  0  0  0  0  0  0  0  0  0  0  0
    4.7495   13.0059   37.9957 N   0  0  0  0  0  0  0  0  0  0  0  0
    5.0626   12.6774   37.1221 H   0  0  0  0  0  0  0  0  0  0  0  0
    2.9867   14.1859   36.7543 C   0  0  0  0  0  0  0  0  0  0  0  0
    2.1405   13.0562   36.2235 C   0  0  0  0  0  0  0  0  0  0  0  0
    3.7511   15.2690   34.7908 C   0  0  0  0  0  0  0  0  0  0  0  0
    2.6499   15.8184   34.6648 O   0  0  0  0  0  0  0  0  0  0  0  0
    3.9875   14.4642   35.7706 N   0  0  0  0  0  0  0  0  0  0  0  0
    4.8704   14.0347   35.8427 H   0  0  0  0  0  0  0  0  0  0  0  0
    4.8690   16.9086   33.4016 N   0  0  0  0  0  0  0  0  0  0  0  0
    4.8619   15.5005   33.7795 C   0  0  0  0  0  0  0  0  0  0  0  0
    6.1752   15.0883   34.4168 C   0  0  0  0  0  0  0  0  0  0  0  0
    3.9736   17.1512   32.9775 H   0  0  0  0  0  0  0  0  0  0  0  0
    5.6194   17.0770   32.7316 H   0  0  0  0  0  0  0  0  0  0  0  0
    5.1591   11.1478   39.4626 C   0  0  0  0  0  0  0  0  0  0  0  0
    4.1041   10.9817   40.5338 C   0  0  0  0  0  0  0  0  0  0  0  0
    4.4567   11.1180   41.8569 C   0  0  0  0  0  0  0  0  0  0  0  0
    2.8021   10.6826   40.1698 C   0  0  0  0  0  0  0  0  0  0  0  0
    3.4764   10.9508   42.8075 C   0  0  0  0  0  0  0  0  0  0  0  0
    1.8259   10.5154   41.1200 C   0  0  0  0  0  0  0  0  0  0  0  0
    2.1718   10.6532   42.4413 C   0  0  0  0  0  0  0  0  0  0  0  0
    7.4007   13.4918   37.7763 C   0  0  0  0  0  0  0  0  0  0  0  0
    7.2510   12.5197   36.6526 C   0  0  0  0  0  0  0  0  0  0  0  0
    8.5683   12.4147   35.8972 C   0  0  0  0  0  0  0  0  0  0  0  0
    9.6268   12.2761   36.5283 O   0  0  0  0  0  0  0  0  0  0  0  0
    8.5401   12.4823   34.5739 N   0  0  0  0  0  0  0  0  0  0  0  0
    7.6874   12.5783   34.0912 H   0  0  0  0  0  0  0  0  0  0  0  0
    9.7813   12.4122   33.8647 C   0  0  0  0  0  0  0  0  0  0  0  0
    9.7534   13.6652   33.0275 C   0  0  0  0  0  0  0  0  0  0  0  0
   10.3393   14.7025   33.3494 O   0  0  0  0  0  0  0  0  0  0  0  0
    9.0375   13.5903   31.9265 N   0  0  0  0  0  0  0  0  0  0  0  0
    8.5958   12.7383   31.7069 H   0  0  0  0  0  0  0  0  0  0  0  0
    8.8723   14.7179   31.0194 C   0  0  0  0  0  0  0  0  0  0  0  0
    9.3707   14.3838   29.5953 C   0  0  0  0  0  0  0  0  0  0  0  0
    8.9556   12.9817   29.2042 C   0  0  0  0  0  0  0  0  0  0  0  0
   10.8686   14.6115   29.5428 C   0  0  0  0  0  0  0  0  0  0  0  0
    7.3631   15.0363   30.9977 C   0  0  0  0  0  0  0  0  0  0  0  0
    6.4837   14.1673   31.0041 O   0  0  0  0  0  0  0  0  0  0  0  0
    7.8944   17.3456   30.7298 C   0  0  0  0  0  0  0  0  0  0  0  0
    6.8791   16.3637   31.0237 O   0  0  0  0  0  0  0  0  0  0  0  0
    9.9600   11.2071   32.8928 C   0  0  0  0  0  0  0  0  0  0  0  0
   11.4526   11.0134   32.6606 C   0  0  0  0  0  0  0  0  0  0  0  0
    9.4400    9.8953   33.4652 C   0  0  0  0  0  0  0  0  0  0  0  0
 15 16  1  0  0  0
 16 11  1  0  0  0
 16 17  1  0  0  0
 11 12  2  0  0  0
 13  9  1  0  0  0
  9  5  1  0  0  0
  9 10  1  0  0  0
  5  6  2  0  0  0
  7  4  1  0  0  0
  4  1  1  0  0  0
  4 20  1  0  0  0
  1  2  1  0  0  0
  1 27  1  0  0  0
 20 21  1  0  0  0
 21 22  2  0  0  0
 21 23  1  0  0  0
 22 24  1  0  0  0
 23 25  2  0  0  0
 24 26  2  0  0  0
 25 26  1  0  0  0
 28 29  1  0  0  0
 29 30  2  0  0  0
 31 33  1  0  0  0
 33 34  1  0  0  0
 33 46  1  0  0  0
 34 35  2  0  0  0
 46 47  1  0  0  0
 46 48  1  0  0  0
 36 38  1  0  0  0
 38 42  1  0  0  0
 38 39  1  0  0  0
 42 43  2  0  0  0
 39 40  1  0  0  0
 39 41  1  0  0  0
 44 45  1  0  0  0
 11 13  1  0  0  0
  5  7  1  0  0  0
 27 28  1  0  0  0
 29 31  1  0  0  0
 34 36  1  0  0  0
 42 45  1  0  0  0
 15 18  1  0  0  0
 15 19  1  0  0  0
 13 14  1  0  0  0
  2  3  1  0  0  0
  7  8  1  0  0  0
 31 32  1  0  0  0
 36 37  1  0  0  0
M  END
> <minimizedAffinity>
-8.32168

$$$$
1SIV_PSI_B_100


 48 48  0  0  0  0  0  0  0  0999 V2000
    2.6991   12.1541   41.7593 C   0  0  0  0  0  0  0  0  0  0  0  0
    2.8411   13.5557   41.9436 O   0  0  0  0  0  0  0  0  0  0  0  0
    3.2431   13.9468   41.1522 H   0  0  0  0  0  0  0  0  0  0  0  0
    4.0712   11.4745   41.6430 C   0  0  0  0  0  0  0  0  0  0  0  0
    5.3964   11.9355   39.6693 C   0  0  0  0  0  0  0  0  0  0  0  0
    4.9895   10.8680   39.2096 O   0  0  0  0  0  0  0  0  0  0  0  0
    4.9916   12.3068   40.8728 N   0  0  0  0  0  0  0  0  0  0  0  0
    5.3148   13.1550   41.2541 H   0  0  0  0  0  0  0  0  0  0  0  0
    6.3554   12.8446   38.9001 C   0  0  0  0  0  0  0  0  0  0  0  0
    7.1264   13.7494   39.8280 C   0  0  0  0  0  0  0  0  0  0  0  0
    5.7674   13.6783   36.7618 C   0  0  0  0  0  0  0  0  0  0  0  0
    6.6283   12.9569   36.2434 O   0  0  0  0  0  0  0  0  0  0  0  0
    5.5803   13.6829   38.0380 N   0  0  0  0  0  0  0  0  0  0  0  0
    4.8933   14.2724   38.4248 H   0  0  0  0  0  0  0  0  0  0  0  0
    5.5463   14.7765   34.6141 N   0  0  0  0  0  0  0  0  0  0  0  0
    4.9131   14.6088   35.9165 C   0  0  0  0  0  0  0  0  0  0  0  0
    3.5310   13.9970   35.7893 C   0  0  0  0  0  0  0  0  0  0  0  0
    6.4712   15.1890   34.7362 H   0  0  0  0  0  0  0  0  0  0  0  0
    4.9741   15.3903   34.0343 H   0  0  0  0  0  0  0  0  0  0  0  0
    4.7029   11.2267   42.9993 C   0  0  0  0  0  0  0  0  0  0  0  0
    4.2277    9.9196   43.5939 C   0  0  0  0  0  0  0  0  0  0  0  0
    4.0210    8.8374   42.7694 C   0  0  0  0  0  0  0  0  0  0  0  0
    3.9951    9.8332   44.9561 C   0  0  0  0  0  0  0  0  0  0  0  0
    3.5787    7.6660   43.3393 C   0  0  0  0  0  0  0  0  0  0  0  0
    3.5531    8.6637   45.5223 C   0  0  0  0  0  0  0  0  0  0  0  0
    3.3481    7.5802   44.7047 C   0  0  0  0  0  0  0  0  0  0  0  0
    1.7941   12.0107   40.5817 C   0  0  0  0  0  0  0  0  0  0  0  0
    0.3772   11.8448   41.0233 C   0  0  0  0  0  0  0  0  0  0  0  0
    0.2014   10.4682   41.6488 C   0  0  0  0  0  0  0  0  0  0  0  0
    0.9187    9.5288   41.2734 O   0  0  0  0  0  0  0  0  0  0  0  0
   -0.7286   10.3164   42.5808 N   0  0  0  0  0  0  0  0  0  0  0  0
   -1.2780   11.0786   42.8748 H   0  0  0  0  0  0  0  0  0  0  0  0
   -0.9135    9.0158   43.1488 C   0  0  0  0  0  0  0  0  0  0  0  0
   -2.3418    9.0656   43.6274 C   0  0  0  0  0  0  0  0  0  0  0  0
   -2.8296   10.0512   44.1874 O   0  0  0  0  0  0  0  0  0  0  0  0
   -3.0406    7.9693   43.4275 N   0  0  0  0  0  0  0  0  0  0  0  0
   -2.6110    7.2120   42.9680 H   0  0  0  0  0  0  0  0  0  0  0  0
   -4.4250    7.8313   43.8590 C   0  0  0  0  0  0  0  0  0  0  0  0
   -5.3585    7.4750   42.6801 C   0  0  0  0  0  0  0  0  0  0  0  0
   -4.5557    6.9527   41.5080 C   0  0  0  0  0  0  0  0  0  0  0  0
   -6.2004    8.6910   42.3471 C   0  0  0  0  0  0  0  0  0  0  0  0
   -4.4380    6.7041   44.9120 C   0  0  0  0  0  0  0  0  0  0  0  0
   -5.3034    6.6013   45.7890 O   0  0  0  0  0  0  0  0  0  0  0  0
   -3.5945    4.7797   46.0401 C   0  0  0  0  0  0  0  0  0  0  0  0
   -3.4766    5.6684   44.9096 O   0  0  0  0  0  0  0  0  0  0  0  0
   -0.0232    8.6604   44.3775 C   0  0  0  0  0  0  0  0  0  0  0  0
    0.2017    9.9382   45.1750 C   0  0  0  0  0  0  0  0  0  0  0  0
   -0.6836    7.6708   45.3280 C   0  0  0  0  0  0  0  0  0  0  0  0
 15 16  1  0  0  0
 16 11  1  0  0  0
 16 17  1  0  0  0
 11 12  2  0  0  0
 13  9  1  0  0  0
  9  5  1  0  0  0
  9 10  1  0  0  0
  5  6  2  0  0  0
  7  4  1  0  0  0
  4  1  1  0  0  0
  4 20  1  0  0  0
  1  2  1  0  0  0
  1 27  1  0  0  0
 20 21  1  0  0  0
 21 22  2  0  0  0
 21 23  1  0  0  0
 22 24  1  0  0  0
 23 25  2  0  0  0
 24 26  2  0  0  0
 25 26  1  0  0  0
 28 29  1  0  0  0
 29 30  2  0  0  0
 31 33  1  0  0  0
 33 34  1  0  0  0
 33 46  1  0  0  0
 34 35  2  0  0  0
 46 47  1  0  0  0
 46 48  1  0  0  0
 36 38  1  0  0  0
 38 42  1  0  0  0
 38 39  1  0  0  0
 42 43  2  0  0  0
 39 40  1  0  0  0
 39 41  1  0  0  0
 44 45  1  0  0  0
 11 13  1  0  0  0
  5  7  1  0  0  0
 27 28  1  0  0  0
 29 31  1  0  0  0
 34 36  1  0  0  0
 42 45  1  0  0  0
 15 18  1  0  0  0
 15 19  1  0  0  0
 13 14  1  0  0  0
  2  3  1  0  0  0
  7  8  1  0  0  0
 31 32  1  0  0  0
 36 37  1  0  0  0
M  END
> <minimizedAffinity>
-8.25066

$$$$
1SIV_PSI_B_100


 48 48  0  0  0  0  0  0  0  0999 V2000
    2.2243   12.9572   38.9112 C   0  0  0  0  0  0  0  0  0  0  0  0
    2.1486   11.6041   38.4847 O   0  0  0  0  0  0  0  0  0  0  0  0
    3.0225   11.1907   38.5642 H   0  0  0  0  0  0  0  0  0  0  0  0
    3.1290   13.7762   37.9792 C   0  0  0  0  0  0  0  0  0  0  0  0
    5.2716   12.7047   38.3335 C   0  0  0  0  0  0  0  0  0  0  0  0
    4.8022   11.7031   37.7924 O   0  0  0  0  0  0  0  0  0  0  0  0
    4.5049   13.7744   38.4690 N   0  0  0  0  0  0  0  0  0  0  0  0
    4.8665   14.5793   38.9057 H   0  0  0  0  0  0  0  0  0  0  0  0
    6.7072   12.7545   38.8571 C   0  0  0  0  0  0  0  0  0  0  0  0
    6.8231   13.6359   40.0753 C   0  0  0  0  0  0  0  0  0  0  0  0
    8.2601   12.5837   37.0760 C   0  0  0  0  0  0  0  0  0  0  0  0
    8.2731   11.3535   37.2048 O   0  0  0  0  0  0  0  0  0  0  0  0
    7.5336   13.3274   37.8394 N   0  0  0  0  0  0  0  0  0  0  0  0
    7.5479   14.3045   37.7199 H   0  0  0  0  0  0  0  0  0  0  0  0
    9.6554   14.5040   36.5933 N   0  0  0  0  0  0  0  0  0  0  0  0
    9.1214   13.2705   36.0287 C   0  0  0  0  0  0  0  0  0  0  0  0
   10.2299   12.3158   35.6279 C   0  0  0  0  0  0  0  0  0  0  0  0
    8.8854   15.1212   36.8512 H   0  0  0  0  0  0  0  0  0  0  0  0
   10.2453   14.9670   35.9017 H   0  0  0  0  0  0  0  0  0  0  0  0
    3.1445   13.2235   36.5670 C   0  0  0  0  0  0  0  0  0  0  0  0
    3.5775   14.2769   35.5717 C   0  0  0  0  0  0  0  0  0  0  0  0
    4.9087   14.6127   35.4789 C   0  0  0  0  0  0  0  0  0  0  0  0
    2.6283   14.8974   34.7772 C   0  0  0  0  0  0  0  0  0  0  0  0
    5.2691   15.5817   34.5713 C   0  0  0  0  0  0  0  0  0  0  0  0
    2.9901   15.8645   33.8729 C   0  0  0  0  0  0  0  0  0  0  0  0
    4.3173   16.2012   33.7743 C   0  0  0  0  0  0  0  0  0  0  0  0
    2.6468   12.8870   40.3405 C   0  0  0  0  0  0  0  0  0  0  0  0
    1.5104   12.4498   41.2050 C   0  0  0  0  0  0  0  0  0  0  0  0
    1.7209   11.0007   41.6208 C   0  0  0  0  0  0  0  0  0  0  0  0
    1.4018   10.0881   40.8442 O   0  0  0  0  0  0  0  0  0  0  0  0
    2.2388   10.7599   42.8169 N   0  0  0  0  0  0  0  0  0  0  0  0
    2.4986   11.4992   43.4128 H   0  0  0  0  0  0  0  0  0  0  0  0
    2.4105    9.3972   43.2196 C   0  0  0  0  0  0  0  0  0  0  0  0
    1.3579    9.2340   44.2859 C   0  0  0  0  0  0  0  0  0  0  0  0
    1.5058    9.6341   45.4439 O   0  0  0  0  0  0  0  0  0  0  0  0
    0.2640    8.6102   43.9057 N   0  0  0  0  0  0  0  0  0  0  0  0
    0.1880    8.3177   42.9687 H   0  0  0  0  0  0  0  0  0  0  0  0
   -0.8394    8.3351   44.8160 C   0  0  0  0  0  0  0  0  0  0  0  0
   -2.1914    8.2649   44.0708 C   0  0  0  0  0  0  0  0  0  0  0  0
   -2.0182    7.6033   42.7205 C   0  0  0  0  0  0  0  0  0  0  0  0
   -2.7723    9.6631   43.9930 C   0  0  0  0  0  0  0  0  0  0  0  0
   -0.5227    6.9792   45.4798 C   0  0  0  0  0  0  0  0  0  0  0  0
    0.1467    6.0940   44.9350 O   0  0  0  0  0  0  0  0  0  0  0  0
   -1.7702    5.5003   46.8741 C   0  0  0  0  0  0  0  0  0  0  0  0
   -0.9384    6.6766   46.7961 O   0  0  0  0  0  0  0  0  0  0  0  0
    3.7826    9.0287   43.8600 C   0  0  0  0  0  0  0  0  0  0  0  0
    4.1340    7.6120   43.4256 C   0  0  0  0  0  0  0  0  0  0  0  0
    4.9226    9.9195   43.3846 C   0  0  0  0  0  0  0  0  0  0  0  0
 15 16  1  0  0  0
 16 11  1  0  0  0
 16 17  1  0  0  0
 11 12  2  0  0  0
 13  9  1  0  0  0
  9  5  1  0  0  0
  9 10  1  0  0  0
  5  6  2  0  0  0
  7  4  1  0  0  0
  4  1  1  0  0  0
  4 20  1  0  0  0
  1  2  1  0  0  0
  1 27  1  0  0  0
 20 21  1  0  0  0
 21 22  2  0  0  0
 21 23  1  0  0  0
 22 24  1  0  0  0
 23 25  2  0  0  0
 24 26  2  0  0  0
 25 26  1  0  0  0
 28 29  1  0  0  0
 29 30  2  0  0  0
 31 33  1  0  0  0
 33 34  1  0  0  0
 33 46  1  0  0  0
 34 35  2  0  0  0
 46 47  1  0  0  0
 46 48  1  0  0  0
 36 38  1  0  0  0
 38 42  1  0  0  0
 38 39  1  0  0  0
 42 43  2  0  0  0
 39 40  1  0  0  0
 39 41  1  0  0  0
 44 45  1  0  0  0
 11 13  1  0  0  0
  5  7  1  0  0  0
 27 28  1  0  0  0
 29 31  1  0  0  0
 34 36  1  0  0  0
 42 45  1  0  0  0
 15 18  1  0  0  0
 15 19  1  0  0  0
 13 14  1  0  0  0
  2  3  1  0  0  0
  7  8  1  0  0  0
 31 32  1  0  0  0
 36 37  1  0  0  0
M  END
> <minimizedAffinity>
-8.20078

$$$$
1SIV_PSI_B_100


 48 48  0  0  0  0  0  0  0  0999 V2000
    4.3579   10.2120   41.8592 C   0  0  0  0  0  0  0  0  0  0  0  0
    4.5372   10.6995   43.1816 O   0  0  0  0  0  0  0  0  0  0  0  0
    3.7311   11.1555   43.4701 H   0  0  0  0  0  0  0  0  0  0  0  0
    4.1890   11.3707   40.8657 C   0  0  0  0  0  0  0  0  0  0  0  0
    5.9773   12.0527   39.3821 C   0  0  0  0  0  0  0  0  0  0  0  0
    6.1131   13.0520   40.0887 O   0  0  0  0  0  0  0  0  0  0  0  0
    5.0419   11.1718   39.6969 N   0  0  0  0  0  0  0  0  0  0  0  0
    4.9191   10.3720   39.1361 H   0  0  0  0  0  0  0  0  0  0  0  0
    6.8488   11.7963   38.1522 C   0  0  0  0  0  0  0  0  0  0  0  0
    7.9655   10.8292   38.4556 C   0  0  0  0  0  0  0  0  0  0  0  0
    6.9775   13.7326   36.7932 C   0  0  0  0  0  0  0  0  0  0  0  0
    5.9901   13.3499   36.1538 O   0  0  0  0  0  0  0  0  0  0  0  0
    7.4533   13.0346   37.7679 N   0  0  0  0  0  0  0  0  0  0  0  0
    8.2449   13.3591   38.2551 H   0  0  0  0  0  0  0  0  0  0  0  0
    6.6860   16.0636   36.2026 N   0  0  0  0  0  0  0  0  0  0  0  0
    7.6862   15.0293   36.4375 C   0  0  0  0  0  0  0  0  0  0  0  0
    8.6070   15.3955   37.5859 C   0  0  0  0  0  0  0  0  0  0  0  0
    6.0856   15.7859   35.4262 H   0  0  0  0  0  0  0  0  0  0  0  0
    7.1520   16.9418   35.9747 H   0  0  0  0  0  0  0  0  0  0  0  0
    2.7600   11.4982   40.3741 C   0  0  0  0  0  0  0  0  0  0  0  0
    2.6918   12.2957   39.0907 C   0  0  0  0  0  0  0  0  0  0  0  0
    2.5128   11.6385   37.8951 C   0  0  0  0  0  0  0  0  0  0  0  0
    2.8229   13.6734   39.1347 C   0  0  0  0  0  0  0  0  0  0  0  0
    2.4654   12.3913   36.7446 C   0  0  0  0  0  0  0  0  0  0  0  0
    2.7761   14.4223   37.9855 C   0  0  0  0  0  0  0  0  0  0  0  0
    2.5948   13.7719   36.7903 C   0  0  0  0  0  0  0  0  0  0  0  0
    3.2158    9.2564   41.9530 C   0  0  0  0  0  0  0  0  0  0  0  0
    3.0737    8.7405   43.3470 C   0  0  0  0  0  0  0  0  0  0  0  0
    1.8460    9.3660   43.9940 C   0  0  0  0  0  0  0  0  0  0  0  0
    1.9814   10.0910   44.9909 O   0  0  0  0  0  0  0  0  0  0  0  0
    0.6578    9.1062   43.4673 N   0  0  0  0  0  0  0  0  0  0  0  0
    0.5733    8.5393   42.6669 H   0  0  0  0  0  0  0  0  0  0  0  0
   -0.4992    9.6711   44.0924 C   0  0  0  0  0  0  0  0  0  0  0  0
   -1.2505    8.4505   44.5587 C   0  0  0  0  0  0  0  0  0  0  0  0
   -1.8930    8.4177   45.6118 O   0  0  0  0  0  0  0  0  0  0  0  0
   -1.1600    7.3998   43.7724 N   0  0  0  0  0  0  0  0  0  0  0  0
   -0.6436    7.4770   42.9378 H   0  0  0  0  0  0  0  0  0  0  0  0
   -1.7935    6.1267   44.0878 C   0  0  0  0  0  0  0  0  0  0  0  0
   -1.9738    5.2503   42.8278 C   0  0  0  0  0  0  0  0  0  0  0  0
   -2.8922    5.9313   41.8359 C   0  0  0  0  0  0  0  0  0  0  0  0
   -2.4543    3.8786   43.2592 C   0  0  0  0  0  0  0  0  0  0  0  0
   -0.8670    5.4235   45.1011 C   0  0  0  0  0  0  0  0  0  0  0  0
    0.3663    5.4315   45.0158 O   0  0  0  0  0  0  0  0  0  0  0  0
   -0.5934    3.6074   46.6223 C   0  0  0  0  0  0  0  0  0  0  0  0
   -1.3739    4.7593   46.2409 O   0  0  0  0  0  0  0  0  0  0  0  0
   -1.4588   10.4851   43.1731 C   0  0  0  0  0  0  0  0  0  0  0  0
   -2.2794   11.4116   44.0605 C   0  0  0  0  0  0  0  0  0  0  0  0
   -0.7234   11.3781   42.1827 C   0  0  0  0  0  0  0  0  0  0  0  0
 15 16  1  0  0  0
 16 11  1  0  0  0
 16 17  1  0  0  0
 11 12  2  0  0  0
 13  9  1  0  0  0
  9  5  1  0  0  0
  9 10  1  0  0  0
  5  6  2  0  0  0
  7  4  1  0  0  0
  4  1  1  0  0  0
  4 20  1  0  0  0
  1  2  1  0  0  0
  1 27  1  0  0  0
 20 21  1  0  0  0
 21 22  2  0  0  0
 21 23  1  0  0  0
 22 24  1  0  0  0
 23 25  2  0  0  0
 24 26  2  0  0  0
 25 26  1  0  0  0
 28 29  1  0  0  0
 29 30  2  0  0  0
 31 33  1  0  0  0
 33 34  1  0  0  0
 33 46  1  0  0  0
 34 35  2  0  0  0
 46 47  1  0  0  0
 46 48  1  0  0  0
 36 38  1  0  0  0
 38 42  1  0  0  0
 38 39  1  0  0  0
 42 43  2  0  0  0
 39 40  1  0  0  0
 39 41  1  0  0  0
 44 45  1  0  0  0
 11 13  1  0  0  0
  5  7  1  0  0  0
 27 28  1  0  0  0
 29 31  1  0  0  0
 34 36  1  0  0  0
 42 45  1  0  0  0
 15 18  1  0  0  0
 15 19  1  0  0  0
 13 14  1  0  0  0
  2  3  1  0  0  0
  7  8  1  0  0  0
 31 32  1  0  0  0
 36 37  1  0  0  0
M  END
> <minimizedAffinity>
-8.03915

$$$$
1SIV_PSI_B_100


 48 48  0  0  0  0  0  0  0  0999 V2000
    2.0268    9.0994   45.2896 C   0  0  0  0  0  0  0  0  0  0  0  0
    2.4187    8.7007   46.5957 O   0  0  0  0  0  0  0  0  0  0  0  0
    2.5640    7.7418   46.6110 H   0  0  0  0  0  0  0  0  0  0  0  0
    0.6662    8.4932   44.9161 C   0  0  0  0  0  0  0  0  0  0  0  0
    0.0189    6.4872   46.1082 C   0  0  0  0  0  0  0  0  0  0  0  0
    0.4622    5.8414   45.1580 O   0  0  0  0  0  0  0  0  0  0  0  0
    0.0782    7.8081   46.0642 N   0  0  0  0  0  0  0  0  0  0  0  0
   -0.2786    8.3359   46.8147 H   0  0  0  0  0  0  0  0  0  0  0  0
   -0.6004    5.8167   47.3349 C   0  0  0  0  0  0  0  0  0  0  0  0
    0.2140    4.6319   47.7899 C   0  0  0  0  0  0  0  0  0  0  0  0
   -2.9606    5.7774   47.5380 C   0  0  0  0  0  0  0  0  0  0  0  0
   -2.8991    6.6402   48.4225 O   0  0  0  0  0  0  0  0  0  0  0  0
   -1.8940    5.3267   46.9698 N   0  0  0  0  0  0  0  0  0  0  0  0
   -1.9713    4.6346   46.2739 H   0  0  0  0  0  0  0  0  0  0  0  0
   -4.9252    6.1106   46.1608 N   0  0  0  0  0  0  0  0  0  0  0  0
   -4.2956    5.1946   47.1042 C   0  0  0  0  0  0  0  0  0  0  0  0
   -4.0377    3.8383   46.4758 C   0  0  0  0  0  0  0  0  0  0  0  0
   -5.0838    7.0101   46.6147 H   0  0  0  0  0  0  0  0  0  0  0  0
   -5.8172    5.7226   45.8540 H   0  0  0  0  0  0  0  0  0  0  0  0
   -0.3221    9.5475   44.4559 C   0  0  0  0  0  0  0  0  0  0  0  0
   -1.5588    8.9144   43.8579 C   0  0  0  0  0  0  0  0  0  0  0  0
   -2.8016    9.3469   44.2603 C   0  0  0  0  0  0  0  0  0  0  0  0
   -1.4240    7.9008   42.9243 C   0  0  0  0  0  0  0  0  0  0  0  0
   -3.9067    8.7439   43.7053 C   0  0  0  0  0  0  0  0  0  0  0  0
   -2.5280    7.3001   42.3726 C   0  0  0  0  0  0  0  0  0  0  0  0
   -3.7702    7.7298   42.7684 C   0  0  0  0  0  0  0  0  0  0  0  0
    3.1745    8.7255   44.4126 C   0  0  0  0  0  0  0  0  0  0  0  0
    3.8039    9.9434   43.8205 C   0  0  0  0  0  0  0  0  0  0  0  0
    3.4049   10.0564   42.3559 C   0  0  0  0  0  0  0  0  0  0  0  0
    3.3394    9.0332   41.6583 O   0  0  0  0  0  0  0  0  0  0  0  0
    3.1439   11.2606   41.8676 N   0  0  0  0  0  0  0  0  0  0  0  0
    3.1879   12.0589   42.4420 H   0  0  0  0  0  0  0  0  0  0  0  0
    2.7964   11.3703   40.4835 C   0  0  0  0  0  0  0  0  0  0  0  0
    3.6014   12.5632   40.0356 C   0  0  0  0  0  0  0  0  0  0  0  0
    3.4503   13.6929   40.5089 O   0  0  0  0  0  0  0  0  0  0  0  0
    4.4733   12.3266   39.0795 N   0  0  0  0  0  0  0  0  0  0  0  0
    4.5647   11.4070   38.7400 H   0  0  0  0  0  0  0  0  0  0  0  0
    5.3089   13.3712   38.5031 C   0  0  0  0  0  0  0  0  0  0  0  0
    6.8106   13.0188   38.5967 C   0  0  0  0  0  0  0  0  0  0  0  0
    6.9955   11.5238   38.7454 C   0  0  0  0  0  0  0  0  0  0  0  0
    7.4252   13.8229   39.7254 C   0  0  0  0  0  0  0  0  0  0  0  0
    4.8802   13.5008   37.0269 C   0  0  0  0  0  0  0  0  0  0  0  0
    5.5354   14.1177   36.1792 O   0  0  0  0  0  0  0  0  0  0  0  0
    2.6147   13.7748   36.3342 C   0  0  0  0  0  0  0  0  0  0  0  0
    3.7197   12.8675   36.5276 O   0  0  0  0  0  0  0  0  0  0  0  0
    1.3012   11.6713   40.1634 C   0  0  0  0  0  0  0  0  0  0  0  0
    0.9169   10.8635   38.9310 C   0  0  0  0  0  0  0  0  0  0  0  0
    0.3533   11.2386   41.2740 C   0  0  0  0  0  0  0  0  0  0  0  0
 15 16  1  0  0  0
 16 11  1  0  0  0
 16 17  1  0  0  0
 11 12  2  0  0  0
 13  9  1  0  0  0
  9  5  1  0  0  0
  9 10  1  0  0  0
  5  6  2  0  0  0
  7  4  1  0  0  0
  4  1  1  0  0  0
  4 20  1  0  0  0
  1  2  1  0  0  0
  1 27  1  0  0  0
 20 21  1  0  0  0
 21 22  2  0  0  0
 21 23  1  0  0  0
 22 24  1  0  0  0
 23 25  2  0  0  0
 24 26  2  0  0  0
 25 26  1  0  0  0
 28 29  1  0  0  0
 29 30  2  0  0  0
 31 33  1  0  0  0
 33 34  1  0  0  0
 33 46  1  0  0  0
 34 35  2  0  0  0
 46 47  1  0  0  0
 46 48  1  0  0  0
 36 38  1  0  0  0
 38 42  1  0  0  0
 38 39  1  0  0  0
 42 43  2  0  0  0
 39 40  1  0  0  0
 39 41  1  0  0  0
 44 45  1  0  0  0
 11 13  1  0  0  0
  5  7  1  0  0  0
 27 28  1  0  0  0
 29 31  1  0  0  0
 34 36  1  0  0  0
 42 45  1  0  0  0
 15 18  1  0  0  0
 15 19  1  0  0  0
 13 14  1  0  0  0
  2  3  1  0  0  0
  7  8  1  0  0  0
 31 32  1  0  0  0
 36 37  1  0  0  0
M  END
> <minimizedAffinity>
-7.99318

$$$$
1SIV_PSI_B_100


 48 48  0  0  0  0  0  0  0  0999 V2000
    1.7870    8.9091   45.3628 C   0  0  0  0  0  0  0  0  0  0  0  0
    2.1415    8.4641   46.6646 O   0  0  0  0  0  0  0  0  0  0  0  0
    2.3324    7.5134   46.6405 H   0  0  0  0  0  0  0  0  0  0  0  0
    0.4747    8.2600   44.8997 C   0  0  0  0  0  0  0  0  0  0  0  0
   -0.1311    6.1357   45.8920 C   0  0  0  0  0  0  0  0  0  0  0  0
    0.3369    5.5929   44.8907 O   0  0  0  0  0  0  0  0  0  0  0  0
   -0.1056    7.4560   45.9721 N   0  0  0  0  0  0  0  0  0  0  0  0
   -0.4824    7.9023   46.7646 H   0  0  0  0  0  0  0  0  0  0  0  0
   -0.7438    5.3382   47.0438 C   0  0  0  0  0  0  0  0  0  0  0  0
   -1.9221    6.0571   47.6512 C   0  0  0  0  0  0  0  0  0  0  0  0
    0.4467    4.0725   48.6542 C   0  0  0  0  0  0  0  0  0  0  0  0
   -0.2138    3.0701   48.3553 O   0  0  0  0  0  0  0  0  0  0  0  0
    0.2451    5.2040   48.0689 N   0  0  0  0  0  0  0  0  0  0  0  0
    0.7801    5.9876   48.3316 H   0  0  0  0  0  0  0  0  0  0  0  0
    1.0725    4.8425   50.8640 N   0  0  0  0  0  0  0  0  0  0  0  0
    1.5053    4.0163   49.7435 C   0  0  0  0  0  0  0  0  0  0  0  0
    1.6833    2.5675   50.1559 C   0  0  0  0  0  0  0  0  0  0  0  0
    0.9629    5.8076   50.5525 H   0  0  0  0  0  0  0  0  0  0  0  0
    1.7711    4.8020   51.6061 H   0  0  0  0  0  0  0  0  0  0  0  0
   -0.5590    9.2909   44.4890 C   0  0  0  0  0  0  0  0  0  0  0  0
   -1.7405    8.6392   43.8055 C   0  0  0  0  0  0  0  0  0  0  0  0
   -1.5211    7.7459   42.7821 C   0  0  0  0  0  0  0  0  0  0  0  0
   -3.0255    8.9593   44.2097 C   0  0  0  0  0  0  0  0  0  0  0  0
   -2.6168    7.1781   42.1739 C   0  0  0  0  0  0  0  0  0  0  0  0
   -4.1171    8.3922   43.6009 C   0  0  0  0  0  0  0  0  0  0  0  0
   -3.9038    7.4982   42.5813 C   0  0  0  0  0  0  0  0  0  0  0  0
    2.9881    8.6331   44.5215 C   0  0  0  0  0  0  0  0  0  0  0  0
    3.5411    9.9016   43.9604 C   0  0  0  0  0  0  0  0  0  0  0  0
    3.1739   10.0040   42.4868 C   0  0  0  0  0  0  0  0  0  0  0  0
    3.0156    8.9694   41.8217 O   0  0  0  0  0  0  0  0  0  0  0  0
    3.0403   11.2109   41.9556 N   0  0  0  0  0  0  0  0  0  0  0  0
    3.1563   12.0199   42.5045 H   0  0  0  0  0  0  0  0  0  0  0  0
    2.7229   11.3077   40.5633 C   0  0  0  0  0  0  0  0  0  0  0  0
    3.5253   12.5061   40.1253 C   0  0  0  0  0  0  0  0  0  0  0  0
    3.4237   13.6147   40.6578 O   0  0  0  0  0  0  0  0  0  0  0  0
    4.3372   12.2993   39.1112 N   0  0  0  0  0  0  0  0  0  0  0  0
    4.3909   11.3952   38.7253 H   0  0  0  0  0  0  0  0  0  0  0  0
    5.1599   13.3550   38.5366 C   0  0  0  0  0  0  0  0  0  0  0  0
    6.6671   13.0373   38.6618 C   0  0  0  0  0  0  0  0  0  0  0  0
    6.8974   11.5416   38.6315 C   0  0  0  0  0  0  0  0  0  0  0  0
    7.1994   13.7095   39.9120 C   0  0  0  0  0  0  0  0  0  0  0  0
    4.7556   13.4566   37.0514 C   0  0  0  0  0  0  0  0  0  0  0  0
    5.3847   14.1185   36.2180 O   0  0  0  0  0  0  0  0  0  0  0  0
    2.5047   13.5809   36.2733 C   0  0  0  0  0  0  0  0  0  0  0  0
    3.6530   12.7450   36.5270 O   0  0  0  0  0  0  0  0  0  0  0  0
    1.2322   11.5906   40.2077 C   0  0  0  0  0  0  0  0  0  0  0  0
    0.8744   10.7443   38.9932 C   0  0  0  0  0  0  0  0  0  0  0  0
    0.2667   11.1860   41.3135 C   0  0  0  0  0  0  0  0  0  0  0  0
 15 16  1  0  0  0
 16 11  1  0  0  0
 16 17  1  0  0  0
 11 12  2  0  0  0
 13  9  1  0  0  0
  9  5  1  0  0  0
  9 10  1  0  0  0
  5  6  2  0  0  0
  7  4  1  0  0  0
  4  1  1  0  0  0
  4 20  1  0  0  0
  1  2  1  0  0  0
  1 27  1  0  0  0
 20 21  1  0  0  0
 21 22  2  0  0  0
 21 23  1  0  0  0
 22 24  1  0  0  0
 23 25  2  0  0  0
 24 26  2  0  0  0
 25 26  1  0  0  0
 28 29  1  0  0  0
 29 30  2  0  0  0
 31 33  1  0  0  0
 33 34  1  0  0  0
 33 46  1  0  0  0
 34 35  2  0  0  0
 46 47  1  0  0  0
 46 48  1  0  0  0
 36 38  1  0  0  0
 38 42  1  0  0  0
 38 39  1  0  0  0
 42 43  2  0  0  0
 39 40  1  0  0  0
 39 41  1  0  0  0
 44 45  1  0  0  0
 11 13  1  0  0  0
  5  7  1  0  0  0
 27 28  1  0  0  0
 29 31  1  0  0  0
 34 36  1  0  0  0
 42 45  1  0  0  0
 15 18  1  0  0  0
 15 19  1  0  0  0
 13 14  1  0  0  0
  2  3  1  0  0  0
  7  8  1  0  0  0
 31 32  1  0  0  0
 36 37  1  0  0  0
M  END
> <minimizedAffinity>
-7.97432

$$$$
