6B4D_53X_A_305
  RCSB PDB02171804413D
Coordinates from PDB:6B4D:A:305 Model:1 without hydrogens
 20 22  0  0  0  0            999 V2000
   -5.5760    1.6660   15.7470   O 0  0  0  0  0  0  0  0  0  0  0  0
   -4.3810    2.0390   15.8290   C 0  0  0  0  0  0  0  0  0  0  0  0
   -3.5470    1.3420   16.4700   O 0  0  0  0  0  0  0  0  0  0  0  0
   -3.9650    3.3340   15.1570   C 0  0  0  0  0  0  0  0  0  0  0  0
   -2.6760    3.7040   14.7630   C 0  0  0  0  0  0  0  0  0  0  0  0
   -4.7690    4.3420   14.8470   N 0  0  0  0  0  0  0  0  0  0  0  0
   -6.2020    4.4190   15.0820   C 0  0  0  0  0  0  0  0  0  0  0  0
   -4.0830    5.3230   14.2800   N 0  0  0  0  0  0  0  0  0  0  0  0
   -2.8250    4.9800   14.1930   C 0  0  0  0  0  0  0  0  0  0  0  0
   -1.6950    5.8070   13.6130   C 0  0  0  0  0  0  0  0  0  0  0  0
   -0.6730    5.3780   12.7670   C 0  0  0  0  0  0  0  0  0  0  0  0
   -1.4740    7.1680   13.8450   C 0  0  0  0  0  0  0  0  0  0  0  0
   -2.1310    8.1480   14.5910   C 0  0  0  0  0  0  0  0  0  0  0  0
   -1.6280    9.4480   14.6030   C 0  0  0  0  0  0  0  0  0  0  0  0
   -0.4810    9.7720   13.8790   C 0  0  0  0  0  0  0  0  0  0  0  0
    0.1730    8.8000   13.1440   C 0  0  0  0  0  0  0  0  0  0  0  0
   -0.3340    7.4930   13.1260   C 0  0  0  0  0  0  0  0  0  0  0  0
    0.1170    6.4050   12.4970   N 0  0  0  0  0  0  0  0  0  0  0  0
    1.3150    6.4020   11.6610   C 0  0  0  0  0  0  0  0  0  0  0  0
    1.3430    5.2400   10.6760   C 0  0  0  0  0  0  0  0  0  0  0  0
 20 19  1  0  0  0  0
 19 18  1  0  0  0  0
 18 11  1  0  0  0  0
 18 17  1  0  0  0  0
 11 10  2  0  0  0  0
 17 16  2  0  0  0  0
 17 12  1  0  0  0  0
 16 15  1  0  0  0  0
 10 12  1  0  0  0  0
 10  9  1  0  0  0  0
 12 13  2  0  0  0  0
 15 14  2  0  0  0  0
  9  8  2  0  0  0  0
  9  5  1  0  0  0  0
  8  6  1  0  0  0  0
 13 14  1  0  0  0  0
  5  4  2  0  0  0  0
  6  7  1  0  0  0  0
  6  4  1  0  0  0  0
  4  2  1  0  0  0  0
  1  2  2  0  0  0  0
  2  3  1  0  0  0  0
A    1
OAS
A    2
CAO
A    3
OAT
A    4
CAL
A    5
CAK
A    6
NAM
A    7
CAP
A    8
NAN
A    9
CAJ
A   10
CAI
A   11
CAH
A   12
CAF
A   13
CAA
A   14
CAB
A   15
CAC
A   16
CAD
A   17
CAE
A   18
NAG
A   19
CAQ
A   20
CAR
M  END
>  <InstanceId>
6B4D_53X_A_305

>  <ChemCompId>
53X

>  <PdbId>
6B4D

>  <ChainId>
A

>  <ResidueNumber>
305

>  <InsertionCode>


>  <Model>
1

>  <AltIds>


>  <MissingHeavyAtoms>
0

>  <ObservedFormula>
C15 N3 O2

>  <Name>
3-(1-ethyl-1H-indol-3-yl)-1-methyl-1H-pyrazole-5-carboxylic acid

>  <SystematicName>
5-(1-ethylindol-3-yl)-2-methyl-pyrazole-3-carboxylic acid

>  <Synonyms>


>  <Type>
NON-POLYMER

>  <Formula>
C15 H15 N3 O2

>  <MolecularWeight>
269.299

>  <ModifiedDate>
2016-09-23

>  <Parent>


>  <OneLetterCode>


>  <SubcomponentList>


>  <AmbiguousFlag>
N

>  <InChI>
InChI=1S/C15H15N3O2/c1-3-18-9-11(10-6-4-5-7-13(10)18)12-8-14(15(19)20)17(2)16-12/h4-9H,3H2,1-2H3,(H,19,20)

>  <InChIKey>
WCVZTBNDQWTCGE-UHFFFAOYSA-N

>  <SMILES>
CCn1cc(c2c1cccc2)c3cc(n(n3)C)C(=O)O

$$$$
