5EIJ_5OT_A_302
  RCSB PDB12061717283D
Coordinates from PDB:5EIJ:A:302 Model:1 without hydrogens
 21 22  0  0  0  0            999 V2000
   -0.9370    8.2750   12.7750   C 0  0  0  0  0  0  0  0  0  0  0  0
   -0.0020    8.9050   13.5870   C 0  0  0  0  0  0  0  0  0  0  0  0
    1.8090    9.5980   12.7500   I 0  0  0  0  0  0  0  0  0  0  0  0
   -0.2330    9.0990   14.9400   C 0  0  0  0  0  0  0  0  0  0  0  0
   -1.4120    8.6470   15.4920   C 0  0  0  0  0  0  0  0  0  0  0  0
   -2.3400    8.0070   14.6840   C 0  0  0  0  0  0  0  0  0  0  0  0
   -2.1190    7.8220   13.3270   C 0  0  0  0  0  0  0  0  0  0  0  0
   -3.1310    7.1650   12.5150   N 0  0  0  0  0  0  0  0  0  0  0  0
   -4.2140    6.5300   13.2520   C 0  0  0  0  0  0  0  0  0  0  0  0
   -5.6560    6.1260   12.2250   S 0  0  0  0  0  0  0  0  0  0  0  0
   -3.6000    5.3520   13.8170   N 0  0  0  0  0  0  0  0  0  0  0  0
   -4.2720    4.3350   14.5790   C 0  0  0  0  0  0  0  0  0  0  0  0
   -5.5970    4.4060   14.9700   C 0  0  0  0  0  0  0  0  0  0  0  0
   -6.1270    3.3620   15.7090   C 0  0  0  0  0  0  0  0  0  0  0  0
   -5.3150    2.2880   16.0410   C 0  0  0  0  0  0  0  0  0  0  0  0
   -5.9410    0.8850   16.9920   S 0  0  0  0  0  0  0  0  0  0  0  0
   -5.3540    1.0290   18.5000   O 0  0  0  0  0  0  0  0  0  0  0  0
   -7.5590    0.9480   16.8950   O 0  0  0  0  0  0  0  0  0  0  0  0
   -5.3380   -0.5290   16.2500   N 0  0  0  0  0  0  0  0  0  0  0  0
   -4.0030    2.2330   15.6500   C 0  0  0  0  0  0  0  0  0  0  0  0
   -3.4860    3.2620   14.9100   C 0  0  0  0  0  0  0  0  0  0  0  0
 10  9  2  0  0  0  0
  8  9  1  0  0  0  0
  8  7  1  0  0  0  0
  3  2  1  0  0  0  0
  1  7  2  0  0  0  0
  1  2  1  0  0  0  0
  9 11  1  0  0  0  0
  7  6  1  0  0  0  0
  2  4  2  0  0  0  0
 11 12  1  0  0  0  0
 12 21  2  0  0  0  0
 12 13  1  0  0  0  0
  6  5  2  0  0  0  0
 21 20  1  0  0  0  0
  4  5  1  0  0  0  0
 13 14  2  0  0  0  0
 20 15  2  0  0  0  0
 14 15  1  0  0  0  0
 15 16  1  0  0  0  0
 19 16  1  0  0  0  0
 18 16  2  0  0  0  0
 16 17  2  0  0  0  0
A    1
CAP
A    2
CAO
A    3
IAQ
A    4
CAN
A    5
CAM
A    6
CAL
A    7
CAK
A    8
NAI
A    9
CAH
A   10
SAJ
A   11
NAG
A   12
CAD
A   13
CAC
A   14
CAB
A   15
CAA
A   16
SAR
A   17
OAS
A   18
OAT
A   19
NAU
A   20
CAF
A   21
CAE
M  END
>  <InstanceId>
5EIJ_5OT_A_302

>  <ChemCompId>
5OT

>  <PdbId>
5EIJ

>  <ChainId>
A

>  <ResidueNumber>
302

>  <InsertionCode>


>  <Model>
1

>  <AltIds>


>  <MissingHeavyAtoms>
0

>  <ObservedFormula>
C13 N3 O2 S2 I

>  <Name>
1-(3-iodanylphenyl)-3-(4-sulfamoylphenyl)thiourea

>  <SystematicName>
1-(3-iodanylphenyl)-3-(4-sulfamoylphenyl)thiourea

>  <Synonyms>


>  <Type>
NON-POLYMER

>  <Formula>
C13 H12 I N3 O2 S2

>  <MolecularWeight>
433.288

>  <ModifiedDate>
2016-11-04

>  <Parent>


>  <OneLetterCode>


>  <SubcomponentList>


>  <AmbiguousFlag>
N

>  <InChI>
InChI=1S/C13H12IN3O2S2/c14-9-2-1-3-11(8-9)17-13(20)16-10-4-6-12(7-5-10)21(15,18)19/h1-8H,(H2,15,18,19)(H2,16,17,20)

>  <InChIKey>
JXJJQOHWSVYHLS-UHFFFAOYSA-N

>  <SMILES>
c1cc(cc(c1)I)NC(=S)Nc2ccc(cc2)S(=O)(=O)N

$$$$
