5EIJ_5OT_A_302


 25 26  0  0  0  0  0  0  0  0999 V2000
   -4.2684    5.6665   13.8398 N   0  0  0  0  0  0  0  0  0  0  0  0
   -4.8326    6.4731   13.8580 H   0  0  0  0  0  0  0  0  0  0  0  0
   -4.6338    4.5926   14.7230 C   0  0  0  0  0  0  0  0  0  0  0  0
   -3.7592    3.6130   15.1574 C   0  0  0  0  0  0  0  0  0  0  0  0
   -4.2362    2.6261   16.0033 C   0  0  0  0  0  0  0  0  0  0  0  0
   -5.5710    2.6445   16.3788 C   0  0  0  0  0  0  0  0  0  0  0  0
   -6.4269    3.6192   15.9375 C   0  0  0  0  0  0  0  0  0  0  0  0
   -5.9486    4.5993   15.1103 C   0  0  0  0  0  0  0  0  0  0  0  0
   -6.2604    1.3970   17.4893 S   0  0  0  0  0  0  0  0  0  0  0  0
   -6.1028    1.9645   19.0033 O   0  0  0  0  0  0  0  0  0  0  0  0
   -7.7950    1.1601   17.0199 O   0  0  0  0  0  0  0  0  0  0  0  0
   -5.3320   -0.0206   17.2842 N   0  0  0  0  0  0  0  0  0  0  0  0
   -5.4416   -0.3638   16.3299 H   0  0  0  0  0  0  0  0  0  0  0  0
   -5.6504   -0.7335   17.9406 H   0  0  0  0  0  0  0  0  0  0  0  0
   -3.1487    5.6685   12.9287 C   0  0  0  0  0  0  0  0  0  0  0  0
   -2.6287    7.3508   12.4853 S   0  0  0  0  0  0  0  0  0  0  0  0
   -3.6226    4.8857   11.7964 N   0  0  0  0  0  0  0  0  0  0  0  0
   -4.3403    5.2038   11.2023 H   0  0  0  0  0  0  0  0  0  0  0  0
   -3.6536    2.4139   11.7447 C   0  0  0  0  0  0  0  0  0  0  0  0
   -2.9882    1.2116   11.5395 C   0  0  0  0  0  0  0  0  0  0  0  0
   -4.0329   -0.6106   11.7606 I   0  0  0  0  0  0  0  0  0  0  0  0
   -1.6491    1.1778   11.1827 C   0  0  0  0  0  0  0  0  0  0  0  0
   -0.9618    2.3636   11.0391 C   0  0  0  0  0  0  0  0  0  0  0  0
   -1.6228    3.5635   11.2561 C   0  0  0  0  0  0  0  0  0  0  0  0
   -2.9660    3.6028   11.6007 C   0  0  0  0  0  0  0  0  0  0  0  0
 16 15  2  0  0  0
 17 15  1  0  0  0
 17 25  1  0  0  0
 21 20  1  0  0  0
 19 25  2  0  0  0
 19 20  1  0  0  0
 15  1  1  0  0  0
 25 24  1  0  0  0
 20 22  2  0  0  0
  1  3  1  0  0  0
  3  8  2  0  0  0
  3  4  1  0  0  0
 24 23  2  0  0  0
  8  7  1  0  0  0
 22 23  1  0  0  0
  4  5  2  0  0  0
  7  6  2  0  0  0
  5  6  1  0  0  0
  6  9  1  0  0  0
 12  9  1  0  0  0
 11  9  2  0  0  0
  9 10  2  0  0  0
 17 18  1  0  0  0
  1  2  1  0  0  0
 12 13  1  0  0  0
 12 14  1  0  0  0
M  END
> <minimizedAffinity>
-7.56595

$$$$
5EIJ_5OT_A_302


 25 26  0  0  0  0  0  0  0  0999 V2000
   -4.2235    4.9031   13.1202 N   0  0  0  0  0  0  0  0  0  0  0  0
   -4.1957    4.4880   12.2279 H   0  0  0  0  0  0  0  0  0  0  0  0
   -4.6110    4.0632   14.2206 C   0  0  0  0  0  0  0  0  0  0  0  0
   -3.7582    3.1852   14.8651 C   0  0  0  0  0  0  0  0  0  0  0  0
   -4.2555    2.4244   15.9095 C   0  0  0  0  0  0  0  0  0  0  0  0
   -5.5882    2.5580   16.2688 C   0  0  0  0  0  0  0  0  0  0  0  0
   -6.4224    3.4292   15.6187 C   0  0  0  0  0  0  0  0  0  0  0  0
   -5.9239    4.1876   14.5940 C   0  0  0  0  0  0  0  0  0  0  0  0
   -6.3030    1.6074   17.6289 S   0  0  0  0  0  0  0  0  0  0  0  0
   -6.2850    2.5635   18.9423 O   0  0  0  0  0  0  0  0  0  0  0  0
   -7.7859    1.1590   17.1481 O   0  0  0  0  0  0  0  0  0  0  0  0
   -5.2997    0.2473   17.8678 N   0  0  0  0  0  0  0  0  0  0  0  0
   -5.3220   -0.3420   17.0355 H   0  0  0  0  0  0  0  0  0  0  0  0
   -5.6346   -0.2854   18.6706 H   0  0  0  0  0  0  0  0  0  0  0  0
   -3.8714    6.3005   13.2057 C   0  0  0  0  0  0  0  0  0  0  0  0
   -4.5972    7.2743   11.8559 S   0  0  0  0  0  0  0  0  0  0  0  0
   -2.4156    6.2913   13.2026 N   0  0  0  0  0  0  0  0  0  0  0  0
   -1.8963    5.6126   12.7138 H   0  0  0  0  0  0  0  0  0  0  0  0
   -0.5944    7.9263   13.5536 C   0  0  0  0  0  0  0  0  0  0  0  0
   -0.0260    8.9417   14.3127 C   0  0  0  0  0  0  0  0  0  0  0  0
    1.7868    9.8248   13.6847 I   0  0  0  0  0  0  0  0  0  0  0  0
   -0.6272    9.3988   15.4752 C   0  0  0  0  0  0  0  0  0  0  0  0
   -1.8091    8.8249   15.8909 C   0  0  0  0  0  0  0  0  0  0  0  0
   -2.3700    7.8027   15.1398 C   0  0  0  0  0  0  0  0  0  0  0  0
   -1.7789    7.3507   13.9690 C   0  0  0  0  0  0  0  0  0  0  0  0
 16 15  2  0  0  0
 17 15  1  0  0  0
 17 25  1  0  0  0
 21 20  1  0  0  0
 19 25  2  0  0  0
 19 20  1  0  0  0
 15  1  1  0  0  0
 25 24  1  0  0  0
 20 22  2  0  0  0
  1  3  1  0  0  0
  3  8  2  0  0  0
  3  4  1  0  0  0
 24 23  2  0  0  0
  8  7  1  0  0  0
 22 23  1  0  0  0
  4  5  2  0  0  0
  7  6  2  0  0  0
  5  6  1  0  0  0
  6  9  1  0  0  0
 12  9  1  0  0  0
 11  9  2  0  0  0
  9 10  2  0  0  0
 17 18  1  0  0  0
  1  2  1  0  0  0
 12 13  1  0  0  0
 12 14  1  0  0  0
M  END
> <minimizedAffinity>
-6.86721

$$$$
5EIJ_5OT_A_302


 25 26  0  0  0  0  0  0  0  0999 V2000
   -4.4366    5.7103   13.8024 N   0  0  0  0  0  0  0  0  0  0  0  0
   -4.4214    6.6262   14.1630 H   0  0  0  0  0  0  0  0  0  0  0  0
   -4.7232    4.6478   14.7274 C   0  0  0  0  0  0  0  0  0  0  0  0
   -3.7983    3.7043   15.1370 C   0  0  0  0  0  0  0  0  0  0  0  0
   -4.2010    2.7247   16.0287 C   0  0  0  0  0  0  0  0  0  0  0  0
   -5.5144    2.7138   16.4736 C   0  0  0  0  0  0  0  0  0  0  0  0
   -6.4208    3.6528   16.0564 C   0  0  0  0  0  0  0  0  0  0  0  0
   -6.0157    4.6262   15.1834 C   0  0  0  0  0  0  0  0  0  0  0  0
   -6.1075    1.4740   17.6465 S   0  0  0  0  0  0  0  0  0  0  0  0
   -5.0933    0.2078   17.5580 O   0  0  0  0  0  0  0  0  0  0  0  0
   -6.1505    2.1966   19.0982 O   0  0  0  0  0  0  0  0  0  0  0  0
   -7.6737    1.0197   17.1423 N   0  0  0  0  0  0  0  0  0  0  0  0
   -8.2974    1.8245   17.2037 H   0  0  0  0  0  0  0  0  0  0  0  0
   -8.0215    0.2733   17.7442 H   0  0  0  0  0  0  0  0  0  0  0  0
   -4.1689    5.5549   12.3924 C   0  0  0  0  0  0  0  0  0  0  0  0
   -5.1361    6.7107   11.3795 S   0  0  0  0  0  0  0  0  0  0  0  0
   -4.4742    4.1551   12.1345 N   0  0  0  0  0  0  0  0  0  0  0  0
   -5.3820    3.7884   12.2380 H   0  0  0  0  0  0  0  0  0  0  0  0
   -2.1990    3.8991   11.2012 C   0  0  0  0  0  0  0  0  0  0  0  0
   -1.1461    3.0765   10.8200 C   0  0  0  0  0  0  0  0  0  0  0  0
    0.6162    3.9339   10.0328 I   0  0  0  0  0  0  0  0  0  0  0  0
   -1.2204    1.6986   10.9520 C   0  0  0  0  0  0  0  0  0  0  0  0
   -2.3687    1.1335   11.4631 C   0  0  0  0  0  0  0  0  0  0  0  0
   -3.4245    1.9537   11.8320 C   0  0  0  0  0  0  0  0  0  0  0  0
   -3.3500    3.3339   11.7138 C   0  0  0  0  0  0  0  0  0  0  0  0
 16 15  2  0  0  0
 17 15  1  0  0  0
 17 25  1  0  0  0
 21 20  1  0  0  0
 19 25  2  0  0  0
 19 20  1  0  0  0
 15  1  1  0  0  0
 25 24  1  0  0  0
 20 22  2  0  0  0
  1  3  1  0  0  0
  3  8  2  0  0  0
  3  4  1  0  0  0
 24 23  2  0  0  0
  8  7  1  0  0  0
 22 23  1  0  0  0
  4  5  2  0  0  0
  7  6  2  0  0  0
  5  6  1  0  0  0
  6  9  1  0  0  0
 12  9  1  0  0  0
 11  9  2  0  0  0
  9 10  2  0  0  0
 17 18  1  0  0  0
  1  2  1  0  0  0
 12 13  1  0  0  0
 12 14  1  0  0  0
M  END
> <minimizedAffinity>
-6.76540

$$$$
5EIJ_5OT_A_302


 25 26  0  0  0  0  0  0  0  0999 V2000
   -0.0089    4.8436   10.7997 N   0  0  0  0  0  0  0  0  0  0  0  0
    0.7170    4.7124   10.1477 H   0  0  0  0  0  0  0  0  0  0  0  0
   -0.9920    3.7998   10.9029 C   0  0  0  0  0  0  0  0  0  0  0  0
   -0.7024    2.4918   11.2478 C   0  0  0  0  0  0  0  0  0  0  0  0
   -1.7395    1.5764   11.3060 C   0  0  0  0  0  0  0  0  0  0  0  0
   -3.0279    1.9944   11.0087 C   0  0  0  0  0  0  0  0  0  0  0  0
   -3.2993    3.2926   10.6649 C   0  0  0  0  0  0  0  0  0  0  0  0
   -2.2728    4.1970   10.6194 C   0  0  0  0  0  0  0  0  0  0  0  0
   -4.4318    0.8590   11.0759 S   0  0  0  0  0  0  0  0  0  0  0  0
   -4.3712   -0.0568    9.7354 O   0  0  0  0  0  0  0  0  0  0  0  0
   -4.2860    0.0278   12.4613 O   0  0  0  0  0  0  0  0  0  0  0  0
   -5.8461    1.8148   11.0816 N   0  0  0  0  0  0  0  0  0  0  0  0
   -5.8690    2.3830   11.9284 H   0  0  0  0  0  0  0  0  0  0  0  0
   -6.6661    1.2087   11.0565 H   0  0  0  0  0  0  0  0  0  0  0  0
    0.0096    6.0668   11.5661 C   0  0  0  0  0  0  0  0  0  0  0  0
    1.4198    7.1257   11.1332 S   0  0  0  0  0  0  0  0  0  0  0  0
    0.0248    5.6091   12.9479 N   0  0  0  0  0  0  0  0  0  0  0  0
    0.8368    5.2491   13.3725 H   0  0  0  0  0  0  0  0  0  0  0  0
   -1.9499    4.5975   14.0390 C   0  0  0  0  0  0  0  0  0  0  0  0
   -3.1482    4.7494   14.7257 C   0  0  0  0  0  0  0  0  0  0  0  0
   -4.2427    3.0389   15.3060 I   0  0  0  0  0  0  0  0  0  0  0  0
   -3.6426    6.0034   15.0490 C   0  0  0  0  0  0  0  0  0  0  0  0
   -2.9337    7.1231   14.6710 C   0  0  0  0  0  0  0  0  0  0  0  0
   -1.7438    6.9719   13.9747 C   0  0  0  0  0  0  0  0  0  0  0  0
   -1.2385    5.7188   13.6601 C   0  0  0  0  0  0  0  0  0  0  0  0
 16 15  2  0  0  0
 17 15  1  0  0  0
 17 25  1  0  0  0
 21 20  1  0  0  0
 19 25  2  0  0  0
 19 20  1  0  0  0
 15  1  1  0  0  0
 25 24  1  0  0  0
 20 22  2  0  0  0
  1  3  1  0  0  0
  3  8  2  0  0  0
  3  4  1  0  0  0
 24 23  2  0  0  0
  8  7  1  0  0  0
 22 23  1  0  0  0
  4  5  2  0  0  0
  7  6  2  0  0  0
  5  6  1  0  0  0
  6  9  1  0  0  0
 12  9  1  0  0  0
 11  9  2  0  0  0
  9 10  2  0  0  0
 17 18  1  0  0  0
  1  2  1  0  0  0
 12 13  1  0  0  0
 12 14  1  0  0  0
M  END
> <minimizedAffinity>
-6.60774

$$$$
5EIJ_5OT_A_302


 25 26  0  0  0  0  0  0  0  0999 V2000
   -3.9419    5.2670   13.7812 N   0  0  0  0  0  0  0  0  0  0  0  0
   -3.1353    5.7801   14.0166 H   0  0  0  0  0  0  0  0  0  0  0  0
   -4.3862    4.2775   14.7246 C   0  0  0  0  0  0  0  0  0  0  0  0
   -3.5887    3.2593   15.2152 C   0  0  0  0  0  0  0  0  0  0  0  0
   -4.1377    2.3629   16.1164 C   0  0  0  0  0  0  0  0  0  0  0  0
   -5.4655    2.5068   16.4896 C   0  0  0  0  0  0  0  0  0  0  0  0
   -6.2446    3.5182   15.9924 C   0  0  0  0  0  0  0  0  0  0  0  0
   -5.6949    4.4089   15.1103 C   0  0  0  0  0  0  0  0  0  0  0  0
   -6.2454    1.3827   17.6698 S   0  0  0  0  0  0  0  0  0  0  0  0
   -7.7436    1.0769   17.1210 O   0  0  0  0  0  0  0  0  0  0  0  0
   -5.2878    0.0768   17.7639 O   0  0  0  0  0  0  0  0  0  0  0  0
   -6.3140    2.2004   19.1665 N   0  0  0  0  0  0  0  0  0  0  0  0
   -5.3668    2.3848   19.4970 H   0  0  0  0  0  0  0  0  0  0  0  0
   -6.8052    1.6218   19.8479 H   0  0  0  0  0  0  0  0  0  0  0  0
   -4.5721    5.5761   12.5197 C   0  0  0  0  0  0  0  0  0  0  0  0
   -3.8472    4.6393   11.1435 S   0  0  0  0  0  0  0  0  0  0  0  0
   -4.4093    7.0174   12.3956 N   0  0  0  0  0  0  0  0  0  0  0  0
   -3.7670    7.5221   12.9451 H   0  0  0  0  0  0  0  0  0  0  0  0
   -4.7315    8.5066   10.4483 C   0  0  0  0  0  0  0  0  0  0  0  0
   -5.5786    9.0947    9.5172 C   0  0  0  0  0  0  0  0  0  0  0  0
   -4.7807   10.3882    8.0507 I   0  0  0  0  0  0  0  0  0  0  0  0
   -6.9423    8.8455    9.5213 C   0  0  0  0  0  0  0  0  0  0  0  0
   -7.4687    8.0039   10.4771 C   0  0  0  0  0  0  0  0  0  0  0  0
   -6.6249    7.4266   11.4143 C   0  0  0  0  0  0  0  0  0  0  0  0
   -5.2579    7.6627   11.4064 C   0  0  0  0  0  0  0  0  0  0  0  0
 16 15  2  0  0  0
 17 15  1  0  0  0
 17 25  1  0  0  0
 21 20  1  0  0  0
 19 25  2  0  0  0
 19 20  1  0  0  0
 15  1  1  0  0  0
 25 24  1  0  0  0
 20 22  2  0  0  0
  1  3  1  0  0  0
  3  8  2  0  0  0
  3  4  1  0  0  0
 24 23  2  0  0  0
  8  7  1  0  0  0
 22 23  1  0  0  0
  4  5  2  0  0  0
  7  6  2  0  0  0
  5  6  1  0  0  0
  6  9  1  0  0  0
 12  9  1  0  0  0
 11  9  2  0  0  0
  9 10  2  0  0  0
 17 18  1  0  0  0
  1  2  1  0  0  0
 12 13  1  0  0  0
 12 14  1  0  0  0
M  END
> <minimizedAffinity>
-6.51877

$$$$
5EIJ_5OT_A_302


 25 26  0  0  0  0  0  0  0  0999 V2000
   -0.2128    4.8890   12.6095 N   0  0  0  0  0  0  0  0  0  0  0  0
    0.3080    4.7463   13.4326 H   0  0  0  0  0  0  0  0  0  0  0  0
   -1.1017    3.8335   12.2066 C   0  0  0  0  0  0  0  0  0  0  0  0
   -0.7718    2.8458   11.2959 C   0  0  0  0  0  0  0  0  0  0  0  0
   -1.7208    1.8868   10.9852 C   0  0  0  0  0  0  0  0  0  0  0  0
   -2.9691    1.9513   11.5856 C   0  0  0  0  0  0  0  0  0  0  0  0
   -3.2832    2.9378   12.4831 C   0  0  0  0  0  0  0  0  0  0  0  0
   -2.3383    3.8775   12.7960 C   0  0  0  0  0  0  0  0  0  0  0  0
   -4.2524    0.7278   11.2379 S   0  0  0  0  0  0  0  0  0  0  0  0
   -3.8083   -0.0614    9.8891 O   0  0  0  0  0  0  0  0  0  0  0  0
   -4.3632   -0.2108   12.5563 O   0  0  0  0  0  0  0  0  0  0  0  0
   -5.7032    1.5878   10.9752 N   0  0  0  0  0  0  0  0  0  0  0  0
   -5.9680    2.0770   11.8301 H   0  0  0  0  0  0  0  0  0  0  0  0
   -6.4425    0.9356   10.7137 H   0  0  0  0  0  0  0  0  0  0  0  0
   -0.0152    6.1394   11.9157 C   0  0  0  0  0  0  0  0  0  0  0  0
   -1.3285    6.4668   10.7051 S   0  0  0  0  0  0  0  0  0  0  0  0
    1.3063    6.0001   11.3211 N   0  0  0  0  0  0  0  0  0  0  0  0
    1.4353    5.6871   10.3967 H   0  0  0  0  0  0  0  0  0  0  0  0
    2.5633    7.6302   12.6907 C   0  0  0  0  0  0  0  0  0  0  0  0
    3.6417    7.9213   13.5171 C   0  0  0  0  0  0  0  0  0  0  0  0
    3.8634    9.8720   14.2957 I   0  0  0  0  0  0  0  0  0  0  0  0
    4.5773    6.9550   13.8525 C   0  0  0  0  0  0  0  0  0  0  0  0
    4.4389    5.6810   13.3456 C   0  0  0  0  0  0  0  0  0  0  0  0
    3.3694    5.3936   12.5107 C   0  0  0  0  0  0  0  0  0  0  0  0
    2.4234    6.3538   12.1826 C   0  0  0  0  0  0  0  0  0  0  0  0
 16 15  2  0  0  0
 17 15  1  0  0  0
 17 25  1  0  0  0
 21 20  1  0  0  0
 19 25  2  0  0  0
 19 20  1  0  0  0
 15  1  1  0  0  0
 25 24  1  0  0  0
 20 22  2  0  0  0
  1  3  1  0  0  0
  3  8  2  0  0  0
  3  4  1  0  0  0
 24 23  2  0  0  0
  8  7  1  0  0  0
 22 23  1  0  0  0
  4  5  2  0  0  0
  7  6  2  0  0  0
  5  6  1  0  0  0
  6  9  1  0  0  0
 12  9  1  0  0  0
 11  9  2  0  0  0
  9 10  2  0  0  0
 17 18  1  0  0  0
  1  2  1  0  0  0
 12 13  1  0  0  0
 12 14  1  0  0  0
M  END
> <minimizedAffinity>
-6.28736

$$$$
5EIJ_5OT_A_302


 25 26  0  0  0  0  0  0  0  0999 V2000
   -3.7704    5.2810   13.7953 N   0  0  0  0  0  0  0  0  0  0  0  0
   -2.8978    5.6160   14.1043 H   0  0  0  0  0  0  0  0  0  0  0  0
   -4.4863    4.4051   14.6823 C   0  0  0  0  0  0  0  0  0  0  0  0
   -5.8047    4.5892   15.0583 C   0  0  0  0  0  0  0  0  0  0  0  0
   -6.3801    3.6768   15.9264 C   0  0  0  0  0  0  0  0  0  0  0  0
   -5.6182    2.6181   16.3972 C   0  0  0  0  0  0  0  0  0  0  0  0
   -4.3120    2.4505   16.0191 C   0  0  0  0  0  0  0  0  0  0  0  0
   -3.7503    3.3485   15.1520 C   0  0  0  0  0  0  0  0  0  0  0  0
   -6.3055    1.3825   17.5222 S   0  0  0  0  0  0  0  0  0  0  0  0
   -6.1159    1.9518   19.0319 O   0  0  0  0  0  0  0  0  0  0  0  0
   -7.8504    1.1643   17.0784 O   0  0  0  0  0  0  0  0  0  0  0  0
   -5.3989   -0.0475   17.3060 N   0  0  0  0  0  0  0  0  0  0  0  0
   -5.5284   -0.3917   16.3546 H   0  0  0  0  0  0  0  0  0  0  0  0
   -5.7157   -0.7545   17.9694 H   0  0  0  0  0  0  0  0  0  0  0  0
   -4.2160    5.7136   12.4921 C   0  0  0  0  0  0  0  0  0  0  0  0
   -3.1896    5.0354   11.1565 S   0  0  0  0  0  0  0  0  0  0  0  0
   -4.1781    7.1664   12.5781 N   0  0  0  0  0  0  0  0  0  0  0  0
   -3.8735    7.6362   13.3879 H   0  0  0  0  0  0  0  0  0  0  0  0
   -5.8268    7.5879   10.7845 C   0  0  0  0  0  0  0  0  0  0  0  0
   -6.2126    8.2993    9.6550 C   0  0  0  0  0  0  0  0  0  0  0  0
   -8.0563    7.8592    8.7236 I   0  0  0  0  0  0  0  0  0  0  0  0
   -5.4164    9.3029    9.1255 C   0  0  0  0  0  0  0  0  0  0  0  0
   -4.2114    9.5929    9.7278 C   0  0  0  0  0  0  0  0  0  0  0  0
   -3.8205    8.8745   10.8479 C   0  0  0  0  0  0  0  0  0  0  0  0
   -4.6196    7.8780   11.3891 C   0  0  0  0  0  0  0  0  0  0  0  0
 16 15  2  0  0  0
 17 15  1  0  0  0
 17 25  1  0  0  0
 21 20  1  0  0  0
 19 25  2  0  0  0
 19 20  1  0  0  0
 15  1  1  0  0  0
 25 24  1  0  0  0
 20 22  2  0  0  0
  1  3  1  0  0  0
  3  8  2  0  0  0
  3  4  1  0  0  0
 24 23  2  0  0  0
  8  7  1  0  0  0
 22 23  1  0  0  0
  4  5  2  0  0  0
  7  6  2  0  0  0
  5  6  1  0  0  0
  6  9  1  0  0  0
 12  9  1  0  0  0
 11  9  2  0  0  0
  9 10  2  0  0  0
 17 18  1  0  0  0
  1  2  1  0  0  0
 12 13  1  0  0  0
 12 14  1  0  0  0
M  END
> <minimizedAffinity>
-6.23224

$$$$
5EIJ_5OT_A_302


 25 26  0  0  0  0  0  0  0  0999 V2000
   -0.2517    5.0454   12.7304 N   0  0  0  0  0  0  0  0  0  0  0  0
   -0.0128    5.0894   13.6844 H   0  0  0  0  0  0  0  0  0  0  0  0
   -1.1148    3.9711   12.3211 C   0  0  0  0  0  0  0  0  0  0  0  0
   -0.7436    2.9683   11.4436 C   0  0  0  0  0  0  0  0  0  0  0  0
   -1.6710    1.9917   11.1223 C   0  0  0  0  0  0  0  0  0  0  0  0
   -2.9394    2.0542   11.6793 C   0  0  0  0  0  0  0  0  0  0  0  0
   -3.2943    3.0558   12.5443 C   0  0  0  0  0  0  0  0  0  0  0  0
   -2.3709    4.0130   12.8680 C   0  0  0  0  0  0  0  0  0  0  0  0
   -4.1967    0.8085   11.3157 S   0  0  0  0  0  0  0  0  0  0  0  0
   -3.7061    0.0060    9.9910 O   0  0  0  0  0  0  0  0  0  0  0  0
   -4.3306   -0.1122   12.6445 O   0  0  0  0  0  0  0  0  0  0  0  0
   -5.6511    1.6450   11.0016 N   0  0  0  0  0  0  0  0  0  0  0  0
   -5.9452    2.1429   11.8419 H   0  0  0  0  0  0  0  0  0  0  0  0
   -6.3745    0.9790   10.7303 H   0  0  0  0  0  0  0  0  0  0  0  0
    0.2962    6.0655   11.8683 C   0  0  0  0  0  0  0  0  0  0  0  0
    1.9547    6.5874   12.3920 S   0  0  0  0  0  0  0  0  0  0  0  0
   -0.6950    7.1305   11.9193 N   0  0  0  0  0  0  0  0  0  0  0  0
   -1.2166    7.4000   11.1290 H   0  0  0  0  0  0  0  0  0  0  0  0
   -0.0045    8.7620   13.6440 C   0  0  0  0  0  0  0  0  0  0  0  0
   -0.2090    9.3517   14.8853 C   0  0  0  0  0  0  0  0  0  0  0  0
    1.1032   10.8674   15.5498 I   0  0  0  0  0  0  0  0  0  0  0  0
   -1.2646    8.9738   15.7005 C   0  0  0  0  0  0  0  0  0  0  0  0
   -2.1227    7.9838   15.2730 C   0  0  0  0  0  0  0  0  0  0  0  0
   -1.9113    7.3864   14.0393 C   0  0  0  0  0  0  0  0  0  0  0  0
   -0.8640    7.7702   13.2144 C   0  0  0  0  0  0  0  0  0  0  0  0
 16 15  2  0  0  0
 17 15  1  0  0  0
 17 25  1  0  0  0
 21 20  1  0  0  0
 19 25  2  0  0  0
 19 20  1  0  0  0
 15  1  1  0  0  0
 25 24  1  0  0  0
 20 22  2  0  0  0
  1  3  1  0  0  0
  3  8  2  0  0  0
  3  4  1  0  0  0
 24 23  2  0  0  0
  8  7  1  0  0  0
 22 23  1  0  0  0
  4  5  2  0  0  0
  7  6  2  0  0  0
  5  6  1  0  0  0
  6  9  1  0  0  0
 12  9  1  0  0  0
 11  9  2  0  0  0
  9 10  2  0  0  0
 17 18  1  0  0  0
  1  2  1  0  0  0
 12 13  1  0  0  0
 12 14  1  0  0  0
M  END
> <minimizedAffinity>
-6.14638

$$$$
5EIJ_5OT_A_302


 25 26  0  0  0  0  0  0  0  0999 V2000
   -2.7938    5.5505   12.0597 N   0  0  0  0  0  0  0  0  0  0  0  0
   -2.9012    6.1225   11.2656 H   0  0  0  0  0  0  0  0  0  0  0  0
   -2.8019    4.1287   11.8477 C   0  0  0  0  0  0  0  0  0  0  0  0
   -1.6675    3.3370   11.8494 C   0  0  0  0  0  0  0  0  0  0  0  0
   -1.8073    1.9779   11.6254 C   0  0  0  0  0  0  0  0  0  0  0  0
   -3.0721    1.4566   11.3978 C   0  0  0  0  0  0  0  0  0  0  0  0
   -4.1865    2.2536   11.3953 C   0  0  0  0  0  0  0  0  0  0  0  0
   -4.0452    3.5951   11.6282 C   0  0  0  0  0  0  0  0  0  0  0  0
   -3.3322   -0.3082   11.1107 S   0  0  0  0  0  0  0  0  0  0  0  0
   -1.9199   -1.0545   11.4072 O   0  0  0  0  0  0  0  0  0  0  0  0
   -4.5457   -0.7599   12.0878 O   0  0  0  0  0  0  0  0  0  0  0  0
   -3.7683   -0.4874    9.4702 N   0  0  0  0  0  0  0  0  0  0  0  0
   -4.6557   -0.0140    9.3007 H   0  0  0  0  0  0  0  0  0  0  0  0
   -3.8643   -1.4788    9.2503 H   0  0  0  0  0  0  0  0  0  0  0  0
   -2.6425    6.2151   13.3323 C   0  0  0  0  0  0  0  0  0  0  0  0
   -1.1874    7.3008   13.3700 S   0  0  0  0  0  0  0  0  0  0  0  0
   -2.5795    5.1199   14.2893 N   0  0  0  0  0  0  0  0  0  0  0  0
   -1.7308    4.6846   14.5333 H   0  0  0  0  0  0  0  0  0  0  0  0
   -4.0214    3.4592   15.4191 C   0  0  0  0  0  0  0  0  0  0  0  0
   -5.2530    3.1143   15.9618 C   0  0  0  0  0  0  0  0  0  0  0  0
   -5.5188    1.2005   16.8146 I   0  0  0  0  0  0  0  0  0  0  0  0
   -6.3164    4.0037   15.9653 C   0  0  0  0  0  0  0  0  0  0  0  0
   -6.1493    5.2530   15.4084 C   0  0  0  0  0  0  0  0  0  0  0  0
   -4.9236    5.5929   14.8554 C   0  0  0  0  0  0  0  0  0  0  0  0
   -3.8527    4.7111   14.8611 C   0  0  0  0  0  0  0  0  0  0  0  0
 16 15  2  0  0  0
 17 15  1  0  0  0
 17 25  1  0  0  0
 21 20  1  0  0  0
 19 25  2  0  0  0
 19 20  1  0  0  0
 15  1  1  0  0  0
 25 24  1  0  0  0
 20 22  2  0  0  0
  1  3  1  0  0  0
  3  8  2  0  0  0
  3  4  1  0  0  0
 24 23  2  0  0  0
  8  7  1  0  0  0
 22 23  1  0  0  0
  4  5  2  0  0  0
  7  6  2  0  0  0
  5  6  1  0  0  0
  6  9  1  0  0  0
 12  9  1  0  0  0
 11  9  2  0  0  0
  9 10  2  0  0  0
 17 18  1  0  0  0
  1  2  1  0  0  0
 12 13  1  0  0  0
 12 14  1  0  0  0
M  END
> <minimizedAffinity>
-6.13726

$$$$
5EIJ_5OT_A_302


 25 26  0  0  0  0  0  0  0  0999 V2000
   -3.4311    4.6712   13.5590 N   0  0  0  0  0  0  0  0  0  0  0  0
   -3.5395    4.3907   12.6216 H   0  0  0  0  0  0  0  0  0  0  0  0
   -4.2338    3.9948   14.5411 C   0  0  0  0  0  0  0  0  0  0  0  0
   -5.5006    4.4000   14.9213 C   0  0  0  0  0  0  0  0  0  0  0  0
   -6.1701    3.6658   15.8855 C   0  0  0  0  0  0  0  0  0  0  0  0
   -5.5494    2.5588   16.4445 C   0  0  0  0  0  0  0  0  0  0  0  0
   -4.2924    2.1714   16.0609 C   0  0  0  0  0  0  0  0  0  0  0  0
   -3.6386    2.8935   15.0992 C   0  0  0  0  0  0  0  0  0  0  0  0
   -6.3666    1.5465   17.6983 S   0  0  0  0  0  0  0  0  0  0  0  0
   -6.3305    2.3855   19.0890 O   0  0  0  0  0  0  0  0  0  0  0  0
   -7.8587    1.2388   17.1411 O   0  0  0  0  0  0  0  0  0  0  0  0
   -5.4599    0.1079   17.8462 N   0  0  0  0  0  0  0  0  0  0  0  0
   -5.4925   -0.4066   16.9660 H   0  0  0  0  0  0  0  0  0  0  0  0
   -5.8536   -0.4671   18.5910 H   0  0  0  0  0  0  0  0  0  0  0  0
   -2.4804    5.7248   13.8236 C   0  0  0  0  0  0  0  0  0  0  0  0
   -2.5765    7.0593   12.5959 S   0  0  0  0  0  0  0  0  0  0  0  0
   -1.1974    5.0370   13.8400 N   0  0  0  0  0  0  0  0  0  0  0  0
   -0.6851    4.9021   14.6698 H   0  0  0  0  0  0  0  0  0  0  0  0
    0.3871    5.1180   11.9437 C   0  0  0  0  0  0  0  0  0  0  0  0
    0.8107    4.6271   10.7148 C   0  0  0  0  0  0  0  0  0  0  0  0
    2.5051    5.4738    9.7806 I   0  0  0  0  0  0  0  0  0  0  0  0
    0.1499    3.5831   10.0864 C   0  0  0  0  0  0  0  0  0  0  0  0
   -0.9575    3.0282   10.6903 C   0  0  0  0  0  0  0  0  0  0  0  0
   -1.3879    3.5264   11.9110 C   0  0  0  0  0  0  0  0  0  0  0  0
   -0.7223    4.5624   12.5500 C   0  0  0  0  0  0  0  0  0  0  0  0
 16 15  2  0  0  0
 17 15  1  0  0  0
 17 25  1  0  0  0
 21 20  1  0  0  0
 19 25  2  0  0  0
 19 20  1  0  0  0
 15  1  1  0  0  0
 25 24  1  0  0  0
 20 22  2  0  0  0
  1  3  1  0  0  0
  3  8  2  0  0  0
  3  4  1  0  0  0
 24 23  2  0  0  0
  8  7  1  0  0  0
 22 23  1  0  0  0
  4  5  2  0  0  0
  7  6  2  0  0  0
  5  6  1  0  0  0
  6  9  1  0  0  0
 12  9  1  0  0  0
 11  9  2  0  0  0
  9 10  2  0  0  0
 17 18  1  0  0  0
  1  2  1  0  0  0
 12 13  1  0  0  0
 12 14  1  0  0  0
M  END
> <minimizedAffinity>
-6.08388

$$$$
