4LOY_6XS_H_304
  RCSB PDB12061713363D
Coordinates from PDB:4LOY:H:304 Model:1 without hydrogens
 39 42  0  0  0  0            999 V2000
   17.0380  -11.6380   12.3840   C 0  0  0  0  0  0  0  0  0  0  0  0
   17.2800  -10.5790   11.5070   C 0  0  0  0  0  0  0  0  0  0  0  0
   16.6140   -9.4810   11.8610   C 0  0  0  0  0  0  0  0  0  0  0  0
   16.5920   -7.9440   10.9980  Cl 0  0  0  0  0  0  0  0  0  0  0  0
   15.7000   -9.6780   13.2890   S 0  0  0  0  0  0  0  0  0  0  0  0
   16.1850  -11.3120   13.3550   C 0  0  0  0  0  0  0  0  0  0  0  0
   15.7160  -12.1200   14.4710   C 0  0  0  0  0  0  0  0  0  0  0  0
   15.0370  -11.5480   15.3220   O 0  0  0  0  0  0  0  0  0  0  0  0
   15.9570  -13.4370   14.5040   N 0  0  0  0  0  0  0  0  0  0  0  0
   15.4240  -14.3780   15.5080   C 0  0  0  0  0  0  0  0  0  0  0  0
   13.9610  -14.7670   15.0720   C 0  0  0  0  0  0  0  0  0  0  0  0
   13.0180  -13.6080   14.7530   C 0  0  0  0  0  0  0  0  0  0  0  0
   12.9480  -13.2110   13.5830   O 0  0  0  0  0  0  0  0  0  0  0  0
   12.2750  -13.0240   15.7090   N 0  0  0  0  0  0  0  0  0  0  0  0
   12.2810  -13.4150   17.1340   C 0  0  0  0  0  0  0  0  0  0  0  0
   10.8300  -13.7450   17.4850   C 0  0  0  0  0  0  0  0  0  0  0  0
   10.0010  -12.5470   17.2640   N 0  0  0  0  0  0  0  0  0  0  0  0
    8.6300  -12.7950   17.7370   C 0  0  0  0  0  0  0  0  0  0  0  0
    9.9850  -12.1990   15.8300   C 0  0  0  0  0  0  0  0  0  0  0  0
   11.4110  -11.8710   15.3700   C 0  0  0  0  0  0  0  0  0  0  0  0
   13.9860  -15.6300   13.8850   N 0  0  0  0  0  0  0  0  0  0  0  0
   13.0400  -16.8630   13.7490   S 0  0  0  0  0  0  0  0  0  0  0  0
   13.3910  -17.5530   12.4850   O 0  0  0  0  0  0  0  0  0  0  0  0
   13.3910  -17.7510   14.8850   O 0  0  0  0  0  0  0  0  0  0  0  0
   11.4400  -16.5030   13.7830   C 0  0  0  0  0  0  0  0  0  0  0  0
   10.6900  -16.0030   12.6830   C 0  0  0  0  0  0  0  0  0  0  0  0
   11.4330  -15.7200   11.0820  Cl 0  0  0  0  0  0  0  0  0  0  0  0
   10.7360  -16.6790   14.9930   C 0  0  0  0  0  0  0  0  0  0  0  0
    9.3660  -16.3740   15.0930   C 0  0  0  0  0  0  0  0  0  0  0  0
    8.7150  -16.5010   16.2670   F 0  0  0  0  0  0  0  0  0  0  0  0
    8.6520  -15.8920   13.9820   C 0  0  0  0  0  0  0  0  0  0  0  0
    9.3170  -15.7010   12.7670   C 0  0  0  0  0  0  0  0  0  0  0  0
    8.6280  -15.1990   11.6770   N 0  0  0  0  0  0  0  0  0  0  0  0
    8.5320  -13.7250   11.6150   C 0  0  0  0  0  0  0  0  0  0  0  0
    7.6990  -13.2220   10.4220   C 0  0  0  0  0  0  0  0  0  0  0  0
    7.8290  -14.1120    9.1870   C 0  0  0  0  0  0  0  0  0  0  0  0
    7.3930  -15.5390    9.5340   C 0  0  0  0  0  0  0  0  0  0  0  0
    8.1260  -16.0760   10.7600   C 0  0  0  0  0  0  0  0  0  0  0  0
    8.2390  -17.2940   10.8530   O 0  0  0  0  0  0  0  0  0  0  0  0
  1  2  1  0  0  0  0
  1  6  2  0  0  0  0
  2  3  2  0  0  0  0
  3  4  1  0  0  0  0
  3  5  1  0  0  0  0
  5  6  1  0  0  0  0
  6  7  1  0  0  0  0
  7  8  2  0  0  0  0
  7  9  1  0  0  0  0
  9 10  1  0  0  0  0
 10 11  1  0  0  0  0
 11 12  1  0  0  0  0
 11 21  1  0  0  0  0
 12 13  2  0  0  0  0
 12 14  1  0  0  0  0
 14 15  1  0  0  0  0
 14 20  1  0  0  0  0
 15 16  1  0  0  0  0
 16 17  1  0  0  0  0
 17 18  1  0  0  0  0
 17 19  1  0  0  0  0
 19 20  1  0  0  0  0
 21 22  1  0  0  0  0
 22 23  2  0  0  0  0
 22 24  2  0  0  0  0
 22 25  1  0  0  0  0
 25 26  1  0  0  0  0
 25 28  2  0  0  0  0
 26 27  1  0  0  0  0
 26 32  2  0  0  0  0
 28 29  1  0  0  0  0
 29 30  1  0  0  0  0
 29 31  2  0  0  0  0
 31 32  1  0  0  0  0
 32 33  1  0  0  0  0
 33 34  1  0  0  0  0
 33 38  1  0  0  0  0
 34 35  1  0  0  0  0
 35 36  1  0  0  0  0
 36 37  1  0  0  0  0
 37 38  1  0  0  0  0
 38 39  2  0  0  0  0
A    1
C33
A    2
C32
A    3
C31
A    4
CL3
A    5
S30
A    6
C29
A    7
C28
A    8
O39
A    9
N27
A   10
C26
A   11
C17
A   12
C18
A   13
O38
A   14
N19
A   15
C20
A   16
C21
A   17
N22
A   18
C25
A   19
C23
A   20
C24
A   21
N16
A   22
S15
A   23
O36
A   24
O37
A   25
C9
A   26
C8
A   27
CL4
A   28
C10
A   29
C11
A   30
F13
A   31
C12
A   32
C7
A   33
N3
A   34
C2
A   35
C1
A   36
C6
A   37
C5
A   38
C4
A   39
O35
M  END
>  <InstanceId>
4LOY_6XS_H_304

>  <ChemCompId>
6XS

>  <PdbId>
4LOY

>  <ChainId>
H

>  <ResidueNumber>
304

>  <InsertionCode>


>  <Model>
1

>  <AltIds>


>  <MissingHeavyAtoms>
0

>  <ObservedFormula>
C24 N5 O5 S2 F Cl2

>  <Name>
5-Chloro-thiophene-2-carboxylic acid [(S)-2-[2-chloro-5-fluoro-3-(2-oxo-piperidin-1-yl)-benzenesulfonylamino]-3-(4-methyl-piperazin-1-yl)-3-oxo-propyl]-amide

>  <SystematicName>
5-chloranyl-N-[(2S)-2-[[2-chloranyl-5-fluoranyl-3-(2-oxidanylidenepiperidin-1-yl)phenyl]sulfonylamino]-3-(4-methylpiperazin-1-yl)-3-oxidanylidene-propyl]thiophene-2-carboxamide

>  <Synonyms>


>  <Type>
non-polymer

>  <Formula>
C24 H28 Cl2 F N5 O5 S2

>  <MolecularWeight>
620.544

>  <ModifiedDate>
2014-09-05

>  <Parent>


>  <OneLetterCode>


>  <SubcomponentList>


>  <AmbiguousFlag>
N

>  <InChI>
InChI=1S/C24H28Cl2FN5O5S2/c1-30-8-10-31(11-9-30)24(35)16(14-28-23(34)18-5-6-20(25)38-18)29-39(36,37)19-13-15(27)12-17(22(19)26)32-7-3-2-4-21(32)33/h5-6,12-13,16,29H,2-4,7-11,14H2,1H3,(H,28,34)/t16-/m0/s1

>  <InChIKey>
PVTLJXXAPWJMAT-INIZCTEOSA-N

>  <SMILES>
CN1CCN(CC1)C(=O)[C@H](CNC(=O)c2ccc(s2)Cl)NS(=O)(=O)c3cc(cc(c3Cl)N4CCCCC4=O)F

$$$$
