4CEB_ZSV_B_1215


 46 49  0  0  0  0  0  0  0  0999 V2000
   11.4767   34.4470   -0.0811 N   0  0  0  0  0  0  0  0  0  0  0  0
   12.0220   33.7125   -0.5323 H   0  0  0  0  0  0  0  0  0  0  0  0
   11.6830   35.7376   -0.8151 C   0  0  0  0  0  0  0  0  0  0  0  0
   11.9192   35.2939   -5.0242 C   0  0  0  0  0  0  0  0  0  0  0  0
   12.9096   34.7883   -4.2137 C   0  0  0  0  0  0  0  0  0  0  0  0
   10.8239   35.9504   -4.4841 C   0  0  0  0  0  0  0  0  0  0  0  0
   12.8148   34.9431   -2.8447 C   0  0  0  0  0  0  0  0  0  0  0  0
   10.7356   36.1010   -3.1124 C   0  0  0  0  0  0  0  0  0  0  0  0
   11.7316   35.5970   -2.2972 C   0  0  0  0  0  0  0  0  0  0  0  0
    9.5616   36.8092   -2.5624 C   0  0  0  0  0  0  0  0  0  0  0  0
    8.4538   36.0251   -2.3860 N   0  0  0  0  0  0  0  0  0  0  0  0
    9.6089   38.0020   -2.2982 O   0  0  0  0  0  0  0  0  0  0  0  0
    8.4726   35.1029   -2.7302 H   0  0  0  0  0  0  0  0  0  0  0  0
    7.2590   36.4860   -1.7192 C   0  0  0  0  0  0  0  0  0  0  0  0
    6.7751   35.9757    0.6647 C   0  0  0  0  0  0  0  0  0  0  0  0
    6.5131   34.2205   -0.9258 C   0  0  0  0  0  0  0  0  0  0  0  0
    6.3890   35.1111    1.6623 C   0  0  0  0  0  0  0  0  0  0  0  0
    6.1291   33.3378    0.0723 C   0  0  0  0  0  0  0  0  0  0  0  0
    6.8416   35.5336   -0.6356 C   0  0  0  0  0  0  0  0  0  0  0  0
    6.0658   33.8023    1.3702 C   0  0  0  0  0  0  0  0  0  0  0  0
    5.7483   31.6143    2.1768 C   0  0  0  0  0  0  0  0  0  0  0  0
    5.6928   33.0161    2.4509 O   0  0  0  0  0  0  0  0  0  0  0  0
   10.1262   33.7362   -0.2576 C   0  0  0  0  0  0  0  0  0  0  0  0
    9.3442   32.7290    1.8621 C   0  0  0  0  0  0  0  0  0  0  0  0
    9.3147   31.7145    2.8055 C   0  0  0  0  0  0  0  0  0  0  0  0
   10.8541   31.4436    0.5154 C   0  0  0  0  0  0  0  0  0  0  0  0
   10.1113   32.5974    0.7150 C   0  0  0  0  0  0  0  0  0  0  0  0
   10.0683   30.5820    2.6257 C   0  0  0  0  0  0  0  0  0  0  0  0
   10.8221   30.4335    1.4728 C   0  0  0  0  0  0  0  0  0  0  0  0
   11.3881   28.2563    2.1799 C   0  0  0  0  0  0  0  0  0  0  0  0
   11.1700   28.7901    3.5750 C   0  0  0  0  0  0  0  0  0  0  0  0
   11.6119   29.3106    1.2470 O   0  0  0  0  0  0  0  0  0  0  0  0
   10.0052   29.6113    3.6185 O   0  0  0  0  0  0  0  0  0  0  0  0
   11.6631   31.2537   -0.7333 C   0  0  0  0  0  0  0  0  0  0  0  0
   11.2378   30.3514   -1.5200 O   0  0  0  0  0  0  0  0  0  0  0  0
   12.6100   32.0292   -1.0045 O   0  0  0  0  0  0  0  0  0  0  0  0
   10.5250   29.8014   -1.2604 H   0  0  0  0  0  0  0  0  0  0  0  0
   10.9897   27.5848    4.4801 C   0  0  0  0  0  0  0  0  0  0  0  0
   11.9842   27.5806    5.6177 C   0  0  0  0  0  0  0  0  0  0  0  0
   11.8068   28.9026    6.3454 C   0  0  0  0  0  0  0  0  0  0  0  0
   10.6017   29.1822    6.5927 O   0  0  0  0  0  0  0  0  0  0  0  0
   12.8440   29.5574    6.6435 O   0  0  0  0  0  0  0  0  0  0  0  0
    9.9196   28.6040    6.3125 H   0  0  0  0  0  0  0  0  0  0  0  0
   12.0054   34.6390    1.3162 C   0  0  0  0  0  0  0  0  0  0  0  0
   12.3187   36.6994    2.7138 C   0  0  0  0  0  0  0  0  0  0  0  0
   11.5454   35.9101    1.9595 C   0  0  0  0  0  0  0  0  0  0  0  0
  4  5  1  0  0  0
  4  6  2  0  0  0
  5  7  2  0  0  0
  6  8  1  0  0  0
  7  9  1  0  0  0
 24 25  1  0  0  0
 24 27  2  0  0  0
 15 17  1  0  0  0
 15 19  2  0  0  0
 16 18  2  0  0  0
 16 19  1  0  0  0
 25 28  2  0  0  0
 17 20  2  0  0  0
 18 20  1  0  0  0
  8  9  2  0  0  0
  8 10  1  0  0  0
 26 27  1  0  0  0
 26 29  2  0  0  0
 26 34  1  0  0  0
 19 14  1  0  0  0
  9  3  1  0  0  0
 27 23  1  0  0  0
 28 29  1  0  0  0
 28 33  1  0  0  0
 29 32  1  0  0  0
 20 22  1  0  0  0
 45 46  2  0  0  0
 46 44  1  0  0  0
 10 11  1  0  0  0
 10 12  2  0  0  0
 34 35  1  0  0  0
 34 36  2  0  0  0
 40 39  1  0  0  0
 40 41  1  0  0  0
 40 42  2  0  0  0
 30 31  1  0  0  0
 30 32  1  0  0  0
 31 38  1  0  0  0
 31 33  1  0  0  0
 21 22  1  0  0  0
 14 11  1  0  0  0
  3  1  1  0  0  0
 23  1  1  0  0  0
 44  1  1  0  0  0
 39 38  1  0  0  0
 11 13  1  0  0  0
  1  2  1  0  0  0
 35 37  1  0  0  0
 41 43  1  0  0  0
M  CHG 1   1   1
M  END
> <minimizedAffinity>
-8.26990

$$$$
4CEB_ZSV_B_1215


 46 49  0  0  0  0  0  0  0  0999 V2000
    8.5589   34.3969   -0.1223 N   0  0  0  0  0  0  0  0  0  0  0  0
    8.3456   33.4132    0.0432 H   0  0  0  0  0  0  0  0  0  0  0  0
    7.3478   35.2242    0.1875 C   0  0  0  0  0  0  0  0  0  0  0  0
    3.8339   32.9152    0.7263 C   0  0  0  0  0  0  0  0  0  0  0  0
    4.9614   32.6518    1.4698 C   0  0  0  0  0  0  0  0  0  0  0  0
    3.8202   33.9414   -0.2060 C   0  0  0  0  0  0  0  0  0  0  0  0
    6.0965   33.4150    1.2795 C   0  0  0  0  0  0  0  0  0  0  0  0
    4.9603   34.7017   -0.3904 C   0  0  0  0  0  0  0  0  0  0  0  0
    6.0949   34.4358    0.3529 C   0  0  0  0  0  0  0  0  0  0  0  0
    4.9217   35.7853   -1.3937 C   0  0  0  0  0  0  0  0  0  0  0  0
    5.5433   35.4895   -2.5766 N   0  0  0  0  0  0  0  0  0  0  0  0
    4.3712   36.8503   -1.1538 O   0  0  0  0  0  0  0  0  0  0  0  0
    6.0557   34.6512   -2.6401 H   0  0  0  0  0  0  0  0  0  0  0  0
    5.4835   36.3483   -3.7357 C   0  0  0  0  0  0  0  0  0  0  0  0
    7.3731   37.7083   -2.8656 C   0  0  0  0  0  0  0  0  0  0  0  0
    7.3913   37.1253   -5.1762 C   0  0  0  0  0  0  0  0  0  0  0  0
    8.5626   38.3768   -3.0388 C   0  0  0  0  0  0  0  0  0  0  0  0
    8.5869   37.8018   -5.3645 C   0  0  0  0  0  0  0  0  0  0  0  0
    6.7795   37.0805   -3.9352 C   0  0  0  0  0  0  0  0  0  0  0  0
    9.1678   38.4226   -4.2775 C   0  0  0  0  0  0  0  0  0  0  0  0
   11.2506   38.8314   -3.2608 C   0  0  0  0  0  0  0  0  0  0  0  0
   10.3622   39.1258   -4.3412 O   0  0  0  0  0  0  0  0  0  0  0  0
    9.7285   34.4476    0.8725 C   0  0  0  0  0  0  0  0  0  0  0  0
    8.9506   32.9102    2.6475 C   0  0  0  0  0  0  0  0  0  0  0  0
    8.9706   31.7015    3.3246 C   0  0  0  0  0  0  0  0  0  0  0  0
   10.6209   32.0982    1.1320 C   0  0  0  0  0  0  0  0  0  0  0  0
    9.7728   33.1126    1.5499 C   0  0  0  0  0  0  0  0  0  0  0  0
    9.8268   30.7038    2.9316 C   0  0  0  0  0  0  0  0  0  0  0  0
   10.6375   30.8901    1.8237 C   0  0  0  0  0  0  0  0  0  0  0  0
   11.3613   28.6560    2.0364 C   0  0  0  0  0  0  0  0  0  0  0  0
   11.0403   28.8254    3.5017 C   0  0  0  0  0  0  0  0  0  0  0  0
   11.5307   29.9153    1.3904 O   0  0  0  0  0  0  0  0  0  0  0  0
    9.8076   29.5231    3.6649 O   0  0  0  0  0  0  0  0  0  0  0  0
   11.4941   32.2713   -0.0751 C   0  0  0  0  0  0  0  0  0  0  0  0
   11.0729   31.7052   -1.1316 O   0  0  0  0  0  0  0  0  0  0  0  0
   12.4933   33.0274   -0.0370 O   0  0  0  0  0  0  0  0  0  0  0  0
   10.3190   31.1499   -1.0969 H   0  0  0  0  0  0  0  0  0  0  0  0
   10.9284   27.4296    4.0880 C   0  0  0  0  0  0  0  0  0  0  0  0
   11.0346   27.4415    5.5953 C   0  0  0  0  0  0  0  0  0  0  0  0
   12.1597   26.4844    5.9520 C   0  0  0  0  0  0  0  0  0  0  0  0
   12.0423   25.9770    7.1010 O   0  0  0  0  0  0  0  0  0  0  0  0
   13.0563   26.2776    5.0878 O   0  0  0  0  0  0  0  0  0  0  0  0
   11.3216   26.2191    7.6486 H   0  0  0  0  0  0  0  0  0  0  0  0
    8.8591   34.5766   -1.5874 C   0  0  0  0  0  0  0  0  0  0  0  0
   10.9509   35.0675   -2.8834 C   0  0  0  0  0  0  0  0  0  0  0  0
   10.1372   35.3105   -1.8496 C   0  0  0  0  0  0  0  0  0  0  0  0
  4  5  1  0  0  0
  4  6  2  0  0  0
  5  7  2  0  0  0
  6  8  1  0  0  0
  7  9  1  0  0  0
 24 25  1  0  0  0
 24 27  2  0  0  0
 15 17  1  0  0  0
 15 19  2  0  0  0
 16 18  2  0  0  0
 16 19  1  0  0  0
 25 28  2  0  0  0
 17 20  2  0  0  0
 18 20  1  0  0  0
  8  9  2  0  0  0
  8 10  1  0  0  0
 26 27  1  0  0  0
 26 29  2  0  0  0
 26 34  1  0  0  0
 19 14  1  0  0  0
  9  3  1  0  0  0
 27 23  1  0  0  0
 28 29  1  0  0  0
 28 33  1  0  0  0
 29 32  1  0  0  0
 20 22  1  0  0  0
 45 46  2  0  0  0
 46 44  1  0  0  0
 10 11  1  0  0  0
 10 12  2  0  0  0
 34 35  1  0  0  0
 34 36  2  0  0  0
 40 39  1  0  0  0
 40 41  1  0  0  0
 40 42  2  0  0  0
 30 31  1  0  0  0
 30 32  1  0  0  0
 31 38  1  0  0  0
 31 33  1  0  0  0
 21 22  1  0  0  0
 14 11  1  0  0  0
  3  1  1  0  0  0
 23  1  1  0  0  0
 44  1  1  0  0  0
 39 38  1  0  0  0
 11 13  1  0  0  0
  1  2  1  0  0  0
 35 37  1  0  0  0
 41 43  1  0  0  0
M  CHG 1   1   1
M  END
> <minimizedAffinity>
-7.93284

$$$$
4CEB_ZSV_B_1215


 46 49  0  0  0  0  0  0  0  0999 V2000
   10.8035   35.1330    0.3992 N   0  0  0  0  0  0  0  0  0  0  0  0
   11.2758   35.3862   -0.4687 H   0  0  0  0  0  0  0  0  0  0  0  0
   10.0698   36.3278    0.9295 C   0  0  0  0  0  0  0  0  0  0  0  0
   11.0029   39.9645   -1.0384 C   0  0  0  0  0  0  0  0  0  0  0  0
   11.7565   39.5378    0.0309 C   0  0  0  0  0  0  0  0  0  0  0  0
    9.9313   39.2144   -1.4981 C   0  0  0  0  0  0  0  0  0  0  0  0
   11.4365   38.3503    0.6591 C   0  0  0  0  0  0  0  0  0  0  0  0
    9.6174   38.0261   -0.8644 C   0  0  0  0  0  0  0  0  0  0  0  0
   10.3710   37.5981    0.2123 C   0  0  0  0  0  0  0  0  0  0  0  0
    8.4676   37.2485   -1.3698 C   0  0  0  0  0  0  0  0  0  0  0  0
    7.2836   37.5012   -0.7315 N   0  0  0  0  0  0  0  0  0  0  0  0
    8.5979   36.4493   -2.2859 O   0  0  0  0  0  0  0  0  0  0  0  0
    7.2952   38.0765    0.0674 H   0  0  0  0  0  0  0  0  0  0  0  0
    6.0184   36.9643   -1.1739 C   0  0  0  0  0  0  0  0  0  0  0  0
    6.3049   35.4672    0.7892 C   0  0  0  0  0  0  0  0  0  0  0  0
    4.6256   34.9046   -0.8053 C   0  0  0  0  0  0  0  0  0  0  0  0
    5.9610   34.3561    1.5235 C   0  0  0  0  0  0  0  0  0  0  0  0
    4.2746   33.7779   -0.0772 C   0  0  0  0  0  0  0  0  0  0  0  0
    5.6398   35.7460   -0.3814 C   0  0  0  0  0  0  0  0  0  0  0  0
    4.9523   33.5177    1.0965 C   0  0  0  0  0  0  0  0  0  0  0  0
    5.8466   31.6334    2.1866 C   0  0  0  0  0  0  0  0  0  0  0  0
    4.6891   32.4253    1.9103 O   0  0  0  0  0  0  0  0  0  0  0  0
    9.9686   34.0064   -0.2285 C   0  0  0  0  0  0  0  0  0  0  0  0
    9.2508   32.9986    1.9135 C   0  0  0  0  0  0  0  0  0  0  0  0
    9.2511   31.9846    2.8579 C   0  0  0  0  0  0  0  0  0  0  0  0
   10.7246   31.7162    0.5244 C   0  0  0  0  0  0  0  0  0  0  0  0
    9.9848   32.8682    0.7447 C   0  0  0  0  0  0  0  0  0  0  0  0
   10.0022   30.8539    2.6570 C   0  0  0  0  0  0  0  0  0  0  0  0
   10.7228   30.7066    1.4830 C   0  0  0  0  0  0  0  0  0  0  0  0
   11.3146   28.5314    2.1747 C   0  0  0  0  0  0  0  0  0  0  0  0
   11.1355   29.0655    3.5752 C   0  0  0  0  0  0  0  0  0  0  0  0
   11.5087   29.5856    1.2350 O   0  0  0  0  0  0  0  0  0  0  0  0
    9.9703   29.8837    3.6518 O   0  0  0  0  0  0  0  0  0  0  0  0
   11.4977   31.5276   -0.7469 C   0  0  0  0  0  0  0  0  0  0  0  0
   11.3009   30.4210   -1.3392 O   0  0  0  0  0  0  0  0  0  0  0  0
   12.1827   32.4637   -1.2223 O   0  0  0  0  0  0  0  0  0  0  0  0
   10.7785   29.7582   -0.9322 H   0  0  0  0  0  0  0  0  0  0  0  0
   10.9845   27.8603    4.4858 C   0  0  0  0  0  0  0  0  0  0  0  0
   10.9685   28.2546    5.9444 C   0  0  0  0  0  0  0  0  0  0  0  0
   12.4177   28.4798    6.3420 C   0  0  0  0  0  0  0  0  0  0  0  0
   12.7307   29.6987    6.4311 O   0  0  0  0  0  0  0  0  0  0  0  0
   13.1353   27.4647    6.5611 O   0  0  0  0  0  0  0  0  0  0  0  0
   12.0961   30.3606    6.2383 H   0  0  0  0  0  0  0  0  0  0  0  0
   11.8500   34.7639    1.4177 C   0  0  0  0  0  0  0  0  0  0  0  0
   14.2540   34.2242    0.9418 C   0  0  0  0  0  0  0  0  0  0  0  0
   13.2446   35.1010    0.9905 C   0  0  0  0  0  0  0  0  0  0  0  0
  4  5  1  0  0  0
  4  6  2  0  0  0
  5  7  2  0  0  0
  6  8  1  0  0  0
  7  9  1  0  0  0
 24 25  1  0  0  0
 24 27  2  0  0  0
 15 17  1  0  0  0
 15 19  2  0  0  0
 16 18  2  0  0  0
 16 19  1  0  0  0
 25 28  2  0  0  0
 17 20  2  0  0  0
 18 20  1  0  0  0
  8  9  2  0  0  0
  8 10  1  0  0  0
 26 27  1  0  0  0
 26 29  2  0  0  0
 26 34  1  0  0  0
 19 14  1  0  0  0
  9  3  1  0  0  0
 27 23  1  0  0  0
 28 29  1  0  0  0
 28 33  1  0  0  0
 29 32  1  0  0  0
 20 22  1  0  0  0
 45 46  2  0  0  0
 46 44  1  0  0  0
 10 11  1  0  0  0
 10 12  2  0  0  0
 34 35  1  0  0  0
 34 36  2  0  0  0
 40 39  1  0  0  0
 40 41  1  0  0  0
 40 42  2  0  0  0
 30 31  1  0  0  0
 30 32  1  0  0  0
 31 38  1  0  0  0
 31 33  1  0  0  0
 21 22  1  0  0  0
 14 11  1  0  0  0
  3  1  1  0  0  0
 23  1  1  0  0  0
 44  1  1  0  0  0
 39 38  1  0  0  0
 11 13  1  0  0  0
  1  2  1  0  0  0
 35 37  1  0  0  0
 41 43  1  0  0  0
M  CHG 1   1   1
M  END
> <minimizedAffinity>
-7.84180

$$$$
4CEB_ZSV_B_1215


 46 49  0  0  0  0  0  0  0  0999 V2000
    9.1057   34.1923    0.7873 N   0  0  0  0  0  0  0  0  0  0  0  0
    9.1062   34.7298   -0.0795 H   0  0  0  0  0  0  0  0  0  0  0  0
    7.9204   34.5895    1.6146 C   0  0  0  0  0  0  0  0  0  0  0  0
    4.1759   34.1397   -0.3209 C   0  0  0  0  0  0  0  0  0  0  0  0
    4.4806   33.3875    0.7903 C   0  0  0  0  0  0  0  0  0  0  0  0
    5.0799   35.0620   -0.8254 C   0  0  0  0  0  0  0  0  0  0  0  0
    5.7059   33.5483    1.4067 C   0  0  0  0  0  0  0  0  0  0  0  0
    6.3045   35.2179   -0.2023 C   0  0  0  0  0  0  0  0  0  0  0  0
    6.6135   34.4603    0.9117 C   0  0  0  0  0  0  0  0  0  0  0  0
    7.2521   36.2030   -0.7628 C   0  0  0  0  0  0  0  0  0  0  0  0
    7.9552   35.7624   -1.8512 N   0  0  0  0  0  0  0  0  0  0  0  0
    7.3753   37.3144   -0.2684 O   0  0  0  0  0  0  0  0  0  0  0  0
    7.8726   34.8164   -2.1111 H   0  0  0  0  0  0  0  0  0  0  0  0
    8.8122   36.6189   -2.6364 C   0  0  0  0  0  0  0  0  0  0  0  0
   11.1565   37.3121   -2.1875 C   0  0  0  0  0  0  0  0  0  0  0  0
   10.7060   34.9822   -2.4057 C   0  0  0  0  0  0  0  0  0  0  0  0
   12.4836   37.0216   -1.9725 C   0  0  0  0  0  0  0  0  0  0  0  0
   12.0425   34.6774   -2.1969 C   0  0  0  0  0  0  0  0  0  0  0  0
   10.2604   36.2928   -2.4079 C   0  0  0  0  0  0  0  0  0  0  0  0
   12.9250   35.7148   -1.9745 C   0  0  0  0  0  0  0  0  0  0  0  0
   14.8209   36.4378   -0.7821 C   0  0  0  0  0  0  0  0  0  0  0  0
   14.2824   35.5348   -1.7506 O   0  0  0  0  0  0  0  0  0  0  0  0
    9.0620   32.8224    0.0934 C   0  0  0  0  0  0  0  0  0  0  0  0
    8.6356   31.6244    2.2153 C   0  0  0  0  0  0  0  0  0  0  0  0
    8.9745   30.7166    3.2057 C   0  0  0  0  0  0  0  0  0  0  0  0
   10.6412   31.0816    1.0201 C   0  0  0  0  0  0  0  0  0  0  0  0
    9.4650   31.8092    1.1201 C   0  0  0  0  0  0  0  0  0  0  0  0
   10.1500   30.0132    3.1250 C   0  0  0  0  0  0  0  0  0  0  0  0
   10.9751   30.1769    2.0242 C   0  0  0  0  0  0  0  0  0  0  0  0
   12.3638   28.4693    2.8705 C   0  0  0  0  0  0  0  0  0  0  0  0
   11.8400   28.8888    4.2227 C   0  0  0  0  0  0  0  0  0  0  0  0
   12.1823   29.4966    1.8991 O   0  0  0  0  0  0  0  0  0  0  0  0
   10.4364   29.1316    4.1607 O   0  0  0  0  0  0  0  0  0  0  0  0
   11.5406   31.2294   -0.1711 C   0  0  0  0  0  0  0  0  0  0  0  0
   12.5485   31.9829    0.0038 O   0  0  0  0  0  0  0  0  0  0  0  0
   11.3473   30.5480   -1.2054 O   0  0  0  0  0  0  0  0  0  0  0  0
   12.6379   32.4685    0.8001 H   0  0  0  0  0  0  0  0  0  0  0  0
   12.1271   27.7430    5.1764 C   0  0  0  0  0  0  0  0  0  0  0  0
   10.8640   27.0245    5.5903 C   0  0  0  0  0  0  0  0  0  0  0  0
   11.2959   25.9002    6.5168 C   0  0  0  0  0  0  0  0  0  0  0  0
   12.4282   26.0877    7.0404 O   0  0  0  0  0  0  0  0  0  0  0  0
   10.5000   24.9352    6.6867 O   0  0  0  0  0  0  0  0  0  0  0  0
   12.9221   26.8547    6.8265 H   0  0  0  0  0  0  0  0  0  0  0  0
   10.3392   34.5567    1.5714 C   0  0  0  0  0  0  0  0  0  0  0  0
   11.9956   36.4365    1.7088 C   0  0  0  0  0  0  0  0  0  0  0  0
   10.7997   35.9623    1.3413 C   0  0  0  0  0  0  0  0  0  0  0  0
  4  5  1  0  0  0
  4  6  2  0  0  0
  5  7  2  0  0  0
  6  8  1  0  0  0
  7  9  1  0  0  0
 24 25  1  0  0  0
 24 27  2  0  0  0
 15 17  1  0  0  0
 15 19  2  0  0  0
 16 18  2  0  0  0
 16 19  1  0  0  0
 25 28  2  0  0  0
 17 20  2  0  0  0
 18 20  1  0  0  0
  8  9  2  0  0  0
  8 10  1  0  0  0
 26 27  1  0  0  0
 26 29  2  0  0  0
 26 34  1  0  0  0
 19 14  1  0  0  0
  9  3  1  0  0  0
 27 23  1  0  0  0
 28 29  1  0  0  0
 28 33  1  0  0  0
 29 32  1  0  0  0
 20 22  1  0  0  0
 45 46  2  0  0  0
 46 44  1  0  0  0
 10 11  1  0  0  0
 10 12  2  0  0  0
 34 35  1  0  0  0
 34 36  2  0  0  0
 40 39  1  0  0  0
 40 41  1  0  0  0
 40 42  2  0  0  0
 30 31  1  0  0  0
 30 32  1  0  0  0
 31 38  1  0  0  0
 31 33  1  0  0  0
 21 22  1  0  0  0
 14 11  1  0  0  0
  3  1  1  0  0  0
 23  1  1  0  0  0
 44  1  1  0  0  0
 39 38  1  0  0  0
 11 13  1  0  0  0
  1  2  1  0  0  0
 35 37  1  0  0  0
 41 43  1  0  0  0
M  CHG 1   1   1
M  END
> <minimizedAffinity>
-7.52209

$$$$
4CEB_ZSV_B_1215


 46 49  0  0  0  0  0  0  0  0999 V2000
    7.6828   34.0855    0.3492 N   0  0  0  0  0  0  0  0  0  0  0  0
    7.6284   33.6204    1.2554 H   0  0  0  0  0  0  0  0  0  0  0  0
    7.5031   35.5615    0.5397 C   0  0  0  0  0  0  0  0  0  0  0  0
    5.2763   37.4432   -2.5376 C   0  0  0  0  0  0  0  0  0  0  0  0
    4.6377   36.9126   -1.4404 C   0  0  0  0  0  0  0  0  0  0  0  0
    6.6562   37.3805   -2.6570 C   0  0  0  0  0  0  0  0  0  0  0  0
    5.3806   36.3033   -0.4484 C   0  0  0  0  0  0  0  0  0  0  0  0
    7.3934   36.7695   -1.6594 C   0  0  0  0  0  0  0  0  0  0  0  0
    6.7530   36.2327   -0.5584 C   0  0  0  0  0  0  0  0  0  0  0  0
    8.8615   36.7108   -1.8131 C   0  0  0  0  0  0  0  0  0  0  0  0
    9.5409   37.7219   -1.1892 N   0  0  0  0  0  0  0  0  0  0  0  0
    9.3951   35.8173   -2.4547 O   0  0  0  0  0  0  0  0  0  0  0  0
    9.0233   38.4584   -0.7907 H   0  0  0  0  0  0  0  0  0  0  0  0
   10.9807   37.7597   -1.0877 C   0  0  0  0  0  0  0  0  0  0  0  0
   12.0966   38.3275    1.0593 C   0  0  0  0  0  0  0  0  0  0  0  0
   11.1933   36.1354    0.8188 C   0  0  0  0  0  0  0  0  0  0  0  0
   12.5128   38.0021    2.3293 C   0  0  0  0  0  0  0  0  0  0  0  0
   11.6140   35.7936    2.0951 C   0  0  0  0  0  0  0  0  0  0  0  0
   11.4362   37.3940    0.2959 C   0  0  0  0  0  0  0  0  0  0  0  0
   12.2723   36.7460    2.8460 C   0  0  0  0  0  0  0  0  0  0  0  0
   13.6768   37.5060    4.5748 C   0  0  0  0  0  0  0  0  0  0  0  0
   12.7371   36.5231    4.1342 O   0  0  0  0  0  0  0  0  0  0  0  0
    9.0955   33.5769    0.0242 C   0  0  0  0  0  0  0  0  0  0  0  0
    8.5899   32.3413    2.1067 C   0  0  0  0  0  0  0  0  0  0  0  0
    8.8188   31.3268    3.0224 C   0  0  0  0  0  0  0  0  0  0  0  0
   10.3872   31.5286    0.7448 C   0  0  0  0  0  0  0  0  0  0  0  0
    9.3705   32.4453    0.9659 C   0  0  0  0  0  0  0  0  0  0  0  0
    9.8403   30.4329    2.8217 C   0  0  0  0  0  0  0  0  0  0  0  0
   10.6125   30.5172    1.6746 C   0  0  0  0  0  0  0  0  0  0  0  0
   11.7183   28.5405    2.3304 C   0  0  0  0  0  0  0  0  0  0  0  0
   11.3628   28.9594    3.7364 C   0  0  0  0  0  0  0  0  0  0  0  0
   11.6667   29.6432    1.4286 O   0  0  0  0  0  0  0  0  0  0  0  0
   10.0252   29.4505    3.7875 O   0  0  0  0  0  0  0  0  0  0  0  0
   11.2239   31.5900   -0.4985 C   0  0  0  0  0  0  0  0  0  0  0  0
   12.1398   32.4705   -0.4898 O   0  0  0  0  0  0  0  0  0  0  0  0
   11.0803   30.7386   -1.4073 O   0  0  0  0  0  0  0  0  0  0  0  0
   12.1960   33.0811    0.2187 H   0  0  0  0  0  0  0  0  0  0  0  0
   11.4955   27.7228    4.6069 C   0  0  0  0  0  0  0  0  0  0  0  0
   12.5436   27.8996    5.6809 C   0  0  0  0  0  0  0  0  0  0  0  0
   12.1629   29.1555    6.4469 C   0  0  0  0  0  0  0  0  0  0  0  0
   10.9262   29.2474    6.6781 O   0  0  0  0  0  0  0  0  0  0  0  0
   13.0882   29.9438    6.7874 O   0  0  0  0  0  0  0  0  0  0  0  0
   10.3406   28.5861    6.3654 H   0  0  0  0  0  0  0  0  0  0  0  0
    6.5367   33.6026   -0.5007 C   0  0  0  0  0  0  0  0  0  0  0  0
    4.4799   32.9954    0.8021 C   0  0  0  0  0  0  0  0  0  0  0  0
    5.6276   32.6480    0.2088 C   0  0  0  0  0  0  0  0  0  0  0  0
  4  5  1  0  0  0
  4  6  2  0  0  0
  5  7  2  0  0  0
  6  8  1  0  0  0
  7  9  1  0  0  0
 24 25  1  0  0  0
 24 27  2  0  0  0
 15 17  1  0  0  0
 15 19  2  0  0  0
 16 18  2  0  0  0
 16 19  1  0  0  0
 25 28  2  0  0  0
 17 20  2  0  0  0
 18 20  1  0  0  0
  8  9  2  0  0  0
  8 10  1  0  0  0
 26 27  1  0  0  0
 26 29  2  0  0  0
 26 34  1  0  0  0
 19 14  1  0  0  0
  9  3  1  0  0  0
 27 23  1  0  0  0
 28 29  1  0  0  0
 28 33  1  0  0  0
 29 32  1  0  0  0
 20 22  1  0  0  0
 45 46  2  0  0  0
 46 44  1  0  0  0
 10 11  1  0  0  0
 10 12  2  0  0  0
 34 35  1  0  0  0
 34 36  2  0  0  0
 40 39  1  0  0  0
 40 41  1  0  0  0
 40 42  2  0  0  0
 30 31  1  0  0  0
 30 32  1  0  0  0
 31 38  1  0  0  0
 31 33  1  0  0  0
 21 22  1  0  0  0
 14 11  1  0  0  0
  3  1  1  0  0  0
 23  1  1  0  0  0
 44  1  1  0  0  0
 39 38  1  0  0  0
 11 13  1  0  0  0
  1  2  1  0  0  0
 35 37  1  0  0  0
 41 43  1  0  0  0
M  CHG 1   1   1
M  END
> <minimizedAffinity>
-7.50022

$$$$
4CEB_ZSV_B_1215


 46 49  0  0  0  0  0  0  0  0999 V2000
    6.6106   34.3159    0.4428 N   0  0  0  0  0  0  0  0  0  0  0  0
    5.9480   34.9779    0.8467 H   0  0  0  0  0  0  0  0  0  0  0  0
    6.8643   34.6816   -0.9886 C   0  0  0  0  0  0  0  0  0  0  0  0
    5.2763   38.4443   -2.1242 C   0  0  0  0  0  0  0  0  0  0  0  0
    4.4648   37.3345   -2.0661 C   0  0  0  0  0  0  0  0  0  0  0  0
    6.6233   38.3581   -1.8073 C   0  0  0  0  0  0  0  0  0  0  0  0
    5.0009   36.1174   -1.6942 C   0  0  0  0  0  0  0  0  0  0  0  0
    7.1527   37.1361   -1.4351 C   0  0  0  0  0  0  0  0  0  0  0  0
    6.3397   36.0196   -1.3800 C   0  0  0  0  0  0  0  0  0  0  0  0
    8.5918   37.0697   -1.1079 C   0  0  0  0  0  0  0  0  0  0  0  0
    9.3889   36.6290   -2.1295 N   0  0  0  0  0  0  0  0  0  0  0  0
    9.0045   37.3887   -0.0022 O   0  0  0  0  0  0  0  0  0  0  0  0
    8.9583   36.2886   -2.9467 H   0  0  0  0  0  0  0  0  0  0  0  0
   10.8313   36.6397   -2.0656 C   0  0  0  0  0  0  0  0  0  0  0  0
   10.8185   36.1062   -4.4931 C   0  0  0  0  0  0  0  0  0  0  0  0
   12.5987   35.2345   -3.1702 C   0  0  0  0  0  0  0  0  0  0  0  0
   11.3649   35.5028   -5.6018 C   0  0  0  0  0  0  0  0  0  0  0  0
   13.1552   34.6160   -4.2795 C   0  0  0  0  0  0  0  0  0  0  0  0
   11.4320   35.9729   -3.2699 C   0  0  0  0  0  0  0  0  0  0  0  0
   12.5256   34.7647   -5.4984 C   0  0  0  0  0  0  0  0  0  0  0  0
   14.3039   33.6504   -6.5637 C   0  0  0  0  0  0  0  0  0  0  0  0
   12.9880   34.1971   -6.6770 O   0  0  0  0  0  0  0  0  0  0  0  0
    7.7248   34.6071    1.4597 C   0  0  0  0  0  0  0  0  0  0  0  0
    7.7076   32.5248    2.7949 C   0  0  0  0  0  0  0  0  0  0  0  0
    8.2419   31.3061    3.1815 C   0  0  0  0  0  0  0  0  0  0  0  0
    9.4997   32.8235    1.2313 C   0  0  0  0  0  0  0  0  0  0  0  0
    8.3322   33.2862    1.8193 C   0  0  0  0  0  0  0  0  0  0  0  0
    9.4111   30.8559    2.6218 C   0  0  0  0  0  0  0  0  0  0  0  0
   10.0311   31.6008    1.6319 C   0  0  0  0  0  0  0  0  0  0  0  0
   11.6035   29.8624    1.3745 C   0  0  0  0  0  0  0  0  0  0  0  0
   11.3020   29.5478    2.8198 C   0  0  0  0  0  0  0  0  0  0  0  0
   11.2232   31.1949    1.0403 O   0  0  0  0  0  0  0  0  0  0  0  0
    9.9004   29.6335    3.0671 O   0  0  0  0  0  0  0  0  0  0  0  0
   10.1781   33.6046    0.1453 C   0  0  0  0  0  0  0  0  0  0  0  0
   11.1600   34.3160    0.5248 O   0  0  0  0  0  0  0  0  0  0  0  0
    9.8506   33.4468   -1.0545 O   0  0  0  0  0  0  0  0  0  0  0  0
   11.3556   34.3957    1.4377 H   0  0  0  0  0  0  0  0  0  0  0  0
   11.7875   28.1312    3.0684 C   0  0  0  0  0  0  0  0  0  0  0  0
   10.8707   27.3773    4.0035 C   0  0  0  0  0  0  0  0  0  0  0  0
   11.6443   27.1844    5.2971 C   0  0  0  0  0  0  0  0  0  0  0  0
   11.2862   27.9685    6.2182 O   0  0  0  0  0  0  0  0  0  0  0  0
   12.5202   26.2762    5.3324 O   0  0  0  0  0  0  0  0  0  0  0  0
   10.6167   28.6042    6.0585 H   0  0  0  0  0  0  0  0  0  0  0  0
    5.9777   32.9490    0.4487 C   0  0  0  0  0  0  0  0  0  0  0  0
    3.4890   33.0612    0.1477 C   0  0  0  0  0  0  0  0  0  0  0  0
    4.5629   32.9479    0.9377 C   0  0  0  0  0  0  0  0  0  0  0  0
  4  5  1  0  0  0
  4  6  2  0  0  0
  5  7  2  0  0  0
  6  8  1  0  0  0
  7  9  1  0  0  0
 24 25  1  0  0  0
 24 27  2  0  0  0
 15 17  1  0  0  0
 15 19  2  0  0  0
 16 18  2  0  0  0
 16 19  1  0  0  0
 25 28  2  0  0  0
 17 20  2  0  0  0
 18 20  1  0  0  0
  8  9  2  0  0  0
  8 10  1  0  0  0
 26 27  1  0  0  0
 26 29  2  0  0  0
 26 34  1  0  0  0
 19 14  1  0  0  0
  9  3  1  0  0  0
 27 23  1  0  0  0
 28 29  1  0  0  0
 28 33  1  0  0  0
 29 32  1  0  0  0
 20 22  1  0  0  0
 45 46  2  0  0  0
 46 44  1  0  0  0
 10 11  1  0  0  0
 10 12  2  0  0  0
 34 35  1  0  0  0
 34 36  2  0  0  0
 40 39  1  0  0  0
 40 41  1  0  0  0
 40 42  2  0  0  0
 30 31  1  0  0  0
 30 32  1  0  0  0
 31 38  1  0  0  0
 31 33  1  0  0  0
 21 22  1  0  0  0
 14 11  1  0  0  0
  3  1  1  0  0  0
 23  1  1  0  0  0
 44  1  1  0  0  0
 39 38  1  0  0  0
 11 13  1  0  0  0
  1  2  1  0  0  0
 35 37  1  0  0  0
 41 43  1  0  0  0
M  CHG 1   1   1
M  END
> <minimizedAffinity>
-7.49570

$$$$
4CEB_ZSV_B_1215


 46 49  0  0  0  0  0  0  0  0999 V2000
    9.0846   34.4272    0.7141 N   0  0  0  0  0  0  0  0  0  0  0  0
    9.4068   34.6625   -0.2246 H   0  0  0  0  0  0  0  0  0  0  0  0
    8.1023   35.4621    1.1736 C   0  0  0  0  0  0  0  0  0  0  0  0
    4.7436   35.9479   -1.3666 C   0  0  0  0  0  0  0  0  0  0  0  0
    4.6165   35.2985   -0.1601 C   0  0  0  0  0  0  0  0  0  0  0  0
    5.9658   36.4614   -1.7729 C   0  0  0  0  0  0  0  0  0  0  0  0
    5.7225   35.1500    0.6534 C   0  0  0  0  0  0  0  0  0  0  0  0
    7.0685   36.3094   -0.9526 C   0  0  0  0  0  0  0  0  0  0  0  0
    6.9432   35.6539    0.2579 C   0  0  0  0  0  0  0  0  0  0  0  0
    8.3603   36.8604   -1.4109 C   0  0  0  0  0  0  0  0  0  0  0  0
    9.0090   36.0943   -2.3411 N   0  0  0  0  0  0  0  0  0  0  0  0
    8.7878   37.9186   -0.9726 O   0  0  0  0  0  0  0  0  0  0  0  0
    8.6446   35.2044   -2.5522 H   0  0  0  0  0  0  0  0  0  0  0  0
   10.2025   36.5290   -3.0276 C   0  0  0  0  0  0  0  0  0  0  0  0
   11.3818   34.5039   -2.1995 C   0  0  0  0  0  0  0  0  0  0  0  0
   12.5921   36.5562   -2.2481 C   0  0  0  0  0  0  0  0  0  0  0  0
   12.4969   33.8738   -1.6980 C   0  0  0  0  0  0  0  0  0  0  0  0
   13.7204   35.9334   -1.7364 C   0  0  0  0  0  0  0  0  0  0  0  0
   11.4231   35.8503   -2.4751 C   0  0  0  0  0  0  0  0  0  0  0  0
   13.6590   34.5809   -1.4695 C   0  0  0  0  0  0  0  0  0  0  0  0
   14.3553   33.0072    0.1361 C   0  0  0  0  0  0  0  0  0  0  0  0
   14.7217   33.8488   -0.9597 O   0  0  0  0  0  0  0  0  0  0  0  0
    8.5335   33.0476    0.3227 C   0  0  0  0  0  0  0  0  0  0  0  0
   10.6039   31.7019    0.1744 C   0  0  0  0  0  0  0  0  0  0  0  0
   11.4907   30.7510    0.6533 C   0  0  0  0  0  0  0  0  0  0  0  0
    9.2249   31.4035    2.1122 C   0  0  0  0  0  0  0  0  0  0  0  0
    9.4705   32.0323    0.9009 C   0  0  0  0  0  0  0  0  0  0  0  0
   11.2390   30.1068    1.8384 C   0  0  0  0  0  0  0  0  0  0  0  0
   10.1193   30.4451    2.5808 C   0  0  0  0  0  0  0  0  0  0  0  0
   10.8588   28.9815    4.2754 C   0  0  0  0  0  0  0  0  0  0  0  0
   11.5458   28.2372    3.1562 C   0  0  0  0  0  0  0  0  0  0  0  0
    9.8125   29.8148    3.7826 O   0  0  0  0  0  0  0  0  0  0  0  0
   12.1609   29.1524    2.2523 O   0  0  0  0  0  0  0  0  0  0  0  0
    8.0287   31.7667    2.9410 C   0  0  0  0  0  0  0  0  0  0  0  0
    8.2884   32.3717    4.0276 O   0  0  0  0  0  0  0  0  0  0  0  0
    6.8687   31.5807    2.5035 O   0  0  0  0  0  0  0  0  0  0  0  0
    9.1776   32.4798    4.3026 H   0  0  0  0  0  0  0  0  0  0  0  0
   12.6006   27.3563    3.8011 C   0  0  0  0  0  0  0  0  0  0  0  0
   13.8733   27.3136    2.9875 C   0  0  0  0  0  0  0  0  0  0  0  0
   14.8656   28.2183    3.6986 C   0  0  0  0  0  0  0  0  0  0  0  0
   14.9290   29.3786    3.2075 O   0  0  0  0  0  0  0  0  0  0  0  0
   15.4892   27.7480    4.6903 O   0  0  0  0  0  0  0  0  0  0  0  0
   14.4072   29.6008    2.4617 H   0  0  0  0  0  0  0  0  0  0  0  0
   10.2645   34.4860    1.6486 C   0  0  0  0  0  0  0  0  0  0  0  0
   12.4384   35.7266    1.8270 C   0  0  0  0  0  0  0  0  0  0  0  0
   11.1786   35.6417    1.3845 C   0  0  0  0  0  0  0  0  0  0  0  0
  4  5  1  0  0  0
  4  6  2  0  0  0
  5  7  2  0  0  0
  6  8  1  0  0  0
  7  9  1  0  0  0
 24 25  1  0  0  0
 24 27  2  0  0  0
 15 17  1  0  0  0
 15 19  2  0  0  0
 16 18  2  0  0  0
 16 19  1  0  0  0
 25 28  2  0  0  0
 17 20  2  0  0  0
 18 20  1  0  0  0
  8  9  2  0  0  0
  8 10  1  0  0  0
 26 27  1  0  0  0
 26 29  2  0  0  0
 26 34  1  0  0  0
 19 14  1  0  0  0
  9  3  1  0  0  0
 27 23  1  0  0  0
 28 29  1  0  0  0
 28 33  1  0  0  0
 29 32  1  0  0  0
 20 22  1  0  0  0
 45 46  2  0  0  0
 46 44  1  0  0  0
 10 11  1  0  0  0
 10 12  2  0  0  0
 34 35  1  0  0  0
 34 36  2  0  0  0
 40 39  1  0  0  0
 40 41  1  0  0  0
 40 42  2  0  0  0
 30 31  1  0  0  0
 30 32  1  0  0  0
 31 38  1  0  0  0
 31 33  1  0  0  0
 21 22  1  0  0  0
 14 11  1  0  0  0
  3  1  1  0  0  0
 23  1  1  0  0  0
 44  1  1  0  0  0
 39 38  1  0  0  0
 11 13  1  0  0  0
  1  2  1  0  0  0
 35 37  1  0  0  0
 41 43  1  0  0  0
M  CHG 1   1   1
M  END
> <minimizedAffinity>
-7.46407

$$$$
4CEB_ZSV_B_1215


 46 49  0  0  0  0  0  0  0  0999 V2000
    9.2083   38.5277    0.0438 N   0  0  0  0  0  0  0  0  0  0  0  0
    9.2996   39.4117   -0.4568 H   0  0  0  0  0  0  0  0  0  0  0  0
    7.9758   37.8171   -0.4286 C   0  0  0  0  0  0  0  0  0  0  0  0
    5.5602   40.2172   -2.9531 C   0  0  0  0  0  0  0  0  0  0  0  0
    6.6383   40.7637   -2.2955 C   0  0  0  0  0  0  0  0  0  0  0  0
    5.2458   38.8743   -2.8106 C   0  0  0  0  0  0  0  0  0  0  0  0
    7.4131   39.9654   -1.4772 C   0  0  0  0  0  0  0  0  0  0  0  0
    6.0268   38.0813   -1.9901 C   0  0  0  0  0  0  0  0  0  0  0  0
    7.1078   38.6296   -1.3259 C   0  0  0  0  0  0  0  0  0  0  0  0
    5.6674   36.6552   -1.8508 C   0  0  0  0  0  0  0  0  0  0  0  0
    4.8749   36.3697   -0.7721 N   0  0  0  0  0  0  0  0  0  0  0  0
    6.0647   35.8215   -2.6520 O   0  0  0  0  0  0  0  0  0  0  0  0
    4.6965   37.0845   -0.1192 H   0  0  0  0  0  0  0  0  0  0  0  0
    4.2880   35.0699   -0.5462 C   0  0  0  0  0  0  0  0  0  0  0  0
    4.5969   33.0988    0.9360 C   0  0  0  0  0  0  0  0  0  0  0  0
    6.3825   34.6697    0.7847 C   0  0  0  0  0  0  0  0  0  0  0  0
    5.3461   32.3522    1.8153 C   0  0  0  0  0  0  0  0  0  0  0  0
    7.1445   33.9291    1.6755 C   0  0  0  0  0  0  0  0  0  0  0  0
    5.1110   34.2639    0.4175 C   0  0  0  0  0  0  0  0  0  0  0  0
    6.6114   32.7613    2.1819 C   0  0  0  0  0  0  0  0  0  0  0  0
    8.4132   32.5585    3.6824 C   0  0  0  0  0  0  0  0  0  0  0  0
    7.2780   31.9361    3.0762 O   0  0  0  0  0  0  0  0  0  0  0  0
   10.5671   37.9758   -0.4139 C   0  0  0  0  0  0  0  0  0  0  0  0
   10.7595   36.2998    1.3953 C   0  0  0  0  0  0  0  0  0  0  0  0
   10.8412   34.9983    1.8638 C   0  0  0  0  0  0  0  0  0  0  0  0
   10.5735   35.4876   -0.8523 C   0  0  0  0  0  0  0  0  0  0  0  0
   10.6242   36.5493    0.0384 C   0  0  0  0  0  0  0  0  0  0  0  0
   10.8181   33.9451    0.9846 C   0  0  0  0  0  0  0  0  0  0  0  0
   10.6630   34.1843   -0.3712 C   0  0  0  0  0  0  0  0  0  0  0  0
   10.5636   31.8547   -0.7228 C   0  0  0  0  0  0  0  0  0  0  0  0
   11.3993   31.7583    0.5306 C   0  0  0  0  0  0  0  0  0  0  0  0
   10.6445   33.1533   -1.3052 O   0  0  0  0  0  0  0  0  0  0  0  0
   10.9210   32.6666    1.5202 O   0  0  0  0  0  0  0  0  0  0  0  0
   10.3881   35.7224   -2.3220 C   0  0  0  0  0  0  0  0  0  0  0  0
    9.1869   35.6613   -2.7311 O   0  0  0  0  0  0  0  0  0  0  0  0
   11.3549   36.0715   -3.0396 O   0  0  0  0  0  0  0  0  0  0  0  0
    8.5059   35.3927   -2.1463 H   0  0  0  0  0  0  0  0  0  0  0  0
   11.2719   30.3308    1.0311 C   0  0  0  0  0  0  0  0  0  0  0  0
   10.4817   30.2529    2.3167 C   0  0  0  0  0  0  0  0  0  0  0  0
   10.8070   28.9046    2.9373 C   0  0  0  0  0  0  0  0  0  0  0  0
   10.8390   27.9610    2.1006 O   0  0  0  0  0  0  0  0  0  0  0  0
   11.0302   28.8636    4.1791 O   0  0  0  0  0  0  0  0  0  0  0  0
   10.6509   28.1286    1.1981 H   0  0  0  0  0  0  0  0  0  0  0  0
    9.0162   38.8294    1.5070 C   0  0  0  0  0  0  0  0  0  0  0  0
   10.0894   40.8885    2.4582 C   0  0  0  0  0  0  0  0  0  0  0  0
    9.0720   40.2906    1.8279 C   0  0  0  0  0  0  0  0  0  0  0  0
  4  5  1  0  0  0
  4  6  2  0  0  0
  5  7  2  0  0  0
  6  8  1  0  0  0
  7  9  1  0  0  0
 24 25  1  0  0  0
 24 27  2  0  0  0
 15 17  1  0  0  0
 15 19  2  0  0  0
 16 18  2  0  0  0
 16 19  1  0  0  0
 25 28  2  0  0  0
 17 20  2  0  0  0
 18 20  1  0  0  0
  8  9  2  0  0  0
  8 10  1  0  0  0
 26 27  1  0  0  0
 26 29  2  0  0  0
 26 34  1  0  0  0
 19 14  1  0  0  0
  9  3  1  0  0  0
 27 23  1  0  0  0
 28 29  1  0  0  0
 28 33  1  0  0  0
 29 32  1  0  0  0
 20 22  1  0  0  0
 45 46  2  0  0  0
 46 44  1  0  0  0
 10 11  1  0  0  0
 10 12  2  0  0  0
 34 35  1  0  0  0
 34 36  2  0  0  0
 40 39  1  0  0  0
 40 41  1  0  0  0
 40 42  2  0  0  0
 30 31  1  0  0  0
 30 32  1  0  0  0
 31 38  1  0  0  0
 31 33  1  0  0  0
 21 22  1  0  0  0
 14 11  1  0  0  0
  3  1  1  0  0  0
 23  1  1  0  0  0
 44  1  1  0  0  0
 39 38  1  0  0  0
 11 13  1  0  0  0
  1  2  1  0  0  0
 35 37  1  0  0  0
 41 43  1  0  0  0
M  CHG 1   1   1
M  END
> <minimizedAffinity>
-7.33536

$$$$
4CEB_ZSV_B_1215


 46 49  0  0  0  0  0  0  0  0999 V2000
   10.2171   37.8601   -1.5142 N   0  0  0  0  0  0  0  0  0  0  0  0
   10.6688   38.2001   -2.3632 H   0  0  0  0  0  0  0  0  0  0  0  0
    9.0403   37.0096   -1.8871 C   0  0  0  0  0  0  0  0  0  0  0  0
    7.8640   37.4654   -5.9340 C   0  0  0  0  0  0  0  0  0  0  0  0
    9.1749   37.1938   -5.6160 C   0  0  0  0  0  0  0  0  0  0  0  0
    6.9022   37.5884   -4.9429 C   0  0  0  0  0  0  0  0  0  0  0  0
    9.5386   37.0490   -4.2916 C   0  0  0  0  0  0  0  0  0  0  0  0
    7.2738   37.4414   -3.6192 C   0  0  0  0  0  0  0  0  0  0  0  0
    8.5910   37.1724   -3.2979 C   0  0  0  0  0  0  0  0  0  0  0  0
    6.2314   37.5828   -2.5820 C   0  0  0  0  0  0  0  0  0  0  0  0
    5.5189   36.4417   -2.3305 N   0  0  0  0  0  0  0  0  0  0  0  0
    6.0449   38.6492   -2.0139 O   0  0  0  0  0  0  0  0  0  0  0  0
    5.6621   35.6615   -2.9136 H   0  0  0  0  0  0  0  0  0  0  0  0
    4.5670   36.3277   -1.2509 C   0  0  0  0  0  0  0  0  0  0  0  0
    4.5552   34.0988   -0.1512 C   0  0  0  0  0  0  0  0  0  0  0  0
    6.0112   35.7675    0.7288 C   0  0  0  0  0  0  0  0  0  0  0  0
    5.0018   33.2216    0.8096 C   0  0  0  0  0  0  0  0  0  0  0  0
    6.4641   34.8944    1.7062 C   0  0  0  0  0  0  0  0  0  0  0  0
    5.0564   35.3783   -0.1950 C   0  0  0  0  0  0  0  0  0  0  0  0
    5.9506   33.6137    1.7308 C   0  0  0  0  0  0  0  0  0  0  0  0
    6.1357   31.3135    2.1931 C   0  0  0  0  0  0  0  0  0  0  0  0
    6.3276   32.6519    2.6570 O   0  0  0  0  0  0  0  0  0  0  0  0
   11.4672   37.1479   -0.9755 C   0  0  0  0  0  0  0  0  0  0  0  0
   10.3481   36.1210    0.9771 C   0  0  0  0  0  0  0  0  0  0  0  0
    9.9048   35.0313    1.7092 C   0  0  0  0  0  0  0  0  0  0  0  0
   11.1816   34.6504   -0.7224 C   0  0  0  0  0  0  0  0  0  0  0  0
   10.9857   35.9355   -0.2398 C   0  0  0  0  0  0  0  0  0  0  0  0
   10.1195   33.7565    1.2489 C   0  0  0  0  0  0  0  0  0  0  0  0
   10.7379   33.5625    0.0245 C   0  0  0  0  0  0  0  0  0  0  0  0
   10.3526   31.2471    0.2499 C   0  0  0  0  0  0  0  0  0  0  0  0
   10.3826   31.5159    1.7350 C   0  0  0  0  0  0  0  0  0  0  0  0
   10.9892   32.2914   -0.4824 O   0  0  0  0  0  0  0  0  0  0  0  0
    9.6640   32.7089    2.0407 O   0  0  0  0  0  0  0  0  0  0  0  0
   11.8327   34.4175   -2.0534 C   0  0  0  0  0  0  0  0  0  0  0  0
   11.0310   34.2658   -3.0273 O   0  0  0  0  0  0  0  0  0  0  0  0
   13.0777   34.4959   -2.1775 O   0  0  0  0  0  0  0  0  0  0  0  0
   10.1086   34.2139   -2.8710 H   0  0  0  0  0  0  0  0  0  0  0  0
    9.7227   30.3255    2.4072 C   0  0  0  0  0  0  0  0  0  0  0  0
   10.6173   29.7016    3.4530 C   0  0  0  0  0  0  0  0  0  0  0  0
   11.6812   28.9240    2.6963 C   0  0  0  0  0  0  0  0  0  0  0  0
   12.8530   29.1449    3.1080 O   0  0  0  0  0  0  0  0  0  0  0  0
   11.3029   28.1425    1.7800 O   0  0  0  0  0  0  0  0  0  0  0  0
   12.9979   29.7563    3.8032 H   0  0  0  0  0  0  0  0  0  0  0  0
    9.6867   39.0462   -0.7522 C   0  0  0  0  0  0  0  0  0  0  0  0
    8.5380   41.0026   -1.8245 C   0  0  0  0  0  0  0  0  0  0  0  0
    9.6493   40.3065   -1.5592 C   0  0  0  0  0  0  0  0  0  0  0  0
  4  5  1  0  0  0
  4  6  2  0  0  0
  5  7  2  0  0  0
  6  8  1  0  0  0
  7  9  1  0  0  0
 24 25  1  0  0  0
 24 27  2  0  0  0
 15 17  1  0  0  0
 15 19  2  0  0  0
 16 18  2  0  0  0
 16 19  1  0  0  0
 25 28  2  0  0  0
 17 20  2  0  0  0
 18 20  1  0  0  0
  8  9  2  0  0  0
  8 10  1  0  0  0
 26 27  1  0  0  0
 26 29  2  0  0  0
 26 34  1  0  0  0
 19 14  1  0  0  0
  9  3  1  0  0  0
 27 23  1  0  0  0
 28 29  1  0  0  0
 28 33  1  0  0  0
 29 32  1  0  0  0
 20 22  1  0  0  0
 45 46  2  0  0  0
 46 44  1  0  0  0
 10 11  1  0  0  0
 10 12  2  0  0  0
 34 35  1  0  0  0
 34 36  2  0  0  0
 40 39  1  0  0  0
 40 41  1  0  0  0
 40 42  2  0  0  0
 30 31  1  0  0  0
 30 32  1  0  0  0
 31 38  1  0  0  0
 31 33  1  0  0  0
 21 22  1  0  0  0
 14 11  1  0  0  0
  3  1  1  0  0  0
 23  1  1  0  0  0
 44  1  1  0  0  0
 39 38  1  0  0  0
 11 13  1  0  0  0
  1  2  1  0  0  0
 35 37  1  0  0  0
 41 43  1  0  0  0
M  CHG 1   1   1
M  END
> <minimizedAffinity>
-7.29861

$$$$
4CEB_ZSV_B_1215


 46 49  0  0  0  0  0  0  0  0999 V2000
    8.0476   34.3265    1.1680 N   0  0  0  0  0  0  0  0  0  0  0  0
    8.4676   34.6864    0.3109 H   0  0  0  0  0  0  0  0  0  0  0  0
    9.1337   33.9378    2.1253 C   0  0  0  0  0  0  0  0  0  0  0  0
   13.0477   34.5879    0.6330 C   0  0  0  0  0  0  0  0  0  0  0  0
   12.3183   35.6321    1.1538 C   0  0  0  0  0  0  0  0  0  0  0  0
   12.5236   33.3049    0.5916 C   0  0  0  0  0  0  0  0  0  0  0  0
   11.0448   35.4002    1.6348 C   0  0  0  0  0  0  0  0  0  0  0  0
   11.2480   33.0805    1.0758 C   0  0  0  0  0  0  0  0  0  0  0  0
   10.5127   34.1290    1.5957 C   0  0  0  0  0  0  0  0  0  0  0  0
   10.7106   31.7058    1.0150 C   0  0  0  0  0  0  0  0  0  0  0  0
   10.8224   30.9978    2.1809 N   0  0  0  0  0  0  0  0  0  0  0  0
   10.2134   31.2658   -0.0116 O   0  0  0  0  0  0  0  0  0  0  0  0
   11.3366   31.3928    2.9218 H   0  0  0  0  0  0  0  0  0  0  0  0
   10.2223   29.6992    2.3761 C   0  0  0  0  0  0  0  0  0  0  0  0
   10.6944   29.3277    4.7879 C   0  0  0  0  0  0  0  0  0  0  0  0
   11.7336   27.8729    3.2123 C   0  0  0  0  0  0  0  0  0  0  0  0
   11.3115   28.6418    5.8080 C   0  0  0  0  0  0  0  0  0  0  0  0
   12.3666   27.1781    4.2317 C   0  0  0  0  0  0  0  0  0  0  0  0
   10.9045   28.9479    3.4833 C   0  0  0  0  0  0  0  0  0  0  0  0
   12.1400   27.5734    5.5343 C   0  0  0  0  0  0  0  0  0  0  0  0
   13.4566   25.7805    6.3031 C   0  0  0  0  0  0  0  0  0  0  0  0
   12.7132   26.9551    6.6362 O   0  0  0  0  0  0  0  0  0  0  0  0
    7.2542   35.6061    1.4737 C   0  0  0  0  0  0  0  0  0  0  0  0
    5.2991   35.7079   -0.0384 C   0  0  0  0  0  0  0  0  0  0  0  0
    4.6780   36.0639   -1.2248 C   0  0  0  0  0  0  0  0  0  0  0  0
    7.3344   36.7282   -0.7885 C   0  0  0  0  0  0  0  0  0  0  0  0
    6.6266   36.0391    0.1847 C   0  0  0  0  0  0  0  0  0  0  0  0
    5.3810   36.7226   -2.2019 C   0  0  0  0  0  0  0  0  0  0  0  0
    6.7022   37.0752   -1.9794 C   0  0  0  0  0  0  0  0  0  0  0  0
    6.7001   38.2049   -4.0491 C   0  0  0  0  0  0  0  0  0  0  0  0
    5.6280   37.2177   -4.4424 C   0  0  0  0  0  0  0  0  0  0  0  0
    7.4625   37.7334   -2.9409 O   0  0  0  0  0  0  0  0  0  0  0  0
    4.7019   37.0349   -3.3738 O   0  0  0  0  0  0  0  0  0  0  0  0
    8.7599   37.1357   -0.5620 C   0  0  0  0  0  0  0  0  0  0  0  0
    9.6227   36.4640   -1.2089 O   0  0  0  0  0  0  0  0  0  0  0  0
    9.0330   38.1476    0.1259 O   0  0  0  0  0  0  0  0  0  0  0  0
    9.3571   35.7155   -1.7061 H   0  0  0  0  0  0  0  0  0  0  0  0
    4.9182   37.8024   -5.6502 C   0  0  0  0  0  0  0  0  0  0  0  0
    5.7615   38.8426   -6.3503 C   0  0  0  0  0  0  0  0  0  0  0  0
    6.2193   38.2138   -7.6557 C   0  0  0  0  0  0  0  0  0  0  0  0
    7.2747   37.5321   -7.5420 O   0  0  0  0  0  0  0  0  0  0  0  0
    5.5130   38.4058   -8.6842 O   0  0  0  0  0  0  0  0  0  0  0  0
    7.7058   37.4709   -6.7124 H   0  0  0  0  0  0  0  0  0  0  0  0
    7.2812   33.0745    0.8305 C   0  0  0  0  0  0  0  0  0  0  0  0
    5.6873   31.8044    2.2944 C   0  0  0  0  0  0  0  0  0  0  0  0
    6.9190   32.2544    2.0294 C   0  0  0  0  0  0  0  0  0  0  0  0
  4  5  1  0  0  0
  4  6  2  0  0  0
  5  7  2  0  0  0
  6  8  1  0  0  0
  7  9  1  0  0  0
 24 25  1  0  0  0
 24 27  2  0  0  0
 15 17  1  0  0  0
 15 19  2  0  0  0
 16 18  2  0  0  0
 16 19  1  0  0  0
 25 28  2  0  0  0
 17 20  2  0  0  0
 18 20  1  0  0  0
  8  9  2  0  0  0
  8 10  1  0  0  0
 26 27  1  0  0  0
 26 29  2  0  0  0
 26 34  1  0  0  0
 19 14  1  0  0  0
  9  3  1  0  0  0
 27 23  1  0  0  0
 28 29  1  0  0  0
 28 33  1  0  0  0
 29 32  1  0  0  0
 20 22  1  0  0  0
 45 46  2  0  0  0
 46 44  1  0  0  0
 10 11  1  0  0  0
 10 12  2  0  0  0
 34 35  1  0  0  0
 34 36  2  0  0  0
 40 39  1  0  0  0
 40 41  1  0  0  0
 40 42  2  0  0  0
 30 31  1  0  0  0
 30 32  1  0  0  0
 31 38  1  0  0  0
 31 33  1  0  0  0
 21 22  1  0  0  0
 14 11  1  0  0  0
  3  1  1  0  0  0
 23  1  1  0  0  0
 44  1  1  0  0  0
 39 38  1  0  0  0
 11 13  1  0  0  0
  1  2  1  0  0  0
 35 37  1  0  0  0
 41 43  1  0  0  0
M  CHG 1   1   1
M  END
> <minimizedAffinity>
-7.27169

$$$$
