3VFB_031_A_201


 45 49  0  0  0  0  0  0  0  0999 V2000
   11.5745   21.4113   17.0522 C   0  0  0  0  0  0  0  0  0  0  0  0
   10.9316   22.6026   16.6454 O   0  0  0  0  0  0  0  0  0  0  0  0
   10.1331   22.7376   17.1793 H   0  0  0  0  0  0  0  0  0  0  0  0
   10.6511   20.2189   16.7847 C   0  0  0  0  0  0  0  0  0  0  0  0
   11.1262   19.3784   15.7048 N   0  0  0  0  0  0  0  0  0  0  0  0
   12.5826   18.6326   15.8939 S   0  0  0  0  0  0  0  0  0  0  0  0
   12.6233   17.4005   15.0883 O   0  0  0  0  0  0  0  0  0  0  0  0
   12.8107   18.4377   17.3618 O   0  0  0  0  0  0  0  0  0  0  0  0
   15.6478   21.7370   14.5422 C   0  0  0  0  0  0  0  0  0  0  0  0
   16.0450   20.7347   15.4252 C   0  0  0  0  0  0  0  0  0  0  0  0
   15.1310   19.7436   15.8060 C   0  0  0  0  0  0  0  0  0  0  0  0
   13.8311   19.7504   15.3304 C   0  0  0  0  0  0  0  0  0  0  0  0
   13.4992   20.6924   14.3901 C   0  0  0  0  0  0  0  0  0  0  0  0
   14.3982   21.6266   13.9356 C   0  0  0  0  0  0  0  0  0  0  0  0
   16.4145   22.7753   14.1125 O   0  0  0  0  0  0  0  0  0  0  0  0
   15.9086   23.5817   13.0702 C   0  0  0  0  0  0  0  0  0  0  0  0
   10.1336   18.6544   14.9869 C   0  0  0  0  0  0  0  0  0  0  0  0
    9.2084   17.8550   15.9087 C   0  0  0  0  0  0  0  0  0  0  0  0
    7.7935   17.7772   15.3784 C   0  0  0  0  0  0  0  0  0  0  0  0
    9.7364   16.4909   15.8422 N   0  0  0  0  0  0  0  0  0  0  0  0
    9.0016   15.7143   15.1302 C   0  0  0  0  0  0  0  0  0  0  0  0
    9.3734   14.5595   14.9677 O   0  0  0  0  0  0  0  0  0  0  0  0
    7.7636   16.4209   14.6441 C   0  0  0  0  0  0  0  0  0  0  0  0
   10.5624   16.2012   16.2928 H   0  0  0  0  0  0  0  0  0  0  0  0
   12.0888   21.5089   18.4858 C   0  0  0  0  0  0  0  0  0  0  0  0
   13.3125   22.2697   18.5544 N   0  0  0  0  0  0  0  0  0  0  0  0
   14.5372   21.8581   18.8845 C   0  0  0  0  0  0  0  0  0  0  0  0
   14.8148   20.7081   19.1669 O   0  0  0  0  0  0  0  0  0  0  0  0
   13.2324   23.2241   18.3261 H   0  0  0  0  0  0  0  0  0  0  0  0
   15.4760   22.8648   18.8756 O   0  0  0  0  0  0  0  0  0  0  0  0
   15.2188   25.2568   18.8143 C   0  0  0  0  0  0  0  0  0  0  0  0
   15.1632   24.0026   19.6740 C   0  0  0  0  0  0  0  0  0  0  0  0
   16.2982   24.2463   20.6801 C   0  0  0  0  0  0  0  0  0  0  0  0
   17.3880   24.9292   19.8827 C   0  0  0  0  0  0  0  0  0  0  0  0
   18.1642   23.9923   19.1298 O   0  0  0  0  0  0  0  0  0  0  0  0
   18.2541   24.3266   17.7658 C   0  0  0  0  0  0  0  0  0  0  0  0
   17.4236   25.6009   17.5692 C   0  0  0  0  0  0  0  0  0  0  0  0
   16.6519   25.7818   18.8908 C   0  0  0  0  0  0  0  0  0  0  0  0
   11.0826   22.0468   19.5124 C   0  0  0  0  0  0  0  0  0  0  0  0
   11.0007   19.6511   20.2852 C   0  0  0  0  0  0  0  0  0  0  0  0
   10.4043   18.6415   21.0429 C   0  0  0  0  0  0  0  0  0  0  0  0
    9.4577   18.9289   22.0222 C   0  0  0  0  0  0  0  0  0  0  0  0
    9.0671   20.2541   22.1799 C   0  0  0  0  0  0  0  0  0  0  0  0
    9.5907   21.2636   21.3792 C   0  0  0  0  0  0  0  0  0  0  0  0
   10.5295   20.9581   20.4151 C   0  0  0  0  0  0  0  0  0  0  0  0
 16 15  1  0  0  0
  9 15  1  0  0  0
 10  9  2  0  0  0
  9 14  1  0  0  0
 11 10  1  0  0  0
 11 12  2  0  0  0
  6 12  1  0  0  0
 12 13  1  0  0  0
 13 14  2  0  0  0
  8  6  2  0  0  0
  5  6  1  0  0  0
  6  7  2  0  0  0
 17  5  1  0  0  0
  5  4  1  0  0  0
 18 17  1  0  0  0
 20 18  1  0  0  0
 19 18  1  0  0  0
 23 19  1  0  0  0
 21 20  1  0  0  0
 22 21  2  0  0  0
 21 23  1  0  0  0
  1  4  1  0  0  0
  1 25  1  0  0  0
  1  2  1  0  0  0
 26 25  1  0  0  0
 25 39  1  0  0  0
 27 26  1  0  0  0
 28 27  2  0  0  0
 30 27  1  0  0  0
 32 30  1  0  0  0
 32 31  1  0  0  0
 31 38  1  0  0  0
 33 32  1  0  0  0
 33 34  1  0  0  0
 34 38  1  0  0  0
 34 35  1  0  0  0
 35 36  1  0  0  0
 37 36  1  0  0  0
 38 37  1  0  0  0
 39 45  1  0  0  0
 45 40  2  0  0  0
 40 41  1  0  0  0
 42 41  2  0  0  0
 43 42  1  0  0  0
 44 43  2  0  0  0
 44 45  1  0  0  0
 20 24  1  0  0  0
  2  3  1  0  0  0
 26 29  1  0  0  0
M  END
> <minimizedAffinity>
-10.73699

$$$$
3VFB_031_A_201


 45 49  0  0  0  0  0  0  0  0999 V2000
   14.1148   19.4447   17.8222 C   0  0  0  0  0  0  0  0  0  0  0  0
   15.1707   18.6307   18.2916 O   0  0  0  0  0  0  0  0  0  0  0  0
   15.6118   18.2073   17.5386 H   0  0  0  0  0  0  0  0  0  0  0  0
   13.0688   18.5686   17.1262 C   0  0  0  0  0  0  0  0  0  0  0  0
   11.7283   19.1058   17.2401 N   0  0  0  0  0  0  0  0  0  0  0  0
   10.9612   19.5600   15.8550 S   0  0  0  0  0  0  0  0  0  0  0  0
   11.9468   20.0317   14.8676 O   0  0  0  0  0  0  0  0  0  0  0  0
    9.9047   20.5569   16.2218 O   0  0  0  0  0  0  0  0  0  0  0  0
    8.9071   15.7373   14.4313 C   0  0  0  0  0  0  0  0  0  0  0  0
    8.1243   16.8393   14.7704 C   0  0  0  0  0  0  0  0  0  0  0  0
    8.7417   18.0362   15.1562 C   0  0  0  0  0  0  0  0  0  0  0  0
   10.1205   18.1398   15.2210 C   0  0  0  0  0  0  0  0  0  0  0  0
   10.8630   17.0702   14.7895 C   0  0  0  0  0  0  0  0  0  0  0  0
   10.2856   15.9122   14.3276 C   0  0  0  0  0  0  0  0  0  0  0  0
    8.4467   14.5090   14.0707 O   0  0  0  0  0  0  0  0  0  0  0  0
    7.0588   14.2702   14.1674 C   0  0  0  0  0  0  0  0  0  0  0  0
   10.9105   18.5466   18.2615 C   0  0  0  0  0  0  0  0  0  0  0  0
   11.1952   19.1522   19.6388 C   0  0  0  0  0  0  0  0  0  0  0  0
   10.6726   20.5665   19.7656 C   0  0  0  0  0  0  0  0  0  0  0  0
   10.3873   18.3436   20.5540 N   0  0  0  0  0  0  0  0  0  0  0  0
    9.3409   18.9650   20.9648 C   0  0  0  0  0  0  0  0  0  0  0  0
    8.5672   18.3657   21.7000 O   0  0  0  0  0  0  0  0  0  0  0  0
    9.3016   20.3788   20.4473 C   0  0  0  0  0  0  0  0  0  0  0  0
   10.6202   17.4260   20.8243 H   0  0  0  0  0  0  0  0  0  0  0  0
   14.6309   20.6090   16.9812 C   0  0  0  0  0  0  0  0  0  0  0  0
   15.3670   21.5530   17.7863 N   0  0  0  0  0  0  0  0  0  0  0  0
   14.9200   22.3603   18.7490 C   0  0  0  0  0  0  0  0  0  0  0  0
   13.7630   22.3976   19.1223 O   0  0  0  0  0  0  0  0  0  0  0  0
   16.3319   21.6088   17.5994 H   0  0  0  0  0  0  0  0  0  0  0  0
   15.8991   23.1598   19.2941 O   0  0  0  0  0  0  0  0  0  0  0  0
   15.3690   25.4530   18.7922 C   0  0  0  0  0  0  0  0  0  0  0  0
   15.4440   24.3811   19.8695 C   0  0  0  0  0  0  0  0  0  0  0  0
   16.5265   24.9366   20.8073 C   0  0  0  0  0  0  0  0  0  0  0  0
   17.5435   25.5827   19.8917 C   0  0  0  0  0  0  0  0  0  0  0  0
   18.4348   24.6196   19.3215 O   0  0  0  0  0  0  0  0  0  0  0  0
   18.5082   24.7047   17.9187 C   0  0  0  0  0  0  0  0  0  0  0  0
   17.5398   25.8154   17.4938 C   0  0  0  0  0  0  0  0  0  0  0  0
   16.7306   26.1461   18.7628 C   0  0  0  0  0  0  0  0  0  0  0  0
   15.4592   20.2172   15.7499 C   0  0  0  0  0  0  0  0  0  0  0  0
   14.9007   22.1343   14.2149 C   0  0  0  0  0  0  0  0  0  0  0  0
   15.3068   23.1648   13.3652 C   0  0  0  0  0  0  0  0  0  0  0  0
   16.6329   23.5852   13.3127 C   0  0  0  0  0  0  0  0  0  0  0  0
   17.5635   22.8992   14.0853 C   0  0  0  0  0  0  0  0  0  0  0  0
   17.1913   21.8176   14.8767 C   0  0  0  0  0  0  0  0  0  0  0  0
   15.8712   21.4177   14.9161 C   0  0  0  0  0  0  0  0  0  0  0  0
 16 15  1  0  0  0
  9 15  1  0  0  0
 10  9  2  0  0  0
  9 14  1  0  0  0
 11 10  1  0  0  0
 11 12  2  0  0  0
  6 12  1  0  0  0
 12 13  1  0  0  0
 13 14  2  0  0  0
  8  6  2  0  0  0
  5  6  1  0  0  0
  6  7  2  0  0  0
 17  5  1  0  0  0
  5  4  1  0  0  0
 18 17  1  0  0  0
 20 18  1  0  0  0
 19 18  1  0  0  0
 23 19  1  0  0  0
 21 20  1  0  0  0
 22 21  2  0  0  0
 21 23  1  0  0  0
  1  4  1  0  0  0
  1 25  1  0  0  0
  1  2  1  0  0  0
 26 25  1  0  0  0
 25 39  1  0  0  0
 27 26  1  0  0  0
 28 27  2  0  0  0
 30 27  1  0  0  0
 32 30  1  0  0  0
 32 31  1  0  0  0
 31 38  1  0  0  0
 33 32  1  0  0  0
 33 34  1  0  0  0
 34 38  1  0  0  0
 34 35  1  0  0  0
 35 36  1  0  0  0
 37 36  1  0  0  0
 38 37  1  0  0  0
 39 45  1  0  0  0
 45 40  2  0  0  0
 40 41  1  0  0  0
 42 41  2  0  0  0
 43 42  1  0  0  0
 44 43  2  0  0  0
 44 45  1  0  0  0
 20 24  1  0  0  0
  2  3  1  0  0  0
 26 29  1  0  0  0
M  END
> <minimizedAffinity>
-10.56667

$$$$
3VFB_031_A_201


 45 49  0  0  0  0  0  0  0  0999 V2000
   13.3357   19.4152   17.8128 C   0  0  0  0  0  0  0  0  0  0  0  0
   14.3569   18.5434   18.2544 O   0  0  0  0  0  0  0  0  0  0  0  0
   14.4482   18.6140   19.2175 H   0  0  0  0  0  0  0  0  0  0  0  0
   13.7351   20.8618   18.1190 C   0  0  0  0  0  0  0  0  0  0  0  0
   14.7502   21.3622   17.2149 N   0  0  0  0  0  0  0  0  0  0  0  0
   14.5046   21.1661   15.5980 S   0  0  0  0  0  0  0  0  0  0  0  0
   13.2428   21.8131   15.2004 O   0  0  0  0  0  0  0  0  0  0  0  0
   14.5881   19.7010   15.2959 O   0  0  0  0  0  0  0  0  0  0  0  0
   17.9267   23.3998   13.5585 C   0  0  0  0  0  0  0  0  0  0  0  0
   18.2190   22.2849   14.3418 C   0  0  0  0  0  0  0  0  0  0  0  0
   17.1760   21.5570   14.9290 C   0  0  0  0  0  0  0  0  0  0  0  0
   15.8558   21.9354   14.7564 C   0  0  0  0  0  0  0  0  0  0  0  0
   15.5956   22.9776   13.9033 C   0  0  0  0  0  0  0  0  0  0  0  0
   16.5931   23.6585   13.2483 C   0  0  0  0  0  0  0  0  0  0  0  0
   18.8339   24.2150   12.9560 O   0  0  0  0  0  0  0  0  0  0  0  0
   18.5428   25.5950   12.8955 C   0  0  0  0  0  0  0  0  0  0  0  0
   15.4155   22.5553   17.6132 C   0  0  0  0  0  0  0  0  0  0  0  0
   14.7252   23.2466   18.7924 C   0  0  0  0  0  0  0  0  0  0  0  0
   15.7060   23.6850   19.8578 C   0  0  0  0  0  0  0  0  0  0  0  0
   14.1863   24.4787   18.2132 N   0  0  0  0  0  0  0  0  0  0  0  0
   14.8649   25.5165   18.5484 C   0  0  0  0  0  0  0  0  0  0  0  0
   14.5304   26.5980   18.0828 O   0  0  0  0  0  0  0  0  0  0  0  0
   15.9678   25.1654   19.5121 C   0  0  0  0  0  0  0  0  0  0  0  0
   13.3924   24.5084   17.6317 H   0  0  0  0  0  0  0  0  0  0  0  0
   11.9694   19.0039   18.3545 C   0  0  0  0  0  0  0  0  0  0  0  0
   11.3643   17.9834   17.5339 N   0  0  0  0  0  0  0  0  0  0  0  0
   10.0710   17.7314   17.3287 C   0  0  0  0  0  0  0  0  0  0  0  0
    9.1660   18.3824   17.8150 O   0  0  0  0  0  0  0  0  0  0  0  0
   11.9926   17.3916   17.0602 H   0  0  0  0  0  0  0  0  0  0  0  0
    9.8457   16.6533   16.5029 O   0  0  0  0  0  0  0  0  0  0  0  0
    8.5715   17.4233   14.6121 C   0  0  0  0  0  0  0  0  0  0  0  0
    9.9212   16.9240   15.1062 C   0  0  0  0  0  0  0  0  0  0  0  0
   10.0807   15.6025   14.3393 C   0  0  0  0  0  0  0  0  0  0  0  0
    8.6902   15.0071   14.2923 C   0  0  0  0  0  0  0  0  0  0  0  0
    8.3555   14.3383   15.5120 O   0  0  0  0  0  0  0  0  0  0  0  0
    7.1336   14.7737   16.0578 C   0  0  0  0  0  0  0  0  0  0  0  0
    6.6055   15.8757   15.1311 C   0  0  0  0  0  0  0  0  0  0  0  0
    7.7760   16.1921   14.1801 C   0  0  0  0  0  0  0  0  0  0  0  0
   11.9467   18.5702   19.8265 C   0  0  0  0  0  0  0  0  0  0  0  0
    9.9723   18.7045   21.3843 C   0  0  0  0  0  0  0  0  0  0  0  0
    9.0041   19.4566   22.0522 C   0  0  0  0  0  0  0  0  0  0  0  0
    9.0846   20.8442   22.1282 C   0  0  0  0  0  0  0  0  0  0  0  0
   10.1271   21.4728   21.4563 C   0  0  0  0  0  0  0  0  0  0  0  0
   11.0555   20.7461   20.7182 C   0  0  0  0  0  0  0  0  0  0  0  0
   10.9591   19.3709   20.6569 C   0  0  0  0  0  0  0  0  0  0  0  0
 16 15  1  0  0  0
  9 15  1  0  0  0
 10  9  2  0  0  0
  9 14  1  0  0  0
 11 10  1  0  0  0
 11 12  2  0  0  0
  6 12  1  0  0  0
 12 13  1  0  0  0
 13 14  2  0  0  0
  8  6  2  0  0  0
  5  6  1  0  0  0
  6  7  2  0  0  0
 17  5  1  0  0  0
  5  4  1  0  0  0
 18 17  1  0  0  0
 20 18  1  0  0  0
 19 18  1  0  0  0
 23 19  1  0  0  0
 21 20  1  0  0  0
 22 21  2  0  0  0
 21 23  1  0  0  0
  1  4  1  0  0  0
  1 25  1  0  0  0
  1  2  1  0  0  0
 26 25  1  0  0  0
 25 39  1  0  0  0
 27 26  1  0  0  0
 28 27  2  0  0  0
 30 27  1  0  0  0
 32 30  1  0  0  0
 32 31  1  0  0  0
 31 38  1  0  0  0
 33 32  1  0  0  0
 33 34  1  0  0  0
 34 38  1  0  0  0
 34 35  1  0  0  0
 35 36  1  0  0  0
 37 36  1  0  0  0
 38 37  1  0  0  0
 39 45  1  0  0  0
 45 40  2  0  0  0
 40 41  1  0  0  0
 42 41  2  0  0  0
 43 42  1  0  0  0
 44 43  2  0  0  0
 44 45  1  0  0  0
 20 24  1  0  0  0
  2  3  1  0  0  0
 26 29  1  0  0  0
M  END
> <minimizedAffinity>
-10.36398

$$$$
3VFB_031_A_201


 45 49  0  0  0  0  0  0  0  0999 V2000
   13.9158   19.9973   17.7156 C   0  0  0  0  0  0  0  0  0  0  0  0
   14.7071   18.9169   18.1677 O   0  0  0  0  0  0  0  0  0  0  0  0
   15.1041   18.4659   17.4062 H   0  0  0  0  0  0  0  0  0  0  0  0
   12.7622   19.4602   16.8630 C   0  0  0  0  0  0  0  0  0  0  0  0
   11.6261   19.0467   17.6609 N   0  0  0  0  0  0  0  0  0  0  0  0
   11.1509   20.0324   18.8919 S   0  0  0  0  0  0  0  0  0  0  0  0
   10.8196   21.3674   18.3659 O   0  0  0  0  0  0  0  0  0  0  0  0
   12.2247   20.0115   19.9366 O   0  0  0  0  0  0  0  0  0  0  0  0
    7.5437   18.2457   21.0496 C   0  0  0  0  0  0  0  0  0  0  0  0
    7.3381   19.2540   20.1098 C   0  0  0  0  0  0  0  0  0  0  0  0
    8.4285   19.7736   19.4003 C   0  0  0  0  0  0  0  0  0  0  0  0
    9.7136   19.3119   19.6272 C   0  0  0  0  0  0  0  0  0  0  0  0
    9.8705   18.2545   20.4869 C   0  0  0  0  0  0  0  0  0  0  0  0
    8.8097   17.6697   21.1351 C   0  0  0  0  0  0  0  0  0  0  0  0
    6.5886   17.6724   21.8305 O   0  0  0  0  0  0  0  0  0  0  0  0
    6.9222   16.4835   22.5147 C   0  0  0  0  0  0  0  0  0  0  0  0
   10.5927   18.3517   16.9724 C   0  0  0  0  0  0  0  0  0  0  0  0
   10.3272   18.9261   15.5780 C   0  0  0  0  0  0  0  0  0  0  0  0
   10.7650   17.9873   14.4751 C   0  0  0  0  0  0  0  0  0  0  0  0
    8.8666   18.9885   15.4941 N   0  0  0  0  0  0  0  0  0  0  0  0
    8.3781   18.0663   14.7452 C   0  0  0  0  0  0  0  0  0  0  0  0
    7.1607   17.9951   14.6399 O   0  0  0  0  0  0  0  0  0  0  0  0
    9.4651   17.2439   14.1046 C   0  0  0  0  0  0  0  0  0  0  0  0
    8.3201   19.6621   15.9596 H   0  0  0  0  0  0  0  0  0  0  0  0
   14.7618   21.0714   17.0375 C   0  0  0  0  0  0  0  0  0  0  0  0
   15.4407   21.8956   18.0075 N   0  0  0  0  0  0  0  0  0  0  0  0
   14.9197   22.7186   18.9183 C   0  0  0  0  0  0  0  0  0  0  0  0
   13.7257   22.8800   19.0849 O   0  0  0  0  0  0  0  0  0  0  0  0
   16.4237   21.8433   17.9954 H   0  0  0  0  0  0  0  0  0  0  0  0
   15.8669   23.3792   19.6675 O   0  0  0  0  0  0  0  0  0  0  0  0
   15.5360   25.4842   18.5490 C   0  0  0  0  0  0  0  0  0  0  0  0
   15.6185   24.7648   19.8872 C   0  0  0  0  0  0  0  0  0  0  0  0
   16.8573   25.4089   20.5279 C   0  0  0  0  0  0  0  0  0  0  0  0
   17.8250   25.6190   19.3836 C   0  0  0  0  0  0  0  0  0  0  0  0
   18.5329   24.4193   19.0573 O   0  0  0  0  0  0  0  0  0  0  0  0
   18.4510   24.0893   17.6917 C   0  0  0  0  0  0  0  0  0  0  0  0
   17.5670   25.1558   17.0334 C   0  0  0  0  0  0  0  0  0  0  0  0
   16.9525   25.9440   18.2064 C   0  0  0  0  0  0  0  0  0  0  0  0
   15.7654   20.5600   15.9949 C   0  0  0  0  0  0  0  0  0  0  0  0
   17.5100   21.9272   14.7990 C   0  0  0  0  0  0  0  0  0  0  0  0
   17.8524   22.9867   13.9568 C   0  0  0  0  0  0  0  0  0  0  0  0
   16.8940   23.6523   13.1976 C   0  0  0  0  0  0  0  0  0  0  0  0
   15.5645   23.2760   13.3539 C   0  0  0  0  0  0  0  0  0  0  0  0
   15.1949   22.2772   14.2485 C   0  0  0  0  0  0  0  0  0  0  0  0
   16.1606   21.6283   14.9905 C   0  0  0  0  0  0  0  0  0  0  0  0
 16 15  1  0  0  0
  9 15  1  0  0  0
 10  9  2  0  0  0
  9 14  1  0  0  0
 11 10  1  0  0  0
 11 12  2  0  0  0
  6 12  1  0  0  0
 12 13  1  0  0  0
 13 14  2  0  0  0
  8  6  2  0  0  0
  5  6  1  0  0  0
  6  7  2  0  0  0
 17  5  1  0  0  0
  5  4  1  0  0  0
 18 17  1  0  0  0
 20 18  1  0  0  0
 19 18  1  0  0  0
 23 19  1  0  0  0
 21 20  1  0  0  0
 22 21  2  0  0  0
 21 23  1  0  0  0
  1  4  1  0  0  0
  1 25  1  0  0  0
  1  2  1  0  0  0
 26 25  1  0  0  0
 25 39  1  0  0  0
 27 26  1  0  0  0
 28 27  2  0  0  0
 30 27  1  0  0  0
 32 30  1  0  0  0
 32 31  1  0  0  0
 31 38  1  0  0  0
 33 32  1  0  0  0
 33 34  1  0  0  0
 34 38  1  0  0  0
 34 35  1  0  0  0
 35 36  1  0  0  0
 37 36  1  0  0  0
 38 37  1  0  0  0
 39 45  1  0  0  0
 45 40  2  0  0  0
 40 41  1  0  0  0
 42 41  2  0  0  0
 43 42  1  0  0  0
 44 43  2  0  0  0
 44 45  1  0  0  0
 20 24  1  0  0  0
  2  3  1  0  0  0
 26 29  1  0  0  0
M  END
> <minimizedAffinity>
-10.23883

$$$$
3VFB_031_A_201


 45 49  0  0  0  0  0  0  0  0999 V2000
   13.0300   19.3809   15.6833 C   0  0  0  0  0  0  0  0  0  0  0  0
   14.0020   18.8913   16.5853 O   0  0  0  0  0  0  0  0  0  0  0  0
   13.7068   19.0492   17.4957 H   0  0  0  0  0  0  0  0  0  0  0  0
   12.8972   20.8973   15.8534 C   0  0  0  0  0  0  0  0  0  0  0  0
   14.0141   21.4767   16.5712 N   0  0  0  0  0  0  0  0  0  0  0  0
   13.7844   21.8877   18.1495 S   0  0  0  0  0  0  0  0  0  0  0  0
   14.2051   20.7790   19.0228 O   0  0  0  0  0  0  0  0  0  0  0  0
   12.3569   22.3136   18.3094 O   0  0  0  0  0  0  0  0  0  0  0  0
   16.5362   25.4746   18.7989 C   0  0  0  0  0  0  0  0  0  0  0  0
   15.2098   25.6975   18.4340 C   0  0  0  0  0  0  0  0  0  0  0  0
   14.3394   24.6099   18.2847 C   0  0  0  0  0  0  0  0  0  0  0  0
   14.7788   23.3118   18.4797 C   0  0  0  0  0  0  0  0  0  0  0  0
   16.0616   23.1319   18.9309 C   0  0  0  0  0  0  0  0  0  0  0  0
   16.9132   24.1842   19.1655 C   0  0  0  0  0  0  0  0  0  0  0  0
   17.4960   26.4270   18.9486 O   0  0  0  0  0  0  0  0  0  0  0  0
   18.2134   26.8266   17.8004 C   0  0  0  0  0  0  0  0  0  0  0  0
   15.3055   20.9886   16.2264 C   0  0  0  0  0  0  0  0  0  0  0  0
   15.8428   21.6112   14.9347 C   0  0  0  0  0  0  0  0  0  0  0  0
   15.8696   23.1229   14.9914 C   0  0  0  0  0  0  0  0  0  0  0  0
   17.2439   21.1874   14.8946 N   0  0  0  0  0  0  0  0  0  0  0  0
   18.0535   22.1394   15.1915 C   0  0  0  0  0  0  0  0  0  0  0  0
   19.2500   21.8851   15.2342 O   0  0  0  0  0  0  0  0  0  0  0  0
   17.3208   23.4370   15.4097 C   0  0  0  0  0  0  0  0  0  0  0  0
   17.5331   20.2746   14.6656 H   0  0  0  0  0  0  0  0  0  0  0  0
   11.7173   18.6106   15.7955 C   0  0  0  0  0  0  0  0  0  0  0  0
   10.9360   19.0649   16.9199 N   0  0  0  0  0  0  0  0  0  0  0  0
   11.1690   18.9008   18.2227 C   0  0  0  0  0  0  0  0  0  0  0  0
   12.1456   18.3321   18.6723 O   0  0  0  0  0  0  0  0  0  0  0  0
   10.1183   19.5647   16.6945 H   0  0  0  0  0  0  0  0  0  0  0  0
   10.1926   19.4423   19.0278 O   0  0  0  0  0  0  0  0  0  0  0  0
   10.5590   18.8248   21.3248 C   0  0  0  0  0  0  0  0  0  0  0  0
   10.6398   19.9351   20.2876 C   0  0  0  0  0  0  0  0  0  0  0  0
    9.6256   20.9567   20.8239 C   0  0  0  0  0  0  0  0  0  0  0  0
    8.4955   20.1254   21.3911 C   0  0  0  0  0  0  0  0  0  0  0  0
    7.6023   19.6725   20.3692 O   0  0  0  0  0  0  0  0  0  0  0  0
    7.3914   18.2815   20.4033 C   0  0  0  0  0  0  0  0  0  0  0  0
    8.2591   17.7326   21.5426 C   0  0  0  0  0  0  0  0  0  0  0  0
    9.1683   18.9072   21.9529 C   0  0  0  0  0  0  0  0  0  0  0  0
   10.8498   18.5975   14.5296 C   0  0  0  0  0  0  0  0  0  0  0  0
    8.4450   17.8597   14.6558 C   0  0  0  0  0  0  0  0  0  0  0  0
    7.4930   16.8477   14.7925 C   0  0  0  0  0  0  0  0  0  0  0  0
    7.8393   15.5035   14.6873 C   0  0  0  0  0  0  0  0  0  0  0  0
    9.1823   15.1900   14.5097 C   0  0  0  0  0  0  0  0  0  0  0  0
   10.1560   16.1816   14.4522 C   0  0  0  0  0  0  0  0  0  0  0  0
    9.7918   17.5085   14.5568 C   0  0  0  0  0  0  0  0  0  0  0  0
 16 15  1  0  0  0
  9 15  1  0  0  0
 10  9  2  0  0  0
  9 14  1  0  0  0
 11 10  1  0  0  0
 11 12  2  0  0  0
  6 12  1  0  0  0
 12 13  1  0  0  0
 13 14  2  0  0  0
  8  6  2  0  0  0
  5  6  1  0  0  0
  6  7  2  0  0  0
 17  5  1  0  0  0
  5  4  1  0  0  0
 18 17  1  0  0  0
 20 18  1  0  0  0
 19 18  1  0  0  0
 23 19  1  0  0  0
 21 20  1  0  0  0
 22 21  2  0  0  0
 21 23  1  0  0  0
  1  4  1  0  0  0
  1 25  1  0  0  0
  1  2  1  0  0  0
 26 25  1  0  0  0
 25 39  1  0  0  0
 27 26  1  0  0  0
 28 27  2  0  0  0
 30 27  1  0  0  0
 32 30  1  0  0  0
 32 31  1  0  0  0
 31 38  1  0  0  0
 33 32  1  0  0  0
 33 34  1  0  0  0
 34 38  1  0  0  0
 34 35  1  0  0  0
 35 36  1  0  0  0
 37 36  1  0  0  0
 38 37  1  0  0  0
 39 45  1  0  0  0
 45 40  2  0  0  0
 40 41  1  0  0  0
 42 41  2  0  0  0
 43 42  1  0  0  0
 44 43  2  0  0  0
 44 45  1  0  0  0
 20 24  1  0  0  0
  2  3  1  0  0  0
 26 29  1  0  0  0
M  END
> <minimizedAffinity>
-9.84609

$$$$
3VFB_031_A_201


 45 49  0  0  0  0  0  0  0  0999 V2000
   13.3055   18.7154   17.7119 C   0  0  0  0  0  0  0  0  0  0  0  0
   13.9515   17.6444   18.3703 O   0  0  0  0  0  0  0  0  0  0  0  0
   14.2686   17.9420   19.2374 H   0  0  0  0  0  0  0  0  0  0  0  0
   14.3154   19.8384   17.4571 C   0  0  0  0  0  0  0  0  0  0  0  0
   13.7039   21.1515   17.4754 N   0  0  0  0  0  0  0  0  0  0  0  0
   13.8052   22.0280   18.8662 S   0  0  0  0  0  0  0  0  0  0  0  0
   14.2889   21.1732   19.9636 O   0  0  0  0  0  0  0  0  0  0  0  0
   12.4716   22.6686   19.1027 O   0  0  0  0  0  0  0  0  0  0  0  0
   16.8240   25.3103   17.8799 C   0  0  0  0  0  0  0  0  0  0  0  0
   15.5219   25.6701   18.2221 C   0  0  0  0  0  0  0  0  0  0  0  0
   14.5997   24.6782   18.5803 C   0  0  0  0  0  0  0  0  0  0  0  0
   14.9560   23.3407   18.5865 C   0  0  0  0  0  0  0  0  0  0  0  0
   16.2683   23.0274   18.3387 C   0  0  0  0  0  0  0  0  0  0  0  0
   17.2143   23.9855   18.0652 C   0  0  0  0  0  0  0  0  0  0  0  0
   17.8109   26.1585   17.4832 O   0  0  0  0  0  0  0  0  0  0  0  0
   18.9141   26.3363   18.3457 C   0  0  0  0  0  0  0  0  0  0  0  0
   13.7566   21.8876   16.2588 C   0  0  0  0  0  0  0  0  0  0  0  0
   14.5673   21.1723   15.1745 C   0  0  0  0  0  0  0  0  0  0  0  0
   13.8594   21.1636   13.8373 C   0  0  0  0  0  0  0  0  0  0  0  0
   15.7469   22.0216   14.9973 N   0  0  0  0  0  0  0  0  0  0  0  0
   15.6985   22.7091   13.9134 C   0  0  0  0  0  0  0  0  0  0  0  0
   16.6131   23.4902   13.6859 O   0  0  0  0  0  0  0  0  0  0  0  0
   14.4763   22.3707   13.1010 C   0  0  0  0  0  0  0  0  0  0  0  0
   16.4937   22.0612   15.6376 H   0  0  0  0  0  0  0  0  0  0  0  0
   12.0420   19.1510   18.4488 C   0  0  0  0  0  0  0  0  0  0  0  0
   10.8592   18.8815   17.6682 N   0  0  0  0  0  0  0  0  0  0  0  0
   10.2115   19.6855   16.8242 C   0  0  0  0  0  0  0  0  0  0  0  0
   10.5636   20.8193   16.5599 O   0  0  0  0  0  0  0  0  0  0  0  0
   10.4776   17.9800   17.7730 H   0  0  0  0  0  0  0  0  0  0  0  0
    9.0918   19.1101   16.2673 O   0  0  0  0  0  0  0  0  0  0  0  0
    7.9242   18.0814   14.4314 C   0  0  0  0  0  0  0  0  0  0  0  0
    9.1821   18.8125   14.8769 C   0  0  0  0  0  0  0  0  0  0  0  0
   10.2717   17.7530   14.6527 C   0  0  0  0  0  0  0  0  0  0  0  0
    9.6252   16.4396   15.0360 C   0  0  0  0  0  0  0  0  0  0  0  0
    9.6255   16.2391   16.4527 O   0  0  0  0  0  0  0  0  0  0  0  0
    8.3488   15.9400   16.9636 C   0  0  0  0  0  0  0  0  0  0  0  0
    7.3794   15.9777   15.7759 C   0  0  0  0  0  0  0  0  0  0  0  0
    8.1917   16.5883   14.6174 C   0  0  0  0  0  0  0  0  0  0  0  0
   11.8737   18.5806   19.8636 C   0  0  0  0  0  0  0  0  0  0  0  0
   10.7680   20.6206   20.8428 C   0  0  0  0  0  0  0  0  0  0  0  0
    9.7806   21.1978   21.6434 C   0  0  0  0  0  0  0  0  0  0  0  0
    8.6978   20.4582   22.1107 C   0  0  0  0  0  0  0  0  0  0  0  0
    8.6614   19.1002   21.8137 C   0  0  0  0  0  0  0  0  0  0  0  0
    9.6777   18.4906   21.0857 C   0  0  0  0  0  0  0  0  0  0  0  0
   10.7417   19.2419   20.6300 C   0  0  0  0  0  0  0  0  0  0  0  0
 16 15  1  0  0  0
  9 15  1  0  0  0
 10  9  2  0  0  0
  9 14  1  0  0  0
 11 10  1  0  0  0
 11 12  2  0  0  0
  6 12  1  0  0  0
 12 13  1  0  0  0
 13 14  2  0  0  0
  8  6  2  0  0  0
  5  6  1  0  0  0
  6  7  2  0  0  0
 17  5  1  0  0  0
  5  4  1  0  0  0
 18 17  1  0  0  0
 20 18  1  0  0  0
 19 18  1  0  0  0
 23 19  1  0  0  0
 21 20  1  0  0  0
 22 21  2  0  0  0
 21 23  1  0  0  0
  1  4  1  0  0  0
  1 25  1  0  0  0
  1  2  1  0  0  0
 26 25  1  0  0  0
 25 39  1  0  0  0
 27 26  1  0  0  0
 28 27  2  0  0  0
 30 27  1  0  0  0
 32 30  1  0  0  0
 32 31  1  0  0  0
 31 38  1  0  0  0
 33 32  1  0  0  0
 33 34  1  0  0  0
 34 38  1  0  0  0
 34 35  1  0  0  0
 35 36  1  0  0  0
 37 36  1  0  0  0
 38 37  1  0  0  0
 39 45  1  0  0  0
 45 40  2  0  0  0
 40 41  1  0  0  0
 42 41  2  0  0  0
 43 42  1  0  0  0
 44 43  2  0  0  0
 44 45  1  0  0  0
 20 24  1  0  0  0
  2  3  1  0  0  0
 26 29  1  0  0  0
M  END
> <minimizedAffinity>
-9.83946

$$$$
3VFB_031_A_201


 45 49  0  0  0  0  0  0  0  0999 V2000
   10.0405   18.7462   15.8819 C   0  0  0  0  0  0  0  0  0  0  0  0
   10.5701   18.7347   14.5714 O   0  0  0  0  0  0  0  0  0  0  0  0
   11.0400   17.8998   14.4199 H   0  0  0  0  0  0  0  0  0  0  0  0
   11.1886   18.6893   16.8942 C   0  0  0  0  0  0  0  0  0  0  0  0
   11.3834   19.9472   17.5858 N   0  0  0  0  0  0  0  0  0  0  0  0
   11.9266   21.2312   16.7088 S   0  0  0  0  0  0  0  0  0  0  0  0
   10.8412   22.2099   16.5276 O   0  0  0  0  0  0  0  0  0  0  0  0
   12.5203   20.7012   15.4394 O   0  0  0  0  0  0  0  0  0  0  0  0
   15.5105   23.1194   18.8183 C   0  0  0  0  0  0  0  0  0  0  0  0
   14.3368   23.8590   18.6869 C   0  0  0  0  0  0  0  0  0  0  0  0
   13.2116   23.2743   18.0912 C   0  0  0  0  0  0  0  0  0  0  0  0
   13.2495   21.9749   17.6159 C   0  0  0  0  0  0  0  0  0  0  0  0
   14.3864   21.2427   17.8462 C   0  0  0  0  0  0  0  0  0  0  0  0
   15.4763   21.7630   18.5011 C   0  0  0  0  0  0  0  0  0  0  0  0
   16.6831   23.5655   19.3444 O   0  0  0  0  0  0  0  0  0  0  0  0
   16.6206   24.5467   20.3574 C   0  0  0  0  0  0  0  0  0  0  0  0
   10.4643   20.2395   18.6320 C   0  0  0  0  0  0  0  0  0  0  0  0
   11.1249   20.2305   20.0134 C   0  0  0  0  0  0  0  0  0  0  0  0
   10.8052   21.4744   20.8132 C   0  0  0  0  0  0  0  0  0  0  0  0
   10.4665   19.1251   20.7125 N   0  0  0  0  0  0  0  0  0  0  0  0
    9.6187   19.5328   21.5870 C   0  0  0  0  0  0  0  0  0  0  0  0
    8.9748   18.6917   22.2003 O   0  0  0  0  0  0  0  0  0  0  0  0
    9.6170   21.0351   21.6934 C   0  0  0  0  0  0  0  0  0  0  0  0
   10.6529   18.1753   20.5323 H   0  0  0  0  0  0  0  0  0  0  0  0
    8.9736   17.6710   16.0687 C   0  0  0  0  0  0  0  0  0  0  0  0
    8.4554   17.6733   17.4150 N   0  0  0  0  0  0  0  0  0  0  0  0
    8.3923   16.6688   18.2899 C   0  0  0  0  0  0  0  0  0  0  0  0
    8.8112   15.5483   18.0699 O   0  0  0  0  0  0  0  0  0  0  0  0
    8.0995   18.5349   17.7315 H   0  0  0  0  0  0  0  0  0  0  0  0
    7.8037   17.0170   19.4845 O   0  0  0  0  0  0  0  0  0  0  0  0
    5.6155   16.0245   19.3479 C   0  0  0  0  0  0  0  0  0  0  0  0
    6.9584   16.0270   20.0635 C   0  0  0  0  0  0  0  0  0  0  0  0
    6.5692   16.4582   21.4857 C   0  0  0  0  0  0  0  0  0  0  0  0
    5.4742   17.4856   21.2972 C   0  0  0  0  0  0  0  0  0  0  0  0
    6.0034   18.7757   20.9771 O   0  0  0  0  0  0  0  0  0  0  0  0
    5.4315   19.3297   19.8167 C   0  0  0  0  0  0  0  0  0  0  0  0
    4.4398   18.2921   19.2764 C   0  0  0  0  0  0  0  0  0  0  0  0
    4.7174   17.0134   20.0902 C   0  0  0  0  0  0  0  0  0  0  0  0
    7.8140   17.7107   15.0641 C   0  0  0  0  0  0  0  0  0  0  0  0
    5.7875   16.3313   15.6418 C   0  0  0  0  0  0  0  0  0  0  0  0
    5.1332   15.0989   15.6892 C   0  0  0  0  0  0  0  0  0  0  0  0
    5.6241   13.9875   15.0098 C   0  0  0  0  0  0  0  0  0  0  0  0
    6.8314   14.1202   14.3328 C   0  0  0  0  0  0  0  0  0  0  0  0
    7.5387   15.3178   14.3413 C   0  0  0  0  0  0  0  0  0  0  0  0
    7.0340   16.4085   15.0195 C   0  0  0  0  0  0  0  0  0  0  0  0
 16 15  1  0  0  0
  9 15  1  0  0  0
 10  9  2  0  0  0
  9 14  1  0  0  0
 11 10  1  0  0  0
 11 12  2  0  0  0
  6 12  1  0  0  0
 12 13  1  0  0  0
 13 14  2  0  0  0
  8  6  2  0  0  0
  5  6  1  0  0  0
  6  7  2  0  0  0
 17  5  1  0  0  0
  5  4  1  0  0  0
 18 17  1  0  0  0
 20 18  1  0  0  0
 19 18  1  0  0  0
 23 19  1  0  0  0
 21 20  1  0  0  0
 22 21  2  0  0  0
 21 23  1  0  0  0
  1  4  1  0  0  0
  1 25  1  0  0  0
  1  2  1  0  0  0
 26 25  1  0  0  0
 25 39  1  0  0  0
 27 26  1  0  0  0
 28 27  2  0  0  0
 30 27  1  0  0  0
 32 30  1  0  0  0
 32 31  1  0  0  0
 31 38  1  0  0  0
 33 32  1  0  0  0
 33 34  1  0  0  0
 34 38  1  0  0  0
 34 35  1  0  0  0
 35 36  1  0  0  0
 37 36  1  0  0  0
 38 37  1  0  0  0
 39 45  1  0  0  0
 45 40  2  0  0  0
 40 41  1  0  0  0
 42 41  2  0  0  0
 43 42  1  0  0  0
 44 43  2  0  0  0
 44 45  1  0  0  0
 20 24  1  0  0  0
  2  3  1  0  0  0
 26 29  1  0  0  0
M  END
> <minimizedAffinity>
-9.82386

$$$$
3VFB_031_A_201


 45 49  0  0  0  0  0  0  0  0999 V2000
   10.9590   19.2511   15.7402 C   0  0  0  0  0  0  0  0  0  0  0  0
   11.5319   19.0694   14.4608 O   0  0  0  0  0  0  0  0  0  0  0  0
   11.9744   18.2070   14.4242 H   0  0  0  0  0  0  0  0  0  0  0  0
   12.0690   19.2732   16.7954 C   0  0  0  0  0  0  0  0  0  0  0  0
   12.7921   20.5283   16.8164 N   0  0  0  0  0  0  0  0  0  0  0  0
   12.1729   21.7578   17.7207 S   0  0  0  0  0  0  0  0  0  0  0  0
   11.4346   21.2111   18.8718 O   0  0  0  0  0  0  0  0  0  0  0  0
   11.3687   22.6359   16.8113 O   0  0  0  0  0  0  0  0  0  0  0  0
   15.4897   24.4683   19.3053 C   0  0  0  0  0  0  0  0  0  0  0  0
   15.3995   23.1616   19.7810 C   0  0  0  0  0  0  0  0  0  0  0  0
   14.4219   22.3013   19.2644 C   0  0  0  0  0  0  0  0  0  0  0  0
   13.5310   22.7323   18.2966 C   0  0  0  0  0  0  0  0  0  0  0  0
   13.7066   23.9911   17.7809 C   0  0  0  0  0  0  0  0  0  0  0  0
   14.7082   24.8284   18.2093 C   0  0  0  0  0  0  0  0  0  0  0  0
   16.3638   25.4181   19.7350 O   0  0  0  0  0  0  0  0  0  0  0  0
   17.3943   25.0174   20.6127 C   0  0  0  0  0  0  0  0  0  0  0  0
   14.2110   20.4386   16.7582 C   0  0  0  0  0  0  0  0  0  0  0  0
   14.7401   20.4276   15.3213 C   0  0  0  0  0  0  0  0  0  0  0  0
   14.1418   21.5325   14.4784 C   0  0  0  0  0  0  0  0  0  0  0  0
   16.1594   20.7578   15.4650 N   0  0  0  0  0  0  0  0  0  0  0  0
   16.4222   21.9622   15.1042 C   0  0  0  0  0  0  0  0  0  0  0  0
   17.5728   22.3615   15.2260 O   0  0  0  0  0  0  0  0  0  0  0  0
   15.2003   22.6519   14.5569 C   0  0  0  0  0  0  0  0  0  0  0  0
   16.8366   20.1271   15.8008 H   0  0  0  0  0  0  0  0  0  0  0  0
    9.8460   18.2420   16.0085 C   0  0  0  0  0  0  0  0  0  0  0  0
    9.3806   18.3230   17.3716 N   0  0  0  0  0  0  0  0  0  0  0  0
    9.0537   17.3347   18.2051 C   0  0  0  0  0  0  0  0  0  0  0  0
    9.1308   16.1540   17.9231 O   0  0  0  0  0  0  0  0  0  0  0  0
    9.2923   19.2330   17.7366 H   0  0  0  0  0  0  0  0  0  0  0  0
    8.6160   17.7746   19.4338 O   0  0  0  0  0  0  0  0  0  0  0  0
    6.8962   18.5887   20.9073 C   0  0  0  0  0  0  0  0  0  0  0  0
    7.2738   18.2507   19.4725 C   0  0  0  0  0  0  0  0  0  0  0  0
    6.3143   17.0963   19.1461 C   0  0  0  0  0  0  0  0  0  0  0  0
    6.2164   16.2951   20.4262 C   0  0  0  0  0  0  0  0  0  0  0  0
    7.3313   15.4133   20.5895 O   0  0  0  0  0  0  0  0  0  0  0  0
    7.9686   15.5611   21.8354 C   0  0  0  0  0  0  0  0  0  0  0  0
    7.2312   16.6832   22.5765 C   0  0  0  0  0  0  0  0  0  0  0  0
    6.3069   17.3188   21.5200 C   0  0  0  0  0  0  0  0  0  0  0  0
    8.6523   18.3050   15.0459 C   0  0  0  0  0  0  0  0  0  0  0  0
    6.7596   16.6627   15.2984 C   0  0  0  0  0  0  0  0  0  0  0  0
    6.2480   15.3714   15.1571 C   0  0  0  0  0  0  0  0  0  0  0  0
    6.9095   14.4046   14.4051 C   0  0  0  0  0  0  0  0  0  0  0  0
    8.1393   14.7413   13.8504 C   0  0  0  0  0  0  0  0  0  0  0  0
    8.7033   15.9973   14.0479 C   0  0  0  0  0  0  0  0  0  0  0  0
    8.0306   16.9423   14.7952 C   0  0  0  0  0  0  0  0  0  0  0  0
 16 15  1  0  0  0
  9 15  1  0  0  0
 10  9  2  0  0  0
  9 14  1  0  0  0
 11 10  1  0  0  0
 11 12  2  0  0  0
  6 12  1  0  0  0
 12 13  1  0  0  0
 13 14  2  0  0  0
  8  6  2  0  0  0
  5  6  1  0  0  0
  6  7  2  0  0  0
 17  5  1  0  0  0
  5  4  1  0  0  0
 18 17  1  0  0  0
 20 18  1  0  0  0
 19 18  1  0  0  0
 23 19  1  0  0  0
 21 20  1  0  0  0
 22 21  2  0  0  0
 21 23  1  0  0  0
  1  4  1  0  0  0
  1 25  1  0  0  0
  1  2  1  0  0  0
 26 25  1  0  0  0
 25 39  1  0  0  0
 27 26  1  0  0  0
 28 27  2  0  0  0
 30 27  1  0  0  0
 32 30  1  0  0  0
 32 31  1  0  0  0
 31 38  1  0  0  0
 33 32  1  0  0  0
 33 34  1  0  0  0
 34 38  1  0  0  0
 34 35  1  0  0  0
 35 36  1  0  0  0
 37 36  1  0  0  0
 38 37  1  0  0  0
 39 45  1  0  0  0
 45 40  2  0  0  0
 40 41  1  0  0  0
 42 41  2  0  0  0
 43 42  1  0  0  0
 44 43  2  0  0  0
 44 45  1  0  0  0
 20 24  1  0  0  0
  2  3  1  0  0  0
 26 29  1  0  0  0
M  END
> <minimizedAffinity>
-9.79631

$$$$
3VFB_031_A_201


 45 49  0  0  0  0  0  0  0  0999 V2000
   11.2897   18.3613   17.3466 C   0  0  0  0  0  0  0  0  0  0  0  0
   10.6386   17.2154   17.8572 O   0  0  0  0  0  0  0  0  0  0  0  0
    9.7352   17.1736   17.5066 H   0  0  0  0  0  0  0  0  0  0  0  0
   10.5626   19.6182   17.8339 C   0  0  0  0  0  0  0  0  0  0  0  0
   10.3133   19.5989   19.2608 N   0  0  0  0  0  0  0  0  0  0  0  0
   11.1723   20.6388   20.2061 S   0  0  0  0  0  0  0  0  0  0  0  0
   11.8013   19.9039   21.3166 O   0  0  0  0  0  0  0  0  0  0  0  0
   10.2537   21.7477   20.6199 O   0  0  0  0  0  0  0  0  0  0  0  0
   14.3466   22.7779   17.7147 C   0  0  0  0  0  0  0  0  0  0  0  0
   14.7327   21.7248   18.5417 C   0  0  0  0  0  0  0  0  0  0  0  0
   13.7631   21.0234   19.2700 C   0  0  0  0  0  0  0  0  0  0  0  0
   12.4248   21.3686   19.1940 C   0  0  0  0  0  0  0  0  0  0  0  0
   12.0661   22.3448   18.2997 C   0  0  0  0  0  0  0  0  0  0  0  0
   12.9852   22.9939   17.5113 C   0  0  0  0  0  0  0  0  0  0  0  0
   15.1778   23.5632   16.9777 O   0  0  0  0  0  0  0  0  0  0  0  0
   16.5551   23.5379   17.2865 C   0  0  0  0  0  0  0  0  0  0  0  0
    8.9730   19.3396   19.6623 C   0  0  0  0  0  0  0  0  0  0  0  0
    8.8946   18.4605   20.9136 C   0  0  0  0  0  0  0  0  0  0  0  0
    7.5123   18.4556   21.5288 C   0  0  0  0  0  0  0  0  0  0  0  0
    9.1118   17.1041   20.4065 N   0  0  0  0  0  0  0  0  0  0  0  0
    8.0287   16.4147   20.3693 C   0  0  0  0  0  0  0  0  0  0  0  0
    8.0850   15.2784   19.9177 O   0  0  0  0  0  0  0  0  0  0  0  0
    6.8671   17.1831   20.9421 C   0  0  0  0  0  0  0  0  0  0  0  0
    9.9901   16.7591   20.1255 H   0  0  0  0  0  0  0  0  0  0  0  0
   11.4735   18.2788   15.8337 C   0  0  0  0  0  0  0  0  0  0  0  0
   10.4118   17.5223   15.2160 N   0  0  0  0  0  0  0  0  0  0  0  0
    9.1740   17.9127   14.9096 C   0  0  0  0  0  0  0  0  0  0  0  0
    8.7497   19.0370   15.0969 O   0  0  0  0  0  0  0  0  0  0  0  0
   10.6311   16.5897   14.9896 H   0  0  0  0  0  0  0  0  0  0  0  0
    8.4061   16.9159   14.3513 O   0  0  0  0  0  0  0  0  0  0  0  0
    7.7246   14.6125   14.2030 C   0  0  0  0  0  0  0  0  0  0  0  0
    8.7905   15.5853   14.6854 C   0  0  0  0  0  0  0  0  0  0  0  0
    8.7302   15.4054   16.2098 C   0  0  0  0  0  0  0  0  0  0  0  0
    7.2626   15.2108   16.5231 C   0  0  0  0  0  0  0  0  0  0  0  0
    6.5588   16.4554   16.5733 O   0  0  0  0  0  0  0  0  0  0  0  0
    5.4173   16.4727   15.7504 C   0  0  0  0  0  0  0  0  0  0  0  0
    5.3638   15.1128   15.0434 C   0  0  0  0  0  0  0  0  0  0  0  0
    6.7228   14.4523   15.3459 C   0  0  0  0  0  0  0  0  0  0  0  0
   11.6406   19.6245   15.1151 C   0  0  0  0  0  0  0  0  0  0  0  0
   13.4282   21.1765   14.2553 C   0  0  0  0  0  0  0  0  0  0  0  0
   14.7763   21.5027   14.0957 C   0  0  0  0  0  0  0  0  0  0  0  0
   15.7747   20.8382   14.8025 C   0  0  0  0  0  0  0  0  0  0  0  0
   15.3962   19.7847   15.6274 C   0  0  0  0  0  0  0  0  0  0  0  0
   14.0662   19.3926   15.7372 C   0  0  0  0  0  0  0  0  0  0  0  0
   13.0913   20.0655   15.0294 C   0  0  0  0  0  0  0  0  0  0  0  0
 16 15  1  0  0  0
  9 15  1  0  0  0
 10  9  2  0  0  0
  9 14  1  0  0  0
 11 10  1  0  0  0
 11 12  2  0  0  0
  6 12  1  0  0  0
 12 13  1  0  0  0
 13 14  2  0  0  0
  8  6  2  0  0  0
  5  6  1  0  0  0
  6  7  2  0  0  0
 17  5  1  0  0  0
  5  4  1  0  0  0
 18 17  1  0  0  0
 20 18  1  0  0  0
 19 18  1  0  0  0
 23 19  1  0  0  0
 21 20  1  0  0  0
 22 21  2  0  0  0
 21 23  1  0  0  0
  1  4  1  0  0  0
  1 25  1  0  0  0
  1  2  1  0  0  0
 26 25  1  0  0  0
 25 39  1  0  0  0
 27 26  1  0  0  0
 28 27  2  0  0  0
 30 27  1  0  0  0
 32 30  1  0  0  0
 32 31  1  0  0  0
 31 38  1  0  0  0
 33 32  1  0  0  0
 33 34  1  0  0  0
 34 38  1  0  0  0
 34 35  1  0  0  0
 35 36  1  0  0  0
 37 36  1  0  0  0
 38 37  1  0  0  0
 39 45  1  0  0  0
 45 40  2  0  0  0
 40 41  1  0  0  0
 42 41  2  0  0  0
 43 42  1  0  0  0
 44 43  2  0  0  0
 44 45  1  0  0  0
 20 24  1  0  0  0
  2  3  1  0  0  0
 26 29  1  0  0  0
M  END
> <minimizedAffinity>
-9.51820

$$$$
3VFB_031_A_201


 45 49  0  0  0  0  0  0  0  0999 V2000
   11.6448   20.1606   16.7855 C   0  0  0  0  0  0  0  0  0  0  0  0
   11.2663   21.1866   15.8900 O   0  0  0  0  0  0  0  0  0  0  0  0
   11.5634   20.9603   14.9948 H   0  0  0  0  0  0  0  0  0  0  0  0
   13.1727   20.0652   16.8324 C   0  0  0  0  0  0  0  0  0  0  0  0
   13.7991   21.3278   17.1671 N   0  0  0  0  0  0  0  0  0  0  0  0
   13.3551   22.0575   18.5754 S   0  0  0  0  0  0  0  0  0  0  0  0
   13.4580   21.1005   19.6901 O   0  0  0  0  0  0  0  0  0  0  0  0
   11.9948   22.6523   18.3745 O   0  0  0  0  0  0  0  0  0  0  0  0
   16.4284   25.3843   19.1641 C   0  0  0  0  0  0  0  0  0  0  0  0
   15.2911   25.6419   18.4010 C   0  0  0  0  0  0  0  0  0  0  0  0
   14.3131   24.6492   18.2568 C   0  0  0  0  0  0  0  0  0  0  0  0
   14.4637   23.4072   18.8491 C   0  0  0  0  0  0  0  0  0  0  0  0
   15.5454   23.2177   19.6710 C   0  0  0  0  0  0  0  0  0  0  0  0
   16.4783   24.2005   19.8975 C   0  0  0  0  0  0  0  0  0  0  0  0
   17.4686   26.2379   19.3638 O   0  0  0  0  0  0  0  0  0  0  0  0
   18.6105   26.0885   18.5474 C   0  0  0  0  0  0  0  0  0  0  0  0
   15.1597   21.4782   16.7786 C   0  0  0  0  0  0  0  0  0  0  0  0
   15.3808   21.1901   15.2911 C   0  0  0  0  0  0  0  0  0  0  0  0
   14.9526   22.3439   14.4109 C   0  0  0  0  0  0  0  0  0  0  0  0
   16.8368   21.1061   15.1602 N   0  0  0  0  0  0  0  0  0  0  0  0
   17.3404   22.1467   14.6005 C   0  0  0  0  0  0  0  0  0  0  0  0
   18.5572   22.2044   14.4816 O   0  0  0  0  0  0  0  0  0  0  0  0
   16.2682   23.1109   14.1655 C   0  0  0  0  0  0  0  0  0  0  0  0
   17.3703   20.3376   15.4671 H   0  0  0  0  0  0  0  0  0  0  0  0
   10.9345   18.8468   16.4710 C   0  0  0  0  0  0  0  0  0  0  0  0
    9.9084   18.5585   17.4431 N   0  0  0  0  0  0  0  0  0  0  0  0
   10.0145   18.4597   18.7687 C   0  0  0  0  0  0  0  0  0  0  0  0
   11.0498   18.6343   19.3827 O   0  0  0  0  0  0  0  0  0  0  0  0
    9.0056   18.4149   17.0775 H   0  0  0  0  0  0  0  0  0  0  0  0
    8.8297   18.1397   19.3923 O   0  0  0  0  0  0  0  0  0  0  0  0
    6.5028   17.5715   19.1587 C   0  0  0  0  0  0  0  0  0  0  0  0
    7.9097   17.3834   18.6104 C   0  0  0  0  0  0  0  0  0  0  0  0
    8.1535   15.8850   18.8450 C   0  0  0  0  0  0  0  0  0  0  0  0
    7.4912   15.5838   20.1720 C   0  0  0  0  0  0  0  0  0  0  0  0
    8.3173   15.9614   21.2775 O   0  0  0  0  0  0  0  0  0  0  0  0
    7.6525   16.7910   22.1996 C   0  0  0  0  0  0  0  0  0  0  0  0
    6.2436   17.0282   21.6422 C   0  0  0  0  0  0  0  0  0  0  0  0
    6.2859   16.4776   20.2035 C   0  0  0  0  0  0  0  0  0  0  0  0
   10.3567   18.7322   15.0538 C   0  0  0  0  0  0  0  0  0  0  0  0
   10.1402   16.2448   14.7234 C   0  0  0  0  0  0  0  0  0  0  0  0
    9.3591   15.1230   14.4393 C   0  0  0  0  0  0  0  0  0  0  0  0
    7.9684   15.1856   14.4382 C   0  0  0  0  0  0  0  0  0  0  0  0
    7.3730   16.4222   14.6616 C   0  0  0  0  0  0  0  0  0  0  0  0
    8.1361   17.5669   14.8663 C   0  0  0  0  0  0  0  0  0  0  0  0
    9.5135   17.4833   14.8653 C   0  0  0  0  0  0  0  0  0  0  0  0
 16 15  1  0  0  0
  9 15  1  0  0  0
 10  9  2  0  0  0
  9 14  1  0  0  0
 11 10  1  0  0  0
 11 12  2  0  0  0
  6 12  1  0  0  0
 12 13  1  0  0  0
 13 14  2  0  0  0
  8  6  2  0  0  0
  5  6  1  0  0  0
  6  7  2  0  0  0
 17  5  1  0  0  0
  5  4  1  0  0  0
 18 17  1  0  0  0
 20 18  1  0  0  0
 19 18  1  0  0  0
 23 19  1  0  0  0
 21 20  1  0  0  0
 22 21  2  0  0  0
 21 23  1  0  0  0
  1  4  1  0  0  0
  1 25  1  0  0  0
  1  2  1  0  0  0
 26 25  1  0  0  0
 25 39  1  0  0  0
 27 26  1  0  0  0
 28 27  2  0  0  0
 30 27  1  0  0  0
 32 30  1  0  0  0
 32 31  1  0  0  0
 31 38  1  0  0  0
 33 32  1  0  0  0
 33 34  1  0  0  0
 34 38  1  0  0  0
 34 35  1  0  0  0
 35 36  1  0  0  0
 37 36  1  0  0  0
 38 37  1  0  0  0
 39 45  1  0  0  0
 45 40  2  0  0  0
 40 41  1  0  0  0
 42 41  2  0  0  0
 43 42  1  0  0  0
 44 43  2  0  0  0
 44 45  1  0  0  0
 20 24  1  0  0  0
  2  3  1  0  0  0
 26 29  1  0  0  0
M  END
> <minimizedAffinity>
-9.45182

$$$$
