3VFB_031_A_201
  RCSB PDB12061711133D
Coordinates from PDB:3VFB:A:201 Model:1 without hydrogens
 42 46  0  0  0  0            999 V2000
    7.7930   14.2590   14.4240   O 0  0  0  0  0  0  0  0  0  0  0  0
    6.4080   14.1270   14.6630   C 0  0  0  0  0  0  0  0  0  0  0  0
    8.3800   15.4480   14.7280   C 0  0  0  0  0  0  0  0  0  0  0  0
    7.7370   16.5720   15.2430   C 0  0  0  0  0  0  0  0  0  0  0  0
    8.4810   17.7210   15.5410   C 0  0  0  0  0  0  0  0  0  0  0  0
    9.8510   17.7550   15.3460   C 0  0  0  0  0  0  0  0  0  0  0  0
   10.4390   16.6690   14.7490   C 0  0  0  0  0  0  0  0  0  0  0  0
    9.7220   15.5600   14.3700   C 0  0  0  0  0  0  0  0  0  0  0  0
   10.8730   19.1060   15.8520   S 0  0  0  0  0  0  0  0  0  0  0  0
   11.9470   19.3090   14.8650   O 0  0  0  0  0  0  0  0  0  0  0  0
    9.9650   20.2810   16.0510   O 0  0  0  0  0  0  0  0  0  0  0  0
   11.5220   18.7170   17.3150   N 0  0  0  0  0  0  0  0  0  0  0  0
   10.6060   18.3100   18.3250   C 0  0  0  0  0  0  0  0  0  0  0  0
   11.0990   18.6470   19.7350   C 0  0  0  0  0  0  0  0  0  0  0  0
   11.0450   20.1310   20.0250   C 0  0  0  0  0  0  0  0  0  0  0  0
   10.1030   18.0310   20.6140   N 0  0  0  0  0  0  0  0  0  0  0  0
    9.3120   18.8950   21.1410   C 0  0  0  0  0  0  0  0  0  0  0  0
    8.4090   18.4860   21.8590   O 0  0  0  0  0  0  0  0  0  0  0  0
    9.7010   20.3000   20.7630   C 0  0  0  0  0  0  0  0  0  0  0  0
   12.8200   18.0740   17.3300   C 0  0  0  0  0  0  0  0  0  0  0  0
   13.9090   18.9610   17.9410   C 0  0  0  0  0  0  0  0  0  0  0  0
   15.0070   18.1580   18.3250   O 0  0  0  0  0  0  0  0  0  0  0  0
   14.3450   20.1300   17.0620   C 0  0  0  0  0  0  0  0  0  0  0  0
   15.1310   21.0830   17.8070   N 0  0  0  0  0  0  0  0  0  0  0  0
   14.7680   22.2710   18.2920   C 0  0  0  0  0  0  0  0  0  0  0  0
   13.6480   22.7340   18.1890   O 0  0  0  0  0  0  0  0  0  0  0  0
   15.7880   22.9380   18.9320   O 0  0  0  0  0  0  0  0  0  0  0  0
   15.5270   25.1870   18.1160   C 0  0  0  0  0  0  0  0  0  0  0  0
   15.4920   24.2730   19.3320   C 0  0  0  0  0  0  0  0  0  0  0  0
   16.6490   24.8180   20.1830   C 0  0  0  0  0  0  0  0  0  0  0  0
   17.7200   25.2040   19.1860   C 0  0  0  0  0  0  0  0  0  0  0  0
   18.4800   24.0710   18.7550   O 0  0  0  0  0  0  0  0  0  0  0  0
   18.5390   23.9520   17.3540   C 0  0  0  0  0  0  0  0  0  0  0  0
   17.7030   25.1020   16.7790   C 0  0  0  0  0  0  0  0  0  0  0  0
   16.9610   25.7000   17.9900   C 0  0  0  0  0  0  0  0  0  0  0  0
   15.0790   19.7460   15.7700   C 0  0  0  0  0  0  0  0  0  0  0  0
   16.7150   21.3790   14.7700   C 0  0  0  0  0  0  0  0  0  0  0  0
   16.9760   22.5500   14.0560   C 0  0  0  0  0  0  0  0  0  0  0  0
   15.9740   23.2120   13.3520   C 0  0  0  0  0  0  0  0  0  0  0  0
   14.6800   22.7100   13.4360   C 0  0  0  0  0  0  0  0  0  0  0  0
   14.3860   21.5910   14.2080   C 0  0  0  0  0  0  0  0  0  0  0  0
   15.3940   20.9480   14.8970   C 0  0  0  0  0  0  0  0  0  0  0  0
  2  1  1  0  0  0  0
  3  1  1  0  0  0  0
  4  3  2  0  0  0  0
  3  8  1  0  0  0  0
  5  4  1  0  0  0  0
  5  6  2  0  0  0  0
  9  6  1  0  0  0  0
  6  7  1  0  0  0  0
  7  8  2  0  0  0  0
 11  9  2  0  0  0  0
 12  9  1  0  0  0  0
  9 10  2  0  0  0  0
 13 12  1  0  0  0  0
 12 20  1  0  0  0  0
 14 13  1  0  0  0  0
 16 14  1  0  0  0  0
 15 14  1  0  0  0  0
 19 15  1  0  0  0  0
 17 16  1  0  0  0  0
 18 17  2  0  0  0  0
 17 19  1  0  0  0  0
 21 20  1  0  0  0  0
 21 23  1  0  0  0  0
 21 22  1  0  0  0  0
 24 23  1  0  0  0  0
 23 36  1  0  0  0  0
 25 24  1  0  0  0  0
 26 25  2  0  0  0  0
 27 25  1  0  0  0  0
 29 27  1  0  0  0  0
 29 28  1  0  0  0  0
 28 35  1  0  0  0  0
 30 29  1  0  0  0  0
 30 31  1  0  0  0  0
 31 35  1  0  0  0  0
 31 32  1  0  0  0  0
 32 33  1  0  0  0  0
 34 33  1  0  0  0  0
 35 34  1  0  0  0  0
 36 42  1  0  0  0  0
 42 37  2  0  0  0  0
 37 38  1  0  0  0  0
 39 38  2  0  0  0  0
 40 39  1  0  0  0  0
 41 40  2  0  0  0  0
 41 42  1  0  0  0  0
A    1
O39
A    2
C40
A    3
C2
A    4
C3
A    5
C4
A    6
C5
A    7
C6
A    8
C7
A    9
S8
A   10
O9
A   11
O10
A   12
N11
A   13
C12
A   14
C13
A   15
C14
A   16
N15
A   17
C45
A   18
O46
A   19
C47
A   20
C16
A   21
C17
A   22
O18
A   23
C19
A   24
N20
A   25
C21
A   26
O22
A   27
O23
A   28
C24
A   29
C25
A   30
C26
A   31
C27
A   32
O28
A   33
C29
A   34
C30
A   35
C31
A   36
C32
A   37
C33
A   38
C34
A   39
C35
A   40
C36
A   41
C37
A   42
C38
M  END
>  <InstanceId>
3VFB_031_A_201

>  <ChemCompId>
031

>  <PdbId>
3VFB

>  <ChainId>
A

>  <ResidueNumber>
201

>  <InsertionCode>


>  <Model>
1

>  <AltIds>


>  <MissingHeavyAtoms>
0

>  <ObservedFormula>
C30 N3 O8 S

>  <Name>
(3aS,5R,6aR)-hexahydro-2H-cyclopenta[b]furan-5-yl [(1S,2R)-1-benzyl-2-hydroxy-3-([(4-methoxyphenyl)sulfonyl]{[(2R)-5-oxopyrrolidin-2-yl]methyl}amino)propyl]carbamate

>  <SystematicName>
[(3aS,5R,6aR)-3,3a,4,5,6,6a-hexahydro-2H-cyclopenta[b]furan-5-yl] N-[(2S,3R)-3-hydroxy-4-[(4-methoxyphenyl)sulfonyl-[[(2R)-5-oxopyrrolidin-2-yl]methyl]amino]-1-phenyl-butan-2-yl]carbamate

>  <Synonyms>


>  <Type>
NON-POLYMER

>  <Formula>
C30 H39 N3 O8 S

>  <MolecularWeight>
601.711

>  <ModifiedDate>
2011-06-04

>  <Parent>


>  <OneLetterCode>


>  <SubcomponentList>


>  <AmbiguousFlag>
N

>  <InChI>
InChI=1S/C30H39N3O8S/c1-39-23-8-10-25(11-9-23)42(37,38)33(18-22-7-12-29(35)31-22)19-27(34)26(15-20-5-3-2-4-6-20)32-30(36)41-24-16-21-13-14-40-28(21)17-24/h2-6,8-11,21-22,24,26-28,34H,7,12-19H2,1H3,(H,31,35)(H,32,36)/t21-,22+,24+,26-,27+,28+/m0/s1

>  <InChIKey>
RPIALZPTIFOQGC-CXLNPQPMSA-N

>  <SMILES>
COc1ccc(cc1)S(=O)(=O)[N@@](C[C@H]2CCC(=O)N2)C[C@H]([C@H](Cc3ccccc3)NC(=O)O[C@@H]4C[C@@H]5CCO[C@@H]5C4)O

$$$$
