6F3B_CJK_A_302


 28 29  0  0  0  0  0  0  0  0999 V2000
   12.2729   32.8875   16.0455 C   0  0  0  0  0  0  0  0  0  0  0  0
   13.3407   33.5512   16.6016 N   0  0  0  0  0  0  0  0  0  0  0  0
   11.0628   33.3944   16.3651 N   0  0  0  0  0  0  0  0  0  0  0  0
   12.4096   31.8983   15.3269 O   0  0  0  0  0  0  0  0  0  0  0  0
   14.2139   33.1062   16.5073 H   0  0  0  0  0  0  0  0  0  0  0  0
   11.0123   34.1883   16.9452 H   0  0  0  0  0  0  0  0  0  0  0  0
   13.3558   34.7907   17.2932 C   0  0  0  0  0  0  0  0  0  0  0  0
   13.7387   34.8275   18.6406 C   0  0  0  0  0  0  0  0  0  0  0  0
   13.8033   36.0513   19.2953 C   0  0  0  0  0  0  0  0  0  0  0  0
   13.5032   37.2339   18.6326 C   0  0  0  0  0  0  0  0  0  0  0  0
   13.1022   37.1927   17.3032 C   0  0  0  0  0  0  0  0  0  0  0  0
   13.0303   35.9797   16.6249 C   0  0  0  0  0  0  0  0  0  0  0  0
   12.6723   35.9273   15.2975 O   0  0  0  0  0  0  0  0  0  0  0  0
   12.4526   36.7150   14.8401 H   0  0  0  0  0  0  0  0  0  0  0  0
   15.2066   37.1773   21.1645 O   0  0  0  0  0  0  0  0  0  0  0  0
   14.2672   36.1089   21.0026 S   0  0  0  0  0  0  0  0  0  0  0  0
   14.6605   34.7861   21.3797 O   0  0  0  0  0  0  0  0  0  0  0  0
   12.9472   36.4888   21.8586 N   0  0  0  0  0  0  0  0  0  0  0  0
   12.6409   37.4298   21.6115 H   0  0  0  0  0  0  0  0  0  0  0  0
   13.1656   36.4528   22.8543 H   0  0  0  0  0  0  0  0  0  0  0  0
    9.8316   32.7951   15.8725 C   0  0  0  0  0  0  0  0  0  0  0  0
    6.6642   36.6055   12.7982 C   0  0  0  0  0  0  0  0  0  0  0  0
    7.2954   34.2503   13.4504 C   0  0  0  0  0  0  0  0  0  0  0  0
    8.9609   33.7790   15.1313 C   0  0  0  0  0  0  0  0  0  0  0  0
    9.0866   35.1432   15.3415 C   0  0  0  0  0  0  0  0  0  0  0  0
    8.3416   36.0483   14.6012 C   0  0  0  0  0  0  0  0  0  0  0  0
    7.4385   35.6187   13.6380 C   0  0  0  0  0  0  0  0  0  0  0  0
    8.0479   33.3441   14.1778 C   0  0  0  0  0  0  0  0  0  0  0  0
 22 27  1  0  0  0
 27 26  2  0  0  0
 27 23  1  0  0  0
 26 25  1  0  0  0
 23 28  2  0  0  0
 25 24  2  0  0  0
 28 24  1  0  0  0
 24 21  1  0  0  0
 13 12  1  0  0  0
  4  1  2  0  0  0
  1  2  1  0  0  0
  1  3  1  0  0  0
 21  3  1  0  0  0
 12 11  2  0  0  0
 12  7  1  0  0  0
  2  7  1  0  0  0
 11 10  1  0  0  0
  7  8  2  0  0  0
 10  9  2  0  0  0
  8  9  1  0  0  0
  9 16  1  0  0  0
 18 16  1  0  0  0
 16 15  2  0  0  0
 16 17  2  0  0  0
  2  5  1  0  0  0
  3  6  1  0  0  0
 13 14  1  0  0  0
 18 19  1  0  0  0
 18 20  1  0  0  0
M  END
> <minimizedAffinity>
-8.13705

$$$$
6F3B_CJK_A_302


 28 29  0  0  0  0  0  0  0  0999 V2000
   13.2587   34.8735   14.1365 C   0  0  0  0  0  0  0  0  0  0  0  0
   14.0320   34.3566   15.1488 N   0  0  0  0  0  0  0  0  0  0  0  0
   12.0750   35.3873   14.5345 N   0  0  0  0  0  0  0  0  0  0  0  0
   13.6111   34.8534   12.9579 O   0  0  0  0  0  0  0  0  0  0  0  0
   14.8208   33.8424   14.8612 H   0  0  0  0  0  0  0  0  0  0  0  0
   11.8439   35.3767   15.4914 H   0  0  0  0  0  0  0  0  0  0  0  0
   13.8480   34.4632   16.5523 C   0  0  0  0  0  0  0  0  0  0  0  0
   14.2257   35.6397   17.2131 C   0  0  0  0  0  0  0  0  0  0  0  0
   13.9923   35.7572   18.5777 C   0  0  0  0  0  0  0  0  0  0  0  0
   13.3847   34.7323   19.2906 C   0  0  0  0  0  0  0  0  0  0  0  0
   13.0315   33.5581   18.6376 C   0  0  0  0  0  0  0  0  0  0  0  0
   13.2539   33.4159   17.2712 C   0  0  0  0  0  0  0  0  0  0  0  0
   12.8742   32.2743   16.6039 O   0  0  0  0  0  0  0  0  0  0  0  0
   12.4763   31.5677   17.0733 H   0  0  0  0  0  0  0  0  0  0  0  0
   13.9967   38.3497   18.6772 O   0  0  0  0  0  0  0  0  0  0  0  0
   14.4823   37.2308   19.4272 S   0  0  0  0  0  0  0  0  0  0  0  0
   15.8874   37.1292   19.6762 O   0  0  0  0  0  0  0  0  0  0  0  0
   13.7319   37.2448   20.8612 N   0  0  0  0  0  0  0  0  0  0  0  0
   12.7247   37.3168   20.7172 H   0  0  0  0  0  0  0  0  0  0  0  0
   14.0554   38.0438   21.4065 H   0  0  0  0  0  0  0  0  0  0  0  0
   11.1329   35.9562   13.5824 C   0  0  0  0  0  0  0  0  0  0  0  0
    6.2154   32.8233   13.4984 C   0  0  0  0  0  0  0  0  0  0  0  0
    7.4753   34.9785   13.8709 C   0  0  0  0  0  0  0  0  0  0  0  0
    9.8504   35.1673   13.4901 C   0  0  0  0  0  0  0  0  0  0  0  0
    9.8512   33.8520   13.0530 C   0  0  0  0  0  0  0  0  0  0  0  0
    8.6834   33.1047   13.0451 C   0  0  0  0  0  0  0  0  0  0  0  0
    7.4766   33.6519   13.4605 C   0  0  0  0  0  0  0  0  0  0  0  0
    8.6421   35.7233   13.8935 C   0  0  0  0  0  0  0  0  0  0  0  0
 22 27  1  0  0  0
 27 26  2  0  0  0
 27 23  1  0  0  0
 26 25  1  0  0  0
 23 28  2  0  0  0
 25 24  2  0  0  0
 28 24  1  0  0  0
 24 21  1  0  0  0
 13 12  1  0  0  0
  4  1  2  0  0  0
  1  2  1  0  0  0
  1  3  1  0  0  0
 21  3  1  0  0  0
 12 11  2  0  0  0
 12  7  1  0  0  0
  2  7  1  0  0  0
 11 10  1  0  0  0
  7  8  2  0  0  0
 10  9  2  0  0  0
  8  9  1  0  0  0
  9 16  1  0  0  0
 18 16  1  0  0  0
 16 15  2  0  0  0
 16 17  2  0  0  0
  2  5  1  0  0  0
  3  6  1  0  0  0
 13 14  1  0  0  0
 18 19  1  0  0  0
 18 20  1  0  0  0
M  END
> <minimizedAffinity>
-7.93579

$$$$
6F3B_CJK_A_302


 28 29  0  0  0  0  0  0  0  0999 V2000
    9.9930   33.8390   16.9695 C   0  0  0  0  0  0  0  0  0  0  0  0
   11.1924   33.5696   17.5851 N   0  0  0  0  0  0  0  0  0  0  0  0
    9.9746   34.9741   16.2382 N   0  0  0  0  0  0  0  0  0  0  0  0
    9.0086   33.1110   17.0904 O   0  0  0  0  0  0  0  0  0  0  0  0
   11.1780   32.8365   18.2420 H   0  0  0  0  0  0  0  0  0  0  0  0
   10.7920   35.5193   16.1765 H   0  0  0  0  0  0  0  0  0  0  0  0
   12.4488   34.2046   17.4025 C   0  0  0  0  0  0  0  0  0  0  0  0
   12.7972   35.2957   18.2096 C   0  0  0  0  0  0  0  0  0  0  0  0
   14.0504   35.8773   18.0615 C   0  0  0  0  0  0  0  0  0  0  0  0
   14.9612   35.3883   17.1347 C   0  0  0  0  0  0  0  0  0  0  0  0
   14.6051   34.3207   16.3203 C   0  0  0  0  0  0  0  0  0  0  0  0
   13.3563   33.7203   16.4494 C   0  0  0  0  0  0  0  0  0  0  0  0
   13.0043   32.6378   15.6767 O   0  0  0  0  0  0  0  0  0  0  0  0
   13.6021   32.3050   15.0364 H   0  0  0  0  0  0  0  0  0  0  0  0
   13.9575   38.4419   18.4425 O   0  0  0  0  0  0  0  0  0  0  0  0
   14.4951   37.2683   19.0620 S   0  0  0  0  0  0  0  0  0  0  0  0
   15.9062   37.1955   19.2858 O   0  0  0  0  0  0  0  0  0  0  0  0
   13.7637   37.0972   20.4956 N   0  0  0  0  0  0  0  0  0  0  0  0
   12.7526   37.1448   20.3693 H   0  0  0  0  0  0  0  0  0  0  0  0
   14.0637   37.8445   21.1216 H   0  0  0  0  0  0  0  0  0  0  0  0
    8.7752   35.4105   15.5392 C   0  0  0  0  0  0  0  0  0  0  0  0
    9.8798   37.3801   10.1631 C   0  0  0  0  0  0  0  0  0  0  0  0
   10.6174   36.4083   12.3727 C   0  0  0  0  0  0  0  0  0  0  0  0
    9.0537   35.8501   14.1234 C   0  0  0  0  0  0  0  0  0  0  0  0
    8.0228   36.2252   13.2764 C   0  0  0  0  0  0  0  0  0  0  0  0
    8.2878   36.7048   12.0028 C   0  0  0  0  0  0  0  0  0  0  0  0
    9.5893   36.8117   11.5310 C   0  0  0  0  0  0  0  0  0  0  0  0
   10.3574   35.9424   13.6501 C   0  0  0  0  0  0  0  0  0  0  0  0
 22 27  1  0  0  0
 27 26  2  0  0  0
 27 23  1  0  0  0
 26 25  1  0  0  0
 23 28  2  0  0  0
 25 24  2  0  0  0
 28 24  1  0  0  0
 24 21  1  0  0  0
 13 12  1  0  0  0
  4  1  2  0  0  0
  1  2  1  0  0  0
  1  3  1  0  0  0
 21  3  1  0  0  0
 12 11  2  0  0  0
 12  7  1  0  0  0
  2  7  1  0  0  0
 11 10  1  0  0  0
  7  8  2  0  0  0
 10  9  2  0  0  0
  8  9  1  0  0  0
  9 16  1  0  0  0
 18 16  1  0  0  0
 16 15  2  0  0  0
 16 17  2  0  0  0
  2  5  1  0  0  0
  3  6  1  0  0  0
 13 14  1  0  0  0
 18 19  1  0  0  0
 18 20  1  0  0  0
M  END
> <minimizedAffinity>
-7.36665

$$$$
6F3B_CJK_A_302


 28 29  0  0  0  0  0  0  0  0999 V2000
   11.3905   35.7218   13.8558 C   0  0  0  0  0  0  0  0  0  0  0  0
   11.0629   35.6786   15.1903 N   0  0  0  0  0  0  0  0  0  0  0  0
   12.7100   35.6064   13.5930 N   0  0  0  0  0  0  0  0  0  0  0  0
   10.5481   35.8715   12.9718 O   0  0  0  0  0  0  0  0  0  0  0  0
   10.1323   35.9156   15.4075 H   0  0  0  0  0  0  0  0  0  0  0  0
   13.3404   35.4889   14.3401 H   0  0  0  0  0  0  0  0  0  0  0  0
   11.8835   35.3389   16.2975 C   0  0  0  0  0  0  0  0  0  0  0  0
   12.5506   36.3503   17.0015 C   0  0  0  0  0  0  0  0  0  0  0  0
   13.3083   36.0153   18.1169 C   0  0  0  0  0  0  0  0  0  0  0  0
   13.4058   34.6986   18.5466 C   0  0  0  0  0  0  0  0  0  0  0  0
   12.7618   33.6949   17.8339 C   0  0  0  0  0  0  0  0  0  0  0  0
   11.9962   34.0045   16.7138 C   0  0  0  0  0  0  0  0  0  0  0  0
   11.3214   33.0260   16.0210 O   0  0  0  0  0  0  0  0  0  0  0  0
   11.3888   32.1308   16.2895 H   0  0  0  0  0  0  0  0  0  0  0  0
   13.8149   37.1678   20.3854 O   0  0  0  0  0  0  0  0  0  0  0  0
   14.1711   37.2816   19.0032 S   0  0  0  0  0  0  0  0  0  0  0  0
   13.9186   38.5179   18.3290 O   0  0  0  0  0  0  0  0  0  0  0  0
   15.7555   36.9742   18.8828 N   0  0  0  0  0  0  0  0  0  0  0  0
   15.9683   36.0957   19.3556 H   0  0  0  0  0  0  0  0  0  0  0  0
   16.2827   37.7310   19.3182 H   0  0  0  0  0  0  0  0  0  0  0  0
   13.2224   35.6517   12.2317 C   0  0  0  0  0  0  0  0  0  0  0  0
   14.6944   30.4256   10.1047 C   0  0  0  0  0  0  0  0  0  0  0  0
   14.8525   32.9446   10.1268 C   0  0  0  0  0  0  0  0  0  0  0  0
   13.6606   34.2986   11.7291 C   0  0  0  0  0  0  0  0  0  0  0  0
   13.1926   33.1333   12.3157 C   0  0  0  0  0  0  0  0  0  0  0  0
   13.5337   31.8918   11.8014 C   0  0  0  0  0  0  0  0  0  0  0  0
   14.3634   31.7754   10.6941 C   0  0  0  0  0  0  0  0  0  0  0  0
   14.5026   34.1864   10.6290 C   0  0  0  0  0  0  0  0  0  0  0  0
 22 27  1  0  0  0
 27 26  2  0  0  0
 27 23  1  0  0  0
 26 25  1  0  0  0
 23 28  2  0  0  0
 25 24  2  0  0  0
 28 24  1  0  0  0
 24 21  1  0  0  0
 13 12  1  0  0  0
  4  1  2  0  0  0
  1  2  1  0  0  0
  1  3  1  0  0  0
 21  3  1  0  0  0
 12 11  2  0  0  0
 12  7  1  0  0  0
  2  7  1  0  0  0
 11 10  1  0  0  0
  7  8  2  0  0  0
 10  9  2  0  0  0
  8  9  1  0  0  0
  9 16  1  0  0  0
 18 16  1  0  0  0
 16 15  2  0  0  0
 16 17  2  0  0  0
  2  5  1  0  0  0
  3  6  1  0  0  0
 13 14  1  0  0  0
 18 19  1  0  0  0
 18 20  1  0  0  0
M  END
> <minimizedAffinity>
-7.21614

$$$$
6F3B_CJK_A_302


 28 29  0  0  0  0  0  0  0  0999 V2000
   12.3939   33.3578   14.9227 C   0  0  0  0  0  0  0  0  0  0  0  0
   11.6235   33.9370   13.9423 N   0  0  0  0  0  0  0  0  0  0  0  0
   11.9396   33.5403   16.1811 N   0  0  0  0  0  0  0  0  0  0  0  0
   13.4261   32.7367   14.6729 O   0  0  0  0  0  0  0  0  0  0  0  0
   12.0194   33.9473   13.0410 H   0  0  0  0  0  0  0  0  0  0  0  0
   11.1073   34.0467   16.3229 H   0  0  0  0  0  0  0  0  0  0  0  0
   10.3350   34.5221   14.0528 C   0  0  0  0  0  0  0  0  0  0  0  0
    9.2200   33.8433   13.5434 C   0  0  0  0  0  0  0  0  0  0  0  0
    7.9559   34.3973   13.7037 C   0  0  0  0  0  0  0  0  0  0  0  0
    7.7826   35.6049   14.3666 C   0  0  0  0  0  0  0  0  0  0  0  0
    8.8918   36.2868   14.8510 C   0  0  0  0  0  0  0  0  0  0  0  0
   10.1684   35.7529   14.7038 C   0  0  0  0  0  0  0  0  0  0  0  0
   11.2721   36.3980   15.2124 O   0  0  0  0  0  0  0  0  0  0  0  0
   11.1736   37.2210   15.6495 H   0  0  0  0  0  0  0  0  0  0  0  0
    5.5012   34.5269   12.8738 O   0  0  0  0  0  0  0  0  0  0  0  0
    6.5416   33.5587   13.0480 S   0  0  0  0  0  0  0  0  0  0  0  0
    6.2927   32.4273   13.8875 O   0  0  0  0  0  0  0  0  0  0  0  0
    6.9367   33.0008   11.5810 N   0  0  0  0  0  0  0  0  0  0  0  0
    7.1208   33.7862   10.9568 H   0  0  0  0  0  0  0  0  0  0  0  0
    6.1663   32.4449   11.2098 H   0  0  0  0  0  0  0  0  0  0  0  0
   12.6512   33.0063   17.3328 C   0  0  0  0  0  0  0  0  0  0  0  0
   14.3828   37.0423   21.1688 C   0  0  0  0  0  0  0  0  0  0  0  0
   13.8645   36.2833   18.8180 C   0  0  0  0  0  0  0  0  0  0  0  0
   13.0283   34.0732   18.3303 C   0  0  0  0  0  0  0  0  0  0  0  0
   13.0110   33.8155   19.6921 C   0  0  0  0  0  0  0  0  0  0  0  0
   13.4346   34.7719   20.6021 C   0  0  0  0  0  0  0  0  0  0  0  0
   13.8754   36.0195   20.1813 C   0  0  0  0  0  0  0  0  0  0  0  0
   13.4557   35.3257   17.9056 C   0  0  0  0  0  0  0  0  0  0  0  0
 22 27  1  0  0  0
 27 26  2  0  0  0
 27 23  1  0  0  0
 26 25  1  0  0  0
 23 28  2  0  0  0
 25 24  2  0  0  0
 28 24  1  0  0  0
 24 21  1  0  0  0
 13 12  1  0  0  0
  4  1  2  0  0  0
  1  2  1  0  0  0
  1  3  1  0  0  0
 21  3  1  0  0  0
 12 11  2  0  0  0
 12  7  1  0  0  0
  2  7  1  0  0  0
 11 10  1  0  0  0
  7  8  2  0  0  0
 10  9  2  0  0  0
  8  9  1  0  0  0
  9 16  1  0  0  0
 18 16  1  0  0  0
 16 15  2  0  0  0
 16 17  2  0  0  0
  2  5  1  0  0  0
  3  6  1  0  0  0
 13 14  1  0  0  0
 18 19  1  0  0  0
 18 20  1  0  0  0
M  END
> <minimizedAffinity>
-7.09232

$$$$
6F3B_CJK_A_302


 28 29  0  0  0  0  0  0  0  0999 V2000
   11.3537   35.7232   14.2937 C   0  0  0  0  0  0  0  0  0  0  0  0
   11.2783   36.1068   15.6117 N   0  0  0  0  0  0  0  0  0  0  0  0
   12.3943   34.9150   13.9981 N   0  0  0  0  0  0  0  0  0  0  0  0
   10.5454   36.1016   13.4468 O   0  0  0  0  0  0  0  0  0  0  0  0
   10.6236   36.8142   15.8119 H   0  0  0  0  0  0  0  0  0  0  0  0
   13.0111   34.6436   14.7158 H   0  0  0  0  0  0  0  0  0  0  0  0
   12.0160   35.6217   16.7232 C   0  0  0  0  0  0  0  0  0  0  0  0
   12.9768   36.4426   17.3285 C   0  0  0  0  0  0  0  0  0  0  0  0
   13.6560   35.9808   18.4492 C   0  0  0  0  0  0  0  0  0  0  0  0
   13.3902   34.7258   18.9803 C   0  0  0  0  0  0  0  0  0  0  0  0
   12.4533   33.9050   18.3651 C   0  0  0  0  0  0  0  0  0  0  0  0
   11.7591   34.3444   17.2419 C   0  0  0  0  0  0  0  0  0  0  0  0
   10.8009   33.5578   16.6454 O   0  0  0  0  0  0  0  0  0  0  0  0
   10.6202   32.7026   16.9828 H   0  0  0  0  0  0  0  0  0  0  0  0
   15.0435   36.5586   20.5640 O   0  0  0  0  0  0  0  0  0  0  0  0
   14.8855   37.0010   19.2113 S   0  0  0  0  0  0  0  0  0  0  0  0
   14.5140   38.3619   18.9734 O   0  0  0  0  0  0  0  0  0  0  0  0
   16.2873   36.7365   18.4468 N   0  0  0  0  0  0  0  0  0  0  0  0
   16.5801   35.7712   18.5978 H   0  0  0  0  0  0  0  0  0  0  0  0
   16.9989   37.3689   18.8130 H   0  0  0  0  0  0  0  0  0  0  0  0
   12.6256   34.4356   12.6437 C   0  0  0  0  0  0  0  0  0  0  0  0
   12.2595   28.6192   12.4460 C   0  0  0  0  0  0  0  0  0  0  0  0
   11.3244   30.8896   13.0306 C   0  0  0  0  0  0  0  0  0  0  0  0
   12.4970   32.9372   12.5264 C   0  0  0  0  0  0  0  0  0  0  0  0
   13.4837   32.1818   11.9125 C   0  0  0  0  0  0  0  0  0  0  0  0
   13.4012   30.7982   11.8770 C   0  0  0  0  0  0  0  0  0  0  0  0
   12.3244   30.1273   12.4414 C   0  0  0  0  0  0  0  0  0  0  0  0
   11.4105   32.2705   13.0803 C   0  0  0  0  0  0  0  0  0  0  0  0
 22 27  1  0  0  0
 27 26  2  0  0  0
 27 23  1  0  0  0
 26 25  1  0  0  0
 23 28  2  0  0  0
 25 24  2  0  0  0
 28 24  1  0  0  0
 24 21  1  0  0  0
 13 12  1  0  0  0
  4  1  2  0  0  0
  1  2  1  0  0  0
  1  3  1  0  0  0
 21  3  1  0  0  0
 12 11  2  0  0  0
 12  7  1  0  0  0
  2  7  1  0  0  0
 11 10  1  0  0  0
  7  8  2  0  0  0
 10  9  2  0  0  0
  8  9  1  0  0  0
  9 16  1  0  0  0
 18 16  1  0  0  0
 16 15  2  0  0  0
 16 17  2  0  0  0
  2  5  1  0  0  0
  3  6  1  0  0  0
 13 14  1  0  0  0
 18 19  1  0  0  0
 18 20  1  0  0  0
M  END
> <minimizedAffinity>
-6.93733

$$$$
6F3B_CJK_A_302


 28 29  0  0  0  0  0  0  0  0999 V2000
   11.9662   33.0183   15.0972 C   0  0  0  0  0  0  0  0  0  0  0  0
   10.7061   33.0408   14.5480 N   0  0  0  0  0  0  0  0  0  0  0  0
   12.4069   34.2110   15.5516 N   0  0  0  0  0  0  0  0  0  0  0  0
   12.6455   31.9940   15.1539 O   0  0  0  0  0  0  0  0  0  0  0  0
   10.4337   32.2215   14.0749 H   0  0  0  0  0  0  0  0  0  0  0  0
   11.8208   34.9988   15.4804 H   0  0  0  0  0  0  0  0  0  0  0  0
    9.7443   34.0846   14.5701 C   0  0  0  0  0  0  0  0  0  0  0  0
    9.3819   34.7181   13.3739 C   0  0  0  0  0  0  0  0  0  0  0  0
    8.4004   35.7012   13.3962 C   0  0  0  0  0  0  0  0  0  0  0  0
    7.7705   36.0567   14.5814 C   0  0  0  0  0  0  0  0  0  0  0  0
    8.1473   35.4430   15.7694 C   0  0  0  0  0  0  0  0  0  0  0  0
    9.1272   34.4549   15.7736 C   0  0  0  0  0  0  0  0  0  0  0  0
    9.4831   33.8112   16.9363 O   0  0  0  0  0  0  0  0  0  0  0  0
    9.0778   34.0498   17.7468 H   0  0  0  0  0  0  0  0  0  0  0  0
    9.0931   37.2435   11.4283 O   0  0  0  0  0  0  0  0  0  0  0  0
    7.9475   36.5222   11.8947 S   0  0  0  0  0  0  0  0  0  0  0  0
    6.7404   37.2447   12.1543 O   0  0  0  0  0  0  0  0  0  0  0  0
    7.6088   35.3844   10.7947 N   0  0  0  0  0  0  0  0  0  0  0  0
    8.4525   34.8499   10.5875 H   0  0  0  0  0  0  0  0  0  0  0  0
    7.2687   35.8272    9.9411 H   0  0  0  0  0  0  0  0  0  0  0  0
   13.7277   34.3596   16.1442 C   0  0  0  0  0  0  0  0  0  0  0  0
   13.2463   35.9273   21.7400 C   0  0  0  0  0  0  0  0  0  0  0  0
   13.0205   34.2440   19.8729 C   0  0  0  0  0  0  0  0  0  0  0  0
   13.6721   34.7391   17.6031 C   0  0  0  0  0  0  0  0  0  0  0  0
   14.1069   35.9825   18.0344 C   0  0  0  0  0  0  0  0  0  0  0  0
   13.9806   36.3583   19.3630 C   0  0  0  0  0  0  0  0  0  0  0  0
   13.4289   35.4992   20.3040 C   0  0  0  0  0  0  0  0  0  0  0  0
   13.1320   33.8707   18.5444 C   0  0  0  0  0  0  0  0  0  0  0  0
 22 27  1  0  0  0
 27 26  2  0  0  0
 27 23  1  0  0  0
 26 25  1  0  0  0
 23 28  2  0  0  0
 25 24  2  0  0  0
 28 24  1  0  0  0
 24 21  1  0  0  0
 13 12  1  0  0  0
  4  1  2  0  0  0
  1  2  1  0  0  0
  1  3  1  0  0  0
 21  3  1  0  0  0
 12 11  2  0  0  0
 12  7  1  0  0  0
  2  7  1  0  0  0
 11 10  1  0  0  0
  7  8  2  0  0  0
 10  9  2  0  0  0
  8  9  1  0  0  0
  9 16  1  0  0  0
 18 16  1  0  0  0
 16 15  2  0  0  0
 16 17  2  0  0  0
  2  5  1  0  0  0
  3  6  1  0  0  0
 13 14  1  0  0  0
 18 19  1  0  0  0
 18 20  1  0  0  0
M  END
> <minimizedAffinity>
-6.89149

$$$$
6F3B_CJK_A_302


 28 29  0  0  0  0  0  0  0  0999 V2000
   11.1864   35.3021   14.0588 C   0  0  0  0  0  0  0  0  0  0  0  0
   11.0551   35.7378   15.3561 N   0  0  0  0  0  0  0  0  0  0  0  0
   12.3276   34.6278   13.8011 N   0  0  0  0  0  0  0  0  0  0  0  0
   10.3377   35.5250   13.1964 O   0  0  0  0  0  0  0  0  0  0  0  0
   10.3102   36.3597   15.5225 H   0  0  0  0  0  0  0  0  0  0  0  0
   12.9726   34.4786   14.5297 H   0  0  0  0  0  0  0  0  0  0  0  0
   11.8472   35.4131   16.4883 C   0  0  0  0  0  0  0  0  0  0  0  0
   12.5946   36.4152   17.1213 C   0  0  0  0  0  0  0  0  0  0  0  0
   13.3243   36.1009   18.2611 C   0  0  0  0  0  0  0  0  0  0  0  0
   13.3160   34.8147   18.7840 C   0  0  0  0  0  0  0  0  0  0  0  0
   12.5922   33.8178   18.1419 C   0  0  0  0  0  0  0  0  0  0  0  0
   11.8526   34.1072   16.9992 C   0  0  0  0  0  0  0  0  0  0  0  0
   11.1001   33.1391   16.3751 O   0  0  0  0  0  0  0  0  0  0  0  0
   11.0955   32.2629   16.7070 H   0  0  0  0  0  0  0  0  0  0  0  0
   14.0201   37.2827   20.4634 O   0  0  0  0  0  0  0  0  0  0  0  0
   14.2876   37.3537   19.0586 S   0  0  0  0  0  0  0  0  0  0  0  0
   14.0344   38.5836   18.3730 O   0  0  0  0  0  0  0  0  0  0  0  0
   15.8489   36.9864   18.8421 N   0  0  0  0  0  0  0  0  0  0  0  0
   16.0618   36.1111   19.3207 H   0  0  0  0  0  0  0  0  0  0  0  0
   16.4299   37.7327   19.2239 H   0  0  0  0  0  0  0  0  0  0  0  0
   12.6265   34.1165   12.4718 C   0  0  0  0  0  0  0  0  0  0  0  0
   14.6140   38.4090    9.0620 C   0  0  0  0  0  0  0  0  0  0  0  0
   14.8075   36.8894   11.0680 C   0  0  0  0  0  0  0  0  0  0  0  0
   13.1789   35.1759   11.5510 C   0  0  0  0  0  0  0  0  0  0  0  0
   12.5188   35.5206   10.3820 C   0  0  0  0  0  0  0  0  0  0  0  0
   12.9859   36.5495    9.5786 C   0  0  0  0  0  0  0  0  0  0  0  0
   14.1338   37.2568    9.9107 C   0  0  0  0  0  0  0  0  0  0  0  0
   14.3362   35.8720   11.8800 C   0  0  0  0  0  0  0  0  0  0  0  0
 22 27  1  0  0  0
 27 26  2  0  0  0
 27 23  1  0  0  0
 26 25  1  0  0  0
 23 28  2  0  0  0
 25 24  2  0  0  0
 28 24  1  0  0  0
 24 21  1  0  0  0
 13 12  1  0  0  0
  4  1  2  0  0  0
  1  2  1  0  0  0
  1  3  1  0  0  0
 21  3  1  0  0  0
 12 11  2  0  0  0
 12  7  1  0  0  0
  2  7  1  0  0  0
 11 10  1  0  0  0
  7  8  2  0  0  0
 10  9  2  0  0  0
  8  9  1  0  0  0
  9 16  1  0  0  0
 18 16  1  0  0  0
 16 15  2  0  0  0
 16 17  2  0  0  0
  2  5  1  0  0  0
  3  6  1  0  0  0
 13 14  1  0  0  0
 18 19  1  0  0  0
 18 20  1  0  0  0
M  END
> <minimizedAffinity>
-6.84368

$$$$
6F3B_CJK_A_302


 28 29  0  0  0  0  0  0  0  0999 V2000
   10.9324   33.7860   16.4836 C   0  0  0  0  0  0  0  0  0  0  0  0
   10.6954   34.1475   15.1786 N   0  0  0  0  0  0  0  0  0  0  0  0
   12.2015   33.4049   16.7437 N   0  0  0  0  0  0  0  0  0  0  0  0
   10.0519   33.7929   17.3428 O   0  0  0  0  0  0  0  0  0  0  0  0
    9.7495   34.2770   14.9383 H   0  0  0  0  0  0  0  0  0  0  0  0
   12.8658   33.4183   16.0173 H   0  0  0  0  0  0  0  0  0  0  0  0
   11.6289   34.3595   14.1304 C   0  0  0  0  0  0  0  0  0  0  0  0
   12.0516   33.2755   13.3495 C   0  0  0  0  0  0  0  0  0  0  0  0
   12.9234   33.4998   12.2911 C   0  0  0  0  0  0  0  0  0  0  0  0
   13.3724   34.7793   11.9928 C   0  0  0  0  0  0  0  0  0  0  0  0
   12.9696   35.8492   12.7822 C   0  0  0  0  0  0  0  0  0  0  0  0
   12.0964   35.6509   13.8475 C   0  0  0  0  0  0  0  0  0  0  0  0
   11.6584   36.7063   14.6138 O   0  0  0  0  0  0  0  0  0  0  0  0
   11.9636   37.5739   14.4346 H   0  0  0  0  0  0  0  0  0  0  0  0
   14.6044   32.5796   10.5422 O   0  0  0  0  0  0  0  0  0  0  0  0
   13.4796   32.1360   11.3093 S   0  0  0  0  0  0  0  0  0  0  0  0
   12.3389   31.6182   10.6183 O   0  0  0  0  0  0  0  0  0  0  0  0
   14.0036   30.9844   12.3186 N   0  0  0  0  0  0  0  0  0  0  0  0
   14.8194   31.3242   12.8279 H   0  0  0  0  0  0  0  0  0  0  0  0
   14.2582   30.1538   11.7840 H   0  0  0  0  0  0  0  0  0  0  0  0
   12.6105   32.9747   18.0724 C   0  0  0  0  0  0  0  0  0  0  0  0
   14.8427   37.2733   21.3193 C   0  0  0  0  0  0  0  0  0  0  0  0
   14.0674   36.3229   19.1132 C   0  0  0  0  0  0  0  0  0  0  0  0
   13.1187   34.1126   18.9222 C   0  0  0  0  0  0  0  0  0  0  0  0
   13.2306   33.9821   20.2975 C   0  0  0  0  0  0  0  0  0  0  0  0
   13.7728   35.0002   21.0667 C   0  0  0  0  0  0  0  0  0  0  0  0
   14.2073   36.1853   20.4879 C   0  0  0  0  0  0  0  0  0  0  0  0
   13.5396   35.3027   18.3404 C   0  0  0  0  0  0  0  0  0  0  0  0
 22 27  1  0  0  0
 27 26  2  0  0  0
 27 23  1  0  0  0
 26 25  1  0  0  0
 23 28  2  0  0  0
 25 24  2  0  0  0
 28 24  1  0  0  0
 24 21  1  0  0  0
 13 12  1  0  0  0
  4  1  2  0  0  0
  1  2  1  0  0  0
  1  3  1  0  0  0
 21  3  1  0  0  0
 12 11  2  0  0  0
 12  7  1  0  0  0
  2  7  1  0  0  0
 11 10  1  0  0  0
  7  8  2  0  0  0
 10  9  2  0  0  0
  8  9  1  0  0  0
  9 16  1  0  0  0
 18 16  1  0  0  0
 16 15  2  0  0  0
 16 17  2  0  0  0
  2  5  1  0  0  0
  3  6  1  0  0  0
 13 14  1  0  0  0
 18 19  1  0  0  0
 18 20  1  0  0  0
M  END
> <minimizedAffinity>
-6.81060

$$$$
6F3B_CJK_A_302


 28 29  0  0  0  0  0  0  0  0999 V2000
   10.3620   34.9697   14.0626 C   0  0  0  0  0  0  0  0  0  0  0  0
   10.2883   33.9895   13.1014 N   0  0  0  0  0  0  0  0  0  0  0  0
   11.6157   35.2935   14.4458 N   0  0  0  0  0  0  0  0  0  0  0  0
    9.3622   35.4977   14.5477 O   0  0  0  0  0  0  0  0  0  0  0  0
    9.3874   33.6340   12.9248 H   0  0  0  0  0  0  0  0  0  0  0  0
   12.3799   34.8381   14.0240 H   0  0  0  0  0  0  0  0  0  0  0  0
   11.3344   33.4203   12.3290 C   0  0  0  0  0  0  0  0  0  0  0  0
   11.6920   32.0801   12.5279 C   0  0  0  0  0  0  0  0  0  0  0  0
   12.6796   31.5151   11.7305 C   0  0  0  0  0  0  0  0  0  0  0  0
   13.3080   32.2549   10.7378 C   0  0  0  0  0  0  0  0  0  0  0  0
   12.9676   33.5896   10.5575 C   0  0  0  0  0  0  0  0  0  0  0  0
   11.9811   34.1787   11.3426 C   0  0  0  0  0  0  0  0  0  0  0  0
   11.6063   35.4883   11.1495 O   0  0  0  0  0  0  0  0  0  0  0  0
   12.0310   36.0053   10.4935 H   0  0  0  0  0  0  0  0  0  0  0  0
   12.8875   29.1124   10.7738 O   0  0  0  0  0  0  0  0  0  0  0  0
   13.1535   29.8286   11.9849 S   0  0  0  0  0  0  0  0  0  0  0  0
   12.5263   29.3899   13.1935 O   0  0  0  0  0  0  0  0  0  0  0  0
   14.7536   29.7981   12.2260 N   0  0  0  0  0  0  0  0  0  0  0  0
   15.2310   30.1067   11.3791 H   0  0  0  0  0  0  0  0  0  0  0  0
   15.0451   28.8474   12.4533 H   0  0  0  0  0  0  0  0  0  0  0  0
   11.8640   36.2995   15.4676 C   0  0  0  0  0  0  0  0  0  0  0  0
   13.5902   34.1301   20.5976 C   0  0  0  0  0  0  0  0  0  0  0  0
   12.2923   33.9741   18.4385 C   0  0  0  0  0  0  0  0  0  0  0  0
   12.3675   35.7054   16.7595 C   0  0  0  0  0  0  0  0  0  0  0  0
   13.2871   36.3816   17.5457 C   0  0  0  0  0  0  0  0  0  0  0  0
   13.6873   35.8704   18.7708 C   0  0  0  0  0  0  0  0  0  0  0  0
   13.1920   34.6618   19.2422 C   0  0  0  0  0  0  0  0  0  0  0  0
   11.8797   34.4885   17.2212 C   0  0  0  0  0  0  0  0  0  0  0  0
 22 27  1  0  0  0
 27 26  2  0  0  0
 27 23  1  0  0  0
 26 25  1  0  0  0
 23 28  2  0  0  0
 25 24  2  0  0  0
 28 24  1  0  0  0
 24 21  1  0  0  0
 13 12  1  0  0  0
  4  1  2  0  0  0
  1  2  1  0  0  0
  1  3  1  0  0  0
 21  3  1  0  0  0
 12 11  2  0  0  0
 12  7  1  0  0  0
  2  7  1  0  0  0
 11 10  1  0  0  0
  7  8  2  0  0  0
 10  9  2  0  0  0
  8  9  1  0  0  0
  9 16  1  0  0  0
 18 16  1  0  0  0
 16 15  2  0  0  0
 16 17  2  0  0  0
  2  5  1  0  0  0
  3  6  1  0  0  0
 13 14  1  0  0  0
 18 19  1  0  0  0
 18 20  1  0  0  0
M  END
> <minimizedAffinity>
-6.58091

$$$$
