1ZC9_PMP_A_502


 21 21  0  0  0  0  0  0  0  0999 V2000
   17.9080   50.6566   18.1905 N   0  0  0  0  0  0  0  0  0  0  0  0
   19.1666   50.5193   17.6248 C   0  0  0  0  0  0  0  0  0  0  0  0
   20.3551   50.1860   18.5449 C   0  0  0  0  0  0  0  0  0  0  0  0
   19.2389   50.7165   16.2071 C   0  0  0  0  0  0  0  0  0  0  0  0
   20.4577   50.5894   15.6467 O   0  0  0  0  0  0  0  0  0  0  0  0
   18.0993   51.0335   15.4426 C   0  0  0  0  0  0  0  0  0  0  0  0
   16.8411   51.1449   16.1387 C   0  0  0  0  0  0  0  0  0  0  0  0
   16.7414   50.9557   17.4969 C   0  0  0  0  0  0  0  0  0  0  0  0
   21.1987   50.3778   16.1797 H   0  0  0  0  0  0  0  0  0  0  0  0
   18.2416   51.2328   14.0000 C   0  0  0  0  0  0  0  0  0  0  0  0
   18.2604   52.5013   13.6344 N   0  0  0  0  0  0  0  0  0  0  0  0
   17.3740   52.9401   13.8835 H   0  0  0  0  0  0  0  0  0  0  0  0
   18.3984   52.5624   12.6256 H   0  0  0  0  0  0  0  0  0  0  0  0
   15.5074   51.4815   15.3789 C   0  0  0  0  0  0  0  0  0  0  0  0
   14.7609   52.4977   16.0126 O   0  0  0  0  0  0  0  0  0  0  0  0
   14.7028   53.9269   15.3046 P   0  0  0  0  0  0  0  0  0  0  0  0
   13.3131   54.0418   14.8401 O   0  0  0  0  0  0  0  0  0  0  0  0
   14.9907   55.0373   16.2954 O   0  0  0  0  0  0  0  0  0  0  0  0
   15.6432   53.9174   14.2223 O   0  0  0  0  0  0  0  0  0  0  0  0
   14.3355   55.0108   17.0102 H   0  0  0  0  0  0  0  0  0  0  0  0
   15.4263   53.1954   13.6119 H   0  0  0  0  0  0  0  0  0  0  0  0
  1  2  2  0  0  0
  1  8  1  0  0  0
  2  3  1  0  0  0
  2  4  1  0  0  0
  4  5  1  0  0  0
  4  6  2  0  0  0
  6 10  1  0  0  0
  6  7  1  0  0  0
 10 11  1  0  0  0
  7  8  2  0  0  0
  7 14  1  0  0  0
 14 15  1  0  0  0
 15 16  1  0  0  0
 16 17  2  0  0  0
 16 18  1  0  0  0
 16 19  1  0  0  0
  5  9  1  0  0  0
 11 12  1  0  0  0
 11 13  1  0  0  0
 18 20  1  0  0  0
 19 21  1  0  0  0
M  END
> <minimizedAffinity>
-7.00333

$$$$
1ZC9_PMP_A_502


 21 21  0  0  0  0  0  0  0  0999 V2000
   16.3626   50.8179   18.8735 N   0  0  0  0  0  0  0  0  0  0  0  0
   17.4360   49.9483   18.9930 C   0  0  0  0  0  0  0  0  0  0  0  0
   17.7145   49.3062   20.3643 C   0  0  0  0  0  0  0  0  0  0  0  0
   18.2039   49.7368   17.8015 C   0  0  0  0  0  0  0  0  0  0  0  0
   19.2520   48.8964   17.9064 O   0  0  0  0  0  0  0  0  0  0  0  0
   17.8850   50.3784   16.5890 C   0  0  0  0  0  0  0  0  0  0  0  0
   16.7418   51.2577   16.5823 C   0  0  0  0  0  0  0  0  0  0  0  0
   15.9840   51.4750   17.7088 C   0  0  0  0  0  0  0  0  0  0  0  0
   19.4410   48.4832   18.7259 H   0  0  0  0  0  0  0  0  0  0  0  0
   18.7152   50.1284   15.4103 C   0  0  0  0  0  0  0  0  0  0  0  0
   19.8124   50.8611   15.3635 N   0  0  0  0  0  0  0  0  0  0  0  0
   19.5603   51.8482   15.3141 H   0  0  0  0  0  0  0  0  0  0  0  0
   20.3557   50.6073   14.5383 H   0  0  0  0  0  0  0  0  0  0  0  0
   16.2918   52.0123   15.2795 C   0  0  0  0  0  0  0  0  0  0  0  0
   14.9079   52.2881   15.2601 O   0  0  0  0  0  0  0  0  0  0  0  0
   14.4312   53.6438   14.5658 P   0  0  0  0  0  0  0  0  0  0  0  0
   13.7139   54.3600   15.6303 O   0  0  0  0  0  0  0  0  0  0  0  0
   15.6187   54.4735   14.1194 O   0  0  0  0  0  0  0  0  0  0  0  0
   13.5773   53.2962   13.4678 O   0  0  0  0  0  0  0  0  0  0  0  0
   16.1705   54.6879   14.8878 H   0  0  0  0  0  0  0  0  0  0  0  0
   12.8318   52.7674   13.7927 H   0  0  0  0  0  0  0  0  0  0  0  0
  1  2  2  0  0  0
  1  8  1  0  0  0
  2  3  1  0  0  0
  2  4  1  0  0  0
  4  5  1  0  0  0
  4  6  2  0  0  0
  6 10  1  0  0  0
  6  7  1  0  0  0
 10 11  1  0  0  0
  7  8  2  0  0  0
  7 14  1  0  0  0
 14 15  1  0  0  0
 15 16  1  0  0  0
 16 17  2  0  0  0
 16 18  1  0  0  0
 16 19  1  0  0  0
  5  9  1  0  0  0
 11 12  1  0  0  0
 11 13  1  0  0  0
 18 20  1  0  0  0
 19 21  1  0  0  0
M  END
> <minimizedAffinity>
-6.62440

$$$$
1ZC9_PMP_A_502


 21 21  0  0  0  0  0  0  0  0999 V2000
   16.7136   51.5304   15.6726 N   0  0  0  0  0  0  0  0  0  0  0  0
   17.9903   51.3537   15.1610 C   0  0  0  0  0  0  0  0  0  0  0  0
   18.2535   51.7308   13.6917 C   0  0  0  0  0  0  0  0  0  0  0  0
   18.9584   50.8150   16.0702 C   0  0  0  0  0  0  0  0  0  0  0  0
   20.2019   50.6354   15.5830 O   0  0  0  0  0  0  0  0  0  0  0  0
   18.6261   50.4842   17.3983 C   0  0  0  0  0  0  0  0  0  0  0  0
   17.2671   50.7167   17.8217 C   0  0  0  0  0  0  0  0  0  0  0  0
   16.3192   51.2373   16.9727 C   0  0  0  0  0  0  0  0  0  0  0  0
   20.3948   50.8643   14.6952 H   0  0  0  0  0  0  0  0  0  0  0  0
   19.6580   49.9277   18.2738 C   0  0  0  0  0  0  0  0  0  0  0  0
   20.4039   50.8400   18.8689 N   0  0  0  0  0  0  0  0  0  0  0  0
   20.9069   51.3801   18.1649 H   0  0  0  0  0  0  0  0  0  0  0  0
   21.0728   50.3816   19.4877 H   0  0  0  0  0  0  0  0  0  0  0  0
   16.7949   50.3949   19.2855 C   0  0  0  0  0  0  0  0  0  0  0  0
   16.3693   51.5439   19.9856 O   0  0  0  0  0  0  0  0  0  0  0  0
   14.8355   51.6223   20.4200 P   0  0  0  0  0  0  0  0  0  0  0  0
   14.2654   50.3488   19.9577 O   0  0  0  0  0  0  0  0  0  0  0  0
   14.7005   51.7109   21.9272 O   0  0  0  0  0  0  0  0  0  0  0  0
   14.2519   52.7547   19.7622 O   0  0  0  0  0  0  0  0  0  0  0  0
   15.1059   50.9295   22.3347 H   0  0  0  0  0  0  0  0  0  0  0  0
   14.3581   52.6614   18.8026 H   0  0  0  0  0  0  0  0  0  0  0  0
  1  2  2  0  0  0
  1  8  1  0  0  0
  2  3  1  0  0  0
  2  4  1  0  0  0
  4  5  1  0  0  0
  4  6  2  0  0  0
  6 10  1  0  0  0
  6  7  1  0  0  0
 10 11  1  0  0  0
  7  8  2  0  0  0
  7 14  1  0  0  0
 14 15  1  0  0  0
 15 16  1  0  0  0
 16 17  2  0  0  0
 16 18  1  0  0  0
 16 19  1  0  0  0
  5  9  1  0  0  0
 11 12  1  0  0  0
 11 13  1  0  0  0
 18 20  1  0  0  0
 19 21  1  0  0  0
M  END
> <minimizedAffinity>
-6.51032

$$$$
1ZC9_PMP_A_502


 21 21  0  0  0  0  0  0  0  0999 V2000
   15.6612   52.1964   17.4229 N   0  0  0  0  0  0  0  0  0  0  0  0
   15.5790   52.9791   16.2812 C   0  0  0  0  0  0  0  0  0  0  0  0
   14.6116   54.1768   16.2776 C   0  0  0  0  0  0  0  0  0  0  0  0
   16.4154   52.5792   15.1883 C   0  0  0  0  0  0  0  0  0  0  0  0
   16.3412   53.3302   14.0720 O   0  0  0  0  0  0  0  0  0  0  0  0
   17.2631   51.4577   15.2739 C   0  0  0  0  0  0  0  0  0  0  0  0
   17.2697   50.7218   16.5144 C   0  0  0  0  0  0  0  0  0  0  0  0
   16.4819   51.0859   17.5808 C   0  0  0  0  0  0  0  0  0  0  0  0
   15.7684   54.0711   14.0430 H   0  0  0  0  0  0  0  0  0  0  0  0
   18.0847   51.0953   14.1186 C   0  0  0  0  0  0  0  0  0  0  0  0
   18.7155   52.1167   13.5691 N   0  0  0  0  0  0  0  0  0  0  0  0
   18.0332   52.7884   13.2176 H   0  0  0  0  0  0  0  0  0  0  0  0
   19.2937   51.7840   12.7975 H   0  0  0  0  0  0  0  0  0  0  0  0
   18.1880   49.4634   16.7196 C   0  0  0  0  0  0  0  0  0  0  0  0
   17.4529   48.2628   16.8183 O   0  0  0  0  0  0  0  0  0  0  0  0
   17.8355   47.0747   15.8238 P   0  0  0  0  0  0  0  0  0  0  0  0
   17.4304   47.5691   14.5002 O   0  0  0  0  0  0  0  0  0  0  0  0
   19.3304   46.8232   15.8258 O   0  0  0  0  0  0  0  0  0  0  0  0
   17.0963   45.9134   16.2246 O   0  0  0  0  0  0  0  0  0  0  0  0
   19.7942   47.6292   15.5501 H   0  0  0  0  0  0  0  0  0  0  0  0
   16.1472   46.1136   16.2107 H   0  0  0  0  0  0  0  0  0  0  0  0
  1  2  2  0  0  0
  1  8  1  0  0  0
  2  3  1  0  0  0
  2  4  1  0  0  0
  4  5  1  0  0  0
  4  6  2  0  0  0
  6 10  1  0  0  0
  6  7  1  0  0  0
 10 11  1  0  0  0
  7  8  2  0  0  0
  7 14  1  0  0  0
 14 15  1  0  0  0
 15 16  1  0  0  0
 16 17  2  0  0  0
 16 18  1  0  0  0
 16 19  1  0  0  0
  5  9  1  0  0  0
 11 12  1  0  0  0
 11 13  1  0  0  0
 18 20  1  0  0  0
 19 21  1  0  0  0
M  END
> <minimizedAffinity>
-6.31205

$$$$
1ZC9_PMP_A_502


 21 21  0  0  0  0  0  0  0  0999 V2000
   17.6176   50.8293   16.0201 N   0  0  0  0  0  0  0  0  0  0  0  0
   17.5061   51.7185   14.9619 C   0  0  0  0  0  0  0  0  0  0  0  0
   18.4373   51.5402   13.7489 C   0  0  0  0  0  0  0  0  0  0  0  0
   16.5181   52.7460   15.1112 C   0  0  0  0  0  0  0  0  0  0  0  0
   16.4032   53.6184   14.0906 O   0  0  0  0  0  0  0  0  0  0  0  0
   15.7164   52.8431   16.2650 C   0  0  0  0  0  0  0  0  0  0  0  0
   15.9171   51.8582   17.2994 C   0  0  0  0  0  0  0  0  0  0  0  0
   16.8535   50.8585   17.1807 C   0  0  0  0  0  0  0  0  0  0  0  0
   16.9499   53.5299   13.3348 H   0  0  0  0  0  0  0  0  0  0  0  0
   14.7326   53.9220   16.3608 C   0  0  0  0  0  0  0  0  0  0  0  0
   13.8804   53.9601   15.3532 N   0  0  0  0  0  0  0  0  0  0  0  0
   14.3878   54.1310   14.4850 H   0  0  0  0  0  0  0  0  0  0  0  0
   13.2063   54.7102   15.5063 H   0  0  0  0  0  0  0  0  0  0  0  0
   15.0668   51.8678   18.6208 C   0  0  0  0  0  0  0  0  0  0  0  0
   15.5473   52.7940   19.5710 O   0  0  0  0  0  0  0  0  0  0  0  0
   15.8019   52.2685   21.0563 P   0  0  0  0  0  0  0  0  0  0  0  0
   15.9956   53.4948   21.8433 O   0  0  0  0  0  0  0  0  0  0  0  0
   14.5926   51.5229   21.5848 O   0  0  0  0  0  0  0  0  0  0  0  0
   16.9731   51.4418   21.0330 O   0  0  0  0  0  0  0  0  0  0  0  0
   13.8232   52.1136   21.5850 H   0  0  0  0  0  0  0  0  0  0  0  0
   17.7229   51.9528   20.6901 H   0  0  0  0  0  0  0  0  0  0  0  0
  1  2  2  0  0  0
  1  8  1  0  0  0
  2  3  1  0  0  0
  2  4  1  0  0  0
  4  5  1  0  0  0
  4  6  2  0  0  0
  6 10  1  0  0  0
  6  7  1  0  0  0
 10 11  1  0  0  0
  7  8  2  0  0  0
  7 14  1  0  0  0
 14 15  1  0  0  0
 15 16  1  0  0  0
 16 17  2  0  0  0
 16 18  1  0  0  0
 16 19  1  0  0  0
  5  9  1  0  0  0
 11 12  1  0  0  0
 11 13  1  0  0  0
 18 20  1  0  0  0
 19 21  1  0  0  0
M  END
> <minimizedAffinity>
-6.24527

$$$$
1ZC9_PMP_A_502


 21 21  0  0  0  0  0  0  0  0999 V2000
   18.3963   49.6659   15.3763 N   0  0  0  0  0  0  0  0  0  0  0  0
   18.8623   48.9751   16.4846 C   0  0  0  0  0  0  0  0  0  0  0  0
   19.9553   47.9098   16.2824 C   0  0  0  0  0  0  0  0  0  0  0  0
   18.2579   49.3229   17.7367 C   0  0  0  0  0  0  0  0  0  0  0  0
   18.7001   48.6553   18.8205 O   0  0  0  0  0  0  0  0  0  0  0  0
   17.2512   50.3035   17.8282 C   0  0  0  0  0  0  0  0  0  0  0  0
   16.8502   50.9610   16.6087 C   0  0  0  0  0  0  0  0  0  0  0  0
   17.4165   50.6514   15.3947 C   0  0  0  0  0  0  0  0  0  0  0  0
   19.3713   48.0077   18.7303 H   0  0  0  0  0  0  0  0  0  0  0  0
   16.6666   50.6053   19.1352 C   0  0  0  0  0  0  0  0  0  0  0  0
   17.5541   50.9365   20.0548 N   0  0  0  0  0  0  0  0  0  0  0  0
   18.1870   50.1527   20.2143 H   0  0  0  0  0  0  0  0  0  0  0  0
   17.0730   51.1674   20.9240 H   0  0  0  0  0  0  0  0  0  0  0  0
   15.7456   52.0787   16.6014 C   0  0  0  0  0  0  0  0  0  0  0  0
   14.9734   52.0737   15.4202 O   0  0  0  0  0  0  0  0  0  0  0  0
   14.6853   53.4768   14.7162 P   0  0  0  0  0  0  0  0  0  0  0  0
   14.1281   54.3105   15.7908 O   0  0  0  0  0  0  0  0  0  0  0  0
   15.9687   54.1061   14.2114 O   0  0  0  0  0  0  0  0  0  0  0  0
   13.7469   53.2498   13.6562 O   0  0  0  0  0  0  0  0  0  0  0  0
   16.5758   54.2434   14.9553 H   0  0  0  0  0  0  0  0  0  0  0  0
   12.9417   52.8476   14.0179 H   0  0  0  0  0  0  0  0  0  0  0  0
  1  2  2  0  0  0
  1  8  1  0  0  0
  2  3  1  0  0  0
  2  4  1  0  0  0
  4  5  1  0  0  0
  4  6  2  0  0  0
  6 10  1  0  0  0
  6  7  1  0  0  0
 10 11  1  0  0  0
  7  8  2  0  0  0
  7 14  1  0  0  0
 14 15  1  0  0  0
 15 16  1  0  0  0
 16 17  2  0  0  0
 16 18  1  0  0  0
 16 19  1  0  0  0
  5  9  1  0  0  0
 11 12  1  0  0  0
 11 13  1  0  0  0
 18 20  1  0  0  0
 19 21  1  0  0  0
M  END
> <minimizedAffinity>
-6.14828

$$$$
1ZC9_PMP_A_502


 21 21  0  0  0  0  0  0  0  0999 V2000
   17.6552   45.5668   14.1072 N   0  0  0  0  0  0  0  0  0  0  0  0
   17.1407   44.3933   14.6371 C   0  0  0  0  0  0  0  0  0  0  0  0
   16.9924   43.1708   13.7130 C   0  0  0  0  0  0  0  0  0  0  0  0
   16.7799   44.4396   16.0234 C   0  0  0  0  0  0  0  0  0  0  0  0
   16.2752   43.3060   16.5486 O   0  0  0  0  0  0  0  0  0  0  0  0
   16.9373   45.6088   16.7928 C   0  0  0  0  0  0  0  0  0  0  0  0
   17.4885   46.7684   16.1358 C   0  0  0  0  0  0  0  0  0  0  0  0
   17.8483   46.7508   14.8089 C   0  0  0  0  0  0  0  0  0  0  0  0
   16.1816   42.5427   16.0132 H   0  0  0  0  0  0  0  0  0  0  0  0
   16.5399   45.5943   18.2009 C   0  0  0  0  0  0  0  0  0  0  0  0
   15.2695   45.2920   18.3954 N   0  0  0  0  0  0  0  0  0  0  0  0
   14.6806   45.9981   17.9539 H   0  0  0  0  0  0  0  0  0  0  0  0
   15.0758   45.2653   19.3965 H   0  0  0  0  0  0  0  0  0  0  0  0
   17.7177   48.1189   16.9056 C   0  0  0  0  0  0  0  0  0  0  0  0
   17.9048   49.2158   16.0376 O   0  0  0  0  0  0  0  0  0  0  0  0
   19.2499   50.0612   16.1896 P   0  0  0  0  0  0  0  0  0  0  0  0
   20.3140   49.0472   16.1884 O   0  0  0  0  0  0  0  0  0  0  0  0
   19.4454   50.9903   15.0078 O   0  0  0  0  0  0  0  0  0  0  0  0
   19.1780   50.7785   17.4289 O   0  0  0  0  0  0  0  0  0  0  0  0
   19.4890   50.4693   14.1908 H   0  0  0  0  0  0  0  0  0  0  0  0
   19.0532   50.1517   18.1585 H   0  0  0  0  0  0  0  0  0  0  0  0
  1  2  2  0  0  0
  1  8  1  0  0  0
  2  3  1  0  0  0
  2  4  1  0  0  0
  4  5  1  0  0  0
  4  6  2  0  0  0
  6 10  1  0  0  0
  6  7  1  0  0  0
 10 11  1  0  0  0
  7  8  2  0  0  0
  7 14  1  0  0  0
 14 15  1  0  0  0
 15 16  1  0  0  0
 16 17  2  0  0  0
 16 18  1  0  0  0
 16 19  1  0  0  0
  5  9  1  0  0  0
 11 12  1  0  0  0
 11 13  1  0  0  0
 18 20  1  0  0  0
 19 21  1  0  0  0
M  END
> <minimizedAffinity>
-6.00311

$$$$
1ZC9_PMP_A_502


 21 21  0  0  0  0  0  0  0  0999 V2000
   17.2657   52.2039   14.5215 N   0  0  0  0  0  0  0  0  0  0  0  0
   16.2470   52.4865   15.4188 C   0  0  0  0  0  0  0  0  0  0  0  0
   15.2274   53.5811   15.0545 C   0  0  0  0  0  0  0  0  0  0  0  0
   16.2510   51.7201   16.6298 C   0  0  0  0  0  0  0  0  0  0  0  0
   15.2677   51.9887   17.5112 O   0  0  0  0  0  0  0  0  0  0  0  0
   17.2336   50.7446   16.8878 C   0  0  0  0  0  0  0  0  0  0  0  0
   18.2416   50.5325   15.8783 C   0  0  0  0  0  0  0  0  0  0  0  0
   18.2590   51.2493   14.7052 C   0  0  0  0  0  0  0  0  0  0  0  0
   14.6270   52.6431   17.3134 H   0  0  0  0  0  0  0  0  0  0  0  0
   17.1882   50.0032   18.1484 C   0  0  0  0  0  0  0  0  0  0  0  0
   17.4487   50.7401   19.2124 N   0  0  0  0  0  0  0  0  0  0  0  0
   18.3978   51.1080   19.1471 H   0  0  0  0  0  0  0  0  0  0  0  0
   17.3630   50.1674   20.0520 H   0  0  0  0  0  0  0  0  0  0  0  0
   19.3753   49.4597   16.0602 C   0  0  0  0  0  0  0  0  0  0  0  0
   20.5944   50.0235   16.4932 O   0  0  0  0  0  0  0  0  0  0  0  0
   21.0222   49.7887   18.0128 P   0  0  0  0  0  0  0  0  0  0  0  0
   20.4271   50.9233   18.7333 O   0  0  0  0  0  0  0  0  0  0  0  0
   20.4389   48.4964   18.5490 O   0  0  0  0  0  0  0  0  0  0  0  0
   22.4548   49.7942   18.0697 O   0  0  0  0  0  0  0  0  0  0  0  0
   19.4711   48.5311   18.4938 H   0  0  0  0  0  0  0  0  0  0  0  0
   22.7891   50.6346   17.7192 H   0  0  0  0  0  0  0  0  0  0  0  0
  1  2  2  0  0  0
  1  8  1  0  0  0
  2  3  1  0  0  0
  2  4  1  0  0  0
  4  5  1  0  0  0
  4  6  2  0  0  0
  6 10  1  0  0  0
  6  7  1  0  0  0
 10 11  1  0  0  0
  7  8  2  0  0  0
  7 14  1  0  0  0
 14 15  1  0  0  0
 15 16  1  0  0  0
 16 17  2  0  0  0
 16 18  1  0  0  0
 16 19  1  0  0  0
  5  9  1  0  0  0
 11 12  1  0  0  0
 11 13  1  0  0  0
 18 20  1  0  0  0
 19 21  1  0  0  0
M  END
> <minimizedAffinity>
-5.93882

$$$$
1ZC9_PMP_A_502


 21 21  0  0  0  0  0  0  0  0999 V2000
   15.8194   51.8552   17.0540 N   0  0  0  0  0  0  0  0  0  0  0  0
   15.7414   52.7968   16.0390 C   0  0  0  0  0  0  0  0  0  0  0  0
   14.6198   53.8499   16.0961 C   0  0  0  0  0  0  0  0  0  0  0  0
   16.7304   52.6865   15.0076 C   0  0  0  0  0  0  0  0  0  0  0  0
   16.6622   53.5940   14.0138 O   0  0  0  0  0  0  0  0  0  0  0  0
   17.7151   51.6798   15.0278 C   0  0  0  0  0  0  0  0  0  0  0  0
   17.7021   50.7587   16.1377 C   0  0  0  0  0  0  0  0  0  0  0  0
   16.7688   50.8442   17.1436 C   0  0  0  0  0  0  0  0  0  0  0  0
   15.9963   54.2530   14.0259 H   0  0  0  0  0  0  0  0  0  0  0  0
   18.6904   51.6147   13.9390 C   0  0  0  0  0  0  0  0  0  0  0  0
   18.1482   51.5948   12.7354 N   0  0  0  0  0  0  0  0  0  0  0  0
   17.5728   50.7585   12.6355 H   0  0  0  0  0  0  0  0  0  0  0  0
   18.8854   51.5864   12.0305 H   0  0  0  0  0  0  0  0  0  0  0  0
   18.7639   49.6072   16.2636 C   0  0  0  0  0  0  0  0  0  0  0  0
   20.0439   50.0830   16.6197 O   0  0  0  0  0  0  0  0  0  0  0  0
   20.5260   49.8603   18.1248 P   0  0  0  0  0  0  0  0  0  0  0  0
   21.9932   49.8590   18.0359 O   0  0  0  0  0  0  0  0  0  0  0  0
   20.0814   51.0049   19.0137 O   0  0  0  0  0  0  0  0  0  0  0  0
   20.0029   48.6018   18.5699 O   0  0  0  0  0  0  0  0  0  0  0  0
   20.4544   51.8363   18.6811 H   0  0  0  0  0  0  0  0  0  0  0  0
   20.3085   47.8970   17.9777 H   0  0  0  0  0  0  0  0  0  0  0  0
  1  2  2  0  0  0
  1  8  1  0  0  0
  2  3  1  0  0  0
  2  4  1  0  0  0
  4  5  1  0  0  0
  4  6  2  0  0  0
  6 10  1  0  0  0
  6  7  1  0  0  0
 10 11  1  0  0  0
  7  8  2  0  0  0
  7 14  1  0  0  0
 14 15  1  0  0  0
 15 16  1  0  0  0
 16 17  2  0  0  0
 16 18  1  0  0  0
 16 19  1  0  0  0
  5  9  1  0  0  0
 11 12  1  0  0  0
 11 13  1  0  0  0
 18 20  1  0  0  0
 19 21  1  0  0  0
M  END
> <minimizedAffinity>
-5.92689

$$$$
1ZC9_PMP_A_502


 21 21  0  0  0  0  0  0  0  0999 V2000
   17.9033   45.4829   15.0335 N   0  0  0  0  0  0  0  0  0  0  0  0
   19.0285   45.1894   15.7890 C   0  0  0  0  0  0  0  0  0  0  0  0
   19.5256   43.7330   15.8345 C   0  0  0  0  0  0  0  0  0  0  0  0
   19.6247   46.2962   16.4771 C   0  0  0  0  0  0  0  0  0  0  0  0
   20.7168   46.0224   17.2176 O   0  0  0  0  0  0  0  0  0  0  0  0
   19.0936   47.5978   16.3901 C   0  0  0  0  0  0  0  0  0  0  0  0
   17.9227   47.7849   15.5690 C   0  0  0  0  0  0  0  0  0  0  0  0
   17.3331   46.7426   14.8936 C   0  0  0  0  0  0  0  0  0  0  0  0
   21.0485   45.1470   17.2573 H   0  0  0  0  0  0  0  0  0  0  0  0
   19.7431   48.6833   17.1255 C   0  0  0  0  0  0  0  0  0  0  0  0
   20.6673   49.3217   16.4317 N   0  0  0  0  0  0  0  0  0  0  0  0
   21.4158   48.6739   16.1857 H   0  0  0  0  0  0  0  0  0  0  0  0
   21.0478   50.0837   16.9929 H   0  0  0  0  0  0  0  0  0  0  0  0
   17.2584   49.1981   15.3932 C   0  0  0  0  0  0  0  0  0  0  0  0
   18.0646   50.0911   14.6555 O   0  0  0  0  0  0  0  0  0  0  0  0
   17.8982   51.6520   14.9436 P   0  0  0  0  0  0  0  0  0  0  0  0
   18.8247   51.9134   16.0543 O   0  0  0  0  0  0  0  0  0  0  0  0
   18.3163   52.4751   13.7414 O   0  0  0  0  0  0  0  0  0  0  0  0
   16.5305   51.8868   15.3043 O   0  0  0  0  0  0  0  0  0  0  0  0
   19.2444   52.2891   13.5292 H   0  0  0  0  0  0  0  0  0  0  0  0
   16.3016   51.3440   16.0749 H   0  0  0  0  0  0  0  0  0  0  0  0
  1  2  2  0  0  0
  1  8  1  0  0  0
  2  3  1  0  0  0
  2  4  1  0  0  0
  4  5  1  0  0  0
  4  6  2  0  0  0
  6 10  1  0  0  0
  6  7  1  0  0  0
 10 11  1  0  0  0
  7  8  2  0  0  0
  7 14  1  0  0  0
 14 15  1  0  0  0
 15 16  1  0  0  0
 16 17  2  0  0  0
 16 18  1  0  0  0
 16 19  1  0  0  0
  5  9  1  0  0  0
 11 12  1  0  0  0
 11 13  1  0  0  0
 18 20  1  0  0  0
 19 21  1  0  0  0
M  END
> <minimizedAffinity>
-5.89674

$$$$
