1ZC9_PMP_A_502
  RCSB PDB12061704513D
Coordinates from PDB:1ZC9:A:502 Model:1 without hydrogens
 16 16  0  0  0  0            999 V2000
   17.1240   52.9180   13.7800   N 0  0  0  0  0  0  0  0  0  0  0  0
   16.0010   53.1890   14.5470   C 0  0  0  0  0  0  0  0  0  0  0  0
   14.9270   54.1310   13.9730   C 0  0  0  0  0  0  0  0  0  0  0  0
   15.9560   52.5580   15.8330   C 0  0  0  0  0  0  0  0  0  0  0  0
   14.8710   52.8170   16.5890   O 0  0  0  0  0  0  0  0  0  0  0  0
   16.9930   51.7190   16.2850   C 0  0  0  0  0  0  0  0  0  0  0  0
   16.8920   51.1130   17.6130   C 0  0  0  0  0  0  0  0  0  0  0  0
   15.9010   50.2490   17.7330   N 0  0  0  0  0  0  0  0  0  0  0  0
   18.1100   51.5050   15.3980   C 0  0  0  0  0  0  0  0  0  0  0  0
   18.1770   52.0930   14.1570   C 0  0  0  0  0  0  0  0  0  0  0  0
   19.3130   50.5770   15.7990   C 0  0  0  0  0  0  0  0  0  0  0  0
   19.0220   49.2060   15.6340   O 0  0  0  0  0  0  0  0  0  0  0  0
   19.9460   48.1540   16.4000   P 0  0  0  0  0  0  0  0  0  0  0  0
   19.3970   46.8460   16.0150   O 0  0  0  0  0  0  0  0  0  0  0  0
   21.3840   48.2490   15.9300   O 0  0  0  0  0  0  0  0  0  0  0  0
   19.8240   48.4070   17.8060   O 0  0  0  0  0  0  0  0  0  0  0  0
  1  2  2  0  0  0  0
  1 10  1  0  0  0  0
  2  3  1  0  0  0  0
  2  4  1  0  0  0  0
  4  5  1  0  0  0  0
  4  6  2  0  0  0  0
  6  7  1  0  0  0  0
  6  9  1  0  0  0  0
  7  8  1  0  0  0  0
  9 10  2  0  0  0  0
  9 11  1  0  0  0  0
 11 12  1  0  0  0  0
 12 13  1  0  0  0  0
 13 14  2  0  0  0  0
 13 15  1  0  0  0  0
 13 16  1  0  0  0  0
A    1
N1
A    2
C2
A    3
C2A
A    4
C3
A    5
O3
A    6
C4
A    7
C4A
A    8
N4A
A    9
C5
A   10
C6
A   11
C5A
A   12
O4P
A   13
P
A   14
O1P
A   15
O2P
A   16
O3P
M  END
>  <InstanceId>
1ZC9_PMP_A_502

>  <ChemCompId>
PMP

>  <PdbId>
1ZC9

>  <ChainId>
A

>  <ResidueNumber>
502

>  <InsertionCode>


>  <Model>
1

>  <AltIds>


>  <MissingHeavyAtoms>
0

>  <ObservedFormula>
C8 N2 O5 P

>  <Name>
4'-DEOXY-4'-AMINOPYRIDOXAL-5'-PHOSPHATE

>  <SystematicName>
[4-(aminomethyl)-5-hydroxy-6-methyl-pyridin-3-yl]methyl dihydrogen phosphate

>  <Synonyms>
PYRIDOXAMINE-5'-PHOSPHATE

>  <Type>
NON-POLYMER

>  <Formula>
C8 H13 N2 O5 P

>  <MolecularWeight>
248.173

>  <ModifiedDate>
2011-06-04

>  <Parent>


>  <OneLetterCode>


>  <SubcomponentList>


>  <AmbiguousFlag>
N

>  <InChI>
InChI=1S/C8H13N2O5P/c1-5-8(11)7(2-9)6(3-10-5)4-15-16(12,13)14/h3,11H,2,4,9H2,1H3,(H2,12,13,14)

>  <InChIKey>
ZMJGSOSNSPKHNH-UHFFFAOYSA-N

>  <SMILES>
Cc1c(c(c(cn1)COP(=O)(O)O)CN)O

$$$$
