1EPO_2Z3_E_327
  RCSB PDB12061702243D
Coordinates from PDB:1EPO:E:327 Model:1 without hydrogens
 46 48  0  0  0  0            999 V2000
   30.9720   -7.3220   -7.5670   O 0  0  0  0  0  0  0  0  0  0  0  0
   30.7770   -6.5530   -6.3560   C 0  0  0  0  0  0  0  0  0  0  0  0
   32.0090   -6.3100   -5.7150   C 0  0  0  0  0  0  0  0  0  0  0  0
   32.8370   -7.4660   -5.6290   N 0  0  0  0  0  0  0  0  0  0  0  0
   32.8620   -8.4650   -6.6830   C 0  0  0  0  0  0  0  0  0  0  0  0
   31.4860   -8.6410   -7.1880   C 0  0  0  0  0  0  0  0  0  0  0  0
   33.6370   -7.6200   -4.5270   C 0  0  0  0  0  0  0  0  0  0  0  0
   34.3590   -8.5990   -4.4530   O 0  0  0  0  0  0  0  0  0  0  0  0
   33.6170   -6.7070   -3.5780   N 0  0  0  0  0  0  0  0  0  0  0  0
   34.4320   -6.8050   -2.3250   C 0  0  0  0  0  0  0  0  0  0  0  0
   33.8580   -7.8980   -1.3780   C 0  0  0  0  0  0  0  0  0  0  0  0
   32.7320   -8.1850   -1.2680   O 0  0  0  0  0  0  0  0  0  0  0  0
   34.2260   -5.4560   -1.5280   C 0  0  0  0  0  0  0  0  0  0  0  0
   35.0450   -4.3950   -2.2620   C 0  0  0  0  0  0  0  0  0  0  0  0
   36.3830   -4.5380   -2.4410   C 0  0  0  0  0  0  0  0  0  0  0  0
   34.3630   -3.2670   -2.8110   C 0  0  0  0  0  0  0  0  0  0  0  0
   37.1650   -3.6050   -3.1060   C 0  0  0  0  0  0  0  0  0  0  0  0
   35.1440   -2.3490   -3.4730   C 0  0  0  0  0  0  0  0  0  0  0  0
   36.4990   -2.4730   -3.6380   C 0  0  0  0  0  0  0  0  0  0  0  0
   34.8240   -8.5260   -0.6400   N 0  0  0  0  0  0  0  0  0  0  0  0
   34.4240   -9.6120    0.2950   C 0  0  0  0  0  0  0  0  0  0  0  0
   35.5270   -9.6380    1.4140   C 0  0  0  0  0  0  0  0  0  0  0  0
   36.5960  -10.1450    1.1750   O 0  0  0  0  0  0  0  0  0  0  0  0
   34.5110  -10.9620   -0.4720   C 0  0  0  0  0  0  0  0  0  0  0  0
   34.2020  -12.1490    0.4110   C 0  0  0  0  0  0  0  0  0  0  0  0
   33.4710  -13.3180   -0.1940   C 0  0  0  0  0  0  0  0  0  0  0  0
   34.0330  -13.8210   -1.4670   C 0  0  0  0  0  0  0  0  0  0  0  0
   35.1960   -9.0450    2.5090   N 0  0  0  0  0  0  0  0  0  0  0  0
   36.2070   -8.7560    3.5860   C 0  0  0  0  0  0  0  0  0  0  0  0
   36.6660   -7.3540    3.6360   C 0  0  0  0  0  0  0  0  0  0  0  0
   36.9750   -6.6040    2.3700   C 0  0  0  0  0  0  0  0  0  0  0  0
   38.2070   -7.0160    1.6900   C 0  0  0  0  0  0  0  0  0  0  0  0
   36.8100   -5.1140    2.4840   C 0  0  0  0  0  0  0  0  0  0  0  0
   38.6760   -6.2700    0.4530   C 0  0  0  0  0  0  0  0  0  0  0  0
   37.3100   -4.3430    1.2730   C 0  0  0  0  0  0  0  0  0  0  0  0
   38.6020   -4.7580    0.7240   C 0  0  0  0  0  0  0  0  0  0  0  0
   35.6750   -9.3170    4.9050   C 0  0  0  0  0  0  0  0  0  0  0  0
   34.3640   -8.7570    5.2470   O 0  0  0  0  0  0  0  0  0  0  0  0
   36.5070   -8.9240    5.9360   O 0  0  0  0  0  0  0  0  0  0  0  0
   35.5910  -10.8480    4.9370   C 0  0  0  0  0  0  0  0  0  0  0  0
   35.1040  -11.2960    3.8410   F 0  0  0  0  0  0  0  0  0  0  0  0
   34.7100  -11.2810    5.8530   F 0  0  0  0  0  0  0  0  0  0  0  0
   36.9100  -11.4650    5.2600   C 0  0  0  0  0  0  0  0  0  0  0  0
   37.7810  -11.8210    4.4160   O 0  0  0  0  0  0  0  0  0  0  0  0
   37.1720  -11.7830    6.5550   N 0  0  0  0  0  0  0  0  0  0  0  0
   38.5090  -12.4190    6.8120   C 0  0  0  0  0  0  0  0  0  0  0  0
  1  2  1  0  0  0  0
  1  6  1  0  0  0  0
  2  3  1  0  0  0  0
  3  4  1  0  0  0  0
  4  5  1  0  0  0  0
  4  7  1  0  0  0  0
  5  6  1  0  0  0  0
  7  8  2  0  0  0  0
  9 10  1  0  0  0  0
 10 11  1  0  0  0  0
 10 13  1  0  0  0  0
 11 12  2  0  0  0  0
 13 14  1  0  0  0  0
 14 15  2  0  0  0  0
 14 16  1  0  0  0  0
 15 17  1  0  0  0  0
 16 18  2  0  0  0  0
 17 19  2  0  0  0  0
 18 19  1  0  0  0  0
 20 21  1  0  0  0  0
 21 22  1  0  0  0  0
 21 24  1  0  0  0  0
 22 23  2  0  0  0  0
 24 25  1  0  0  0  0
 25 26  1  0  0  0  0
 26 27  1  0  0  0  0
 28 29  1  0  0  0  0
 29 30  1  0  0  0  0
 29 37  1  0  0  0  0
 30 31  1  0  0  0  0
 31 32  1  0  0  0  0
 31 33  1  0  0  0  0
 32 34  1  0  0  0  0
 33 35  1  0  0  0  0
 34 36  1  0  0  0  0
 35 36  1  0  0  0  0
 37 38  1  0  0  0  0
 37 39  1  0  0  0  0
 37 40  1  0  0  0  0
 40 41  1  0  0  0  0
 40 42  1  0  0  0  0
 40 43  1  0  0  0  0
 43 44  2  0  0  0  0
 45 46  1  0  0  0  0
  7  9  1  0  0  0  0
 11 20  1  0  0  0  0
 22 28  1  0  0  0  0
 43 45  1  0  0  0  0
A    1
O1
A    2
C2
A    3
C3
A    4
N4
A    5
C5
A    6
C6
A    7
C
A    8
O
A    9
N
A   10
CA
A   11
C1
A   12
O2
A   13
CB
A   14
CG
A   15
CD1
A   16
CD2
A   17
CE1
A   18
CE2
A   19
CZ
A   20
N1
A   21
CA1
A   22
C4
A   23
O3
A   24
CB1
A   25
CG1
A   26
CD
A   27
CE
A   28
N2
A   29
CA2
A   30
CB2
A   31
CG2
A   32
CD11
A   33
CD21
A   34
CE11
A   35
CE21
A   36
CZ1
A   37
CH
A   38
OH1
A   39
OH2
A   40
CM
A   41
F1
A   42
F2
A   43
C7
A   44
O4
A   45
N3
A   46
C8
M  END
>  <InstanceId>
1EPO_2Z3_E_327

>  <ChemCompId>
2Z3

>  <PdbId>
1EPO

>  <ChainId>
E

>  <ResidueNumber>
327

>  <InsertionCode>


>  <Model>
1

>  <AltIds>


>  <MissingHeavyAtoms>
0

>  <ObservedFormula>
C32 N5 O7 F2

>  <Name>
N-(morpholin-4-ylcarbonyl)-L-phenylalanyl-N-[(1R)-1-(cyclohexylmethyl)-3,3-difluoro-2,2-dihydroxy-4-(methylamino)-4-oxobutyl]-L-norleucinamide

>  <SystematicName>
N-[(2S)-1-[[(2S)-1-[[(2S)-1-cyclohexyl-4,4-difluoro-3,3-dihydroxy-5-methylamino-5-oxo-pentan-2-yl]amino]-1-oxo-hexan-2-yl]amino]-1-oxo-3-phenyl-propan-2-yl]morpholine-4-carboxamide

>  <Synonyms>
CP-81,282

>  <Type>
peptide-like

>  <Formula>
C32 H49 F2 N5 O7

>  <MolecularWeight>
653.758

>  <ModifiedDate>
2011-07-13

>  <Parent>


>  <OneLetterCode>


>  <SubcomponentList>
MOR PHE NLE CHF NME

>  <AmbiguousFlag>
N

>  <InChI>
InChI=1S/C32H49F2N5O7/c1-3-4-15-24(27(40)38-26(21-23-13-9-6-10-14-23)32(44,45)31(33,34)29(42)35-2)36-28(41)25(20-22-11-7-5-8-12-22)37-30(43)39-16-18-46-19-17-39/h5,7-8,11-12,23-26,44-45H,3-4,6,9-10,13-21H2,1-2H3,(H,35,42)(H,36,41)(H,37,43)(H,38,40)/t24-,25-,26-/m0/s1

>  <InChIKey>
IPZOKQNUWWOCTK-GSDHBNRESA-N

>  <SMILES>


$$$$
