1EPO_2Z3_E_327


 52 54  0  0  0  0  0  0  0  0999 V2000
   34.6539  -10.0186    0.3027 C   0  0  0  0  0  0  0  0  0  0  0  0
   33.8488   -8.3657   -1.3334 C   0  0  0  0  0  0  0  0  0  0  0  0
   32.7656   -8.7769   -1.1921 O   0  0  0  0  0  0  0  0  0  0  0  0
   34.9013   -8.8880   -0.6322 N   0  0  0  0  0  0  0  0  0  0  0  0
   35.8080   -8.5213   -0.7446 H   0  0  0  0  0  0  0  0  0  0  0  0
   34.2678   -7.2087   -2.2855 C   0  0  0  0  0  0  0  0  0  0  0  0
   30.8706   -8.1610   -7.5076 O   0  0  0  0  0  0  0  0  0  0  0  0
   30.5709   -7.4574   -6.2783 C   0  0  0  0  0  0  0  0  0  0  0  0
   31.7565   -7.0353   -5.6428 C   0  0  0  0  0  0  0  0  0  0  0  0
   32.7580   -8.0469   -5.5894 N   0  0  0  0  0  0  0  0  0  0  0  0
   32.9282   -9.0077   -6.6652 C   0  0  0  0  0  0  0  0  0  0  0  0
   31.5914   -9.3893   -7.1621 C   0  0  0  0  0  0  0  0  0  0  0  0
   33.5855   -8.0945   -4.4980 C   0  0  0  0  0  0  0  0  0  0  0  0
   34.4542   -8.9480   -4.4517 O   0  0  0  0  0  0  0  0  0  0  0  0
   33.4326   -7.2157   -3.5290 N   0  0  0  0  0  0  0  0  0  0  0  0
   32.7342   -6.5287   -3.6269 H   0  0  0  0  0  0  0  0  0  0  0  0
   33.9007   -5.8968   -1.4846 C   0  0  0  0  0  0  0  0  0  0  0  0
   35.0714   -4.9340   -1.6791 C   0  0  0  0  0  0  0  0  0  0  0  0
   34.9803   -3.6313   -1.3083 C   0  0  0  0  0  0  0  0  0  0  0  0
   36.2937   -5.4462   -2.2106 C   0  0  0  0  0  0  0  0  0  0  0  0
   36.0183   -2.7236   -1.4595 C   0  0  0  0  0  0  0  0  0  0  0  0
   37.3196   -4.5416   -2.3529 C   0  0  0  0  0  0  0  0  0  0  0  0
   37.2292   -3.2193   -2.0035 C   0  0  0  0  0  0  0  0  0  0  0  0
   35.7893   -9.9317    1.3856 C   0  0  0  0  0  0  0  0  0  0  0  0
   36.9060  -10.2880    1.0975 O   0  0  0  0  0  0  0  0  0  0  0  0
   35.4227   -9.4177    2.5089 N   0  0  0  0  0  0  0  0  0  0  0  0
   34.4640   -9.2756    2.6819 H   0  0  0  0  0  0  0  0  0  0  0  0
   36.4247   -9.0294    3.5628 C   0  0  0  0  0  0  0  0  0  0  0  0
   36.0917   -9.7935    4.8446 C   0  0  0  0  0  0  0  0  0  0  0  0
   34.6460   -9.8646    5.0776 O   0  0  0  0  0  0  0  0  0  0  0  0
   36.5911   -9.1007    5.9310 O   0  0  0  0  0  0  0  0  0  0  0  0
   34.0923  -10.2977    4.4581 H   0  0  0  0  0  0  0  0  0  0  0  0
   37.5105   -8.9327    5.9971 H   0  0  0  0  0  0  0  0  0  0  0  0
   36.6780  -11.2099    4.8905 C   0  0  0  0  0  0  0  0  0  0  0  0
   37.3617  -11.3805    5.9594 F   0  0  0  0  0  0  0  0  0  0  0  0
   37.5866  -11.4061    3.9217 F   0  0  0  0  0  0  0  0  0  0  0  0
   35.6204  -12.2490    4.7275 C   0  0  0  0  0  0  0  0  0  0  0  0
   34.9905  -12.4950    3.6596 O   0  0  0  0  0  0  0  0  0  0  0  0
   35.2042  -12.9226    5.8320 N   0  0  0  0  0  0  0  0  0  0  0  0
   34.1237  -13.9419    5.6048 C   0  0  0  0  0  0  0  0  0  0  0  0
   35.5860  -12.7536    6.7236 H   0  0  0  0  0  0  0  0  0  0  0  0
   36.6105   -7.5742    3.7259 C   0  0  0  0  0  0  0  0  0  0  0  0
   36.9433   -6.7077    2.5431 C   0  0  0  0  0  0  0  0  0  0  0  0
   38.1967   -7.0444    1.8606 C   0  0  0  0  0  0  0  0  0  0  0  0
   36.7592   -5.2361    2.7897 C   0  0  0  0  0  0  0  0  0  0  0  0
   38.6888   -6.1832    0.7105 C   0  0  0  0  0  0  0  0  0  0  0  0
   37.2813   -4.3521    1.6686 C   0  0  0  0  0  0  0  0  0  0  0  0
   38.5913   -4.7034    1.1178 C   0  0  0  0  0  0  0  0  0  0  0  0
   34.8633  -11.3449   -0.4819 C   0  0  0  0  0  0  0  0  0  0  0  0
   34.2263  -12.5300    0.2064 C   0  0  0  0  0  0  0  0  0  0  0  0
   33.7670  -13.6862   -0.6415 C   0  0  0  0  0  0  0  0  0  0  0  0
   32.2996  -13.8417   -0.7519 C   0  0  0  0  0  0  0  0  0  0  0  0
  7  8  1  0  0  0
  7 12  1  0  0  0
  8  9  1  0  0  0
  9 10  1  0  0  0
 10 11  1  0  0  0
 10 13  1  0  0  0
 11 12  1  0  0  0
 13 14  2  0  0  0
 15  6  1  0  0  0
  6  2  1  0  0  0
  6 17  1  0  0  0
  2  3  2  0  0  0
 17 18  1  0  0  0
 18 19  2  0  0  0
 18 20  1  0  0  0
 19 21  1  0  0  0
 20 22  2  0  0  0
 21 23  2  0  0  0
 22 23  1  0  0  0
  4  1  1  0  0  0
  1 24  1  0  0  0
  1 49  1  0  0  0
 24 25  2  0  0  0
 49 50  1  0  0  0
 50 51  1  0  0  0
 51 52  1  0  0  0
 26 28  1  0  0  0
 28 42  1  0  0  0
 28 29  1  0  0  0
 42 43  1  0  0  0
 43 44  1  0  0  0
 43 45  1  0  0  0
 44 46  1  0  0  0
 45 47  1  0  0  0
 46 48  1  0  0  0
 47 48  1  0  0  0
 29 30  1  0  0  0
 29 31  1  0  0  0
 29 34  1  0  0  0
 34 35  1  0  0  0
 34 36  1  0  0  0
 34 37  1  0  0  0
 37 38  2  0  0  0
 39 40  1  0  0  0
 13 15  1  0  0  0
  2  4  1  0  0  0
 24 26  1  0  0  0
 37 39  1  0  0  0
 15 16  1  0  0  0
  4  5  1  0  0  0
 26 27  1  0  0  0
 30 32  1  0  0  0
 31 33  1  0  0  0
 39 41  1  0  0  0
M  END
> <minimizedAffinity>
-9.56392

$$$$
1EPO_2Z3_E_327


 52 54  0  0  0  0  0  0  0  0999 V2000
   34.2228   -9.2190   -0.3190 C   0  0  0  0  0  0  0  0  0  0  0  0
   34.1291   -7.0376   -1.4547 C   0  0  0  0  0  0  0  0  0  0  0  0
   32.9844   -6.9885   -1.2320 O   0  0  0  0  0  0  0  0  0  0  0  0
   34.8860   -8.0995   -1.0403 N   0  0  0  0  0  0  0  0  0  0  0  0
   35.8543   -8.1223   -1.2167 H   0  0  0  0  0  0  0  0  0  0  0  0
   34.9572   -5.9612   -2.2140 C   0  0  0  0  0  0  0  0  0  0  0  0
   34.0694   -7.2202   -8.3250 O   0  0  0  0  0  0  0  0  0  0  0  0
   33.2507   -6.5218   -7.3565 C   0  0  0  0  0  0  0  0  0  0  0  0
   34.0437   -6.0096   -6.3092 C   0  0  0  0  0  0  0  0  0  0  0  0
   34.9907   -6.9486   -5.8086 N   0  0  0  0  0  0  0  0  0  0  0  0
   35.6431   -7.9104   -6.6797 C   0  0  0  0  0  0  0  0  0  0  0  0
   34.6534   -8.3906   -7.6641 C   0  0  0  0  0  0  0  0  0  0  0  0
   35.2973   -6.9233   -4.4731 C   0  0  0  0  0  0  0  0  0  0  0  0
   36.1174   -7.7138   -4.0399 O   0  0  0  0  0  0  0  0  0  0  0  0
   34.7092   -6.0436   -3.6890 N   0  0  0  0  0  0  0  0  0  0  0  0
   34.0748   -5.4081   -4.0926 H   0  0  0  0  0  0  0  0  0  0  0  0
   34.3548   -4.5877   -1.7159 C   0  0  0  0  0  0  0  0  0  0  0  0
   35.0907   -3.4922   -2.4863 C   0  0  0  0  0  0  0  0  0  0  0  0
   36.3920   -3.2037   -2.2290 C   0  0  0  0  0  0  0  0  0  0  0  0
   34.3960   -2.8092   -3.5302 C   0  0  0  0  0  0  0  0  0  0  0  0
   37.1017   -2.2234   -2.9069 C   0  0  0  0  0  0  0  0  0  0  0  0
   35.1075   -1.8423   -4.2009 C   0  0  0  0  0  0  0  0  0  0  0  0
   36.4141   -1.5277   -3.9322 C   0  0  0  0  0  0  0  0  0  0  0  0
   35.2536   -9.6956    0.7671 C   0  0  0  0  0  0  0  0  0  0  0  0
   36.0332  -10.5753    0.4927 O   0  0  0  0  0  0  0  0  0  0  0  0
   35.2066   -9.0417    1.8764 N   0  0  0  0  0  0  0  0  0  0  0  0
   34.4537   -8.4292    2.0414 H   0  0  0  0  0  0  0  0  0  0  0  0
   36.2750   -9.1916    2.9260 C   0  0  0  0  0  0  0  0  0  0  0  0
   35.5929   -9.3278    4.2875 C   0  0  0  0  0  0  0  0  0  0  0  0
   34.3384   -8.5716    4.3474 O   0  0  0  0  0  0  0  0  0  0  0  0
   36.3952   -8.7588    5.2581 O   0  0  0  0  0  0  0  0  0  0  0  0
   33.6338   -8.7862    3.7682 H   0  0  0  0  0  0  0  0  0  0  0  0
   37.2609   -9.0873    5.4021 H   0  0  0  0  0  0  0  0  0  0  0  0
   35.3245  -10.7796    4.7024 C   0  0  0  0  0  0  0  0  0  0  0  0
   34.5409  -11.3503    3.8661 F   0  0  0  0  0  0  0  0  0  0  0  0
   34.6353  -10.8513    5.8525 F   0  0  0  0  0  0  0  0  0  0  0  0
   36.5928  -11.5407    4.8943 C   0  0  0  0  0  0  0  0  0  0  0  0
   37.0299  -12.4455    4.1274 O   0  0  0  0  0  0  0  0  0  0  0  0
   37.2966  -11.3408    6.0395 N   0  0  0  0  0  0  0  0  0  0  0  0
   38.5541  -12.1512    6.1813 C   0  0  0  0  0  0  0  0  0  0  0  0
   37.0015  -10.7059    6.7317 H   0  0  0  0  0  0  0  0  0  0  0  0
   37.3490   -8.1814    2.8565 C   0  0  0  0  0  0  0  0  0  0  0  0
   37.1216   -6.8690    2.1588 C   0  0  0  0  0  0  0  0  0  0  0  0
   38.0793   -6.5594    1.0926 C   0  0  0  0  0  0  0  0  0  0  0  0
   36.8507   -5.7190    3.0886 C   0  0  0  0  0  0  0  0  0  0  0  0
   38.0116   -5.2209    0.3779 C   0  0  0  0  0  0  0  0  0  0  0  0
   36.8182   -4.3636    2.4010 C   0  0  0  0  0  0  0  0  0  0  0  0
   37.8774   -4.1024    1.4248 C   0  0  0  0  0  0  0  0  0  0  0  0
   34.0331  -10.3914   -1.3230 C   0  0  0  0  0  0  0  0  0  0  0  0
   33.0372  -11.4168   -0.8322 C   0  0  0  0  0  0  0  0  0  0  0  0
   33.0383  -12.7782   -1.4753 C   0  0  0  0  0  0  0  0  0  0  0  0
   32.3325  -13.8336   -0.7154 C   0  0  0  0  0  0  0  0  0  0  0  0
  7  8  1  0  0  0
  7 12  1  0  0  0
  8  9  1  0  0  0
  9 10  1  0  0  0
 10 11  1  0  0  0
 10 13  1  0  0  0
 11 12  1  0  0  0
 13 14  2  0  0  0
 15  6  1  0  0  0
  6  2  1  0  0  0
  6 17  1  0  0  0
  2  3  2  0  0  0
 17 18  1  0  0  0
 18 19  2  0  0  0
 18 20  1  0  0  0
 19 21  1  0  0  0
 20 22  2  0  0  0
 21 23  2  0  0  0
 22 23  1  0  0  0
  4  1  1  0  0  0
  1 24  1  0  0  0
  1 49  1  0  0  0
 24 25  2  0  0  0
 49 50  1  0  0  0
 50 51  1  0  0  0
 51 52  1  0  0  0
 26 28  1  0  0  0
 28 42  1  0  0  0
 28 29  1  0  0  0
 42 43  1  0  0  0
 43 44  1  0  0  0
 43 45  1  0  0  0
 44 46  1  0  0  0
 45 47  1  0  0  0
 46 48  1  0  0  0
 47 48  1  0  0  0
 29 30  1  0  0  0
 29 31  1  0  0  0
 29 34  1  0  0  0
 34 35  1  0  0  0
 34 36  1  0  0  0
 34 37  1  0  0  0
 37 38  2  0  0  0
 39 40  1  0  0  0
 13 15  1  0  0  0
  2  4  1  0  0  0
 24 26  1  0  0  0
 37 39  1  0  0  0
 15 16  1  0  0  0
  4  5  1  0  0  0
 26 27  1  0  0  0
 30 32  1  0  0  0
 31 33  1  0  0  0
 39 41  1  0  0  0
M  END
> <minimizedAffinity>
-9.23747

$$$$
1EPO_2Z3_E_327


 52 54  0  0  0  0  0  0  0  0999 V2000
   38.0199   -6.3013   -3.8998 C   0  0  0  0  0  0  0  0  0  0  0  0
   36.2216   -7.8356   -4.5847 C   0  0  0  0  0  0  0  0  0  0  0  0
   36.9532   -8.3258   -5.3507 O   0  0  0  0  0  0  0  0  0  0  0  0
   36.6278   -6.8108   -3.7740 N   0  0  0  0  0  0  0  0  0  0  0  0
   36.0085   -6.4169   -3.1178 H   0  0  0  0  0  0  0  0  0  0  0  0
   34.7373   -8.2409   -4.3535 C   0  0  0  0  0  0  0  0  0  0  0  0
   34.0573  -12.0927    0.5880 O   0  0  0  0  0  0  0  0  0  0  0  0
   35.0325  -11.0634    0.2960 C   0  0  0  0  0  0  0  0  0  0  0  0
   34.5056  -10.1183   -0.6079 C   0  0  0  0  0  0  0  0  0  0  0  0
   33.8304  -10.7114   -1.7132 N   0  0  0  0  0  0  0  0  0  0  0  0
   33.0674  -11.9389   -1.5699 C   0  0  0  0  0  0  0  0  0  0  0  0
   33.7965  -12.8335   -0.6493 C   0  0  0  0  0  0  0  0  0  0  0  0
   33.8967  -10.0904   -2.9331 C   0  0  0  0  0  0  0  0  0  0  0  0
   33.3096  -10.5839   -3.8801 O   0  0  0  0  0  0  0  0  0  0  0  0
   34.5828   -8.9729   -3.0558 N   0  0  0  0  0  0  0  0  0  0  0  0
   35.0160   -8.5999   -2.2543 H   0  0  0  0  0  0  0  0  0  0  0  0
   33.9789   -6.8624   -4.2045 C   0  0  0  0  0  0  0  0  0  0  0  0
   32.9028   -6.8456   -5.2894 C   0  0  0  0  0  0  0  0  0  0  0  0
   32.9924   -6.0116   -6.3567 C   0  0  0  0  0  0  0  0  0  0  0  0
   31.8199   -7.7710   -5.1893 C   0  0  0  0  0  0  0  0  0  0  0  0
   32.0440   -5.9665   -7.3679 C   0  0  0  0  0  0  0  0  0  0  0  0
   30.8864   -7.7238   -6.1979 C   0  0  0  0  0  0  0  0  0  0  0  0
   30.9559   -6.8688   -7.2669 C   0  0  0  0  0  0  0  0  0  0  0  0
   38.4124   -5.7781   -2.4709 C   0  0  0  0  0  0  0  0  0  0  0  0
   39.5537   -5.4475   -2.2582 O   0  0  0  0  0  0  0  0  0  0  0  0
   37.4309   -5.6955   -1.6403 N   0  0  0  0  0  0  0  0  0  0  0  0
   36.5674   -6.1063   -1.8747 H   0  0  0  0  0  0  0  0  0  0  0  0
   37.5724   -4.9862   -0.3203 C   0  0  0  0  0  0  0  0  0  0  0  0
   36.8437   -5.8065    0.7445 C   0  0  0  0  0  0  0  0  0  0  0  0
   35.8657   -6.7240    0.1520 O   0  0  0  0  0  0  0  0  0  0  0  0
   36.0965   -4.9591    1.5402 O   0  0  0  0  0  0  0  0  0  0  0  0
   36.1503   -7.3975   -0.4339 H   0  0  0  0  0  0  0  0  0  0  0  0
   36.5192   -4.2781    2.0256 H   0  0  0  0  0  0  0  0  0  0  0  0
   37.7813   -6.5976    1.6649 C   0  0  0  0  0  0  0  0  0  0  0  0
   38.3796   -5.8134    2.4810 F   0  0  0  0  0  0  0  0  0  0  0  0
   38.7980   -7.1519    0.9853 F   0  0  0  0  0  0  0  0  0  0  0  0
   37.0620   -7.6988    2.3682 C   0  0  0  0  0  0  0  0  0  0  0  0
   37.0512   -8.9125    2.0151 O   0  0  0  0  0  0  0  0  0  0  0  0
   36.2541   -7.3761    3.4122 N   0  0  0  0  0  0  0  0  0  0  0  0
   35.5430   -8.5273    4.0658 C   0  0  0  0  0  0  0  0  0  0  0  0
   36.1419   -6.4479    3.7205 H   0  0  0  0  0  0  0  0  0  0  0  0
   37.2294   -3.5510   -0.3555 C   0  0  0  0  0  0  0  0  0  0  0  0
   36.3323   -3.0044   -1.4311 C   0  0  0  0  0  0  0  0  0  0  0  0
   35.2156   -3.8760   -1.8097 C   0  0  0  0  0  0  0  0  0  0  0  0
   37.0678   -2.4121   -2.6010 C   0  0  0  0  0  0  0  0  0  0  0  0
   34.2951   -3.4769   -2.9499 C   0  0  0  0  0  0  0  0  0  0  0  0
   36.1707   -2.0417   -3.7710 C   0  0  0  0  0  0  0  0  0  0  0  0
   35.1493   -3.0214   -4.1449 C   0  0  0  0  0  0  0  0  0  0  0  0
   37.9970   -5.0723   -4.8525 C   0  0  0  0  0  0  0  0  0  0  0  0
   38.7267   -5.3335   -6.1499 C   0  0  0  0  0  0  0  0  0  0  0  0
   37.9109   -5.5620   -7.3946 C   0  0  0  0  0  0  0  0  0  0  0  0
   36.4794   -5.2047   -7.2830 C   0  0  0  0  0  0  0  0  0  0  0  0
  7  8  1  0  0  0
  7 12  1  0  0  0
  8  9  1  0  0  0
  9 10  1  0  0  0
 10 11  1  0  0  0
 10 13  1  0  0  0
 11 12  1  0  0  0
 13 14  2  0  0  0
 15  6  1  0  0  0
  6  2  1  0  0  0
  6 17  1  0  0  0
  2  3  2  0  0  0
 17 18  1  0  0  0
 18 19  2  0  0  0
 18 20  1  0  0  0
 19 21  1  0  0  0
 20 22  2  0  0  0
 21 23  2  0  0  0
 22 23  1  0  0  0
  4  1  1  0  0  0
  1 24  1  0  0  0
  1 49  1  0  0  0
 24 25  2  0  0  0
 49 50  1  0  0  0
 50 51  1  0  0  0
 51 52  1  0  0  0
 26 28  1  0  0  0
 28 42  1  0  0  0
 28 29  1  0  0  0
 42 43  1  0  0  0
 43 44  1  0  0  0
 43 45  1  0  0  0
 44 46  1  0  0  0
 45 47  1  0  0  0
 46 48  1  0  0  0
 47 48  1  0  0  0
 29 30  1  0  0  0
 29 31  1  0  0  0
 29 34  1  0  0  0
 34 35  1  0  0  0
 34 36  1  0  0  0
 34 37  1  0  0  0
 37 38  2  0  0  0
 39 40  1  0  0  0
 13 15  1  0  0  0
  2  4  1  0  0  0
 24 26  1  0  0  0
 37 39  1  0  0  0
 15 16  1  0  0  0
  4  5  1  0  0  0
 26 27  1  0  0  0
 30 32  1  0  0  0
 31 33  1  0  0  0
 39 41  1  0  0  0
M  END
> <minimizedAffinity>
-8.81973

$$$$
1EPO_2Z3_E_327


 52 54  0  0  0  0  0  0  0  0999 V2000
   34.1323   -9.3135   -0.6884 C   0  0  0  0  0  0  0  0  0  0  0  0
   34.2824   -7.1172   -1.7887 C   0  0  0  0  0  0  0  0  0  0  0  0
   33.3038   -6.7936   -1.2411 O   0  0  0  0  0  0  0  0  0  0  0  0
   34.8254   -8.3579   -1.5940 N   0  0  0  0  0  0  0  0  0  0  0  0
   35.6616   -8.6143   -2.0460 H   0  0  0  0  0  0  0  0  0  0  0  0
   35.1055   -6.2426   -2.7780 C   0  0  0  0  0  0  0  0  0  0  0  0
   37.9953   -9.7905   -7.1114 O   0  0  0  0  0  0  0  0  0  0  0  0
   36.7130   -9.9274   -6.4536 C   0  0  0  0  0  0  0  0  0  0  0  0
   36.2484   -8.6759   -5.9999 C   0  0  0  0  0  0  0  0  0  0  0  0
   37.2481   -7.9127   -5.3310 N   0  0  0  0  0  0  0  0  0  0  0  0
   38.6409   -7.9564   -5.7405 C   0  0  0  0  0  0  0  0  0  0  0  0
   38.9715   -9.3462   -6.1127 C   0  0  0  0  0  0  0  0  0  0  0  0
   36.8712   -7.1090   -4.2869 C   0  0  0  0  0  0  0  0  0  0  0  0
   37.7183   -6.4418   -3.7190 O   0  0  0  0  0  0  0  0  0  0  0  0
   35.6056   -7.0663   -3.9249 N   0  0  0  0  0  0  0  0  0  0  0  0
   34.9556   -7.6028   -4.4336 H   0  0  0  0  0  0  0  0  0  0  0  0
   34.0496   -5.2222   -3.3623 C   0  0  0  0  0  0  0  0  0  0  0  0
   34.8180   -3.9365   -3.6650 C   0  0  0  0  0  0  0  0  0  0  0  0
   35.7125   -3.4263   -2.7805 C   0  0  0  0  0  0  0  0  0  0  0  0
   34.6188   -3.3055   -4.9304 C   0  0  0  0  0  0  0  0  0  0  0  0
   36.4370   -2.2669   -3.0152 C   0  0  0  0  0  0  0  0  0  0  0  0
   35.3441   -2.1596   -5.1578 C   0  0  0  0  0  0  0  0  0  0  0  0
   36.2316   -1.6239   -4.2612 C   0  0  0  0  0  0  0  0  0  0  0  0
   35.1733   -9.6673    0.4343 C   0  0  0  0  0  0  0  0  0  0  0  0
   35.7374  -10.7339    0.3990 O   0  0  0  0  0  0  0  0  0  0  0  0
   35.3776   -8.7287    1.2931 N   0  0  0  0  0  0  0  0  0  0  0  0
   34.7770   -7.9488    1.3042 H   0  0  0  0  0  0  0  0  0  0  0  0
   36.5124   -8.7959    2.2797 C   0  0  0  0  0  0  0  0  0  0  0  0
   35.9194   -8.9168    3.6838 C   0  0  0  0  0  0  0  0  0  0  0  0
   34.4540   -8.8826    3.6621 O   0  0  0  0  0  0  0  0  0  0  0  0
   36.2877   -7.8139    4.4305 O   0  0  0  0  0  0  0  0  0  0  0  0
   33.9766   -9.5466    3.2048 H   0  0  0  0  0  0  0  0  0  0  0  0
   37.1944   -7.6308    4.5800 H   0  0  0  0  0  0  0  0  0  0  0  0
   36.3815  -10.1654    4.4450 C   0  0  0  0  0  0  0  0  0  0  0  0
   36.7287   -9.8626    5.6396 F   0  0  0  0  0  0  0  0  0  0  0  0
   37.5100  -10.6768    3.9278 F   0  0  0  0  0  0  0  0  0  0  0  0
   35.3493  -11.2417    4.4151 C   0  0  0  0  0  0  0  0  0  0  0  0
   34.6331  -11.6002    5.3930 O   0  0  0  0  0  0  0  0  0  0  0  0
   35.2297  -11.9876    3.2855 N   0  0  0  0  0  0  0  0  0  0  0  0
   34.1857  -13.0678    3.3255 C   0  0  0  0  0  0  0  0  0  0  0  0
   35.7909  -11.8305    2.4920 H   0  0  0  0  0  0  0  0  0  0  0  0
   37.5323   -7.7419    2.1141 C   0  0  0  0  0  0  0  0  0  0  0  0
   37.3011   -6.5944    1.1704 C   0  0  0  0  0  0  0  0  0  0  0  0
   38.4375   -6.2648    0.3044 C   0  0  0  0  0  0  0  0  0  0  0  0
   36.6524   -5.3972    1.8079 C   0  0  0  0  0  0  0  0  0  0  0  0
   38.3600   -5.0660   -0.6248 C   0  0  0  0  0  0  0  0  0  0  0  0
   36.5997   -4.1720    0.9095 C   0  0  0  0  0  0  0  0  0  0  0  0
   37.8182   -3.8599    0.1607 C   0  0  0  0  0  0  0  0  0  0  0  0
   33.8539  -10.6174   -1.4889 C   0  0  0  0  0  0  0  0  0  0  0  0
   32.7435  -11.4427   -0.8805 C   0  0  0  0  0  0  0  0  0  0  0  0
   32.7986  -12.9393   -1.0363 C   0  0  0  0  0  0  0  0  0  0  0  0
   33.9401  -13.6001   -0.3657 C   0  0  0  0  0  0  0  0  0  0  0  0
  7  8  1  0  0  0
  7 12  1  0  0  0
  8  9  1  0  0  0
  9 10  1  0  0  0
 10 11  1  0  0  0
 10 13  1  0  0  0
 11 12  1  0  0  0
 13 14  2  0  0  0
 15  6  1  0  0  0
  6  2  1  0  0  0
  6 17  1  0  0  0
  2  3  2  0  0  0
 17 18  1  0  0  0
 18 19  2  0  0  0
 18 20  1  0  0  0
 19 21  1  0  0  0
 20 22  2  0  0  0
 21 23  2  0  0  0
 22 23  1  0  0  0
  4  1  1  0  0  0
  1 24  1  0  0  0
  1 49  1  0  0  0
 24 25  2  0  0  0
 49 50  1  0  0  0
 50 51  1  0  0  0
 51 52  1  0  0  0
 26 28  1  0  0  0
 28 42  1  0  0  0
 28 29  1  0  0  0
 42 43  1  0  0  0
 43 44  1  0  0  0
 43 45  1  0  0  0
 44 46  1  0  0  0
 45 47  1  0  0  0
 46 48  1  0  0  0
 47 48  1  0  0  0
 29 30  1  0  0  0
 29 31  1  0  0  0
 29 34  1  0  0  0
 34 35  1  0  0  0
 34 36  1  0  0  0
 34 37  1  0  0  0
 37 38  2  0  0  0
 39 40  1  0  0  0
 13 15  1  0  0  0
  2  4  1  0  0  0
 24 26  1  0  0  0
 37 39  1  0  0  0
 15 16  1  0  0  0
  4  5  1  0  0  0
 26 27  1  0  0  0
 30 32  1  0  0  0
 31 33  1  0  0  0
 39 41  1  0  0  0
M  END
> <minimizedAffinity>
-8.62947

$$$$
1EPO_2Z3_E_327


 52 54  0  0  0  0  0  0  0  0999 V2000
   33.6923   -9.6814   -0.9402 C   0  0  0  0  0  0  0  0  0  0  0  0
   34.0101   -7.8991   -2.6074 C   0  0  0  0  0  0  0  0  0  0  0  0
   33.1520   -7.2926   -2.0994 O   0  0  0  0  0  0  0  0  0  0  0  0
   34.4003   -9.1169   -2.1207 N   0  0  0  0  0  0  0  0  0  0  0  0
   35.1380   -9.6119   -2.5451 H   0  0  0  0  0  0  0  0  0  0  0  0
   34.8257   -7.4543   -3.8556 C   0  0  0  0  0  0  0  0  0  0  0  0
   39.5720   -3.9143   -1.6973 O   0  0  0  0  0  0  0  0  0  0  0  0
   39.3077   -5.3343   -1.5999 C   0  0  0  0  0  0  0  0  0  0  0  0
   38.4709   -5.7599   -2.6517 C   0  0  0  0  0  0  0  0  0  0  0  0
   37.3552   -4.9007   -2.8668 N   0  0  0  0  0  0  0  0  0  0  0  0
   37.4544   -3.4633   -2.6834 C   0  0  0  0  0  0  0  0  0  0  0  0
   38.3049   -3.2036   -1.5050 C   0  0  0  0  0  0  0  0  0  0  0  0
   36.1688   -5.4542   -3.2719 C   0  0  0  0  0  0  0  0  0  0  0  0
   35.2138   -4.7241   -3.4721 O   0  0  0  0  0  0  0  0  0  0  0  0
   36.0864   -6.7572   -3.4451 N   0  0  0  0  0  0  0  0  0  0  0  0
   36.8940   -7.3004   -3.2973 H   0  0  0  0  0  0  0  0  0  0  0  0
   35.2471   -8.8120   -4.5459 C   0  0  0  0  0  0  0  0  0  0  0  0
   34.1360   -9.1513   -5.5386 C   0  0  0  0  0  0  0  0  0  0  0  0
   33.5770   -8.1948   -6.3231 C   0  0  0  0  0  0  0  0  0  0  0  0
   33.7312  -10.5144   -5.6686 C   0  0  0  0  0  0  0  0  0  0  0  0
   32.5716   -8.4572   -7.2421 C   0  0  0  0  0  0  0  0  0  0  0  0
   32.7377  -10.7675   -6.5850 C   0  0  0  0  0  0  0  0  0  0  0  0
   32.1507   -9.8048   -7.3643 C   0  0  0  0  0  0  0  0  0  0  0  0
   34.8172  -10.2438    0.0020 C   0  0  0  0  0  0  0  0  0  0  0  0
   35.6481  -10.9909   -0.4544 O   0  0  0  0  0  0  0  0  0  0  0  0
   34.7803   -9.7964    1.2098 N   0  0  0  0  0  0  0  0  0  0  0  0
   33.9912   -9.2904    1.5107 H   0  0  0  0  0  0  0  0  0  0  0  0
   35.9144  -10.0287    2.1718 C   0  0  0  0  0  0  0  0  0  0  0  0
   35.3206  -10.3907    3.5333 C   0  0  0  0  0  0  0  0  0  0  0  0
   34.2109  -11.3407    3.4096 O   0  0  0  0  0  0  0  0  0  0  0  0
   34.7586   -9.2626    4.1000 O   0  0  0  0  0  0  0  0  0  0  0  0
   34.3601  -12.1904    3.0440 H   0  0  0  0  0  0  0  0  0  0  0  0
   35.2907   -8.5115    4.2749 H   0  0  0  0  0  0  0  0  0  0  0  0
   36.3476  -10.9450    4.5284 C   0  0  0  0  0  0  0  0  0  0  0  0
   36.6859  -10.0461    5.3750 F   0  0  0  0  0  0  0  0  0  0  0  0
   37.5120  -11.2436    3.9304 F   0  0  0  0  0  0  0  0  0  0  0  0
   35.8559  -12.1866    5.1927 C   0  0  0  0  0  0  0  0  0  0  0  0
   35.0695  -12.2288    6.1815 O   0  0  0  0  0  0  0  0  0  0  0  0
   36.3699  -13.3786    4.7905 N   0  0  0  0  0  0  0  0  0  0  0  0
   35.8483  -14.5895    5.5115 C   0  0  0  0  0  0  0  0  0  0  0  0
   37.0407  -13.4445    4.0729 H   0  0  0  0  0  0  0  0  0  0  0  0
   36.9311   -8.9588    2.1910 C   0  0  0  0  0  0  0  0  0  0  0  0
   36.5212   -7.5125    2.1592 C   0  0  0  0  0  0  0  0  0  0  0  0
   36.7605   -6.8279    0.8848 C   0  0  0  0  0  0  0  0  0  0  0  0
   36.9537   -6.7257    3.3651 C   0  0  0  0  0  0  0  0  0  0  0  0
   36.4761   -5.3415    0.7576 C   0  0  0  0  0  0  0  0  0  0  0  0
   36.7154   -5.2292    3.2439 C   0  0  0  0  0  0  0  0  0  0  0  0
   37.0822   -4.6120    1.9682 C   0  0  0  0  0  0  0  0  0  0  0  0
   32.8445  -10.8925   -1.4228 C   0  0  0  0  0  0  0  0  0  0  0  0
   32.6405  -11.9240   -0.3372 C   0  0  0  0  0  0  0  0  0  0  0  0
   32.5023  -13.3679   -0.7409 C   0  0  0  0  0  0  0  0  0  0  0  0
   33.1545  -13.7290   -2.0190 C   0  0  0  0  0  0  0  0  0  0  0  0
  7  8  1  0  0  0
  7 12  1  0  0  0
  8  9  1  0  0  0
  9 10  1  0  0  0
 10 11  1  0  0  0
 10 13  1  0  0  0
 11 12  1  0  0  0
 13 14  2  0  0  0
 15  6  1  0  0  0
  6  2  1  0  0  0
  6 17  1  0  0  0
  2  3  2  0  0  0
 17 18  1  0  0  0
 18 19  2  0  0  0
 18 20  1  0  0  0
 19 21  1  0  0  0
 20 22  2  0  0  0
 21 23  2  0  0  0
 22 23  1  0  0  0
  4  1  1  0  0  0
  1 24  1  0  0  0
  1 49  1  0  0  0
 24 25  2  0  0  0
 49 50  1  0  0  0
 50 51  1  0  0  0
 51 52  1  0  0  0
 26 28  1  0  0  0
 28 42  1  0  0  0
 28 29  1  0  0  0
 42 43  1  0  0  0
 43 44  1  0  0  0
 43 45  1  0  0  0
 44 46  1  0  0  0
 45 47  1  0  0  0
 46 48  1  0  0  0
 47 48  1  0  0  0
 29 30  1  0  0  0
 29 31  1  0  0  0
 29 34  1  0  0  0
 34 35  1  0  0  0
 34 36  1  0  0  0
 34 37  1  0  0  0
 37 38  2  0  0  0
 39 40  1  0  0  0
 13 15  1  0  0  0
  2  4  1  0  0  0
 24 26  1  0  0  0
 37 39  1  0  0  0
 15 16  1  0  0  0
  4  5  1  0  0  0
 26 27  1  0  0  0
 30 32  1  0  0  0
 31 33  1  0  0  0
 39 41  1  0  0  0
M  END
> <minimizedAffinity>
-8.46328

$$$$
1EPO_2Z3_E_327


 52 54  0  0  0  0  0  0  0  0999 V2000
   33.9956   -9.8753   -0.8180 C   0  0  0  0  0  0  0  0  0  0  0  0
   33.8839   -7.6432   -1.8487 C   0  0  0  0  0  0  0  0  0  0  0  0
   33.0517   -7.3494   -1.0848 O   0  0  0  0  0  0  0  0  0  0  0  0
   34.4628   -8.8827   -1.8230 N   0  0  0  0  0  0  0  0  0  0  0  0
   35.1773   -9.1141   -2.4595 H   0  0  0  0  0  0  0  0  0  0  0  0
   34.4593   -6.7274   -2.9672 C   0  0  0  0  0  0  0  0  0  0  0  0
   30.5023   -7.3651   -7.8306 O   0  0  0  0  0  0  0  0  0  0  0  0
   30.4116   -6.5922   -6.6099 C   0  0  0  0  0  0  0  0  0  0  0  0
   31.6956   -6.3152   -6.0977 C   0  0  0  0  0  0  0  0  0  0  0  0
   32.5561   -7.4504   -6.0901 N   0  0  0  0  0  0  0  0  0  0  0  0
   32.4992   -8.4562   -7.1363 C   0  0  0  0  0  0  0  0  0  0  0  0
   31.0840   -8.6687   -7.4990 C   0  0  0  0  0  0  0  0  0  0  0  0
   33.4666   -7.5772   -5.0737 C   0  0  0  0  0  0  0  0  0  0  0  0
   34.2161   -8.5382   -5.0682 O   0  0  0  0  0  0  0  0  0  0  0  0
   33.5200   -6.6580   -4.1320 N   0  0  0  0  0  0  0  0  0  0  0  0
   32.9120   -5.8865   -4.1969 H   0  0  0  0  0  0  0  0  0  0  0  0
   34.4945   -5.2905   -2.3103 C   0  0  0  0  0  0  0  0  0  0  0  0
   35.1393   -4.3639   -3.3402 C   0  0  0  0  0  0  0  0  0  0  0  0
   36.3693   -4.6268   -3.8510 C   0  0  0  0  0  0  0  0  0  0  0  0
   34.3952   -3.2364   -3.8027 C   0  0  0  0  0  0  0  0  0  0  0  0
   36.9904   -3.8185   -4.7917 C   0  0  0  0  0  0  0  0  0  0  0  0
   35.0154   -2.4427   -4.7388 C   0  0  0  0  0  0  0  0  0  0  0  0
   36.2665   -2.6869   -5.2426 C   0  0  0  0  0  0  0  0  0  0  0  0
   35.0711   -9.8596    0.3277 C   0  0  0  0  0  0  0  0  0  0  0  0
   36.0091  -10.6167    0.2648 O   0  0  0  0  0  0  0  0  0  0  0  0
   34.8747   -8.9683    1.2372 N   0  0  0  0  0  0  0  0  0  0  0  0
   34.0160   -8.4874    1.2610 H   0  0  0  0  0  0  0  0  0  0  0  0
   35.9264   -8.6447    2.2643 C   0  0  0  0  0  0  0  0  0  0  0  0
   36.7801   -7.4947    1.7293 C   0  0  0  0  0  0  0  0  0  0  0  0
   36.1447   -6.8281    0.5886 O   0  0  0  0  0  0  0  0  0  0  0  0
   37.9642   -8.0010    1.2280 O   0  0  0  0  0  0  0  0  0  0  0  0
   35.3155   -6.4051    0.6956 H   0  0  0  0  0  0  0  0  0  0  0  0
   38.5455   -8.4757    1.7890 H   0  0  0  0  0  0  0  0  0  0  0  0
   37.1381   -6.4452    2.7887 C   0  0  0  0  0  0  0  0  0  0  0  0
   37.7303   -6.9921    3.7833 F   0  0  0  0  0  0  0  0  0  0  0  0
   36.0431   -5.9102    3.3520 F   0  0  0  0  0  0  0  0  0  0  0  0
   37.9333   -5.3252    2.2073 C   0  0  0  0  0  0  0  0  0  0  0  0
   39.1859   -5.3239    2.0380 O   0  0  0  0  0  0  0  0  0  0  0  0
   37.2951   -4.1571    1.9334 N   0  0  0  0  0  0  0  0  0  0  0  0
   38.1549   -3.0620    1.3678 C   0  0  0  0  0  0  0  0  0  0  0  0
   36.3316   -4.0360    2.0952 H   0  0  0  0  0  0  0  0  0  0  0  0
   36.6804   -9.8132    2.7591 C   0  0  0  0  0  0  0  0  0  0  0  0
   36.1736  -10.6125    3.9275 C   0  0  0  0  0  0  0  0  0  0  0  0
   37.2052  -11.3329    4.6803 C   0  0  0  0  0  0  0  0  0  0  0  0
   34.9528  -11.4359    3.6240 C   0  0  0  0  0  0  0  0  0  0  0  0
   36.8078  -12.2499    5.8239 C   0  0  0  0  0  0  0  0  0  0  0  0
   34.5594  -12.3910    4.7392 C   0  0  0  0  0  0  0  0  0  0  0  0
   35.6464  -13.1468    5.3638 C   0  0  0  0  0  0  0  0  0  0  0  0
   34.0415  -11.2833   -1.4766 C   0  0  0  0  0  0  0  0  0  0  0  0
   32.9166  -12.1772   -1.0080 C   0  0  0  0  0  0  0  0  0  0  0  0
   33.0873  -13.6675   -1.1379 C   0  0  0  0  0  0  0  0  0  0  0  0
   33.8736  -14.3071   -0.0599 C   0  0  0  0  0  0  0  0  0  0  0  0
  7  8  1  0  0  0
  7 12  1  0  0  0
  8  9  1  0  0  0
  9 10  1  0  0  0
 10 11  1  0  0  0
 10 13  1  0  0  0
 11 12  1  0  0  0
 13 14  2  0  0  0
 15  6  1  0  0  0
  6  2  1  0  0  0
  6 17  1  0  0  0
  2  3  2  0  0  0
 17 18  1  0  0  0
 18 19  2  0  0  0
 18 20  1  0  0  0
 19 21  1  0  0  0
 20 22  2  0  0  0
 21 23  2  0  0  0
 22 23  1  0  0  0
  4  1  1  0  0  0
  1 24  1  0  0  0
  1 49  1  0  0  0
 24 25  2  0  0  0
 49 50  1  0  0  0
 50 51  1  0  0  0
 51 52  1  0  0  0
 26 28  1  0  0  0
 28 42  1  0  0  0
 28 29  1  0  0  0
 42 43  1  0  0  0
 43 44  1  0  0  0
 43 45  1  0  0  0
 44 46  1  0  0  0
 45 47  1  0  0  0
 46 48  1  0  0  0
 47 48  1  0  0  0
 29 30  1  0  0  0
 29 31  1  0  0  0
 29 34  1  0  0  0
 34 35  1  0  0  0
 34 36  1  0  0  0
 34 37  1  0  0  0
 37 38  2  0  0  0
 39 40  1  0  0  0
 13 15  1  0  0  0
  2  4  1  0  0  0
 24 26  1  0  0  0
 37 39  1  0  0  0
 15 16  1  0  0  0
  4  5  1  0  0  0
 26 27  1  0  0  0
 30 32  1  0  0  0
 31 33  1  0  0  0
 39 41  1  0  0  0
M  END
> <minimizedAffinity>
-8.41696

$$$$
1EPO_2Z3_E_327


 52 54  0  0  0  0  0  0  0  0999 V2000
   35.0451   -6.2163   -2.6131 C   0  0  0  0  0  0  0  0  0  0  0  0
   34.4787   -8.3482   -3.7046 C   0  0  0  0  0  0  0  0  0  0  0  0
   35.5779   -8.4251   -4.0893 O   0  0  0  0  0  0  0  0  0  0  0  0
   34.0702   -7.2931   -2.9350 N   0  0  0  0  0  0  0  0  0  0  0  0
   33.1457   -7.2473   -2.5996 H   0  0  0  0  0  0  0  0  0  0  0  0
   33.3438   -9.3777   -3.9751 C   0  0  0  0  0  0  0  0  0  0  0  0
   33.6148  -14.0547    0.2402 O   0  0  0  0  0  0  0  0  0  0  0  0
   33.7448  -12.6200    0.3836 C   0  0  0  0  0  0  0  0  0  0  0  0
   33.0895  -11.9515   -0.6707 C   0  0  0  0  0  0  0  0  0  0  0  0
   33.3699  -12.5085   -1.9515 N   0  0  0  0  0  0  0  0  0  0  0  0
   33.5636  -13.9362   -2.1353 C   0  0  0  0  0  0  0  0  0  0  0  0
   34.3222  -14.4539   -0.9795 C   0  0  0  0  0  0  0  0  0  0  0  0
   33.4403  -11.6681   -3.0318 C   0  0  0  0  0  0  0  0  0  0  0  0
   33.6653  -12.1388   -4.1331 O   0  0  0  0  0  0  0  0  0  0  0  0
   33.2555  -10.3753   -2.8612 N   0  0  0  0  0  0  0  0  0  0  0  0
   33.0488  -10.0481   -1.9559 H   0  0  0  0  0  0  0  0  0  0  0  0
   32.0208   -8.5143   -3.9340 C   0  0  0  0  0  0  0  0  0  0  0  0
   31.5587   -8.3686   -5.3833 C   0  0  0  0  0  0  0  0  0  0  0  0
   30.7569   -7.3425   -5.7665 C   0  0  0  0  0  0  0  0  0  0  0  0
   32.0352   -9.3073   -6.3480 C   0  0  0  0  0  0  0  0  0  0  0  0
   30.3184   -7.1665   -7.0707 C   0  0  0  0  0  0  0  0  0  0  0  0
   31.6003   -9.1235   -7.6395 C   0  0  0  0  0  0  0  0  0  0  0  0
   30.7716   -8.1045   -8.0314 C   0  0  0  0  0  0  0  0  0  0  0  0
   35.0045   -6.0587   -1.0501 C   0  0  0  0  0  0  0  0  0  0  0  0
   33.9831   -5.6918   -0.5219 O   0  0  0  0  0  0  0  0  0  0  0  0
   36.0906   -6.4005   -0.4469 N   0  0  0  0  0  0  0  0  0  0  0  0
   36.9029   -6.5666   -0.9777 H   0  0  0  0  0  0  0  0  0  0  0  0
   36.1473   -6.5521    1.0495 C   0  0  0  0  0  0  0  0  0  0  0  0
   36.7284   -5.2667    1.6392 C   0  0  0  0  0  0  0  0  0  0  0  0
   36.3423   -5.0865    3.0419 O   0  0  0  0  0  0  0  0  0  0  0  0
   36.1878   -4.1784    0.9812 O   0  0  0  0  0  0  0  0  0  0  0  0
   36.6038   -5.7163    3.6844 H   0  0  0  0  0  0  0  0  0  0  0  0
   36.3096   -4.0816    0.0572 H   0  0  0  0  0  0  0  0  0  0  0  0
   38.2543   -5.1667    1.5214 C   0  0  0  0  0  0  0  0  0  0  0  0
   38.8222   -6.0425    2.2626 F   0  0  0  0  0  0  0  0  0  0  0  0
   38.7190   -4.0094    2.0189 F   0  0  0  0  0  0  0  0  0  0  0  0
   38.7037   -5.2546    0.1019 C   0  0  0  0  0  0  0  0  0  0  0  0
   39.2048   -6.2764   -0.4482 O   0  0  0  0  0  0  0  0  0  0  0  0
   38.6866   -4.1227   -0.6500 N   0  0  0  0  0  0  0  0  0  0  0  0
   39.1694   -4.2731   -2.0650 C   0  0  0  0  0  0  0  0  0  0  0  0
   38.3778   -3.2597   -0.2907 H   0  0  0  0  0  0  0  0  0  0  0  0
   36.7789   -7.8021    1.5158 C   0  0  0  0  0  0  0  0  0  0  0  0
   36.0595   -8.7130    2.4716 C   0  0  0  0  0  0  0  0  0  0  0  0
   36.3158   -8.4497    3.8911 C   0  0  0  0  0  0  0  0  0  0  0  0
   36.1255  -10.1681    2.0993 C   0  0  0  0  0  0  0  0  0  0  0  0
   35.7218   -9.3615    4.9506 C   0  0  0  0  0  0  0  0  0  0  0  0
   35.5728  -11.1032    3.1628 C   0  0  0  0  0  0  0  0  0  0  0  0
   35.9673  -10.8244    4.5447 C   0  0  0  0  0  0  0  0  0  0  0  0
   34.5142   -4.8893   -3.2259 C   0  0  0  0  0  0  0  0  0  0  0  0
   34.7177   -4.8218   -4.7220 C   0  0  0  0  0  0  0  0  0  0  0  0
   33.5063   -4.9064   -5.6120 C   0  0  0  0  0  0  0  0  0  0  0  0
   33.7303   -5.5630   -6.9190 C   0  0  0  0  0  0  0  0  0  0  0  0
  7  8  1  0  0  0
  7 12  1  0  0  0
  8  9  1  0  0  0
  9 10  1  0  0  0
 10 11  1  0  0  0
 10 13  1  0  0  0
 11 12  1  0  0  0
 13 14  2  0  0  0
 15  6  1  0  0  0
  6  2  1  0  0  0
  6 17  1  0  0  0
  2  3  2  0  0  0
 17 18  1  0  0  0
 18 19  2  0  0  0
 18 20  1  0  0  0
 19 21  1  0  0  0
 20 22  2  0  0  0
 21 23  2  0  0  0
 22 23  1  0  0  0
  4  1  1  0  0  0
  1 24  1  0  0  0
  1 49  1  0  0  0
 24 25  2  0  0  0
 49 50  1  0  0  0
 50 51  1  0  0  0
 51 52  1  0  0  0
 26 28  1  0  0  0
 28 42  1  0  0  0
 28 29  1  0  0  0
 42 43  1  0  0  0
 43 44  1  0  0  0
 43 45  1  0  0  0
 44 46  1  0  0  0
 45 47  1  0  0  0
 46 48  1  0  0  0
 47 48  1  0  0  0
 29 30  1  0  0  0
 29 31  1  0  0  0
 29 34  1  0  0  0
 34 35  1  0  0  0
 34 36  1  0  0  0
 34 37  1  0  0  0
 37 38  2  0  0  0
 39 40  1  0  0  0
 13 15  1  0  0  0
  2  4  1  0  0  0
 24 26  1  0  0  0
 37 39  1  0  0  0
 15 16  1  0  0  0
  4  5  1  0  0  0
 26 27  1  0  0  0
 30 32  1  0  0  0
 31 33  1  0  0  0
 39 41  1  0  0  0
M  END
> <minimizedAffinity>
-8.40773

$$$$
1EPO_2Z3_E_327


 52 54  0  0  0  0  0  0  0  0999 V2000
   33.0421   -8.5827   -1.6259 C   0  0  0  0  0  0  0  0  0  0  0  0
   31.7902   -8.6062   -3.7447 C   0  0  0  0  0  0  0  0  0  0  0  0
   30.8528   -8.9952   -3.1682 O   0  0  0  0  0  0  0  0  0  0  0  0
   32.9629   -8.3406   -3.0917 N   0  0  0  0  0  0  0  0  0  0  0  0
   33.7421   -7.9946   -3.5841 H   0  0  0  0  0  0  0  0  0  0  0  0
   31.8697   -8.3272   -5.2733 C   0  0  0  0  0  0  0  0  0  0  0  0
   32.4453  -14.0177   -7.9198 O   0  0  0  0  0  0  0  0  0  0  0  0
   31.2860  -13.2802   -7.4638 C   0  0  0  0  0  0  0  0  0  0  0  0
   31.5459  -11.8945   -7.4590 C   0  0  0  0  0  0  0  0  0  0  0  0
   32.8033  -11.5591   -6.8797 N   0  0  0  0  0  0  0  0  0  0  0  0
   33.9653  -12.4170   -7.0324 C   0  0  0  0  0  0  0  0  0  0  0  0
   33.5198  -13.8216   -6.9427 C   0  0  0  0  0  0  0  0  0  0  0  0
   32.9106  -10.3876   -6.1766 C   0  0  0  0  0  0  0  0  0  0  0  0
   33.9868  -10.0867   -5.6904 O   0  0  0  0  0  0  0  0  0  0  0  0
   31.8562   -9.6090   -6.0483 N   0  0  0  0  0  0  0  0  0  0  0  0
   31.0168   -9.8832   -6.4836 H   0  0  0  0  0  0  0  0  0  0  0  0
   30.5206   -7.5712   -5.5989 C   0  0  0  0  0  0  0  0  0  0  0  0
   30.7498   -6.8339   -6.9176 C   0  0  0  0  0  0  0  0  0  0  0  0
   31.9519   -6.2765   -7.2126 C   0  0  0  0  0  0  0  0  0  0  0  0
   29.6847   -6.7898   -7.8676 C   0  0  0  0  0  0  0  0  0  0  0  0
   32.2075   -5.6042   -8.3988 C   0  0  0  0  0  0  0  0  0  0  0  0
   29.9471   -6.1260   -9.0430 C   0  0  0  0  0  0  0  0  0  0  0  0
   31.1499   -5.5396   -9.3397 C   0  0  0  0  0  0  0  0  0  0  0  0
   33.8184   -7.3520   -1.0324 C   0  0  0  0  0  0  0  0  0  0  0  0
   33.2722   -6.2765   -0.9900 O   0  0  0  0  0  0  0  0  0  0  0  0
   34.9928   -7.6253   -0.5782 N   0  0  0  0  0  0  0  0  0  0  0  0
   35.3909   -8.5043   -0.7738 H   0  0  0  0  0  0  0  0  0  0  0  0
   35.7707   -6.6334    0.2442 C   0  0  0  0  0  0  0  0  0  0  0  0
   36.4779   -5.6705   -0.7099 C   0  0  0  0  0  0  0  0  0  0  0  0
   36.2061   -5.9952   -2.1134 O   0  0  0  0  0  0  0  0  0  0  0  0
   37.8453   -5.8147   -0.5721 O   0  0  0  0  0  0  0  0  0  0  0  0
   35.3285   -5.9639   -2.4401 H   0  0  0  0  0  0  0  0  0  0  0  0
   38.2521   -5.6552    0.2568 H   0  0  0  0  0  0  0  0  0  0  0  0
   36.1414   -4.1950   -0.4614 C   0  0  0  0  0  0  0  0  0  0  0  0
   37.0783   -3.6236    0.1979 F   0  0  0  0  0  0  0  0  0  0  0  0
   35.0794   -4.0541    0.3479 F   0  0  0  0  0  0  0  0  0  0  0  0
   35.8314   -3.4795   -1.7330 C   0  0  0  0  0  0  0  0  0  0  0  0
   34.6966   -3.4241   -2.2870 O   0  0  0  0  0  0  0  0  0  0  0  0
   36.8605   -2.9291   -2.4292 N   0  0  0  0  0  0  0  0  0  0  0  0
   36.4852   -2.2396   -3.7105 C   0  0  0  0  0  0  0  0  0  0  0  0
   37.7920   -2.9789   -2.1144 H   0  0  0  0  0  0  0  0  0  0  0  0
   36.6290   -7.2368    1.2826 C   0  0  0  0  0  0  0  0  0  0  0  0
   36.0909   -8.3030    2.1961 C   0  0  0  0  0  0  0  0  0  0  0  0
   36.4269   -8.1331    3.6132 C   0  0  0  0  0  0  0  0  0  0  0  0
   36.2868   -9.7037    1.6862 C   0  0  0  0  0  0  0  0  0  0  0  0
   36.0212   -9.1943    4.6210 C   0  0  0  0  0  0  0  0  0  0  0  0
   35.9249  -10.7835    2.6931 C   0  0  0  0  0  0  0  0  0  0  0  0
   36.3933  -10.5790    4.0649 C   0  0  0  0  0  0  0  0  0  0  0  0
   33.9248   -9.8420   -1.3944 C   0  0  0  0  0  0  0  0  0  0  0  0
   33.1399  -11.1278   -1.5158 C   0  0  0  0  0  0  0  0  0  0  0  0
   33.2150  -12.1197   -0.3855 C   0  0  0  0  0  0  0  0  0  0  0  0
   32.6831  -13.4657   -0.6932 C   0  0  0  0  0  0  0  0  0  0  0  0
  7  8  1  0  0  0
  7 12  1  0  0  0
  8  9  1  0  0  0
  9 10  1  0  0  0
 10 11  1  0  0  0
 10 13  1  0  0  0
 11 12  1  0  0  0
 13 14  2  0  0  0
 15  6  1  0  0  0
  6  2  1  0  0  0
  6 17  1  0  0  0
  2  3  2  0  0  0
 17 18  1  0  0  0
 18 19  2  0  0  0
 18 20  1  0  0  0
 19 21  1  0  0  0
 20 22  2  0  0  0
 21 23  2  0  0  0
 22 23  1  0  0  0
  4  1  1  0  0  0
  1 24  1  0  0  0
  1 49  1  0  0  0
 24 25  2  0  0  0
 49 50  1  0  0  0
 50 51  1  0  0  0
 51 52  1  0  0  0
 26 28  1  0  0  0
 28 42  1  0  0  0
 28 29  1  0  0  0
 42 43  1  0  0  0
 43 44  1  0  0  0
 43 45  1  0  0  0
 44 46  1  0  0  0
 45 47  1  0  0  0
 46 48  1  0  0  0
 47 48  1  0  0  0
 29 30  1  0  0  0
 29 31  1  0  0  0
 29 34  1  0  0  0
 34 35  1  0  0  0
 34 36  1  0  0  0
 34 37  1  0  0  0
 37 38  2  0  0  0
 39 40  1  0  0  0
 13 15  1  0  0  0
  2  4  1  0  0  0
 24 26  1  0  0  0
 37 39  1  0  0  0
 15 16  1  0  0  0
  4  5  1  0  0  0
 26 27  1  0  0  0
 30 32  1  0  0  0
 31 33  1  0  0  0
 39 41  1  0  0  0
M  END
> <minimizedAffinity>
-8.32328

$$$$
1EPO_2Z3_E_327


 52 54  0  0  0  0  0  0  0  0999 V2000
   34.1488   -9.6218   -1.1496 C   0  0  0  0  0  0  0  0  0  0  0  0
   35.6809   -9.7979    0.7684 C   0  0  0  0  0  0  0  0  0  0  0  0
   36.0375  -10.8347    0.3683 O   0  0  0  0  0  0  0  0  0  0  0  0
   34.7410   -9.0649    0.0965 N   0  0  0  0  0  0  0  0  0  0  0  0
   34.4609   -8.1828    0.4324 H   0  0  0  0  0  0  0  0  0  0  0  0
   36.1870   -9.0967    2.0619 C   0  0  0  0  0  0  0  0  0  0  0  0
   36.8183  -13.7293    6.2877 O   0  0  0  0  0  0  0  0  0  0  0  0
   37.6789  -13.2819    5.2130 C   0  0  0  0  0  0  0  0  0  0  0  0
   37.4233  -11.9317    4.8978 C   0  0  0  0  0  0  0  0  0  0  0  0
   36.0349  -11.6310    4.7916 N   0  0  0  0  0  0  0  0  0  0  0  0
   35.0487  -12.2770    5.6399 C   0  0  0  0  0  0  0  0  0  0  0  0
   35.4350  -13.6922    5.8054 C   0  0  0  0  0  0  0  0  0  0  0  0
   35.6341  -10.6958    3.8735 C   0  0  0  0  0  0  0  0  0  0  0  0
   34.4496  -10.4226    3.7869 O   0  0  0  0  0  0  0  0  0  0  0  0
   36.5332  -10.1067    3.1125 N   0  0  0  0  0  0  0  0  0  0  0  0
   37.4805  -10.3420    3.2406 H   0  0  0  0  0  0  0  0  0  0  0  0
   37.5358   -8.4006    1.6218 C   0  0  0  0  0  0  0  0  0  0  0  0
   37.3600   -6.9088    1.9028 C   0  0  0  0  0  0  0  0  0  0  0  0
   36.7597   -6.4727    3.0396 C   0  0  0  0  0  0  0  0  0  0  0  0
   37.8935   -5.9717    0.9668 C   0  0  0  0  0  0  0  0  0  0  0  0
   36.5845   -5.1298    3.3396 C   0  0  0  0  0  0  0  0  0  0  0  0
   37.7203   -4.6424    1.2735 C   0  0  0  0  0  0  0  0  0  0  0  0
   37.0945   -4.1928    2.4070 C   0  0  0  0  0  0  0  0  0  0  0  0
   33.9194   -8.3907   -2.0990 C   0  0  0  0  0  0  0  0  0  0  0  0
   32.9551   -7.6857   -1.9258 O   0  0  0  0  0  0  0  0  0  0  0  0
   34.8460   -8.2077   -2.9754 N   0  0  0  0  0  0  0  0  0  0  0  0
   35.5226   -8.9095   -3.1128 H   0  0  0  0  0  0  0  0  0  0  0  0
   34.9190   -6.9467   -3.7941 C   0  0  0  0  0  0  0  0  0  0  0  0
   34.2870   -7.2244   -5.1582 C   0  0  0  0  0  0  0  0  0  0  0  0
   33.2884   -8.2956   -5.0892 O   0  0  0  0  0  0  0  0  0  0  0  0
   35.2560   -7.6997   -6.0213 O   0  0  0  0  0  0  0  0  0  0  0  0
   32.5269   -8.1923   -4.5530 H   0  0  0  0  0  0  0  0  0  0  0  0
   36.0057   -7.1737   -6.2193 H   0  0  0  0  0  0  0  0  0  0  0  0
   33.6538   -5.9888   -5.8097 C   0  0  0  0  0  0  0  0  0  0  0  0
   34.5281   -5.3322   -6.4758 F   0  0  0  0  0  0  0  0  0  0  0  0
   33.2448   -5.0957   -4.8944 F   0  0  0  0  0  0  0  0  0  0  0  0
   32.4691   -6.3507   -6.6405 C   0  0  0  0  0  0  0  0  0  0  0  0
   32.5099   -6.8950   -7.7806 O   0  0  0  0  0  0  0  0  0  0  0  0
   31.2384   -5.9719   -6.2061 N   0  0  0  0  0  0  0  0  0  0  0  0
   30.0885   -6.3493   -7.0968 C   0  0  0  0  0  0  0  0  0  0  0  0
   31.1086   -5.4819   -5.3622 H   0  0  0  0  0  0  0  0  0  0  0  0
   36.2537   -6.3175   -3.8333 C   0  0  0  0  0  0  0  0  0  0  0  0
   36.4729   -4.9501   -3.2477 C   0  0  0  0  0  0  0  0  0  0  0  0
   35.5773   -4.5984   -2.1412 C   0  0  0  0  0  0  0  0  0  0  0  0
   36.6325   -3.8621   -4.2730 C   0  0  0  0  0  0  0  0  0  0  0  0
   35.6374   -3.2097   -1.5293 C   0  0  0  0  0  0  0  0  0  0  0  0
   36.6549   -2.4597   -3.6866 C   0  0  0  0  0  0  0  0  0  0  0  0
   35.6541   -2.1667   -2.6593 C   0  0  0  0  0  0  0  0  0  0  0  0
   32.7496  -10.2024   -0.7983 C   0  0  0  0  0  0  0  0  0  0  0  0
   32.7192  -11.7123   -0.8577 C   0  0  0  0  0  0  0  0  0  0  0  0
   33.4384  -12.3971   -1.9894 C   0  0  0  0  0  0  0  0  0  0  0  0
   34.4497  -13.3963   -1.5792 C   0  0  0  0  0  0  0  0  0  0  0  0
  7  8  1  0  0  0
  7 12  1  0  0  0
  8  9  1  0  0  0
  9 10  1  0  0  0
 10 11  1  0  0  0
 10 13  1  0  0  0
 11 12  1  0  0  0
 13 14  2  0  0  0
 15  6  1  0  0  0
  6  2  1  0  0  0
  6 17  1  0  0  0
  2  3  2  0  0  0
 17 18  1  0  0  0
 18 19  2  0  0  0
 18 20  1  0  0  0
 19 21  1  0  0  0
 20 22  2  0  0  0
 21 23  2  0  0  0
 22 23  1  0  0  0
  4  1  1  0  0  0
  1 24  1  0  0  0
  1 49  1  0  0  0
 24 25  2  0  0  0
 49 50  1  0  0  0
 50 51  1  0  0  0
 51 52  1  0  0  0
 26 28  1  0  0  0
 28 42  1  0  0  0
 28 29  1  0  0  0
 42 43  1  0  0  0
 43 44  1  0  0  0
 43 45  1  0  0  0
 44 46  1  0  0  0
 45 47  1  0  0  0
 46 48  1  0  0  0
 47 48  1  0  0  0
 29 30  1  0  0  0
 29 31  1  0  0  0
 29 34  1  0  0  0
 34 35  1  0  0  0
 34 36  1  0  0  0
 34 37  1  0  0  0
 37 38  2  0  0  0
 39 40  1  0  0  0
 13 15  1  0  0  0
  2  4  1  0  0  0
 24 26  1  0  0  0
 37 39  1  0  0  0
 15 16  1  0  0  0
  4  5  1  0  0  0
 26 27  1  0  0  0
 30 32  1  0  0  0
 31 33  1  0  0  0
 39 41  1  0  0  0
M  END
> <minimizedAffinity>
-8.30081

$$$$
1EPO_2Z3_E_327


 52 54  0  0  0  0  0  0  0  0999 V2000
   33.7268   -9.7332   -0.7357 C   0  0  0  0  0  0  0  0  0  0  0  0
   33.8363   -7.9688   -2.4479 C   0  0  0  0  0  0  0  0  0  0  0  0
   32.9481   -7.4245   -1.9213 O   0  0  0  0  0  0  0  0  0  0  0  0
   34.3440   -9.1385   -1.9518 N   0  0  0  0  0  0  0  0  0  0  0  0
   35.1057   -9.5797   -2.3926 H   0  0  0  0  0  0  0  0  0  0  0  0
   34.5684   -7.4858   -3.7331 C   0  0  0  0  0  0  0  0  0  0  0  0
   39.3342   -3.7573   -1.9718 O   0  0  0  0  0  0  0  0  0  0  0  0
   39.0150   -5.1314   -1.6462 C   0  0  0  0  0  0  0  0  0  0  0  0
   38.2127   -5.7093   -2.6512 C   0  0  0  0  0  0  0  0  0  0  0  0
   37.1396   -4.8699   -3.0675 N   0  0  0  0  0  0  0  0  0  0  0  0
   37.2818   -3.4257   -3.1283 C   0  0  0  0  0  0  0  0  0  0  0  0
   38.0859   -2.9897   -1.9696 C   0  0  0  0  0  0  0  0  0  0  0  0
   35.9541   -5.4525   -3.4324 C   0  0  0  0  0  0  0  0  0  0  0  0
   35.0361   -4.7420   -3.8037 O   0  0  0  0  0  0  0  0  0  0  0  0
   35.8330   -6.7630   -3.3837 N   0  0  0  0  0  0  0  0  0  0  0  0
   36.6130   -7.2944   -3.1036 H   0  0  0  0  0  0  0  0  0  0  0  0
   34.9828   -8.8225   -4.4673 C   0  0  0  0  0  0  0  0  0  0  0  0
   33.9569   -9.0366   -5.5795 C   0  0  0  0  0  0  0  0  0  0  0  0
   33.3440  -10.2357   -5.7503 C   0  0  0  0  0  0  0  0  0  0  0  0
   33.6090   -7.9271   -6.4083 C   0  0  0  0  0  0  0  0  0  0  0  0
   32.4026  -10.4740   -6.7409 C   0  0  0  0  0  0  0  0  0  0  0  0
   32.6716   -8.1697   -7.3847 C   0  0  0  0  0  0  0  0  0  0  0  0
   32.0650   -9.3832   -7.5800 C   0  0  0  0  0  0  0  0  0  0  0  0
   34.8737   -9.7953    0.3368 C   0  0  0  0  0  0  0  0  0  0  0  0
   35.8151  -10.5272    0.1501 O   0  0  0  0  0  0  0  0  0  0  0  0
   34.7251   -8.9880    1.3301 N   0  0  0  0  0  0  0  0  0  0  0  0
   33.8637   -8.5265    1.4493 H   0  0  0  0  0  0  0  0  0  0  0  0
   35.8367   -8.7337    2.3126 C   0  0  0  0  0  0  0  0  0  0  0  0
   36.7034   -7.5966    1.7710 C   0  0  0  0  0  0  0  0  0  0  0  0
   36.0604   -6.9075    0.6481 O   0  0  0  0  0  0  0  0  0  0  0  0
   37.8673   -8.1225    1.2432 O   0  0  0  0  0  0  0  0  0  0  0  0
   35.2422   -6.4688    0.7742 H   0  0  0  0  0  0  0  0  0  0  0  0
   38.4493   -8.6136    1.7892 H   0  0  0  0  0  0  0  0  0  0  0  0
   37.1026   -6.5637    2.8320 C   0  0  0  0  0  0  0  0  0  0  0  0
   37.7335   -7.1258    3.7938 F   0  0  0  0  0  0  0  0  0  0  0  0
   36.0304   -6.0386    3.4463 F   0  0  0  0  0  0  0  0  0  0  0  0
   37.8741   -5.4340    2.2376 C   0  0  0  0  0  0  0  0  0  0  0  0
   39.1096   -5.4478    1.9714 O   0  0  0  0  0  0  0  0  0  0  0  0
   37.2415   -4.2439    2.0634 N   0  0  0  0  0  0  0  0  0  0  0  0
   38.0780   -3.1409    1.4787 C   0  0  0  0  0  0  0  0  0  0  0  0
   36.2961   -4.1127    2.3048 H   0  0  0  0  0  0  0  0  0  0  0  0
   36.5721   -9.9425    2.7330 C   0  0  0  0  0  0  0  0  0  0  0  0
   36.1390  -10.7190    3.9456 C   0  0  0  0  0  0  0  0  0  0  0  0
   37.2127  -11.4399    4.6365 C   0  0  0  0  0  0  0  0  0  0  0  0
   34.8919  -11.5331    3.7394 C   0  0  0  0  0  0  0  0  0  0  0  0
   36.8859  -12.3358    5.8185 C   0  0  0  0  0  0  0  0  0  0  0  0
   34.5667  -12.4674    4.8935 C   0  0  0  0  0  0  0  0  0  0  0  0
   35.6864  -13.2263    5.4533 C   0  0  0  0  0  0  0  0  0  0  0  0
   33.3249  -11.1981   -1.0687 C   0  0  0  0  0  0  0  0  0  0  0  0
   33.6633  -11.5807   -2.4912 C   0  0  0  0  0  0  0  0  0  0  0  0
   34.2061  -12.9612   -2.7495 C   0  0  0  0  0  0  0  0  0  0  0  0
   33.2836  -14.0712   -2.4233 C   0  0  0  0  0  0  0  0  0  0  0  0
  7  8  1  0  0  0
  7 12  1  0  0  0
  8  9  1  0  0  0
  9 10  1  0  0  0
 10 11  1  0  0  0
 10 13  1  0  0  0
 11 12  1  0  0  0
 13 14  2  0  0  0
 15  6  1  0  0  0
  6  2  1  0  0  0
  6 17  1  0  0  0
  2  3  2  0  0  0
 17 18  1  0  0  0
 18 19  2  0  0  0
 18 20  1  0  0  0
 19 21  1  0  0  0
 20 22  2  0  0  0
 21 23  2  0  0  0
 22 23  1  0  0  0
  4  1  1  0  0  0
  1 24  1  0  0  0
  1 49  1  0  0  0
 24 25  2  0  0  0
 49 50  1  0  0  0
 50 51  1  0  0  0
 51 52  1  0  0  0
 26 28  1  0  0  0
 28 42  1  0  0  0
 28 29  1  0  0  0
 42 43  1  0  0  0
 43 44  1  0  0  0
 43 45  1  0  0  0
 44 46  1  0  0  0
 45 47  1  0  0  0
 46 48  1  0  0  0
 47 48  1  0  0  0
 29 30  1  0  0  0
 29 31  1  0  0  0
 29 34  1  0  0  0
 34 35  1  0  0  0
 34 36  1  0  0  0
 34 37  1  0  0  0
 37 38  2  0  0  0
 39 40  1  0  0  0
 13 15  1  0  0  0
  2  4  1  0  0  0
 24 26  1  0  0  0
 37 39  1  0  0  0
 15 16  1  0  0  0
  4  5  1  0  0  0
 26 27  1  0  0  0
 30 32  1  0  0  0
 31 33  1  0  0  0
 39 41  1  0  0  0
M  END
> <minimizedAffinity>
-8.26186

$$$$
