1DIF_A85_B_101
  RCSB PDB12061702163D
Coordinates from PDB:1DIF:B:101 Model:1 without hydrogens
 60 63  0  0  0  0            999 V2000
    3.3710    3.2440   10.6920   C 0  0  0  0  0  0  0  0  0  0  0  0
    3.1580    3.9230   11.6780   O 0  0  0  0  0  0  0  0  0  0  0  0
    3.9360    3.7880    9.5880   N 0  0  0  0  0  0  0  0  0  0  0  0
    4.3560    3.0410    8.4100   C 0  0  0  0  0  0  0  0  0  0  0  0
    4.2080    5.1970    9.5570   C 0  0  0  0  0  0  0  0  0  0  0  0
    5.5530    5.5010   10.1640   C 0  0  0  0  0  0  0  0  0  0  0  0
    5.6990    5.5620   11.5750   C 0  0  0  0  0  0  0  0  0  0  0  0
    6.5630    5.7500    9.2950   N 0  0  0  0  0  0  0  0  0  0  0  0
    6.9460    5.9050   12.1100   C 0  0  0  0  0  0  0  0  0  0  0  0
    7.7480    6.1020    9.8440   C 0  0  0  0  0  0  0  0  0  0  0  0
    7.9940    6.1900   11.2340   C 0  0  0  0  0  0  0  0  0  0  0  0
    3.0420    1.9380   10.6590   N 0  0  0  0  0  0  0  0  0  0  0  0
    2.5260    1.2550   11.8400   C 0  0  0  0  0  0  0  0  0  0  0  0
    3.6010    0.3240   12.3920   C 0  0  0  0  0  0  0  0  0  0  0  0
    3.6530   -0.8760   12.1430   O 0  0  0  0  0  0  0  0  0  0  0  0
    1.2120    0.5400   11.5360   C 0  0  0  0  0  0  0  0  0  0  0  0
    0.6900   -0.1890   12.7810   C 0  0  0  0  0  0  0  0  0  0  0  0
    0.1270    1.5020   11.0100   C 0  0  0  0  0  0  0  0  0  0  0  0
    4.4710    0.9440   13.1890   N 0  0  0  0  0  0  0  0  0  0  0  0
    5.4170    0.2040   14.0260   C 0  0  0  0  0  0  0  0  0  0  0  0
    6.7580    0.9060   14.0100   C 0  0  0  0  0  0  0  0  0  0  0  0
    7.1910    0.9950   12.6000   C 0  0  0  0  0  0  0  0  0  0  0  0
    6.9620    2.1660   11.8770   C 0  0  0  0  0  0  0  0  0  0  0  0
    7.3180    2.2260   10.5290   C 0  0  0  0  0  0  0  0  0  0  0  0
    7.8910    1.1110    9.9160   C 0  0  0  0  0  0  0  0  0  0  0  0
    8.1260   -0.0590   10.6460   C 0  0  0  0  0  0  0  0  0  0  0  0
    7.7790   -0.1170   11.9860   C 0  0  0  0  0  0  0  0  0  0  0  0
    4.8310    0.0730   15.4350   C 0  0  0  0  0  0  0  0  0  0  0  0
    4.9900    1.2280   16.1180   F 0  0  0  0  0  0  0  0  0  0  0  0
    3.4910   -0.0550   15.3950   F 0  0  0  0  0  0  0  0  0  0  0  0
    5.3510   -1.0750   16.3120   C 0  0  0  0  0  0  0  0  0  0  0  0
    6.7280   -1.1480   16.1330   O 0  0  0  0  0  0  0  0  0  0  0  0
    5.1400   -0.7540   17.6490   O 0  0  0  0  0  0  0  0  0  0  0  0
    5.6720   -3.4510   16.4150   N 0  0  0  0  0  0  0  0  0  0  0  0
    4.7250   -2.4420   15.9740   C 0  0  0  0  0  0  0  0  0  0  0  0
    3.3380   -2.7440   16.5810   C 0  0  0  0  0  0  0  0  0  0  0  0
    2.9690   -4.1640   16.2730   C 0  0  0  0  0  0  0  0  0  0  0  0
    2.5230   -4.5260   14.9940   C 0  0  0  0  0  0  0  0  0  0  0  0
    2.2460   -5.8690   14.6830   C 0  0  0  0  0  0  0  0  0  0  0  0
    2.4260   -6.8580   15.6460   C 0  0  0  0  0  0  0  0  0  0  0  0
    2.8700   -6.4950   16.9160   C 0  0  0  0  0  0  0  0  0  0  0  0
    3.1350   -5.1620   17.2340   C 0  0  0  0  0  0  0  0  0  0  0  0
    7.0860   -6.1630   16.6480   N 0  0  0  0  0  0  0  0  0  0  0  0
    7.6010   -4.8630   16.2970   C 0  0  0  0  0  0  0  0  0  0  0  0
    6.5080   -4.0710   15.5860   C 0  0  0  0  0  0  0  0  0  0  0  0
    6.4240   -3.9600   14.3810   O 0  0  0  0  0  0  0  0  0  0  0  0
    8.9080   -4.9760   15.5210   C 0  0  0  0  0  0  0  0  0  0  0  0
    9.8120   -5.9170   16.3290   C 0  0  0  0  0  0  0  0  0  0  0  0
    9.5580   -3.5930   15.2780   C 0  0  0  0  0  0  0  0  0  0  0  0
    6.8600   -6.5570   17.9310   C 0  0  0  0  0  0  0  0  0  0  0  0
    7.1850   -5.8670   18.8910   O 0  0  0  0  0  0  0  0  0  0  0  0
    6.2940   -7.7700   18.1310   N 0  0  0  0  0  0  0  0  0  0  0  0
    5.8690   -8.6300   17.0160   C 0  0  0  0  0  0  0  0  0  0  0  0
    6.0610   -8.2570   19.4870   C 0  0  0  0  0  0  0  0  0  0  0  0
    4.6680   -7.8930   19.9620   C 0  0  0  0  0  0  0  0  0  0  0  0
    4.4290   -6.6260   20.5360   C 0  0  0  0  0  0  0  0  0  0  0  0
    3.6960   -8.8200   19.8070   N 0  0  0  0  0  0  0  0  0  0  0  0
    3.1300   -6.3160   20.9580   C 0  0  0  0  0  0  0  0  0  0  0  0
    2.4620   -8.5000   20.2030   C 0  0  0  0  0  0  0  0  0  0  0  0
    2.1280   -7.2740   20.7830   C 0  0  0  0  0  0  0  0  0  0  0  0
  1  2  2  0  0  0  0
  1  3  1  0  0  0  0
  1 12  1  0  0  0  0
  3  4  1  0  0  0  0
  3  5  1  0  0  0  0
  5  6  1  0  0  0  0
  6  7  1  0  0  0  0
  6  8  2  0  0  0  0
  7  9  2  0  0  0  0
  8 10  1  0  0  0  0
  9 11  1  0  0  0  0
 10 11  2  0  0  0  0
 12 13  1  0  0  0  0
 13 14  1  0  0  0  0
 13 16  1  0  0  0  0
 14 15  2  0  0  0  0
 14 19  1  0  0  0  0
 16 17  1  0  0  0  0
 16 18  1  0  0  0  0
 19 20  1  0  0  0  0
 20 21  1  0  0  0  0
 20 28  1  0  0  0  0
 21 22  1  0  0  0  0
 22 23  2  0  0  0  0
 22 27  1  0  0  0  0
 23 24  1  0  0  0  0
 24 25  2  0  0  0  0
 25 26  1  0  0  0  0
 26 27  2  0  0  0  0
 28 29  1  0  0  0  0
 28 30  1  0  0  0  0
 28 31  1  0  0  0  0
 31 32  1  0  0  0  0
 31 33  1  0  0  0  0
 31 35  1  0  0  0  0
 34 35  1  0  0  0  0
 34 45  1  0  0  0  0
 35 36  1  0  0  0  0
 36 37  1  0  0  0  0
 37 38  2  0  0  0  0
 37 42  1  0  0  0  0
 38 39  1  0  0  0  0
 39 40  2  0  0  0  0
 40 41  1  0  0  0  0
 41 42  2  0  0  0  0
 43 44  1  0  0  0  0
 43 50  1  0  0  0  0
 44 45  1  0  0  0  0
 44 47  1  0  0  0  0
 45 46  2  0  0  0  0
 47 48  1  0  0  0  0
 47 49  1  0  0  0  0
 50 51  2  0  0  0  0
 50 52  1  0  0  0  0
 52 53  1  0  0  0  0
 52 54  1  0  0  0  0
 54 55  1  0  0  0  0
 55 56  1  0  0  0  0
 55 57  2  0  0  0  0
 56 58  2  0  0  0  0
 57 59  1  0  0  0  0
 58 60  1  0  0  0  0
 59 60  2  0  0  0  0
A    1
C1
A    2
O2
A    3
N3
A    4
C4
A    5
C5
A    6
C6
A    7
C7
A    8
N8
A    9
C9
A   10
C10
A   11
C11
A   12
N21
A   13
C22
A   14
C23
A   15
O24
A   16
C25
A   17
C26
A   18
C27
A   19
N37
A   20
C38
A   21
C39
A   22
C40
A   23
C41
A   24
C42
A   25
C43
A   26
C44
A   27
C45
A   28
C46
A   29
F1
A   30
F2
A   31
C49
A   32
O47
A   33
O48
A   34
N50
A   35
C51
A   36
C52
A   37
C53
A   38
C54
A   39
C55
A   40
C56
A   41
C57
A   42
C58
A   43
N81
A   44
C82
A   45
C83
A   46
O84
A   47
C85
A   48
C86
A   49
C87
A   50
C97
A   51
O98
A   52
N99
A   53
C2
A   54
C3
A   55
C8
A   56
C12
A   57
N10
A   58
C13
A   59
C14
A   60
C15
M  END
>  <InstanceId>
1DIF_A85_B_101

>  <ChemCompId>
A85

>  <PdbId>
1DIF

>  <ChainId>
B

>  <ResidueNumber>
101

>  <InsertionCode>


>  <Model>
1

>  <AltIds>


>  <MissingHeavyAtoms>
0

>  <ObservedFormula>
C44 N8 O6 F2

>  <Name>
N-{1-BENZYL-2,2-DIFLUORO-3,3-DIHYDROXY-4-[3-METHYL-2-(3-METHYL-3-PYRIDIN-2-YLMETHYL-UREIDO)-BUTYRYLAMINO]-5-PHENYL-PENTYL}-3-METHYL-2-(3-METHYL-3-PYRIDIN-2-YLMETHYL-UREIDO)-BUTYRAMIDE

>  <SystematicName>
(2S)-N-[(2S,5S)-3,3-difluoro-4,4-dihydroxy-5-[[(2S)-3-methyl-2-[(methyl-(pyridin-2-ylmethyl)carbamoyl)amino]butanoyl]amino]-1,6-diphenyl-hexan-2-yl]-3-methyl-2-[(methyl-(pyridin-2-ylmethyl)carbamoyl)amino]butanamide

>  <Synonyms>


>  <Type>
NON-POLYMER

>  <Formula>
C44 H56 F2 N8 O6

>  <MolecularWeight>
830.962

>  <ModifiedDate>
2011-06-04

>  <Parent>


>  <OneLetterCode>


>  <SubcomponentList>


>  <AmbiguousFlag>
N

>  <InChI>
InChI=1S/C44H56F2N8O6/c1-29(2)37(51-41(57)53(5)27-33-21-13-15-23-47-33)39(55)49-35(25-31-17-9-7-10-18-31)43(45,46)44(59,60)36(26-32-19-11-8-12-20-32)50-40(56)38(30(3)4)52-42(58)54(6)28-34-22-14-16-24-48-34/h7-24,29-30,35-38,59-60H,25-28H2,1-6H3,(H,49,55)(H,50,56)(H,51,57)(H,52,58)/t35-,36-,37-,38-/m0/s1

>  <InChIKey>
CGJKKYBHEOTRNM-ZQWQDMLBSA-N

>  <SMILES>
CC(C)[C@@H](C(=O)N[C@@H](Cc1ccccc1)C(C([C@H](Cc2ccccc2)NC(=O)[C@H](C(C)C)NC(=O)N(C)Cc3ccccn3)(F)F)(O)O)NC(=O)N(C)Cc4ccccn4

$$$$
