1DIF_A85_B_101


 66 69  0  0  0  0  0  0  0  0999 V2000
    5.3510   -1.2210   16.2300 C   0  0  0  0  0  0  0  0  0  0  0  0
    6.7176   -1.2995   15.9856 O   0  0  0  0  0  0  0  0  0  0  0  0
    5.2053   -0.8947   17.5744 O   0  0  0  0  0  0  0  0  0  0  0  0
    7.0287   -1.5110   15.1274 H   0  0  0  0  0  0  0  0  0  0  0  0
    4.3493   -0.7938   17.9419 H   0  0  0  0  0  0  0  0  0  0  0  0
    4.7936   -0.0742   15.3747 C   0  0  0  0  0  0  0  0  0  0  0  0
    4.8427    1.0590   16.1090 F   0  0  0  0  0  0  0  0  0  0  0  0
    3.4685   -0.2891   15.2663 F   0  0  0  0  0  0  0  0  0  0  0  0
    5.4316    0.1546   14.0012 C   0  0  0  0  0  0  0  0  0  0  0  0
    3.6701    0.2043   12.3051 C   0  0  0  0  0  0  0  0  0  0  0  0
    3.8041   -0.9840   12.0318 O   0  0  0  0  0  0  0  0  0  0  0  0
    4.4721    0.8562   13.1468 N   0  0  0  0  0  0  0  0  0  0  0  0
    4.4176    1.8380   13.1953 H   0  0  0  0  0  0  0  0  0  0  0  0
    2.5602    1.0819   11.7349 C   0  0  0  0  0  0  0  0  0  0  0  0
    3.3626    3.1824   10.7694 C   0  0  0  0  0  0  0  0  0  0  0  0
    3.0829    3.7777   11.7922 O   0  0  0  0  0  0  0  0  0  0  0  0
    3.9457    3.8286    9.7319 N   0  0  0  0  0  0  0  0  0  0  0  0
    4.4424    3.1880    8.5215 C   0  0  0  0  0  0  0  0  0  0  0  0
    3.0915    1.8703   10.6286 N   0  0  0  0  0  0  0  0  0  0  0  0
    3.2553    1.4346    9.7611 H   0  0  0  0  0  0  0  0  0  0  0  0
    4.1580    5.2458    9.8140 C   0  0  0  0  0  0  0  0  0  0  0  0
    5.5350    5.5562   10.3408 C   0  0  0  0  0  0  0  0  0  0  0  0
    6.6452    5.5840    9.4561 C   0  0  0  0  0  0  0  0  0  0  0  0
    5.6378    5.7514   11.6782 N   0  0  0  0  0  0  0  0  0  0  0  0
    7.9213    5.8161    9.9821 C   0  0  0  0  0  0  0  0  0  0  0  0
    6.8873    5.9490   12.1570 C   0  0  0  0  0  0  0  0  0  0  0  0
    8.0544    5.9950   11.3595 C   0  0  0  0  0  0  0  0  0  0  0  0
    1.3282    0.2884   11.3075 C   0  0  0  0  0  0  0  0  0  0  0  0
    0.4641   -0.0694   12.5237 C   0  0  0  0  0  0  0  0  0  0  0  0
    0.4713    1.0451   10.2719 C   0  0  0  0  0  0  0  0  0  0  0  0
    6.7159    0.9524   14.0752 C   0  0  0  0  0  0  0  0  0  0  0  0
    7.2876    0.9927   12.7132 C   0  0  0  0  0  0  0  0  0  0  0  0
    7.3426    2.2021   12.0199 C   0  0  0  0  0  0  0  0  0  0  0  0
    7.8279    2.2266   10.7117 C   0  0  0  0  0  0  0  0  0  0  0  0
    8.2446    1.0397   10.1076 C   0  0  0  0  0  0  0  0  0  0  0  0
    8.1950   -0.1700   10.8085 C   0  0  0  0  0  0  0  0  0  0  0  0
    7.7196   -0.1940   12.1096 C   0  0  0  0  0  0  0  0  0  0  0  0
    4.7050   -2.5870   15.9272 C   0  0  0  0  0  0  0  0  0  0  0  0
    5.6481   -3.5982   16.3714 N   0  0  0  0  0  0  0  0  0  0  0  0
    6.4940   -4.2113   15.5473 C   0  0  0  0  0  0  0  0  0  0  0  0
    6.4233   -4.0916   14.3423 O   0  0  0  0  0  0  0  0  0  0  0  0
    5.6622   -3.8410   17.3254 H   0  0  0  0  0  0  0  0  0  0  0  0
    7.5799   -5.0073   16.2647 C   0  0  0  0  0  0  0  0  0  0  0  0
    7.0329   -6.2726   16.6870 N   0  0  0  0  0  0  0  0  0  0  0  0
    6.7786   -6.5811   17.9880 C   0  0  0  0  0  0  0  0  0  0  0  0
    7.1024   -5.8389   18.9086 O   0  0  0  0  0  0  0  0  0  0  0  0
    6.1849   -7.7681   18.2533 N   0  0  0  0  0  0  0  0  0  0  0  0
    5.7601   -8.6877   17.1869 C   0  0  0  0  0  0  0  0  0  0  0  0
    6.8331   -6.9480   15.9992 H   0  0  0  0  0  0  0  0  0  0  0  0
    5.9205   -8.1647   19.6328 C   0  0  0  0  0  0  0  0  0  0  0  0
    4.5708   -7.6521   20.0953 C   0  0  0  0  0  0  0  0  0  0  0  0
    3.3984   -8.3701   19.7762 C   0  0  0  0  0  0  0  0  0  0  0  0
    4.5531   -6.5054   20.8115 N   0  0  0  0  0  0  0  0  0  0  0  0
    2.1670   -7.8755   20.2243 C   0  0  0  0  0  0  0  0  0  0  0  0
    3.3710   -6.0580   21.2409 C   0  0  0  0  0  0  0  0  0  0  0  0
    2.1577   -6.6968   20.9747 C   0  0  0  0  0  0  0  0  0  0  0  0
    8.8608   -5.1981   15.4610 C   0  0  0  0  0  0  0  0  0  0  0  0
    9.6439   -6.3218   16.1537 C   0  0  0  0  0  0  0  0  0  0  0  0
    9.6760   -3.8874   15.3518 C   0  0  0  0  0  0  0  0  0  0  0  0
    3.3248   -2.8625   16.5618 C   0  0  0  0  0  0  0  0  0  0  0  0
    2.8941   -4.2543   16.2084 C   0  0  0  0  0  0  0  0  0  0  0  0
    2.4166   -4.5510   14.9239 C   0  0  0  0  0  0  0  0  0  0  0  0
    2.0809   -5.8695   14.5689 C   0  0  0  0  0  0  0  0  0  0  0  0
    2.2333   -6.8995   15.4929 C   0  0  0  0  0  0  0  0  0  0  0  0
    2.7087   -6.6014   16.7684 C   0  0  0  0  0  0  0  0  0  0  0  0
    3.0321   -5.2927   17.1302 C   0  0  0  0  0  0  0  0  0  0  0  0
 15 16  2  0  0  0
 15 17  1  0  0  0
 15 19  1  0  0  0
 17 18  1  0  0  0
 17 21  1  0  0  0
 21 22  1  0  0  0
 22 23  1  0  0  0
 22 24  2  0  0  0
 23 25  2  0  0  0
 24 26  1  0  0  0
 25 27  1  0  0  0
 26 27  2  0  0  0
 19 14  1  0  0  0
 14 10  1  0  0  0
 14 28  1  0  0  0
 10 11  2  0  0  0
 10 12  1  0  0  0
 28 29  1  0  0  0
 28 30  1  0  0  0
 12  9  1  0  0  0
  9 31  1  0  0  0
  9  6  1  0  0  0
 31 32  1  0  0  0
 32 33  2  0  0  0
 32 37  1  0  0  0
 33 34  1  0  0  0
 34 35  2  0  0  0
 35 36  1  0  0  0
 36 37  2  0  0  0
  6  7  1  0  0  0
  6  8  1  0  0  0
  6  1  1  0  0  0
  1  2  1  0  0  0
  1  3  1  0  0  0
  1 38  1  0  0  0
 39 38  1  0  0  0
 39 40  1  0  0  0
 38 60  1  0  0  0
 60 61  1  0  0  0
 61 62  2  0  0  0
 61 66  1  0  0  0
 62 63  1  0  0  0
 63 64  2  0  0  0
 64 65  1  0  0  0
 65 66  2  0  0  0
 44 43  1  0  0  0
 44 45  1  0  0  0
 43 40  1  0  0  0
 43 57  1  0  0  0
 40 41  2  0  0  0
 57 58  1  0  0  0
 57 59  1  0  0  0
 45 46  2  0  0  0
 45 47  1  0  0  0
 47 48  1  0  0  0
 47 50  1  0  0  0
 50 51  1  0  0  0
 51 52  1  0  0  0
 51 53  2  0  0  0
 52 54  2  0  0  0
 53 55  1  0  0  0
 54 56  1  0  0  0
 55 56  2  0  0  0
 19 20  1  0  0  0
 12 13  1  0  0  0
  2  4  1  0  0  0
  3  5  1  0  0  0
 39 42  1  0  0  0
 44 49  1  0  0  0
M  END
> <minimizedAffinity>
-11.74982

$$$$
1DIF_A85_B_101


 66 69  0  0  0  0  0  0  0  0999 V2000
    4.8246   -0.1777   15.4496 C   0  0  0  0  0  0  0  0  0  0  0  0
    3.4714   -0.4148   15.2349 O   0  0  0  0  0  0  0  0  0  0  0  0
    4.9082    0.9680   16.2341 O   0  0  0  0  0  0  0  0  0  0  0  0
    3.2003   -1.1509   14.7223 H   0  0  0  0  0  0  0  0  0  0  0  0
    5.7459    1.2988   16.4925 H   0  0  0  0  0  0  0  0  0  0  0  0
    5.3822   -1.3679   16.2433 C   0  0  0  0  0  0  0  0  0  0  0  0
    5.2817   -1.0787   17.5594 F   0  0  0  0  0  0  0  0  0  0  0  0
    6.7149   -1.3643   16.0493 F   0  0  0  0  0  0  0  0  0  0  0  0
    4.7846   -2.7484   15.9556 C   0  0  0  0  0  0  0  0  0  0  0  0
    6.5894   -4.3671   15.6318 C   0  0  0  0  0  0  0  0  0  0  0  0
    6.5605   -4.2590   14.4103 O   0  0  0  0  0  0  0  0  0  0  0  0
    5.7110   -3.7733   16.4396 N   0  0  0  0  0  0  0  0  0  0  0  0
    5.6846   -4.0315   17.3893 H   0  0  0  0  0  0  0  0  0  0  0  0
    7.6424   -5.1755   16.3832 C   0  0  0  0  0  0  0  0  0  0  0  0
    6.7635   -6.7494   18.0381 C   0  0  0  0  0  0  0  0  0  0  0  0
    7.0281   -5.9755   18.9380 O   0  0  0  0  0  0  0  0  0  0  0  0
    6.1532   -7.9296   18.2997 N   0  0  0  0  0  0  0  0  0  0  0  0
    5.6723   -8.8633   17.2903 C   0  0  0  0  0  0  0  0  0  0  0  0
    7.0786   -6.4672   16.7590 N   0  0  0  0  0  0  0  0  0  0  0  0
    6.9252   -7.1470   16.0636 H   0  0  0  0  0  0  0  0  0  0  0  0
    5.8930   -8.3019   19.6613 C   0  0  0  0  0  0  0  0  0  0  0  0
    4.5528   -7.7850   20.1160 C   0  0  0  0  0  0  0  0  0  0  0  0
    3.3635   -8.4604   19.7348 C   0  0  0  0  0  0  0  0  0  0  0  0
    4.5646   -6.6439   20.8474 N   0  0  0  0  0  0  0  0  0  0  0  0
    2.1298   -7.9245   20.1215 C   0  0  0  0  0  0  0  0  0  0  0  0
    3.3555   -6.1396   21.1840 C   0  0  0  0  0  0  0  0  0  0  0  0
    2.1166   -6.7367   20.8537 C   0  0  0  0  0  0  0  0  0  0  0  0
    8.9406   -5.3455   15.5983 C   0  0  0  0  0  0  0  0  0  0  0  0
    9.7512   -4.0428   15.6013 C   0  0  0  0  0  0  0  0  0  0  0  0
    9.8119   -6.4952   16.1446 C   0  0  0  0  0  0  0  0  0  0  0  0
    3.4306   -2.9491   16.6020 C   0  0  0  0  0  0  0  0  0  0  0  0
    2.9507   -4.2906   16.2100 C   0  0  0  0  0  0  0  0  0  0  0  0
    3.0720   -5.3579   17.1002 C   0  0  0  0  0  0  0  0  0  0  0  0
    2.6727   -6.6354   16.7051 C   0  0  0  0  0  0  0  0  0  0  0  0
    2.1647   -6.8335   15.4206 C   0  0  0  0  0  0  0  0  0  0  0  0
    2.0375   -5.7595   14.5332 C   0  0  0  0  0  0  0  0  0  0  0  0
    2.4274   -4.4898   14.9271 C   0  0  0  0  0  0  0  0  0  0  0  0
    5.5206    0.0390   14.0919 C   0  0  0  0  0  0  0  0  0  0  0  0
    4.5774    0.7581   13.2537 N   0  0  0  0  0  0  0  0  0  0  0  0
    3.7615    0.1506   12.3959 C   0  0  0  0  0  0  0  0  0  0  0  0
    3.8637   -1.0289   12.1316 O   0  0  0  0  0  0  0  0  0  0  0  0
    4.5400    1.7394   13.3232 H   0  0  0  0  0  0  0  0  0  0  0  0
    2.6657    1.0578   11.8451 C   0  0  0  0  0  0  0  0  0  0  0  0
    3.2093    1.8524   10.7720 N   0  0  0  0  0  0  0  0  0  0  0  0
    3.4437    3.1891   10.8750 C   0  0  0  0  0  0  0  0  0  0  0  0
    3.1032    3.8360   11.8594 O   0  0  0  0  0  0  0  0  0  0  0  0
    4.0364    3.8110    9.8292 N   0  0  0  0  0  0  0  0  0  0  0  0
    4.4806    3.0805    8.6324 C   0  0  0  0  0  0  0  0  0  0  0  0
    3.4219    1.4052    9.9210 H   0  0  0  0  0  0  0  0  0  0  0  0
    4.2798    5.2494    9.8723 C   0  0  0  0  0  0  0  0  0  0  0  0
    5.6634    5.5492   10.4149 C   0  0  0  0  0  0  0  0  0  0  0  0
    6.7606    5.6419    9.5320 C   0  0  0  0  0  0  0  0  0  0  0  0
    5.7839    5.7210   11.7506 N   0  0  0  0  0  0  0  0  0  0  0  0
    8.0249    5.9279   10.0623 C   0  0  0  0  0  0  0  0  0  0  0  0
    6.9948    6.0063   12.2346 C   0  0  0  0  0  0  0  0  0  0  0  0
    8.1397    6.1167   11.4420 C   0  0  0  0  0  0  0  0  0  0  0  0
    1.4000    0.3292   11.4086 C   0  0  0  0  0  0  0  0  0  0  0  0
    0.6803    1.2618   10.4248 C   0  0  0  0  0  0  0  0  0  0  0  0
    0.5118   -0.0605   12.6142 C   0  0  0  0  0  0  0  0  0  0  0  0
    6.8665    0.7951   14.1101 C   0  0  0  0  0  0  0  0  0  0  0  0
    7.3683    0.9326   12.7042 C   0  0  0  0  0  0  0  0  0  0  0  0
    7.8236   -0.1875   11.9943 C   0  0  0  0  0  0  0  0  0  0  0  0
    8.2262   -0.0726   10.6520 C   0  0  0  0  0  0  0  0  0  0  0  0
    8.1632    1.1608   10.0094 C   0  0  0  0  0  0  0  0  0  0  0  0
    7.7096    2.2719   10.7176 C   0  0  0  0  0  0  0  0  0  0  0  0
    7.3201    2.1661   12.0537 C   0  0  0  0  0  0  0  0  0  0  0  0
 15 16  2  0  0  0
 15 17  1  0  0  0
 15 19  1  0  0  0
 17 18  1  0  0  0
 17 21  1  0  0  0
 21 22  1  0  0  0
 22 23  1  0  0  0
 22 24  2  0  0  0
 23 25  2  0  0  0
 24 26  1  0  0  0
 25 27  1  0  0  0
 26 27  2  0  0  0
 19 14  1  0  0  0
 14 10  1  0  0  0
 14 28  1  0  0  0
 10 11  2  0  0  0
 10 12  1  0  0  0
 28 29  1  0  0  0
 28 30  1  0  0  0
 12  9  1  0  0  0
  9 31  1  0  0  0
  9  6  1  0  0  0
 31 32  1  0  0  0
 32 33  2  0  0  0
 32 37  1  0  0  0
 33 34  1  0  0  0
 34 35  2  0  0  0
 35 36  1  0  0  0
 36 37  2  0  0  0
  6  7  1  0  0  0
  6  8  1  0  0  0
  6  1  1  0  0  0
  1  2  1  0  0  0
  1  3  1  0  0  0
  1 38  1  0  0  0
 39 38  1  0  0  0
 39 40  1  0  0  0
 38 60  1  0  0  0
 60 61  1  0  0  0
 61 62  2  0  0  0
 61 66  1  0  0  0
 62 63  1  0  0  0
 63 64  2  0  0  0
 64 65  1  0  0  0
 65 66  2  0  0  0
 44 43  1  0  0  0
 44 45  1  0  0  0
 43 40  1  0  0  0
 43 57  1  0  0  0
 40 41  2  0  0  0
 57 58  1  0  0  0
 57 59  1  0  0  0
 45 46  2  0  0  0
 45 47  1  0  0  0
 47 48  1  0  0  0
 47 50  1  0  0  0
 50 51  1  0  0  0
 51 52  1  0  0  0
 51 53  2  0  0  0
 52 54  2  0  0  0
 53 55  1  0  0  0
 54 56  1  0  0  0
 55 56  2  0  0  0
 19 20  1  0  0  0
 12 13  1  0  0  0
  2  4  1  0  0  0
  3  5  1  0  0  0
 39 42  1  0  0  0
 44 49  1  0  0  0
M  END
> <minimizedAffinity>
-11.65384

$$$$
1DIF_A85_B_101


 66 69  0  0  0  0  0  0  0  0999 V2000
    4.0399   -1.0079   15.0723 C   0  0  0  0  0  0  0  0  0  0  0  0
    2.7637   -0.4565   15.0988 O   0  0  0  0  0  0  0  0  0  0  0  0
    4.5846   -0.8113   16.3371 O   0  0  0  0  0  0  0  0  0  0  0  0
    2.2244   -0.4865   14.3331 H   0  0  0  0  0  0  0  0  0  0  0  0
    5.4505   -1.1151   16.5267 H   0  0  0  0  0  0  0  0  0  0  0  0
    3.8873   -2.5152   14.8233 C   0  0  0  0  0  0  0  0  0  0  0  0
    3.4619   -2.6897   13.5527 F   0  0  0  0  0  0  0  0  0  0  0  0
    2.8197   -2.9137   15.5410 F   0  0  0  0  0  0  0  0  0  0  0  0
    5.1045   -3.4020   15.1026 C   0  0  0  0  0  0  0  0  0  0  0  0
    4.8873   -5.4790   16.3758 C   0  0  0  0  0  0  0  0  0  0  0  0
    5.6544   -5.1012   17.2553 O   0  0  0  0  0  0  0  0  0  0  0  0
    4.6531   -4.7854   15.2619 N   0  0  0  0  0  0  0  0  0  0  0  0
    4.1624   -5.2160   14.5250 H   0  0  0  0  0  0  0  0  0  0  0  0
    4.0894   -6.7770   16.4517 C   0  0  0  0  0  0  0  0  0  0  0  0
    3.2201   -7.8349   18.4797 C   0  0  0  0  0  0  0  0  0  0  0  0
    3.7767   -8.8775   18.1935 O   0  0  0  0  0  0  0  0  0  0  0  0
    2.5182   -7.7208   19.6323 N   0  0  0  0  0  0  0  0  0  0  0  0
    1.9304   -6.4859   20.1337 C   0  0  0  0  0  0  0  0  0  0  0  0
    3.2707   -6.7679   17.6589 N   0  0  0  0  0  0  0  0  0  0  0  0
    2.7443   -5.9654   17.8783 H   0  0  0  0  0  0  0  0  0  0  0  0
    2.3641   -8.8687   20.4802 C   0  0  0  0  0  0  0  0  0  0  0  0
    0.9398   -9.3599   20.4708 C   0  0  0  0  0  0  0  0  0  0  0  0
    0.3962   -9.9424   19.2955 C   0  0  0  0  0  0  0  0  0  0  0  0
    0.2293   -9.1674   21.6089 N   0  0  0  0  0  0  0  0  0  0  0  0
   -0.9471  -10.3354   19.2966 C   0  0  0  0  0  0  0  0  0  0  0  0
   -1.0715   -9.5358   21.5686 C   0  0  0  0  0  0  0  0  0  0  0  0
   -1.7048  -10.1239   20.4490 C   0  0  0  0  0  0  0  0  0  0  0  0
    3.2404   -7.0325   15.2091 C   0  0  0  0  0  0  0  0  0  0  0  0
    3.2386   -8.5241   14.8501 C   0  0  0  0  0  0  0  0  0  0  0  0
    1.7877   -6.5420   15.3782 C   0  0  0  0  0  0  0  0  0  0  0  0
    6.1442   -3.3359   14.0044 C   0  0  0  0  0  0  0  0  0  0  0  0
    7.4653   -3.5296   14.6375 C   0  0  0  0  0  0  0  0  0  0  0  0
    8.1721   -4.7125   14.4190 C   0  0  0  0  0  0  0  0  0  0  0  0
    9.3916   -4.9176   15.0655 C   0  0  0  0  0  0  0  0  0  0  0  0
    9.8871   -3.9414   15.9308 C   0  0  0  0  0  0  0  0  0  0  0  0
    9.1794   -2.7533   16.1417 C   0  0  0  0  0  0  0  0  0  0  0  0
    7.9718   -2.5460   15.4950 C   0  0  0  0  0  0  0  0  0  0  0  0
    4.8789   -0.2871   13.9992 C   0  0  0  0  0  0  0  0  0  0  0  0
    3.9694    0.5905   13.2836 N   0  0  0  0  0  0  0  0  0  0  0  0
    3.5715    0.3586   12.0353 C   0  0  0  0  0  0  0  0  0  0  0  0
    4.0691   -0.5091   11.3490 O   0  0  0  0  0  0  0  0  0  0  0  0
    3.6320    1.3933   13.7430 H   0  0  0  0  0  0  0  0  0  0  0  0
    2.4029    1.2335   11.5920 C   0  0  0  0  0  0  0  0  0  0  0  0
    2.8348    2.0796   10.5076 N   0  0  0  0  0  0  0  0  0  0  0  0
    3.2183    3.3746   10.6758 C   0  0  0  0  0  0  0  0  0  0  0  0
    3.1175    3.9488   11.7544 O   0  0  0  0  0  0  0  0  0  0  0  0
    3.6853    4.0426    9.5953 N   0  0  0  0  0  0  0  0  0  0  0  0
    3.8432    3.3974    8.2830 C   0  0  0  0  0  0  0  0  0  0  0  0
    2.8532    1.7013    9.5989 H   0  0  0  0  0  0  0  0  0  0  0  0
    4.0779    5.4435    9.7114 C   0  0  0  0  0  0  0  0  0  0  0  0
    5.4747    5.5693   10.2873 C   0  0  0  0  0  0  0  0  0  0  0  0
    6.5983    5.4341    9.4439 C   0  0  0  0  0  0  0  0  0  0  0  0
    5.5813    5.8140   11.6127 N   0  0  0  0  0  0  0  0  0  0  0  0
    7.8755    5.5634   10.0038 C   0  0  0  0  0  0  0  0  0  0  0  0
    6.8070    5.9474   12.1244 C   0  0  0  0  0  0  0  0  0  0  0  0
    7.9777    5.8289   11.3718 C   0  0  0  0  0  0  0  0  0  0  0  0
    1.1393    0.4642   11.2250 C   0  0  0  0  0  0  0  0  0  0  0  0
    0.2239    1.4569   10.4955 C   0  0  0  0  0  0  0  0  0  0  0  0
    0.4629   -0.1636   12.4670 C   0  0  0  0  0  0  0  0  0  0  0  0
    6.0924    0.5293   14.4936 C   0  0  0  0  0  0  0  0  0  0  0  0
    7.0461    0.7251   13.3537 C   0  0  0  0  0  0  0  0  0  0  0  0
    7.4451   -0.3599   12.5603 C   0  0  0  0  0  0  0  0  0  0  0  0
    8.2819   -0.1665   11.4469 C   0  0  0  0  0  0  0  0  0  0  0  0
    8.7132    1.1146   11.1143 C   0  0  0  0  0  0  0  0  0  0  0  0
    8.3143    2.1908   11.9045 C   0  0  0  0  0  0  0  0  0  0  0  0
    7.4936    2.0034   13.0179 C   0  0  0  0  0  0  0  0  0  0  0  0
 15 16  2  0  0  0
 15 17  1  0  0  0
 15 19  1  0  0  0
 17 18  1  0  0  0
 17 21  1  0  0  0
 21 22  1  0  0  0
 22 23  1  0  0  0
 22 24  2  0  0  0
 23 25  2  0  0  0
 24 26  1  0  0  0
 25 27  1  0  0  0
 26 27  2  0  0  0
 19 14  1  0  0  0
 14 10  1  0  0  0
 14 28  1  0  0  0
 10 11  2  0  0  0
 10 12  1  0  0  0
 28 29  1  0  0  0
 28 30  1  0  0  0
 12  9  1  0  0  0
  9 31  1  0  0  0
  9  6  1  0  0  0
 31 32  1  0  0  0
 32 33  2  0  0  0
 32 37  1  0  0  0
 33 34  1  0  0  0
 34 35  2  0  0  0
 35 36  1  0  0  0
 36 37  2  0  0  0
  6  7  1  0  0  0
  6  8  1  0  0  0
  6  1  1  0  0  0
  1  2  1  0  0  0
  1  3  1  0  0  0
  1 38  1  0  0  0
 39 38  1  0  0  0
 39 40  1  0  0  0
 38 60  1  0  0  0
 60 61  1  0  0  0
 61 62  2  0  0  0
 61 66  1  0  0  0
 62 63  1  0  0  0
 63 64  2  0  0  0
 64 65  1  0  0  0
 65 66  2  0  0  0
 44 43  1  0  0  0
 44 45  1  0  0  0
 43 40  1  0  0  0
 43 57  1  0  0  0
 40 41  2  0  0  0
 57 58  1  0  0  0
 57 59  1  0  0  0
 45 46  2  0  0  0
 45 47  1  0  0  0
 47 48  1  0  0  0
 47 50  1  0  0  0
 50 51  1  0  0  0
 51 52  1  0  0  0
 51 53  2  0  0  0
 52 54  2  0  0  0
 53 55  1  0  0  0
 54 56  1  0  0  0
 55 56  2  0  0  0
 19 20  1  0  0  0
 12 13  1  0  0  0
  2  4  1  0  0  0
  3  5  1  0  0  0
 39 42  1  0  0  0
 44 49  1  0  0  0
M  END
> <minimizedAffinity>
-10.60573

$$$$
1DIF_A85_B_101


 66 69  0  0  0  0  0  0  0  0999 V2000
    6.3388   -0.8944   14.3808 C   0  0  0  0  0  0  0  0  0  0  0  0
    7.1331    0.1954   14.7198 O   0  0  0  0  0  0  0  0  0  0  0  0
    7.1911   -1.8595   13.8542 O   0  0  0  0  0  0  0  0  0  0  0  0
    6.7435    0.9602   15.0956 H   0  0  0  0  0  0  0  0  0  0  0  0
    6.8460   -2.6801   13.5620 H   0  0  0  0  0  0  0  0  0  0  0  0
    5.7151   -1.4327   15.6764 C   0  0  0  0  0  0  0  0  0  0  0  0
    4.8485   -0.5062   16.1415 F   0  0  0  0  0  0  0  0  0  0  0  0
    6.6885   -1.4083   16.6067 F   0  0  0  0  0  0  0  0  0  0  0  0
    5.0415   -2.8070   15.6157 C   0  0  0  0  0  0  0  0  0  0  0  0
    6.7881   -4.5184   15.5674 C   0  0  0  0  0  0  0  0  0  0  0  0
    6.7931   -4.5773   14.3422 O   0  0  0  0  0  0  0  0  0  0  0  0
    5.9148   -3.7888   16.2611 N   0  0  0  0  0  0  0  0  0  0  0  0
    5.8552   -3.9137   17.2359 H   0  0  0  0  0  0  0  0  0  0  0  0
    7.7899   -5.2540   16.4520 C   0  0  0  0  0  0  0  0  0  0  0  0
    6.8521   -6.8004   18.1004 C   0  0  0  0  0  0  0  0  0  0  0  0
    7.0462   -5.9946   18.9902 O   0  0  0  0  0  0  0  0  0  0  0  0
    6.2545   -7.9872   18.3620 N   0  0  0  0  0  0  0  0  0  0  0  0
    5.8547   -8.9611   17.3552 C   0  0  0  0  0  0  0  0  0  0  0  0
    7.2347   -6.5477   16.8336 N   0  0  0  0  0  0  0  0  0  0  0  0
    7.1376   -7.2508   16.1514 H   0  0  0  0  0  0  0  0  0  0  0  0
    5.9240   -8.3262   19.7170 C   0  0  0  0  0  0  0  0  0  0  0  0
    4.5737   -7.7766   20.0974 C   0  0  0  0  0  0  0  0  0  0  0  0
    3.3916   -8.3975   19.6148 C   0  0  0  0  0  0  0  0  0  0  0  0
    4.5732   -6.6597   20.8653 N   0  0  0  0  0  0  0  0  0  0  0  0
    2.1527   -7.8305   19.9351 C   0  0  0  0  0  0  0  0  0  0  0  0
    3.3613   -6.1237   21.1363 C   0  0  0  0  0  0  0  0  0  0  0  0
    2.1289   -6.6662   20.7037 C   0  0  0  0  0  0  0  0  0  0  0  0
    9.1621   -5.4106   15.8018 C   0  0  0  0  0  0  0  0  0  0  0  0
    9.8778   -4.0565   15.7117 C   0  0  0  0  0  0  0  0  0  0  0  0
   10.0575   -6.4171   16.5532 C   0  0  0  0  0  0  0  0  0  0  0  0
    3.6835   -2.8260   16.2841 C   0  0  0  0  0  0  0  0  0  0  0  0
    3.0659   -4.1353   15.9878 C   0  0  0  0  0  0  0  0  0  0  0  0
    3.1187   -5.1573   16.9360 C   0  0  0  0  0  0  0  0  0  0  0  0
    2.5872   -6.4109   16.6304 C   0  0  0  0  0  0  0  0  0  0  0  0
    2.0166   -6.6318   15.3762 C   0  0  0  0  0  0  0  0  0  0  0  0
    1.9587   -5.6024   14.4306 C   0  0  0  0  0  0  0  0  0  0  0  0
    2.4801   -4.3557   14.7358 C   0  0  0  0  0  0  0  0  0  0  0  0
    5.2991   -0.4542   13.3319 C   0  0  0  0  0  0  0  0  0  0  0  0
    6.0448   -0.0702   12.1462 N   0  0  0  0  0  0  0  0  0  0  0  0
    6.0649    1.1739   11.6747 C   0  0  0  0  0  0  0  0  0  0  0  0
    5.3299    2.0390   12.1024 O   0  0  0  0  0  0  0  0  0  0  0  0
    6.5587   -0.7617   11.6697 H   0  0  0  0  0  0  0  0  0  0  0  0
    7.1333    1.4091   10.6115 C   0  0  0  0  0  0  0  0  0  0  0  0
    6.7805    2.5757    9.8413 N   0  0  0  0  0  0  0  0  0  0  0  0
    6.2510    2.5137    8.5890 C   0  0  0  0  0  0  0  0  0  0  0  0
    6.1386    1.4548    7.9812 O   0  0  0  0  0  0  0  0  0  0  0  0
    5.8805    3.6742    7.9995 N   0  0  0  0  0  0  0  0  0  0  0  0
    5.9772    4.9696    8.6896 C   0  0  0  0  0  0  0  0  0  0  0  0
    6.9302    3.4625   10.2417 H   0  0  0  0  0  0  0  0  0  0  0  0
    5.3392    3.6693    6.6441 C   0  0  0  0  0  0  0  0  0  0  0  0
    3.8232    3.6650    6.6657 C   0  0  0  0  0  0  0  0  0  0  0  0
    3.1374    3.5208    7.8907 C   0  0  0  0  0  0  0  0  0  0  0  0
    3.1840    3.8061    5.4827 N   0  0  0  0  0  0  0  0  0  0  0  0
    1.7369    3.5287    7.8794 C   0  0  0  0  0  0  0  0  0  0  0  0
    1.8493    3.8248    5.4949 C   0  0  0  0  0  0  0  0  0  0  0  0
    1.0831    3.6876    6.6547 C   0  0  0  0  0  0  0  0  0  0  0  0
    8.5542    1.5120   11.1532 C   0  0  0  0  0  0  0  0  0  0  0  0
    9.1259    0.0877   11.1441 C   0  0  0  0  0  0  0  0  0  0  0  0
    8.5921    2.1572   12.5592 C   0  0  0  0  0  0  0  0  0  0  0  0
    4.2191   -1.4866   12.9434 C   0  0  0  0  0  0  0  0  0  0  0  0
    2.9185   -0.7738   12.7249 C   0  0  0  0  0  0  0  0  0  0  0  0
    2.5486   -0.3363   11.4452 C   0  0  0  0  0  0  0  0  0  0  0  0
    1.2977    0.2673   11.2259 C   0  0  0  0  0  0  0  0  0  0  0  0
    0.4057    0.4247   12.2830 C   0  0  0  0  0  0  0  0  0  0  0  0
    0.7761   -0.0118   13.5535 C   0  0  0  0  0  0  0  0  0  0  0  0
    2.0212   -0.6007   13.7795 C   0  0  0  0  0  0  0  0  0  0  0  0
 15 16  2  0  0  0
 15 17  1  0  0  0
 15 19  1  0  0  0
 17 18  1  0  0  0
 17 21  1  0  0  0
 21 22  1  0  0  0
 22 23  1  0  0  0
 22 24  2  0  0  0
 23 25  2  0  0  0
 24 26  1  0  0  0
 25 27  1  0  0  0
 26 27  2  0  0  0
 19 14  1  0  0  0
 14 10  1  0  0  0
 14 28  1  0  0  0
 10 11  2  0  0  0
 10 12  1  0  0  0
 28 29  1  0  0  0
 28 30  1  0  0  0
 12  9  1  0  0  0
  9 31  1  0  0  0
  9  6  1  0  0  0
 31 32  1  0  0  0
 32 33  2  0  0  0
 32 37  1  0  0  0
 33 34  1  0  0  0
 34 35  2  0  0  0
 35 36  1  0  0  0
 36 37  2  0  0  0
  6  7  1  0  0  0
  6  8  1  0  0  0
  6  1  1  0  0  0
  1  2  1  0  0  0
  1  3  1  0  0  0
  1 38  1  0  0  0
 39 38  1  0  0  0
 39 40  1  0  0  0
 38 60  1  0  0  0
 60 61  1  0  0  0
 61 62  2  0  0  0
 61 66  1  0  0  0
 62 63  1  0  0  0
 63 64  2  0  0  0
 64 65  1  0  0  0
 65 66  2  0  0  0
 44 43  1  0  0  0
 44 45  1  0  0  0
 43 40  1  0  0  0
 43 57  1  0  0  0
 40 41  2  0  0  0
 57 58  1  0  0  0
 57 59  1  0  0  0
 45 46  2  0  0  0
 45 47  1  0  0  0
 47 48  1  0  0  0
 47 50  1  0  0  0
 50 51  1  0  0  0
 51 52  1  0  0  0
 51 53  2  0  0  0
 52 54  2  0  0  0
 53 55  1  0  0  0
 54 56  1  0  0  0
 55 56  2  0  0  0
 19 20  1  0  0  0
 12 13  1  0  0  0
  2  4  1  0  0  0
  3  5  1  0  0  0
 39 42  1  0  0  0
 44 49  1  0  0  0
M  END
> <minimizedAffinity>
-10.59845

$$$$
1DIF_A85_B_101


 66 69  0  0  0  0  0  0  0  0999 V2000
    4.0602   -1.1466   15.1806 C   0  0  0  0  0  0  0  0  0  0  0  0
    2.7925   -0.5759   15.1542 O   0  0  0  0  0  0  0  0  0  0  0  0
    4.5784   -0.9064   16.4491 O   0  0  0  0  0  0  0  0  0  0  0  0
    2.2708   -0.6293   14.3777 H   0  0  0  0  0  0  0  0  0  0  0  0
    5.4347   -1.2149   16.6715 H   0  0  0  0  0  0  0  0  0  0  0  0
    3.8899   -2.6604   14.9894 C   0  0  0  0  0  0  0  0  0  0  0  0
    3.5752   -2.8871   13.6950 F   0  0  0  0  0  0  0  0  0  0  0  0
    2.7521   -2.9991   15.6253 F   0  0  0  0  0  0  0  0  0  0  0  0
    5.0529   -3.5598   15.4187 C   0  0  0  0  0  0  0  0  0  0  0  0
    5.0638   -5.3302   17.1062 C   0  0  0  0  0  0  0  0  0  0  0  0
    6.1620   -5.0020   17.5433 O   0  0  0  0  0  0  0  0  0  0  0  0
    4.5092   -4.7741   16.0294 N   0  0  0  0  0  0  0  0  0  0  0  0
    3.7107   -5.1921   15.6332 H   0  0  0  0  0  0  0  0  0  0  0  0
    4.1850   -6.3994   17.7478 C   0  0  0  0  0  0  0  0  0  0  0  0
    4.0235   -8.7911   17.2560 C   0  0  0  0  0  0  0  0  0  0  0  0
    2.8093   -8.7318   17.2882 O   0  0  0  0  0  0  0  0  0  0  0  0
    4.6503   -9.9548   16.9615 N   0  0  0  0  0  0  0  0  0  0  0  0
    6.0860  -10.1038   16.7644 C   0  0  0  0  0  0  0  0  0  0  0  0
    4.7827   -7.7109   17.5238 N   0  0  0  0  0  0  0  0  0  0  0  0
    5.7613   -7.8087   17.5692 H   0  0  0  0  0  0  0  0  0  0  0  0
    3.8720  -11.1451   16.7676 C   0  0  0  0  0  0  0  0  0  0  0  0
    3.4220  -11.2689   15.3352 C   0  0  0  0  0  0  0  0  0  0  0  0
    2.3149  -12.0949   15.0065 C   0  0  0  0  0  0  0  0  0  0  0  0
    4.1548  -10.5970   14.4139 N   0  0  0  0  0  0  0  0  0  0  0  0
    1.9559  -12.2382   13.6613 C   0  0  0  0  0  0  0  0  0  0  0  0
    3.7967  -10.7762   13.1219 C   0  0  0  0  0  0  0  0  0  0  0  0
    2.7116  -11.5757   12.6933 C   0  0  0  0  0  0  0  0  0  0  0  0
    3.9295   -6.1539   19.2326 C   0  0  0  0  0  0  0  0  0  0  0  0
    2.4520   -6.3862   19.5749 C   0  0  0  0  0  0  0  0  0  0  0  0
    4.8125   -7.0394   20.1356 C   0  0  0  0  0  0  0  0  0  0  0  0
    5.9591   -3.9389   14.2670 C   0  0  0  0  0  0  0  0  0  0  0  0
    7.3519   -3.8250   14.7473 C   0  0  0  0  0  0  0  0  0  0  0  0
    8.2596   -4.8532   14.4920 C   0  0  0  0  0  0  0  0  0  0  0  0
    9.5574   -4.7700   14.9981 C   0  0  0  0  0  0  0  0  0  0  0  0
    9.9310   -3.6634   15.7618 C   0  0  0  0  0  0  0  0  0  0  0  0
    9.0204   -2.6308   16.0095 C   0  0  0  0  0  0  0  0  0  0  0  0
    7.7338   -2.7095   15.5017 C   0  0  0  0  0  0  0  0  0  0  0  0
    4.9351   -0.4826   14.0995 C   0  0  0  0  0  0  0  0  0  0  0  0
    4.0691    0.4234   13.3656 N   0  0  0  0  0  0  0  0  0  0  0  0
    3.6256    0.1657   12.1379 C   0  0  0  0  0  0  0  0  0  0  0  0
    4.0465   -0.7626   11.4803 O   0  0  0  0  0  0  0  0  0  0  0  0
    3.7981    1.2664   13.7960 H   0  0  0  0  0  0  0  0  0  0  0  0
    2.5078    1.0985   11.6818 C   0  0  0  0  0  0  0  0  0  0  0  0
    3.0017    1.9386   10.6193 N   0  0  0  0  0  0  0  0  0  0  0  0
    3.3135    3.2527   10.7879 C   0  0  0  0  0  0  0  0  0  0  0  0
    3.0901    3.8456   11.8375 O   0  0  0  0  0  0  0  0  0  0  0  0
    3.8494    3.9165    9.7372 N   0  0  0  0  0  0  0  0  0  0  0  0
    4.1541    3.2501    8.4619 C   0  0  0  0  0  0  0  0  0  0  0  0
    3.1193    1.5415    9.7262 H   0  0  0  0  0  0  0  0  0  0  0  0
    4.1706    5.3357    9.8519 C   0  0  0  0  0  0  0  0  0  0  0  0
    5.5537    5.5327   10.4409 C   0  0  0  0  0  0  0  0  0  0  0  0
    6.6909    5.4518    9.6090 C   0  0  0  0  0  0  0  0  0  0  0  0
    5.6348    5.7858   11.7666 N   0  0  0  0  0  0  0  0  0  0  0  0
    7.9545    5.6463   10.1808 C   0  0  0  0  0  0  0  0  0  0  0  0
    6.8472    5.9817   12.2898 C   0  0  0  0  0  0  0  0  0  0  0  0
    8.0297    5.9201   11.5490 C   0  0  0  0  0  0  0  0  0  0  0  0
    1.2194    0.3923   11.2762 C   0  0  0  0  0  0  0  0  0  0  0  0
    0.4071    1.4072   10.4604 C   0  0  0  0  0  0  0  0  0  0  0  0
    0.4414   -0.1414   12.5026 C   0  0  0  0  0  0  0  0  0  0  0  0
    6.1827    0.2857   14.5858 C   0  0  0  0  0  0  0  0  0  0  0  0
    7.0865    0.5387   13.4168 C   0  0  0  0  0  0  0  0  0  0  0  0
    7.4525   -0.5058   12.5561 C   0  0  0  0  0  0  0  0  0  0  0  0
    8.2405   -0.2570   11.4185 C   0  0  0  0  0  0  0  0  0  0  0  0
    8.6557    1.0399   11.1294 C   0  0  0  0  0  0  0  0  0  0  0  0
    8.2898    2.0760   11.9865 C   0  0  0  0  0  0  0  0  0  0  0  0
    7.5178    1.8330   13.1237 C   0  0  0  0  0  0  0  0  0  0  0  0
 15 16  2  0  0  0
 15 17  1  0  0  0
 15 19  1  0  0  0
 17 18  1  0  0  0
 17 21  1  0  0  0
 21 22  1  0  0  0
 22 23  1  0  0  0
 22 24  2  0  0  0
 23 25  2  0  0  0
 24 26  1  0  0  0
 25 27  1  0  0  0
 26 27  2  0  0  0
 19 14  1  0  0  0
 14 10  1  0  0  0
 14 28  1  0  0  0
 10 11  2  0  0  0
 10 12  1  0  0  0
 28 29  1  0  0  0
 28 30  1  0  0  0
 12  9  1  0  0  0
  9 31  1  0  0  0
  9  6  1  0  0  0
 31 32  1  0  0  0
 32 33  2  0  0  0
 32 37  1  0  0  0
 33 34  1  0  0  0
 34 35  2  0  0  0
 35 36  1  0  0  0
 36 37  2  0  0  0
  6  7  1  0  0  0
  6  8  1  0  0  0
  6  1  1  0  0  0
  1  2  1  0  0  0
  1  3  1  0  0  0
  1 38  1  0  0  0
 39 38  1  0  0  0
 39 40  1  0  0  0
 38 60  1  0  0  0
 60 61  1  0  0  0
 61 62  2  0  0  0
 61 66  1  0  0  0
 62 63  1  0  0  0
 63 64  2  0  0  0
 64 65  1  0  0  0
 65 66  2  0  0  0
 44 43  1  0  0  0
 44 45  1  0  0  0
 43 40  1  0  0  0
 43 57  1  0  0  0
 40 41  2  0  0  0
 57 58  1  0  0  0
 57 59  1  0  0  0
 45 46  2  0  0  0
 45 47  1  0  0  0
 47 48  1  0  0  0
 47 50  1  0  0  0
 50 51  1  0  0  0
 51 52  1  0  0  0
 51 53  2  0  0  0
 52 54  2  0  0  0
 53 55  1  0  0  0
 54 56  1  0  0  0
 55 56  2  0  0  0
 19 20  1  0  0  0
 12 13  1  0  0  0
  2  4  1  0  0  0
  3  5  1  0  0  0
 39 42  1  0  0  0
 44 49  1  0  0  0
M  END
> <minimizedAffinity>
-10.49800

$$$$
1DIF_A85_B_101


 66 69  0  0  0  0  0  0  0  0999 V2000
    4.2925   -0.8244   15.1410 C   0  0  0  0  0  0  0  0  0  0  0  0
    3.0575   -0.1863   15.1767 O   0  0  0  0  0  0  0  0  0  0  0  0
    4.9180   -0.5488   16.3526 O   0  0  0  0  0  0  0  0  0  0  0  0
    2.4758   -0.2503   14.4450 H   0  0  0  0  0  0  0  0  0  0  0  0
    5.7718   -0.8926   16.5279 H   0  0  0  0  0  0  0  0  0  0  0  0
    4.0302   -2.3343   15.0468 C   0  0  0  0  0  0  0  0  0  0  0  0
    3.4326   -2.5832   13.8608 F   0  0  0  0  0  0  0  0  0  0  0  0
    3.0472   -2.6058   15.9264 F   0  0  0  0  0  0  0  0  0  0  0  0
    5.2258   -3.2706   15.2461 C   0  0  0  0  0  0  0  0  0  0  0  0
    4.9881   -5.4433   16.3440 C   0  0  0  0  0  0  0  0  0  0  0  0
    5.7927   -5.1629   17.2264 O   0  0  0  0  0  0  0  0  0  0  0  0
    4.7398   -4.6504   15.3018 N   0  0  0  0  0  0  0  0  0  0  0  0
    4.2142   -5.0028   14.5476 H   0  0  0  0  0  0  0  0  0  0  0  0
    4.1558   -6.7216   16.3354 C   0  0  0  0  0  0  0  0  0  0  0  0
    5.0074   -8.9040   17.0427 C   0  0  0  0  0  0  0  0  0  0  0  0
    4.8048   -9.3601   15.9338 O   0  0  0  0  0  0  0  0  0  0  0  0
    5.5696   -9.6662   18.0106 N   0  0  0  0  0  0  0  0  0  0  0  0
    5.9776   -9.1831   19.3230 C   0  0  0  0  0  0  0  0  0  0  0  0
    4.6694   -7.6363   17.3489 N   0  0  0  0  0  0  0  0  0  0  0  0
    4.7712   -7.3208   18.2759 H   0  0  0  0  0  0  0  0  0  0  0  0
    5.8509  -11.0484   17.7448 C   0  0  0  0  0  0  0  0  0  0  0  0
    7.3347  -11.3096   17.7563 C   0  0  0  0  0  0  0  0  0  0  0  0
    7.8748  -12.3057   18.6119 C   0  0  0  0  0  0  0  0  0  0  0  0
    8.0910  -10.5197   16.9554 N   0  0  0  0  0  0  0  0  0  0  0  0
    9.2623  -12.4859   18.6457 C   0  0  0  0  0  0  0  0  0  0  0  0
    9.4290  -10.7031   17.0300 C   0  0  0  0  0  0  0  0  0  0  0  0
   10.0627  -11.6671   17.8482 C   0  0  0  0  0  0  0  0  0  0  0  0
    2.6629   -6.4664   16.5258 C   0  0  0  0  0  0  0  0  0  0  0  0
    2.4292   -5.3608   17.5636 C   0  0  0  0  0  0  0  0  0  0  0  0
    1.9574   -6.0914   15.2064 C   0  0  0  0  0  0  0  0  0  0  0  0
    6.2596   -3.1459   14.1475 C   0  0  0  0  0  0  0  0  0  0  0  0
    7.5685   -3.5033   14.7328 C   0  0  0  0  0  0  0  0  0  0  0  0
    8.2238   -2.5995   15.5696 C   0  0  0  0  0  0  0  0  0  0  0  0
    9.4866   -2.9151   16.0727 C   0  0  0  0  0  0  0  0  0  0  0  0
   10.0846   -4.1274   15.7263 C   0  0  0  0  0  0  0  0  0  0  0  0
    9.4214   -5.0344   14.8929 C   0  0  0  0  0  0  0  0  0  0  0  0
    8.1649   -4.7247   14.3985 C   0  0  0  0  0  0  0  0  0  0  0  0
    5.1149   -0.2664   13.9633 C   0  0  0  0  0  0  0  0  0  0  0  0
    4.2286    0.6106   13.2186 N   0  0  0  0  0  0  0  0  0  0  0  0
    3.6421    0.2502   12.0799 C   0  0  0  0  0  0  0  0  0  0  0  0
    3.9365   -0.7719   11.4967 O   0  0  0  0  0  0  0  0  0  0  0  0
    4.0537    1.5126   13.5723 H   0  0  0  0  0  0  0  0  0  0  0  0
    2.5371    1.2018   11.6318 C   0  0  0  0  0  0  0  0  0  0  0  0
    3.0359    2.0301   10.5624 N   0  0  0  0  0  0  0  0  0  0  0  0
    3.3700    3.3396   10.7236 C   0  0  0  0  0  0  0  0  0  0  0  0
    3.1643    3.9398   11.7728 O   0  0  0  0  0  0  0  0  0  0  0  0
    3.9081    3.9911    9.6664 N   0  0  0  0  0  0  0  0  0  0  0  0
    4.1921    3.3153    8.3912 C   0  0  0  0  0  0  0  0  0  0  0  0
    3.1401    1.6279    9.6699 H   0  0  0  0  0  0  0  0  0  0  0  0
    4.2528    5.4052    9.7733 C   0  0  0  0  0  0  0  0  0  0  0  0
    5.6281    5.5833   10.3860 C   0  0  0  0  0  0  0  0  0  0  0  0
    6.7774    5.5038    9.5707 C   0  0  0  0  0  0  0  0  0  0  0  0
    5.6907    5.8187   11.7160 N   0  0  0  0  0  0  0  0  0  0  0  0
    8.0335    5.6804   10.1644 C   0  0  0  0  0  0  0  0  0  0  0  0
    6.8964    5.9978   12.2602 C   0  0  0  0  0  0  0  0  0  0  0  0
    8.0898    5.9360   11.5370 C   0  0  0  0  0  0  0  0  0  0  0  0
    1.2324    0.5178   11.2402 C   0  0  0  0  0  0  0  0  0  0  0  0
    0.3543    1.5973   10.5927 C   0  0  0  0  0  0  0  0  0  0  0  0
    0.5463   -0.1565   12.4521 C   0  0  0  0  0  0  0  0  0  0  0  0
    6.4099    0.4967   14.3157 C   0  0  0  0  0  0  0  0  0  0  0  0
    7.2152    0.6945   13.0667 C   0  0  0  0  0  0  0  0  0  0  0  0
    7.6165    1.9780   12.6700 C   0  0  0  0  0  0  0  0  0  0  0  0
    8.4327    2.1583   11.5393 C   0  0  0  0  0  0  0  0  0  0  0  0
    8.8618    1.0546   10.8074 C   0  0  0  0  0  0  0  0  0  0  0  0
    8.4617   -0.2197   11.2046 C   0  0  0  0  0  0  0  0  0  0  0  0
    7.6417   -0.4038   12.3191 C   0  0  0  0  0  0  0  0  0  0  0  0
 15 16  2  0  0  0
 15 17  1  0  0  0
 15 19  1  0  0  0
 17 18  1  0  0  0
 17 21  1  0  0  0
 21 22  1  0  0  0
 22 23  1  0  0  0
 22 24  2  0  0  0
 23 25  2  0  0  0
 24 26  1  0  0  0
 25 27  1  0  0  0
 26 27  2  0  0  0
 19 14  1  0  0  0
 14 10  1  0  0  0
 14 28  1  0  0  0
 10 11  2  0  0  0
 10 12  1  0  0  0
 28 29  1  0  0  0
 28 30  1  0  0  0
 12  9  1  0  0  0
  9 31  1  0  0  0
  9  6  1  0  0  0
 31 32  1  0  0  0
 32 33  2  0  0  0
 32 37  1  0  0  0
 33 34  1  0  0  0
 34 35  2  0  0  0
 35 36  1  0  0  0
 36 37  2  0  0  0
  6  7  1  0  0  0
  6  8  1  0  0  0
  6  1  1  0  0  0
  1  2  1  0  0  0
  1  3  1  0  0  0
  1 38  1  0  0  0
 39 38  1  0  0  0
 39 40  1  0  0  0
 38 60  1  0  0  0
 60 61  1  0  0  0
 61 62  2  0  0  0
 61 66  1  0  0  0
 62 63  1  0  0  0
 63 64  2  0  0  0
 64 65  1  0  0  0
 65 66  2  0  0  0
 44 43  1  0  0  0
 44 45  1  0  0  0
 43 40  1  0  0  0
 43 57  1  0  0  0
 40 41  2  0  0  0
 57 58  1  0  0  0
 57 59  1  0  0  0
 45 46  2  0  0  0
 45 47  1  0  0  0
 47 48  1  0  0  0
 47 50  1  0  0  0
 50 51  1  0  0  0
 51 52  1  0  0  0
 51 53  2  0  0  0
 52 54  2  0  0  0
 53 55  1  0  0  0
 54 56  1  0  0  0
 55 56  2  0  0  0
 19 20  1  0  0  0
 12 13  1  0  0  0
  2  4  1  0  0  0
  3  5  1  0  0  0
 39 42  1  0  0  0
 44 49  1  0  0  0
M  END
> <minimizedAffinity>
-10.30641

$$$$
1DIF_A85_B_101


 66 69  0  0  0  0  0  0  0  0999 V2000
    5.1238   -0.9976   15.7379 C   0  0  0  0  0  0  0  0  0  0  0  0
    6.4649   -0.9353   15.3759 O   0  0  0  0  0  0  0  0  0  0  0  0
    5.0528   -0.6061   17.0709 O   0  0  0  0  0  0  0  0  0  0  0  0
    6.7263   -1.1635   14.5056 H   0  0  0  0  0  0  0  0  0  0  0  0
    4.2245   -0.5804   17.5082 H   0  0  0  0  0  0  0  0  0  0  0  0
    4.3647    0.0222   14.8771 C   0  0  0  0  0  0  0  0  0  0  0  0
    4.1974    1.1464   15.6080 F   0  0  0  0  0  0  0  0  0  0  0  0
    3.1039   -0.4376   14.7646 F   0  0  0  0  0  0  0  0  0  0  0  0
    4.9541    0.3633   13.5052 C   0  0  0  0  0  0  0  0  0  0  0  0
    3.1362    0.4999   11.8746 C   0  0  0  0  0  0  0  0  0  0  0  0
    3.2804   -0.6634   11.5131 O   0  0  0  0  0  0  0  0  0  0  0  0
    3.9551    1.1055   12.7343 N   0  0  0  0  0  0  0  0  0  0  0  0
    3.8862    2.0802   12.8544 H   0  0  0  0  0  0  0  0  0  0  0  0
    1.9936    1.3946   11.4044 C   0  0  0  0  0  0  0  0  0  0  0  0
    2.8919    3.4328   10.3910 C   0  0  0  0  0  0  0  0  0  0  0  0
    2.8603    4.0002   11.4660 O   0  0  0  0  0  0  0  0  0  0  0  0
    3.3773    4.0600    9.2933 N   0  0  0  0  0  0  0  0  0  0  0  0
    3.5850    3.4318    7.9955 C   0  0  0  0  0  0  0  0  0  0  0  0
    2.4354    2.1729   10.2526 N   0  0  0  0  0  0  0  0  0  0  0  0
    2.3993    1.7691    9.3555 H   0  0  0  0  0  0  0  0  0  0  0  0
    3.7802    5.4345    9.3873 C   0  0  0  0  0  0  0  0  0  0  0  0
    5.2120    5.5478    9.8423 C   0  0  0  0  0  0  0  0  0  0  0  0
    6.2700    5.3608    8.9142 C   0  0  0  0  0  0  0  0  0  0  0  0
    5.4069    5.7844   11.1627 N   0  0  0  0  0  0  0  0  0  0  0  0
    7.5901    5.4128    9.3765 C   0  0  0  0  0  0  0  0  0  0  0  0
    6.6931    5.8044   11.5807 C   0  0  0  0  0  0  0  0  0  0  0  0
    7.8143    5.6303   10.7364 C   0  0  0  0  0  0  0  0  0  0  0  0
    0.7155    0.6207   11.0922 C   0  0  0  0  0  0  0  0  0  0  0  0
    0.1317   -0.0006   12.3678 C   0  0  0  0  0  0  0  0  0  0  0  0
   -0.3536    1.5005   10.4123 C   0  0  0  0  0  0  0  0  0  0  0  0
    6.2254    1.1797   13.5981 C   0  0  0  0  0  0  0  0  0  0  0  0
    6.9596    0.9963   12.3289 C   0  0  0  0  0  0  0  0  0  0  0  0
    7.7793   -0.1195   12.1571 C   0  0  0  0  0  0  0  0  0  0  0  0
    8.5176   -0.2594   10.9812 C   0  0  0  0  0  0  0  0  0  0  0  0
    8.4352    0.7227    9.9933 C   0  0  0  0  0  0  0  0  0  0  0  0
    7.6064    1.8364   10.1658 C   0  0  0  0  0  0  0  0  0  0  0  0
    6.8679    1.9726   11.3301 C   0  0  0  0  0  0  0  0  0  0  0  0
    4.6217   -2.4445   15.5670 C   0  0  0  0  0  0  0  0  0  0  0  0
    5.8031   -3.2853   15.4844 N   0  0  0  0  0  0  0  0  0  0  0  0
    6.6404   -3.4598   16.5037 C   0  0  0  0  0  0  0  0  0  0  0  0
    6.5694   -2.7993   17.5187 O   0  0  0  0  0  0  0  0  0  0  0  0
    5.9930   -3.7469   14.6358 H   0  0  0  0  0  0  0  0  0  0  0  0
    7.6327   -4.5993   16.2934 C   0  0  0  0  0  0  0  0  0  0  0  0
    6.9717   -5.8526   16.5595 N   0  0  0  0  0  0  0  0  0  0  0  0
    6.7613   -6.3361   17.8142 C   0  0  0  0  0  0  0  0  0  0  0  0
    7.2208   -5.7868   18.8094 O   0  0  0  0  0  0  0  0  0  0  0  0
    6.0535   -7.4827   17.9410 N   0  0  0  0  0  0  0  0  0  0  0  0
    5.4651   -8.1727   16.7829 C   0  0  0  0  0  0  0  0  0  0  0  0
    6.6565   -6.3860   15.7944 H   0  0  0  0  0  0  0  0  0  0  0  0
    5.8277   -8.0642   19.2605 C   0  0  0  0  0  0  0  0  0  0  0  0
    6.5875   -9.3669   19.4162 C   0  0  0  0  0  0  0  0  0  0  0  0
    7.9845   -9.3946   19.2179 C   0  0  0  0  0  0  0  0  0  0  0  0
    5.8747  -10.4666   19.7488 N   0  0  0  0  0  0  0  0  0  0  0  0
    8.6596  -10.6114   19.3767 C   0  0  0  0  0  0  0  0  0  0  0  0
    6.5387  -11.6136   19.9089 C   0  0  0  0  0  0  0  0  0  0  0  0
    7.9185  -11.7411   19.7330 C   0  0  0  0  0  0  0  0  0  0  0  0
    8.3069   -4.6079   14.9265 C   0  0  0  0  0  0  0  0  0  0  0  0
    9.3407   -5.7418   14.9600 C   0  0  0  0  0  0  0  0  0  0  0  0
    8.9403   -3.2380   14.5852 C   0  0  0  0  0  0  0  0  0  0  0  0
    3.6818   -2.9914   16.6629 C   0  0  0  0  0  0  0  0  0  0  0  0
    3.0198   -4.2390   16.1602 C   0  0  0  0  0  0  0  0  0  0  0  0
    2.4721   -4.2884   14.8705 C   0  0  0  0  0  0  0  0  0  0  0  0
    1.9158   -5.4793   14.3712 C   0  0  0  0  0  0  0  0  0  0  0  0
    1.9161   -6.6299   15.1547 C   0  0  0  0  0  0  0  0  0  0  0  0
    2.4617   -6.5777   16.4359 C   0  0  0  0  0  0  0  0  0  0  0  0
    3.0045   -5.3952   16.9413 C   0  0  0  0  0  0  0  0  0  0  0  0
 15 16  2  0  0  0
 15 17  1  0  0  0
 15 19  1  0  0  0
 17 18  1  0  0  0
 17 21  1  0  0  0
 21 22  1  0  0  0
 22 23  1  0  0  0
 22 24  2  0  0  0
 23 25  2  0  0  0
 24 26  1  0  0  0
 25 27  1  0  0  0
 26 27  2  0  0  0
 19 14  1  0  0  0
 14 10  1  0  0  0
 14 28  1  0  0  0
 10 11  2  0  0  0
 10 12  1  0  0  0
 28 29  1  0  0  0
 28 30  1  0  0  0
 12  9  1  0  0  0
  9 31  1  0  0  0
  9  6  1  0  0  0
 31 32  1  0  0  0
 32 33  2  0  0  0
 32 37  1  0  0  0
 33 34  1  0  0  0
 34 35  2  0  0  0
 35 36  1  0  0  0
 36 37  2  0  0  0
  6  7  1  0  0  0
  6  8  1  0  0  0
  6  1  1  0  0  0
  1  2  1  0  0  0
  1  3  1  0  0  0
  1 38  1  0  0  0
 39 38  1  0  0  0
 39 40  1  0  0  0
 38 60  1  0  0  0
 60 61  1  0  0  0
 61 62  2  0  0  0
 61 66  1  0  0  0
 62 63  1  0  0  0
 63 64  2  0  0  0
 64 65  1  0  0  0
 65 66  2  0  0  0
 44 43  1  0  0  0
 44 45  1  0  0  0
 43 40  1  0  0  0
 43 57  1  0  0  0
 40 41  2  0  0  0
 57 58  1  0  0  0
 57 59  1  0  0  0
 45 46  2  0  0  0
 45 47  1  0  0  0
 47 48  1  0  0  0
 47 50  1  0  0  0
 50 51  1  0  0  0
 51 52  1  0  0  0
 51 53  2  0  0  0
 52 54  2  0  0  0
 53 55  1  0  0  0
 54 56  1  0  0  0
 55 56  2  0  0  0
 19 20  1  0  0  0
 12 13  1  0  0  0
  2  4  1  0  0  0
  3  5  1  0  0  0
 39 42  1  0  0  0
 44 49  1  0  0  0
M  END
> <minimizedAffinity>
-9.94002

$$$$
1DIF_A85_B_101


 66 69  0  0  0  0  0  0  0  0999 V2000
    4.4802   -1.8799   16.5582 C   0  0  0  0  0  0  0  0  0  0  0  0
    5.0171   -0.7080   17.0796 O   0  0  0  0  0  0  0  0  0  0  0  0
    3.4614   -2.2695   17.4217 O   0  0  0  0  0  0  0  0  0  0  0  0
    5.7246   -0.2802   16.6388 H   0  0  0  0  0  0  0  0  0  0  0  0
    2.9688   -3.0466   17.2446 H   0  0  0  0  0  0  0  0  0  0  0  0
    3.8721   -1.5411   15.1897 C   0  0  0  0  0  0  0  0  0  0  0  0
    2.7452   -0.8249   15.3969 F   0  0  0  0  0  0  0  0  0  0  0  0
    3.3911   -2.6955   14.6901 F   0  0  0  0  0  0  0  0  0  0  0  0
    4.7734   -0.8316   14.1748 C   0  0  0  0  0  0  0  0  0  0  0  0
    3.4606   -0.1471   12.2279 C   0  0  0  0  0  0  0  0  0  0  0  0
    3.7812   -1.1363   11.5774 O   0  0  0  0  0  0  0  0  0  0  0  0
    3.9697    0.1366   13.4266 N   0  0  0  0  0  0  0  0  0  0  0  0
    3.8004    1.0230   13.8202 H   0  0  0  0  0  0  0  0  0  0  0  0
    2.4265    0.8722   11.7602 C   0  0  0  0  0  0  0  0  0  0  0  0
    3.2266    2.9943   10.8413 C   0  0  0  0  0  0  0  0  0  0  0  0
    2.8776    3.5801   11.8481 O   0  0  0  0  0  0  0  0  0  0  0  0
    3.8482    3.6573    9.8372 N   0  0  0  0  0  0  0  0  0  0  0  0
    4.4250    3.0320    8.6546 C   0  0  0  0  0  0  0  0  0  0  0  0
    2.9964    1.6762   10.6849 N   0  0  0  0  0  0  0  0  0  0  0  0
    3.2174    1.2467    9.8270 H   0  0  0  0  0  0  0  0  0  0  0  0
    4.0202    5.0791    9.9319 C   0  0  0  0  0  0  0  0  0  0  0  0
    5.3964    5.4242   10.4389 C   0  0  0  0  0  0  0  0  0  0  0  0
    6.4954    5.4655    9.5409 C   0  0  0  0  0  0  0  0  0  0  0  0
    5.5105    5.6364   11.7728 N   0  0  0  0  0  0  0  0  0  0  0  0
    7.7723    5.7302   10.0492 C   0  0  0  0  0  0  0  0  0  0  0  0
    6.7610    5.8656   12.2346 C   0  0  0  0  0  0  0  0  0  0  0  0
    7.9176    5.9272   11.4229 C   0  0  0  0  0  0  0  0  0  0  0  0
    1.1062    0.2350   11.3348 C   0  0  0  0  0  0  0  0  0  0  0  0
    0.2659   -0.1433   12.5615 C   0  0  0  0  0  0  0  0  0  0  0  0
    0.2815    1.1527   10.4091 C   0  0  0  0  0  0  0  0  0  0  0  0
    5.9422   -0.1206   14.8227 C   0  0  0  0  0  0  0  0  0  0  0  0
    6.8475    0.3151   13.7390 C   0  0  0  0  0  0  0  0  0  0  0  0
    7.2826   -0.6068   12.7865 C   0  0  0  0  0  0  0  0  0  0  0  0
    8.1843   -0.2064   11.7996 C   0  0  0  0  0  0  0  0  0  0  0  0
    8.6484    1.1096   11.7813 C   0  0  0  0  0  0  0  0  0  0  0  0
    8.2042    2.0331   12.7335 C   0  0  0  0  0  0  0  0  0  0  0  0
    7.3038    1.6380   13.7095 C   0  0  0  0  0  0  0  0  0  0  0  0
    5.5822   -2.9553   16.4946 C   0  0  0  0  0  0  0  0  0  0  0  0
    5.0976   -4.0900   17.2608 N   0  0  0  0  0  0  0  0  0  0  0  0
    4.5585   -5.1676   16.6965 C   0  0  0  0  0  0  0  0  0  0  0  0
    4.2803   -5.2085   15.5165 O   0  0  0  0  0  0  0  0  0  0  0  0
    5.1713   -4.0604   18.2421 H   0  0  0  0  0  0  0  0  0  0  0  0
    4.3947   -6.3438   17.6542 C   0  0  0  0  0  0  0  0  0  0  0  0
    5.6218   -7.1000   17.6833 N   0  0  0  0  0  0  0  0  0  0  0  0
    5.7120   -8.3960   17.2779 C   0  0  0  0  0  0  0  0  0  0  0  0
    4.7242   -9.0493   16.9601 O   0  0  0  0  0  0  0  0  0  0  0  0
    6.9357   -8.9742   17.2712 N   0  0  0  0  0  0  0  0  0  0  0  0
    8.1551   -8.2321   17.6258 C   0  0  0  0  0  0  0  0  0  0  0  0
    6.4362   -6.6561   18.0134 H   0  0  0  0  0  0  0  0  0  0  0  0
    7.0853  -10.3720   16.8786 C   0  0  0  0  0  0  0  0  0  0  0  0
    8.2269  -11.0273   17.6308 C   0  0  0  0  0  0  0  0  0  0  0  0
    9.4729  -11.2144   16.9950 C   0  0  0  0  0  0  0  0  0  0  0  0
    7.9933  -11.4081   18.9070 N   0  0  0  0  0  0  0  0  0  0  0  0
   10.5106  -11.8155   17.7185 C   0  0  0  0  0  0  0  0  0  0  0  0
    8.9993  -11.9666   19.5838 C   0  0  0  0  0  0  0  0  0  0  0  0
   10.2658  -12.1948   19.0409 C   0  0  0  0  0  0  0  0  0  0  0  0
    3.9478   -5.9587   19.0597 C   0  0  0  0  0  0  0  0  0  0  0  0
    5.0669   -6.4085   20.0089 C   0  0  0  0  0  0  0  0  0  0  0  0
    2.5777   -6.5800   19.4217 C   0  0  0  0  0  0  0  0  0  0  0  0
    6.0110   -3.4333   15.0907 C   0  0  0  0  0  0  0  0  0  0  0  0
    7.4880   -3.6899   15.0924 C   0  0  0  0  0  0  0  0  0  0  0  0
    8.3669   -2.8061   15.7344 C   0  0  0  0  0  0  0  0  0  0  0  0
    9.7440   -3.0829   15.7994 C   0  0  0  0  0  0  0  0  0  0  0  0
   10.2467   -4.2512   15.2335 C   0  0  0  0  0  0  0  0  0  0  0  0
    9.3705   -5.1278   14.5967 C   0  0  0  0  0  0  0  0  0  0  0  0
    8.0043   -4.8524   14.5186 C   0  0  0  0  0  0  0  0  0  0  0  0
 15 16  2  0  0  0
 15 17  1  0  0  0
 15 19  1  0  0  0
 17 18  1  0  0  0
 17 21  1  0  0  0
 21 22  1  0  0  0
 22 23  1  0  0  0
 22 24  2  0  0  0
 23 25  2  0  0  0
 24 26  1  0  0  0
 25 27  1  0  0  0
 26 27  2  0  0  0
 19 14  1  0  0  0
 14 10  1  0  0  0
 14 28  1  0  0  0
 10 11  2  0  0  0
 10 12  1  0  0  0
 28 29  1  0  0  0
 28 30  1  0  0  0
 12  9  1  0  0  0
  9 31  1  0  0  0
  9  6  1  0  0  0
 31 32  1  0  0  0
 32 33  2  0  0  0
 32 37  1  0  0  0
 33 34  1  0  0  0
 34 35  2  0  0  0
 35 36  1  0  0  0
 36 37  2  0  0  0
  6  7  1  0  0  0
  6  8  1  0  0  0
  6  1  1  0  0  0
  1  2  1  0  0  0
  1  3  1  0  0  0
  1 38  1  0  0  0
 39 38  1  0  0  0
 39 40  1  0  0  0
 38 60  1  0  0  0
 60 61  1  0  0  0
 61 62  2  0  0  0
 61 66  1  0  0  0
 62 63  1  0  0  0
 63 64  2  0  0  0
 64 65  1  0  0  0
 65 66  2  0  0  0
 44 43  1  0  0  0
 44 45  1  0  0  0
 43 40  1  0  0  0
 43 57  1  0  0  0
 40 41  2  0  0  0
 57 58  1  0  0  0
 57 59  1  0  0  0
 45 46  2  0  0  0
 45 47  1  0  0  0
 47 48  1  0  0  0
 47 50  1  0  0  0
 50 51  1  0  0  0
 51 52  1  0  0  0
 51 53  2  0  0  0
 52 54  2  0  0  0
 53 55  1  0  0  0
 54 56  1  0  0  0
 55 56  2  0  0  0
 19 20  1  0  0  0
 12 13  1  0  0  0
  2  4  1  0  0  0
  3  5  1  0  0  0
 39 42  1  0  0  0
 44 49  1  0  0  0
M  END
> <minimizedAffinity>
-9.49990

$$$$
1DIF_A85_B_101


 66 69  0  0  0  0  0  0  0  0999 V2000
    6.3589   -1.5262   14.6153 C   0  0  0  0  0  0  0  0  0  0  0  0
    7.1749   -0.4081   14.7481 O   0  0  0  0  0  0  0  0  0  0  0  0
    5.2115   -1.2720   15.3595 O   0  0  0  0  0  0  0  0  0  0  0  0
    8.0063   -0.3809   14.3167 H   0  0  0  0  0  0  0  0  0  0  0  0
    4.5278   -1.9116   15.3996 H   0  0  0  0  0  0  0  0  0  0  0  0
    5.9763   -1.6457   13.1332 C   0  0  0  0  0  0  0  0  0  0  0  0
    5.5113   -2.8963   12.9194 F   0  0  0  0  0  0  0  0  0  0  0  0
    7.1311   -1.6462   12.4404 F   0  0  0  0  0  0  0  0  0  0  0  0
    4.9952   -0.6113   12.5734 C   0  0  0  0  0  0  0  0  0  0  0  0
    5.5222    1.7009   11.9747 C   0  0  0  0  0  0  0  0  0  0  0  0
    4.5547    2.1509   12.5798 O   0  0  0  0  0  0  0  0  0  0  0  0
    5.7487    0.3960   11.8246 N   0  0  0  0  0  0  0  0  0  0  0  0
    6.4430    0.1011   11.1919 H   0  0  0  0  0  0  0  0  0  0  0  0
    6.5983    2.5728   11.3353 C   0  0  0  0  0  0  0  0  0  0  0  0
    5.5408    3.1665    9.2099 C   0  0  0  0  0  0  0  0  0  0  0  0
    5.7537    2.0514    8.7743 O   0  0  0  0  0  0  0  0  0  0  0  0
    4.8765    4.0829    8.4664 N   0  0  0  0  0  0  0  0  0  0  0  0
    4.4524    5.3939    8.9394 C   0  0  0  0  0  0  0  0  0  0  0  0
    5.9677    3.5312   10.4345 N   0  0  0  0  0  0  0  0  0  0  0  0
    5.8517    4.4639   10.7275 H   0  0  0  0  0  0  0  0  0  0  0  0
    4.4949    3.7568    7.1217 C   0  0  0  0  0  0  0  0  0  0  0  0
    3.0693    4.1623    6.8513 C   0  0  0  0  0  0  0  0  0  0  0  0
    2.0035    3.5028    7.5186 C   0  0  0  0  0  0  0  0  0  0  0  0
    2.8854    5.1330    5.9233 N   0  0  0  0  0  0  0  0  0  0  0  0
    0.6872    3.8592    7.2039 C   0  0  0  0  0  0  0  0  0  0  0  0
    1.6015    5.4365    5.6250 C   0  0  0  0  0  0  0  0  0  0  0  0
    0.4733    4.8385    6.2333 C   0  0  0  0  0  0  0  0  0  0  0  0
    7.4862    3.2763   12.3585 C   0  0  0  0  0  0  0  0  0  0  0  0
    8.7105    2.4159   12.6975 C   0  0  0  0  0  0  0  0  0  0  0  0
    7.9511    4.6660   11.8770 C   0  0  0  0  0  0  0  0  0  0  0  0
    3.9443   -1.2248   11.6730 C   0  0  0  0  0  0  0  0  0  0  0  0
    2.6386   -0.6606   12.0734 C   0  0  0  0  0  0  0  0  0  0  0  0
    1.7926   -0.1166   11.1065 C   0  0  0  0  0  0  0  0  0  0  0  0
    0.5869    0.4690   11.4947 C   0  0  0  0  0  0  0  0  0  0  0  0
    0.2442    0.5124   12.8467 C   0  0  0  0  0  0  0  0  0  0  0  0
    1.0915   -0.0407   13.8127 C   0  0  0  0  0  0  0  0  0  0  0  0
    2.2855   -0.6283   13.4275 C   0  0  0  0  0  0  0  0  0  0  0  0
    7.1014   -2.7607   15.1624 C   0  0  0  0  0  0  0  0  0  0  0  0
    6.1490   -3.8571   15.1461 N   0  0  0  0  0  0  0  0  0  0  0  0
    5.7547   -4.4901   16.2481 C   0  0  0  0  0  0  0  0  0  0  0  0
    6.2870   -4.3091   17.3229 O   0  0  0  0  0  0  0  0  0  0  0  0
    5.7783   -4.1449   14.2807 H   0  0  0  0  0  0  0  0  0  0  0  0
    4.5451   -5.3952   16.0353 C   0  0  0  0  0  0  0  0  0  0  0  0
    4.3924   -6.2527   17.1841 N   0  0  0  0  0  0  0  0  0  0  0  0
    4.5578   -7.6028   17.1375 C   0  0  0  0  0  0  0  0  0  0  0  0
    4.7420   -8.2004   16.0828 O   0  0  0  0  0  0  0  0  0  0  0  0
    4.4724   -8.2921   18.2991 N   0  0  0  0  0  0  0  0  0  0  0  0
    4.2705   -7.6241   19.5939 C   0  0  0  0  0  0  0  0  0  0  0  0
    4.1565   -5.8405   18.0465 H   0  0  0  0  0  0  0  0  0  0  0  0
    4.6074   -9.7454   18.3022 C   0  0  0  0  0  0  0  0  0  0  0  0
    5.9676  -10.1626   18.8259 C   0  0  0  0  0  0  0  0  0  0  0  0
    7.1382   -9.7317   18.1656 C   0  0  0  0  0  0  0  0  0  0  0  0
    5.9965  -10.9439   19.9290 N   0  0  0  0  0  0  0  0  0  0  0  0
    8.3803  -10.1269   18.6779 C   0  0  0  0  0  0  0  0  0  0  0  0
    7.1905  -11.2984   20.4094 C   0  0  0  0  0  0  0  0  0  0  0  0
    8.4028  -10.9238   19.8255 C   0  0  0  0  0  0  0  0  0  0  0  0
    3.2496   -4.6572   15.7188 C   0  0  0  0  0  0  0  0  0  0  0  0
    2.6544   -4.2285   17.0670 C   0  0  0  0  0  0  0  0  0  0  0  0
    2.2752   -5.5280   14.8904 C   0  0  0  0  0  0  0  0  0  0  0  0
    8.3853   -3.1892   14.4198 C   0  0  0  0  0  0  0  0  0  0  0  0
    9.1476   -4.1527   15.2787 C   0  0  0  0  0  0  0  0  0  0  0  0
    9.6618   -3.7524   16.5201 C   0  0  0  0  0  0  0  0  0  0  0  0
   10.3137   -4.6737   17.3588 C   0  0  0  0  0  0  0  0  0  0  0  0
   10.4431   -6.0027   16.9654 C   0  0  0  0  0  0  0  0  0  0  0  0
    9.9304   -6.3976   15.7313 C   0  0  0  0  0  0  0  0  0  0  0  0
    9.2930   -5.4848   14.8894 C   0  0  0  0  0  0  0  0  0  0  0  0
 15 16  2  0  0  0
 15 17  1  0  0  0
 15 19  1  0  0  0
 17 18  1  0  0  0
 17 21  1  0  0  0
 21 22  1  0  0  0
 22 23  1  0  0  0
 22 24  2  0  0  0
 23 25  2  0  0  0
 24 26  1  0  0  0
 25 27  1  0  0  0
 26 27  2  0  0  0
 19 14  1  0  0  0
 14 10  1  0  0  0
 14 28  1  0  0  0
 10 11  2  0  0  0
 10 12  1  0  0  0
 28 29  1  0  0  0
 28 30  1  0  0  0
 12  9  1  0  0  0
  9 31  1  0  0  0
  9  6  1  0  0  0
 31 32  1  0  0  0
 32 33  2  0  0  0
 32 37  1  0  0  0
 33 34  1  0  0  0
 34 35  2  0  0  0
 35 36  1  0  0  0
 36 37  2  0  0  0
  6  7  1  0  0  0
  6  8  1  0  0  0
  6  1  1  0  0  0
  1  2  1  0  0  0
  1  3  1  0  0  0
  1 38  1  0  0  0
 39 38  1  0  0  0
 39 40  1  0  0  0
 38 60  1  0  0  0
 60 61  1  0  0  0
 61 62  2  0  0  0
 61 66  1  0  0  0
 62 63  1  0  0  0
 63 64  2  0  0  0
 64 65  1  0  0  0
 65 66  2  0  0  0
 44 43  1  0  0  0
 44 45  1  0  0  0
 43 40  1  0  0  0
 43 57  1  0  0  0
 40 41  2  0  0  0
 57 58  1  0  0  0
 57 59  1  0  0  0
 45 46  2  0  0  0
 45 47  1  0  0  0
 47 48  1  0  0  0
 47 50  1  0  0  0
 50 51  1  0  0  0
 51 52  1  0  0  0
 51 53  2  0  0  0
 52 54  2  0  0  0
 53 55  1  0  0  0
 54 56  1  0  0  0
 55 56  2  0  0  0
 19 20  1  0  0  0
 12 13  1  0  0  0
  2  4  1  0  0  0
  3  5  1  0  0  0
 39 42  1  0  0  0
 44 49  1  0  0  0
M  END
> <minimizedAffinity>
-9.43626

$$$$
1DIF_A85_B_101


 66 69  0  0  0  0  0  0  0  0999 V2000
    6.0796   -0.9151   13.8831 C   0  0  0  0  0  0  0  0  0  0  0  0
    4.8133   -1.4738   14.0170 O   0  0  0  0  0  0  0  0  0  0  0  0
    6.4259   -0.4103   15.1323 O   0  0  0  0  0  0  0  0  0  0  0  0
    4.3964   -1.8721   13.2784 H   0  0  0  0  0  0  0  0  0  0  0  0
    7.2534    0.0121   15.2539 H   0  0  0  0  0  0  0  0  0  0  0  0
    7.0485   -2.0484   13.5167 C   0  0  0  0  0  0  0  0  0  0  0  0
    8.0159   -1.5341   12.7259 F   0  0  0  0  0  0  0  0  0  0  0  0
    6.3850   -2.8579   12.6694 F   0  0  0  0  0  0  0  0  0  0  0  0
    7.6707   -2.8432   14.6687 C   0  0  0  0  0  0  0  0  0  0  0  0
    5.8806   -3.7845   16.0441 C   0  0  0  0  0  0  0  0  0  0  0  0
    5.9067   -2.8510   16.8395 O   0  0  0  0  0  0  0  0  0  0  0  0
    6.7545   -3.9205   15.0470 N   0  0  0  0  0  0  0  0  0  0  0  0
    6.7847   -4.7701   14.5504 H   0  0  0  0  0  0  0  0  0  0  0  0
    4.8362   -4.8958   16.0806 C   0  0  0  0  0  0  0  0  0  0  0  0
    5.0961   -7.0586   17.1956 C   0  0  0  0  0  0  0  0  0  0  0  0
    4.8696   -7.6413   16.1527 O   0  0  0  0  0  0  0  0  0  0  0  0
    5.3929   -7.7493   18.3220 N   0  0  0  0  0  0  0  0  0  0  0  0
    5.8106   -7.1514   19.5830 C   0  0  0  0  0  0  0  0  0  0  0  0
    5.0468   -5.7143   17.2695 N   0  0  0  0  0  0  0  0  0  0  0  0
    5.1551   -5.2753   18.1440 H   0  0  0  0  0  0  0  0  0  0  0  0
    5.3574   -9.1840   18.2989 C   0  0  0  0  0  0  0  0  0  0  0  0
    6.7500   -9.7586   18.2812 C   0  0  0  0  0  0  0  0  0  0  0  0
    7.2784  -10.3784   19.4442 C   0  0  0  0  0  0  0  0  0  0  0  0
    7.4509   -9.6023   17.1316 N   0  0  0  0  0  0  0  0  0  0  0  0
    8.5958  -10.8502   19.4179 C   0  0  0  0  0  0  0  0  0  0  0  0
    8.7282  -10.0472   17.1476 C   0  0  0  0  0  0  0  0  0  0  0  0
    9.3447  -10.6777   18.2533 C   0  0  0  0  0  0  0  0  0  0  0  0
    3.4031   -4.3743   16.0144 C   0  0  0  0  0  0  0  0  0  0  0  0
    2.5705   -5.1990   15.0242 C   0  0  0  0  0  0  0  0  0  0  0  0
    2.7125   -4.3755   17.3937 C   0  0  0  0  0  0  0  0  0  0  0  0
    9.0199   -3.4316   14.3157 C   0  0  0  0  0  0  0  0  0  0  0  0
    9.3833   -4.3758   15.3927 C   0  0  0  0  0  0  0  0  0  0  0  0
    9.4814   -5.7396   15.1153 C   0  0  0  0  0  0  0  0  0  0  0  0
    9.7661   -6.6353   16.1468 C   0  0  0  0  0  0  0  0  0  0  0  0
    9.9407   -6.1585   17.4466 C   0  0  0  0  0  0  0  0  0  0  0  0
    9.8491   -4.7896   17.7197 C   0  0  0  0  0  0  0  0  0  0  0  0
    9.5731   -3.8990   16.6950 C   0  0  0  0  0  0  0  0  0  0  0  0
    6.0251    0.2131   12.8349 C   0  0  0  0  0  0  0  0  0  0  0  0
    4.6257    0.3879   12.4877 N   0  0  0  0  0  0  0  0  0  0  0  0
    3.7398    0.9450   13.3096 C   0  0  0  0  0  0  0  0  0  0  0  0
    4.0000    1.1932   14.4681 O   0  0  0  0  0  0  0  0  0  0  0  0
    4.3187    0.0804   11.6043 H   0  0  0  0  0  0  0  0  0  0  0  0
    2.4153    1.2937   12.6377 C   0  0  0  0  0  0  0  0  0  0  0  0
    2.6835    1.9936   11.4062 N   0  0  0  0  0  0  0  0  0  0  0  0
    2.0141    3.1143   11.0212 C   0  0  0  0  0  0  0  0  0  0  0  0
    1.0536    3.5470   11.6485 O   0  0  0  0  0  0  0  0  0  0  0  0
    2.4132    3.7319    9.8850 N   0  0  0  0  0  0  0  0  0  0  0  0
    3.5693    3.2659    9.1042 C   0  0  0  0  0  0  0  0  0  0  0  0
    3.3869    1.6429   10.8133 H   0  0  0  0  0  0  0  0  0  0  0  0
    1.7087    4.9176    9.4074 C   0  0  0  0  0  0  0  0  0  0  0  0
    1.5955    4.9088    7.8955 C   0  0  0  0  0  0  0  0  0  0  0  0
    0.8529    3.8961    7.2514 C   0  0  0  0  0  0  0  0  0  0  0  0
    2.2236    5.8967    7.2191 N   0  0  0  0  0  0  0  0  0  0  0  0
    0.7600    3.9193    5.8542 C   0  0  0  0  0  0  0  0  0  0  0  0
    2.1115    5.9089    5.8889 C   0  0  0  0  0  0  0  0  0  0  0  0
    1.4010    4.9505    5.1626 C   0  0  0  0  0  0  0  0  0  0  0  0
    1.4889    0.1052   12.4090 C   0  0  0  0  0  0  0  0  0  0  0  0
    1.3650   -0.0616   10.8883 C   0  0  0  0  0  0  0  0  0  0  0  0
    0.1171    0.2999   13.0979 C   0  0  0  0  0  0  0  0  0  0  0  0
    6.6233    1.5762   13.2444 C   0  0  0  0  0  0  0  0  0  0  0  0
    6.9776    2.3453   12.0074 C   0  0  0  0  0  0  0  0  0  0  0  0
    7.3483    1.6778   10.8315 C   0  0  0  0  0  0  0  0  0  0  0  0
    7.6104    2.3945    9.6505 C   0  0  0  0  0  0  0  0  0  0  0  0
    7.4905    3.7813    9.6366 C   0  0  0  0  0  0  0  0  0  0  0  0
    7.1212    4.4417   10.8068 C   0  0  0  0  0  0  0  0  0  0  0  0
    6.8716    3.7365   11.9852 C   0  0  0  0  0  0  0  0  0  0  0  0
 15 16  2  0  0  0
 15 17  1  0  0  0
 15 19  1  0  0  0
 17 18  1  0  0  0
 17 21  1  0  0  0
 21 22  1  0  0  0
 22 23  1  0  0  0
 22 24  2  0  0  0
 23 25  2  0  0  0
 24 26  1  0  0  0
 25 27  1  0  0  0
 26 27  2  0  0  0
 19 14  1  0  0  0
 14 10  1  0  0  0
 14 28  1  0  0  0
 10 11  2  0  0  0
 10 12  1  0  0  0
 28 29  1  0  0  0
 28 30  1  0  0  0
 12  9  1  0  0  0
  9 31  1  0  0  0
  9  6  1  0  0  0
 31 32  1  0  0  0
 32 33  2  0  0  0
 32 37  1  0  0  0
 33 34  1  0  0  0
 34 35  2  0  0  0
 35 36  1  0  0  0
 36 37  2  0  0  0
  6  7  1  0  0  0
  6  8  1  0  0  0
  6  1  1  0  0  0
  1  2  1  0  0  0
  1  3  1  0  0  0
  1 38  1  0  0  0
 39 38  1  0  0  0
 39 40  1  0  0  0
 38 60  1  0  0  0
 60 61  1  0  0  0
 61 62  2  0  0  0
 61 66  1  0  0  0
 62 63  1  0  0  0
 63 64  2  0  0  0
 64 65  1  0  0  0
 65 66  2  0  0  0
 44 43  1  0  0  0
 44 45  1  0  0  0
 43 40  1  0  0  0
 43 57  1  0  0  0
 40 41  2  0  0  0
 57 58  1  0  0  0
 57 59  1  0  0  0
 45 46  2  0  0  0
 45 47  1  0  0  0
 47 48  1  0  0  0
 47 50  1  0  0  0
 50 51  1  0  0  0
 51 52  1  0  0  0
 51 53  2  0  0  0
 52 54  2  0  0  0
 53 55  1  0  0  0
 54 56  1  0  0  0
 55 56  2  0  0  0
 19 20  1  0  0  0
 12 13  1  0  0  0
  2  4  1  0  0  0
  3  5  1  0  0  0
 39 42  1  0  0  0
 44 49  1  0  0  0
M  END
> <minimizedAffinity>
-9.29805

$$$$
