4Q7V_5MH_A_302


 10 10  0  0  0  0  0  0  0  0999 V2000
   14.6775    0.6746   17.4765 S   0  0  0  0  0  0  0  0  0  0  0  0
   15.2258    1.9976   16.5183 C   0  0  0  0  0  0  0  0  0  0  0  0
   14.3800    3.1115   16.3003 C   0  0  0  0  0  0  0  0  0  0  0  0
   14.8084    4.1438   15.5521 C   0  0  0  0  0  0  0  0  0  0  0  0
   16.0630    4.1181   15.0016 C   0  0  0  0  0  0  0  0  0  0  0  0
   16.5390    5.2698   14.1684 C   0  0  0  0  0  0  0  0  0  0  0  0
   16.8915    3.0279   15.2154 C   0  0  0  0  0  0  0  0  0  0  0  0
   16.4533    1.9712   15.9810 N   0  0  0  0  0  0  0  0  0  0  0  0
   17.2665    0.8990   16.1919 O   0  0  0  0  0  0  0  0  0  0  0  0
   18.1247    0.8808   15.8161 H   0  0  0  0  0  0  0  0  0  0  0  0
  6  5  1  0  0  0
  7  5  2  0  0  0
  7  8  1  0  0  0
  5  4  1  0  0  0
  9  8  1  0  0  0
  8  2  1  0  0  0
  4  3  2  0  0  0
  2  3  1  0  0  0
  2  1  2  0  0  0
  9 10  1  0  0  0
M  END
> <minimizedAffinity>
-5.78401

$$$$
4Q7V_5MH_A_302


 10 10  0  0  0  0  0  0  0  0999 V2000
   16.5866    1.7150   13.1144 S   0  0  0  0  0  0  0  0  0  0  0  0
   15.9482    1.8448   14.7096 C   0  0  0  0  0  0  0  0  0  0  0  0
   15.2715    3.0230   15.1069 C   0  0  0  0  0  0  0  0  0  0  0  0
   14.7736    3.1239   16.3524 C   0  0  0  0  0  0  0  0  0  0  0  0
   14.9203    2.0869   17.2360 C   0  0  0  0  0  0  0  0  0  0  0  0
   14.3643    2.2009   18.6235 C   0  0  0  0  0  0  0  0  0  0  0  0
   15.5823    0.9331   16.8469 C   0  0  0  0  0  0  0  0  0  0  0  0
   16.0920    0.8296   15.5726 N   0  0  0  0  0  0  0  0  0  0  0  0
   16.7429   -0.3038   15.1889 O   0  0  0  0  0  0  0  0  0  0  0  0
   16.8433   -1.0135   15.7924 H   0  0  0  0  0  0  0  0  0  0  0  0
  6  5  1  0  0  0
  7  5  2  0  0  0
  7  8  1  0  0  0
  5  4  1  0  0  0
  9  8  1  0  0  0
  8  2  1  0  0  0
  4  3  2  0  0  0
  2  3  1  0  0  0
  2  1  2  0  0  0
  9 10  1  0  0  0
M  END
> <minimizedAffinity>
-5.33876

$$$$
4Q7V_5MH_A_302


 10 10  0  0  0  0  0  0  0  0999 V2000
   15.8503    5.1439   14.2921 S   0  0  0  0  0  0  0  0  0  0  0  0
   15.5912    3.7451   15.2644 C   0  0  0  0  0  0  0  0  0  0  0  0
   14.4183    3.6366   16.0493 C   0  0  0  0  0  0  0  0  0  0  0  0
   14.2167    2.5446   16.8083 C   0  0  0  0  0  0  0  0  0  0  0  0
   15.1454    1.5372   16.8215 C   0  0  0  0  0  0  0  0  0  0  0  0
   14.9188    0.3207   17.6676 C   0  0  0  0  0  0  0  0  0  0  0  0
   16.2937    1.6430   16.0526 C   0  0  0  0  0  0  0  0  0  0  0  0
   16.5003    2.7604   15.2759 N   0  0  0  0  0  0  0  0  0  0  0  0
   17.6284    2.8657   14.5197 O   0  0  0  0  0  0  0  0  0  0  0  0
   18.2639    2.1771   14.5279 H   0  0  0  0  0  0  0  0  0  0  0  0
  6  5  1  0  0  0
  7  5  2  0  0  0
  7  8  1  0  0  0
  5  4  1  0  0  0
  9  8  1  0  0  0
  8  2  1  0  0  0
  4  3  2  0  0  0
  2  3  1  0  0  0
  2  1  2  0  0  0
  9 10  1  0  0  0
M  END
> <minimizedAffinity>
-5.13114

$$$$
4Q7V_5MH_A_302


 10 10  0  0  0  0  0  0  0  0999 V2000
   17.5845    3.9207   10.8796 S   0  0  0  0  0  0  0  0  0  0  0  0
   17.7094    2.2036   10.9512 C   0  0  0  0  0  0  0  0  0  0  0  0
   18.9832    1.5890   11.0107 C   0  0  0  0  0  0  0  0  0  0  0  0
   19.0801    0.2486   11.0663 C   0  0  0  0  0  0  0  0  0  0  0  0
   17.9470   -0.5218   11.0661 C   0  0  0  0  0  0  0  0  0  0  0  0
   18.0569   -2.0156   11.1286 C   0  0  0  0  0  0  0  0  0  0  0  0
   16.6997    0.0798   11.0084 C   0  0  0  0  0  0  0  0  0  0  0  0
   16.6003    1.4515   10.9514 N   0  0  0  0  0  0  0  0  0  0  0  0
   15.3750    2.0441   10.8946 O   0  0  0  0  0  0  0  0  0  0  0  0
   14.5997    1.5180   10.8947 H   0  0  0  0  0  0  0  0  0  0  0  0
  6  5  1  0  0  0
  7  5  2  0  0  0
  7  8  1  0  0  0
  5  4  1  0  0  0
  9  8  1  0  0  0
  8  2  1  0  0  0
  4  3  2  0  0  0
  2  3  1  0  0  0
  2  1  2  0  0  0
  9 10  1  0  0  0
M  END
> <minimizedAffinity>
-5.02020

$$$$
4Q7V_5MH_A_302


 10 10  0  0  0  0  0  0  0  0999 V2000
   16.4031    2.5850   12.8465 S   0  0  0  0  0  0  0  0  0  0  0  0
   15.8203    2.4526   14.4626 C   0  0  0  0  0  0  0  0  0  0  0  0
   16.3045    1.4249   15.3071 C   0  0  0  0  0  0  0  0  0  0  0  0
   15.8490    1.3218   16.5685 C   0  0  0  0  0  0  0  0  0  0  0  0
   14.9176    2.2112   17.0364 C   0  0  0  0  0  0  0  0  0  0  0  0
   14.4115    2.0951   18.4427 C   0  0  0  0  0  0  0  0  0  0  0  0
   14.4439    3.2178   16.2099 C   0  0  0  0  0  0  0  0  0  0  0  0
   14.9097    3.3235   14.9190 N   0  0  0  0  0  0  0  0  0  0  0  0
   14.4450    4.3124   14.1056 O   0  0  0  0  0  0  0  0  0  0  0  0
   13.8083    4.9212   14.4249 H   0  0  0  0  0  0  0  0  0  0  0  0
  6  5  1  0  0  0
  7  5  2  0  0  0
  7  8  1  0  0  0
  5  4  1  0  0  0
  9  8  1  0  0  0
  8  2  1  0  0  0
  4  3  2  0  0  0
  2  3  1  0  0  0
  2  1  2  0  0  0
  9 10  1  0  0  0
M  END
> <minimizedAffinity>
-4.93487

$$$$
4Q7V_5MH_A_302


 10 10  0  0  0  0  0  0  0  0999 V2000
   14.3944    1.8492   18.2258 S   0  0  0  0  0  0  0  0  0  0  0  0
   15.0034    2.2000   16.6525 C   0  0  0  0  0  0  0  0  0  0  0  0
   14.6903    3.4329   16.0316 C   0  0  0  0  0  0  0  0  0  0  0  0
   15.1658    3.7061   14.8034 C   0  0  0  0  0  0  0  0  0  0  0  0
   15.9533    2.7922   14.1536 C   0  0  0  0  0  0  0  0  0  0  0  0
   16.4827    3.0986   12.7850 C   0  0  0  0  0  0  0  0  0  0  0  0
   16.2604    1.5852   14.7617 C   0  0  0  0  0  0  0  0  0  0  0  0
   15.7739    1.3054   16.0185 N   0  0  0  0  0  0  0  0  0  0  0  0
   16.0750    0.1195   16.6173 O   0  0  0  0  0  0  0  0  0  0  0  0
   16.6137   -0.5059   16.1738 H   0  0  0  0  0  0  0  0  0  0  0  0
  6  5  1  0  0  0
  7  5  2  0  0  0
  7  8  1  0  0  0
  5  4  1  0  0  0
  9  8  1  0  0  0
  8  2  1  0  0  0
  4  3  2  0  0  0
  2  3  1  0  0  0
  2  1  2  0  0  0
  9 10  1  0  0  0
M  END
> <minimizedAffinity>
-4.73371

$$$$
4Q7V_5MH_A_302


 10 10  0  0  0  0  0  0  0  0999 V2000
   16.9551   -0.9020   11.5075 S   0  0  0  0  0  0  0  0  0  0  0  0
   17.6071    0.6676   11.2242 C   0  0  0  0  0  0  0  0  0  0  0  0
   19.0088    0.8474   11.1437 C   0  0  0  0  0  0  0  0  0  0  0  0
   19.5172    2.0729   10.9228 C   0  0  0  0  0  0  0  0  0  0  0  0
   18.6791    3.1469   10.7749 C   0  0  0  0  0  0  0  0  0  0  0  0
   19.2474    4.5119   10.5282 C   0  0  0  0  0  0  0  0  0  0  0  0
   17.3066    2.9710   10.8531 C   0  0  0  0  0  0  0  0  0  0  0  0
   16.7861    1.7169   11.0793 N   0  0  0  0  0  0  0  0  0  0  0  0
   15.4373    1.5426   11.1565 O   0  0  0  0  0  0  0  0  0  0  0  0
   14.8636    2.2765   11.0551 H   0  0  0  0  0  0  0  0  0  0  0  0
  6  5  1  0  0  0
  7  5  2  0  0  0
  7  8  1  0  0  0
  5  4  1  0  0  0
  9  8  1  0  0  0
  8  2  1  0  0  0
  4  3  2  0  0  0
  2  3  1  0  0  0
  2  1  2  0  0  0
  9 10  1  0  0  0
M  END
> <minimizedAffinity>
-4.51143

$$$$
4Q7V_5MH_A_302


 10 10  0  0  0  0  0  0  0  0999 V2000
   17.5141    3.4066   11.7493 S   0  0  0  0  0  0  0  0  0  0  0  0
   17.6635    1.6963   11.6026 C   0  0  0  0  0  0  0  0  0  0  0  0
   16.7504    0.8465   12.2717 C   0  0  0  0  0  0  0  0  0  0  0  0
   16.8677   -0.4885   12.1571 C   0  0  0  0  0  0  0  0  0  0  0  0
   17.8697   -1.0261   11.3926 C   0  0  0  0  0  0  0  0  0  0  0  0
   17.9986   -2.5142   11.2655 C   0  0  0  0  0  0  0  0  0  0  0  0
   18.7636   -0.1942   10.7369 C   0  0  0  0  0  0  0  0  0  0  0  0
   18.6439    1.1720   10.8542 N   0  0  0  0  0  0  0  0  0  0  0  0
   19.5217    1.9908   10.2103 O   0  0  0  0  0  0  0  0  0  0  0  0
   20.2071    1.6240    9.6871 H   0  0  0  0  0  0  0  0  0  0  0  0
  6  5  1  0  0  0
  7  5  2  0  0  0
  7  8  1  0  0  0
  5  4  1  0  0  0
  9  8  1  0  0  0
  8  2  1  0  0  0
  4  3  2  0  0  0
  2  3  1  0  0  0
  2  1  2  0  0  0
  9 10  1  0  0  0
M  END
> <minimizedAffinity>
-4.46521

$$$$
4Q7V_5MH_A_302


 10 10  0  0  0  0  0  0  0  0999 V2000
   19.0900    4.1765   10.6671 S   0  0  0  0  0  0  0  0  0  0  0  0
   18.4781    2.5920   10.9573 C   0  0  0  0  0  0  0  0  0  0  0  0
   19.3352    1.4712   10.8445 C   0  0  0  0  0  0  0  0  0  0  0  0
   18.8570    0.2346   11.0708 C   0  0  0  0  0  0  0  0  0  0  0  0
   17.5413    0.0594   11.4112 C   0  0  0  0  0  0  0  0  0  0  0  0
   17.0101   -1.3195   11.6636 C   0  0  0  0  0  0  0  0  0  0  0  0
   16.7020    1.1568   11.5222 C   0  0  0  0  0  0  0  0  0  0  0  0
   17.1912    2.4224   11.2905 N   0  0  0  0  0  0  0  0  0  0  0  0
   16.3674    3.5018   11.3992 O   0  0  0  0  0  0  0  0  0  0  0  0
   15.4677    3.3830   11.6322 H   0  0  0  0  0  0  0  0  0  0  0  0
  6  5  1  0  0  0
  7  5  2  0  0  0
  7  8  1  0  0  0
  5  4  1  0  0  0
  9  8  1  0  0  0
  8  2  1  0  0  0
  4  3  2  0  0  0
  2  3  1  0  0  0
  2  1  2  0  0  0
  9 10  1  0  0  0
M  END
> <minimizedAffinity>
-4.36880

$$$$
4Q7V_5MH_A_302


 10 10  0  0  0  0  0  0  0  0999 V2000
   18.4436    4.2443   12.1556 S   0  0  0  0  0  0  0  0  0  0  0  0
   17.2481    4.0174   13.3757 C   0  0  0  0  0  0  0  0  0  0  0  0
   16.7394    5.1327   14.0836 C   0  0  0  0  0  0  0  0  0  0  0  0
   15.8065    4.9549   15.0361 C   0  0  0  0  0  0  0  0  0  0  0  0
   15.3479    3.6955   15.3208 C   0  0  0  0  0  0  0  0  0  0  0  0
   14.3078    3.4994   16.3823 C   0  0  0  0  0  0  0  0  0  0  0  0
   15.8455    2.6035   14.6274 C   0  0  0  0  0  0  0  0  0  0  0  0
   16.8003    2.7850   13.6528 N   0  0  0  0  0  0  0  0  0  0  0  0
   17.2902    1.7126   12.9705 O   0  0  0  0  0  0  0  0  0  0  0  0
   16.9769    0.8511   13.1644 H   0  0  0  0  0  0  0  0  0  0  0  0
  6  5  1  0  0  0
  7  5  2  0  0  0
  7  8  1  0  0  0
  5  4  1  0  0  0
  9  8  1  0  0  0
  8  2  1  0  0  0
  4  3  2  0  0  0
  2  3  1  0  0  0
  2  1  2  0  0  0
  9 10  1  0  0  0
M  END
> <minimizedAffinity>
-4.19828

$$$$
