4EK9_EP4_A_501


 25 27  0  0  0  0  0  0  0  0999 V2000
   43.3736   52.6763    9.2615 C   0  0  0  0  0  0  0  0  0  0  0  0
   43.2508   51.5623   10.1780 O   0  0  0  0  0  0  0  0  0  0  0  0
   44.5329   51.4503   10.8354 C   0  0  0  0  0  0  0  0  0  0  0  0
   45.4841   51.5405    9.6988 C   0  0  0  0  0  0  0  0  0  0  0  0
   46.7400   51.9694   10.2848 O   0  0  0  0  0  0  0  0  0  0  0  0
   44.8362   52.6050    8.7875 C   0  0  0  0  0  0  0  0  0  0  0  0
   45.4378   53.8608    9.0993 O   0  0  0  0  0  0  0  0  0  0  0  0
   46.5969   52.7795   10.7988 H   0  0  0  0  0  0  0  0  0  0  0  0
   45.3351   54.0422   10.0466 H   0  0  0  0  0  0  0  0  0  0  0  0
   44.6989   50.1390   11.5276 N   0  0  0  0  0  0  0  0  0  0  0  0
   44.4234   49.9492   12.8336 C   0  0  0  0  0  0  0  0  0  0  0  0
   43.9662   50.7959   13.7837 N   0  0  0  0  0  0  0  0  0  0  0  0
   43.7588   50.3183   15.1007 C   0  0  0  0  0  0  0  0  0  0  0  0
   44.0434   48.9734   15.3963 N   0  0  0  0  0  0  0  0  0  0  0  0
   44.5021   48.1844   14.3923 C   0  0  0  0  0  0  0  0  0  0  0  0
   44.7580   46.8837   14.6218 N   0  0  0  0  0  0  0  0  0  0  0  0
   44.6860   48.6493   13.1243 C   0  0  0  0  0  0  0  0  0  0  0  0
   45.1144   48.0557   11.9742 N   0  0  0  0  0  0  0  0  0  0  0  0
   45.1187   48.9738   10.9957 C   0  0  0  0  0  0  0  0  0  0  0  0
   44.6372   46.5102   15.5246 H   0  0  0  0  0  0  0  0  0  0  0  0
   45.0661   46.3055   13.8870 H   0  0  0  0  0  0  0  0  0  0  0  0
   42.3598   52.3858    8.1322 C   0  0  0  0  0  0  0  0  0  0  0  0
   42.7557   51.4804    5.9382 C   0  0  0  0  0  0  0  0  0  0  0  0
   42.8916   52.6798    6.7833 N   0  0  0  0  0  0  0  0  0  0  0  0
   42.1706   53.7653    6.1142 C   0  0  0  0  0  0  0  0  0  0  0  0
 25 24  1  0  0  0
 23 24  1  0  0  0
 24 22  1  0  0  0
 22  1  1  0  0  0
  1  2  1  0  0  0
  1  6  1  0  0  0
  2  3  1  0  0  0
  6  7  1  0  0  0
  6  4  1  0  0  0
  3 10  1  0  0  0
  3  4  1  0  0  0
 12 13  2  0  0  0
 12 11  1  0  0  0
 13 14  1  0  0  0
 10 11  1  0  0  0
 10 19  1  0  0  0
 11 17  2  0  0  0
 14 15  2  0  0  0
  4  5  1  0  0  0
 19 18  2  0  0  0
 17 15  1  0  0  0
 17 18  1  0  0  0
 15 16  1  0  0  0
 16 20  1  0  0  0
 16 21  1  0  0  0
  5  8  1  0  0  0
  7  9  1  0  0  0
M  END
> <minimizedAffinity>
-8.13184

$$$$
4EK9_EP4_A_501


 25 27  0  0  0  0  0  0  0  0999 V2000
   44.3109   50.4438   11.1547 C   0  0  0  0  0  0  0  0  0  0  0  0
   44.7161   49.0717   11.3758 O   0  0  0  0  0  0  0  0  0  0  0  0
   44.2853   48.7452   12.7160 C   0  0  0  0  0  0  0  0  0  0  0  0
   44.7432   49.9234   13.4952 C   0  0  0  0  0  0  0  0  0  0  0  0
   43.9142   49.9397   14.6857 O   0  0  0  0  0  0  0  0  0  0  0  0
   44.4657   51.1020   12.5374 C   0  0  0  0  0  0  0  0  0  0  0  0
   43.1938   51.6475   12.8849 O   0  0  0  0  0  0  0  0  0  0  0  0
   42.9790   49.9236   14.4287 H   0  0  0  0  0  0  0  0  0  0  0  0
   42.5219   50.9488   12.8499 H   0  0  0  0  0  0  0  0  0  0  0  0
   44.9446   47.5115   13.2353 N   0  0  0  0  0  0  0  0  0  0  0  0
   44.3570   46.2981   13.2309 C   0  0  0  0  0  0  0  0  0  0  0  0
   43.1401   45.8950   12.8005 N   0  0  0  0  0  0  0  0  0  0  0  0
   42.7772   44.5311   12.9162 C   0  0  0  0  0  0  0  0  0  0  0  0
   43.6876   43.6242   13.4871 N   0  0  0  0  0  0  0  0  0  0  0  0
   44.8886   44.1025   13.8991 C   0  0  0  0  0  0  0  0  0  0  0  0
   45.8025   43.2656   14.4228 N   0  0  0  0  0  0  0  0  0  0  0  0
   45.2346   45.4146   13.7716 C   0  0  0  0  0  0  0  0  0  0  0  0
   46.3625   46.1095   14.0933 N   0  0  0  0  0  0  0  0  0  0  0  0
   46.1808   47.3965   13.7603 C   0  0  0  0  0  0  0  0  0  0  0  0
   45.5903   42.3103   14.5311 H   0  0  0  0  0  0  0  0  0  0  0  0
   46.6835   43.6083   14.6977 H   0  0  0  0  0  0  0  0  0  0  0  0
   45.3057   50.9970   10.1097 C   0  0  0  0  0  0  0  0  0  0  0  0
   46.0812   53.1458    9.3538 C   0  0  0  0  0  0  0  0  0  0  0  0
   44.8902   52.2991    9.5433 N   0  0  0  0  0  0  0  0  0  0  0  0
   44.2399   52.1672    8.2373 C   0  0  0  0  0  0  0  0  0  0  0  0
 25 24  1  0  0  0
 23 24  1  0  0  0
 24 22  1  0  0  0
 22  1  1  0  0  0
  1  2  1  0  0  0
  1  6  1  0  0  0
  2  3  1  0  0  0
  6  7  1  0  0  0
  6  4  1  0  0  0
  3 10  1  0  0  0
  3  4  1  0  0  0
 12 13  2  0  0  0
 12 11  1  0  0  0
 13 14  1  0  0  0
 10 11  1  0  0  0
 10 19  1  0  0  0
 11 17  2  0  0  0
 14 15  2  0  0  0
  4  5  1  0  0  0
 19 18  2  0  0  0
 17 15  1  0  0  0
 17 18  1  0  0  0
 15 16  1  0  0  0
 16 20  1  0  0  0
 16 21  1  0  0  0
  5  8  1  0  0  0
  7  9  1  0  0  0
M  END
> <minimizedAffinity>
-8.12859

$$$$
4EK9_EP4_A_501


 25 27  0  0  0  0  0  0  0  0999 V2000
   45.6813   52.3224    9.2782 C   0  0  0  0  0  0  0  0  0  0  0  0
   45.8167   51.6625   10.5596 O   0  0  0  0  0  0  0  0  0  0  0  0
   44.5650   50.9753   10.7825 C   0  0  0  0  0  0  0  0  0  0  0  0
   43.5631   52.0171   10.4424 C   0  0  0  0  0  0  0  0  0  0  0  0
   42.3495   51.2897   10.1218 O   0  0  0  0  0  0  0  0  0  0  0  0
   44.1962   52.7229    9.2240 C   0  0  0  0  0  0  0  0  0  0  0  0
   43.6459   52.1281    8.0495 O   0  0  0  0  0  0  0  0  0  0  0  0
   42.5399   50.6284    9.4382 H   0  0  0  0  0  0  0  0  0  0  0  0
   43.7992   51.1706    8.0697 H   0  0  0  0  0  0  0  0  0  0  0  0
   44.3956   50.5598   12.2055 N   0  0  0  0  0  0  0  0  0  0  0  0
   44.7981   49.3648   12.6825 C   0  0  0  0  0  0  0  0  0  0  0  0
   45.4052   48.3186   12.0779 N   0  0  0  0  0  0  0  0  0  0  0  0
   45.7239   47.1655   12.8357 C   0  0  0  0  0  0  0  0  0  0  0  0
   45.3922   47.1280   14.2016 N   0  0  0  0  0  0  0  0  0  0  0  0
   44.7812   48.2142   14.7382 C   0  0  0  0  0  0  0  0  0  0  0  0
   44.4735   48.2348   16.0477 N   0  0  0  0  0  0  0  0  0  0  0  0
   44.4903   49.3252   14.0042 C   0  0  0  0  0  0  0  0  0  0  0  0
   43.9056   50.5156   14.3197 N   0  0  0  0  0  0  0  0  0  0  0  0
   43.8514   51.2715   13.2125 C   0  0  0  0  0  0  0  0  0  0  0  0
   44.6680   47.4515   16.6115 H   0  0  0  0  0  0  0  0  0  0  0  0
   44.0537   49.0332   16.4422 H   0  0  0  0  0  0  0  0  0  0  0  0
   46.6310   53.5394    9.3466 C   0  0  0  0  0  0  0  0  0  0  0  0
   48.7120   54.5175    8.6375 C   0  0  0  0  0  0  0  0  0  0  0  0
   47.9862   53.2495    8.8287 N   0  0  0  0  0  0  0  0  0  0  0  0
   48.7804   52.4298    9.7471 C   0  0  0  0  0  0  0  0  0  0  0  0
 25 24  1  0  0  0
 23 24  1  0  0  0
 24 22  1  0  0  0
 22  1  1  0  0  0
  1  2  1  0  0  0
  1  6  1  0  0  0
  2  3  1  0  0  0
  6  7  1  0  0  0
  6  4  1  0  0  0
  3 10  1  0  0  0
  3  4  1  0  0  0
 12 13  2  0  0  0
 12 11  1  0  0  0
 13 14  1  0  0  0
 10 11  1  0  0  0
 10 19  1  0  0  0
 11 17  2  0  0  0
 14 15  2  0  0  0
  4  5  1  0  0  0
 19 18  2  0  0  0
 17 15  1  0  0  0
 17 18  1  0  0  0
 15 16  1  0  0  0
 16 20  1  0  0  0
 16 21  1  0  0  0
  5  8  1  0  0  0
  7  9  1  0  0  0
M  END
> <minimizedAffinity>
-7.80367

$$$$
4EK9_EP4_A_501


 25 27  0  0  0  0  0  0  0  0999 V2000
   44.1457   50.4080   10.8768 C   0  0  0  0  0  0  0  0  0  0  0  0
   44.8041   49.2054   11.3418 O   0  0  0  0  0  0  0  0  0  0  0  0
   44.4784   49.0961   12.7456 C   0  0  0  0  0  0  0  0  0  0  0  0
   44.7313   50.4730   13.2408 C   0  0  0  0  0  0  0  0  0  0  0  0
   43.9468   50.5921   14.4554 O   0  0  0  0  0  0  0  0  0  0  0  0
   44.2139   51.3576   12.0862 C   0  0  0  0  0  0  0  0  0  0  0  0
   42.8730   51.7316   12.3995 O   0  0  0  0  0  0  0  0  0  0  0  0
   43.0241   50.3586   14.2685 H   0  0  0  0  0  0  0  0  0  0  0  0
   42.3415   50.9342   12.5494 H   0  0  0  0  0  0  0  0  0  0  0  0
   45.3690   48.1338   13.4576 N   0  0  0  0  0  0  0  0  0  0  0  0
   45.2618   47.8572   14.7728 C   0  0  0  0  0  0  0  0  0  0  0  0
   44.4107   48.3177   15.7174 N   0  0  0  0  0  0  0  0  0  0  0  0
   44.5238   47.8440   17.0471 C   0  0  0  0  0  0  0  0  0  0  0  0
   45.5278   46.9107   17.3607 N   0  0  0  0  0  0  0  0  0  0  0  0
   46.3467   46.4970   16.3612 C   0  0  0  0  0  0  0  0  0  0  0  0
   47.3013   45.5818   16.6085 N   0  0  0  0  0  0  0  0  0  0  0  0
   46.2220   46.9482   15.0811 C   0  0  0  0  0  0  0  0  0  0  0  0
   46.9033   46.6735   13.9327 N   0  0  0  0  0  0  0  0  0  0  0  0
   46.3747   47.4023   12.9378 C   0  0  0  0  0  0  0  0  0  0  0  0
   47.4227   45.2314   17.5205 H   0  0  0  0  0  0  0  0  0  0  0  0
   47.8784   45.2626   15.8776 H   0  0  0  0  0  0  0  0  0  0  0  0
   44.9915   50.8962    9.6794 C   0  0  0  0  0  0  0  0  0  0  0  0
   45.9624   53.0368    9.1643 C   0  0  0  0  0  0  0  0  0  0  0  0
   44.6968   52.2927    9.2900 N   0  0  0  0  0  0  0  0  0  0  0  0
   44.0081   52.3881    8.0006 C   0  0  0  0  0  0  0  0  0  0  0  0
 25 24  1  0  0  0
 23 24  1  0  0  0
 24 22  1  0  0  0
 22  1  1  0  0  0
  1  2  1  0  0  0
  1  6  1  0  0  0
  2  3  1  0  0  0
  6  7  1  0  0  0
  6  4  1  0  0  0
  3 10  1  0  0  0
  3  4  1  0  0  0
 12 13  2  0  0  0
 12 11  1  0  0  0
 13 14  1  0  0  0
 10 11  1  0  0  0
 10 19  1  0  0  0
 11 17  2  0  0  0
 14 15  2  0  0  0
  4  5  1  0  0  0
 19 18  2  0  0  0
 17 15  1  0  0  0
 17 18  1  0  0  0
 15 16  1  0  0  0
 16 20  1  0  0  0
 16 21  1  0  0  0
  5  8  1  0  0  0
  7  9  1  0  0  0
M  END
> <minimizedAffinity>
-7.35808

$$$$
4EK9_EP4_A_501


 25 27  0  0  0  0  0  0  0  0999 V2000
   43.7406   52.8602    8.9960 C   0  0  0  0  0  0  0  0  0  0  0  0
   43.2638   52.4941   10.3130 O   0  0  0  0  0  0  0  0  0  0  0  0
   44.4468   52.3055   11.1214 C   0  0  0  0  0  0  0  0  0  0  0  0
   45.3041   51.4693   10.2435 C   0  0  0  0  0  0  0  0  0  0  0  0
   46.6583   51.6793   10.7199 O   0  0  0  0  0  0  0  0  0  0  0  0
   45.0475   52.0620    8.8413 C   0  0  0  0  0  0  0  0  0  0  0  0
   46.0846   53.0060    8.5778 O   0  0  0  0  0  0  0  0  0  0  0  0
   46.8504   52.6298   10.7394 H   0  0  0  0  0  0  0  0  0  0  0  0
   46.1051   53.6696    9.2849 H   0  0  0  0  0  0  0  0  0  0  0  0
   44.1538   51.5705   12.3864 N   0  0  0  0  0  0  0  0  0  0  0  0
   44.5645   50.3084   12.6235 C   0  0  0  0  0  0  0  0  0  0  0  0
   45.2816   49.4445   11.8698 N   0  0  0  0  0  0  0  0  0  0  0  0
   45.5783   48.1567   12.3787 C   0  0  0  0  0  0  0  0  0  0  0  0
   45.1110   47.7985   13.6557 N   0  0  0  0  0  0  0  0  0  0  0  0
   44.3951   48.7168   14.3522 C   0  0  0  0  0  0  0  0  0  0  0  0
   43.9545   48.4288   15.5902 N   0  0  0  0  0  0  0  0  0  0  0  0
   44.1257   49.9589   13.8598 C   0  0  0  0  0  0  0  0  0  0  0  0
   43.4532   51.0301   14.3686 N   0  0  0  0  0  0  0  0  0  0  0  0
   43.4748   52.0182   13.4612 C   0  0  0  0  0  0  0  0  0  0  0  0
   44.1292   47.5422   15.9810 H   0  0  0  0  0  0  0  0  0  0  0  0
   43.4574   49.1045   16.1055 H   0  0  0  0  0  0  0  0  0  0  0  0
   42.6340   52.3983    8.0215 C   0  0  0  0  0  0  0  0  0  0  0  0
   42.7802   51.4744    5.8044 C   0  0  0  0  0  0  0  0  0  0  0  0
   42.9422   52.7000    6.6063 N   0  0  0  0  0  0  0  0  0  0  0  0
   42.0503   53.7123    6.0355 C   0  0  0  0  0  0  0  0  0  0  0  0
 25 24  1  0  0  0
 23 24  1  0  0  0
 24 22  1  0  0  0
 22  1  1  0  0  0
  1  2  1  0  0  0
  1  6  1  0  0  0
  2  3  1  0  0  0
  6  7  1  0  0  0
  6  4  1  0  0  0
  3 10  1  0  0  0
  3  4  1  0  0  0
 12 13  2  0  0  0
 12 11  1  0  0  0
 13 14  1  0  0  0
 10 11  1  0  0  0
 10 19  1  0  0  0
 11 17  2  0  0  0
 14 15  2  0  0  0
  4  5  1  0  0  0
 19 18  2  0  0  0
 17 15  1  0  0  0
 17 18  1  0  0  0
 15 16  1  0  0  0
 16 20  1  0  0  0
 16 21  1  0  0  0
  5  8  1  0  0  0
  7  9  1  0  0  0
M  END
> <minimizedAffinity>
-7.34219

$$$$
4EK9_EP4_A_501


 25 27  0  0  0  0  0  0  0  0999 V2000
   45.9362   52.8880    9.0709 C   0  0  0  0  0  0  0  0  0  0  0  0
   46.1581   51.9277   10.1314 O   0  0  0  0  0  0  0  0  0  0  0  0
   44.9453   51.1462   10.2148 C   0  0  0  0  0  0  0  0  0  0  0  0
   43.8898   52.1905   10.1940 C   0  0  0  0  0  0  0  0  0  0  0  0
   42.6902   51.5119    9.7410 O   0  0  0  0  0  0  0  0  0  0  0  0
   44.4363   53.2161    9.1777 C   0  0  0  0  0  0  0  0  0  0  0  0
   43.8523   52.9177    7.9104 O   0  0  0  0  0  0  0  0  0  0  0  0
   42.8719   51.0590    8.9027 H   0  0  0  0  0  0  0  0  0  0  0  0
   44.0422   51.9958    7.6759 H   0  0  0  0  0  0  0  0  0  0  0  0
   44.8608   50.3706   11.4866 N   0  0  0  0  0  0  0  0  0  0  0  0
   44.2264   50.8191   12.5885 C   0  0  0  0  0  0  0  0  0  0  0  0
   43.5574   51.9692   12.8298 N   0  0  0  0  0  0  0  0  0  0  0  0
   42.9740   52.1815   14.1026 C   0  0  0  0  0  0  0  0  0  0  0  0
   43.1119   51.1945   15.0947 N   0  0  0  0  0  0  0  0  0  0  0  0
   43.7998   50.0679   14.7803 C   0  0  0  0  0  0  0  0  0  0  0  0
   43.9303   49.0837   15.6881 N   0  0  0  0  0  0  0  0  0  0  0  0
   44.3465   49.8663   13.5481 C   0  0  0  0  0  0  0  0  0  0  0  0
   45.0534   48.8336   13.0073 N   0  0  0  0  0  0  0  0  0  0  0  0
   45.3654   49.1468   11.7405 C   0  0  0  0  0  0  0  0  0  0  0  0
   43.5490   49.1916   16.5893 H   0  0  0  0  0  0  0  0  0  0  0  0
   44.4071   48.2556   15.4512 H   0  0  0  0  0  0  0  0  0  0  0  0
   46.8419   54.0910    9.4173 C   0  0  0  0  0  0  0  0  0  0  0  0
   48.1804   55.8249    8.4211 C   0  0  0  0  0  0  0  0  0  0  0  0
   47.8355   54.3934    8.3637 N   0  0  0  0  0  0  0  0  0  0  0  0
   49.0815   53.6405    8.5269 C   0  0  0  0  0  0  0  0  0  0  0  0
 25 24  1  0  0  0
 23 24  1  0  0  0
 24 22  1  0  0  0
 22  1  1  0  0  0
  1  2  1  0  0  0
  1  6  1  0  0  0
  2  3  1  0  0  0
  6  7  1  0  0  0
  6  4  1  0  0  0
  3 10  1  0  0  0
  3  4  1  0  0  0
 12 13  2  0  0  0
 12 11  1  0  0  0
 13 14  1  0  0  0
 10 11  1  0  0  0
 10 19  1  0  0  0
 11 17  2  0  0  0
 14 15  2  0  0  0
  4  5  1  0  0  0
 19 18  2  0  0  0
 17 15  1  0  0  0
 17 18  1  0  0  0
 15 16  1  0  0  0
 16 20  1  0  0  0
 16 21  1  0  0  0
  5  8  1  0  0  0
  7  9  1  0  0  0
M  END
> <minimizedAffinity>
-7.09747

$$$$
4EK9_EP4_A_501


 25 27  0  0  0  0  0  0  0  0999 V2000
   44.2884   50.1502   11.3361 C   0  0  0  0  0  0  0  0  0  0  0  0
   44.7521   48.9961   12.0769 O   0  0  0  0  0  0  0  0  0  0  0  0
   44.1734   49.1163   13.3956 C   0  0  0  0  0  0  0  0  0  0  0  0
   44.4462   50.5356   13.7365 C   0  0  0  0  0  0  0  0  0  0  0  0
   43.4702   50.8785   14.7536 O   0  0  0  0  0  0  0  0  0  0  0  0
   44.2176   51.2648   12.3951 C   0  0  0  0  0  0  0  0  0  0  0  0
   42.8777   51.7555   12.3961 O   0  0  0  0  0  0  0  0  0  0  0  0
   42.5795   50.6714   14.4299 H   0  0  0  0  0  0  0  0  0  0  0  0
   42.2642   51.0203   12.5508 H   0  0  0  0  0  0  0  0  0  0  0  0
   44.8404   48.2234   14.3876 N   0  0  0  0  0  0  0  0  0  0  0  0
   45.8642   47.4031   14.0769 C   0  0  0  0  0  0  0  0  0  0  0  0
   46.5102   47.1809   12.9098 N   0  0  0  0  0  0  0  0  0  0  0  0
   47.5744   46.2477   12.8696 C   0  0  0  0  0  0  0  0  0  0  0  0
   47.9314   45.5619   14.0442 N   0  0  0  0  0  0  0  0  0  0  0  0
   47.2358   45.8349   15.1768 C   0  0  0  0  0  0  0  0  0  0  0  0
   47.5628   45.2255   16.3307 N   0  0  0  0  0  0  0  0  0  0  0  0
   46.2214   46.7447   15.2092 C   0  0  0  0  0  0  0  0  0  0  0  0
   45.4058   47.1858   16.2086 N   0  0  0  0  0  0  0  0  0  0  0  0
   44.5606   48.0953   15.6999 C   0  0  0  0  0  0  0  0  0  0  0  0
   48.2900   44.5622   16.3482 H   0  0  0  0  0  0  0  0  0  0  0  0
   47.0749   45.4430   17.1577 H   0  0  0  0  0  0  0  0  0  0  0  0
   45.3715   50.4060   10.2642 C   0  0  0  0  0  0  0  0  0  0  0  0
   46.7987   52.2420    9.6460 C   0  0  0  0  0  0  0  0  0  0  0  0
   45.3982   51.8060    9.7867 N   0  0  0  0  0  0  0  0  0  0  0  0
   44.7595   51.9709    8.4787 C   0  0  0  0  0  0  0  0  0  0  0  0
 25 24  1  0  0  0
 23 24  1  0  0  0
 24 22  1  0  0  0
 22  1  1  0  0  0
  1  2  1  0  0  0
  1  6  1  0  0  0
  2  3  1  0  0  0
  6  7  1  0  0  0
  6  4  1  0  0  0
  3 10  1  0  0  0
  3  4  1  0  0  0
 12 13  2  0  0  0
 12 11  1  0  0  0
 13 14  1  0  0  0
 10 11  1  0  0  0
 10 19  1  0  0  0
 11 17  2  0  0  0
 14 15  2  0  0  0
  4  5  1  0  0  0
 19 18  2  0  0  0
 17 15  1  0  0  0
 17 18  1  0  0  0
 15 16  1  0  0  0
 16 20  1  0  0  0
 16 21  1  0  0  0
  5  8  1  0  0  0
  7  9  1  0  0  0
M  END
> <minimizedAffinity>
-6.88147

$$$$
4EK9_EP4_A_501


 25 27  0  0  0  0  0  0  0  0999 V2000
   44.4823   49.9335   12.3670 C   0  0  0  0  0  0  0  0  0  0  0  0
   44.6502   48.5049   12.2034 O   0  0  0  0  0  0  0  0  0  0  0  0
   44.0021   47.8992   13.3443 C   0  0  0  0  0  0  0  0  0  0  0  0
   44.5189   48.7118   14.4745 C   0  0  0  0  0  0  0  0  0  0  0  0
   43.5503   48.5422   15.5412 O   0  0  0  0  0  0  0  0  0  0  0  0
   44.5460   50.1407   13.8908 C   0  0  0  0  0  0  0  0  0  0  0  0
   43.3324   50.7849   14.2758 O   0  0  0  0  0  0  0  0  0  0  0  0
   42.6653   48.7655   15.2127 H   0  0  0  0  0  0  0  0  0  0  0  0
   42.5765   50.2551   13.9776 H   0  0  0  0  0  0  0  0  0  0  0  0
   44.3996   46.4727   13.5270 N   0  0  0  0  0  0  0  0  0  0  0  0
   45.6328   46.0899   13.9146 C   0  0  0  0  0  0  0  0  0  0  0  0
   46.7382   46.8073   14.2180 N   0  0  0  0  0  0  0  0  0  0  0  0
   47.9211   46.1328   14.6067 C   0  0  0  0  0  0  0  0  0  0  0  0
   47.9250   44.7276   14.6589 N   0  0  0  0  0  0  0  0  0  0  0  0
   46.7792   44.0757   14.3375 C   0  0  0  0  0  0  0  0  0  0  0  0
   46.7277   42.7330   14.4034 N   0  0  0  0  0  0  0  0  0  0  0  0
   45.6412   44.7337   13.9773 C   0  0  0  0  0  0  0  0  0  0  0  0
   44.3942   44.3045   13.6317 N   0  0  0  0  0  0  0  0  0  0  0  0
   43.6345   45.3760   13.3579 C   0  0  0  0  0  0  0  0  0  0  0  0
   47.5289   42.2216   14.6599 H   0  0  0  0  0  0  0  0  0  0  0  0
   45.8888   42.2617   14.1952 H   0  0  0  0  0  0  0  0  0  0  0  0
   45.6771   50.5701   11.6223 C   0  0  0  0  0  0  0  0  0  0  0  0
   45.2287   50.6224    9.2587 C   0  0  0  0  0  0  0  0  0  0  0  0
   45.2659   51.4299   10.4907 N   0  0  0  0  0  0  0  0  0  0  0  0
   43.9310   52.0052   10.6722 C   0  0  0  0  0  0  0  0  0  0  0  0
 25 24  1  0  0  0
 23 24  1  0  0  0
 24 22  1  0  0  0
 22  1  1  0  0  0
  1  2  1  0  0  0
  1  6  1  0  0  0
  2  3  1  0  0  0
  6  7  1  0  0  0
  6  4  1  0  0  0
  3 10  1  0  0  0
  3  4  1  0  0  0
 12 13  2  0  0  0
 12 11  1  0  0  0
 13 14  1  0  0  0
 10 11  1  0  0  0
 10 19  1  0  0  0
 11 17  2  0  0  0
 14 15  2  0  0  0
  4  5  1  0  0  0
 19 18  2  0  0  0
 17 15  1  0  0  0
 17 18  1  0  0  0
 15 16  1  0  0  0
 16 20  1  0  0  0
 16 21  1  0  0  0
  5  8  1  0  0  0
  7  9  1  0  0  0
M  END
> <minimizedAffinity>
-6.82098

$$$$
4EK9_EP4_A_501


 25 27  0  0  0  0  0  0  0  0999 V2000
   46.4335   45.2083   14.9578 C   0  0  0  0  0  0  0  0  0  0  0  0
   46.1627   46.6067   15.2173 O   0  0  0  0  0  0  0  0  0  0  0  0
   44.8052   46.8330   14.7762 C   0  0  0  0  0  0  0  0  0  0  0  0
   44.7878   46.1764   13.4445 C   0  0  0  0  0  0  0  0  0  0  0  0
   43.3911   45.8871   13.1795 O   0  0  0  0  0  0  0  0  0  0  0  0
   45.6449   44.9123   13.6696 C   0  0  0  0  0  0  0  0  0  0  0  0
   44.7546   43.8365   13.9630 O   0  0  0  0  0  0  0  0  0  0  0  0
   43.0195   45.3819   13.9195 H   0  0  0  0  0  0  0  0  0  0  0  0
   44.2004   44.0735   14.7230 H   0  0  0  0  0  0  0  0  0  0  0  0
   44.4961   48.2849   14.6254 N   0  0  0  0  0  0  0  0  0  0  0  0
   44.6313   48.9556   13.4638 C   0  0  0  0  0  0  0  0  0  0  0  0
   45.0369   48.5507   12.2389 N   0  0  0  0  0  0  0  0  0  0  0  0
   45.0805   49.4851   11.1757 C   0  0  0  0  0  0  0  0  0  0  0  0
   44.7106   50.8198   11.4186 N   0  0  0  0  0  0  0  0  0  0  0  0
   44.3176   51.1528   12.6739 C   0  0  0  0  0  0  0  0  0  0  0  0
   43.9254   52.4109   12.9447 N   0  0  0  0  0  0  0  0  0  0  0  0
   44.2658   50.2438   13.6881 C   0  0  0  0  0  0  0  0  0  0  0  0
   43.8996   50.3386   14.9978 N   0  0  0  0  0  0  0  0  0  0  0  0
   44.0407   49.1328   15.5691 C   0  0  0  0  0  0  0  0  0  0  0  0
   43.9482   53.0964   12.2385 H   0  0  0  0  0  0  0  0  0  0  0  0
   43.6156   52.6460   13.8491 H   0  0  0  0  0  0  0  0  0  0  0  0
   47.9636   45.1216   14.7605 C   0  0  0  0  0  0  0  0  0  0  0  0
   49.5997   44.3270   16.3359 C   0  0  0  0  0  0  0  0  0  0  0  0
   48.5617   43.9157   15.3744 N   0  0  0  0  0  0  0  0  0  0  0  0
   47.5841   43.1102   16.1103 C   0  0  0  0  0  0  0  0  0  0  0  0
 25 24  1  0  0  0
 23 24  1  0  0  0
 24 22  1  0  0  0
 22  1  1  0  0  0
  1  2  1  0  0  0
  1  6  1  0  0  0
  2  3  1  0  0  0
  6  7  1  0  0  0
  6  4  1  0  0  0
  3 10  1  0  0  0
  3  4  1  0  0  0
 12 13  2  0  0  0
 12 11  1  0  0  0
 13 14  1  0  0  0
 10 11  1  0  0  0
 10 19  1  0  0  0
 11 17  2  0  0  0
 14 15  2  0  0  0
  4  5  1  0  0  0
 19 18  2  0  0  0
 17 15  1  0  0  0
 17 18  1  0  0  0
 15 16  1  0  0  0
 16 20  1  0  0  0
 16 21  1  0  0  0
  5  8  1  0  0  0
  7  9  1  0  0  0
M  END
> <minimizedAffinity>
-6.74402

$$$$
4EK9_EP4_A_501


 25 27  0  0  0  0  0  0  0  0999 V2000
   46.0946   46.4033   14.1851 C   0  0  0  0  0  0  0  0  0  0  0  0
   45.9867   47.8451   14.1107 O   0  0  0  0  0  0  0  0  0  0  0  0
   44.5824   48.1250   13.9154 C   0  0  0  0  0  0  0  0  0  0  0  0
   44.2119   47.1687   12.8416 C   0  0  0  0  0  0  0  0  0  0  0  0
   42.7755   47.0012   12.9582 O   0  0  0  0  0  0  0  0  0  0  0  0
   45.0103   45.9012   13.2150 C   0  0  0  0  0  0  0  0  0  0  0  0
   44.1418   45.0514   13.9631 O   0  0  0  0  0  0  0  0  0  0  0  0
   42.5526   46.7444   13.8666 H   0  0  0  0  0  0  0  0  0  0  0  0
   43.7966   45.5358   14.7293 H   0  0  0  0  0  0  0  0  0  0  0  0
   44.3456   49.5222   13.4484 N   0  0  0  0  0  0  0  0  0  0  0  0
   44.5664   49.9289   12.1822 C   0  0  0  0  0  0  0  0  0  0  0  0
   45.0125   49.2623   11.0934 N   0  0  0  0  0  0  0  0  0  0  0  0
   45.1489   49.9504    9.8632 C   0  0  0  0  0  0  0  0  0  0  0  0
   44.8272   51.3179    9.8017 N   0  0  0  0  0  0  0  0  0  0  0  0
   44.3890   51.9202   10.9358 C   0  0  0  0  0  0  0  0  0  0  0  0
   44.0403   53.2194   10.9162 N   0  0  0  0  0  0  0  0  0  0  0  0
   44.2480   51.2468   12.1124 C   0  0  0  0  0  0  0  0  0  0  0  0
   43.8234   51.6269   13.3509 N   0  0  0  0  0  0  0  0  0  0  0  0
   43.8831   50.5641   14.1677 C   0  0  0  0  0  0  0  0  0  0  0  0
   44.1276   53.7400   10.0852 H   0  0  0  0  0  0  0  0  0  0  0  0
   43.6978   53.6495   11.7329 H   0  0  0  0  0  0  0  0  0  0  0  0
   47.5276   46.0789   13.7067 C   0  0  0  0  0  0  0  0  0  0  0  0
   47.6446   45.1127   15.9073 C   0  0  0  0  0  0  0  0  0  0  0  0
   48.2057   45.0664   14.5456 N   0  0  0  0  0  0  0  0  0  0  0  0
   48.0207   43.7014   14.0469 C   0  0  0  0  0  0  0  0  0  0  0  0
 25 24  1  0  0  0
 23 24  1  0  0  0
 24 22  1  0  0  0
 22  1  1  0  0  0
  1  2  1  0  0  0
  1  6  1  0  0  0
  2  3  1  0  0  0
  6  7  1  0  0  0
  6  4  1  0  0  0
  3 10  1  0  0  0
  3  4  1  0  0  0
 12 13  2  0  0  0
 12 11  1  0  0  0
 13 14  1  0  0  0
 10 11  1  0  0  0
 10 19  1  0  0  0
 11 17  2  0  0  0
 14 15  2  0  0  0
  4  5  1  0  0  0
 19 18  2  0  0  0
 17 15  1  0  0  0
 17 18  1  0  0  0
 15 16  1  0  0  0
 16 20  1  0  0  0
 16 21  1  0  0  0
  5  8  1  0  0  0
  7  9  1  0  0  0
M  END
> <minimizedAffinity>
-6.37846

$$$$
