3FQL_79Z_A_571


 33 36  0  0  0  0  0  0  0  0999 V2000
  -15.4600  -10.8075   10.0106 C   0  0  0  0  0  0  0  0  0  0  0  0
  -16.4193  -10.4723    9.0327 C   0  0  0  0  0  0  0  0  0  0  0  0
  -17.2964  -11.4375    8.5357 C   0  0  0  0  0  0  0  0  0  0  0  0
  -15.4004  -12.1233   10.5124 C   0  0  0  0  0  0  0  0  0  0  0  0
  -16.2864  -13.0616    9.9985 C   0  0  0  0  0  0  0  0  0  0  0  0
  -17.2143  -12.7172    9.0296 C   0  0  0  0  0  0  0  0  0  0  0  0
  -18.0496  -13.7859    8.6384 O   0  0  0  0  0  0  0  0  0  0  0  0
  -17.6865  -14.9128    9.3381 C   0  0  0  0  0  0  0  0  0  0  0  0
  -16.5708  -14.5036   10.2350 C   0  0  0  0  0  0  0  0  0  0  0  0
  -18.2979  -16.2194    9.1036 C   0  0  0  0  0  0  0  0  0  0  0  0
  -17.5470  -17.3670    9.3180 C   0  0  0  0  0  0  0  0  0  0  0  0
  -18.1031  -18.5981    9.0252 C   0  0  0  0  0  0  0  0  0  0  0  0
  -19.3838  -18.6707    8.4950 C   0  0  0  0  0  0  0  0  0  0  0  0
  -20.1098  -17.5177    8.2347 C   0  0  0  0  0  0  0  0  0  0  0  0
  -19.5620  -16.2776    8.5284 C   0  0  0  0  0  0  0  0  0  0  0  0
  -19.8915  -19.8886    8.2086 F   0  0  0  0  0  0  0  0  0  0  0  0
  -15.7810  -15.3300   11.2028 C   0  0  0  0  0  0  0  0  0  0  0  0
  -14.6337  -15.6197   10.9126 O   0  0  0  0  0  0  0  0  0  0  0  0
  -16.3084  -15.7722   12.3446 N   0  0  0  0  0  0  0  0  0  0  0  0
  -15.5977  -16.5910   13.3227 C   0  0  0  0  0  0  0  0  0  0  0  0
  -17.2419  -15.5298   12.5421 H   0  0  0  0  0  0  0  0  0  0  0  0
  -14.6715   -9.3438   11.9826 C   0  0  0  0  0  0  0  0  0  0  0  0
  -14.5444   -9.7451   10.5113 C   0  0  0  0  0  0  0  0  0  0  0  0
  -13.4463  -10.1084   11.5014 C   0  0  0  0  0  0  0  0  0  0  0  0
  -16.5459   -9.1852    8.4369 N   0  0  0  0  0  0  0  0  0  0  0  0
  -15.6972   -8.9280    7.1816 S   0  0  0  0  0  0  0  0  0  0  0  0
  -15.0226   -7.6721    7.2348 O   0  0  0  0  0  0  0  0  0  0  0  0
  -14.6937   -9.9318    6.9244 O   0  0  0  0  0  0  0  0  0  0  0  0
  -16.7400   -8.9687    5.8746 C   0  0  0  0  0  0  0  0  0  0  0  0
  -17.4780   -8.1663    8.8463 C   0  0  0  0  0  0  0  0  0  0  0  0
  -17.8161   -8.2980   10.3169 C   0  0  0  0  0  0  0  0  0  0  0  0
  -19.2334   -8.3358   10.4339 O   0  0  0  0  0  0  0  0  0  0  0  0
  -19.5796   -9.0884    9.9293 H   0  0  0  0  0  0  0  0  0  0  0  0
 20 19  1  0  0  0
 19 17  1  0  0  0
 18 17  2  0  0  0
 17  9  1  0  0  0
 22 24  1  0  0  0
 22 23  1  0  0  0
 24 23  1  0  0  0
  9  5  1  0  0  0
  9  8  2  0  0  0
  4  5  2  0  0  0
  4  1  1  0  0  0
 11 12  2  0  0  0
 11 10  1  0  0  0
 12 13  1  0  0  0
 23  1  1  0  0  0
  5  6  1  0  0  0
  8 10  1  0  0  0
  8  7  1  0  0  0
  1  2  2  0  0  0
 10 15  2  0  0  0
 13 16  1  0  0  0
 13 14  2  0  0  0
 32 31  1  0  0  0
 15 14  1  0  0  0
  6  7  1  0  0  0
  6  3  2  0  0  0
 31 30  1  0  0  0
  2  3  1  0  0  0
  2 25  1  0  0  0
 30 25  1  0  0  0
 25 26  1  0  0  0
 28 26  2  0  0  0
 26 27  2  0  0  0
 26 29  1  0  0  0
 19 21  1  0  0  0
 32 33  1  0  0  0
M  END
> <minimizedAffinity>
-11.66132

$$$$
3FQL_79Z_A_571


 33 36  0  0  0  0  0  0  0  0999 V2000
  -15.3447  -10.7864   10.1959 C   0  0  0  0  0  0  0  0  0  0  0  0
  -16.3022  -10.3680    9.2487 C   0  0  0  0  0  0  0  0  0  0  0  0
  -17.2161  -11.2758    8.7116 C   0  0  0  0  0  0  0  0  0  0  0  0
  -15.3242  -12.1284   10.6263 C   0  0  0  0  0  0  0  0  0  0  0  0
  -16.2463  -13.0081   10.0739 C   0  0  0  0  0  0  0  0  0  0  0  0
  -17.1719  -12.5820    9.1358 C   0  0  0  0  0  0  0  0  0  0  0  0
  -18.0466  -13.6002    8.6983 O   0  0  0  0  0  0  0  0  0  0  0  0
  -17.7143  -14.7743    9.3328 C   0  0  0  0  0  0  0  0  0  0  0  0
  -16.5764  -14.4506   10.2368 C   0  0  0  0  0  0  0  0  0  0  0  0
  -18.3715  -16.0457    9.0365 C   0  0  0  0  0  0  0  0  0  0  0  0
  -17.7072  -17.2324    9.3141 C   0  0  0  0  0  0  0  0  0  0  0  0
  -18.2999  -18.4315    8.9652 C   0  0  0  0  0  0  0  0  0  0  0  0
  -19.5280  -18.4342    8.3183 C   0  0  0  0  0  0  0  0  0  0  0  0
  -20.1629  -17.2433    7.9974 C   0  0  0  0  0  0  0  0  0  0  0  0
  -19.5780  -16.0349    8.3464 C   0  0  0  0  0  0  0  0  0  0  0  0
  -20.0724  -19.6227    7.9804 F   0  0  0  0  0  0  0  0  0  0  0  0
  -15.8050  -15.3532   11.1499 C   0  0  0  0  0  0  0  0  0  0  0  0
  -14.6889  -15.7027   10.8083 O   0  0  0  0  0  0  0  0  0  0  0  0
  -16.3174  -15.7980   12.2974 N   0  0  0  0  0  0  0  0  0  0  0  0
  -15.6241  -16.6885   13.2240 C   0  0  0  0  0  0  0  0  0  0  0  0
  -17.2265  -15.5057   12.5369 H   0  0  0  0  0  0  0  0  0  0  0  0
  -14.3101   -9.6424   12.2632 C   0  0  0  0  0  0  0  0  0  0  0  0
  -14.3891   -9.7830   10.7414 C   0  0  0  0  0  0  0  0  0  0  0  0
  -13.1516  -10.2576   11.4908 C   0  0  0  0  0  0  0  0  0  0  0  0
  -16.3916   -9.0473    8.7237 N   0  0  0  0  0  0  0  0  0  0  0  0
  -17.4624   -8.1371    9.3458 S   0  0  0  0  0  0  0  0  0  0  0  0
  -17.8579   -7.0885    8.4630 O   0  0  0  0  0  0  0  0  0  0  0  0
  -18.6664   -8.8219    9.7484 O   0  0  0  0  0  0  0  0  0  0  0  0
  -16.8030   -7.4975   10.7434 C   0  0  0  0  0  0  0  0  0  0  0  0
  -15.4946   -8.4745    7.7532 C   0  0  0  0  0  0  0  0  0  0  0  0
  -15.1284   -9.4868    6.6875 C   0  0  0  0  0  0  0  0  0  0  0  0
  -13.8044   -9.9350    6.9524 O   0  0  0  0  0  0  0  0  0  0  0  0
  -13.7686  -10.3329    7.8363 H   0  0  0  0  0  0  0  0  0  0  0  0
 20 19  1  0  0  0
 19 17  1  0  0  0
 18 17  2  0  0  0
 17  9  1  0  0  0
 22 24  1  0  0  0
 22 23  1  0  0  0
 24 23  1  0  0  0
  9  5  1  0  0  0
  9  8  2  0  0  0
  4  5  2  0  0  0
  4  1  1  0  0  0
 11 12  2  0  0  0
 11 10  1  0  0  0
 12 13  1  0  0  0
 23  1  1  0  0  0
  5  6  1  0  0  0
  8 10  1  0  0  0
  8  7  1  0  0  0
  1  2  2  0  0  0
 10 15  2  0  0  0
 13 16  1  0  0  0
 13 14  2  0  0  0
 32 31  1  0  0  0
 15 14  1  0  0  0
  6  7  1  0  0  0
  6  3  2  0  0  0
 31 30  1  0  0  0
  2  3  1  0  0  0
  2 25  1  0  0  0
 30 25  1  0  0  0
 25 26  1  0  0  0
 28 26  2  0  0  0
 26 27  2  0  0  0
 26 29  1  0  0  0
 19 21  1  0  0  0
 32 33  1  0  0  0
M  END
> <minimizedAffinity>
-11.23052

$$$$
