2YGF_GDM_A_1215
  RCSB PDB12061707363D
Coordinates from PDB:2YGF:A:1215 Model:1 without hydrogens
 40 41  0  0  0  0            999 V2000
   25.5600  -33.1450    0.1100   O 0  0  0  0  0  0  0  0  0  0  0  0
   19.9950  -33.3840   -2.1210   O 0  0  0  0  0  0  0  0  0  0  0  0
   18.7980  -32.7450   -4.2920   O 0  0  0  0  0  0  0  0  0  0  0  0
   17.3610  -33.6100   -5.8690   O 0  0  0  0  0  0  0  0  0  0  0  0
   22.2820  -36.5090   -9.5270   O 0  0  0  0  0  0  0  0  0  0  0  0
   22.9080  -38.3660   -7.4420   O 0  0  0  0  0  0  0  0  0  0  0  0
   25.1070  -33.2960   -7.8490   O 0  0  0  0  0  0  0  0  0  0  0  0
   24.1030  -31.0370   -6.5110   O 0  0  0  0  0  0  0  0  0  0  0  0
   26.5710  -34.7510   -3.4490   O 0  0  0  0  0  0  0  0  0  0  0  0
   25.5620  -32.4200   -2.0590   N 0  0  0  0  0  0  0  0  0  0  0  0
   16.7840  -31.5310   -5.0200   N 0  0  0  0  0  0  0  0  0  0  0  0
   25.2940  -33.4120   -1.0280   C 0  0  0  0  0  0  0  0  0  0  0  0
   24.6510  -34.7500   -1.4020   C 0  0  0  0  0  0  0  0  0  0  0  0
   23.4980  -34.6670   -2.3080   C 0  0  0  0  0  0  0  0  0  0  0  0
   22.2140  -35.4480   -2.0290   C 0  0  0  0  0  0  0  0  0  0  0  0
   21.1130  -35.2980   -2.9900   C 0  0  0  0  0  0  0  0  0  0  0  0
   20.6460  -33.8730   -3.2950   C 0  0  0  0  0  0  0  0  0  0  0  0
   19.6330  -33.8950   -4.4500   C 0  0  0  0  0  0  0  0  0  0  0  0
   20.3800  -33.8240   -5.7870   C 0  0  0  0  0  0  0  0  0  0  0  0
   20.3620  -35.0260   -6.6230   C 0  0  0  0  0  0  0  0  0  0  0  0
   21.0410  -35.0920   -8.0000   C 0  0  0  0  0  0  0  0  0  0  0  0
   21.5500  -36.5240   -8.2950   C 0  0  0  0  0  0  0  0  0  0  0  0
   22.5190  -37.0000   -7.1990   C 0  0  0  0  0  0  0  0  0  0  0  0
   23.7890  -36.1460   -7.3140   C 0  0  0  0  0  0  0  0  0  0  0  0
   24.4920  -36.0830   -5.9440   C 0  0  0  0  0  0  0  0  0  0  0  0
   25.9310  -35.5850   -6.1410   C 0  0  0  0  0  0  0  0  0  0  0  0
   25.8940  -34.1360   -5.6360   C 0  0  0  0  0  0  0  0  0  0  0  0
   25.2170  -33.1240   -6.4490   C 0  0  0  0  0  0  0  0  0  0  0  0
   24.6500  -31.8480   -5.8220   C 0  0  0  0  0  0  0  0  0  0  0  0
   24.7680  -31.6410   -4.3100   C 0  0  0  0  0  0  0  0  0  0  0  0
   25.4390  -32.6570   -3.4950   C 0  0  0  0  0  0  0  0  0  0  0  0
   26.0240  -33.9190   -4.1290   C 0  0  0  0  0  0  0  0  0  0  0  0
   24.7920  -35.9220   -0.4250   C 0  0  0  0  0  0  0  0  0  0  0  0
   18.9760  -34.3050   -1.7100   C 0  0  0  0  0  0  0  0  0  0  0  0
   17.6400  -32.7150   -5.1230   C 0  0  0  0  0  0  0  0  0  0  0  0
   21.0880  -32.5220   -6.2130   C 0  0  0  0  0  0  0  0  0  0  0  0
   19.9670  -34.7170   -9.0410   C 0  0  0  0  0  0  0  0  0  0  0  0
   21.7750  -39.2360   -7.4850   C 0  0  0  0  0  0  0  0  0  0  0  0
   24.5120  -37.4340   -5.2220   C 0  0  0  0  0  0  0  0  0  0  0  0
   26.2330  -32.6210   -8.4220   C 0  0  0  0  0  0  0  0  0  0  0  0
  1 12  2  0  0  0  0
  2 17  1  0  0  0  0
  2 34  1  0  0  0  0
  3 18  1  0  0  0  0
  3 35  1  0  0  0  0
  4 35  2  0  0  0  0
  5 22  1  0  0  0  0
  6 23  1  0  0  0  0
  6 38  1  0  0  0  0
  7 28  1  0  0  0  0
  7 40  1  0  0  0  0
  8 29  2  0  0  0  0
  9 32  2  0  0  0  0
 10 12  1  0  0  0  0
 10 31  1  0  0  0  0
 11 35  1  0  0  0  0
 12 13  1  0  0  0  0
 13 14  2  0  0  0  0
 13 33  1  0  0  0  0
 14 15  1  0  0  0  0
 15 16  2  0  0  0  0
 16 17  1  0  0  0  0
 17 18  1  0  0  0  0
 18 19  1  0  0  0  0
 19 20  2  0  0  0  0
 19 36  1  0  0  0  0
 20 21  1  0  0  0  0
 21 22  1  0  0  0  0
 21 37  1  0  0  0  0
 22 23  1  0  0  0  0
 23 24  1  0  0  0  0
 24 25  1  0  0  0  0
 25 26  1  0  0  0  0
 25 39  1  0  0  0  0
 26 27  1  0  0  0  0
 27 28  2  0  0  0  0
 27 32  1  0  0  0  0
 28 29  1  0  0  0  0
 29 30  1  0  0  0  0
 30 31  2  0  0  0  0
 31 32  1  0  0  0  0
A    1
O1
A    2
O2
A    3
O3
A    4
O4
A    5
O5
A    6
O6
A    7
O7
A    8
O8
A    9
O9
A   10
N1
A   11
N2
A   12
C1
A   13
C2
A   14
C3
A   15
C4
A   16
C5
A   17
C6
A   18
C7
A   19
C8
A   20
C9
A   21
C10
A   22
C11
A   23
C12
A   24
C13
A   25
C14
A   26
C15
A   27
C16
A   28
C17
A   29
C18
A   30
C19
A   31
C20
A   32
C21
A   33
C22
A   34
C23
A   35
C24
A   36
C25
A   37
C26
A   38
C27
A   39
C28
A   40
C29
M  END
>  <InstanceId>
2YGF_GDM_A_1215

>  <ChemCompId>
GDM

>  <PdbId>
2YGF

>  <ChainId>
A

>  <ResidueNumber>
1215

>  <InsertionCode>


>  <Model>
1

>  <AltIds>


>  <MissingHeavyAtoms>
0

>  <ObservedFormula>
C29 N2 O9

>  <Name>
GELDANAMYCIN

>  <SystematicName>
[(3R,5S,6R,7S,8E,10S,11S,12Z,14E)-6-hydroxy-5,11,21-trimethoxy-3,7,9,15-tetramethyl-16,20,22-trioxo-17-azabicyclo[16.3.1]docosa-1(21),8,12,14,18-pentaen-10-yl] carbamate

>  <Synonyms>


>  <Type>
NON-POLYMER

>  <Formula>
C29 H40 N2 O9

>  <MolecularWeight>
560.636

>  <ModifiedDate>
2011-06-04

>  <Parent>


>  <OneLetterCode>


>  <SubcomponentList>


>  <AmbiguousFlag>
N

>  <InChI>
InChI=1S/C29H40N2O9/c1-15-11-19-25(34)20(14-21(32)27(19)39-7)31-28(35)16(2)9-8-10-22(37-5)26(40-29(30)36)18(4)13-17(3)24(33)23(12-15)38-6/h8-10,13-15,17,22-24,26,33H,11-12H2,1-7H3,(H2,30,36)(H,31,35)/b10-8-,16-9+,18-13+/t15-,17+,22+,23+,24-,26+/m1/s1

>  <InChIKey>
QTQAWLPCGQOSGP-KSRBKZBZSA-N

>  <SMILES>
C[C@H]1C[C@@H]([C@@H]([C@H](\C=C(\[C@@H]([C@H](\C=C/C=C(/C(=O)NC2=CC(=O)C(=C(C1)C2=O)OC)\C)OC)OC(=O)N)/C)C)O)OC

$$$$
