4IH3_PDC_A_402
  RCSB PDB12061713003D
Coordinates from PDB:4IH3:A:402 Model:1 without hydrogens
 12 12  0  0  0  0            999 V2000
   -0.3030  -12.9480    8.4730   N 0  0  0  0  0  0  0  0  0  0  0  0
   -1.4830  -12.2890    8.4450   C 0  0  0  0  0  0  0  0  0  0  0  0
   -2.6980  -12.8970    8.7810   C 0  0  0  0  0  0  0  0  0  0  0  0
   -2.7340  -14.2180    9.1880   C 0  0  0  0  0  0  0  0  0  0  0  0
   -1.5080  -14.9050    9.2190   C 0  0  0  0  0  0  0  0  0  0  0  0
   -0.3280  -14.2340    8.8680   C 0  0  0  0  0  0  0  0  0  0  0  0
   -1.5790  -10.8050    7.9950   C 0  0  0  0  0  0  0  0  0  0  0  0
   -0.7970   -9.9460    8.4870   O 0  0  0  0  0  0  0  0  0  0  0  0
   -2.4630  -10.5740    7.1310   O 0  0  0  0  0  0  0  0  0  0  0  0
    0.9610  -14.9810    8.9010   C 0  0  0  0  0  0  0  0  0  0  0  0
    1.3440  -15.5690    9.9530   O 0  0  0  0  0  0  0  0  0  0  0  0
    1.5720  -14.9540    7.8130   O 0  0  0  0  0  0  0  0  0  0  0  0
  1  2  2  0  0  0  0
  1  6  1  0  0  0  0
  2  3  1  0  0  0  0
  2  7  1  0  0  0  0
  3  4  2  0  0  0  0
  4  5  1  0  0  0  0
  5  6  2  0  0  0  0
  6 10  1  0  0  0  0
  7  8  2  0  0  0  0
  7  9  1  0  0  0  0
 10 11  2  0  0  0  0
 10 12  1  0  0  0  0
A    1
N1
A    2
C2
A    3
C3
A    4
C4
A    5
C5
A    6
C6
A    7
C7
A    8
O1
A    9
O2
A   10
C8
A   11
O3
A   12
O4
M  END
>  <InstanceId>
4IH3_PDC_A_402

>  <ChemCompId>
PDC

>  <PdbId>
4IH3

>  <ChainId>
A

>  <ResidueNumber>
402

>  <InsertionCode>


>  <Model>
1

>  <AltIds>


>  <MissingHeavyAtoms>
0

>  <ObservedFormula>
C7 N O4

>  <Name>
PYRIDINE-2,6-DICARBOXYLIC ACID

>  <SystematicName>
pyridine-2,6-dicarboxylic acid

>  <Synonyms>
DIPICOLINIC ACID

>  <Type>
NON-POLYMER

>  <Formula>
C7 H5 N O4

>  <MolecularWeight>
167.119

>  <ModifiedDate>
2011-06-04

>  <Parent>


>  <OneLetterCode>


>  <SubcomponentList>


>  <AmbiguousFlag>
N

>  <InChI>
InChI=1S/C7H5NO4/c9-6(10)4-2-1-3-5(8-4)7(11)12/h1-3H,(H,9,10)(H,11,12)

>  <InChIKey>
WJJMNDUMQPNECX-UHFFFAOYSA-N

>  <SMILES>
c1cc(nc(c1)C(=O)O)C(=O)O

$$$$
