4IH3_PDC_A_402


 14 14  0  0  0  0  0  0  0  0999 V2000
    1.1353  -15.1741    9.0044 N   0  0  0  0  0  0  0  0  0  0  0  0
   -0.1021  -14.8623    8.5581 C   0  0  0  0  0  0  0  0  0  0  0  0
   -0.7297  -15.5581    7.5185 C   0  0  0  0  0  0  0  0  0  0  0  0
   -0.1031  -16.6313    6.9123 C   0  0  0  0  0  0  0  0  0  0  0  0
    1.1833  -16.9582    7.3755 C   0  0  0  0  0  0  0  0  0  0  0  0
    1.7530  -16.2172    8.4207 C   0  0  0  0  0  0  0  0  0  0  0  0
   -0.9069  -13.6715    9.1482 C   0  0  0  0  0  0  0  0  0  0  0  0
   -0.3686  -12.5349    9.2466 O   0  0  0  0  0  0  0  0  0  0  0  0
   -2.0857  -13.9501    9.4861 O   0  0  0  0  0  0  0  0  0  0  0  0
   -2.4098  -14.8228    9.3797 H   0  0  0  0  0  0  0  0  0  0  0  0
    3.1201  -16.5749    8.8936 C   0  0  0  0  0  0  0  0  0  0  0  0
    3.9940  -17.0059    8.0876 O   0  0  0  0  0  0  0  0  0  0  0  0
    3.2780  -16.3966   10.1188 O   0  0  0  0  0  0  0  0  0  0  0  0
    2.5702  -16.0721   10.6400 H   0  0  0  0  0  0  0  0  0  0  0  0
  1  2  2  0  0  0
  1  6  1  0  0  0
  2  3  1  0  0  0
  2  7  1  0  0  0
  3  4  2  0  0  0
  4  5  1  0  0  0
  5  6  2  0  0  0
  6 11  1  0  0  0
  7  8  2  0  0  0
  7  9  1  0  0  0
 11 12  2  0  0  0
 11 13  1  0  0  0
  9 10  1  0  0  0
 13 14  1  0  0  0
M  END
> <minimizedAffinity>
-6.30709

$$$$
4IH3_PDC_A_402


 14 14  0  0  0  0  0  0  0  0999 V2000
    0.8176  -15.1738    9.1378 N   0  0  0  0  0  0  0  0  0  0  0  0
    1.3767  -16.2534    8.5467 C   0  0  0  0  0  0  0  0  0  0  0  0
    0.8248  -16.8693    7.4176 C   0  0  0  0  0  0  0  0  0  0  0  0
   -0.3258  -16.3693    6.8362 C   0  0  0  0  0  0  0  0  0  0  0  0
   -0.9085  -15.2461    7.4484 C   0  0  0  0  0  0  0  0  0  0  0  0
   -0.3024  -14.6800    8.5789 C   0  0  0  0  0  0  0  0  0  0  0  0
    2.6640  -16.9171    9.1092 C   0  0  0  0  0  0  0  0  0  0  0  0
    3.3105  -16.3532   10.0342 O   0  0  0  0  0  0  0  0  0  0  0  0
    2.9637  -18.0166    8.5776 O   0  0  0  0  0  0  0  0  0  0  0  0
    2.4282  -18.3675    7.8934 H   0  0  0  0  0  0  0  0  0  0  0  0
   -0.9385  -13.4934    9.2176 C   0  0  0  0  0  0  0  0  0  0  0  0
   -0.3247  -12.3905    9.2949 O   0  0  0  0  0  0  0  0  0  0  0  0
   -2.0923  -13.7205    9.6357 O   0  0  0  0  0  0  0  0  0  0  0  0
   -2.4681  -14.5729    9.5343 H   0  0  0  0  0  0  0  0  0  0  0  0
  1  2  2  0  0  0
  1  6  1  0  0  0
  2  3  1  0  0  0
  2  7  1  0  0  0
  3  4  2  0  0  0
  4  5  1  0  0  0
  5  6  2  0  0  0
  6 11  1  0  0  0
  7  8  2  0  0  0
  7  9  1  0  0  0
 11 12  2  0  0  0
 11 13  1  0  0  0
  9 10  1  0  0  0
 13 14  1  0  0  0
M  END
> <minimizedAffinity>
-6.29779

$$$$
4IH3_PDC_A_402


 14 14  0  0  0  0  0  0  0  0999 V2000
   -0.5765  -14.7316    7.1907 N   0  0  0  0  0  0  0  0  0  0  0  0
    0.3440  -15.6289    7.6092 C   0  0  0  0  0  0  0  0  0  0  0  0
    0.7931  -15.6914    8.9333 C   0  0  0  0  0  0  0  0  0  0  0  0
    0.2814  -14.8344    9.8902 C   0  0  0  0  0  0  0  0  0  0  0  0
   -0.6767  -13.9013    9.4576 C   0  0  0  0  0  0  0  0  0  0  0  0
   -1.0804  -13.8936    8.1149 C   0  0  0  0  0  0  0  0  0  0  0  0
    1.0038  -16.6389    6.6302 C   0  0  0  0  0  0  0  0  0  0  0  0
    2.2597  -16.7535    6.5956 O   0  0  0  0  0  0  0  0  0  0  0  0
    0.1936  -17.2952    5.9272 O   0  0  0  0  0  0  0  0  0  0  0  0
   -0.7278  -17.1488    6.0144 H   0  0  0  0  0  0  0  0  0  0  0  0
   -2.0925  -12.8926    7.6741 C   0  0  0  0  0  0  0  0  0  0  0  0
   -1.7484  -11.7182    7.3557 O   0  0  0  0  0  0  0  0  0  0  0  0
   -3.2556  -13.3453    7.6573 O   0  0  0  0  0  0  0  0  0  0  0  0
   -3.4166  -14.2327    7.9113 H   0  0  0  0  0  0  0  0  0  0  0  0
  1  2  2  0  0  0
  1  6  1  0  0  0
  2  3  1  0  0  0
  2  7  1  0  0  0
  3  4  2  0  0  0
  4  5  1  0  0  0
  5  6  2  0  0  0
  6 11  1  0  0  0
  7  8  2  0  0  0
  7  9  1  0  0  0
 11 12  2  0  0  0
 11 13  1  0  0  0
  9 10  1  0  0  0
 13 14  1  0  0  0
M  END
> <minimizedAffinity>
-6.10823

$$$$
4IH3_PDC_A_402


 14 14  0  0  0  0  0  0  0  0999 V2000
   -0.8397  -13.9594    7.2310 N   0  0  0  0  0  0  0  0  0  0  0  0
   -1.2148  -13.0003    8.1067 C   0  0  0  0  0  0  0  0  0  0  0  0
   -1.0346  -13.1247    9.4890 C   0  0  0  0  0  0  0  0  0  0  0  0
   -0.4289  -14.2484   10.0205 C   0  0  0  0  0  0  0  0  0  0  0  0
   -0.0370  -15.2466    9.1117 C   0  0  0  0  0  0  0  0  0  0  0  0
   -0.2492  -15.0566    7.7389 C   0  0  0  0  0  0  0  0  0  0  0  0
   -1.9157  -11.6954    7.6377 C   0  0  0  0  0  0  0  0  0  0  0  0
   -1.7827  -10.6340    8.3064 O   0  0  0  0  0  0  0  0  0  0  0  0
   -2.5808  -11.8084    6.5765 O   0  0  0  0  0  0  0  0  0  0  0  0
   -2.6290  -12.6359    6.1396 H   0  0  0  0  0  0  0  0  0  0  0  0
    0.1674  -16.1290    6.7917 C   0  0  0  0  0  0  0  0  0  0  0  0
    1.2059  -16.0007    6.0816 O   0  0  0  0  0  0  0  0  0  0  0  0
   -0.5986  -17.1144    6.7981 O   0  0  0  0  0  0  0  0  0  0  0  0
   -1.3482  -17.1215    7.3603 H   0  0  0  0  0  0  0  0  0  0  0  0
  1  2  2  0  0  0
  1  6  1  0  0  0
  2  3  1  0  0  0
  2  7  1  0  0  0
  3  4  2  0  0  0
  4  5  1  0  0  0
  5  6  2  0  0  0
  6 11  1  0  0  0
  7  8  2  0  0  0
  7  9  1  0  0  0
 11 12  2  0  0  0
 11 13  1  0  0  0
  9 10  1  0  0  0
 13 14  1  0  0  0
M  END
> <minimizedAffinity>
-5.99375

$$$$
4IH3_PDC_A_402


 14 14  0  0  0  0  0  0  0  0999 V2000
   -0.0005  -11.8169    9.1119 N   0  0  0  0  0  0  0  0  0  0  0  0
   -0.7853  -12.8782    8.8202 C   0  0  0  0  0  0  0  0  0  0  0  0
   -1.7925  -12.8312    7.8496 C   0  0  0  0  0  0  0  0  0  0  0  0
   -2.0105  -11.6781    7.1182 C   0  0  0  0  0  0  0  0  0  0  0  0
   -1.1948  -10.5734    7.4190 C   0  0  0  0  0  0  0  0  0  0  0  0
   -0.2050  -10.6903    8.4052 C   0  0  0  0  0  0  0  0  0  0  0  0
   -0.6486  -14.2277    9.5781 C   0  0  0  0  0  0  0  0  0  0  0  0
    0.4958  -14.6889    9.8411 O   0  0  0  0  0  0  0  0  0  0  0  0
   -1.7403  -14.7688    9.8889 O   0  0  0  0  0  0  0  0  0  0  0  0
   -2.5497  -14.3589    9.6549 H   0  0  0  0  0  0  0  0  0  0  0  0
    0.6454   -9.5063    8.7143 C   0  0  0  0  0  0  0  0  0  0  0  0
    0.3770   -8.3697    8.2295 O   0  0  0  0  0  0  0  0  0  0  0  0
    1.5983   -9.7717    9.4755 O   0  0  0  0  0  0  0  0  0  0  0  0
    1.7196  -10.6471    9.7867 H   0  0  0  0  0  0  0  0  0  0  0  0
  1  2  2  0  0  0
  1  6  1  0  0  0
  2  3  1  0  0  0
  2  7  1  0  0  0
  3  4  2  0  0  0
  4  5  1  0  0  0
  5  6  2  0  0  0
  6 11  1  0  0  0
  7  8  2  0  0  0
  7  9  1  0  0  0
 11 12  2  0  0  0
 11 13  1  0  0  0
  9 10  1  0  0  0
 13 14  1  0  0  0
M  END
> <minimizedAffinity>
-5.94600

$$$$
4IH3_PDC_A_402


 14 14  0  0  0  0  0  0  0  0999 V2000
    0.1001  -12.0852    8.8303 N   0  0  0  0  0  0  0  0  0  0  0  0
   -0.2205  -10.8463    8.3947 C   0  0  0  0  0  0  0  0  0  0  0  0
   -1.3140  -10.5974    7.5574 C   0  0  0  0  0  0  0  0  0  0  0  0
   -2.1412  -11.6302    7.1559 C   0  0  0  0  0  0  0  0  0  0  0  0
   -1.8105  -12.9193    7.6086 C   0  0  0  0  0  0  0  0  0  0  0  0
   -0.6992  -13.0967    8.4449 C   0  0  0  0  0  0  0  0  0  0  0  0
    0.6353   -9.6036    8.7653 C   0  0  0  0  0  0  0  0  0  0  0  0
    1.6368   -9.7316    9.5216 O   0  0  0  0  0  0  0  0  0  0  0  0
    0.2461   -8.5248    8.2496 O   0  0  0  0  0  0  0  0  0  0  0  0
   -0.5107   -8.5158    7.6971 H   0  0  0  0  0  0  0  0  0  0  0  0
   -0.3610  -14.4717    8.9093 C   0  0  0  0  0  0  0  0  0  0  0  0
   -0.6560  -15.4838    8.2110 O   0  0  0  0  0  0  0  0  0  0  0  0
    0.2231  -14.4875   10.0122 O   0  0  0  0  0  0  0  0  0  0  0  0
    0.4008  -13.6838   10.4598 H   0  0  0  0  0  0  0  0  0  0  0  0
  1  2  2  0  0  0
  1  6  1  0  0  0
  2  3  1  0  0  0
  2  7  1  0  0  0
  3  4  2  0  0  0
  4  5  1  0  0  0
  5  6  2  0  0  0
  6 11  1  0  0  0
  7  8  2  0  0  0
  7  9  1  0  0  0
 11 12  2  0  0  0
 11 13  1  0  0  0
  9 10  1  0  0  0
 13 14  1  0  0  0
M  END
> <minimizedAffinity>
-5.81239

$$$$
4IH3_PDC_A_402


 14 14  0  0  0  0  0  0  0  0999 V2000
   -0.1944  -13.7048    7.6692 N   0  0  0  0  0  0  0  0  0  0  0  0
    0.2892  -14.7530    8.3726 C   0  0  0  0  0  0  0  0  0  0  0  0
   -0.2323  -15.1377    9.6131 C   0  0  0  0  0  0  0  0  0  0  0  0
   -1.3030  -14.4597   10.1662 C   0  0  0  0  0  0  0  0  0  0  0  0
   -1.8083  -13.3700    9.4360 C   0  0  0  0  0  0  0  0  0  0  0  0
   -1.2365  -13.0389    8.1993 C   0  0  0  0  0  0  0  0  0  0  0  0
    1.4968  -15.5890    7.8657 C   0  0  0  0  0  0  0  0  0  0  0  0
    1.4006  -16.2488    6.7948 O   0  0  0  0  0  0  0  0  0  0  0  0
    2.5202  -15.5288    8.5939 O   0  0  0  0  0  0  0  0  0  0  0  0
    2.5088  -15.0135    9.3764 H   0  0  0  0  0  0  0  0  0  0  0  0
   -1.7819  -11.8765    7.4431 C   0  0  0  0  0  0  0  0  0  0  0  0
   -1.1585  -10.7770    7.4040 O   0  0  0  0  0  0  0  0  0  0  0  0
   -2.8696  -12.1223    6.8824 O   0  0  0  0  0  0  0  0  0  0  0  0
   -3.2593  -12.9702    6.9672 H   0  0  0  0  0  0  0  0  0  0  0  0
  1  2  2  0  0  0
  1  6  1  0  0  0
  2  3  1  0  0  0
  2  7  1  0  0  0
  3  4  2  0  0  0
  4  5  1  0  0  0
  5  6  2  0  0  0
  6 11  1  0  0  0
  7  8  2  0  0  0
  7  9  1  0  0  0
 11 12  2  0  0  0
 11 13  1  0  0  0
  9 10  1  0  0  0
 13 14  1  0  0  0
M  END
> <minimizedAffinity>
-5.69521

$$$$
4IH3_PDC_A_402


 14 14  0  0  0  0  0  0  0  0999 V2000
    1.4006  -16.2904    8.6997 N   0  0  0  0  0  0  0  0  0  0  0  0
    0.2439  -15.6499    8.4180 C   0  0  0  0  0  0  0  0  0  0  0  0
   -0.4391  -15.8173    7.2079 C   0  0  0  0  0  0  0  0  0  0  0  0
    0.0419  -16.6836    6.2434 C   0  0  0  0  0  0  0  0  0  0  0  0
    1.2440  -17.3516    6.5346 C   0  0  0  0  0  0  0  0  0  0  0  0
    1.8764  -17.1357    7.7672 C   0  0  0  0  0  0  0  0  0  0  0  0
   -0.3947  -14.6420    9.4132 C   0  0  0  0  0  0  0  0  0  0  0  0
    0.3430  -13.9261   10.1444 O   0  0  0  0  0  0  0  0  0  0  0  0
   -1.6518  -14.6157    9.4002 O   0  0  0  0  0  0  0  0  0  0  0  0
   -2.1264  -15.1826    8.8246 H   0  0  0  0  0  0  0  0  0  0  0  0
    3.1532  -17.8481    8.0548 C   0  0  0  0  0  0  0  0  0  0  0  0
    3.2689  -19.0879    7.8342 O   0  0  0  0  0  0  0  0  0  0  0  0
    4.0415  -17.0990    8.5104 O   0  0  0  0  0  0  0  0  0  0  0  0
    3.8645  -16.1883    8.6415 H   0  0  0  0  0  0  0  0  0  0  0  0
  1  2  2  0  0  0
  1  6  1  0  0  0
  2  3  1  0  0  0
  2  7  1  0  0  0
  3  4  2  0  0  0
  4  5  1  0  0  0
  5  6  2  0  0  0
  6 11  1  0  0  0
  7  8  2  0  0  0
  7  9  1  0  0  0
 11 12  2  0  0  0
 11 13  1  0  0  0
  9 10  1  0  0  0
 13 14  1  0  0  0
M  END
> <minimizedAffinity>
-5.54633

$$$$
4IH3_PDC_A_402


 14 14  0  0  0  0  0  0  0  0999 V2000
    2.0252  -17.5759    7.0593 N   0  0  0  0  0  0  0  0  0  0  0  0
    3.2122  -17.8751    7.6329 C   0  0  0  0  0  0  0  0  0  0  0  0
    3.6382  -17.3003    8.8358 C   0  0  0  0  0  0  0  0  0  0  0  0
    2.8309  -16.4033    9.5108 C   0  0  0  0  0  0  0  0  0  0  0  0
    1.5956  -16.0915    8.9168 C   0  0  0  0  0  0  0  0  0  0  0  0
    1.2326  -16.7041    7.7090 C   0  0  0  0  0  0  0  0  0  0  0  0
    4.2147  -18.8594    6.9694 C   0  0  0  0  0  0  0  0  0  0  0  0
    5.4444  -18.7836    7.2405 O   0  0  0  0  0  0  0  0  0  0  0  0
    3.6920  -19.6945    6.1879 O   0  0  0  0  0  0  0  0  0  0  0  0
    2.7667  -19.6830    6.0407 H   0  0  0  0  0  0  0  0  0  0  0  0
   -0.0782  -16.3559    7.0916 C   0  0  0  0  0  0  0  0  0  0  0  0
   -0.7276  -15.3410    7.4754 O   0  0  0  0  0  0  0  0  0  0  0  0
   -0.4248  -17.1510    6.1941 O   0  0  0  0  0  0  0  0  0  0  0  0
    0.1232  -17.8791    5.9760 H   0  0  0  0  0  0  0  0  0  0  0  0
  1  2  2  0  0  0
  1  6  1  0  0  0
  2  3  1  0  0  0
  2  7  1  0  0  0
  3  4  2  0  0  0
  4  5  1  0  0  0
  5  6  2  0  0  0
  6 11  1  0  0  0
  7  8  2  0  0  0
  7  9  1  0  0  0
 11 12  2  0  0  0
 11 13  1  0  0  0
  9 10  1  0  0  0
 13 14  1  0  0  0
M  END
> <minimizedAffinity>
-5.54225

$$$$
4IH3_PDC_A_402


 14 14  0  0  0  0  0  0  0  0999 V2000
    2.1506  -17.6172    6.9917 N   0  0  0  0  0  0  0  0  0  0  0  0
    1.3166  -16.7320    7.5819 C   0  0  0  0  0  0  0  0  0  0  0  0
    1.6296  -16.0796    8.7800 C   0  0  0  0  0  0  0  0  0  0  0  0
    2.8424  -16.3025    9.4056 C   0  0  0  0  0  0  0  0  0  0  0  0
    3.7117  -17.2218    8.7931 C   0  0  0  0  0  0  0  0  0  0  0  0
    3.3333  -17.8405    7.5931 C   0  0  0  0  0  0  0  0  0  0  0  0
   -0.0797  -16.4028    6.9855 C   0  0  0  0  0  0  0  0  0  0  0  0
   -0.7899  -15.4996    7.5065 O   0  0  0  0  0  0  0  0  0  0  0  0
   -0.3971  -17.0893    5.9809 O   0  0  0  0  0  0  0  0  0  0  0  0
    0.1901  -17.7430    5.6556 H   0  0  0  0  0  0  0  0  0  0  0  0
    4.2657  -18.8169    6.9623 C   0  0  0  0  0  0  0  0  0  0  0  0
    3.8405  -19.6926    6.1552 O   0  0  0  0  0  0  0  0  0  0  0  0
    5.4530  -18.6591    7.3133 O   0  0  0  0  0  0  0  0  0  0  0  0
    5.6761  -17.9802    7.9194 H   0  0  0  0  0  0  0  0  0  0  0  0
  1  2  2  0  0  0
  1  6  1  0  0  0
  2  3  1  0  0  0
  2  7  1  0  0  0
  3  4  2  0  0  0
  4  5  1  0  0  0
  5  6  2  0  0  0
  6 11  1  0  0  0
  7  8  2  0  0  0
  7  9  1  0  0  0
 11 12  2  0  0  0
 11 13  1  0  0  0
  9 10  1  0  0  0
 13 14  1  0  0  0
M  END
> <minimizedAffinity>
-5.43007

$$$$
