1SB1_165_H_1001
  RCSB PDB12061703593D
Coordinates from PDB:1SB1:H:1001 Model:1 without hydrogens
 39 43  0  0  0  0            999 V2000
   12.2270  -18.2760   13.0680   C 0  0  0  0  0  0  0  0  0  0  0  0
   13.0050  -16.7040   13.7760   S 0  0  0  0  0  0  0  0  0  0  0  0
   13.1590  -19.2610   12.3180   C 0  0  0  0  0  0  0  0  0  0  0  0
   14.2450  -20.0120   12.9740   C 0  0  0  0  0  0  0  0  0  0  0  0
   15.1210  -20.9160   12.1410   C 0  0  0  0  0  0  0  0  0  0  0  0
   14.8920  -21.0430   10.6850   C 0  0  0  0  0  0  0  0  0  0  0  0
   13.7790  -20.2810   10.0350   C 0  0  0  0  0  0  0  0  0  0  0  0
   12.9240  -19.3990   10.8450   C 0  0  0  0  0  0  0  0  0  0  0  0
   13.7590  -16.6480   12.5800   O 0  0  0  0  0  0  0  0  0  0  0  0
   13.5390  -17.4550   14.8680   O 0  0  0  0  0  0  0  0  0  0  0  0
   11.3260  -16.4730   13.9990   N 0  0  0  0  0  0  0  0  0  0  0  0
   10.3460  -15.5480   13.1120   C 0  0  0  0  0  0  0  0  0  0  0  0
   10.7970  -14.1300   13.6970   C 0  0  0  0  0  0  0  0  0  0  0  0
   11.5270  -13.3320   13.0290   O 0  0  0  0  0  0  0  0  0  0  0  0
   10.6100  -15.6370   11.5500   C 0  0  0  0  0  0  0  0  0  0  0  0
    9.1870  -14.7650   11.1570   C 0  0  0  0  0  0  0  0  0  0  0  0
    7.7460  -15.5260   11.5660   C 0  0  0  0  0  0  0  0  0  0  0  0
    9.0690  -14.3320    9.6570   C 0  0  0  0  0  0  0  0  0  0  0  0
    6.4220  -14.6620   11.2240   C 0  0  0  0  0  0  0  0  0  0  0  0
    7.8460  -13.3470    9.3730   C 0  0  0  0  0  0  0  0  0  0  0  0
    6.4480  -14.0050    9.7640   C 0  0  0  0  0  0  0  0  0  0  0  0
   10.2600  -13.7020   15.0490   N 0  0  0  0  0  0  0  0  0  0  0  0
   10.5710  -12.3900   15.6190   C 0  0  0  0  0  0  0  0  0  0  0  0
   11.9710  -12.1810   16.1990   C 0  0  0  0  0  0  0  0  0  0  0  0
   12.0720  -11.4380   17.1950   O 0  0  0  0  0  0  0  0  0  0  0  0
    9.5900  -12.6210   16.8250   C 0  0  0  0  0  0  0  0  0  0  0  0
    8.4750  -13.4070   16.2010   C 0  0  0  0  0  0  0  0  0  0  0  0
    9.3230  -14.5840   15.7800   C 0  0  0  0  0  0  0  0  0  0  0  0
   13.0980  -12.8640   15.5190   N 0  0  0  0  0  0  0  0  0  0  0  0
   14.4890  -12.6600   16.0300   C 0  0  0  0  0  0  0  0  0  0  0  0
   14.9880  -11.3300   15.3740   C 0  0  0  0  0  0  0  0  0  0  0  0
   15.8590  -11.4800   14.1330   C 0  0  0  0  0  0  0  0  0  0  0  0
   16.2950  -10.0690   13.2480   S 0  0  0  0  0  0  0  0  0  0  0  0
   17.1920  -11.1080   12.0590   C 0  0  0  0  0  0  0  0  0  0  0  0
   17.8310  -10.5530   10.9810   N 0  0  0  0  0  0  0  0  0  0  0  0
   17.1310  -12.3740   12.3690   N 0  0  0  0  0  0  0  0  0  0  0  0
   16.3400  -12.6680   13.5960   C 0  0  0  0  0  0  0  0  0  0  0  0
   16.0970  -14.0550   14.1900   C 0  0  0  0  0  0  0  0  0  0  0  0
   15.3730  -14.0020   15.6670   C 0  0  0  0  0  0  0  0  0  0  0  0
 22 23  1  0  0  0  0
 22 28  1  0  0  0  0
 22 13  1  0  0  0  0
 23 26  1  0  0  0  0
 23 24  1  0  0  0  0
 26 27  1  0  0  0  0
 27 28  1  0  0  0  0
 24 25  2  0  0  0  0
 24 29  1  0  0  0  0
 29 30  1  0  0  0  0
 30 31  2  0  0  0  0
 30 39  1  0  0  0  0
 31 32  1  0  0  0  0
 32 33  1  0  0  0  0
 32 37  2  0  0  0  0
 33 34  1  0  0  0  0
 34 35  1  0  0  0  0
 34 36  2  0  0  0  0
 36 37  1  0  0  0  0
 37 38  1  0  0  0  0
 38 39  2  0  0  0  0
 13 14  2  0  0  0  0
 13 12  1  0  0  0  0
 12 11  1  0  0  0  0
 12 15  1  0  0  0  0
 11  2  1  0  0  0  0
  2  9  2  0  0  0  0
  2 10  2  0  0  0  0
  2  1  1  0  0  0  0
  1  3  1  0  0  0  0
  3  8  1  0  0  0  0
  3  4  2  0  0  0  0
  8  7  2  0  0  0  0
  7  6  1  0  0  0  0
  6  5  2  0  0  0  0
  5  4  1  0  0  0  0
 15 16  1  0  0  0  0
 16 17  1  0  0  0  0
 16 18  1  0  0  0  0
 17 19  1  0  0  0  0
 19 21  1  0  0  0  0
 21 20  1  0  0  0  0
 20 18  1  0  0  0  0
A    1
C7
A    2
S8
A    3
C5
A    4
C4
A    5
C3
A    6
C2
A    7
C1
A    8
C6
A    9
O36
A   10
O37
A   11
N9
A   12
C10
A   13
C18
A   14
O38
A   15
C11
A   16
C12
A   17
C13
A   18
C17
A   19
C14
A   20
C16
A   21
C15
A   22
N19
A   23
C23
A   24
C24
A   25
O39
A   26
C22
A   27
C21
A   28
C20
A   29
N25
A   30
C26
A   31
C31
A   32
C30
A   33
S34
A   34
C33
A   35
N35
A   36
N32
A   37
C29
A   38
C28
A   39
C27
M  END
>  <InstanceId>
1SB1_165_H_1001

>  <ChemCompId>
165

>  <PdbId>
1SB1

>  <ChainId>
H

>  <ResidueNumber>
1001

>  <InsertionCode>


>  <Model>
1

>  <AltIds>


>  <MissingHeavyAtoms>
0

>  <ObservedFormula>
C28 N5 O4 S2

>  <Name>
N-(BENZYLSULFONYL)-3-CYCLOHEXYLALANYL-N-(2-AMINO-1,3-BENZOTHIAZOL-6-YL)PROLINAMIDE

>  <SystematicName>
(2S)-N-(2-azanyl-1,3-benzothiazol-6-yl)-1-[(2R)-3-cyclohexyl-2-(phenylmethylsulfonylamino)propanoyl]pyrrolidine-2-carboxamide

>  <Synonyms>


>  <Type>
peptide-like

>  <Formula>
C28 H35 N5 O4 S2

>  <MolecularWeight>
569.739

>  <ModifiedDate>
2011-06-04

>  <Parent>


>  <OneLetterCode>


>  <SubcomponentList>
PMS DPN PRO 01U

>  <AmbiguousFlag>
N

>  <InChI>
InChI=1S/C28H35N5O4S2/c29-28-31-22-14-13-21(17-25(22)38-28)30-26(34)24-12-7-15-33(24)27(35)23(16-19-8-3-1-4-9-19)32-39(36,37)18-20-10-5-2-6-11-20/h2,5-6,10-11,13-14,17,19,23-24,32H,1,3-4,7-9,12,15-16,18H2,(H2,29,31)(H,30,34)/t23-,24+/m1/s1

>  <InChIKey>
HDSAIJKTEVRQHF-RPWUZVMVSA-N

>  <SMILES>
c1ccc(cc1)CS(=O)(=O)N[C@H](CC2CCCCC2)C(=O)N3CCC[C@H]3C(=O)Nc4ccc5c(c4)sc(n5)N

$$$$
