1SB1_165_H_1001


 43 47  0  0  0  0  0  0  0  0999 V2000
   11.2970  -14.4735   13.2428 C   0  0  0  0  0  0  0  0  0  0  0  0
   11.7939  -13.4490   12.6776 O   0  0  0  0  0  0  0  0  0  0  0  0
   10.6206  -14.3316   14.5925 N   0  0  0  0  0  0  0  0  0  0  0  0
   10.5338  -13.0402   15.2765 C   0  0  0  0  0  0  0  0  0  0  0  0
    9.6207  -13.6390   16.4069 C   0  0  0  0  0  0  0  0  0  0  0  0
    8.7903  -14.6449   15.6659 C   0  0  0  0  0  0  0  0  0  0  0  0
    9.9467  -15.4993   15.2029 C   0  0  0  0  0  0  0  0  0  0  0  0
   11.8007  -12.5037   15.9452 C   0  0  0  0  0  0  0  0  0  0  0  0
   11.6635  -11.5812   16.7725 O   0  0  0  0  0  0  0  0  0  0  0  0
   13.0920  -13.1111   15.5422 N   0  0  0  0  0  0  0  0  0  0  0  0
   13.1145  -13.8455   14.8870 H   0  0  0  0  0  0  0  0  0  0  0  0
   14.3601  -12.5937   16.1438 C   0  0  0  0  0  0  0  0  0  0  0  0
   14.6722  -11.2603   15.3869 C   0  0  0  0  0  0  0  0  0  0  0  0
   15.6817  -11.3553   14.2497 C   0  0  0  0  0  0  0  0  0  0  0  0
   15.9414   -9.9767   13.2515 S   0  0  0  0  0  0  0  0  0  0  0  0
   17.1343  -10.9297   12.2684 C   0  0  0  0  0  0  0  0  0  0  0  0
   17.7702  -10.3658   11.1932 N   0  0  0  0  0  0  0  0  0  0  0  0
   17.2750  -12.1484   12.7130 N   0  0  0  0  0  0  0  0  0  0  0  0
   16.4268  -12.4728   13.8933 C   0  0  0  0  0  0  0  0  0  0  0  0
   16.3819  -13.8180   14.6172 C   0  0  0  0  0  0  0  0  0  0  0  0
   15.5091  -13.7669   16.0115 C   0  0  0  0  0  0  0  0  0  0  0  0
   17.5857   -9.4306   10.9471 H   0  0  0  0  0  0  0  0  0  0  0  0
   18.4115  -10.8960   10.6670 H   0  0  0  0  0  0  0  0  0  0  0  0
   11.2797  -15.9037   12.5283 C   0  0  0  0  0  0  0  0  0  0  0  0
   12.6509  -16.4784   13.1546 N   0  0  0  0  0  0  0  0  0  0  0  0
   12.6449  -16.1703   14.1270 H   0  0  0  0  0  0  0  0  0  0  0  0
   13.1508  -18.1121   13.2138 S   0  0  0  0  0  0  0  0  0  0  0  0
   13.2244  -18.9794   14.3293 O   0  0  0  0  0  0  0  0  0  0  0  0
   13.9712  -18.4080   12.0820 O   0  0  0  0  0  0  0  0  0  0  0  0
   14.5813  -17.1649   14.0101 C   0  0  0  0  0  0  0  0  0  0  0  0
   14.6225  -17.0985   15.5578 C   0  0  0  0  0  0  0  0  0  0  0  0
   13.5010  -16.6099   16.3807 C   0  0  0  0  0  0  0  0  0  0  0  0
   13.6616  -16.5490   17.8804 C   0  0  0  0  0  0  0  0  0  0  0  0
   14.9299  -16.9725   18.5133 C   0  0  0  0  0  0  0  0  0  0  0  0
   16.0564  -17.4753   17.6646 C   0  0  0  0  0  0  0  0  0  0  0  0
   15.9021  -17.5352   16.2026 C   0  0  0  0  0  0  0  0  0  0  0  0
   11.3005  -15.7586   10.9484 C   0  0  0  0  0  0  0  0  0  0  0  0
    9.5998  -15.5684   10.8419 C   0  0  0  0  0  0  0  0  0  0  0  0
    8.7881  -16.8153   10.0615 C   0  0  0  0  0  0  0  0  0  0  0  0
    9.1233  -14.2284   10.1870 C   0  0  0  0  0  0  0  0  0  0  0  0
    7.1818  -16.6309   10.0144 C   0  0  0  0  0  0  0  0  0  0  0  0
    7.5491  -13.9910   10.2960 C   0  0  0  0  0  0  0  0  0  0  0  0
    6.7207  -15.1567    9.5924 C   0  0  0  0  0  0  0  0  0  0  0  0
  3  4  1  0  0  0
  3  7  1  0  0  0
  3  1  1  0  0  0
  4  5  1  0  0  0
  4  8  1  0  0  0
  5  6  1  0  0  0
  6  7  1  0  0  0
  8  9  2  0  0  0
  8 10  1  0  0  0
 10 12  1  0  0  0
 12 13  2  0  0  0
 12 21  1  0  0  0
 13 14  1  0  0  0
 14 15  1  0  0  0
 14 19  2  0  0  0
 15 16  1  0  0  0
 16 17  1  0  0  0
 16 18  2  0  0  0
 18 19  1  0  0  0
 19 20  1  0  0  0
 20 21  2  0  0  0
  1  2  2  0  0  0
  1 24  1  0  0  0
 24 25  1  0  0  0
 24 37  1  0  0  0
 25 27  1  0  0  0
 27 28  2  0  0  0
 27 29  2  0  0  0
 27 30  1  0  0  0
 30 31  1  0  0  0
 31 36  1  0  0  0
 31 32  2  0  0  0
 36 35  2  0  0  0
 35 34  1  0  0  0
 34 33  2  0  0  0
 33 32  1  0  0  0
 37 38  1  0  0  0
 38 39  1  0  0  0
 38 40  1  0  0  0
 39 41  1  0  0  0
 41 43  1  0  0  0
 43 42  1  0  0  0
 42 40  1  0  0  0
 25 26  1  0  0  0
 10 11  1  0  0  0
 17 22  1  0  0  0
 17 23  1  0  0  0
M  END
> <minimizedAffinity>
-10.21713

$$$$
1SB1_165_H_1001


 43 47  0  0  0  0  0  0  0  0999 V2000
   10.7261  -14.1258   13.9034 C   0  0  0  0  0  0  0  0  0  0  0  0
   11.4869  -13.3365   13.2598 O   0  0  0  0  0  0  0  0  0  0  0  0
   10.1995  -13.7160   15.2651 N   0  0  0  0  0  0  0  0  0  0  0  0
   10.5551  -12.4322   15.8719 C   0  0  0  0  0  0  0  0  0  0  0  0
    9.5617  -12.6607   17.0682 C   0  0  0  0  0  0  0  0  0  0  0  0
    8.4217  -13.3887   16.4194 C   0  0  0  0  0  0  0  0  0  0  0  0
    9.2285  -14.5834   15.9687 C   0  0  0  0  0  0  0  0  0  0  0  0
   11.9594  -12.2897   16.4616 C   0  0  0  0  0  0  0  0  0  0  0  0
   12.0803  -11.5920   17.4878 O   0  0  0  0  0  0  0  0  0  0  0  0
   13.0670  -12.9774   15.7550 N   0  0  0  0  0  0  0  0  0  0  0  0
   12.8862  -13.5197   14.9535 H   0  0  0  0  0  0  0  0  0  0  0  0
   14.4623  -12.8368   16.2756 C   0  0  0  0  0  0  0  0  0  0  0  0
   14.9824  -11.4687   15.7224 C   0  0  0  0  0  0  0  0  0  0  0  0
   15.8482  -11.5371   14.4706 C   0  0  0  0  0  0  0  0  0  0  0  0
   16.3062  -10.0695   13.6956 S   0  0  0  0  0  0  0  0  0  0  0  0
   17.1830  -11.0285   12.4270 C   0  0  0  0  0  0  0  0  0  0  0  0
   17.8291  -10.4028   11.3929 N   0  0  0  0  0  0  0  0  0  0  0  0
   17.1012  -12.3135   12.6387 N   0  0  0  0  0  0  0  0  0  0  0  0
   16.3079  -12.6880   13.8420 C   0  0  0  0  0  0  0  0  0  0  0  0
   16.0426  -14.1124   14.3281 C   0  0  0  0  0  0  0  0  0  0  0  0
   15.3226  -14.1614   15.8072 C   0  0  0  0  0  0  0  0  0  0  0  0
   17.8255   -9.4201   11.3328 H   0  0  0  0  0  0  0  0  0  0  0  0
   18.2969  -10.9360   10.7101 H   0  0  0  0  0  0  0  0  0  0  0  0
   10.2268  -15.5101   13.2782 C   0  0  0  0  0  0  0  0  0  0  0  0
   11.0207  -16.4998   14.2747 N   0  0  0  0  0  0  0  0  0  0  0  0
   10.8327  -17.4370   13.9187 H   0  0  0  0  0  0  0  0  0  0  0  0
   12.6948  -16.4878   14.6201 S   0  0  0  0  0  0  0  0  0  0  0  0
   13.7872  -16.6117   13.7295 O   0  0  0  0  0  0  0  0  0  0  0  0
   12.9081  -16.8300   15.9909 O   0  0  0  0  0  0  0  0  0  0  0  0
   12.3212  -18.2985   14.2204 C   0  0  0  0  0  0  0  0  0  0  0  0
   12.8867  -18.8708   12.8960 C   0  0  0  0  0  0  0  0  0  0  0  0
   12.1962  -18.7523   11.5987 C   0  0  0  0  0  0  0  0  0  0  0  0
   12.8169  -19.3822   10.3754 C   0  0  0  0  0  0  0  0  0  0  0  0
   14.1004  -20.1104   10.4803 C   0  0  0  0  0  0  0  0  0  0  0  0
   14.7942  -20.2139   11.8031 C   0  0  0  0  0  0  0  0  0  0  0  0
   14.1908  -19.6009   12.9970 C   0  0  0  0  0  0  0  0  0  0  0  0
   10.6559  -15.6428   11.7564 C   0  0  0  0  0  0  0  0  0  0  0  0
    9.1015  -15.2120   11.1750 C   0  0  0  0  0  0  0  0  0  0  0  0
    8.3427  -16.3769   10.2316 C   0  0  0  0  0  0  0  0  0  0  0  0
    9.0424  -13.8652   10.3789 C   0  0  0  0  0  0  0  0  0  0  0  0
    6.8608  -15.9617    9.7337 C   0  0  0  0  0  0  0  0  0  0  0  0
    7.5570  -13.3915   10.0384 C   0  0  0  0  0  0  0  0  0  0  0  0
    6.7745  -14.4685    9.1620 C   0  0  0  0  0  0  0  0  0  0  0  0
  3  4  1  0  0  0
  3  7  1  0  0  0
  3  1  1  0  0  0
  4  5  1  0  0  0
  4  8  1  0  0  0
  5  6  1  0  0  0
  6  7  1  0  0  0
  8  9  2  0  0  0
  8 10  1  0  0  0
 10 12  1  0  0  0
 12 13  2  0  0  0
 12 21  1  0  0  0
 13 14  1  0  0  0
 14 15  1  0  0  0
 14 19  2  0  0  0
 15 16  1  0  0  0
 16 17  1  0  0  0
 16 18  2  0  0  0
 18 19  1  0  0  0
 19 20  1  0  0  0
 20 21  2  0  0  0
  1  2  2  0  0  0
  1 24  1  0  0  0
 24 25  1  0  0  0
 24 37  1  0  0  0
 25 27  1  0  0  0
 27 28  2  0  0  0
 27 29  2  0  0  0
 27 30  1  0  0  0
 30 31  1  0  0  0
 31 36  1  0  0  0
 31 32  2  0  0  0
 36 35  2  0  0  0
 35 34  1  0  0  0
 34 33  2  0  0  0
 33 32  1  0  0  0
 37 38  1  0  0  0
 38 39  1  0  0  0
 38 40  1  0  0  0
 39 41  1  0  0  0
 41 43  1  0  0  0
 43 42  1  0  0  0
 42 40  1  0  0  0
 25 26  1  0  0  0
 10 11  1  0  0  0
 17 22  1  0  0  0
 17 23  1  0  0  0
M  END
> <minimizedAffinity>
-9.80127

$$$$
1SB1_165_H_1001


 43 47  0  0  0  0  0  0  0  0999 V2000
   11.2870  -13.8949   13.5224 C   0  0  0  0  0  0  0  0  0  0  0  0
   12.3237  -13.2124   13.2482 O   0  0  0  0  0  0  0  0  0  0  0  0
   10.4302  -13.5122   14.7136 N   0  0  0  0  0  0  0  0  0  0  0  0
   10.7721  -12.3774   15.5730 C   0  0  0  0  0  0  0  0  0  0  0  0
    9.4310  -12.5154   16.3808 C   0  0  0  0  0  0  0  0  0  0  0  0
    8.4535  -12.9533   15.3305 C   0  0  0  0  0  0  0  0  0  0  0  0
    9.1657  -14.2363   14.9720 C   0  0  0  0  0  0  0  0  0  0  0  0
   11.9250  -12.5573   16.5622 C   0  0  0  0  0  0  0  0  0  0  0  0
   12.0786  -11.6733   17.4278 O   0  0  0  0  0  0  0  0  0  0  0  0
   12.7787  -13.7590   16.4008 N   0  0  0  0  0  0  0  0  0  0  0  0
   12.5841  -14.4176   15.6954 H   0  0  0  0  0  0  0  0  0  0  0  0
   13.9393  -13.9578   17.3233 C   0  0  0  0  0  0  0  0  0  0  0  0
   15.1396  -14.3692   16.4078 C   0  0  0  0  0  0  0  0  0  0  0  0
   15.4302  -15.8618   16.3132 C   0  0  0  0  0  0  0  0  0  0  0  0
   16.6123  -16.4088   15.1874 S   0  0  0  0  0  0  0  0  0  0  0  0
   16.2843  -18.1212   15.6951 C   0  0  0  0  0  0  0  0  0  0  0  0
   16.9539  -19.1676   15.1162 N   0  0  0  0  0  0  0  0  0  0  0  0
   15.3729  -18.1915   16.6263 N   0  0  0  0  0  0  0  0  0  0  0  0
   14.8125  -16.8744   17.0372 C   0  0  0  0  0  0  0  0  0  0  0  0
   13.7338  -16.6552   18.0974 C   0  0  0  0  0  0  0  0  0  0  0  0
   13.5074  -15.0666   18.4628 C   0  0  0  0  0  0  0  0  0  0  0  0
   17.6262  -18.9958   14.4178 H   0  0  0  0  0  0  0  0  0  0  0  0
   16.7626  -20.0911   15.3988 H   0  0  0  0  0  0  0  0  0  0  0  0
   10.8007  -15.0989   12.5894 C   0  0  0  0  0  0  0  0  0  0  0  0
   12.1771  -15.9404   12.5820 N   0  0  0  0  0  0  0  0  0  0  0  0
   12.9147  -15.2371   12.5397 H   0  0  0  0  0  0  0  0  0  0  0  0
   12.7050  -17.0615   13.7596 S   0  0  0  0  0  0  0  0  0  0  0  0
   13.4543  -18.2488   13.5839 O   0  0  0  0  0  0  0  0  0  0  0  0
   11.8944  -16.9501   14.9309 O   0  0  0  0  0  0  0  0  0  0  0  0
   11.3008  -17.9604   12.8664 C   0  0  0  0  0  0  0  0  0  0  0  0
   10.1469  -18.5253   13.7329 C   0  0  0  0  0  0  0  0  0  0  0  0
    8.8639  -17.8271   13.9335 C   0  0  0  0  0  0  0  0  0  0  0  0
    7.8215  -18.4483   14.8312 C   0  0  0  0  0  0  0  0  0  0  0  0
    8.0874  -19.7399   15.5018 C   0  0  0  0  0  0  0  0  0  0  0  0
    9.3916  -20.4413   15.2806 C   0  0  0  0  0  0  0  0  0  0  0  0
   10.4093  -19.8375   14.4061 C   0  0  0  0  0  0  0  0  0  0  0  0
   10.3542  -14.5755   11.1597 C   0  0  0  0  0  0  0  0  0  0  0  0
    8.7102  -14.9946   11.4074 C   0  0  0  0  0  0  0  0  0  0  0  0
    8.1650  -16.3093   10.5145 C   0  0  0  0  0  0  0  0  0  0  0  0
    7.6888  -13.8296   11.1815 C   0  0  0  0  0  0  0  0  0  0  0  0
    6.6240  -16.7093   10.8006 C   0  0  0  0  0  0  0  0  0  0  0  0
    6.1993  -14.1942   11.6235 C   0  0  0  0  0  0  0  0  0  0  0  0
    5.6324  -15.4523   10.8261 C   0  0  0  0  0  0  0  0  0  0  0  0
  3  4  1  0  0  0
  3  7  1  0  0  0
  3  1  1  0  0  0
  4  5  1  0  0  0
  4  8  1  0  0  0
  5  6  1  0  0  0
  6  7  1  0  0  0
  8  9  2  0  0  0
  8 10  1  0  0  0
 10 12  1  0  0  0
 12 13  2  0  0  0
 12 21  1  0  0  0
 13 14  1  0  0  0
 14 15  1  0  0  0
 14 19  2  0  0  0
 15 16  1  0  0  0
 16 17  1  0  0  0
 16 18  2  0  0  0
 18 19  1  0  0  0
 19 20  1  0  0  0
 20 21  2  0  0  0
  1  2  2  0  0  0
  1 24  1  0  0  0
 24 25  1  0  0  0
 24 37  1  0  0  0
 25 27  1  0  0  0
 27 28  2  0  0  0
 27 29  2  0  0  0
 27 30  1  0  0  0
 30 31  1  0  0  0
 31 36  1  0  0  0
 31 32  2  0  0  0
 36 35  2  0  0  0
 35 34  1  0  0  0
 34 33  2  0  0  0
 33 32  1  0  0  0
 37 38  1  0  0  0
 38 39  1  0  0  0
 38 40  1  0  0  0
 39 41  1  0  0  0
 41 43  1  0  0  0
 43 42  1  0  0  0
 42 40  1  0  0  0
 25 26  1  0  0  0
 10 11  1  0  0  0
 17 22  1  0  0  0
 17 23  1  0  0  0
M  END
> <minimizedAffinity>
-9.03204

$$$$
1SB1_165_H_1001


 43 47  0  0  0  0  0  0  0  0999 V2000
   10.9647  -14.0417   13.5426 C   0  0  0  0  0  0  0  0  0  0  0  0
   11.6371  -13.1226   12.9778 O   0  0  0  0  0  0  0  0  0  0  0  0
   10.4028  -13.8141   14.9325 N   0  0  0  0  0  0  0  0  0  0  0  0
   10.6248  -12.5606   15.6553 C   0  0  0  0  0  0  0  0  0  0  0  0
    9.6646  -12.9988   16.8198 C   0  0  0  0  0  0  0  0  0  0  0  0
    8.6044  -13.7794   16.1008 C   0  0  0  0  0  0  0  0  0  0  0  0
    9.5297  -14.8380   15.5487 C   0  0  0  0  0  0  0  0  0  0  0  0
   12.0086  -12.3270   16.2642 C   0  0  0  0  0  0  0  0  0  0  0  0
   12.1099  -11.4328   17.1270 O   0  0  0  0  0  0  0  0  0  0  0  0
   13.1222  -13.1700   15.7659 N   0  0  0  0  0  0  0  0  0  0  0  0
   12.9570  -13.8641   15.0876 H   0  0  0  0  0  0  0  0  0  0  0  0
   14.4996  -12.9525   16.3072 C   0  0  0  0  0  0  0  0  0  0  0  0
   14.9624  -11.5702   15.7384 C   0  0  0  0  0  0  0  0  0  0  0  0
   15.8523  -11.6176   14.5027 C   0  0  0  0  0  0  0  0  0  0  0  0
   16.2521  -10.1428   13.7093 S   0  0  0  0  0  0  0  0  0  0  0  0
   17.1967  -11.0794   12.4730 C   0  0  0  0  0  0  0  0  0  0  0  0
   17.8297  -10.4406   11.4387 N   0  0  0  0  0  0  0  0  0  0  0  0
   17.1737  -12.3630   12.7062 N   0  0  0  0  0  0  0  0  0  0  0  0
   16.3784  -12.7552   13.9026 C   0  0  0  0  0  0  0  0  0  0  0  0
   16.1741  -14.1824   14.4096 C   0  0  0  0  0  0  0  0  0  0  0  0
   15.4314  -14.2413   15.8771 C   0  0  0  0  0  0  0  0  0  0  0  0
   17.7794   -9.4604   11.3610 H   0  0  0  0  0  0  0  0  0  0  0  0
   18.3348  -10.9618   10.7736 H   0  0  0  0  0  0  0  0  0  0  0  0
   10.6101  -15.4080   12.7916 C   0  0  0  0  0  0  0  0  0  0  0  0
   12.0467  -16.1247   12.9503 N   0  0  0  0  0  0  0  0  0  0  0  0
   12.7221  -15.3604   12.9587 H   0  0  0  0  0  0  0  0  0  0  0  0
   12.5444  -17.1656   14.2116 S   0  0  0  0  0  0  0  0  0  0  0  0
   13.3525  -18.3250   14.1409 O   0  0  0  0  0  0  0  0  0  0  0  0
   11.6564  -17.0369   15.3236 O   0  0  0  0  0  0  0  0  0  0  0  0
   11.2393  -18.1668   13.2779 C   0  0  0  0  0  0  0  0  0  0  0  0
   10.1094  -18.8234   14.1108 C   0  0  0  0  0  0  0  0  0  0  0  0
    8.7530  -18.2578   14.2294 C   0  0  0  0  0  0  0  0  0  0  0  0
    7.7383  -18.9578   15.1005 C   0  0  0  0  0  0  0  0  0  0  0  0
    8.1036  -20.1939   15.8266 C   0  0  0  0  0  0  0  0  0  0  0  0
    9.4824  -20.7611   15.6885 C   0  0  0  0  0  0  0  0  0  0  0  0
   10.4732  -20.0803   14.8401 C   0  0  0  0  0  0  0  0  0  0  0  0
   10.1812  -15.1436   11.2870 C   0  0  0  0  0  0  0  0  0  0  0  0
    8.5521  -15.6007   11.5645 C   0  0  0  0  0  0  0  0  0  0  0  0
    8.0869  -17.0532   10.8596 C   0  0  0  0  0  0  0  0  0  0  0  0
    7.4855  -14.5293   11.1573 C   0  0  0  0  0  0  0  0  0  0  0  0
    6.5590  -17.4810   11.1741 C   0  0  0  0  0  0  0  0  0  0  0  0
    6.0038  -14.8974   11.6218 C   0  0  0  0  0  0  0  0  0  0  0  0
    5.5122  -16.2815   11.0030 C   0  0  0  0  0  0  0  0  0  0  0  0
  3  4  1  0  0  0
  3  7  1  0  0  0
  3  1  1  0  0  0
  4  5  1  0  0  0
  4  8  1  0  0  0
  5  6  1  0  0  0
  6  7  1  0  0  0
  8  9  2  0  0  0
  8 10  1  0  0  0
 10 12  1  0  0  0
 12 13  2  0  0  0
 12 21  1  0  0  0
 13 14  1  0  0  0
 14 15  1  0  0  0
 14 19  2  0  0  0
 15 16  1  0  0  0
 16 17  1  0  0  0
 16 18  2  0  0  0
 18 19  1  0  0  0
 19 20  1  0  0  0
 20 21  2  0  0  0
  1  2  2  0  0  0
  1 24  1  0  0  0
 24 25  1  0  0  0
 24 37  1  0  0  0
 25 27  1  0  0  0
 27 28  2  0  0  0
 27 29  2  0  0  0
 27 30  1  0  0  0
 30 31  1  0  0  0
 31 36  1  0  0  0
 31 32  2  0  0  0
 36 35  2  0  0  0
 35 34  1  0  0  0
 34 33  2  0  0  0
 33 32  1  0  0  0
 37 38  1  0  0  0
 38 39  1  0  0  0
 38 40  1  0  0  0
 39 41  1  0  0  0
 41 43  1  0  0  0
 43 42  1  0  0  0
 42 40  1  0  0  0
 25 26  1  0  0  0
 10 11  1  0  0  0
 17 22  1  0  0  0
 17 23  1  0  0  0
M  END
> <minimizedAffinity>
-8.99678

$$$$
1SB1_165_H_1001


 43 47  0  0  0  0  0  0  0  0999 V2000
   11.4495  -13.9150   13.6013 C   0  0  0  0  0  0  0  0  0  0  0  0
   12.4242  -13.1326   13.3693 O   0  0  0  0  0  0  0  0  0  0  0  0
   10.4921  -13.6048   14.7356 N   0  0  0  0  0  0  0  0  0  0  0  0
   10.6660  -12.4272   15.5876 C   0  0  0  0  0  0  0  0  0  0  0  0
    9.3029  -12.6913   16.3240 C   0  0  0  0  0  0  0  0  0  0  0  0
    8.4366  -13.2452   15.2317 C   0  0  0  0  0  0  0  0  0  0  0  0
    9.2964  -14.4525   14.9403 C   0  0  0  0  0  0  0  0  0  0  0  0
   11.7737  -12.4703   16.6418 C   0  0  0  0  0  0  0  0  0  0  0  0
   11.7965  -11.5521   17.4848 O   0  0  0  0  0  0  0  0  0  0  0  0
   12.7425  -13.5904   16.5653 N   0  0  0  0  0  0  0  0  0  0  0  0
   12.6492  -14.2837   15.8726 H   0  0  0  0  0  0  0  0  0  0  0  0
   13.8633  -13.6535   17.5540 C   0  0  0  0  0  0  0  0  0  0  0  0
   15.1097  -14.1466   16.7469 C   0  0  0  0  0  0  0  0  0  0  0  0
   15.4270  -15.6335   16.8453 C   0  0  0  0  0  0  0  0  0  0  0  0
   16.6669  -16.2868   15.8452 S   0  0  0  0  0  0  0  0  0  0  0  0
   16.3425  -17.9326   16.5409 C   0  0  0  0  0  0  0  0  0  0  0  0
   17.0534  -19.0267   16.1215 N   0  0  0  0  0  0  0  0  0  0  0  0
   15.3913  -17.9097   17.4339 N   0  0  0  0  0  0  0  0  0  0  0  0
   14.7929  -16.5648   17.6588 C   0  0  0  0  0  0  0  0  0  0  0  0
   13.6644  -16.2426   18.6377 C   0  0  0  0  0  0  0  0  0  0  0  0
   13.3975  -14.6266   18.7990 C   0  0  0  0  0  0  0  0  0  0  0  0
   17.7538  -18.9259   15.4370 H   0  0  0  0  0  0  0  0  0  0  0  0
   16.8638  -19.9135   16.5048 H   0  0  0  0  0  0  0  0  0  0  0  0
   11.1434  -15.1776   12.6694 C   0  0  0  0  0  0  0  0  0  0  0  0
   12.5513  -15.9409   12.8648 N   0  0  0  0  0  0  0  0  0  0  0  0
   13.2604  -15.2159   12.7557 H   0  0  0  0  0  0  0  0  0  0  0  0
   13.0522  -16.8451   14.2263 S   0  0  0  0  0  0  0  0  0  0  0  0
   13.8411  -18.0187   14.2729 O   0  0  0  0  0  0  0  0  0  0  0  0
   12.1833  -16.5797   15.3292 O   0  0  0  0  0  0  0  0  0  0  0  0
   11.7176  -17.9206   13.4264 C   0  0  0  0  0  0  0  0  0  0  0  0
   12.0579  -18.5963   12.0740 C   0  0  0  0  0  0  0  0  0  0  0  0
   13.3544  -19.2378   11.7892 C   0  0  0  0  0  0  0  0  0  0  0  0
   13.5963  -19.8317   10.4227 C   0  0  0  0  0  0  0  0  0  0  0  0
   12.5451  -19.7672    9.3839 C   0  0  0  0  0  0  0  0  0  0  0  0
   11.2301  -19.1207    9.6915 C   0  0  0  0  0  0  0  0  0  0  0  0
   10.9922  -18.5409   11.0227 C   0  0  0  0  0  0  0  0  0  0  0  0
   10.8501  -14.7328   11.1749 C   0  0  0  0  0  0  0  0  0  0  0  0
    9.1664  -15.0273   11.3103 C   0  0  0  0  0  0  0  0  0  0  0  0
    8.5331  -16.0924   10.1757 C   0  0  0  0  0  0  0  0  0  0  0  0
    8.2667  -13.7460   11.2910 C   0  0  0  0  0  0  0  0  0  0  0  0
    6.9524  -16.3854   10.3543 C   0  0  0  0  0  0  0  0  0  0  0  0
    6.7350  -14.0385   11.6302 C   0  0  0  0  0  0  0  0  0  0  0  0
    6.0820  -15.0640   10.5996 C   0  0  0  0  0  0  0  0  0  0  0  0
  3  4  1  0  0  0
  3  7  1  0  0  0
  3  1  1  0  0  0
  4  5  1  0  0  0
  4  8  1  0  0  0
  5  6  1  0  0  0
  6  7  1  0  0  0
  8  9  2  0  0  0
  8 10  1  0  0  0
 10 12  1  0  0  0
 12 13  2  0  0  0
 12 21  1  0  0  0
 13 14  1  0  0  0
 14 15  1  0  0  0
 14 19  2  0  0  0
 15 16  1  0  0  0
 16 17  1  0  0  0
 16 18  2  0  0  0
 18 19  1  0  0  0
 19 20  1  0  0  0
 20 21  2  0  0  0
  1  2  2  0  0  0
  1 24  1  0  0  0
 24 25  1  0  0  0
 24 37  1  0  0  0
 25 27  1  0  0  0
 27 28  2  0  0  0
 27 29  2  0  0  0
 27 30  1  0  0  0
 30 31  1  0  0  0
 31 36  1  0  0  0
 31 32  2  0  0  0
 36 35  2  0  0  0
 35 34  1  0  0  0
 34 33  2  0  0  0
 33 32  1  0  0  0
 37 38  1  0  0  0
 38 39  1  0  0  0
 38 40  1  0  0  0
 39 41  1  0  0  0
 41 43  1  0  0  0
 43 42  1  0  0  0
 42 40  1  0  0  0
 25 26  1  0  0  0
 10 11  1  0  0  0
 17 22  1  0  0  0
 17 23  1  0  0  0
M  END
> <minimizedAffinity>
-8.98488

$$$$
1SB1_165_H_1001


 43 47  0  0  0  0  0  0  0  0999 V2000
   12.2059  -15.5774   16.0173 C   0  0  0  0  0  0  0  0  0  0  0  0
   11.6052  -16.3692   15.2247 O   0  0  0  0  0  0  0  0  0  0  0  0
   11.6214  -14.2057   16.2930 N   0  0  0  0  0  0  0  0  0  0  0  0
   10.3814  -13.7569   15.6574 C   0  0  0  0  0  0  0  0  0  0  0  0
   10.3540  -12.4404   16.5156 C   0  0  0  0  0  0  0  0  0  0  0  0
   10.9144  -12.8901   17.8325 C   0  0  0  0  0  0  0  0  0  0  0  0
   12.2583  -13.3239   17.2965 C   0  0  0  0  0  0  0  0  0  0  0  0
   10.4461  -13.3447   14.1857 C   0  0  0  0  0  0  0  0  0  0  0  0
   10.5805  -12.1303   13.9376 O   0  0  0  0  0  0  0  0  0  0  0  0
   10.3252  -14.4203   13.1720 N   0  0  0  0  0  0  0  0  0  0  0  0
   10.2315  -15.3598   13.4509 H   0  0  0  0  0  0  0  0  0  0  0  0
   10.3475  -14.0597   11.7204 C   0  0  0  0  0  0  0  0  0  0  0  0
    8.8582  -13.7758   11.3339 C   0  0  0  0  0  0  0  0  0  0  0  0
    8.1101  -14.9200   10.6615 C   0  0  0  0  0  0  0  0  0  0  0  0
    6.4210  -14.7527   10.3726 S   0  0  0  0  0  0  0  0  0  0  0  0
    6.3905  -16.4237    9.6620 C   0  0  0  0  0  0  0  0  0  0  0  0
    5.2224  -16.9698    9.1976 N   0  0  0  0  0  0  0  0  0  0  0  0
    7.5698  -16.9819    9.6687 N   0  0  0  0  0  0  0  0  0  0  0  0
    8.6446  -16.1390   10.2620 C   0  0  0  0  0  0  0  0  0  0  0  0
   10.1135  -16.5358   10.4046 C   0  0  0  0  0  0  0  0  0  0  0  0
   11.0696  -15.2894   10.8953 C   0  0  0  0  0  0  0  0  0  0  0  0
    4.3854  -16.4535    9.2429 H   0  0  0  0  0  0  0  0  0  0  0  0
    5.2203  -17.8785    8.8186 H   0  0  0  0  0  0  0  0  0  0  0  0
   13.5208  -16.0194   16.8123 C   0  0  0  0  0  0  0  0  0  0  0  0
   14.5896  -15.7539   15.6333 N   0  0  0  0  0  0  0  0  0  0  0  0
   14.2323  -14.9398   15.1334 H   0  0  0  0  0  0  0  0  0  0  0  0
   16.2648  -15.4625   15.8085 S   0  0  0  0  0  0  0  0  0  0  0  0
   16.9311  -14.2460   16.0880 O   0  0  0  0  0  0  0  0  0  0  0  0
   17.0061  -16.4961   15.1574 O   0  0  0  0  0  0  0  0  0  0  0  0
   15.8394  -14.7023   14.1296 C   0  0  0  0  0  0  0  0  0  0  0  0
   15.6961  -13.1610   14.0571 C   0  0  0  0  0  0  0  0  0  0  0  0
   16.7824  -12.2629   13.6244 C   0  0  0  0  0  0  0  0  0  0  0  0
   16.5491  -10.7716   13.6294 C   0  0  0  0  0  0  0  0  0  0  0  0
   15.2472  -10.2209   14.0657 C   0  0  0  0  0  0  0  0  0  0  0  0
   14.1507  -11.1465   14.4934 C   0  0  0  0  0  0  0  0  0  0  0  0
   14.3759  -12.6005   14.4895 C   0  0  0  0  0  0  0  0  0  0  0  0
   13.4316  -17.5341   17.2763 C   0  0  0  0  0  0  0  0  0  0  0  0
   14.3774  -17.2655   18.6809 C   0  0  0  0  0  0  0  0  0  0  0  0
   15.9080  -17.9582   18.6556 C   0  0  0  0  0  0  0  0  0  0  0  0
   13.7009  -17.6937   20.0264 C   0  0  0  0  0  0  0  0  0  0  0  0
   16.7939  -17.6520   19.9739 C   0  0  0  0  0  0  0  0  0  0  0  0
   14.5144  -17.2378   21.3214 C   0  0  0  0  0  0  0  0  0  0  0  0
   15.9877  -17.8454   21.3438 C   0  0  0  0  0  0  0  0  0  0  0  0
  3  4  1  0  0  0
  3  7  1  0  0  0
  3  1  1  0  0  0
  4  5  1  0  0  0
  4  8  1  0  0  0
  5  6  1  0  0  0
  6  7  1  0  0  0
  8  9  2  0  0  0
  8 10  1  0  0  0
 10 12  1  0  0  0
 12 13  2  0  0  0
 12 21  1  0  0  0
 13 14  1  0  0  0
 14 15  1  0  0  0
 14 19  2  0  0  0
 15 16  1  0  0  0
 16 17  1  0  0  0
 16 18  2  0  0  0
 18 19  1  0  0  0
 19 20  1  0  0  0
 20 21  2  0  0  0
  1  2  2  0  0  0
  1 24  1  0  0  0
 24 25  1  0  0  0
 24 37  1  0  0  0
 25 27  1  0  0  0
 27 28  2  0  0  0
 27 29  2  0  0  0
 27 30  1  0  0  0
 30 31  1  0  0  0
 31 36  1  0  0  0
 31 32  2  0  0  0
 36 35  2  0  0  0
 35 34  1  0  0  0
 34 33  2  0  0  0
 33 32  1  0  0  0
 37 38  1  0  0  0
 38 39  1  0  0  0
 38 40  1  0  0  0
 39 41  1  0  0  0
 41 43  1  0  0  0
 43 42  1  0  0  0
 42 40  1  0  0  0
 25 26  1  0  0  0
 10 11  1  0  0  0
 17 22  1  0  0  0
 17 23  1  0  0  0
M  END
> <minimizedAffinity>
-8.63734

$$$$
1SB1_165_H_1001


 43 47  0  0  0  0  0  0  0  0999 V2000
   10.0140  -13.2509   14.7212 C   0  0  0  0  0  0  0  0  0  0  0  0
   10.8709  -12.4996   14.1579 O   0  0  0  0  0  0  0  0  0  0  0  0
    9.8148  -13.1676   16.2221 N   0  0  0  0  0  0  0  0  0  0  0  0
   10.5966  -12.2487   17.0512 C   0  0  0  0  0  0  0  0  0  0  0  0
    9.7519  -12.5974   18.3298 C   0  0  0  0  0  0  0  0  0  0  0  0
    8.3758  -12.8098   17.7717 C   0  0  0  0  0  0  0  0  0  0  0  0
    8.7445  -13.9612   16.8663 C   0  0  0  0  0  0  0  0  0  0  0  0
   12.0510  -12.6200   17.3459 C   0  0  0  0  0  0  0  0  0  0  0  0
   12.2751  -13.2736   18.3836 O   0  0  0  0  0  0  0  0  0  0  0  0
   13.0798  -12.1569   16.3835 N   0  0  0  0  0  0  0  0  0  0  0  0
   12.8190  -11.6521   15.5795 H   0  0  0  0  0  0  0  0  0  0  0  0
   14.5189  -12.4663   16.6499 C   0  0  0  0  0  0  0  0  0  0  0  0
   15.3248  -11.2604   16.0630 C   0  0  0  0  0  0  0  0  0  0  0  0
   15.9182  -11.4627   14.6744 C   0  0  0  0  0  0  0  0  0  0  0  0
   16.6594  -10.1246   13.8842 S   0  0  0  0  0  0  0  0  0  0  0  0
   16.9967  -11.1786   12.4444 C   0  0  0  0  0  0  0  0  0  0  0  0
   17.6240  -10.6749   11.3348 N   0  0  0  0  0  0  0  0  0  0  0  0
   16.5732  -12.4002   12.6199 N   0  0  0  0  0  0  0  0  0  0  0  0
   15.9090  -12.6370   13.9316 C   0  0  0  0  0  0  0  0  0  0  0  0
   15.3156  -13.9636   14.4047 C   0  0  0  0  0  0  0  0  0  0  0  0
   14.8612  -13.9348   15.9862 C   0  0  0  0  0  0  0  0  0  0  0  0
   17.9018   -9.7307   11.3125 H   0  0  0  0  0  0  0  0  0  0  0  0
   17.7966  -11.2572   10.5600 H   0  0  0  0  0  0  0  0  0  0  0  0
    9.0650  -14.2240   13.8793 C   0  0  0  0  0  0  0  0  0  0  0  0
   10.0912  -14.5445   12.6763 N   0  0  0  0  0  0  0  0  0  0  0  0
   10.9383  -14.0259   12.9086 H   0  0  0  0  0  0  0  0  0  0  0  0
   10.6410  -16.0833   12.1743 S   0  0  0  0  0  0  0  0  0  0  0  0
   10.6346  -17.3057   12.8869 O   0  0  0  0  0  0  0  0  0  0  0  0
   11.5799  -15.9368   11.1072 O   0  0  0  0  0  0  0  0  0  0  0  0
   11.9505  -15.5091   13.4127 C   0  0  0  0  0  0  0  0  0  0  0  0
   12.7189  -16.6005   14.1999 C   0  0  0  0  0  0  0  0  0  0  0  0
   12.4482  -16.9270   15.6119 C   0  0  0  0  0  0  0  0  0  0  0  0
   13.2842  -17.9814   16.2959 C   0  0  0  0  0  0  0  0  0  0  0  0
   14.3621  -18.6749   15.5572 C   0  0  0  0  0  0  0  0  0  0  0  0
   14.6185  -18.3389   14.1208 C   0  0  0  0  0  0  0  0  0  0  0  0
   13.8050  -17.3112   13.4521 C   0  0  0  0  0  0  0  0  0  0  0  0
    7.7405  -13.4811   13.4196 C   0  0  0  0  0  0  0  0  0  0  0  0
    7.7587  -14.1964   11.8615 C   0  0  0  0  0  0  0  0  0  0  0  0
    7.7453  -13.1134   10.5771 C   0  0  0  0  0  0  0  0  0  0  0  0
    6.6192  -15.2372   11.5977 C   0  0  0  0  0  0  0  0  0  0  0  0
    7.8072  -13.8145    9.1207 C   0  0  0  0  0  0  0  0  0  0  0  0
    6.7900  -16.0342   10.2258 C   0  0  0  0  0  0  0  0  0  0  0  0
    6.8085  -15.0565    8.9672 C   0  0  0  0  0  0  0  0  0  0  0  0
  3  4  1  0  0  0
  3  7  1  0  0  0
  3  1  1  0  0  0
  4  5  1  0  0  0
  4  8  1  0  0  0
  5  6  1  0  0  0
  6  7  1  0  0  0
  8  9  2  0  0  0
  8 10  1  0  0  0
 10 12  1  0  0  0
 12 13  2  0  0  0
 12 21  1  0  0  0
 13 14  1  0  0  0
 14 15  1  0  0  0
 14 19  2  0  0  0
 15 16  1  0  0  0
 16 17  1  0  0  0
 16 18  2  0  0  0
 18 19  1  0  0  0
 19 20  1  0  0  0
 20 21  2  0  0  0
  1  2  2  0  0  0
  1 24  1  0  0  0
 24 25  1  0  0  0
 24 37  1  0  0  0
 25 27  1  0  0  0
 27 28  2  0  0  0
 27 29  2  0  0  0
 27 30  1  0  0  0
 30 31  1  0  0  0
 31 36  1  0  0  0
 31 32  2  0  0  0
 36 35  2  0  0  0
 35 34  1  0  0  0
 34 33  2  0  0  0
 33 32  1  0  0  0
 37 38  1  0  0  0
 38 39  1  0  0  0
 38 40  1  0  0  0
 39 41  1  0  0  0
 41 43  1  0  0  0
 43 42  1  0  0  0
 42 40  1  0  0  0
 25 26  1  0  0  0
 10 11  1  0  0  0
 17 22  1  0  0  0
 17 23  1  0  0  0
M  END
> <minimizedAffinity>
-8.53882

$$$$
1SB1_165_H_1001


 43 47  0  0  0  0  0  0  0  0999 V2000
   11.2237  -15.8338   13.1387 C   0  0  0  0  0  0  0  0  0  0  0  0
   11.3415  -16.2934   14.3180 O   0  0  0  0  0  0  0  0  0  0  0  0
   11.6221  -16.6939   11.9551 N   0  0  0  0  0  0  0  0  0  0  0  0
   12.1556  -18.0455   12.1325 C   0  0  0  0  0  0  0  0  0  0  0  0
   12.1479  -18.3105   10.5833 C   0  0  0  0  0  0  0  0  0  0  0  0
   10.9263  -17.5702   10.1252 C   0  0  0  0  0  0  0  0  0  0  0  0
   11.3856  -16.2044   10.5786 C   0  0  0  0  0  0  0  0  0  0  0  0
   13.6010  -18.1814   12.6147 C   0  0  0  0  0  0  0  0  0  0  0  0
   14.3373  -18.9755   11.9971 O   0  0  0  0  0  0  0  0  0  0  0  0
   14.0051  -17.3715   13.7894 N   0  0  0  0  0  0  0  0  0  0  0  0
   13.3643  -16.7579   14.2161 H   0  0  0  0  0  0  0  0  0  0  0  0
   15.3988  -17.4987   14.3177 C   0  0  0  0  0  0  0  0  0  0  0  0
   15.3380  -18.6277   15.3993 C   0  0  0  0  0  0  0  0  0  0  0  0
   15.2241  -18.1646   16.8463 C   0  0  0  0  0  0  0  0  0  0  0  0
   14.9673  -19.3403   18.0775 S   0  0  0  0  0  0  0  0  0  0  0  0
   14.9257  -18.0138   19.3171 C   0  0  0  0  0  0  0  0  0  0  0  0
   14.7212  -18.2954   20.6428 N   0  0  0  0  0  0  0  0  0  0  0  0
   15.1031  -16.8366   18.7830 N   0  0  0  0  0  0  0  0  0  0  0  0
   15.2794  -16.8538   17.3044 C   0  0  0  0  0  0  0  0  0  0  0  0
   15.4995  -15.6287   16.4177 C   0  0  0  0  0  0  0  0  0  0  0  0
   15.8790  -16.0209   14.8650 C   0  0  0  0  0  0  0  0  0  0  0  0
   14.5985  -19.2275   20.9348 H   0  0  0  0  0  0  0  0  0  0  0  0
   14.6971  -17.5655   21.3030 H   0  0  0  0  0  0  0  0  0  0  0  0
   10.5765  -14.3996   12.8550 C   0  0  0  0  0  0  0  0  0  0  0  0
   11.4657  -13.5476   13.8973 N   0  0  0  0  0  0  0  0  0  0  0  0
   12.2962  -13.2744   13.3719 H   0  0  0  0  0  0  0  0  0  0  0  0
   10.9944  -12.1371   14.7402 S   0  0  0  0  0  0  0  0  0  0  0  0
   11.8066  -11.1652   15.3710 O   0  0  0  0  0  0  0  0  0  0  0  0
    9.6424  -12.2677   15.1836 O   0  0  0  0  0  0  0  0  0  0  0  0
   11.5617  -13.3190   16.1036 C   0  0  0  0  0  0  0  0  0  0  0  0
   11.8098  -12.7215   17.5117 C   0  0  0  0  0  0  0  0  0  0  0  0
   10.7302  -12.4262   18.4714 C   0  0  0  0  0  0  0  0  0  0  0  0
   11.0793  -11.8064   19.8027 C   0  0  0  0  0  0  0  0  0  0  0  0
   12.4871  -11.4980   20.1366 C   0  0  0  0  0  0  0  0  0  0  0  0
   13.5733  -11.8124   19.1551 C   0  0  0  0  0  0  0  0  0  0  0  0
   13.2353  -12.4164   17.8567 C   0  0  0  0  0  0  0  0  0  0  0  0
    9.0225  -14.3954   13.1752 C   0  0  0  0  0  0  0  0  0  0  0  0
    8.5792  -14.5572   11.5268 C   0  0  0  0  0  0  0  0  0  0  0  0
    8.1889  -13.1212   10.7469 C   0  0  0  0  0  0  0  0  0  0  0  0
    7.4110  -15.5626   11.2512 C   0  0  0  0  0  0  0  0  0  0  0  0
    7.8174  -13.2984    9.1826 C   0  0  0  0  0  0  0  0  0  0  0  0
    7.1684  -15.8468    9.6997 C   0  0  0  0  0  0  0  0  0  0  0  0
    6.8160  -14.5150    8.8982 C   0  0  0  0  0  0  0  0  0  0  0  0
  3  4  1  0  0  0
  3  7  1  0  0  0
  3  1  1  0  0  0
  4  5  1  0  0  0
  4  8  1  0  0  0
  5  6  1  0  0  0
  6  7  1  0  0  0
  8  9  2  0  0  0
  8 10  1  0  0  0
 10 12  1  0  0  0
 12 13  2  0  0  0
 12 21  1  0  0  0
 13 14  1  0  0  0
 14 15  1  0  0  0
 14 19  2  0  0  0
 15 16  1  0  0  0
 16 17  1  0  0  0
 16 18  2  0  0  0
 18 19  1  0  0  0
 19 20  1  0  0  0
 20 21  2  0  0  0
  1  2  2  0  0  0
  1 24  1  0  0  0
 24 25  1  0  0  0
 24 37  1  0  0  0
 25 27  1  0  0  0
 27 28  2  0  0  0
 27 29  2  0  0  0
 27 30  1  0  0  0
 30 31  1  0  0  0
 31 36  1  0  0  0
 31 32  2  0  0  0
 36 35  2  0  0  0
 35 34  1  0  0  0
 34 33  2  0  0  0
 33 32  1  0  0  0
 37 38  1  0  0  0
 38 39  1  0  0  0
 38 40  1  0  0  0
 39 41  1  0  0  0
 41 43  1  0  0  0
 43 42  1  0  0  0
 42 40  1  0  0  0
 25 26  1  0  0  0
 10 11  1  0  0  0
 17 22  1  0  0  0
 17 23  1  0  0  0
M  END
> <minimizedAffinity>
-8.46118

$$$$
1SB1_165_H_1001


 43 47  0  0  0  0  0  0  0  0999 V2000
   11.2599  -18.2040   13.8394 C   0  0  0  0  0  0  0  0  0  0  0  0
   10.8118  -18.5766   14.9691 O   0  0  0  0  0  0  0  0  0  0  0  0
   12.7059  -18.4824   13.4770 N   0  0  0  0  0  0  0  0  0  0  0  0
   13.6130  -19.1621   14.4034 C   0  0  0  0  0  0  0  0  0  0  0  0
   14.7535  -19.2277   13.3239 C   0  0  0  0  0  0  0  0  0  0  0  0
   13.9922  -19.4325   12.0477 C   0  0  0  0  0  0  0  0  0  0  0  0
   13.2015  -18.1477   12.1233 C   0  0  0  0  0  0  0  0  0  0  0  0
   14.1492  -18.3594   15.5901 C   0  0  0  0  0  0  0  0  0  0  0  0
   14.5644  -19.0024   16.5742 O   0  0  0  0  0  0  0  0  0  0  0  0
   14.1149  -16.8808   15.4824 N   0  0  0  0  0  0  0  0  0  0  0  0
   13.7797  -16.4482   14.6641 H   0  0  0  0  0  0  0  0  0  0  0  0
   14.5961  -16.0549   16.6330 C   0  0  0  0  0  0  0  0  0  0  0  0
   13.6336  -14.8230   16.6991 C   0  0  0  0  0  0  0  0  0  0  0  0
   14.1373  -13.5427   16.0446 C   0  0  0  0  0  0  0  0  0  0  0  0
   13.0674  -12.2002   15.9127 S   0  0  0  0  0  0  0  0  0  0  0  0
   14.3710  -11.2615   15.0657 C   0  0  0  0  0  0  0  0  0  0  0  0
   14.1475   -9.9807   14.6320 N   0  0  0  0  0  0  0  0  0  0  0  0
   15.4712  -11.9519   14.9406 N   0  0  0  0  0  0  0  0  0  0  0  0
   15.3972  -13.3308   15.4980 C   0  0  0  0  0  0  0  0  0  0  0  0
   16.5275  -14.3593   15.4876 C   0  0  0  0  0  0  0  0  0  0  0  0
   16.1847  -15.6977   16.3818 C   0  0  0  0  0  0  0  0  0  0  0  0
   13.2721   -9.5560   14.7818 H   0  0  0  0  0  0  0  0  0  0  0  0
   14.8625   -9.4854   14.1707 H   0  0  0  0  0  0  0  0  0  0  0  0
   10.3156  -17.5275   12.7407 C   0  0  0  0  0  0  0  0  0  0  0  0
   10.3626  -16.0187   13.3102 N   0  0  0  0  0  0  0  0  0  0  0  0
   10.1492  -15.4280   12.5065 H   0  0  0  0  0  0  0  0  0  0  0  0
    9.4331  -15.3720   14.5908 S   0  0  0  0  0  0  0  0  0  0  0  0
    8.0495  -15.0780   14.6248 O   0  0  0  0  0  0  0  0  0  0  0  0
   10.2856  -14.6816   15.5064 O   0  0  0  0  0  0  0  0  0  0  0  0
    9.5827  -13.9407   13.3634 C   0  0  0  0  0  0  0  0  0  0  0  0
    8.6023  -13.9209   12.1635 C   0  0  0  0  0  0  0  0  0  0  0  0
    7.1355  -13.9397   12.3117 C   0  0  0  0  0  0  0  0  0  0  0  0
    6.2718  -13.9590   11.0739 C   0  0  0  0  0  0  0  0  0  0  0  0
    6.8919  -13.9614    9.7308 C   0  0  0  0  0  0  0  0  0  0  0  0
    8.3829  -13.9326    9.5967 C   0  0  0  0  0  0  0  0  0  0  0  0
    9.2268  -13.9140   10.8019 C   0  0  0  0  0  0  0  0  0  0  0  0
    8.8680  -18.1770   12.7468 C   0  0  0  0  0  0  0  0  0  0  0  0
    8.7082  -18.0839   11.0423 C   0  0  0  0  0  0  0  0  0  0  0  0
    7.1991  -17.5919   10.4913 C   0  0  0  0  0  0  0  0  0  0  0  0
    9.0745  -19.3959   10.2704 C   0  0  0  0  0  0  0  0  0  0  0  0
    7.0903  -17.4708    8.8820 C   0  0  0  0  0  0  0  0  0  0  0  0
    9.1191  -19.2111    8.6859 C   0  0  0  0  0  0  0  0  0  0  0  0
    7.7187  -18.7211    8.1037 C   0  0  0  0  0  0  0  0  0  0  0  0
  3  4  1  0  0  0
  3  7  1  0  0  0
  3  1  1  0  0  0
  4  5  1  0  0  0
  4  8  1  0  0  0
  5  6  1  0  0  0
  6  7  1  0  0  0
  8  9  2  0  0  0
  8 10  1  0  0  0
 10 12  1  0  0  0
 12 13  2  0  0  0
 12 21  1  0  0  0
 13 14  1  0  0  0
 14 15  1  0  0  0
 14 19  2  0  0  0
 15 16  1  0  0  0
 16 17  1  0  0  0
 16 18  2  0  0  0
 18 19  1  0  0  0
 19 20  1  0  0  0
 20 21  2  0  0  0
  1  2  2  0  0  0
  1 24  1  0  0  0
 24 25  1  0  0  0
 24 37  1  0  0  0
 25 27  1  0  0  0
 27 28  2  0  0  0
 27 29  2  0  0  0
 27 30  1  0  0  0
 30 31  1  0  0  0
 31 36  1  0  0  0
 31 32  2  0  0  0
 36 35  2  0  0  0
 35 34  1  0  0  0
 34 33  2  0  0  0
 33 32  1  0  0  0
 37 38  1  0  0  0
 38 39  1  0  0  0
 38 40  1  0  0  0
 39 41  1  0  0  0
 41 43  1  0  0  0
 43 42  1  0  0  0
 42 40  1  0  0  0
 25 26  1  0  0  0
 10 11  1  0  0  0
 17 22  1  0  0  0
 17 23  1  0  0  0
M  END
> <minimizedAffinity>
-8.38614

$$$$
1SB1_165_H_1001


 43 47  0  0  0  0  0  0  0  0999 V2000
   13.9852  -16.7917   15.1094 C   0  0  0  0  0  0  0  0  0  0  0  0
   15.0537  -16.7409   14.4226 O   0  0  0  0  0  0  0  0  0  0  0  0
   12.9120  -17.8022   14.7535 N   0  0  0  0  0  0  0  0  0  0  0  0
   13.0657  -18.7206   13.6239 C   0  0  0  0  0  0  0  0  0  0  0  0
   11.7457  -19.4875   13.9976 C   0  0  0  0  0  0  0  0  0  0  0  0
   11.7487  -19.4436   15.4971 C   0  0  0  0  0  0  0  0  0  0  0  0
   11.7162  -17.9380   15.6147 C   0  0  0  0  0  0  0  0  0  0  0  0
   12.8834  -18.1516   12.2156 C   0  0  0  0  0  0  0  0  0  0  0  0
   13.7040  -18.5045   11.3459 O   0  0  0  0  0  0  0  0  0  0  0  0
   11.7566  -17.2115   12.0023 N   0  0  0  0  0  0  0  0  0  0  0  0
   11.1448  -16.9909   12.7414 H   0  0  0  0  0  0  0  0  0  0  0  0
   11.5612  -16.6028   10.6499 C   0  0  0  0  0  0  0  0  0  0  0  0
   10.8820  -15.2167   10.9060 C   0  0  0  0  0  0  0  0  0  0  0  0
    9.3681  -15.1710   10.7409 C   0  0  0  0  0  0  0  0  0  0  0  0
    8.5269  -13.7350   11.1819 S   0  0  0  0  0  0  0  0  0  0  0  0
    6.9581  -14.5321   10.7331 C   0  0  0  0  0  0  0  0  0  0  0  0
    5.7668  -13.8684   10.8703 N   0  0  0  0  0  0  0  0  0  0  0  0
    7.1327  -15.7493   10.2966 N   0  0  0  0  0  0  0  0  0  0  0  0
    8.5524  -16.1988   10.2835 C   0  0  0  0  0  0  0  0  0  0  0  0
    9.0499  -17.5705    9.8289 C   0  0  0  0  0  0  0  0  0  0  0  0
   10.6904  -17.6574    9.7314 C   0  0  0  0  0  0  0  0  0  0  0  0
    5.7541  -12.9453   11.2123 H   0  0  0  0  0  0  0  0  0  0  0  0
    4.9237  -14.3147   10.6268 H   0  0  0  0  0  0  0  0  0  0  0  0
   13.7732  -15.8794   16.4052 C   0  0  0  0  0  0  0  0  0  0  0  0
   13.9377  -14.4422   15.6910 N   0  0  0  0  0  0  0  0  0  0  0  0
   14.7101  -14.5616   15.0355 H   0  0  0  0  0  0  0  0  0  0  0  0
   12.7459  -13.5851   14.8153 S   0  0  0  0  0  0  0  0  0  0  0  0
   12.8359  -12.9999   13.5302 O   0  0  0  0  0  0  0  0  0  0  0  0
   11.7585  -13.0757   15.7138 O   0  0  0  0  0  0  0  0  0  0  0  0
   13.9564  -12.2445   15.3766 C   0  0  0  0  0  0  0  0  0  0  0  0
   14.9878  -11.7316   14.3401 C   0  0  0  0  0  0  0  0  0  0  0  0
   15.9929  -12.5972   13.6965 C   0  0  0  0  0  0  0  0  0  0  0  0
   16.9782  -11.9864   12.7297 C   0  0  0  0  0  0  0  0  0  0  0  0
   16.9350  -10.5372   12.4354 C   0  0  0  0  0  0  0  0  0  0  0  0
   15.9022   -9.6730   13.0899 C   0  0  0  0  0  0  0  0  0  0  0  0
   14.9409  -10.2662   14.0329 C   0  0  0  0  0  0  0  0  0  0  0  0
   14.8714  -16.1832   17.5094 C   0  0  0  0  0  0  0  0  0  0  0  0
   13.7730  -17.0353   18.5129 C   0  0  0  0  0  0  0  0  0  0  0  0
   13.7838  -16.5827   20.1309 C   0  0  0  0  0  0  0  0  0  0  0  0
   13.9104  -18.5944   18.4704 C   0  0  0  0  0  0  0  0  0  0  0  0
   12.7076  -17.3717   21.0451 C   0  0  0  0  0  0  0  0  0  0  0  0
   12.7431  -19.3578   19.2458 C   0  0  0  0  0  0  0  0  0  0  0  0
   12.6863  -18.9517   20.7860 C   0  0  0  0  0  0  0  0  0  0  0  0
  3  4  1  0  0  0
  3  7  1  0  0  0
  3  1  1  0  0  0
  4  5  1  0  0  0
  4  8  1  0  0  0
  5  6  1  0  0  0
  6  7  1  0  0  0
  8  9  2  0  0  0
  8 10  1  0  0  0
 10 12  1  0  0  0
 12 13  2  0  0  0
 12 21  1  0  0  0
 13 14  1  0  0  0
 14 15  1  0  0  0
 14 19  2  0  0  0
 15 16  1  0  0  0
 16 17  1  0  0  0
 16 18  2  0  0  0
 18 19  1  0  0  0
 19 20  1  0  0  0
 20 21  2  0  0  0
  1  2  2  0  0  0
  1 24  1  0  0  0
 24 25  1  0  0  0
 24 37  1  0  0  0
 25 27  1  0  0  0
 27 28  2  0  0  0
 27 29  2  0  0  0
 27 30  1  0  0  0
 30 31  1  0  0  0
 31 36  1  0  0  0
 31 32  2  0  0  0
 36 35  2  0  0  0
 35 34  1  0  0  0
 34 33  2  0  0  0
 33 32  1  0  0  0
 37 38  1  0  0  0
 38 39  1  0  0  0
 38 40  1  0  0  0
 39 41  1  0  0  0
 41 43  1  0  0  0
 43 42  1  0  0  0
 42 40  1  0  0  0
 25 26  1  0  0  0
 10 11  1  0  0  0
 17 22  1  0  0  0
 17 23  1  0  0  0
M  END
> <minimizedAffinity>
-8.34932

$$$$
