2AMT_1AA_A_1901


 45 47  0  0  0  0  0  0  0  0999 V2000
   -0.8101    7.8183    9.9859 P   0  0  0  0  0  0  0  0  0  0  0  0
   -0.1600    9.0881    9.5919 O   0  0  0  0  0  0  0  0  0  0  0  0
   -2.0098    7.8492   10.8466 O   0  0  0  0  0  0  0  0  0  0  0  0
   -1.8200    8.3626   11.6474 H   0  0  0  0  0  0  0  0  0  0  0  0
    0.3015    6.8821   10.6764 O   0  0  0  0  0  0  0  0  0  0  0  0
    1.5236    6.5463    9.9927 C   0  0  0  0  0  0  0  0  0  0  0  0
    3.1601    4.9744   12.7751 C   0  0  0  0  0  0  0  0  0  0  0  0
    3.1526    5.8582   11.6115 O   0  0  0  0  0  0  0  0  0  0  0  0
    2.0869    3.9033   12.5277 C   0  0  0  0  0  0  0  0  0  0  0  0
    2.7074    2.7045   12.0455 O   0  0  0  0  0  0  0  0  0  0  0  0
    1.2081    4.5213   11.4470 C   0  0  0  0  0  0  0  0  0  0  0  0
    0.6202    3.5038   10.6284 O   0  0  0  0  0  0  0  0  0  0  0  0
    2.2125    5.3437   10.6409 C   0  0  0  0  0  0  0  0  0  0  0  0
    3.2187    2.9041   11.2458 H   0  0  0  0  0  0  0  0  0  0  0  0
    1.3202    2.9498   10.2487 H   0  0  0  0  0  0  0  0  0  0  0  0
    4.6887    4.7902   15.1358 O   0  0  0  0  0  0  0  0  0  0  0  0
    3.7583    5.5932   15.1511 C   0  0  0  0  0  0  0  0  0  0  0  0
    3.5318    6.3448   16.3136 N   0  0  0  0  0  0  0  0  0  0  0  0
    2.4803    7.2679   16.3659 C   0  0  0  0  0  0  0  0  0  0  0  0
    2.2762    7.9720   17.4747 N   0  0  0  0  0  0  0  0  0  0  0  0
    1.6547    7.4442   15.2600 C   0  0  0  0  0  0  0  0  0  0  0  0
    1.8718    6.7061   14.0987 C   0  0  0  0  0  0  0  0  0  0  0  0
    2.9246    5.7670   14.0254 N   0  0  0  0  0  0  0  0  0  0  0  0
    2.8633    7.8435   18.2545 H   0  0  0  0  0  0  0  0  0  0  0  0
    1.5380    8.6221   17.5161 H   0  0  0  0  0  0  0  0  0  0  0  0
   -1.1850    6.9511    8.6697 O   0  0  0  0  0  0  0  0  0  0  0  0
   -1.8563    5.4753    8.6992 P   0  0  0  0  0  0  0  0  0  0  0  0
   -2.9618    5.3700    7.7177 O   0  0  0  0  0  0  0  0  0  0  0  0
   -2.1081    5.1104   10.1144 O   0  0  0  0  0  0  0  0  0  0  0  0
   -2.8321    5.6530   10.4643 H   0  0  0  0  0  0  0  0  0  0  0  0
   -0.6449    4.5521    8.1498 O   0  0  0  0  0  0  0  0  0  0  0  0
   -0.2494    4.5716    6.7686 C   0  0  0  0  0  0  0  0  0  0  0  0
    1.2065    5.0210    6.6322 C   0  0  0  0  0  0  0  0  0  0  0  0
    1.8574    4.3129    5.5510 O   0  0  0  0  0  0  0  0  0  0  0  0
    1.8603    5.0047    4.3688 C   0  0  0  0  0  0  0  0  0  0  0  0
    1.7644    6.2342    4.3641 O   0  0  0  0  0  0  0  0  0  0  0  0
    1.9902    4.2314    3.0441 C   0  0  0  0  0  0  0  0  0  0  0  0
    3.1251    4.4117    2.2510 C   0  0  0  0  0  0  0  0  0  0  0  0
    3.2554    3.7164    1.0481 C   0  0  0  0  0  0  0  0  0  0  0  0
    2.2553    2.8406    0.6283 C   0  0  0  0  0  0  0  0  0  0  0  0
    1.1202    2.6566    1.4166 C   0  0  0  0  0  0  0  0  0  0  0  0
    0.9873    3.3482    2.6215 C   0  0  0  0  0  0  0  0  0  0  0  0
   -0.1051    3.1534    3.3552 N   0  0  0  0  0  0  0  0  0  0  0  0
   -0.2170    3.6321    4.2081 H   0  0  0  0  0  0  0  0  0  0  0  0
   -0.8016    2.5304    3.0452 H   0  0  0  0  0  0  0  0  0  0  0  0
 16 17  2  0  0  0
 17 18  1  0  0  0
 17 23  1  0  0  0
 18 19  2  0  0  0
 19 20  1  0  0  0
 19 21  1  0  0  0
 21 22  2  0  0  0
 22 23  1  0  0  0
 23  7  1  0  0  0
  7  8  1  0  0  0
  7  9  1  0  0  0
  8 13  1  0  0  0
  9 10  1  0  0  0
  9 11  1  0  0  0
 11 12  1  0  0  0
 11 13  1  0  0  0
 13  6  1  0  0  0
  6  5  1  0  0  0
  5  1  1  0  0  0
  1  2  2  0  0  0
  1  3  1  0  0  0
  1 26  1  0  0  0
 26 27  1  0  0  0
 27 28  2  0  0  0
 27 29  1  0  0  0
 27 31  1  0  0  0
 31 32  1  0  0  0
 32 33  1  0  0  0
 33 34  1  0  0  0
 34 35  1  0  0  0
 35 36  2  0  0  0
 35 37  1  0  0  0
 37 38  2  0  0  0
 37 42  1  0  0  0
 38 39  1  0  0  0
 39 40  2  0  0  0
 40 41  1  0  0  0
 41 42  2  0  0  0
 42 43  1  0  0  0
 20 24  1  0  0  0
 20 25  1  0  0  0
 10 14  1  0  0  0
 12 15  1  0  0  0
  3  4  1  0  0  0
 29 30  1  0  0  0
 43 44  1  0  0  0
 43 45  1  0  0  0
M  END
> <minimizedAffinity>
-9.74922

$$$$
2AMT_1AA_A_1901


 45 47  0  0  0  0  0  0  0  0999 V2000
   -1.5287    4.9047    9.4501 P   0  0  0  0  0  0  0  0  0  0  0  0
   -0.7899    3.7842   10.0738 O   0  0  0  0  0  0  0  0  0  0  0  0
   -2.9696    5.0724    9.7269 O   0  0  0  0  0  0  0  0  0  0  0  0
   -3.4353    4.2448    9.5289 H   0  0  0  0  0  0  0  0  0  0  0  0
   -1.3111    4.8208    7.8581 O   0  0  0  0  0  0  0  0  0  0  0  0
   -0.2297    4.0567    7.2919 C   0  0  0  0  0  0  0  0  0  0  0  0
    2.3605    5.0416    5.0090 C   0  0  0  0  0  0  0  0  0  0  0  0
    1.8213    4.1771    6.0562 O   0  0  0  0  0  0  0  0  0  0  0  0
    1.6935    6.4151    5.1782 C   0  0  0  0  0  0  0  0  0  0  0  0
    2.5797    7.2958    5.8810 O   0  0  0  0  0  0  0  0  0  0  0  0
    0.4615    6.1124    6.0224 C   0  0  0  0  0  0  0  0  0  0  0  0
    0.1095    7.2422    6.8289 O   0  0  0  0  0  0  0  0  0  0  0  0
    0.9433    4.9574    6.8993 C   0  0  0  0  0  0  0  0  0  0  0  0
    2.8234    6.8982    6.7315 H   0  0  0  0  0  0  0  0  0  0  0  0
    0.8676    7.4962    7.3782 H   0  0  0  0  0  0  0  0  0  0  0  0
    3.9465    5.4636    2.7177 O   0  0  0  0  0  0  0  0  0  0  0  0
    2.9832    4.7124    2.5820 C   0  0  0  0  0  0  0  0  0  0  0  0
    2.7500    4.1304    1.3272 N   0  0  0  0  0  0  0  0  0  0  0  0
    1.6614    3.2707    1.1371 C   0  0  0  0  0  0  0  0  0  0  0  0
    1.4514    2.7276   -0.0578 N   0  0  0  0  0  0  0  0  0  0  0  0
    0.8051    2.9887    2.1969 C   0  0  0  0  0  0  0  0  0  0  0  0
    1.0283    3.5580    3.4486 C   0  0  0  0  0  0  0  0  0  0  0  0
    2.1185    4.4309    3.6616 N   0  0  0  0  0  0  0  0  0  0  0  0
    2.0603    2.9303   -0.8045 H   0  0  0  0  0  0  0  0  0  0  0  0
    0.6872    2.1226   -0.1962 H   0  0  0  0  0  0  0  0  0  0  0  0
   -0.8055    6.3122    9.7974 O   0  0  0  0  0  0  0  0  0  0  0  0
   -1.5321    7.7607    9.7381 P   0  0  0  0  0  0  0  0  0  0  0  0
   -2.2435    8.0555   11.0044 O   0  0  0  0  0  0  0  0  0  0  0  0
   -2.2697    7.8554    8.4549 O   0  0  0  0  0  0  0  0  0  0  0  0
   -3.0363    7.2616    8.4781 H   0  0  0  0  0  0  0  0  0  0  0  0
   -0.2623    8.7626    9.6632 O   0  0  0  0  0  0  0  0  0  0  0  0
    1.0842    8.2850    9.8159 C   0  0  0  0  0  0  0  0  0  0  0  0
    1.6283    8.6434   11.2001 C   0  0  0  0  0  0  0  0  0  0  0  0
    2.5240    7.6115   11.6764 O   0  0  0  0  0  0  0  0  0  0  0  0
    1.9306    6.7293   12.5400 C   0  0  0  0  0  0  0  0  0  0  0  0
    0.9583    7.0744   13.2156 O   0  0  0  0  0  0  0  0  0  0  0  0
    2.4868    5.2985   12.6549 C   0  0  0  0  0  0  0  0  0  0  0  0
    2.9831    4.8500   13.8805 C   0  0  0  0  0  0  0  0  0  0  0  0
    3.4897    3.5551   13.9982 C   0  0  0  0  0  0  0  0  0  0  0  0
    3.5069    2.7020   12.8957 C   0  0  0  0  0  0  0  0  0  0  0  0
    3.0122    3.1446   11.6698 C   0  0  0  0  0  0  0  0  0  0  0  0
    2.5024    4.4381   11.5486 C   0  0  0  0  0  0  0  0  0  0  0  0
    2.0354    4.8349   10.3679 N   0  0  0  0  0  0  0  0  0  0  0  0
    1.6717    5.7437   10.2626 H   0  0  0  0  0  0  0  0  0  0  0  0
    2.0534    4.2198    9.5995 H   0  0  0  0  0  0  0  0  0  0  0  0
 16 17  2  0  0  0
 17 18  1  0  0  0
 17 23  1  0  0  0
 18 19  2  0  0  0
 19 20  1  0  0  0
 19 21  1  0  0  0
 21 22  2  0  0  0
 22 23  1  0  0  0
 23  7  1  0  0  0
  7  8  1  0  0  0
  7  9  1  0  0  0
  8 13  1  0  0  0
  9 10  1  0  0  0
  9 11  1  0  0  0
 11 12  1  0  0  0
 11 13  1  0  0  0
 13  6  1  0  0  0
  6  5  1  0  0  0
  5  1  1  0  0  0
  1  2  2  0  0  0
  1  3  1  0  0  0
  1 26  1  0  0  0
 26 27  1  0  0  0
 27 28  2  0  0  0
 27 29  1  0  0  0
 27 31  1  0  0  0
 31 32  1  0  0  0
 32 33  1  0  0  0
 33 34  1  0  0  0
 34 35  1  0  0  0
 35 36  2  0  0  0
 35 37  1  0  0  0
 37 38  2  0  0  0
 37 42  1  0  0  0
 38 39  1  0  0  0
 39 40  2  0  0  0
 40 41  1  0  0  0
 41 42  2  0  0  0
 42 43  1  0  0  0
 20 24  1  0  0  0
 20 25  1  0  0  0
 10 14  1  0  0  0
 12 15  1  0  0  0
  3  4  1  0  0  0
 29 30  1  0  0  0
 43 44  1  0  0  0
 43 45  1  0  0  0
M  END
> <minimizedAffinity>
-9.55353

$$$$
2AMT_1AA_A_1901


 45 47  0  0  0  0  0  0  0  0999 V2000
   -2.1752    5.7311    8.7727 P   0  0  0  0  0  0  0  0  0  0  0  0
   -3.0238    5.3185    9.9130 O   0  0  0  0  0  0  0  0  0  0  0  0
   -2.8019    6.3217    7.5730 O   0  0  0  0  0  0  0  0  0  0  0  0
   -3.4956    5.7283    7.2452 H   0  0  0  0  0  0  0  0  0  0  0  0
   -1.2890    4.4644    8.3265 O   0  0  0  0  0  0  0  0  0  0  0  0
   -0.8390    4.3100    6.9674 C   0  0  0  0  0  0  0  0  0  0  0  0
    2.1524    4.8051    5.0445 C   0  0  0  0  0  0  0  0  0  0  0  0
    1.3289    4.0417    5.9793 O   0  0  0  0  0  0  0  0  0  0  0  0
    1.7574    6.2810    5.2059 C   0  0  0  0  0  0  0  0  0  0  0  0
    2.7098    6.9436    6.0477 O   0  0  0  0  0  0  0  0  0  0  0  0
    0.3969    6.2139    5.8889 C   0  0  0  0  0  0  0  0  0  0  0  0
    0.1824    7.3703    6.7061 O   0  0  0  0  0  0  0  0  0  0  0  0
    0.5288    4.9624    6.7557 C   0  0  0  0  0  0  0  0  0  0  0  0
    2.7645    6.4824    6.8993 H   0  0  0  0  0  0  0  0  0  0  0  0
    0.9038    7.4498    7.3497 H   0  0  0  0  0  0  0  0  0  0  0  0
    3.9007    5.2594    2.8810 O   0  0  0  0  0  0  0  0  0  0  0  0
    2.9040    4.5810    2.6422 C   0  0  0  0  0  0  0  0  0  0  0  0
    2.7146    4.0906    1.3418 N   0  0  0  0  0  0  0  0  0  0  0  0
    1.5899    3.3153    1.0345 C   0  0  0  0  0  0  0  0  0  0  0  0
    1.4223    2.8586   -0.2025 N   0  0  0  0  0  0  0  0  0  0  0  0
    0.6538    3.0267    2.0225 C   0  0  0  0  0  0  0  0  0  0  0  0
    0.8326    3.5053    3.3185 C   0  0  0  0  0  0  0  0  0  0  0  0
    1.9583    4.2921    3.6495 N   0  0  0  0  0  0  0  0  0  0  0  0
    2.0876    3.0657   -0.8980 H   0  0  0  0  0  0  0  0  0  0  0  0
    0.6329    2.3133   -0.4232 H   0  0  0  0  0  0  0  0  0  0  0  0
   -1.0297    6.7616    9.2735 O   0  0  0  0  0  0  0  0  0  0  0  0
   -0.9773    7.4354   10.7475 P   0  0  0  0  0  0  0  0  0  0  0  0
   -0.4515    6.4827   11.7537 O   0  0  0  0  0  0  0  0  0  0  0  0
   -2.2767    8.1057   10.9956 O   0  0  0  0  0  0  0  0  0  0  0  0
   -2.9675    7.4361   11.1198 H   0  0  0  0  0  0  0  0  0  0  0  0
    0.1490    8.5810   10.5454 O   0  0  0  0  0  0  0  0  0  0  0  0
    1.1123    8.5111    9.4817 C   0  0  0  0  0  0  0  0  0  0  0  0
    2.2237    7.5182    9.8270 C   0  0  0  0  0  0  0  0  0  0  0  0
    2.1919    6.3865    8.9257 O   0  0  0  0  0  0  0  0  0  0  0  0
    3.1806    5.4694    9.1656 C   0  0  0  0  0  0  0  0  0  0  0  0
    4.0580    5.2620    8.3241 O   0  0  0  0  0  0  0  0  0  0  0  0
    3.1888    4.7028   10.5005 C   0  0  0  0  0  0  0  0  0  0  0  0
    4.3609    4.6533   11.2578 C   0  0  0  0  0  0  0  0  0  0  0  0
    4.3816    3.9621   12.4699 C   0  0  0  0  0  0  0  0  0  0  0  0
    3.2365    3.3150   12.9320 C   0  0  0  0  0  0  0  0  0  0  0  0
    2.0636    3.3616   12.1800 C   0  0  0  0  0  0  0  0  0  0  0  0
    2.0380    4.0540   10.9684 C   0  0  0  0  0  0  0  0  0  0  0  0
    0.9055    4.0840   10.2712 N   0  0  0  0  0  0  0  0  0  0  0  0
    0.8677    4.5672    9.4142 H   0  0  0  0  0  0  0  0  0  0  0  0
    0.1052    3.6230   10.6120 H   0  0  0  0  0  0  0  0  0  0  0  0
 16 17  2  0  0  0
 17 18  1  0  0  0
 17 23  1  0  0  0
 18 19  2  0  0  0
 19 20  1  0  0  0
 19 21  1  0  0  0
 21 22  2  0  0  0
 22 23  1  0  0  0
 23  7  1  0  0  0
  7  8  1  0  0  0
  7  9  1  0  0  0
  8 13  1  0  0  0
  9 10  1  0  0  0
  9 11  1  0  0  0
 11 12  1  0  0  0
 11 13  1  0  0  0
 13  6  1  0  0  0
  6  5  1  0  0  0
  5  1  1  0  0  0
  1  2  2  0  0  0
  1  3  1  0  0  0
  1 26  1  0  0  0
 26 27  1  0  0  0
 27 28  2  0  0  0
 27 29  1  0  0  0
 27 31  1  0  0  0
 31 32  1  0  0  0
 32 33  1  0  0  0
 33 34  1  0  0  0
 34 35  1  0  0  0
 35 36  2  0  0  0
 35 37  1  0  0  0
 37 38  2  0  0  0
 37 42  1  0  0  0
 38 39  1  0  0  0
 39 40  2  0  0  0
 40 41  1  0  0  0
 41 42  2  0  0  0
 42 43  1  0  0  0
 20 24  1  0  0  0
 20 25  1  0  0  0
 10 14  1  0  0  0
 12 15  1  0  0  0
  3  4  1  0  0  0
 29 30  1  0  0  0
 43 44  1  0  0  0
 43 45  1  0  0  0
M  END
> <minimizedAffinity>
-9.37344

$$$$
2AMT_1AA_A_1901


 45 47  0  0  0  0  0  0  0  0999 V2000
   -2.4335    5.3994    8.1025 P   0  0  0  0  0  0  0  0  0  0  0  0
   -3.1428    4.2192    8.6452 O   0  0  0  0  0  0  0  0  0  0  0  0
   -3.2054    6.4858    7.4664 O   0  0  0  0  0  0  0  0  0  0  0  0
   -3.7708    6.1161    6.7703 H   0  0  0  0  0  0  0  0  0  0  0  0
   -1.3181    4.8781    7.0666 O   0  0  0  0  0  0  0  0  0  0  0  0
   -0.0430    4.3911    7.5254 C   0  0  0  0  0  0  0  0  0  0  0  0
    2.4454    5.2459    5.0825 C   0  0  0  0  0  0  0  0  0  0  0  0
    1.9575    4.4483    6.2053 O   0  0  0  0  0  0  0  0  0  0  0  0
    1.7685    6.6211    5.1857 C   0  0  0  0  0  0  0  0  0  0  0  0
    2.6701    7.5555    5.7931 O   0  0  0  0  0  0  0  0  0  0  0  0
    0.5736    6.3636    6.0957 C   0  0  0  0  0  0  0  0  0  0  0  0
    0.2389    7.5416    6.8383 O   0  0  0  0  0  0  0  0  0  0  0  0
    1.1029    5.2748    7.0281 C   0  0  0  0  0  0  0  0  0  0  0  0
    2.9510    7.2182    6.6581 H   0  0  0  0  0  0  0  0  0  0  0  0
    1.0143    7.8392    7.3393 H   0  0  0  0  0  0  0  0  0  0  0  0
    4.0044    5.4380    2.7423 O   0  0  0  0  0  0  0  0  0  0  0  0
    3.0141    4.7127    2.6786 C   0  0  0  0  0  0  0  0  0  0  0  0
    2.7397    4.0460    1.4754 N   0  0  0  0  0  0  0  0  0  0  0  0
    1.6196    3.2127    1.3676 C   0  0  0  0  0  0  0  0  0  0  0  0
    1.3707    2.5885    0.2207 N   0  0  0  0  0  0  0  0  0  0  0  0
    0.7730    3.0417    2.4584 C   0  0  0  0  0  0  0  0  0  0  0  0
    1.0371    3.6959    3.6596 C   0  0  0  0  0  0  0  0  0  0  0  0
    2.1595    4.5438    3.7893 N   0  0  0  0  0  0  0  0  0  0  0  0
    1.9728    2.7128   -0.5482 H   0  0  0  0  0  0  0  0  0  0  0  0
    0.5842    2.0018    0.1402 H   0  0  0  0  0  0  0  0  0  0  0  0
   -1.5116    6.0737    9.2516 O   0  0  0  0  0  0  0  0  0  0  0  0
   -1.7459    7.5545    9.8696 P   0  0  0  0  0  0  0  0  0  0  0  0
   -3.1798    7.7940   10.1578 O   0  0  0  0  0  0  0  0  0  0  0  0
   -1.0040    8.5276    9.0315 O   0  0  0  0  0  0  0  0  0  0  0  0
   -1.4418    8.6122    8.1701 H   0  0  0  0  0  0  0  0  0  0  0  0
   -0.9884    7.4391   11.2960 O   0  0  0  0  0  0  0  0  0  0  0  0
    0.0995    6.5227   11.4992 C   0  0  0  0  0  0  0  0  0  0  0  0
    1.3080    7.2464   12.0958 C   0  0  0  0  0  0  0  0  0  0  0  0
    2.3751    7.3401   11.1229 O   0  0  0  0  0  0  0  0  0  0  0  0
    2.2617    8.4221   10.2907 C   0  0  0  0  0  0  0  0  0  0  0  0
    1.9426    8.2709    9.1090 O   0  0  0  0  0  0  0  0  0  0  0  0
    2.5316    9.8318   10.8473 C   0  0  0  0  0  0  0  0  0  0  0  0
    3.6715   10.0589   11.6210 C   0  0  0  0  0  0  0  0  0  0  0  0
    3.9281   11.3322   12.1312 C   0  0  0  0  0  0  0  0  0  0  0  0
    3.0497   12.3842   11.8755 C   0  0  0  0  0  0  0  0  0  0  0  0
    1.9104   12.1629   11.1032 C   0  0  0  0  0  0  0  0  0  0  0  0
    1.6515   10.8915   10.5890 C   0  0  0  0  0  0  0  0  0  0  0  0
    0.5581   10.7078    9.8541 N   0  0  0  0  0  0  0  0  0  0  0  0
    0.3583    9.8183    9.4827 H   0  0  0  0  0  0  0  0  0  0  0  0
   -0.0515   11.4615    9.6816 H   0  0  0  0  0  0  0  0  0  0  0  0
 16 17  2  0  0  0
 17 18  1  0  0  0
 17 23  1  0  0  0
 18 19  2  0  0  0
 19 20  1  0  0  0
 19 21  1  0  0  0
 21 22  2  0  0  0
 22 23  1  0  0  0
 23  7  1  0  0  0
  7  8  1  0  0  0
  7  9  1  0  0  0
  8 13  1  0  0  0
  9 10  1  0  0  0
  9 11  1  0  0  0
 11 12  1  0  0  0
 11 13  1  0  0  0
 13  6  1  0  0  0
  6  5  1  0  0  0
  5  1  1  0  0  0
  1  2  2  0  0  0
  1  3  1  0  0  0
  1 26  1  0  0  0
 26 27  1  0  0  0
 27 28  2  0  0  0
 27 29  1  0  0  0
 27 31  1  0  0  0
 31 32  1  0  0  0
 32 33  1  0  0  0
 33 34  1  0  0  0
 34 35  1  0  0  0
 35 36  2  0  0  0
 35 37  1  0  0  0
 37 38  2  0  0  0
 37 42  1  0  0  0
 38 39  1  0  0  0
 39 40  2  0  0  0
 40 41  1  0  0  0
 41 42  2  0  0  0
 42 43  1  0  0  0
 20 24  1  0  0  0
 20 25  1  0  0  0
 10 14  1  0  0  0
 12 15  1  0  0  0
  3  4  1  0  0  0
 29 30  1  0  0  0
 43 44  1  0  0  0
 43 45  1  0  0  0
M  END
> <minimizedAffinity>
-9.26457

$$$$
2AMT_1AA_A_1901


 45 47  0  0  0  0  0  0  0  0999 V2000
   -1.4574    7.4749   10.2199 P   0  0  0  0  0  0  0  0  0  0  0  0
   -2.6783    8.1320   10.7379 O   0  0  0  0  0  0  0  0  0  0  0  0
   -0.7436    6.4940   11.0620 O   0  0  0  0  0  0  0  0  0  0  0  0
   -0.5401    6.8936   11.9221 H   0  0  0  0  0  0  0  0  0  0  0  0
   -0.4247    8.6242    9.7710 O   0  0  0  0  0  0  0  0  0  0  0  0
    0.2908    8.5392    8.5242 C   0  0  0  0  0  0  0  0  0  0  0  0
    3.2617    7.5244   10.2662 C   0  0  0  0  0  0  0  0  0  0  0  0
    2.0449    8.3241   10.1442 O   0  0  0  0  0  0  0  0  0  0  0  0
    3.7381    7.2179    8.8381 C   0  0  0  0  0  0  0  0  0  0  0  0
    4.7855    8.1270    8.4760 O   0  0  0  0  0  0  0  0  0  0  0  0
    2.4985    7.4655    7.9872 C   0  0  0  0  0  0  0  0  0  0  0  0
    2.8647    7.8939    6.6706 O   0  0  0  0  0  0  0  0  0  0  0  0
    1.8038    8.5962    8.7448 C   0  0  0  0  0  0  0  0  0  0  0  0
    4.4689    9.0391    8.5701 H   0  0  0  0  0  0  0  0  0  0  0  0
    3.4223    8.6853    6.7316 H   0  0  0  0  0  0  0  0  0  0  0  0
    3.0067    7.4350   13.0716 O   0  0  0  0  0  0  0  0  0  0  0  0
    2.8784    6.3658   12.4791 C   0  0  0  0  0  0  0  0  0  0  0  0
    2.6172    5.2063   13.2239 N   0  0  0  0  0  0  0  0  0  0  0  0
    2.4662    3.9714   12.5813 C   0  0  0  0  0  0  0  0  0  0  0  0
    2.2206    2.8804   13.2999 N   0  0  0  0  0  0  0  0  0  0  0  0
    2.5738    3.8909   11.1965 C   0  0  0  0  0  0  0  0  0  0  0  0
    2.8297    5.0361   10.4458 C   0  0  0  0  0  0  0  0  0  0  0  0
    2.9889    6.2915   11.0739 N   0  0  0  0  0  0  0  0  0  0  0  0
    2.1454    2.9428   14.2795 H   0  0  0  0  0  0  0  0  0  0  0  0
    2.1140    2.0100   12.8524 H   0  0  0  0  0  0  0  0  0  0  0  0
   -1.7696    6.7548    8.8025 O   0  0  0  0  0  0  0  0  0  0  0  0
   -2.4229    5.2793    8.6430 P   0  0  0  0  0  0  0  0  0  0  0  0
   -3.1154    5.1381    7.3403 O   0  0  0  0  0  0  0  0  0  0  0  0
   -3.1581    4.9620    9.8913 O   0  0  0  0  0  0  0  0  0  0  0  0
   -3.9534    5.5144    9.9474 H   0  0  0  0  0  0  0  0  0  0  0  0
   -1.1047    4.3408    8.5834 O   0  0  0  0  0  0  0  0  0  0  0  0
    0.0501    4.7120    7.8133 C   0  0  0  0  0  0  0  0  0  0  0  0
   -0.1368    4.3278    6.3443 C   0  0  0  0  0  0  0  0  0  0  0  0
    1.1444    4.0943    5.7135 O   0  0  0  0  0  0  0  0  0  0  0  0
    1.3783    4.9064    4.6355 C   0  0  0  0  0  0  0  0  0  0  0  0
    1.3693    6.1329    4.7635 O   0  0  0  0  0  0  0  0  0  0  0  0
    1.6586    4.2716    3.2613 C   0  0  0  0  0  0  0  0  0  0  0  0
    2.9185    4.4221    2.6785 C   0  0  0  0  0  0  0  0  0  0  0  0
    3.1857    3.8513    1.4334 C   0  0  0  0  0  0  0  0  0  0  0  0
    2.1991    3.1306    0.7621 C   0  0  0  0  0  0  0  0  0  0  0  0
    0.9397    2.9770    1.3397 C   0  0  0  0  0  0  0  0  0  0  0  0
    0.6692    3.5442    2.5859 C   0  0  0  0  0  0  0  0  0  0  0  0
   -0.5403    3.3815    3.1152 N   0  0  0  0  0  0  0  0  0  0  0  0
   -0.7502    3.7740    3.9934 H   0  0  0  0  0  0  0  0  0  0  0  0
   -1.2256    2.8685    2.6288 H   0  0  0  0  0  0  0  0  0  0  0  0
 16 17  2  0  0  0
 17 18  1  0  0  0
 17 23  1  0  0  0
 18 19  2  0  0  0
 19 20  1  0  0  0
 19 21  1  0  0  0
 21 22  2  0  0  0
 22 23  1  0  0  0
 23  7  1  0  0  0
  7  8  1  0  0  0
  7  9  1  0  0  0
  8 13  1  0  0  0
  9 10  1  0  0  0
  9 11  1  0  0  0
 11 12  1  0  0  0
 11 13  1  0  0  0
 13  6  1  0  0  0
  6  5  1  0  0  0
  5  1  1  0  0  0
  1  2  2  0  0  0
  1  3  1  0  0  0
  1 26  1  0  0  0
 26 27  1  0  0  0
 27 28  2  0  0  0
 27 29  1  0  0  0
 27 31  1  0  0  0
 31 32  1  0  0  0
 32 33  1  0  0  0
 33 34  1  0  0  0
 34 35  1  0  0  0
 35 36  2  0  0  0
 35 37  1  0  0  0
 37 38  2  0  0  0
 37 42  1  0  0  0
 38 39  1  0  0  0
 39 40  2  0  0  0
 40 41  1  0  0  0
 41 42  2  0  0  0
 42 43  1  0  0  0
 20 24  1  0  0  0
 20 25  1  0  0  0
 10 14  1  0  0  0
 12 15  1  0  0  0
  3  4  1  0  0  0
 29 30  1  0  0  0
 43 44  1  0  0  0
 43 45  1  0  0  0
M  END
> <minimizedAffinity>
-9.21245

$$$$
2AMT_1AA_A_1901


 45 47  0  0  0  0  0  0  0  0999 V2000
    3.1007    8.2491    9.3732 P   0  0  0  0  0  0  0  0  0  0  0  0
    2.7577    9.2703   10.3880 O   0  0  0  0  0  0  0  0  0  0  0  0
    4.1306    8.5469    8.3575 O   0  0  0  0  0  0  0  0  0  0  0  0
    3.9066    9.3739    7.9027 H   0  0  0  0  0  0  0  0  0  0  0  0
    1.7440    7.8132    8.6260 O   0  0  0  0  0  0  0  0  0  0  0  0
    1.7096    7.6081    7.2010 C   0  0  0  0  0  0  0  0  0  0  0  0
    0.6227    4.2158    7.6497 C   0  0  0  0  0  0  0  0  0  0  0  0
    1.4115    5.3821    8.0400 O   0  0  0  0  0  0  0  0  0  0  0  0
    0.4191    4.3043    6.1295 C   0  0  0  0  0  0  0  0  0  0  0  0
    1.3651    3.4543    5.4682 O   0  0  0  0  0  0  0  0  0  0  0  0
    0.7055    5.7677    5.8155 C   0  0  0  0  0  0  0  0  0  0  0  0
    1.2261    5.9089    4.4888 O   0  0  0  0  0  0  0  0  0  0  0  0
    1.7731    6.1201    6.8504 C   0  0  0  0  0  0  0  0  0  0  0  0
    2.2643    3.7032    5.7338 H   0  0  0  0  0  0  0  0  0  0  0  0
    2.0194    5.3591    4.3926 H   0  0  0  0  0  0  0  0  0  0  0  0
    0.2461    2.9889   10.1590 O   0  0  0  0  0  0  0  0  0  0  0  0
   -0.7372    3.5408    9.6699 C   0  0  0  0  0  0  0  0  0  0  0  0
   -1.9464    3.5236   10.3806 N   0  0  0  0  0  0  0  0  0  0  0  0
   -3.0865    4.1417    9.8525 C   0  0  0  0  0  0  0  0  0  0  0  0
   -4.2262    4.1161   10.5361 N   0  0  0  0  0  0  0  0  0  0  0  0
   -3.0226    4.7786    8.6172 C   0  0  0  0  0  0  0  0  0  0  0  0
   -1.8265    4.8052    7.9036 C   0  0  0  0  0  0  0  0  0  0  0  0
   -0.6652    4.1851    8.4161 N   0  0  0  0  0  0  0  0  0  0  0  0
   -4.2662    3.6641   11.4098 H   0  0  0  0  0  0  0  0  0  0  0  0
   -5.0304    4.5492   10.1687 H   0  0  0  0  0  0  0  0  0  0  0  0
    3.5259    6.8634   10.0971 O   0  0  0  0  0  0  0  0  0  0  0  0
    4.7978    5.9532    9.6694 P   0  0  0  0  0  0  0  0  0  0  0  0
    6.0719    6.6812    9.8777 O   0  0  0  0  0  0  0  0  0  0  0  0
    4.5139    5.3572    8.3413 O   0  0  0  0  0  0  0  0  0  0  0  0
    4.5426    6.0502    7.6632 H   0  0  0  0  0  0  0  0  0  0  0  0
    4.7417    4.7702   10.7736 O   0  0  0  0  0  0  0  0  0  0  0  0
    4.3638    3.4292   10.4225 C   0  0  0  0  0  0  0  0  0  0  0  0
    4.1815    2.5753   11.6786 C   0  0  0  0  0  0  0  0  0  0  0  0
    2.8354    2.7090   12.1926 O   0  0  0  0  0  0  0  0  0  0  0  0
    2.7884    3.0737   13.5121 C   0  0  0  0  0  0  0  0  0  0  0  0
    2.7085    2.2162   14.3949 O   0  0  0  0  0  0  0  0  0  0  0  0
    2.8421    4.5667   13.8831 C   0  0  0  0  0  0  0  0  0  0  0  0
    3.5874    4.9735   14.9916 C   0  0  0  0  0  0  0  0  0  0  0  0
    3.6446    6.3240   15.3384 C   0  0  0  0  0  0  0  0  0  0  0  0
    2.9581    7.2750   14.5848 C   0  0  0  0  0  0  0  0  0  0  0  0
    2.2128    6.8743   13.4769 C   0  0  0  0  0  0  0  0  0  0  0  0
    2.1551    5.5249   13.1252 C   0  0  0  0  0  0  0  0  0  0  0  0
    1.4378    5.1696   12.0628 N   0  0  0  0  0  0  0  0  0  0  0  0
    1.3849    4.2226   11.7988 H   0  0  0  0  0  0  0  0  0  0  0  0
    0.9599    5.8537   11.5403 H   0  0  0  0  0  0  0  0  0  0  0  0
 16 17  2  0  0  0
 17 18  1  0  0  0
 17 23  1  0  0  0
 18 19  2  0  0  0
 19 20  1  0  0  0
 19 21  1  0  0  0
 21 22  2  0  0  0
 22 23  1  0  0  0
 23  7  1  0  0  0
  7  8  1  0  0  0
  7  9  1  0  0  0
  8 13  1  0  0  0
  9 10  1  0  0  0
  9 11  1  0  0  0
 11 12  1  0  0  0
 11 13  1  0  0  0
 13  6  1  0  0  0
  6  5  1  0  0  0
  5  1  1  0  0  0
  1  2  2  0  0  0
  1  3  1  0  0  0
  1 26  1  0  0  0
 26 27  1  0  0  0
 27 28  2  0  0  0
 27 29  1  0  0  0
 27 31  1  0  0  0
 31 32  1  0  0  0
 32 33  1  0  0  0
 33 34  1  0  0  0
 34 35  1  0  0  0
 35 36  2  0  0  0
 35 37  1  0  0  0
 37 38  2  0  0  0
 37 42  1  0  0  0
 38 39  1  0  0  0
 39 40  2  0  0  0
 40 41  1  0  0  0
 41 42  2  0  0  0
 42 43  1  0  0  0
 20 24  1  0  0  0
 20 25  1  0  0  0
 10 14  1  0  0  0
 12 15  1  0  0  0
  3  4  1  0  0  0
 29 30  1  0  0  0
 43 44  1  0  0  0
 43 45  1  0  0  0
M  END
> <minimizedAffinity>
-9.02082

$$$$
2AMT_1AA_A_1901


 45 47  0  0  0  0  0  0  0  0999 V2000
   -1.8493    4.3340    9.8956 P   0  0  0  0  0  0  0  0  0  0  0  0
   -2.7789    3.6856   10.8474 O   0  0  0  0  0  0  0  0  0  0  0  0
   -2.2560    4.5156    8.4876 O   0  0  0  0  0  0  0  0  0  0  0  0
   -2.5333    3.6625    8.1185 H   0  0  0  0  0  0  0  0  0  0  0  0
   -0.4552    3.5316    9.9351 O   0  0  0  0  0  0  0  0  0  0  0  0
    0.4026    3.5824   11.0907 C   0  0  0  0  0  0  0  0  0  0  0  0
    3.1805    5.8339   11.4146 C   0  0  0  0  0  0  0  0  0  0  0  0
    1.8678    5.4691   10.8868 O   0  0  0  0  0  0  0  0  0  0  0  0
    3.9406    4.5223   11.6633 C   0  0  0  0  0  0  0  0  0  0  0  0
    4.8334    4.2702   10.5705 O   0  0  0  0  0  0  0  0  0  0  0  0
    2.8371    3.4722   11.7042 C   0  0  0  0  0  0  0  0  0  0  0  0
    3.3269    2.2043   11.2532 O   0  0  0  0  0  0  0  0  0  0  0  0
    1.8157    4.0343   10.7163 C   0  0  0  0  0  0  0  0  0  0  0  0
    4.3317    4.2525    9.7406 H   0  0  0  0  0  0  0  0  0  0  0  0
    3.6990    2.2997   10.3625 H   0  0  0  0  0  0  0  0  0  0  0  0
    3.6934    8.5998   11.5903 O   0  0  0  0  0  0  0  0  0  0  0  0
    3.3096    8.0508   12.6208 C   0  0  0  0  0  0  0  0  0  0  0  0
    3.1549    8.8228   13.7817 N   0  0  0  0  0  0  0  0  0  0  0  0
    2.7205    8.2297   14.9734 C   0  0  0  0  0  0  0  0  0  0  0  0
    2.5800    8.9730   16.0664 N   0  0  0  0  0  0  0  0  0  0  0  0
    2.4383    6.8677   15.0092 C   0  0  0  0  0  0  0  0  0  0  0  0
    2.5848    6.0913   13.8619 C   0  0  0  0  0  0  0  0  0  0  0  0
    3.0252    6.6685   12.6500 N   0  0  0  0  0  0  0  0  0  0  0  0
    2.7810    9.9363   16.0358 H   0  0  0  0  0  0  0  0  0  0  0  0
    2.2750    8.5602   16.9065 H   0  0  0  0  0  0  0  0  0  0  0  0
   -1.3983    5.7854   10.4568 O   0  0  0  0  0  0  0  0  0  0  0  0
   -1.7916    7.2012    9.7709 P   0  0  0  0  0  0  0  0  0  0  0  0
   -1.0800    8.3272   10.4207 O   0  0  0  0  0  0  0  0  0  0  0  0
   -3.2679    7.2572    9.6406 O   0  0  0  0  0  0  0  0  0  0  0  0
   -3.6665    7.3571   10.5192 H   0  0  0  0  0  0  0  0  0  0  0  0
   -1.1620    7.0345    8.2885 O   0  0  0  0  0  0  0  0  0  0  0  0
    0.2388    7.2337    8.0383 C   0  0  0  0  0  0  0  0  0  0  0  0
    0.8524    5.9894    7.3938 C   0  0  0  0  0  0  0  0  0  0  0  0
    0.3064    5.7814    6.0699 O   0  0  0  0  0  0  0  0  0  0  0  0
    1.2617    5.7021    5.0915 C   0  0  0  0  0  0  0  0  0  0  0  0
    2.2090    6.4916    5.0776 O   0  0  0  0  0  0  0  0  0  0  0  0
    1.1438    4.6123    4.0106 C   0  0  0  0  0  0  0  0  0  0  0  0
    1.5239    4.9012    2.6985 C   0  0  0  0  0  0  0  0  0  0  0  0
    1.4225    3.9221    1.7093 C   0  0  0  0  0  0  0  0  0  0  0  0
    0.9398    2.6521    2.0216 C   0  0  0  0  0  0  0  0  0  0  0  0
    0.5593    2.3582    3.3302 C   0  0  0  0  0  0  0  0  0  0  0  0
    0.6616    3.3339    4.3228 C   0  0  0  0  0  0  0  0  0  0  0  0
    0.2931    3.0269    5.5636 N   0  0  0  0  0  0  0  0  0  0  0  0
    0.3579    3.7017    6.2775 H   0  0  0  0  0  0  0  0  0  0  0  0
   -0.0445    2.1250    5.7679 H   0  0  0  0  0  0  0  0  0  0  0  0
 16 17  2  0  0  0
 17 18  1  0  0  0
 17 23  1  0  0  0
 18 19  2  0  0  0
 19 20  1  0  0  0
 19 21  1  0  0  0
 21 22  2  0  0  0
 22 23  1  0  0  0
 23  7  1  0  0  0
  7  8  1  0  0  0
  7  9  1  0  0  0
  8 13  1  0  0  0
  9 10  1  0  0  0
  9 11  1  0  0  0
 11 12  1  0  0  0
 11 13  1  0  0  0
 13  6  1  0  0  0
  6  5  1  0  0  0
  5  1  1  0  0  0
  1  2  2  0  0  0
  1  3  1  0  0  0
  1 26  1  0  0  0
 26 27  1  0  0  0
 27 28  2  0  0  0
 27 29  1  0  0  0
 27 31  1  0  0  0
 31 32  1  0  0  0
 32 33  1  0  0  0
 33 34  1  0  0  0
 34 35  1  0  0  0
 35 36  2  0  0  0
 35 37  1  0  0  0
 37 38  2  0  0  0
 37 42  1  0  0  0
 38 39  1  0  0  0
 39 40  2  0  0  0
 40 41  1  0  0  0
 41 42  2  0  0  0
 42 43  1  0  0  0
 20 24  1  0  0  0
 20 25  1  0  0  0
 10 14  1  0  0  0
 12 15  1  0  0  0
  3  4  1  0  0  0
 29 30  1  0  0  0
 43 44  1  0  0  0
 43 45  1  0  0  0
M  END
> <minimizedAffinity>
-9.01831

$$$$
2AMT_1AA_A_1901


 45 47  0  0  0  0  0  0  0  0999 V2000
    1.2463    4.2225    4.9898 P   0  0  0  0  0  0  0  0  0  0  0  0
    0.5751    3.2022    5.8258 O   0  0  0  0  0  0  0  0  0  0  0  0
    2.7187    4.2187    4.8756 O   0  0  0  0  0  0  0  0  0  0  0  0
    3.1118    4.2360    5.7622 H   0  0  0  0  0  0  0  0  0  0  0  0
    0.7674    5.6737    5.4933 O   0  0  0  0  0  0  0  0  0  0  0  0
    1.5939    6.8383    5.3078 C   0  0  0  0  0  0  0  0  0  0  0  0
    0.0269    7.8757    8.3671 C   0  0  0  0  0  0  0  0  0  0  0  0
    0.0421    7.7067    6.9158 O   0  0  0  0  0  0  0  0  0  0  0  0
    1.4884    8.0382    8.8118 C   0  0  0  0  0  0  0  0  0  0  0  0
    1.7813    9.4288    8.9996 O   0  0  0  0  0  0  0  0  0  0  0  0
    2.2832    7.4792    7.6379 C   0  0  0  0  0  0  0  0  0  0  0  0
    3.5584    8.1231    7.5365 O   0  0  0  0  0  0  0  0  0  0  0  0
    1.4019    7.8447    6.4442 C   0  0  0  0  0  0  0  0  0  0  0  0
    1.5901    9.9129    8.1810 H   0  0  0  0  0  0  0  0  0  0  0  0
    3.4313    9.0817    7.4601 H   0  0  0  0  0  0  0  0  0  0  0  0
   -2.6735    7.8158    9.1719 O   0  0  0  0  0  0  0  0  0  0  0  0
   -2.0224    6.7932    9.3743 C   0  0  0  0  0  0  0  0  0  0  0  0
   -2.6561    5.6948    9.9739 N   0  0  0  0  0  0  0  0  0  0  0  0
   -1.9441    4.5145   10.2199 C   0  0  0  0  0  0  0  0  0  0  0  0
   -2.5569    3.4821   10.7904 N   0  0  0  0  0  0  0  0  0  0  0  0
   -0.6011    4.4267    9.8674 C   0  0  0  0  0  0  0  0  0  0  0  0
    0.0383    5.5097    9.2682 C   0  0  0  0  0  0  0  0  0  0  0  0
   -0.6600    6.7112    9.0141 N   0  0  0  0  0  0  0  0  0  0  0  0
   -3.5074    3.5492   11.0379 H   0  0  0  0  0  0  0  0  0  0  0  0
   -2.0603    2.6502   10.9654 H   0  0  0  0  0  0  0  0  0  0  0  0
    0.6474    4.1931    3.4847 O   0  0  0  0  0  0  0  0  0  0  0  0
    0.8727    2.9848    2.4269 P   0  0  0  0  0  0  0  0  0  0  0  0
    0.2239    1.7366    2.8932 O   0  0  0  0  0  0  0  0  0  0  0  0
    2.3080    2.9586    2.0544 O   0  0  0  0  0  0  0  0  0  0  0  0
    2.8323    2.6476    2.8089 H   0  0  0  0  0  0  0  0  0  0  0  0
    0.0305    3.5074    1.1466 O   0  0  0  0  0  0  0  0  0  0  0  0
    0.6103    3.5578   -0.1670 C   0  0  0  0  0  0  0  0  0  0  0  0
    0.9378    5.0007   -0.5555 C   0  0  0  0  0  0  0  0  0  0  0  0
    2.2284    5.0711   -1.2062 O   0  0  0  0  0  0  0  0  0  0  0  0
    3.2795    5.1276   -0.3297 C   0  0  0  0  0  0  0  0  0  0  0  0
    4.0418    4.1662   -0.2054 O   0  0  0  0  0  0  0  0  0  0  0  0
    3.5035    6.4074    0.4959 C   0  0  0  0  0  0  0  0  0  0  0  0
    3.3279    7.6544   -0.1072 C   0  0  0  0  0  0  0  0  0  0  0  0
    3.5273    8.8222    0.6302 C   0  0  0  0  0  0  0  0  0  0  0  0
    3.9051    8.7537    1.9704 C   0  0  0  0  0  0  0  0  0  0  0  0
    4.0814    7.5112    2.5776 C   0  0  0  0  0  0  0  0  0  0  0  0
    3.8804    6.3409    1.8442 C   0  0  0  0  0  0  0  0  0  0  0  0
    4.0541    5.1684    2.4480 N   0  0  0  0  0  0  0  0  0  0  0  0
    3.9170    4.3318    1.9474 H   0  0  0  0  0  0  0  0  0  0  0  0
    4.3197    5.1372    3.3955 H   0  0  0  0  0  0  0  0  0  0  0  0
 16 17  2  0  0  0
 17 18  1  0  0  0
 17 23  1  0  0  0
 18 19  2  0  0  0
 19 20  1  0  0  0
 19 21  1  0  0  0
 21 22  2  0  0  0
 22 23  1  0  0  0
 23  7  1  0  0  0
  7  8  1  0  0  0
  7  9  1  0  0  0
  8 13  1  0  0  0
  9 10  1  0  0  0
  9 11  1  0  0  0
 11 12  1  0  0  0
 11 13  1  0  0  0
 13  6  1  0  0  0
  6  5  1  0  0  0
  5  1  1  0  0  0
  1  2  2  0  0  0
  1  3  1  0  0  0
  1 26  1  0  0  0
 26 27  1  0  0  0
 27 28  2  0  0  0
 27 29  1  0  0  0
 27 31  1  0  0  0
 31 32  1  0  0  0
 32 33  1  0  0  0
 33 34  1  0  0  0
 34 35  1  0  0  0
 35 36  2  0  0  0
 35 37  1  0  0  0
 37 38  2  0  0  0
 37 42  1  0  0  0
 38 39  1  0  0  0
 39 40  2  0  0  0
 40 41  1  0  0  0
 41 42  2  0  0  0
 42 43  1  0  0  0
 20 24  1  0  0  0
 20 25  1  0  0  0
 10 14  1  0  0  0
 12 15  1  0  0  0
  3  4  1  0  0  0
 29 30  1  0  0  0
 43 44  1  0  0  0
 43 45  1  0  0  0
M  END
> <minimizedAffinity>
-8.94895

$$$$
2AMT_1AA_A_1901


 45 47  0  0  0  0  0  0  0  0999 V2000
   -2.4296    5.0773    8.5253 P   0  0  0  0  0  0  0  0  0  0  0  0
   -3.2784    3.8816    8.7266 O   0  0  0  0  0  0  0  0  0  0  0  0
   -2.6956    5.9773    7.3850 O   0  0  0  0  0  0  0  0  0  0  0  0
   -2.7074    5.4626    6.5628 H   0  0  0  0  0  0  0  0  0  0  0  0
   -0.8960    4.5950    8.4606 O   0  0  0  0  0  0  0  0  0  0  0  0
   -0.3149    4.1175    7.2326 C   0  0  0  0  0  0  0  0  0  0  0  0
    2.2966    4.9750    4.9227 C   0  0  0  0  0  0  0  0  0  0  0  0
    1.7167    4.1245    5.9597 O   0  0  0  0  0  0  0  0  0  0  0  0
    1.7315    6.3873    5.1376 C   0  0  0  0  0  0  0  0  0  0  0  0
    2.6903    7.1857    5.8434 O   0  0  0  0  0  0  0  0  0  0  0  0
    0.4967    6.1507    5.9987 C   0  0  0  0  0  0  0  0  0  0  0  0
    0.2401    7.2820    6.8386 O   0  0  0  0  0  0  0  0  0  0  0  0
    0.9114    4.9432    6.8382 C   0  0  0  0  0  0  0  0  0  0  0  0
    2.9206    6.7508    6.6793 H   0  0  0  0  0  0  0  0  0  0  0  0
    1.0240    7.4683    7.3786 H   0  0  0  0  0  0  0  0  0  0  0  0
    3.8895    5.3050    2.6211 O   0  0  0  0  0  0  0  0  0  0  0  0
    2.8625    4.6443    2.4821 C   0  0  0  0  0  0  0  0  0  0  0  0
    2.5659    4.1118    1.2188 N   0  0  0  0  0  0  0  0  0  0  0  0
    1.4039    3.3551    1.0247 C   0  0  0  0  0  0  0  0  0  0  0  0
    1.1346    2.8580   -0.1784 N   0  0  0  0  0  0  0  0  0  0  0  0
    0.5374    3.1268    2.0889 C   0  0  0  0  0  0  0  0  0  0  0  0
    0.8229    3.6475    3.3491 C   0  0  0  0  0  0  0  0  0  0  0  0
    1.9878    4.4167    3.5664 N   0  0  0  0  0  0  0  0  0  0  0  0
    1.7510    3.0224   -0.9282 H   0  0  0  0  0  0  0  0  0  0  0  0
    0.3186    2.3255   -0.3196 H   0  0  0  0  0  0  0  0  0  0  0  0
   -2.4217    5.9882    9.8650 O   0  0  0  0  0  0  0  0  0  0  0  0
   -2.3199    7.6065    9.8781 P   0  0  0  0  0  0  0  0  0  0  0  0
   -3.6102    8.2214   10.2699 O   0  0  0  0  0  0  0  0  0  0  0  0
   -1.6653    8.0385    8.6194 O   0  0  0  0  0  0  0  0  0  0  0  0
   -2.2699    7.8946    7.8746 H   0  0  0  0  0  0  0  0  0  0  0  0
   -1.2841    7.8609   11.0964 O   0  0  0  0  0  0  0  0  0  0  0  0
    0.0059    7.2293   11.1328 C   0  0  0  0  0  0  0  0  0  0  0  0
    1.1148    8.2569   10.8988 C   0  0  0  0  0  0  0  0  0  0  0  0
    1.2108    8.5895    9.4938 O   0  0  0  0  0  0  0  0  0  0  0  0
    1.0107    9.9191    9.2325 C   0  0  0  0  0  0  0  0  0  0  0  0
    0.4684   10.6456   10.0686 O   0  0  0  0  0  0  0  0  0  0  0  0
    1.4752   10.4999    7.8847 C   0  0  0  0  0  0  0  0  0  0  0  0
    0.6466   11.3884    7.1965 C   0  0  0  0  0  0  0  0  0  0  0  0
    1.0560   11.9224    5.9740 C   0  0  0  0  0  0  0  0  0  0  0  0
    2.2909   11.5722    5.4300 C   0  0  0  0  0  0  0  0  0  0  0  0
    3.1222   10.6858    6.1131 C   0  0  0  0  0  0  0  0  0  0  0  0
    2.7175   10.1515    7.3373 C   0  0  0  0  0  0  0  0  0  0  0  0
    3.5304    9.3091    7.9690 N   0  0  0  0  0  0  0  0  0  0  0  0
    3.2626    8.9218    8.8336 H   0  0  0  0  0  0  0  0  0  0  0  0
    4.3998    9.0730    7.5720 H   0  0  0  0  0  0  0  0  0  0  0  0
 16 17  2  0  0  0
 17 18  1  0  0  0
 17 23  1  0  0  0
 18 19  2  0  0  0
 19 20  1  0  0  0
 19 21  1  0  0  0
 21 22  2  0  0  0
 22 23  1  0  0  0
 23  7  1  0  0  0
  7  8  1  0  0  0
  7  9  1  0  0  0
  8 13  1  0  0  0
  9 10  1  0  0  0
  9 11  1  0  0  0
 11 12  1  0  0  0
 11 13  1  0  0  0
 13  6  1  0  0  0
  6  5  1  0  0  0
  5  1  1  0  0  0
  1  2  2  0  0  0
  1  3  1  0  0  0
  1 26  1  0  0  0
 26 27  1  0  0  0
 27 28  2  0  0  0
 27 29  1  0  0  0
 27 31  1  0  0  0
 31 32  1  0  0  0
 32 33  1  0  0  0
 33 34  1  0  0  0
 34 35  1  0  0  0
 35 36  2  0  0  0
 35 37  1  0  0  0
 37 38  2  0  0  0
 37 42  1  0  0  0
 38 39  1  0  0  0
 39 40  2  0  0  0
 40 41  1  0  0  0
 41 42  2  0  0  0
 42 43  1  0  0  0
 20 24  1  0  0  0
 20 25  1  0  0  0
 10 14  1  0  0  0
 12 15  1  0  0  0
  3  4  1  0  0  0
 29 30  1  0  0  0
 43 44  1  0  0  0
 43 45  1  0  0  0
M  END
> <minimizedAffinity>
-8.93441

$$$$
2AMT_1AA_A_1901


 45 47  0  0  0  0  0  0  0  0999 V2000
   -1.9960    4.6195    9.8141 P   0  0  0  0  0  0  0  0  0  0  0  0
   -3.1270    4.0495   10.5799 O   0  0  0  0  0  0  0  0  0  0  0  0
   -2.1081    4.7681    8.3490 O   0  0  0  0  0  0  0  0  0  0  0  0
   -2.3516    3.9158    7.9552 H   0  0  0  0  0  0  0  0  0  0  0  0
   -0.6806    3.7560   10.1502 O   0  0  0  0  0  0  0  0  0  0  0  0
    0.3244    4.2491   11.0561 C   0  0  0  0  0  0  0  0  0  0  0  0
    3.7876    3.6912   10.2907 C   0  0  0  0  0  0  0  0  0  0  0  0
    2.3779    3.7706    9.9149 O   0  0  0  0  0  0  0  0  0  0  0  0
    3.8314    3.2925   11.7737 C   0  0  0  0  0  0  0  0  0  0  0  0
    4.0793    1.8851   11.8853 O   0  0  0  0  0  0  0  0  0  0  0  0
    2.4325    3.6296   12.2756 C   0  0  0  0  0  0  0  0  0  0  0  0
    2.0563    2.7604   13.3498 O   0  0  0  0  0  0  0  0  0  0  0  0
    1.5706    3.3615   11.0426 C   0  0  0  0  0  0  0  0  0  0  0  0
    3.4004    1.3972   11.3934 H   0  0  0  0  0  0  0  0  0  0  0  0
    2.1201    1.8379   13.0569 H   0  0  0  0  0  0  0  0  0  0  0  0
    6.5019    3.9980    9.5963 O   0  0  0  0  0  0  0  0  0  0  0  0
    5.8385    5.0302    9.6686 C   0  0  0  0  0  0  0  0  0  0  0  0
    6.4644    6.2571    9.4031 N   0  0  0  0  0  0  0  0  0  0  0  0
    5.7389    7.4524    9.4772 C   0  0  0  0  0  0  0  0  0  0  0  0
    6.3454    8.6080    9.2248 N   0  0  0  0  0  0  0  0  0  0  0  0
    4.3893    7.4265    9.8140 C   0  0  0  0  0  0  0  0  0  0  0  0
    3.7558    6.2138   10.0765 C   0  0  0  0  0  0  0  0  0  0  0  0
    4.4695    4.9964   10.0109 N   0  0  0  0  0  0  0  0  0  0  0  0
    7.3006    8.6210    8.9869 H   0  0  0  0  0  0  0  0  0  0  0  0
    5.8393    9.4510    9.2759 H   0  0  0  0  0  0  0  0  0  0  0  0
   -1.5890    6.0682   10.4145 O   0  0  0  0  0  0  0  0  0  0  0  0
   -2.0048    7.4893    9.7534 P   0  0  0  0  0  0  0  0  0  0  0  0
   -1.1571    8.5894   10.2710 O   0  0  0  0  0  0  0  0  0  0  0  0
   -3.4805    7.6181    9.8249 O   0  0  0  0  0  0  0  0  0  0  0  0
   -3.7489    7.7544   10.7471 H   0  0  0  0  0  0  0  0  0  0  0  0
   -1.5943    7.2635    8.2035 O   0  0  0  0  0  0  0  0  0  0  0  0
   -0.3399    7.7300    7.6807 C   0  0  0  0  0  0  0  0  0  0  0  0
    0.5553    6.5501    7.2975 C   0  0  0  0  0  0  0  0  0  0  0  0
    0.0607    5.9051    6.1004 O   0  0  0  0  0  0  0  0  0  0  0  0
    0.4529    4.5980    5.9825 C   0  0  0  0  0  0  0  0  0  0  0  0
    0.5119    3.8712    6.9771 O   0  0  0  0  0  0  0  0  0  0  0  0
    0.8145    4.0427    4.5930 C   0  0  0  0  0  0  0  0  0  0  0  0
    0.1035    2.9557    4.0805 C   0  0  0  0  0  0  0  0  0  0  0  0
    0.4211    2.4430    2.8221 C   0  0  0  0  0  0  0  0  0  0  0  0
    1.4494    3.0085    2.0696 C   0  0  0  0  0  0  0  0  0  0  0  0
    2.1621    4.0941    2.5764 C   0  0  0  0  0  0  0  0  0  0  0  0
    1.8460    4.6114    3.8335 C   0  0  0  0  0  0  0  0  0  0  0  0
    2.5407    5.6486    4.2929 N   0  0  0  0  0  0  0  0  0  0  0  0
    2.3326    6.0275    5.1774 H   0  0  0  0  0  0  0  0  0  0  0  0
    3.2631    6.0373    3.7485 H   0  0  0  0  0  0  0  0  0  0  0  0
 16 17  2  0  0  0
 17 18  1  0  0  0
 17 23  1  0  0  0
 18 19  2  0  0  0
 19 20  1  0  0  0
 19 21  1  0  0  0
 21 22  2  0  0  0
 22 23  1  0  0  0
 23  7  1  0  0  0
  7  8  1  0  0  0
  7  9  1  0  0  0
  8 13  1  0  0  0
  9 10  1  0  0  0
  9 11  1  0  0  0
 11 12  1  0  0  0
 11 13  1  0  0  0
 13  6  1  0  0  0
  6  5  1  0  0  0
  5  1  1  0  0  0
  1  2  2  0  0  0
  1  3  1  0  0  0
  1 26  1  0  0  0
 26 27  1  0  0  0
 27 28  2  0  0  0
 27 29  1  0  0  0
 27 31  1  0  0  0
 31 32  1  0  0  0
 32 33  1  0  0  0
 33 34  1  0  0  0
 34 35  1  0  0  0
 35 36  2  0  0  0
 35 37  1  0  0  0
 37 38  2  0  0  0
 37 42  1  0  0  0
 38 39  1  0  0  0
 39 40  2  0  0  0
 40 41  1  0  0  0
 41 42  2  0  0  0
 42 43  1  0  0  0
 20 24  1  0  0  0
 20 25  1  0  0  0
 10 14  1  0  0  0
 12 15  1  0  0  0
  3  4  1  0  0  0
 29 30  1  0  0  0
 43 44  1  0  0  0
 43 45  1  0  0  0
M  END
> <minimizedAffinity>
-8.84047

$$$$
