3F16_HS3_A_0


 21 21  0  0  0  0  0  0  0  0999 V2000
   -3.9647   -6.1958   -8.1423 S   0  0  0  0  0  0  0  0  0  0  0  0
   -2.9714   -7.0686   -8.7099 O   0  0  0  0  0  0  0  0  0  0  0  0
   -3.7444   -4.8497   -8.6019 O   0  0  0  0  0  0  0  0  0  0  0  0
   -5.4317   -6.6866   -8.6202 C   0  0  0  0  0  0  0  0  0  0  0  0
   -6.4360   -6.9393   -7.6765 C   0  0  0  0  0  0  0  0  0  0  0  0
   -7.7038   -7.3813   -8.0634 C   0  0  0  0  0  0  0  0  0  0  0  0
   -7.9882   -7.5995   -9.4168 C   0  0  0  0  0  0  0  0  0  0  0  0
   -6.9908   -7.3582  -10.3640 C   0  0  0  0  0  0  0  0  0  0  0  0
   -5.7230   -6.9134   -9.9734 C   0  0  0  0  0  0  0  0  0  0  0  0
   -9.2204   -8.0490   -9.8400 O   0  0  0  0  0  0  0  0  0  0  0  0
   -9.4245   -8.6822  -11.1033 C   0  0  0  0  0  0  0  0  0  0  0  0
   -3.7237   -6.2447   -6.5517 N   0  0  0  0  0  0  0  0  0  0  0  0
   -4.5894   -6.0150   -6.0637 H   0  0  0  0  0  0  0  0  0  0  0  0
   -2.6462   -5.2211   -6.2034 C   0  0  0  0  0  0  0  0  0  0  0  0
   -1.6378   -6.0265   -5.7327 C   0  0  0  0  0  0  0  0  0  0  0  0
   -0.4239   -5.2350   -5.7049 O   0  0  0  0  0  0  0  0  0  0  0  0
   -0.2267   -4.9138   -6.5986 H   0  0  0  0  0  0  0  0  0  0  0  0
   -3.9852   -4.0493   -4.3687 O   0  0  0  0  0  0  0  0  0  0  0  0
   -3.1631   -4.1091   -5.2503 C   0  0  0  0  0  0  0  0  0  0  0  0
   -2.5782   -3.0055   -5.7407 N   0  0  0  0  0  0  0  0  0  0  0  0
   -2.5188   -1.8785   -4.9040 O   0  0  0  0  0  0  0  0  0  0  0  0
 18 19  2  0  0  0
 19 20  1  0  0  0
 19 14  1  0  0  0
 20 21  2  0  0  0
 14 15  1  0  0  0
 14 12  1  0  0  0
 15 16  1  0  0  0
 12  1  1  0  0  0
  1  2  2  0  0  0
  1  3  2  0  0  0
  1  4  1  0  0  0
  4  5  2  0  0  0
  4  9  1  0  0  0
  5  6  1  0  0  0
  6  7  2  0  0  0
  7  8  1  0  0  0
  7 10  1  0  0  0
  8  9  2  0  0  0
 10 11  1  0  0  0
 16 17  1  0  0  0
 12 13  1  0  0  0
M  END
> <minimizedAffinity>
-8.21646

$$$$
3F16_HS3_A_0


 21 21  0  0  0  0  0  0  0  0999 V2000
   -4.5534   -6.4299   -8.6220 S   0  0  0  0  0  0  0  0  0  0  0  0
   -3.5561   -7.3770   -9.0450 O   0  0  0  0  0  0  0  0  0  0  0  0
   -4.3621   -5.1839   -9.3168 O   0  0  0  0  0  0  0  0  0  0  0  0
   -6.0203   -7.0161   -8.9771 C   0  0  0  0  0  0  0  0  0  0  0  0
   -6.3434   -7.3646  -10.2951 C   0  0  0  0  0  0  0  0  0  0  0  0
   -7.6085   -7.8551  -10.6289 C   0  0  0  0  0  0  0  0  0  0  0  0
   -8.5919   -7.9900   -9.6416 C   0  0  0  0  0  0  0  0  0  0  0  0
   -8.2815   -7.6373   -8.3265 C   0  0  0  0  0  0  0  0  0  0  0  0
   -7.0131   -7.1487   -7.9951 C   0  0  0  0  0  0  0  0  0  0  0  0
   -9.8566   -8.4557   -9.9305 O   0  0  0  0  0  0  0  0  0  0  0  0
  -10.2487   -8.8800  -11.2362 C   0  0  0  0  0  0  0  0  0  0  0  0
   -4.2852   -6.1930   -7.0528 N   0  0  0  0  0  0  0  0  0  0  0  0
   -4.3657   -5.1999   -6.8344 H   0  0  0  0  0  0  0  0  0  0  0  0
   -2.8741   -6.6802   -6.7338 C   0  0  0  0  0  0  0  0  0  0  0  0
   -3.1103   -7.5731   -5.7170 C   0  0  0  0  0  0  0  0  0  0  0  0
   -2.5167   -7.0294   -4.5117 O   0  0  0  0  0  0  0  0  0  0  0  0
   -1.5654   -6.9000   -4.6498 H   0  0  0  0  0  0  0  0  0  0  0  0
   -0.7212   -5.4306   -6.1541 O   0  0  0  0  0  0  0  0  0  0  0  0
   -1.8922   -5.5147   -6.4345 C   0  0  0  0  0  0  0  0  0  0  0  0
   -2.7085   -4.4520   -6.3657 N   0  0  0  0  0  0  0  0  0  0  0  0
   -3.2297   -4.1171   -5.1048 O   0  0  0  0  0  0  0  0  0  0  0  0
 18 19  2  0  0  0
 19 20  1  0  0  0
 19 14  1  0  0  0
 20 21  2  0  0  0
 14 15  1  0  0  0
 14 12  1  0  0  0
 15 16  1  0  0  0
 12  1  1  0  0  0
  1  2  2  0  0  0
  1  3  2  0  0  0
  1  4  1  0  0  0
  4  5  2  0  0  0
  4  9  1  0  0  0
  5  6  1  0  0  0
  6  7  2  0  0  0
  7  8  1  0  0  0
  7 10  1  0  0  0
  8  9  2  0  0  0
 10 11  1  0  0  0
 16 17  1  0  0  0
 12 13  1  0  0  0
M  END
> <minimizedAffinity>
-7.95055

$$$$
3F16_HS3_A_0


 21 21  0  0  0  0  0  0  0  0999 V2000
   -2.6616   -5.0355   -6.2308 S   0  0  0  0  0  0  0  0  0  0  0  0
   -1.3947   -5.3855   -6.8164 O   0  0  0  0  0  0  0  0  0  0  0  0
   -2.7955   -3.6030   -6.1891 O   0  0  0  0  0  0  0  0  0  0  0  0
   -3.8505   -5.6537   -7.1397 C   0  0  0  0  0  0  0  0  0  0  0  0
   -4.9406   -6.2960   -6.5381 C   0  0  0  0  0  0  0  0  0  0  0  0
   -5.9692   -6.8534   -7.3022 C   0  0  0  0  0  0  0  0  0  0  0  0
   -5.9164   -6.7943   -8.7000 C   0  0  0  0  0  0  0  0  0  0  0  0
   -4.8294   -6.1633   -9.3087 C   0  0  0  0  0  0  0  0  0  0  0  0
   -3.8022   -5.6041   -8.5407 C   0  0  0  0  0  0  0  0  0  0  0  0
   -6.9020   -7.3440   -9.4911 O   0  0  0  0  0  0  0  0  0  0  0  0
   -7.8708   -8.2683   -8.9952 C   0  0  0  0  0  0  0  0  0  0  0  0
   -2.6083   -5.5936   -4.7221 N   0  0  0  0  0  0  0  0  0  0  0  0
   -3.2515   -5.0632   -4.1344 H   0  0  0  0  0  0  0  0  0  0  0  0
   -1.1811   -5.4300   -4.2059 C   0  0  0  0  0  0  0  0  0  0  0  0
   -0.9488   -6.6571   -3.6337 C   0  0  0  0  0  0  0  0  0  0  0  0
   -0.7711   -7.6134   -4.7082 O   0  0  0  0  0  0  0  0  0  0  0  0
   -1.5680   -7.6303   -5.2610 H   0  0  0  0  0  0  0  0  0  0  0  0
   -0.2962   -3.2135   -3.2913 O   0  0  0  0  0  0  0  0  0  0  0  0
   -1.0139   -4.1840   -3.2940 C   0  0  0  0  0  0  0  0  0  0  0  0
   -1.8063   -4.4739   -2.2508 N   0  0  0  0  0  0  0  0  0  0  0  0
   -3.1607   -4.1131   -2.3472 O   0  0  0  0  0  0  0  0  0  0  0  0
 18 19  2  0  0  0
 19 20  1  0  0  0
 19 14  1  0  0  0
 20 21  2  0  0  0
 14 15  1  0  0  0
 14 12  1  0  0  0
 15 16  1  0  0  0
 12  1  1  0  0  0
  1  2  2  0  0  0
  1  3  2  0  0  0
  1  4  1  0  0  0
  4  5  2  0  0  0
  4  9  1  0  0  0
  5  6  1  0  0  0
  6  7  2  0  0  0
  7  8  1  0  0  0
  7 10  1  0  0  0
  8  9  2  0  0  0
 10 11  1  0  0  0
 16 17  1  0  0  0
 12 13  1  0  0  0
M  END
> <minimizedAffinity>
-7.39173

$$$$
3F16_HS3_A_0


 21 21  0  0  0  0  0  0  0  0999 V2000
   -2.3428   -6.2363   -5.7337 S   0  0  0  0  0  0  0  0  0  0  0  0
   -1.9916   -7.5202   -5.1872 O   0  0  0  0  0  0  0  0  0  0  0  0
   -1.1746   -5.6173   -6.3027 O   0  0  0  0  0  0  0  0  0  0  0  0
   -3.4523   -6.4439   -6.8945 C   0  0  0  0  0  0  0  0  0  0  0  0
   -4.8173   -6.4375   -6.5786 C   0  0  0  0  0  0  0  0  0  0  0  0
   -5.7925   -6.6330   -7.5601 C   0  0  0  0  0  0  0  0  0  0  0  0
   -5.4151   -6.8600   -8.8891 C   0  0  0  0  0  0  0  0  0  0  0  0
   -4.0565   -6.8764   -9.2120 C   0  0  0  0  0  0  0  0  0  0  0  0
   -3.0826   -6.6780   -8.2272 C   0  0  0  0  0  0  0  0  0  0  0  0
   -6.3438   -7.0720   -9.8851 O   0  0  0  0  0  0  0  0  0  0  0  0
   -7.7524   -7.0351   -9.6544 C   0  0  0  0  0  0  0  0  0  0  0  0
   -2.8366   -5.3547   -4.4809 N   0  0  0  0  0  0  0  0  0  0  0  0
   -3.3814   -4.5584   -4.8119 H   0  0  0  0  0  0  0  0  0  0  0  0
   -1.6014   -4.8610   -3.7321 C   0  0  0  0  0  0  0  0  0  0  0  0
   -1.7572   -5.4648   -2.5081 C   0  0  0  0  0  0  0  0  0  0  0  0
   -1.8505   -4.4156   -1.5124 O   0  0  0  0  0  0  0  0  0  0  0  0
   -1.0454   -3.8750   -1.5359 H   0  0  0  0  0  0  0  0  0  0  0  0
   -0.6680   -2.5162   -3.3282 O   0  0  0  0  0  0  0  0  0  0  0  0
   -1.4737   -3.3132   -3.7434 C   0  0  0  0  0  0  0  0  0  0  0  0
   -2.6655   -2.9228   -4.2205 N   0  0  0  0  0  0  0  0  0  0  0  0
   -2.7187   -2.4955   -5.5578 O   0  0  0  0  0  0  0  0  0  0  0  0
 18 19  2  0  0  0
 19 20  1  0  0  0
 19 14  1  0  0  0
 20 21  2  0  0  0
 14 15  1  0  0  0
 14 12  1  0  0  0
 15 16  1  0  0  0
 12  1  1  0  0  0
  1  2  2  0  0  0
  1  3  2  0  0  0
  1  4  1  0  0  0
  4  5  2  0  0  0
  4  9  1  0  0  0
  5  6  1  0  0  0
  6  7  2  0  0  0
  7  8  1  0  0  0
  7 10  1  0  0  0
  8  9  2  0  0  0
 10 11  1  0  0  0
 16 17  1  0  0  0
 12 13  1  0  0  0
M  END
> <minimizedAffinity>
-7.39060

$$$$
3F16_HS3_A_0


 21 21  0  0  0  0  0  0  0  0999 V2000
   -3.2445   -5.1619   -6.1010 S   0  0  0  0  0  0  0  0  0  0  0  0
   -2.6909   -3.9663   -6.6795 O   0  0  0  0  0  0  0  0  0  0  0  0
   -3.9417   -4.8326   -4.8856 O   0  0  0  0  0  0  0  0  0  0  0  0
   -4.2876   -5.8199   -7.1500 C   0  0  0  0  0  0  0  0  0  0  0  0
   -5.4384   -6.4727   -6.6889 C   0  0  0  0  0  0  0  0  0  0  0  0
   -6.3436   -7.0642   -7.5739 C   0  0  0  0  0  0  0  0  0  0  0  0
   -6.1019   -7.0295   -8.9525 C   0  0  0  0  0  0  0  0  0  0  0  0
   -4.9531   -6.3882   -9.4208 C   0  0  0  0  0  0  0  0  0  0  0  0
   -4.0499   -5.7949   -8.5321 C   0  0  0  0  0  0  0  0  0  0  0  0
   -6.9610   -7.6130   -9.8586 O   0  0  0  0  0  0  0  0  0  0  0  0
   -8.3800   -7.4721   -9.7856 C   0  0  0  0  0  0  0  0  0  0  0  0
   -1.9809   -6.0899   -5.7368 N   0  0  0  0  0  0  0  0  0  0  0  0
   -2.1461   -7.0422   -6.0626 H   0  0  0  0  0  0  0  0  0  0  0  0
   -1.8098   -6.0843   -4.2199 C   0  0  0  0  0  0  0  0  0  0  0  0
   -0.7196   -5.2630   -4.0650 C   0  0  0  0  0  0  0  0  0  0  0  0
   -0.0939   -5.1181   -5.3643 O   0  0  0  0  0  0  0  0  0  0  0  0
    0.1698   -5.9909   -5.6953 H   0  0  0  0  0  0  0  0  0  0  0  0
   -1.4514   -7.9748   -2.5377 O   0  0  0  0  0  0  0  0  0  0  0  0
   -1.7048   -7.5149   -3.6244 C   0  0  0  0  0  0  0  0  0  0  0  0
   -1.7956   -8.2944   -4.7127 N   0  0  0  0  0  0  0  0  0  0  0  0
   -3.0633   -8.8045   -5.0393 O   0  0  0  0  0  0  0  0  0  0  0  0
 18 19  2  0  0  0
 19 20  1  0  0  0
 19 14  1  0  0  0
 20 21  2  0  0  0
 14 15  1  0  0  0
 14 12  1  0  0  0
 15 16  1  0  0  0
 12  1  1  0  0  0
  1  2  2  0  0  0
  1  3  2  0  0  0
  1  4  1  0  0  0
  4  5  2  0  0  0
  4  9  1  0  0  0
  5  6  1  0  0  0
  6  7  2  0  0  0
  7  8  1  0  0  0
  7 10  1  0  0  0
  8  9  2  0  0  0
 10 11  1  0  0  0
 16 17  1  0  0  0
 12 13  1  0  0  0
M  END
> <minimizedAffinity>
-7.20114

$$$$
3F16_HS3_A_0


 21 21  0  0  0  0  0  0  0  0999 V2000
   -3.3295   -5.8907   -6.8077 S   0  0  0  0  0  0  0  0  0  0  0  0
   -2.1342   -6.2519   -7.5227 O   0  0  0  0  0  0  0  0  0  0  0  0
   -3.3585   -4.4663   -6.6030 O   0  0  0  0  0  0  0  0  0  0  0  0
   -4.6192   -6.3277   -7.6836 C   0  0  0  0  0  0  0  0  0  0  0  0
   -4.5783   -6.2670   -9.0828 C   0  0  0  0  0  0  0  0  0  0  0  0
   -5.6847   -6.6213   -9.8593 C   0  0  0  0  0  0  0  0  0  0  0  0
   -6.8733   -7.0299   -9.2424 C   0  0  0  0  0  0  0  0  0  0  0  0
   -6.9260   -7.0855   -7.8480 C   0  0  0  0  0  0  0  0  0  0  0  0
   -5.8156   -6.7324   -7.0734 C   0  0  0  0  0  0  0  0  0  0  0  0
   -7.9920   -7.3736   -9.9702 O   0  0  0  0  0  0  0  0  0  0  0  0
   -9.1648   -7.9302   -9.3756 C   0  0  0  0  0  0  0  0  0  0  0  0
   -3.2114   -6.6162   -5.3758 N   0  0  0  0  0  0  0  0  0  0  0  0
   -3.5365   -5.9872   -4.6417 H   0  0  0  0  0  0  0  0  0  0  0  0
   -1.7448   -6.9695   -5.1425 C   0  0  0  0  0  0  0  0  0  0  0  0
   -1.8319   -8.2867   -4.7626 C   0  0  0  0  0  0  0  0  0  0  0  0
   -3.2333   -8.5872   -4.5471 O   0  0  0  0  0  0  0  0  0  0  0  0
   -3.5878   -8.0009   -3.8605 H   0  0  0  0  0  0  0  0  0  0  0  0
   -0.4079   -4.9764   -4.2634 O   0  0  0  0  0  0  0  0  0  0  0  0
   -1.0446   -5.9960   -4.1554 C   0  0  0  0  0  0  0  0  0  0  0  0
   -1.1305   -6.6494   -2.9866 N   0  0  0  0  0  0  0  0  0  0  0  0
   -1.8664   -6.0395   -1.9569 O   0  0  0  0  0  0  0  0  0  0  0  0
 18 19  2  0  0  0
 19 20  1  0  0  0
 19 14  1  0  0  0
 20 21  2  0  0  0
 14 15  1  0  0  0
 14 12  1  0  0  0
 15 16  1  0  0  0
 12  1  1  0  0  0
  1  2  2  0  0  0
  1  3  2  0  0  0
  1  4  1  0  0  0
  4  5  2  0  0  0
  4  9  1  0  0  0
  5  6  1  0  0  0
  6  7  2  0  0  0
  7  8  1  0  0  0
  7 10  1  0  0  0
  8  9  2  0  0  0
 10 11  1  0  0  0
 16 17  1  0  0  0
 12 13  1  0  0  0
M  END
> <minimizedAffinity>
-7.16217

$$$$
3F16_HS3_A_0


 21 21  0  0  0  0  0  0  0  0999 V2000
   -4.6704   -6.8617   -8.9944 S   0  0  0  0  0  0  0  0  0  0  0  0
   -5.0062   -5.5984   -9.5959 O   0  0  0  0  0  0  0  0  0  0  0  0
   -4.0995   -7.7332   -9.9875 O   0  0  0  0  0  0  0  0  0  0  0  0
   -3.5849   -6.6131   -7.8190 C   0  0  0  0  0  0  0  0  0  0  0  0
   -2.5679   -5.6636   -7.9837 C   0  0  0  0  0  0  0  0  0  0  0  0
   -1.6090   -5.4445   -6.9912 C   0  0  0  0  0  0  0  0  0  0  0  0
   -1.6389   -6.1936   -5.8088 C   0  0  0  0  0  0  0  0  0  0  0  0
   -2.6441   -7.1482   -5.6393 C   0  0  0  0  0  0  0  0  0  0  0  0
   -3.6041   -7.3634   -6.6341 C   0  0  0  0  0  0  0  0  0  0  0  0
   -0.7039   -6.0197   -4.8113 O   0  0  0  0  0  0  0  0  0  0  0  0
   -0.9522   -6.3575   -3.4464 C   0  0  0  0  0  0  0  0  0  0  0  0
   -6.0675   -7.4883   -8.4986 N   0  0  0  0  0  0  0  0  0  0  0  0
   -5.9291   -8.4570   -8.2106 H   0  0  0  0  0  0  0  0  0  0  0  0
   -7.0531   -7.4305   -9.6628 C   0  0  0  0  0  0  0  0  0  0  0  0
   -7.9697   -6.5143   -9.2074 C   0  0  0  0  0  0  0  0  0  0  0  0
   -8.0927   -6.6948   -7.7746 O   0  0  0  0  0  0  0  0  0  0  0  0
   -8.3814   -7.6016   -7.5866 H   0  0  0  0  0  0  0  0  0  0  0  0
   -7.8293   -9.3972  -11.0988 O   0  0  0  0  0  0  0  0  0  0  0  0
   -7.5940   -8.8315  -10.0589 C   0  0  0  0  0  0  0  0  0  0  0  0
   -7.9735   -9.3452   -8.8789 N   0  0  0  0  0  0  0  0  0  0  0  0
   -9.3525   -9.4678   -8.6400 O   0  0  0  0  0  0  0  0  0  0  0  0
 18 19  2  0  0  0
 19 20  1  0  0  0
 19 14  1  0  0  0
 20 21  2  0  0  0
 14 15  1  0  0  0
 14 12  1  0  0  0
 15 16  1  0  0  0
 12  1  1  0  0  0
  1  2  2  0  0  0
  1  3  2  0  0  0
  1  4  1  0  0  0
  4  5  2  0  0  0
  4  9  1  0  0  0
  5  6  1  0  0  0
  6  7  2  0  0  0
  7  8  1  0  0  0
  7 10  1  0  0  0
  8  9  2  0  0  0
 10 11  1  0  0  0
 16 17  1  0  0  0
 12 13  1  0  0  0
M  END
> <minimizedAffinity>
-6.77389

$$$$
3F16_HS3_A_0


 21 21  0  0  0  0  0  0  0  0999 V2000
   -2.1147   -5.4261   -5.9749 S   0  0  0  0  0  0  0  0  0  0  0  0
   -2.8479   -4.1906   -6.0565 O   0  0  0  0  0  0  0  0  0  0  0  0
   -1.0519   -5.4223   -6.9454 O   0  0  0  0  0  0  0  0  0  0  0  0
   -1.4792   -5.5641   -4.4921 C   0  0  0  0  0  0  0  0  0  0  0  0
   -1.3667   -6.8214   -3.8842 C   0  0  0  0  0  0  0  0  0  0  0  0
   -0.8387   -6.9636   -2.5983 C   0  0  0  0  0  0  0  0  0  0  0  0
   -0.4259   -5.8347   -1.8804 C   0  0  0  0  0  0  0  0  0  0  0  0
   -0.5420   -4.5765   -2.4750 C   0  0  0  0  0  0  0  0  0  0  0  0
   -1.0689   -4.4378   -3.7637 C   0  0  0  0  0  0  0  0  0  0  0  0
    0.0865   -5.9290   -0.6044 O   0  0  0  0  0  0  0  0  0  0  0  0
    0.0507   -4.8489    0.3288 C   0  0  0  0  0  0  0  0  0  0  0  0
   -3.1675   -6.5791   -6.3658 N   0  0  0  0  0  0  0  0  0  0  0  0
   -2.7291   -7.2470   -6.9999 H   0  0  0  0  0  0  0  0  0  0  0  0
   -4.3602   -5.9193   -7.0531 C   0  0  0  0  0  0  0  0  0  0  0  0
   -5.3904   -6.7483   -6.6813 C   0  0  0  0  0  0  0  0  0  0  0  0
   -6.5854   -6.2926   -7.3632 O   0  0  0  0  0  0  0  0  0  0  0  0
   -6.7690   -5.3732   -7.1144 H   0  0  0  0  0  0  0  0  0  0  0  0
   -3.8991   -4.7689   -9.2883 O   0  0  0  0  0  0  0  0  0  0  0  0
   -4.1349   -5.7143   -8.5760 C   0  0  0  0  0  0  0  0  0  0  0  0
   -4.4512   -6.9149   -9.0848 N   0  0  0  0  0  0  0  0  0  0  0  0
   -5.4914   -6.9642  -10.0279 O   0  0  0  0  0  0  0  0  0  0  0  0
 18 19  2  0  0  0
 19 20  1  0  0  0
 19 14  1  0  0  0
 20 21  2  0  0  0
 14 15  1  0  0  0
 14 12  1  0  0  0
 15 16  1  0  0  0
 12  1  1  0  0  0
  1  2  2  0  0  0
  1  3  2  0  0  0
  1  4  1  0  0  0
  4  5  2  0  0  0
  4  9  1  0  0  0
  5  6  1  0  0  0
  6  7  2  0  0  0
  7  8  1  0  0  0
  7 10  1  0  0  0
  8  9  2  0  0  0
 10 11  1  0  0  0
 16 17  1  0  0  0
 12 13  1  0  0  0
M  END
> <minimizedAffinity>
-6.69892

$$$$
3F16_HS3_A_0


 21 21  0  0  0  0  0  0  0  0999 V2000
   -2.5473   -3.4788   -5.0385 S   0  0  0  0  0  0  0  0  0  0  0  0
   -3.8419   -3.9173   -4.5888 O   0  0  0  0  0  0  0  0  0  0  0  0
   -2.6649   -2.1881   -5.6646 O   0  0  0  0  0  0  0  0  0  0  0  0
   -1.5584   -3.3616   -3.7619 C   0  0  0  0  0  0  0  0  0  0  0  0
   -1.0255   -4.5148   -3.1709 C   0  0  0  0  0  0  0  0  0  0  0  0
   -0.1848   -4.4399   -2.0573 C   0  0  0  0  0  0  0  0  0  0  0  0
    0.1272   -3.1958   -1.4959 C   0  0  0  0  0  0  0  0  0  0  0  0
   -0.4061   -2.0414   -2.0732 C   0  0  0  0  0  0  0  0  0  0  0  0
   -1.2457   -2.1198   -3.1896 C   0  0  0  0  0  0  0  0  0  0  0  0
    0.9401   -3.0783   -0.3891 O   0  0  0  0  0  0  0  0  0  0  0  0
    1.6826   -1.8953   -0.0927 C   0  0  0  0  0  0  0  0  0  0  0  0
   -2.0899   -4.5515   -6.1478 N   0  0  0  0  0  0  0  0  0  0  0  0
   -1.9260   -4.0804   -7.0375 H   0  0  0  0  0  0  0  0  0  0  0  0
   -3.2086   -5.5783   -6.3045 C   0  0  0  0  0  0  0  0  0  0  0  0
   -2.5517   -6.7518   -6.0245 C   0  0  0  0  0  0  0  0  0  0  0  0
   -3.5549   -7.7489   -5.7080 O   0  0  0  0  0  0  0  0  0  0  0  0
   -4.0783   -7.4509   -4.9476 H   0  0  0  0  0  0  0  0  0  0  0  0
   -3.6957   -4.9208   -8.7259 O   0  0  0  0  0  0  0  0  0  0  0  0
   -3.9218   -5.4807   -7.6808 C   0  0  0  0  0  0  0  0  0  0  0  0
   -5.0995   -6.0790   -7.4454 N   0  0  0  0  0  0  0  0  0  0  0  0
   -5.3474   -7.2986   -8.0972 O   0  0  0  0  0  0  0  0  0  0  0  0
 18 19  2  0  0  0
 19 20  1  0  0  0
 19 14  1  0  0  0
 20 21  2  0  0  0
 14 15  1  0  0  0
 14 12  1  0  0  0
 15 16  1  0  0  0
 12  1  1  0  0  0
  1  2  2  0  0  0
  1  3  2  0  0  0
  1  4  1  0  0  0
  4  5  2  0  0  0
  4  9  1  0  0  0
  5  6  1  0  0  0
  6  7  2  0  0  0
  7  8  1  0  0  0
  7 10  1  0  0  0
  8  9  2  0  0  0
 10 11  1  0  0  0
 16 17  1  0  0  0
 12 13  1  0  0  0
M  END
> <minimizedAffinity>
-6.69211

$$$$
3F16_HS3_A_0


 21 21  0  0  0  0  0  0  0  0999 V2000
   -2.3827   -3.3854   -4.7825 S   0  0  0  0  0  0  0  0  0  0  0  0
   -3.5694   -3.8418   -4.1088 O   0  0  0  0  0  0  0  0  0  0  0  0
   -2.7340   -2.3856   -5.7564 O   0  0  0  0  0  0  0  0  0  0  0  0
   -1.3761   -2.7354   -3.6935 C   0  0  0  0  0  0  0  0  0  0  0  0
   -1.3677   -1.3516   -3.4747 C   0  0  0  0  0  0  0  0  0  0  0  0
   -0.4954   -0.7656   -2.5536 C   0  0  0  0  0  0  0  0  0  0  0  0
    0.4088   -1.5608   -1.8393 C   0  0  0  0  0  0  0  0  0  0  0  0
    0.4133   -2.9403   -2.0569 C   0  0  0  0  0  0  0  0  0  0  0  0
   -0.4631   -3.5241   -2.9781 C   0  0  0  0  0  0  0  0  0  0  0  0
    1.2960   -1.0219   -0.9327 O   0  0  0  0  0  0  0  0  0  0  0  0
    2.6520   -0.7169   -1.2600 C   0  0  0  0  0  0  0  0  0  0  0  0
   -1.8008   -4.6740   -5.5516 N   0  0  0  0  0  0  0  0  0  0  0  0
   -1.4686   -4.4033   -6.4772 H   0  0  0  0  0  0  0  0  0  0  0  0
   -2.9271   -5.6958   -5.6845 C   0  0  0  0  0  0  0  0  0  0  0  0
   -2.2492   -6.8803   -5.5283 C   0  0  0  0  0  0  0  0  0  0  0  0
   -3.2358   -7.9330   -5.3891 O   0  0  0  0  0  0  0  0  0  0  0  0
   -3.7993   -7.7485   -4.6214 H   0  0  0  0  0  0  0  0  0  0  0  0
   -3.5333   -5.0297   -8.0763 O   0  0  0  0  0  0  0  0  0  0  0  0
   -3.7443   -5.5186   -6.9932 C   0  0  0  0  0  0  0  0  0  0  0  0
   -4.9743   -5.9113   -6.6279 N   0  0  0  0  0  0  0  0  0  0  0  0
   -5.4082   -7.1728   -7.0684 O   0  0  0  0  0  0  0  0  0  0  0  0
 18 19  2  0  0  0
 19 20  1  0  0  0
 19 14  1  0  0  0
 20 21  2  0  0  0
 14 15  1  0  0  0
 14 12  1  0  0  0
 15 16  1  0  0  0
 12  1  1  0  0  0
  1  2  2  0  0  0
  1  3  2  0  0  0
  1  4  1  0  0  0
  4  5  2  0  0  0
  4  9  1  0  0  0
  5  6  1  0  0  0
  6  7  2  0  0  0
  7  8  1  0  0  0
  7 10  1  0  0  0
  8  9  2  0  0  0
 10 11  1  0  0  0
 16 17  1  0  0  0
 12 13  1  0  0  0
M  END
> <minimizedAffinity>
-6.60604

$$$$
