6F9U_D0W_A_711


 45 46  0  0  0  0  0  0  0  0999 V2000
  -15.1177   -8.3253   24.8179 C   0  0  0  0  0  0  0  0  0  0  0  0
  -14.6085   -6.5700   26.3222 C   0  0  0  0  0  0  0  0  0  0  0  0
  -14.1629   -7.8579   26.0391 C   0  0  0  0  0  0  0  0  0  0  0  0
  -16.4331   -7.4387   24.8899 C   0  0  0  0  0  0  0  0  0  0  0  0
  -16.2280   -6.4766   25.8738 C   0  0  0  0  0  0  0  0  0  0  0  0
  -14.4356   -8.8780   27.1733 C   0  0  0  0  0  0  0  0  0  0  0  0
  -14.7255  -10.2362   26.7874 N   0  0  0  0  0  0  0  0  0  0  0  0
  -14.3710   -8.5899   28.3379 O   0  0  0  0  0  0  0  0  0  0  0  0
  -14.7854  -10.4701   25.8330 H   0  0  0  0  0  0  0  0  0  0  0  0
  -14.9293  -11.2601   27.7922 C   0  0  0  0  0  0  0  0  0  0  0  0
  -14.1490  -12.5091   27.3267 C   0  0  0  0  0  0  0  0  0  0  0  0
  -14.3470  -13.6056   27.9158 O   0  0  0  0  0  0  0  0  0  0  0  0
  -13.3225  -12.4891   26.3637 O   0  0  0  0  0  0  0  0  0  0  0  0
  -14.9515  -13.6511   28.6303 H   0  0  0  0  0  0  0  0  0  0  0  0
  -16.4018  -11.6379   27.9100 C   0  0  0  0  0  0  0  0  0  0  0  0
  -17.3653  -10.4577   27.7993 C   0  0  0  0  0  0  0  0  0  0  0  0
  -18.9487   -9.1585   26.5533 C   0  0  0  0  0  0  0  0  0  0  0  0
  -18.0728  -10.2290   26.6323 C   0  0  0  0  0  0  0  0  0  0  0  0
  -19.1153   -8.3201   27.6498 C   0  0  0  0  0  0  0  0  0  0  0  0
  -18.4088   -8.5552   28.8180 C   0  0  0  0  0  0  0  0  0  0  0  0
  -17.5318   -9.6287   28.8974 C   0  0  0  0  0  0  0  0  0  0  0  0
  -19.9984   -7.2307   27.5909 O   0  0  0  0  0  0  0  0  0  0  0  0
  -20.1033   -6.6718   28.3357 H   0  0  0  0  0  0  0  0  0  0  0  0
  -12.7119   -7.9135   25.5374 C   0  0  0  0  0  0  0  0  0  0  0  0
  -12.4756   -8.7714   24.2794 C   0  0  0  0  0  0  0  0  0  0  0  0
  -11.4540   -9.8551   24.5825 C   0  0  0  0  0  0  0  0  0  0  0  0
  -11.7856  -11.0658   24.4208 O   0  0  0  0  0  0  0  0  0  0  0  0
  -10.3030   -9.5226   24.9905 O   0  0  0  0  0  0  0  0  0  0  0  0
  -12.6460  -11.2794   24.1172 H   0  0  0  0  0  0  0  0  0  0  0  0
  -11.9284   -7.9139   23.1372 C   0  0  0  0  0  0  0  0  0  0  0  0
  -13.5831   -7.9213   21.1826 C   0  0  0  0  0  0  0  0  0  0  0  0
  -12.3463   -8.4110   21.8155 N   0  0  0  0  0  0  0  0  0  0  0  0
  -14.2338   -7.0988   21.7245 O   0  0  0  0  0  0  0  0  0  0  0  0
  -11.7926   -9.0784   21.3494 H   0  0  0  0  0  0  0  0  0  0  0  0
  -14.0441   -8.3948   19.7940 C   0  0  0  0  0  0  0  0  0  0  0  0
  -13.9729   -5.9109   17.9741 C   0  0  0  0  0  0  0  0  0  0  0  0
  -12.9957   -7.0863   17.8662 C   0  0  0  0  0  0  0  0  0  0  0  0
  -13.0364   -8.2475   18.7561 N   0  0  0  0  0  0  0  0  0  0  0  0
  -12.1568   -7.0312   17.0312 O   0  0  0  0  0  0  0  0  0  0  0  0
  -12.3582   -8.9530   18.6484 H   0  0  0  0  0  0  0  0  0  0  0  0
  -14.2990   -9.8989   19.8769 C   0  0  0  0  0  0  0  0  0  0  0  0
  -15.4319  -10.2461   20.8402 C   0  0  0  0  0  0  0  0  0  0  0  0
  -16.3789   -9.4291   21.0180 O   0  0  0  0  0  0  0  0  0  0  0  0
  -15.4018  -11.3396   21.4699 O   0  0  0  0  0  0  0  0  0  0  0  0
  -16.3938   -8.6194   20.5466 H   0  0  0  0  0  0  0  0  0  0  0  0
 13 11  2  0  0  0
 21 20  2  0  0  0
 21 16  1  0  0  0
 15 16  1  0  0  0
 15 10  1  0  0  0
 11 12  1  0  0  0
 11 10  1  0  0  0
 20 19  1  0  0  0
 16 18  2  0  0  0
 10  7  1  0  0  0
 19 22  1  0  0  0
 19 17  2  0  0  0
 18 17  1  0  0  0
  7  6  1  0  0  0
  8  6  2  0  0  0
  6  3  1  0  0  0
  1  4  1  0  0  0
  1  3  1  0  0  0
  5  4  1  0  0  0
  5  2  1  0  0  0
  3  2  1  0  0  0
  3 24  1  0  0  0
 24 25  1  0  0  0
 28 26  2  0  0  0
 25 26  1  0  0  0
 25 30  1  0  0  0
 26 27  1  0  0  0
 30 32  1  0  0  0
 32 31  1  0  0  0
 31 33  2  0  0  0
 31 35  1  0  0  0
 35 41  1  0  0  0
 35 38  1  0  0  0
 41 42  1  0  0  0
 44 42  2  0  0  0
 39 37  2  0  0  0
 42 43  1  0  0  0
 38 37  1  0  0  0
 37 36  1  0  0  0
 32 34  1  0  0  0
 38 40  1  0  0  0
  7  9  1  0  0  0
 43 45  1  0  0  0
 22 23  1  0  0  0
 12 14  1  0  0  0
 27 29  1  0  0  0
M  END
> <minimizedAffinity>
-9.55443

$$$$
6F9U_D0W_A_711


 45 46  0  0  0  0  0  0  0  0999 V2000
  -15.0471   -7.7017   24.5984 C   0  0  0  0  0  0  0  0  0  0  0  0
  -12.7549   -7.3929   25.1020 C   0  0  0  0  0  0  0  0  0  0  0  0
  -13.5451   -8.2476   24.3389 C   0  0  0  0  0  0  0  0  0  0  0  0
  -15.0222   -6.9058   25.9723 C   0  0  0  0  0  0  0  0  0  0  0  0
  -13.6941   -6.8288   26.3796 C   0  0  0  0  0  0  0  0  0  0  0  0
  -13.5575   -9.7109   24.8489 C   0  0  0  0  0  0  0  0  0  0  0  0
  -14.8200  -10.4062   24.8367 N   0  0  0  0  0  0  0  0  0  0  0  0
  -12.5638  -10.2853   25.2041 O   0  0  0  0  0  0  0  0  0  0  0  0
  -15.6351   -9.9329   24.5524 H   0  0  0  0  0  0  0  0  0  0  0  0
  -14.8997  -11.7959   25.2392 C   0  0  0  0  0  0  0  0  0  0  0  0
  -15.2786  -12.6078   23.9812 C   0  0  0  0  0  0  0  0  0  0  0  0
  -15.2903  -12.0274   22.8624 O   0  0  0  0  0  0  0  0  0  0  0  0
  -15.5673  -13.8432   24.0162 O   0  0  0  0  0  0  0  0  0  0  0  0
  -15.0814  -11.1157   22.8053 H   0  0  0  0  0  0  0  0  0  0  0  0
  -15.9871  -12.0097   26.2865 C   0  0  0  0  0  0  0  0  0  0  0  0
  -16.6765  -10.7274   26.7489 C   0  0  0  0  0  0  0  0  0  0  0  0
  -16.9027   -8.9167   28.3039 C   0  0  0  0  0  0  0  0  0  0  0  0
  -16.2712  -10.0834   27.9047 C   0  0  0  0  0  0  0  0  0  0  0  0
  -17.9397   -8.3959   27.5381 C   0  0  0  0  0  0  0  0  0  0  0  0
  -18.3394   -9.0409   26.3791 C   0  0  0  0  0  0  0  0  0  0  0  0
  -17.7058  -10.2096   25.9786 C   0  0  0  0  0  0  0  0  0  0  0  0
  -18.5920   -7.2145   27.9242 O   0  0  0  0  0  0  0  0  0  0  0  0
  -19.2897   -6.8720   27.4009 H   0  0  0  0  0  0  0  0  0  0  0  0
  -13.2753   -8.1555   22.8292 C   0  0  0  0  0  0  0  0  0  0  0  0
  -14.5239   -8.1920   21.9271 C   0  0  0  0  0  0  0  0  0  0  0  0
  -14.3699   -9.2852   20.8825 C   0  0  0  0  0  0  0  0  0  0  0  0
  -13.2275   -9.4856   20.3759 O   0  0  0  0  0  0  0  0  0  0  0  0
  -15.3835   -9.9633   20.5436 O   0  0  0  0  0  0  0  0  0  0  0  0
  -12.4966   -8.9663   20.6481 H   0  0  0  0  0  0  0  0  0  0  0  0
  -14.6984   -6.8608   21.1942 C   0  0  0  0  0  0  0  0  0  0  0  0
  -14.0381   -6.3508   18.7729 C   0  0  0  0  0  0  0  0  0  0  0  0
  -13.6651   -6.6491   20.1665 N   0  0  0  0  0  0  0  0  0  0  0  0
  -15.1769   -6.2498   18.4789 O   0  0  0  0  0  0  0  0  0  0  0  0
  -12.7140   -6.7077   20.4137 H   0  0  0  0  0  0  0  0  0  0  0  0
  -12.9926   -6.0989   17.6736 C   0  0  0  0  0  0  0  0  0  0  0  0
  -13.4671   -3.1499   16.9222 C   0  0  0  0  0  0  0  0  0  0  0  0
  -12.2165   -3.6649   17.6424 C   0  0  0  0  0  0  0  0  0  0  0  0
  -12.0222   -5.0687   18.0077 N   0  0  0  0  0  0  0  0  0  0  0  0
  -11.3821   -2.8749   17.9321 O   0  0  0  0  0  0  0  0  0  0  0  0
  -11.2066   -5.3243   18.4963 H   0  0  0  0  0  0  0  0  0  0  0  0
  -12.1663   -7.3744   17.5172 C   0  0  0  0  0  0  0  0  0  0  0  0
  -10.9464   -7.3951   18.4356 C   0  0  0  0  0  0  0  0  0  0  0  0
  -11.0628   -7.7990   19.6269 O   0  0  0  0  0  0  0  0  0  0  0  0
   -9.8333   -6.9865   18.0029 O   0  0  0  0  0  0  0  0  0  0  0  0
  -11.8926   -8.1008   19.9403 H   0  0  0  0  0  0  0  0  0  0  0  0
 13 11  2  0  0  0
 21 20  2  0  0  0
 21 16  1  0  0  0
 15 16  1  0  0  0
 15 10  1  0  0  0
 11 12  1  0  0  0
 11 10  1  0  0  0
 20 19  1  0  0  0
 16 18  2  0  0  0
 10  7  1  0  0  0
 19 22  1  0  0  0
 19 17  2  0  0  0
 18 17  1  0  0  0
  7  6  1  0  0  0
  8  6  2  0  0  0
  6  3  1  0  0  0
  1  4  1  0  0  0
  1  3  1  0  0  0
  5  4  1  0  0  0
  5  2  1  0  0  0
  3  2  1  0  0  0
  3 24  1  0  0  0
 24 25  1  0  0  0
 28 26  2  0  0  0
 25 26  1  0  0  0
 25 30  1  0  0  0
 26 27  1  0  0  0
 30 32  1  0  0  0
 32 31  1  0  0  0
 31 33  2  0  0  0
 31 35  1  0  0  0
 35 41  1  0  0  0
 35 38  1  0  0  0
 41 42  1  0  0  0
 44 42  2  0  0  0
 39 37  2  0  0  0
 42 43  1  0  0  0
 38 37  1  0  0  0
 37 36  1  0  0  0
 32 34  1  0  0  0
 38 40  1  0  0  0
  7  9  1  0  0  0
 43 45  1  0  0  0
 22 23  1  0  0  0
 12 14  1  0  0  0
 27 29  1  0  0  0
M  END
> <minimizedAffinity>
-9.46246

$$$$
6F9U_D0W_A_711


 45 46  0  0  0  0  0  0  0  0999 V2000
  -13.3181  -11.9387   22.4513 C   0  0  0  0  0  0  0  0  0  0  0  0
  -15.5258  -12.2762   23.2356 C   0  0  0  0  0  0  0  0  0  0  0  0
  -14.5707  -11.2639   23.2240 C   0  0  0  0  0  0  0  0  0  0  0  0
  -13.4788  -13.5124   22.5895 C   0  0  0  0  0  0  0  0  0  0  0  0
  -14.7135  -13.7495   23.1855 C   0  0  0  0  0  0  0  0  0  0  0  0
  -14.0259  -10.9012   24.6287 C   0  0  0  0  0  0  0  0  0  0  0  0
  -14.9027  -11.1100   25.7536 N   0  0  0  0  0  0  0  0  0  0  0  0
  -12.9071  -10.5030   24.8106 O   0  0  0  0  0  0  0  0  0  0  0  0
  -15.8217  -11.4294   25.6033 H   0  0  0  0  0  0  0  0  0  0  0  0
  -14.4430  -10.8536   27.1036 C   0  0  0  0  0  0  0  0  0  0  0  0
  -14.5136  -12.1952   27.8655 C   0  0  0  0  0  0  0  0  0  0  0  0
  -15.6252  -12.5815   28.3168 O   0  0  0  0  0  0  0  0  0  0  0  0
  -13.5029  -12.9407   28.0488 O   0  0  0  0  0  0  0  0  0  0  0  0
  -16.3891  -12.0523   28.1968 H   0  0  0  0  0  0  0  0  0  0  0  0
  -15.3466   -9.8546   27.8182 C   0  0  0  0  0  0  0  0  0  0  0  0
  -15.5175   -8.5248   27.0862 C   0  0  0  0  0  0  0  0  0  0  0  0
  -16.9025   -6.8952   26.0028 C   0  0  0  0  0  0  0  0  0  0  0  0
  -16.7655   -8.1085   26.6575 C   0  0  0  0  0  0  0  0  0  0  0  0
  -15.7841   -6.0992   25.7826 C   0  0  0  0  0  0  0  0  0  0  0  0
  -14.5370   -6.5172   26.2176 C   0  0  0  0  0  0  0  0  0  0  0  0
  -14.4001   -7.7326   26.8747 C   0  0  0  0  0  0  0  0  0  0  0  0
  -15.9012   -4.8660   25.1223 O   0  0  0  0  0  0  0  0  0  0  0  0
  -15.1411   -4.3372   24.9790 H   0  0  0  0  0  0  0  0  0  0  0  0
  -14.9940  -10.0241   22.4216 C   0  0  0  0  0  0  0  0  0  0  0  0
  -13.9540   -9.4969   21.4142 C   0  0  0  0  0  0  0  0  0  0  0  0
  -13.3304   -8.2162   21.9441 C   0  0  0  0  0  0  0  0  0  0  0  0
  -12.1251   -7.9615   21.6542 O   0  0  0  0  0  0  0  0  0  0  0  0
  -14.0272   -7.4405   22.6617 O   0  0  0  0  0  0  0  0  0  0  0  0
  -11.6358   -8.5562   21.1204 H   0  0  0  0  0  0  0  0  0  0  0  0
  -14.6163   -9.1789   20.0726 C   0  0  0  0  0  0  0  0  0  0  0  0
  -13.9956   -7.0726   18.7547 C   0  0  0  0  0  0  0  0  0  0  0  0
  -13.7117   -8.4603   19.1594 N   0  0  0  0  0  0  0  0  0  0  0  0
  -14.9420   -6.5166   19.1889 O   0  0  0  0  0  0  0  0  0  0  0  0
  -12.9078   -8.9127   18.8152 H   0  0  0  0  0  0  0  0  0  0  0  0
  -13.0660   -6.2771   17.8230 C   0  0  0  0  0  0  0  0  0  0  0  0
  -12.7240   -3.4316   16.6948 C   0  0  0  0  0  0  0  0  0  0  0  0
  -12.0585   -3.9344   17.9802 C   0  0  0  0  0  0  0  0  0  0  0  0
  -12.2523   -5.2856   18.5081 N   0  0  0  0  0  0  0  0  0  0  0  0
  -11.3726   -3.1762   18.5793 O   0  0  0  0  0  0  0  0  0  0  0  0
  -11.8168   -5.5317   19.3560 H   0  0  0  0  0  0  0  0  0  0  0  0
  -12.0597   -7.2575   17.2228 C   0  0  0  0  0  0  0  0  0  0  0  0
  -10.7435   -7.2888   17.9965 C   0  0  0  0  0  0  0  0  0  0  0  0
  -10.6754   -7.9048   19.0972 O   0  0  0  0  0  0  0  0  0  0  0  0
   -9.7373   -6.6784   17.5400 O   0  0  0  0  0  0  0  0  0  0  0  0
  -11.4269   -8.3555   19.4292 H   0  0  0  0  0  0  0  0  0  0  0  0
 13 11  2  0  0  0
 21 20  2  0  0  0
 21 16  1  0  0  0
 15 16  1  0  0  0
 15 10  1  0  0  0
 11 12  1  0  0  0
 11 10  1  0  0  0
 20 19  1  0  0  0
 16 18  2  0  0  0
 10  7  1  0  0  0
 19 22  1  0  0  0
 19 17  2  0  0  0
 18 17  1  0  0  0
  7  6  1  0  0  0
  8  6  2  0  0  0
  6  3  1  0  0  0
  1  4  1  0  0  0
  1  3  1  0  0  0
  5  4  1  0  0  0
  5  2  1  0  0  0
  3  2  1  0  0  0
  3 24  1  0  0  0
 24 25  1  0  0  0
 28 26  2  0  0  0
 25 26  1  0  0  0
 25 30  1  0  0  0
 26 27  1  0  0  0
 30 32  1  0  0  0
 32 31  1  0  0  0
 31 33  2  0  0  0
 31 35  1  0  0  0
 35 41  1  0  0  0
 35 38  1  0  0  0
 41 42  1  0  0  0
 44 42  2  0  0  0
 39 37  2  0  0  0
 42 43  1  0  0  0
 38 37  1  0  0  0
 37 36  1  0  0  0
 32 34  1  0  0  0
 38 40  1  0  0  0
  7  9  1  0  0  0
 43 45  1  0  0  0
 22 23  1  0  0  0
 12 14  1  0  0  0
 27 29  1  0  0  0
M  END
> <minimizedAffinity>
-9.41272

$$$$
6F9U_D0W_A_711


 45 46  0  0  0  0  0  0  0  0999 V2000
  -14.0445   -9.4292   20.2796 C   0  0  0  0  0  0  0  0  0  0  0  0
  -15.4314   -8.1737   21.7300 C   0  0  0  0  0  0  0  0  0  0  0  0
  -14.2085   -8.0318   21.0806 C   0  0  0  0  0  0  0  0  0  0  0  0
  -14.9588  -10.4982   21.0164 C   0  0  0  0  0  0  0  0  0  0  0  0
  -15.6901   -9.8172   21.9846 C   0  0  0  0  0  0  0  0  0  0  0  0
  -12.9930   -7.9757   22.0404 C   0  0  0  0  0  0  0  0  0  0  0  0
  -13.2654   -7.8011   23.4450 N   0  0  0  0  0  0  0  0  0  0  0  0
  -11.8601   -8.1144   21.6654 O   0  0  0  0  0  0  0  0  0  0  0  0
  -14.1934   -7.6803   23.7508 H   0  0  0  0  0  0  0  0  0  0  0  0
  -12.1850   -7.8018   24.4106 C   0  0  0  0  0  0  0  0  0  0  0  0
  -11.8158   -9.2786   24.6716 C   0  0  0  0  0  0  0  0  0  0  0  0
  -10.6063   -9.5803   24.8582 O   0  0  0  0  0  0  0  0  0  0  0  0
  -12.6780  -10.2088   24.7218 O   0  0  0  0  0  0  0  0  0  0  0  0
   -9.9474   -8.9149   24.8271 H   0  0  0  0  0  0  0  0  0  0  0  0
  -12.6215   -7.1816   25.7334 C   0  0  0  0  0  0  0  0  0  0  0  0
  -14.1322   -7.1791   25.9593 C   0  0  0  0  0  0  0  0  0  0  0  0
  -16.2991   -6.2147   25.6093 C   0  0  0  0  0  0  0  0  0  0  0  0
  -14.9296   -6.1959   25.4006 C   0  0  0  0  0  0  0  0  0  0  0  0
  -16.8667   -7.2250   26.3775 C   0  0  0  0  0  0  0  0  0  0  0  0
  -16.0657   -8.2104   26.9312 C   0  0  0  0  0  0  0  0  0  0  0  0
  -14.6934   -8.1919   26.7211 C   0  0  0  0  0  0  0  0  0  0  0  0
  -18.2521   -7.2631   26.6002 O   0  0  0  0  0  0  0  0  0  0  0  0
  -18.6245   -7.9485   27.1195 H   0  0  0  0  0  0  0  0  0  0  0  0
  -14.1879   -6.8997   20.0422 C   0  0  0  0  0  0  0  0  0  0  0  0
  -13.9655   -7.3402   18.5825 C   0  0  0  0  0  0  0  0  0  0  0  0
  -12.4965   -7.1945   18.2212 C   0  0  0  0  0  0  0  0  0  0  0  0
  -11.7151   -6.6547   19.0577 O   0  0  0  0  0  0  0  0  0  0  0  0
  -12.0925   -7.6116   17.0965 O   0  0  0  0  0  0  0  0  0  0  0  0
  -12.0452   -6.3562   19.8822 H   0  0  0  0  0  0  0  0  0  0  0  0
  -14.7755   -6.4638   17.6257 C   0  0  0  0  0  0  0  0  0  0  0  0
  -14.3811   -4.5555   15.9639 C   0  0  0  0  0  0  0  0  0  0  0  0
  -14.0380   -5.2581   17.2125 N   0  0  0  0  0  0  0  0  0  0  0  0
  -15.2766   -4.9430   15.2995 O   0  0  0  0  0  0  0  0  0  0  0  0
  -13.3070   -4.9175   17.7772 H   0  0  0  0  0  0  0  0  0  0  0  0
  -13.6537   -3.2800   15.5069 C   0  0  0  0  0  0  0  0  0  0  0  0
  -14.8954   -0.4927   15.0877 C   0  0  0  0  0  0  0  0  0  0  0  0
  -14.1298   -0.9143   16.3463 C   0  0  0  0  0  0  0  0  0  0  0  0
  -13.5657   -2.2520   16.5316 N   0  0  0  0  0  0  0  0  0  0  0  0
  -14.0136   -0.1163   17.2146 O   0  0  0  0  0  0  0  0  0  0  0  0
  -13.1112   -2.4631   17.3790 H   0  0  0  0  0  0  0  0  0  0  0  0
  -12.2032   -3.6544   15.2071 C   0  0  0  0  0  0  0  0  0  0  0  0
  -11.2600   -3.2973   16.3538 C   0  0  0  0  0  0  0  0  0  0  0  0
  -10.5616   -2.2465   16.2899 O   0  0  0  0  0  0  0  0  0  0  0  0
  -11.1686   -4.0683   17.3490 O   0  0  0  0  0  0  0  0  0  0  0  0
  -10.6354   -1.6795   15.5476 H   0  0  0  0  0  0  0  0  0  0  0  0
 13 11  2  0  0  0
 21 20  2  0  0  0
 21 16  1  0  0  0
 15 16  1  0  0  0
 15 10  1  0  0  0
 11 12  1  0  0  0
 11 10  1  0  0  0
 20 19  1  0  0  0
 16 18  2  0  0  0
 10  7  1  0  0  0
 19 22  1  0  0  0
 19 17  2  0  0  0
 18 17  1  0  0  0
  7  6  1  0  0  0
  8  6  2  0  0  0
  6  3  1  0  0  0
  1  4  1  0  0  0
  1  3  1  0  0  0
  5  4  1  0  0  0
  5  2  1  0  0  0
  3  2  1  0  0  0
  3 24  1  0  0  0
 24 25  1  0  0  0
 28 26  2  0  0  0
 25 26  1  0  0  0
 25 30  1  0  0  0
 26 27  1  0  0  0
 30 32  1  0  0  0
 32 31  1  0  0  0
 31 33  2  0  0  0
 31 35  1  0  0  0
 35 41  1  0  0  0
 35 38  1  0  0  0
 41 42  1  0  0  0
 44 42  2  0  0  0
 39 37  2  0  0  0
 42 43  1  0  0  0
 38 37  1  0  0  0
 37 36  1  0  0  0
 32 34  1  0  0  0
 38 40  1  0  0  0
  7  9  1  0  0  0
 43 45  1  0  0  0
 22 23  1  0  0  0
 12 14  1  0  0  0
 27 29  1  0  0  0
M  END
> <minimizedAffinity>
-9.41032

$$$$
6F9U_D0W_A_711


 45 46  0  0  0  0  0  0  0  0999 V2000
  -15.5890   -8.5258   24.5981 C   0  0  0  0  0  0  0  0  0  0  0  0
  -14.2766   -6.8432   25.6226 C   0  0  0  0  0  0  0  0  0  0  0  0
  -14.1825   -8.2010   25.3313 C   0  0  0  0  0  0  0  0  0  0  0  0
  -16.6203   -7.4073   25.0530 C   0  0  0  0  0  0  0  0  0  0  0  0
  -15.9083   -6.4655   25.7890 C   0  0  0  0  0  0  0  0  0  0  0  0
  -14.1657   -9.1106   26.5858 C   0  0  0  0  0  0  0  0  0  0  0  0
  -14.8088  -10.3963   26.4806 N   0  0  0  0  0  0  0  0  0  0  0  0
  -13.6085   -8.8042   27.6051 O   0  0  0  0  0  0  0  0  0  0  0  0
  -15.2715  -10.6439   25.6476 H   0  0  0  0  0  0  0  0  0  0  0  0
  -14.7802  -11.3274   27.5906 C   0  0  0  0  0  0  0  0  0  0  0  0
  -14.1743  -12.6443   27.0576 C   0  0  0  0  0  0  0  0  0  0  0  0
  -13.8776  -12.7275   25.8354 O   0  0  0  0  0  0  0  0  0  0  0  0
  -13.9455  -13.6498   27.7976 O   0  0  0  0  0  0  0  0  0  0  0  0
  -14.0350  -12.0014   25.2646 H   0  0  0  0  0  0  0  0  0  0  0  0
  -16.1853  -11.6252   28.1025 C   0  0  0  0  0  0  0  0  0  0  0  0
  -17.1794  -10.4808   27.9147 C   0  0  0  0  0  0  0  0  0  0  0  0
  -18.9909   -9.4564   26.7243 C   0  0  0  0  0  0  0  0  0  0  0  0
  -18.0911  -10.4992   26.8739 C   0  0  0  0  0  0  0  0  0  0  0  0
  -18.9757   -8.3967   27.6243 C   0  0  0  0  0  0  0  0  0  0  0  0
  -18.0647   -8.3843   28.6679 C   0  0  0  0  0  0  0  0  0  0  0  0
  -17.1637   -9.4299   28.8182 C   0  0  0  0  0  0  0  0  0  0  0  0
  -19.8795   -7.3310   27.4913 O   0  0  0  0  0  0  0  0  0  0  0  0
  -19.8608   -6.6217   28.1034 H   0  0  0  0  0  0  0  0  0  0  0  0
  -13.0572   -8.5445   24.3433 C   0  0  0  0  0  0  0  0  0  0  0  0
  -12.8910  -10.0416   24.0190 C   0  0  0  0  0  0  0  0  0  0  0  0
  -11.4950  -10.4987   24.4092 C   0  0  0  0  0  0  0  0  0  0  0  0
  -10.6350   -9.6253   24.7244 O   0  0  0  0  0  0  0  0  0  0  0  0
  -11.2264  -11.7356   24.4062 O   0  0  0  0  0  0  0  0  0  0  0  0
  -10.8651   -8.7171   24.7168 H   0  0  0  0  0  0  0  0  0  0  0  0
  -13.0671  -10.2913   22.5203 C   0  0  0  0  0  0  0  0  0  0  0  0
  -13.2605   -8.9294   20.3600 C   0  0  0  0  0  0  0  0  0  0  0  0
  -12.7044   -9.1153   21.7115 N   0  0  0  0  0  0  0  0  0  0  0  0
  -14.0293   -9.7145   19.9286 O   0  0  0  0  0  0  0  0  0  0  0  0
  -12.0829   -8.4456   22.0782 H   0  0  0  0  0  0  0  0  0  0  0  0
  -12.9279   -7.7050   19.4910 C   0  0  0  0  0  0  0  0  0  0  0  0
  -10.2333   -6.9492   18.2049 C   0  0  0  0  0  0  0  0  0  0  0  0
  -11.3713   -7.6608   17.4655 C   0  0  0  0  0  0  0  0  0  0  0  0
  -12.6360   -8.0283   18.1036 N   0  0  0  0  0  0  0  0  0  0  0  0
  -11.1990   -7.9414   16.3272 O   0  0  0  0  0  0  0  0  0  0  0  0
  -13.3123   -8.5110   17.5755 H   0  0  0  0  0  0  0  0  0  0  0  0
  -14.1757   -6.8255   19.4304 C   0  0  0  0  0  0  0  0  0  0  0  0
  -13.9411   -5.5337   18.6503 C   0  0  0  0  0  0  0  0  0  0  0  0
  -13.5353   -4.5001   19.2527 O   0  0  0  0  0  0  0  0  0  0  0  0
  -14.1765   -5.5026   17.4106 O   0  0  0  0  0  0  0  0  0  0  0  0
  -13.3628   -4.5316   20.1731 H   0  0  0  0  0  0  0  0  0  0  0  0
 13 11  2  0  0  0
 21 20  2  0  0  0
 21 16  1  0  0  0
 15 16  1  0  0  0
 15 10  1  0  0  0
 11 12  1  0  0  0
 11 10  1  0  0  0
 20 19  1  0  0  0
 16 18  2  0  0  0
 10  7  1  0  0  0
 19 22  1  0  0  0
 19 17  2  0  0  0
 18 17  1  0  0  0
  7  6  1  0  0  0
  8  6  2  0  0  0
  6  3  1  0  0  0
  1  4  1  0  0  0
  1  3  1  0  0  0
  5  4  1  0  0  0
  5  2  1  0  0  0
  3  2  1  0  0  0
  3 24  1  0  0  0
 24 25  1  0  0  0
 28 26  2  0  0  0
 25 26  1  0  0  0
 25 30  1  0  0  0
 26 27  1  0  0  0
 30 32  1  0  0  0
 32 31  1  0  0  0
 31 33  2  0  0  0
 31 35  1  0  0  0
 35 41  1  0  0  0
 35 38  1  0  0  0
 41 42  1  0  0  0
 44 42  2  0  0  0
 39 37  2  0  0  0
 42 43  1  0  0  0
 38 37  1  0  0  0
 37 36  1  0  0  0
 32 34  1  0  0  0
 38 40  1  0  0  0
  7  9  1  0  0  0
 43 45  1  0  0  0
 22 23  1  0  0  0
 12 14  1  0  0  0
 27 29  1  0  0  0
M  END
> <minimizedAffinity>
-9.36907

$$$$
6F9U_D0W_A_711


 45 46  0  0  0  0  0  0  0  0999 V2000
  -14.6408  -10.4443   21.3224 C   0  0  0  0  0  0  0  0  0  0  0  0
  -15.4413   -8.2464   21.6852 C   0  0  0  0  0  0  0  0  0  0  0  0
  -14.2809   -8.8682   21.2336 C   0  0  0  0  0  0  0  0  0  0  0  0
  -15.8166  -10.5945   22.3790 C   0  0  0  0  0  0  0  0  0  0  0  0
  -16.2207   -9.3104   22.7308 C   0  0  0  0  0  0  0  0  0  0  0  0
  -13.0640   -8.6820   22.1750 C   0  0  0  0  0  0  0  0  0  0  0  0
  -13.2983   -8.0320   23.4400 N   0  0  0  0  0  0  0  0  0  0  0  0
  -11.9664   -9.0922   21.9096 O   0  0  0  0  0  0  0  0  0  0  0  0
  -14.1962   -7.6896   23.6539 H   0  0  0  0  0  0  0  0  0  0  0  0
  -12.2234   -7.8780   24.3995 C   0  0  0  0  0  0  0  0  0  0  0  0
  -11.7793   -9.2993   24.8096 C   0  0  0  0  0  0  0  0  0  0  0  0
  -10.5489   -9.5719   24.8263 O   0  0  0  0  0  0  0  0  0  0  0  0
  -12.5974  -10.2092   25.1469 O   0  0  0  0  0  0  0  0  0  0  0  0
   -9.9213   -8.9203   24.5824 H   0  0  0  0  0  0  0  0  0  0  0  0
  -12.6969   -7.1493   25.6524 C   0  0  0  0  0  0  0  0  0  0  0  0
  -14.2058   -7.2088   25.8828 C   0  0  0  0  0  0  0  0  0  0  0  0
  -16.1329   -8.2363   26.8718 C   0  0  0  0  0  0  0  0  0  0  0  0
  -14.7631   -8.2034   26.6670 C   0  0  0  0  0  0  0  0  0  0  0  0
  -16.9416   -7.2663   26.2903 C   0  0  0  0  0  0  0  0  0  0  0  0
  -16.3795   -6.2694   25.5098 C   0  0  0  0  0  0  0  0  0  0  0  0
  -15.0065   -6.2360   25.3055 C   0  0  0  0  0  0  0  0  0  0  0  0
  -18.3315   -7.2810   26.4861 O   0  0  0  0  0  0  0  0  0  0  0  0
  -18.8675   -6.6225   26.0897 H   0  0  0  0  0  0  0  0  0  0  0  0
  -13.9417   -8.5544   19.7685 C   0  0  0  0  0  0  0  0  0  0  0  0
  -13.1397   -7.2598   19.5342 C   0  0  0  0  0  0  0  0  0  0  0  0
  -14.0944   -6.0931   19.3411 C   0  0  0  0  0  0  0  0  0  0  0  0
  -13.6995   -4.9283   19.6396 O   0  0  0  0  0  0  0  0  0  0  0  0
  -15.2570   -6.3138   18.8919 O   0  0  0  0  0  0  0  0  0  0  0  0
  -12.8325   -4.7979   19.9701 H   0  0  0  0  0  0  0  0  0  0  0  0
  -12.2800   -7.3788   18.2746 C   0  0  0  0  0  0  0  0  0  0  0  0
  -12.0310   -6.3380   15.9479 C   0  0  0  0  0  0  0  0  0  0  0  0
  -12.4938   -6.2575   17.3442 N   0  0  0  0  0  0  0  0  0  0  0  0
  -11.5090   -7.3226   15.5584 O   0  0  0  0  0  0  0  0  0  0  0  0
  -12.9514   -5.4446   17.6589 H   0  0  0  0  0  0  0  0  0  0  0  0
  -12.2547   -5.2013   14.9365 C   0  0  0  0  0  0  0  0  0  0  0  0
  -10.7976   -5.7534   12.2797 C   0  0  0  0  0  0  0  0  0  0  0  0
  -12.3151   -5.8542   12.4672 C   0  0  0  0  0  0  0  0  0  0  0  0
  -12.9835   -5.6068   13.7454 N   0  0  0  0  0  0  0  0  0  0  0  0
  -12.9670   -6.1697   11.5292 O   0  0  0  0  0  0  0  0  0  0  0  0
  -13.9601   -5.7188   13.8007 H   0  0  0  0  0  0  0  0  0  0  0  0
  -13.1489   -4.1565   15.6019 C   0  0  0  0  0  0  0  0  0  0  0  0
  -14.6316   -4.3978   15.3269 C   0  0  0  0  0  0  0  0  0  0  0  0
  -15.3111   -3.5185   14.7263 O   0  0  0  0  0  0  0  0  0  0  0  0
  -15.1730   -5.4672   15.7226 O   0  0  0  0  0  0  0  0  0  0  0  0
  -14.9016   -2.7274   14.4358 H   0  0  0  0  0  0  0  0  0  0  0  0
 13 11  2  0  0  0
 21 20  2  0  0  0
 21 16  1  0  0  0
 15 16  1  0  0  0
 15 10  1  0  0  0
 11 12  1  0  0  0
 11 10  1  0  0  0
 20 19  1  0  0  0
 16 18  2  0  0  0
 10  7  1  0  0  0
 19 22  1  0  0  0
 19 17  2  0  0  0
 18 17  1  0  0  0
  7  6  1  0  0  0
  8  6  2  0  0  0
  6  3  1  0  0  0
  1  4  1  0  0  0
  1  3  1  0  0  0
  5  4  1  0  0  0
  5  2  1  0  0  0
  3  2  1  0  0  0
  3 24  1  0  0  0
 24 25  1  0  0  0
 28 26  2  0  0  0
 25 26  1  0  0  0
 25 30  1  0  0  0
 26 27  1  0  0  0
 30 32  1  0  0  0
 32 31  1  0  0  0
 31 33  2  0  0  0
 31 35  1  0  0  0
 35 41  1  0  0  0
 35 38  1  0  0  0
 41 42  1  0  0  0
 44 42  2  0  0  0
 39 37  2  0  0  0
 42 43  1  0  0  0
 38 37  1  0  0  0
 37 36  1  0  0  0
 32 34  1  0  0  0
 38 40  1  0  0  0
  7  9  1  0  0  0
 43 45  1  0  0  0
 22 23  1  0  0  0
 12 14  1  0  0  0
 27 29  1  0  0  0
M  END
> <minimizedAffinity>
-9.13753

$$$$
6F9U_D0W_A_711


 45 46  0  0  0  0  0  0  0  0999 V2000
  -14.0748   -7.9463   24.3729 C   0  0  0  0  0  0  0  0  0  0  0  0
  -11.7157   -7.9329   24.1787 C   0  0  0  0  0  0  0  0  0  0  0  0
  -12.7894   -8.7060   23.7467 C   0  0  0  0  0  0  0  0  0  0  0  0
  -13.5561   -7.0965   25.6100 C   0  0  0  0  0  0  0  0  0  0  0  0
  -12.1676   -7.1840   25.6166 C   0  0  0  0  0  0  0  0  0  0  0  0
  -12.8253  -10.1274   24.3629 C   0  0  0  0  0  0  0  0  0  0  0  0
  -14.1202  -10.7139   24.6009 N   0  0  0  0  0  0  0  0  0  0  0  0
  -11.8316  -10.7590   24.6018 O   0  0  0  0  0  0  0  0  0  0  0  0
  -14.9341  -10.1932   24.4118 H   0  0  0  0  0  0  0  0  0  0  0  0
  -14.2344  -12.0635   25.1162 C   0  0  0  0  0  0  0  0  0  0  0  0
  -14.9950  -12.8877   24.0543 C   0  0  0  0  0  0  0  0  0  0  0  0
  -14.8913  -12.5619   22.8412 O   0  0  0  0  0  0  0  0  0  0  0  0
  -15.7137  -13.8932   24.3434 O   0  0  0  0  0  0  0  0  0  0  0  0
  -14.3676  -11.8241   22.5974 H   0  0  0  0  0  0  0  0  0  0  0  0
  -15.0406  -12.0981   26.4099 C   0  0  0  0  0  0  0  0  0  0  0  0
  -15.8152  -10.8147   26.7034 C   0  0  0  0  0  0  0  0  0  0  0  0
  -16.0076   -8.6900   27.7972 C   0  0  0  0  0  0  0  0  0  0  0  0
  -15.2943   -9.8517   27.5496 C   0  0  0  0  0  0  0  0  0  0  0  0
  -17.2434   -8.4958   27.1906 C   0  0  0  0  0  0  0  0  0  0  0  0
  -17.7594   -9.4600   26.3403 C   0  0  0  0  0  0  0  0  0  0  0  0
  -17.0440  -10.6237   26.0914 C   0  0  0  0  0  0  0  0  0  0  0  0
  -17.9815   -7.3255   27.4272 O   0  0  0  0  0  0  0  0  0  0  0  0
  -18.8134   -7.2046   27.0133 H   0  0  0  0  0  0  0  0  0  0  0  0
  -12.9631   -8.7245   22.2203 C   0  0  0  0  0  0  0  0  0  0  0  0
  -14.4098   -8.5683   21.7136 C   0  0  0  0  0  0  0  0  0  0  0  0
  -14.7287   -9.6765   20.7236 C   0  0  0  0  0  0  0  0  0  0  0  0
  -13.7748  -10.3542   20.2413 O   0  0  0  0  0  0  0  0  0  0  0  0
  -15.9344   -9.8918   20.4043 O   0  0  0  0  0  0  0  0  0  0  0  0
  -12.8926  -10.1701   20.4979 H   0  0  0  0  0  0  0  0  0  0  0  0
  -14.5879   -7.2294   20.9960 C   0  0  0  0  0  0  0  0  0  0  0  0
  -13.7652   -6.1077   18.8457 C   0  0  0  0  0  0  0  0  0  0  0  0
  -14.2213   -7.3056   19.5718 N   0  0  0  0  0  0  0  0  0  0  0  0
  -13.6624   -5.0793   19.4162 O   0  0  0  0  0  0  0  0  0  0  0  0
  -14.2818   -8.1672   19.0993 H   0  0  0  0  0  0  0  0  0  0  0  0
  -13.3495   -6.1469   17.3656 C   0  0  0  0  0  0  0  0  0  0  0  0
  -10.3461   -6.3852   16.7261 C   0  0  0  0  0  0  0  0  0  0  0  0
  -11.3436   -7.5437   16.6220 C   0  0  0  0  0  0  0  0  0  0  0  0
  -12.7635   -7.4116   16.9511 N   0  0  0  0  0  0  0  0  0  0  0  0
  -10.9292   -8.5992   16.2778 O   0  0  0  0  0  0  0  0  0  0  0  0
  -13.3417   -8.2060   16.8896 H   0  0  0  0  0  0  0  0  0  0  0  0
  -14.6169   -6.0118   16.5233 C   0  0  0  0  0  0  0  0  0  0  0  0
  -14.3938   -5.1772   15.2640 C   0  0  0  0  0  0  0  0  0  0  0  0
  -15.2442   -4.3056   14.9281 O   0  0  0  0  0  0  0  0  0  0  0  0
  -13.3698   -5.3808   14.5546 O   0  0  0  0  0  0  0  0  0  0  0  0
  -16.0017   -4.1607   15.4602 H   0  0  0  0  0  0  0  0  0  0  0  0
 13 11  2  0  0  0
 21 20  2  0  0  0
 21 16  1  0  0  0
 15 16  1  0  0  0
 15 10  1  0  0  0
 11 12  1  0  0  0
 11 10  1  0  0  0
 20 19  1  0  0  0
 16 18  2  0  0  0
 10  7  1  0  0  0
 19 22  1  0  0  0
 19 17  2  0  0  0
 18 17  1  0  0  0
  7  6  1  0  0  0
  8  6  2  0  0  0
  6  3  1  0  0  0
  1  4  1  0  0  0
  1  3  1  0  0  0
  5  4  1  0  0  0
  5  2  1  0  0  0
  3  2  1  0  0  0
  3 24  1  0  0  0
 24 25  1  0  0  0
 28 26  2  0  0  0
 25 26  1  0  0  0
 25 30  1  0  0  0
 26 27  1  0  0  0
 30 32  1  0  0  0
 32 31  1  0  0  0
 31 33  2  0  0  0
 31 35  1  0  0  0
 35 41  1  0  0  0
 35 38  1  0  0  0
 41 42  1  0  0  0
 44 42  2  0  0  0
 39 37  2  0  0  0
 42 43  1  0  0  0
 38 37  1  0  0  0
 37 36  1  0  0  0
 32 34  1  0  0  0
 38 40  1  0  0  0
  7  9  1  0  0  0
 43 45  1  0  0  0
 22 23  1  0  0  0
 12 14  1  0  0  0
 27 29  1  0  0  0
M  END
> <minimizedAffinity>
-9.05417

$$$$
6F9U_D0W_A_711


 45 46  0  0  0  0  0  0  0  0999 V2000
  -14.0021   -9.3715   19.9265 C   0  0  0  0  0  0  0  0  0  0  0  0
  -15.3797   -8.1936   21.4491 C   0  0  0  0  0  0  0  0  0  0  0  0
  -14.1784   -8.0024   20.7727 C   0  0  0  0  0  0  0  0  0  0  0  0
  -14.8704  -10.4839   20.6547 C   0  0  0  0  0  0  0  0  0  0  0  0
  -15.5918   -9.8498   21.6614 C   0  0  0  0  0  0  0  0  0  0  0  0
  -12.9395   -7.9440   21.7018 C   0  0  0  0  0  0  0  0  0  0  0  0
  -13.1772   -7.9351   23.1234 N   0  0  0  0  0  0  0  0  0  0  0  0
  -11.8124   -7.9506   21.2858 O   0  0  0  0  0  0  0  0  0  0  0  0
  -14.1010   -7.9224   23.4637 H   0  0  0  0  0  0  0  0  0  0  0  0
  -12.0682   -7.9447   24.0560 C   0  0  0  0  0  0  0  0  0  0  0  0
  -11.8058   -9.4206   24.4279 C   0  0  0  0  0  0  0  0  0  0  0  0
  -12.7201  -10.2677   24.2408 O   0  0  0  0  0  0  0  0  0  0  0  0
  -10.7017   -9.8284   24.9030 O   0  0  0  0  0  0  0  0  0  0  0  0
  -13.5460   -9.9962   23.8913 H   0  0  0  0  0  0  0  0  0  0  0  0
  -12.4105   -7.1875   25.3345 C   0  0  0  0  0  0  0  0  0  0  0  0
  -13.8804   -7.2714   25.7414 C   0  0  0  0  0  0  0  0  0  0  0  0
  -15.6401   -8.2566   27.0378 C   0  0  0  0  0  0  0  0  0  0  0  0
  -14.3043   -8.2009   26.6747 C   0  0  0  0  0  0  0  0  0  0  0  0
  -16.5490   -7.3745   26.4643 C   0  0  0  0  0  0  0  0  0  0  0  0
  -16.1200   -6.4421   25.5338 C   0  0  0  0  0  0  0  0  0  0  0  0
  -14.7810   -6.3858   25.1709 C   0  0  0  0  0  0  0  0  0  0  0  0
  -17.9065   -7.4134   26.8191 O   0  0  0  0  0  0  0  0  0  0  0  0
  -18.5107   -6.8144   26.4266 H   0  0  0  0  0  0  0  0  0  0  0  0
  -14.2129   -6.8405   19.7682 C   0  0  0  0  0  0  0  0  0  0  0  0
  -13.9125   -7.2175   18.3047 C   0  0  0  0  0  0  0  0  0  0  0  0
  -12.4696   -6.8744   17.9727 C   0  0  0  0  0  0  0  0  0  0  0  0
  -11.8369   -6.0952   18.7437 O   0  0  0  0  0  0  0  0  0  0  0  0
  -11.9390   -7.3711   16.9365 O   0  0  0  0  0  0  0  0  0  0  0  0
  -12.2581   -5.7440   19.5034 H   0  0  0  0  0  0  0  0  0  0  0  0
  -14.8150   -6.4340   17.3502 C   0  0  0  0  0  0  0  0  0  0  0  0
  -13.9852   -4.7355   15.6224 C   0  0  0  0  0  0  0  0  0  0  0  0
  -14.2628   -5.1094   17.0200 N   0  0  0  0  0  0  0  0  0  0  0  0
  -14.2350   -5.4925   14.7517 O   0  0  0  0  0  0  0  0  0  0  0  0
  -14.0769   -4.4661   17.7417 H   0  0  0  0  0  0  0  0  0  0  0  0
  -13.4318   -3.3552   15.2306 C   0  0  0  0  0  0  0  0  0  0  0  0
  -11.7679   -3.1497   12.6468 C   0  0  0  0  0  0  0  0  0  0  0  0
  -13.2245   -2.6907   12.7723 C   0  0  0  0  0  0  0  0  0  0  0  0
  -14.0019   -2.8172   14.0058 N   0  0  0  0  0  0  0  0  0  0  0  0
  -13.7431   -2.2320   11.8106 O   0  0  0  0  0  0  0  0  0  0  0  0
  -14.9430   -2.5283   14.0064 H   0  0  0  0  0  0  0  0  0  0  0  0
  -13.8427   -2.3640   16.3181 C   0  0  0  0  0  0  0  0  0  0  0  0
  -14.3706   -1.0520   15.7419 C   0  0  0  0  0  0  0  0  0  0  0  0
  -15.6124   -0.8942   15.5718 O   0  0  0  0  0  0  0  0  0  0  0  0
  -13.5583   -0.1417   15.4183 O   0  0  0  0  0  0  0  0  0  0  0  0
  -16.2088   -1.5748   15.8147 H   0  0  0  0  0  0  0  0  0  0  0  0
 13 11  2  0  0  0
 21 20  2  0  0  0
 21 16  1  0  0  0
 15 16  1  0  0  0
 15 10  1  0  0  0
 11 12  1  0  0  0
 11 10  1  0  0  0
 20 19  1  0  0  0
 16 18  2  0  0  0
 10  7  1  0  0  0
 19 22  1  0  0  0
 19 17  2  0  0  0
 18 17  1  0  0  0
  7  6  1  0  0  0
  8  6  2  0  0  0
  6  3  1  0  0  0
  1  4  1  0  0  0
  1  3  1  0  0  0
  5  4  1  0  0  0
  5  2  1  0  0  0
  3  2  1  0  0  0
  3 24  1  0  0  0
 24 25  1  0  0  0
 28 26  2  0  0  0
 25 26  1  0  0  0
 25 30  1  0  0  0
 26 27  1  0  0  0
 30 32  1  0  0  0
 32 31  1  0  0  0
 31 33  2  0  0  0
 31 35  1  0  0  0
 35 41  1  0  0  0
 35 38  1  0  0  0
 41 42  1  0  0  0
 44 42  2  0  0  0
 39 37  2  0  0  0
 42 43  1  0  0  0
 38 37  1  0  0  0
 37 36  1  0  0  0
 32 34  1  0  0  0
 38 40  1  0  0  0
  7  9  1  0  0  0
 43 45  1  0  0  0
 22 23  1  0  0  0
 12 14  1  0  0  0
 27 29  1  0  0  0
M  END
> <minimizedAffinity>
-8.90736

$$$$
6F9U_D0W_A_711


 45 46  0  0  0  0  0  0  0  0999 V2000
  -16.6110   -8.1849   24.2813 C   0  0  0  0  0  0  0  0  0  0  0  0
  -15.6021   -6.3196   25.3331 C   0  0  0  0  0  0  0  0  0  0  0  0
  -15.2079   -7.4638   24.6457 C   0  0  0  0  0  0  0  0  0  0  0  0
  -17.6913   -7.6502   25.3151 C   0  0  0  0  0  0  0  0  0  0  0  0
  -17.0861   -6.6421   26.0588 C   0  0  0  0  0  0  0  0  0  0  0  0
  -14.4467   -8.4899   25.5229 C   0  0  0  0  0  0  0  0  0  0  0  0
  -14.9762   -9.8289   25.5866 N   0  0  0  0  0  0  0  0  0  0  0  0
  -13.4286   -8.2231   26.1022 O   0  0  0  0  0  0  0  0  0  0  0  0
  -15.8144  -10.0452   25.1176 H   0  0  0  0  0  0  0  0  0  0  0  0
  -14.2854  -10.8596   26.3351 C   0  0  0  0  0  0  0  0  0  0  0  0
  -13.7014  -11.8499   25.3038 C   0  0  0  0  0  0  0  0  0  0  0  0
  -13.9956  -11.7058   24.0867 O   0  0  0  0  0  0  0  0  0  0  0  0
  -12.9226  -12.8004   25.6215 O   0  0  0  0  0  0  0  0  0  0  0  0
  -14.5683  -11.0129   23.8220 H   0  0  0  0  0  0  0  0  0  0  0  0
  -15.2441  -11.6271   27.2390 C   0  0  0  0  0  0  0  0  0  0  0  0
  -16.4497  -10.8164   27.7106 C   0  0  0  0  0  0  0  0  0  0  0  0
  -17.3910   -9.0006   28.9615 C   0  0  0  0  0  0  0  0  0  0  0  0
  -16.2865   -9.7293   28.5510 C   0  0  0  0  0  0  0  0  0  0  0  0
  -18.6596   -9.3637   28.5234 C   0  0  0  0  0  0  0  0  0  0  0  0
  -18.8185  -10.4497   27.6781 C   0  0  0  0  0  0  0  0  0  0  0  0
  -17.7113  -11.1792   27.2660 C   0  0  0  0  0  0  0  0  0  0  0  0
  -19.7916   -8.6382   28.9266 O   0  0  0  0  0  0  0  0  0  0  0  0
  -20.6420   -8.8913   28.6255 H   0  0  0  0  0  0  0  0  0  0  0  0
  -14.4826   -7.1712   23.3234 C   0  0  0  0  0  0  0  0  0  0  0  0
  -14.2444   -8.3903   22.4116 C   0  0  0  0  0  0  0  0  0  0  0  0
  -12.7625   -8.7263   22.3816 C   0  0  0  0  0  0  0  0  0  0  0  0
  -11.9272   -7.7826   22.2645 O   0  0  0  0  0  0  0  0  0  0  0  0
  -12.4012   -9.9361   22.4706 O   0  0  0  0  0  0  0  0  0  0  0  0
  -12.2267   -6.8971   22.2008 H   0  0  0  0  0  0  0  0  0  0  0  0
  -14.6882   -8.0872   20.9795 C   0  0  0  0  0  0  0  0  0  0  0  0
  -13.8289   -6.9271   18.8642 C   0  0  0  0  0  0  0  0  0  0  0  0
  -13.8296   -7.0831   20.3291 N   0  0  0  0  0  0  0  0  0  0  0  0
  -14.5456   -7.5923   18.2029 O   0  0  0  0  0  0  0  0  0  0  0  0
  -13.2492   -6.5093   20.8797 H   0  0  0  0  0  0  0  0  0  0  0  0
  -12.9668   -5.8758   18.1457 C   0  0  0  0  0  0  0  0  0  0  0  0
  -10.0728   -6.9299   18.1640 C   0  0  0  0  0  0  0  0  0  0  0  0
  -10.9523   -6.8490   16.9118 C   0  0  0  0  0  0  0  0  0  0  0  0
  -12.3327   -6.3632   16.9312 N   0  0  0  0  0  0  0  0  0  0  0  0
  -10.4883   -7.2212   15.8869 O   0  0  0  0  0  0  0  0  0  0  0  0
  -12.8497   -6.3665   16.0934 H   0  0  0  0  0  0  0  0  0  0  0  0
  -13.8943   -4.7560   17.6767 C   0  0  0  0  0  0  0  0  0  0  0  0
  -14.3581   -4.9487   16.2346 C   0  0  0  0  0  0  0  0  0  0  0  0
  -15.3189   -5.7289   15.9817 O   0  0  0  0  0  0  0  0  0  0  0  0
  -13.7619   -4.3425   15.3017 O   0  0  0  0  0  0  0  0  0  0  0  0
  -15.7563   -6.1751   16.6800 H   0  0  0  0  0  0  0  0  0  0  0  0
 13 11  2  0  0  0
 21 20  2  0  0  0
 21 16  1  0  0  0
 15 16  1  0  0  0
 15 10  1  0  0  0
 11 12  1  0  0  0
 11 10  1  0  0  0
 20 19  1  0  0  0
 16 18  2  0  0  0
 10  7  1  0  0  0
 19 22  1  0  0  0
 19 17  2  0  0  0
 18 17  1  0  0  0
  7  6  1  0  0  0
  8  6  2  0  0  0
  6  3  1  0  0  0
  1  4  1  0  0  0
  1  3  1  0  0  0
  5  4  1  0  0  0
  5  2  1  0  0  0
  3  2  1  0  0  0
  3 24  1  0  0  0
 24 25  1  0  0  0
 28 26  2  0  0  0
 25 26  1  0  0  0
 25 30  1  0  0  0
 26 27  1  0  0  0
 30 32  1  0  0  0
 32 31  1  0  0  0
 31 33  2  0  0  0
 31 35  1  0  0  0
 35 41  1  0  0  0
 35 38  1  0  0  0
 41 42  1  0  0  0
 44 42  2  0  0  0
 39 37  2  0  0  0
 42 43  1  0  0  0
 38 37  1  0  0  0
 37 36  1  0  0  0
 32 34  1  0  0  0
 38 40  1  0  0  0
  7  9  1  0  0  0
 43 45  1  0  0  0
 22 23  1  0  0  0
 12 14  1  0  0  0
 27 29  1  0  0  0
M  END
> <minimizedAffinity>
-8.81269

$$$$
6F9U_D0W_A_711


 45 46  0  0  0  0  0  0  0  0999 V2000
  -15.9122   -8.2955   24.7831 C   0  0  0  0  0  0  0  0  0  0  0  0
  -13.8306   -7.2262   25.1389 C   0  0  0  0  0  0  0  0  0  0  0  0
  -14.3232   -8.5202   24.9974 C   0  0  0  0  0  0  0  0  0  0  0  0
  -16.2689   -6.8761   25.3991 C   0  0  0  0  0  0  0  0  0  0  0  0
  -15.0693   -6.2699   25.7586 C   0  0  0  0  0  0  0  0  0  0  0  0
  -14.2102   -9.3771   26.2837 C   0  0  0  0  0  0  0  0  0  0  0  0
  -14.9253  -10.6282   26.3114 N   0  0  0  0  0  0  0  0  0  0  0  0
  -13.5260   -9.0605   27.2192 O   0  0  0  0  0  0  0  0  0  0  0  0
  -15.4915  -10.8838   25.5476 H   0  0  0  0  0  0  0  0  0  0  0  0
  -14.8180  -11.5131   27.4538 C   0  0  0  0  0  0  0  0  0  0  0  0
  -14.3681  -12.8894   26.9163 C   0  0  0  0  0  0  0  0  0  0  0  0
  -14.0652  -13.7951   27.7388 O   0  0  0  0  0  0  0  0  0  0  0  0
  -14.3012  -13.1602   25.6782 O   0  0  0  0  0  0  0  0  0  0  0  0
  -14.1051  -13.6245   28.6593 H   0  0  0  0  0  0  0  0  0  0  0  0
  -16.1645  -11.6920   28.1466 C   0  0  0  0  0  0  0  0  0  0  0  0
  -17.1287  -10.5220   27.9603 C   0  0  0  0  0  0  0  0  0  0  0  0
  -17.9714   -8.3783   28.6251 C   0  0  0  0  0  0  0  0  0  0  0  0
  -17.0948   -9.4342   28.8149 C   0  0  0  0  0  0  0  0  0  0  0  0
  -18.8797   -8.4153   27.5731 C   0  0  0  0  0  0  0  0  0  0  0  0
  -18.9073   -9.5038   26.7168 C   0  0  0  0  0  0  0  0  0  0  0  0
  -18.0281  -10.5615   26.9065 C   0  0  0  0  0  0  0  0  0  0  0  0
  -19.7757   -7.3554   27.3627 O   0  0  0  0  0  0  0  0  0  0  0  0
  -20.3838   -7.3904   26.6507 H   0  0  0  0  0  0  0  0  0  0  0  0
  -13.7894   -9.2524   23.7568 C   0  0  0  0  0  0  0  0  0  0  0  0
  -14.1976   -8.6467   22.4001 C   0  0  0  0  0  0  0  0  0  0  0  0
  -14.8758   -9.7073   21.5485 C   0  0  0  0  0  0  0  0  0  0  0  0
  -14.6644  -10.9267   21.8134 O   0  0  0  0  0  0  0  0  0  0  0  0
  -15.6294   -9.3472   20.5974 O   0  0  0  0  0  0  0  0  0  0  0  0
  -14.1010  -11.1608   22.5245 H   0  0  0  0  0  0  0  0  0  0  0  0
  -12.9673   -8.1479   21.6405 C   0  0  0  0  0  0  0  0  0  0  0  0
  -12.2319   -7.4706   19.2827 C   0  0  0  0  0  0  0  0  0  0  0  0
  -13.2953   -7.7050   20.2749 N   0  0  0  0  0  0  0  0  0  0  0  0
  -11.1048   -7.6676   19.5728 O   0  0  0  0  0  0  0  0  0  0  0  0
  -14.2363   -7.5640   20.0220 H   0  0  0  0  0  0  0  0  0  0  0  0
  -12.5307   -7.0314   17.8395 C   0  0  0  0  0  0  0  0  0  0  0  0
  -10.0004   -6.5480   16.1512 C   0  0  0  0  0  0  0  0  0  0  0  0
  -10.9146   -7.7688   16.0032 C   0  0  0  0  0  0  0  0  0  0  0  0
  -12.1013   -7.9873   16.8313 N   0  0  0  0  0  0  0  0  0  0  0  0
  -10.6244   -8.5798   15.1894 O   0  0  0  0  0  0  0  0  0  0  0  0
  -12.6268   -8.8096   16.7015 H   0  0  0  0  0  0  0  0  0  0  0  0
  -14.0485   -6.9561   17.6814 C   0  0  0  0  0  0  0  0  0  0  0  0
  -14.4942   -5.7092   16.9208 C   0  0  0  0  0  0  0  0  0  0  0  0
  -15.4291   -5.7891   16.0749 O   0  0  0  0  0  0  0  0  0  0  0  0
  -13.9087   -4.6102   17.1275 O   0  0  0  0  0  0  0  0  0  0  0  0
  -15.8587   -6.6086   15.9274 H   0  0  0  0  0  0  0  0  0  0  0  0
 13 11  2  0  0  0
 21 20  2  0  0  0
 21 16  1  0  0  0
 15 16  1  0  0  0
 15 10  1  0  0  0
 11 12  1  0  0  0
 11 10  1  0  0  0
 20 19  1  0  0  0
 16 18  2  0  0  0
 10  7  1  0  0  0
 19 22  1  0  0  0
 19 17  2  0  0  0
 18 17  1  0  0  0
  7  6  1  0  0  0
  8  6  2  0  0  0
  6  3  1  0  0  0
  1  4  1  0  0  0
  1  3  1  0  0  0
  5  4  1  0  0  0
  5  2  1  0  0  0
  3  2  1  0  0  0
  3 24  1  0  0  0
 24 25  1  0  0  0
 28 26  2  0  0  0
 25 26  1  0  0  0
 25 30  1  0  0  0
 26 27  1  0  0  0
 30 32  1  0  0  0
 32 31  1  0  0  0
 31 33  2  0  0  0
 31 35  1  0  0  0
 35 41  1  0  0  0
 35 38  1  0  0  0
 41 42  1  0  0  0
 44 42  2  0  0  0
 39 37  2  0  0  0
 42 43  1  0  0  0
 38 37  1  0  0  0
 37 36  1  0  0  0
 32 34  1  0  0  0
 38 40  1  0  0  0
  7  9  1  0  0  0
 43 45  1  0  0  0
 22 23  1  0  0  0
 12 14  1  0  0  0
 27 29  1  0  0  0
M  END
> <minimizedAffinity>
-8.75817

$$$$
