3P17_99P_H_1001
  RCSB PDB12061710113D
Coordinates from PDB:3P17:H:1001 Model:1 without hydrogens
 26 28  0  0  0  0            999 V2000
   16.3850  -15.3010   23.0820   N 0  0  0  0  0  0  0  0  0  0  0  0
   17.6990  -14.5780   23.1540   C 0  0  0  0  0  0  0  0  0  0  0  0
   17.4730  -13.1790   22.5570   C 0  0  0  0  0  0  0  0  0  0  0  0
   16.5570  -12.4680   23.0010   O 0  0  0  0  0  0  0  0  0  0  0  0
   18.1780  -14.5050   24.6150   C 0  0  0  0  0  0  0  0  0  0  0  0
   19.6110  -13.9940   24.6830   C 0  0  0  0  0  0  0  0  0  0  0  0
   20.6710  -14.6660   24.0630   C 0  0  0  0  0  0  0  0  0  0  0  0
   19.8780  -12.8100   25.3900   C 0  0  0  0  0  0  0  0  0  0  0  0
   21.9580  -14.1600   24.1540   C 0  0  0  0  0  0  0  0  0  0  0  0
   21.1620  -12.3040   25.4820   C 0  0  0  0  0  0  0  0  0  0  0  0
   22.2090  -12.9810   24.8600   C 0  0  0  0  0  0  0  0  0  0  0  0
   18.3390  -12.7830   21.5650   N 0  0  0  0  0  0  0  0  0  0  0  0
   18.2050  -11.4320   20.9920   C 0  0  0  0  0  0  0  0  0  0  0  0
   16.7460  -11.3110   20.4680   C 0  0  0  0  0  0  0  0  0  0  0  0
   16.2600  -12.1930   19.7200   O 0  0  0  0  0  0  0  0  0  0  0  0
   19.1940  -11.4200   19.8060   C 0  0  0  0  0  0  0  0  0  0  0  0
   20.2390  -12.4020   20.2720   C 0  0  0  0  0  0  0  0  0  0  0  0
   19.4570  -13.5360   20.9490   C 0  0  0  0  0  0  0  0  0  0  0  0
   16.0870  -10.1430   20.7160   N 0  0  0  0  0  0  0  0  0  0  0  0
   14.7610   -9.8760   20.1810   C 0  0  0  0  0  0  0  0  0  0  0  0
   13.7180  -10.4350   21.0910   C 0  0  0  0  0  0  0  0  0  0  0  0
   12.9340   -9.6220   21.8870   C 0  0  0  0  0  0  0  0  0  0  0  0
   11.9730  -10.0820   22.7300   N 0  0  0  0  0  0  0  0  0  0  0  0
   11.7790  -11.4190   22.7850   C 0  0  0  0  0  0  0  0  0  0  0  0
   12.5170  -12.2990   22.0250   C 0  0  0  0  0  0  0  0  0  0  0  0
   13.4900  -11.7940   21.1770   C 0  0  0  0  0  0  0  0  0  0  0  0
 15 14  2  0  0  0  0
 16 17  1  0  0  0  0
 16 13  1  0  0  0  0
 20 19  1  0  0  0  0
 20 21  1  0  0  0  0
 17 18  1  0  0  0  0
 14 19  1  0  0  0  0
 14 13  1  0  0  0  0
 18 12  1  0  0  0  0
 13 12  1  0  0  0  0
 21 26  2  0  0  0  0
 21 22  1  0  0  0  0
 26 25  1  0  0  0  0
 12  3  1  0  0  0  0
 22 23  2  0  0  0  0
 25 24  2  0  0  0  0
  3  4  2  0  0  0  0
  3  2  1  0  0  0  0
 23 24  1  0  0  0  0
  1  2  1  0  0  0  0
  2  5  1  0  0  0  0
  7  9  2  0  0  0  0
  7  6  1  0  0  0  0
  9 11  1  0  0  0  0
  5  6  1  0  0  0  0
  6  8  2  0  0  0  0
 11 10  2  0  0  0  0
  8 10  1  0  0  0  0
A    1
N4
A    2
C3
A    3
C5
A    4
O7
A    5
C2
A    6
C1
A    7
C8
A    8
C12
A    9
C9
A   10
C11
A   11
C10
A   12
N6
A   13
C13
A   14
C14
A   15
O15
A   16
C19
A   17
C20
A   18
C21
A   19
N16
A   20
C17
A   21
C18
A   22
C22
A   23
N23
A   24
C24
A   25
C25
A   26
C26
M  END
>  <InstanceId>
3P17_99P_H_1001

>  <ChemCompId>
99P

>  <PdbId>
3P17

>  <ChainId>
H

>  <ResidueNumber>
1001

>  <InsertionCode>


>  <Model>
1

>  <AltIds>


>  <MissingHeavyAtoms>
0

>  <ObservedFormula>
C20 N4 O2

>  <Name>
D-phenylalanyl-N-(pyridin-3-ylmethyl)-L-prolinamide

>  <SystematicName>
(2S)-1-[(2R)-2-azanyl-3-phenyl-propanoyl]-N-(pyridin-3-ylmethyl)pyrrolidine-2-carboxamide

>  <Synonyms>


>  <Type>
peptide-like

>  <Formula>
C20 H24 N4 O2

>  <MolecularWeight>
352.43

>  <ModifiedDate>
2012-09-12

>  <Parent>


>  <OneLetterCode>


>  <SubcomponentList>
DPN PRO 0YC

>  <AmbiguousFlag>
N

>  <InChI>
InChI=1S/C20H24N4O2/c21-17(12-15-6-2-1-3-7-15)20(26)24-11-5-9-18(24)19(25)23-14-16-8-4-10-22-13-16/h1-4,6-8,10,13,17-18H,5,9,11-12,14,21H2,(H,23,25)/t17-,18+/m1/s1

>  <InChIKey>
KNPSDIKTQZBRCN-MSOLQXFVSA-N

>  <SMILES>
c1ccc(cc1)C[C@H](C(=O)N2CCC[C@H]2C(=O)NCc3cccnc3)N

$$$$
