1QBU_846_B_300


 46 51  0  0  0  0  0  0  0  0999 V2000
   -9.3163   17.5733   26.8584 C   0  0  0  0  0  0  0  0  0  0  0  0
   -9.0156   15.4550   28.1821 C   0  0  0  0  0  0  0  0  0  0  0  0
   -8.7602   14.4092   27.1040 C   0  0  0  0  0  0  0  0  0  0  0  0
   -7.6953   14.8520   26.1313 C   0  0  0  0  0  0  0  0  0  0  0  0
   -8.2038   15.9933   25.2858 C   0  0  0  0  0  0  0  0  0  0  0  0
   -9.7283   16.6938   27.8169 N   0  0  0  0  0  0  0  0  0  0  0  0
   -8.3382   17.2999   25.9512 N   0  0  0  0  0  0  0  0  0  0  0  0
   -9.8376   18.6783   26.8175 O   0  0  0  0  0  0  0  0  0  0  0  0
   -8.3714   13.2361   27.7827 O   0  0  0  0  0  0  0  0  0  0  0  0
   -7.3688   13.8311   25.2140 O   0  0  0  0  0  0  0  0  0  0  0  0
   -7.5737   13.4141   28.3050 H   0  0  0  0  0  0  0  0  0  0  0  0
   -8.1535   13.6032   24.6912 H   0  0  0  0  0  0  0  0  0  0  0  0
  -10.8679   17.0584   28.6831 C   0  0  0  0  0  0  0  0  0  0  0  0
  -11.7999   15.9577   29.1840 C   0  0  0  0  0  0  0  0  0  0  0  0
  -11.8820   15.6351   30.5694 C   0  0  0  0  0  0  0  0  0  0  0  0
  -12.7933   14.6423   31.0144 C   0  0  0  0  0  0  0  0  0  0  0  0
  -13.5930   13.9723   30.0711 C   0  0  0  0  0  0  0  0  0  0  0  0
  -13.5173   14.2812   28.7024 C   0  0  0  0  0  0  0  0  0  0  0  0
  -12.6232   15.2736   28.2673 C   0  0  0  0  0  0  0  0  0  0  0  0
  -13.0124   14.3046   32.4731 C   0  0  0  0  0  0  0  0  0  0  0  0
  -11.9398   13.8389   33.1440 N   0  0  0  0  0  0  0  0  0  0  0  0
  -14.0808   14.4899   33.0310 O   0  0  0  0  0  0  0  0  0  0  0  0
  -11.1373   13.6399   32.6095 H   0  0  0  0  0  0  0  0  0  0  0  0
  -11.8428   13.5939   34.6112 C   0  0  0  0  0  0  0  0  0  0  0  0
  -11.4651   14.0563   36.8293 C   0  0  0  0  0  0  0  0  0  0  0  0
  -11.8356   12.7068   36.9935 C   0  0  0  0  0  0  0  0  0  0  0  0
  -11.4747   14.5245   35.5259 N   0  0  0  0  0  0  0  0  0  0  0  0
  -12.1695   12.1532   35.4381 S   0  0  0  0  0  0  0  0  0  0  0  0
   -7.5052   18.4117   25.4309 C   0  0  0  0  0  0  0  0  0  0  0  0
   -6.3061   18.6762   26.3653 C   0  0  0  0  0  0  0  0  0  0  0  0
   -5.1527   17.6737   26.2136 C   0  0  0  0  0  0  0  0  0  0  0  0
   -5.0423   19.0835   25.6048 C   0  0  0  0  0  0  0  0  0  0  0  0
   -7.8196   15.8144   29.0818 C   0  0  0  0  0  0  0  0  0  0  0  0
   -8.1309   15.6506   30.5485 C   0  0  0  0  0  0  0  0  0  0  0  0
   -8.3778   14.3719   31.0854 C   0  0  0  0  0  0  0  0  0  0  0  0
   -8.6554   14.2390   32.4654 C   0  0  0  0  0  0  0  0  0  0  0  0
   -8.6867   15.3829   33.2910 C   0  0  0  0  0  0  0  0  0  0  0  0
   -8.4456   16.6616   32.7512 C   0  0  0  0  0  0  0  0  0  0  0  0
   -8.1687   16.7974   31.3780 C   0  0  0  0  0  0  0  0  0  0  0  0
   -9.4785   15.7013   24.4616 C   0  0  0  0  0  0  0  0  0  0  0  0
   -9.2219   15.6414   22.9739 C   0  0  0  0  0  0  0  0  0  0  0  0
   -7.9162   15.8960   22.4865 C   0  0  0  0  0  0  0  0  0  0  0  0
   -7.6707   15.9082   21.1036 C   0  0  0  0  0  0  0  0  0  0  0  0
   -8.7273   15.6603   20.2052 C   0  0  0  0  0  0  0  0  0  0  0  0
  -10.0293   15.3979   20.6931 C   0  0  0  0  0  0  0  0  0  0  0  0
  -10.2818   15.3839   22.0836 C   0  0  0  0  0  0  0  0  0  0  0  0
  1  6  1  0  0  0
  1  7  1  0  0  0
  1  8  2  0  0  0
 13 14  1  0  0  0
 13  6  1  0  0  0
  2  3  1  0  0  0
  2 33  1  0  0  0
  2  6  1  0  0  0
  3  4  1  0  0  0
  3  9  1  0  0  0
  4  5  1  0  0  0
  4 10  1  0  0  0
  5 40  1  0  0  0
  5  7  1  0  0  0
 29 30  1  0  0  0
 29  7  1  0  0  0
 14 15  2  0  0  0
 14 19  1  0  0  0
 15 16  1  0  0  0
 16 17  2  0  0  0
 16 20  1  0  0  0
 17 18  1  0  0  0
 18 19  2  0  0  0
 20 21  1  0  0  0
 20 22  2  0  0  0
 24 21  1  0  0  0
 24 27  2  0  0  0
 24 28  1  0  0  0
 25 26  2  0  0  0
 25 27  1  0  0  0
 26 28  1  0  0  0
 33 34  1  0  0  0
 34 35  2  0  0  0
 34 39  1  0  0  0
 35 36  1  0  0  0
 36 37  2  0  0  0
 37 38  1  0  0  0
 38 39  2  0  0  0
 40 41  1  0  0  0
 41 42  2  0  0  0
 41 46  1  0  0  0
 42 43  1  0  0  0
 43 44  2  0  0  0
 44 45  1  0  0  0
 45 46  2  0  0  0
 30 31  1  0  0  0
 30 32  1  0  0  0
 31 32  1  0  0  0
 21 23  1  0  0  0
  9 11  1  0  0  0
 10 12  1  0  0  0
M  END
> <minimizedAffinity>
-11.78259

$$$$
1QBU_846_B_300


 46 51  0  0  0  0  0  0  0  0999 V2000
   -8.1608   14.9812   27.6790 C   0  0  0  0  0  0  0  0  0  0  0  0
  -10.2538   15.8646   28.7599 C   0  0  0  0  0  0  0  0  0  0  0  0
  -10.1909   17.3575   28.4619 C   0  0  0  0  0  0  0  0  0  0  0  0
   -9.9193   17.6293   27.0029 C   0  0  0  0  0  0  0  0  0  0  0  0
   -8.5095   17.2237   26.6508 C   0  0  0  0  0  0  0  0  0  0  0  0
   -9.0026   15.0836   28.7481 N   0  0  0  0  0  0  0  0  0  0  0  0
   -8.2364   15.7786   26.5777 N   0  0  0  0  0  0  0  0  0  0  0  0
   -7.2987   14.1145   27.6958 O   0  0  0  0  0  0  0  0  0  0  0  0
  -11.4380   17.8863   28.8531 O   0  0  0  0  0  0  0  0  0  0  0  0
   -9.9913   19.0066   26.7061 O   0  0  0  0  0  0  0  0  0  0  0  0
  -12.1453   17.4507   28.3522 H   0  0  0  0  0  0  0  0  0  0  0  0
   -9.3155   19.4825   27.2139 H   0  0  0  0  0  0  0  0  0  0  0  0
   -8.7643   14.2341   29.9327 C   0  0  0  0  0  0  0  0  0  0  0  0
   -9.0918   14.7858   31.3182 C   0  0  0  0  0  0  0  0  0  0  0  0
  -10.1818   14.2711   32.0779 C   0  0  0  0  0  0  0  0  0  0  0  0
  -10.4338   14.7667   33.3837 C   0  0  0  0  0  0  0  0  0  0  0  0
   -9.6096   15.7808   33.9038 C   0  0  0  0  0  0  0  0  0  0  0  0
   -8.5341   16.2970   33.1613 C   0  0  0  0  0  0  0  0  0  0  0  0
   -8.2800   15.7947   31.8741 C   0  0  0  0  0  0  0  0  0  0  0  0
  -11.5082   14.2122   34.2936 C   0  0  0  0  0  0  0  0  0  0  0  0
  -11.9235   12.9573   34.0286 N   0  0  0  0  0  0  0  0  0  0  0  0
  -11.9414   14.8380   35.2463 O   0  0  0  0  0  0  0  0  0  0  0  0
  -11.5885   12.5478   33.1983 H   0  0  0  0  0  0  0  0  0  0  0  0
  -12.8372   12.1254   34.8623 C   0  0  0  0  0  0  0  0  0  0  0  0
  -14.8192   11.2774   35.6553 C   0  0  0  0  0  0  0  0  0  0  0  0
  -13.9637   10.5227   36.4825 C   0  0  0  0  0  0  0  0  0  0  0  0
  -14.1903   12.1451   34.7781 N   0  0  0  0  0  0  0  0  0  0  0  0
  -12.4069   11.0004   36.0519 S   0  0  0  0  0  0  0  0  0  0  0  0
   -7.8084   15.2378   25.2642 C   0  0  0  0  0  0  0  0  0  0  0  0
   -8.9411   14.4101   24.6218 C   0  0  0  0  0  0  0  0  0  0  0  0
  -10.0159   15.2494   23.9159 C   0  0  0  0  0  0  0  0  0  0  0  0
   -8.9486   14.5034   23.0945 C   0  0  0  0  0  0  0  0  0  0  0  0
  -11.3466   15.0673   28.0258 C   0  0  0  0  0  0  0  0  0  0  0  0
  -12.1858   14.2381   28.9655 C   0  0  0  0  0  0  0  0  0  0  0  0
  -12.1634   12.8318   28.8872 C   0  0  0  0  0  0  0  0  0  0  0  0
  -12.9480   12.0728   29.7859 C   0  0  0  0  0  0  0  0  0  0  0  0
  -13.7471   12.7260   30.7481 C   0  0  0  0  0  0  0  0  0  0  0  0
  -13.7730   14.1326   30.8210 C   0  0  0  0  0  0  0  0  0  0  0  0
  -12.9930   14.8910   29.9282 C   0  0  0  0  0  0  0  0  0  0  0  0
   -7.3900   17.9193   27.4583 C   0  0  0  0  0  0  0  0  0  0  0  0
   -6.0202   17.7439   26.8453 C   0  0  0  0  0  0  0  0  0  0  0  0
   -5.7083   18.4248   25.6428 C   0  0  0  0  0  0  0  0  0  0  0  0
   -4.4638   18.2252   25.0229 C   0  0  0  0  0  0  0  0  0  0  0  0
   -3.5264   17.3498   25.6060 C   0  0  0  0  0  0  0  0  0  0  0  0
   -3.8356   16.6765   26.8115 C   0  0  0  0  0  0  0  0  0  0  0  0
   -5.0861   16.8741   27.4397 C   0  0  0  0  0  0  0  0  0  0  0  0
  1  6  1  0  0  0
  1  7  1  0  0  0
  1  8  2  0  0  0
 13 14  1  0  0  0
 13  6  1  0  0  0
  2  3  1  0  0  0
  2 33  1  0  0  0
  2  6  1  0  0  0
  3  4  1  0  0  0
  3  9  1  0  0  0
  4  5  1  0  0  0
  4 10  1  0  0  0
  5 40  1  0  0  0
  5  7  1  0  0  0
 29 30  1  0  0  0
 29  7  1  0  0  0
 14 15  2  0  0  0
 14 19  1  0  0  0
 15 16  1  0  0  0
 16 17  2  0  0  0
 16 20  1  0  0  0
 17 18  1  0  0  0
 18 19  2  0  0  0
 20 21  1  0  0  0
 20 22  2  0  0  0
 24 21  1  0  0  0
 24 27  2  0  0  0
 24 28  1  0  0  0
 25 26  2  0  0  0
 25 27  1  0  0  0
 26 28  1  0  0  0
 33 34  1  0  0  0
 34 35  2  0  0  0
 34 39  1  0  0  0
 35 36  1  0  0  0
 36 37  2  0  0  0
 37 38  1  0  0  0
 38 39  2  0  0  0
 40 41  1  0  0  0
 41 42  2  0  0  0
 41 46  1  0  0  0
 42 43  1  0  0  0
 43 44  2  0  0  0
 44 45  1  0  0  0
 45 46  2  0  0  0
 30 31  1  0  0  0
 30 32  1  0  0  0
 31 32  1  0  0  0
 21 23  1  0  0  0
  9 11  1  0  0  0
 10 12  1  0  0  0
M  END
> <minimizedAffinity>
-11.60635

$$$$
1QBU_846_B_300


 46 51  0  0  0  0  0  0  0  0999 V2000
  -10.7628   16.7145   28.8534 C   0  0  0  0  0  0  0  0  0  0  0  0
   -9.0277   15.3708   27.6233 C   0  0  0  0  0  0  0  0  0  0  0  0
   -8.2636   14.6838   28.7483 C   0  0  0  0  0  0  0  0  0  0  0  0
   -9.1910   14.0077   29.7276 C   0  0  0  0  0  0  0  0  0  0  0  0
   -9.9606   15.0396   30.5143 C   0  0  0  0  0  0  0  0  0  0  0  0
   -9.7717   16.6091   27.9214 N   0  0  0  0  0  0  0  0  0  0  0  0
  -11.0210   15.7642   29.7939 N   0  0  0  0  0  0  0  0  0  0  0  0
  -11.4756   17.7077   28.8376 O   0  0  0  0  0  0  0  0  0  0  0  0
   -7.4120   13.7477   28.1267 O   0  0  0  0  0  0  0  0  0  0  0  0
   -8.4796   13.2642   30.6926 O   0  0  0  0  0  0  0  0  0  0  0  0
   -7.9431   13.1162   27.6168 H   0  0  0  0  0  0  0  0  0  0  0  0
   -7.9112   13.8601   31.2053 H   0  0  0  0  0  0  0  0  0  0  0  0
   -9.5158   17.7465   27.0145 C   0  0  0  0  0  0  0  0  0  0  0  0
   -8.1247   17.9116   26.4072 C   0  0  0  0  0  0  0  0  0  0  0  0
   -7.9026   17.7260   25.0121 C   0  0  0  0  0  0  0  0  0  0  0  0
   -6.6097   17.9349   24.4650 C   0  0  0  0  0  0  0  0  0  0  0  0
   -5.5548   18.3047   25.3186 C   0  0  0  0  0  0  0  0  0  0  0  0
   -5.7632   18.4873   26.6962 C   0  0  0  0  0  0  0  0  0  0  0  0
   -7.0471   18.2922   27.2319 C   0  0  0  0  0  0  0  0  0  0  0  0
   -6.3069   17.8523   22.9848 C   0  0  0  0  0  0  0  0  0  0  0  0
   -5.2075   17.1523   22.6401 N   0  0  0  0  0  0  0  0  0  0  0  0
   -7.0389   18.3432   22.1420 O   0  0  0  0  0  0  0  0  0  0  0  0
   -4.6245   16.8559   23.3760 H   0  0  0  0  0  0  0  0  0  0  0  0
   -4.7830   16.7805   21.2604 C   0  0  0  0  0  0  0  0  0  0  0  0
   -3.4464   16.6828   19.3948 C   0  0  0  0  0  0  0  0  0  0  0  0
   -4.4997   15.8907   18.8960 C   0  0  0  0  0  0  0  0  0  0  0  0
   -3.6156   17.1592   20.6841 N   0  0  0  0  0  0  0  0  0  0  0  0
   -5.6274   15.8264   20.1455 S   0  0  0  0  0  0  0  0  0  0  0  0
  -12.4094   15.5969   30.2889 C   0  0  0  0  0  0  0  0  0  0  0  0
  -13.2918   14.9244   29.2164 C   0  0  0  0  0  0  0  0  0  0  0  0
  -12.9020   13.4743   28.8947 C   0  0  0  0  0  0  0  0  0  0  0  0
  -14.1285   13.7722   29.7764 C   0  0  0  0  0  0  0  0  0  0  0  0
   -9.9020   14.4642   26.7388 C   0  0  0  0  0  0  0  0  0  0  0  0
   -9.6091   14.6358   25.2691 C   0  0  0  0  0  0  0  0  0  0  0  0
  -10.5662   15.2191   24.4158 C   0  0  0  0  0  0  0  0  0  0  0  0
  -10.2667   15.3822   23.0436 C   0  0  0  0  0  0  0  0  0  0  0  0
   -9.0186   14.9585   22.5398 C   0  0  0  0  0  0  0  0  0  0  0  0
   -8.0650   14.3698   23.3934 C   0  0  0  0  0  0  0  0  0  0  0  0
   -8.3598   14.2062   24.7598 C   0  0  0  0  0  0  0  0  0  0  0  0
   -9.1051   16.0447   31.3189 C   0  0  0  0  0  0  0  0  0  0  0  0
   -9.2134   15.8522   32.8136 C   0  0  0  0  0  0  0  0  0  0  0  0
  -10.2929   15.0990   33.3374 C   0  0  0  0  0  0  0  0  0  0  0  0
  -10.4473   14.9621   34.7268 C   0  0  0  0  0  0  0  0  0  0  0  0
   -9.5207   15.5721   35.5952 C   0  0  0  0  0  0  0  0  0  0  0  0
   -8.4381   16.3173   35.0709 C   0  0  0  0  0  0  0  0  0  0  0  0
   -8.2777   16.4577   33.6738 C   0  0  0  0  0  0  0  0  0  0  0  0
  1  6  1  0  0  0
  1  7  1  0  0  0
  1  8  2  0  0  0
 13 14  1  0  0  0
 13  6  1  0  0  0
  2  3  1  0  0  0
  2 33  1  0  0  0
  2  6  1  0  0  0
  3  4  1  0  0  0
  3  9  1  0  0  0
  4  5  1  0  0  0
  4 10  1  0  0  0
  5 40  1  0  0  0
  5  7  1  0  0  0
 29 30  1  0  0  0
 29  7  1  0  0  0
 14 15  2  0  0  0
 14 19  1  0  0  0
 15 16  1  0  0  0
 16 17  2  0  0  0
 16 20  1  0  0  0
 17 18  1  0  0  0
 18 19  2  0  0  0
 20 21  1  0  0  0
 20 22  2  0  0  0
 24 21  1  0  0  0
 24 27  2  0  0  0
 24 28  1  0  0  0
 25 26  2  0  0  0
 25 27  1  0  0  0
 26 28  1  0  0  0
 33 34  1  0  0  0
 34 35  2  0  0  0
 34 39  1  0  0  0
 35 36  1  0  0  0
 36 37  2  0  0  0
 37 38  1  0  0  0
 38 39  2  0  0  0
 40 41  1  0  0  0
 41 42  2  0  0  0
 41 46  1  0  0  0
 42 43  1  0  0  0
 43 44  2  0  0  0
 44 45  1  0  0  0
 45 46  2  0  0  0
 30 31  1  0  0  0
 30 32  1  0  0  0
 31 32  1  0  0  0
 21 23  1  0  0  0
  9 11  1  0  0  0
 10 12  1  0  0  0
M  END
> <minimizedAffinity>
-11.56372

$$$$
1QBU_846_B_300


 46 51  0  0  0  0  0  0  0  0999 V2000
   -8.8605   14.4888   28.3139 C   0  0  0  0  0  0  0  0  0  0  0  0
   -8.7321   16.7443   27.2068 C   0  0  0  0  0  0  0  0  0  0  0  0
  -10.1184   17.3270   27.4517 C   0  0  0  0  0  0  0  0  0  0  0  0
  -10.5278   17.2163   28.8996 C   0  0  0  0  0  0  0  0  0  0  0  0
  -10.7731   15.7727   29.2629 C   0  0  0  0  0  0  0  0  0  0  0  0
   -8.5593   15.2799   27.2436 N   0  0  0  0  0  0  0  0  0  0  0  0
   -9.5853   14.9112   29.3865 N   0  0  0  0  0  0  0  0  0  0  0  0
   -8.4435   13.3396   28.3259 O   0  0  0  0  0  0  0  0  0  0  0  0
  -10.0524   18.6753   27.0447 O   0  0  0  0  0  0  0  0  0  0  0  0
  -11.7521   17.8717   29.1478 O   0  0  0  0  0  0  0  0  0  0  0  0
   -9.3737   19.1364   27.5621 H   0  0  0  0  0  0  0  0  0  0  0  0
  -12.4535   17.4563   28.6222 H   0  0  0  0  0  0  0  0  0  0  0  0
   -7.8539   14.6870   26.0892 C   0  0  0  0  0  0  0  0  0  0  0  0
   -8.2416   15.1252   24.6789 C   0  0  0  0  0  0  0  0  0  0  0  0
   -7.3267   15.8371   23.8505 C   0  0  0  0  0  0  0  0  0  0  0  0
   -7.6943   16.1886   22.5255 C   0  0  0  0  0  0  0  0  0  0  0  0
   -8.9739   15.8442   22.0539 C   0  0  0  0  0  0  0  0  0  0  0  0
   -9.8843   15.1449   22.8643 C   0  0  0  0  0  0  0  0  0  0  0  0
   -9.5120   14.7874   24.1709 C   0  0  0  0  0  0  0  0  0  0  0  0
   -6.7532   16.8593   21.5487 C   0  0  0  0  0  0  0  0  0  0  0  0
   -5.4500   16.5318   21.6571 N   0  0  0  0  0  0  0  0  0  0  0  0
   -7.1494   17.6136   20.6762 O   0  0  0  0  0  0  0  0  0  0  0  0
   -5.1963   15.9823   22.4336 H   0  0  0  0  0  0  0  0  0  0  0  0
   -4.3532   16.9152   20.7233 C   0  0  0  0  0  0  0  0  0  0  0  0
   -2.4315   17.9453   20.0004 C   0  0  0  0  0  0  0  0  0  0  0  0
   -2.7222   17.2599   18.8040 C   0  0  0  0  0  0  0  0  0  0  0  0
   -3.3290   17.7467   21.0363 N   0  0  0  0  0  0  0  0  0  0  0  0
   -4.1404   16.4086   19.1220 S   0  0  0  0  0  0  0  0  0  0  0  0
   -9.3218   14.3110   30.7173 C   0  0  0  0  0  0  0  0  0  0  0  0
   -9.4978   15.3627   31.8326 C   0  0  0  0  0  0  0  0  0  0  0  0
   -8.4441   15.2854   32.9470 C   0  0  0  0  0  0  0  0  0  0  0  0
   -8.3571   16.3819   31.8697 C   0  0  0  0  0  0  0  0  0  0  0  0
   -7.5698   17.4031   27.9708 C   0  0  0  0  0  0  0  0  0  0  0  0
   -6.3259   17.5346   27.1279 C   0  0  0  0  0  0  0  0  0  0  0  0
   -5.1917   16.7463   27.4048 C   0  0  0  0  0  0  0  0  0  0  0  0
   -4.0402   16.8761   26.5946 C   0  0  0  0  0  0  0  0  0  0  0  0
   -4.0335   17.7923   25.5215 C   0  0  0  0  0  0  0  0  0  0  0  0
   -5.1665   18.5842   25.2498 C   0  0  0  0  0  0  0  0  0  0  0  0
   -6.3144   18.4574   26.0542 C   0  0  0  0  0  0  0  0  0  0  0  0
  -11.8525   15.0454   28.4291 C   0  0  0  0  0  0  0  0  0  0  0  0
  -12.1824   13.6689   28.9576 C   0  0  0  0  0  0  0  0  0  0  0  0
  -11.9050   12.5350   28.1548 C   0  0  0  0  0  0  0  0  0  0  0  0
  -12.2625   11.2520   28.6007 C   0  0  0  0  0  0  0  0  0  0  0  0
  -12.8922   11.0984   29.8516 C   0  0  0  0  0  0  0  0  0  0  0  0
  -13.1614   12.2307   30.6564 C   0  0  0  0  0  0  0  0  0  0  0  0
  -12.8033   13.5239   30.2128 C   0  0  0  0  0  0  0  0  0  0  0  0
  1  6  1  0  0  0
  1  7  1  0  0  0
  1  8  2  0  0  0
 13 14  1  0  0  0
 13  6  1  0  0  0
  2  3  1  0  0  0
  2 33  1  0  0  0
  2  6  1  0  0  0
  3  4  1  0  0  0
  3  9  1  0  0  0
  4  5  1  0  0  0
  4 10  1  0  0  0
  5 40  1  0  0  0
  5  7  1  0  0  0
 29 30  1  0  0  0
 29  7  1  0  0  0
 14 15  2  0  0  0
 14 19  1  0  0  0
 15 16  1  0  0  0
 16 17  2  0  0  0
 16 20  1  0  0  0
 17 18  1  0  0  0
 18 19  2  0  0  0
 20 21  1  0  0  0
 20 22  2  0  0  0
 24 21  1  0  0  0
 24 27  2  0  0  0
 24 28  1  0  0  0
 25 26  2  0  0  0
 25 27  1  0  0  0
 26 28  1  0  0  0
 33 34  1  0  0  0
 34 35  2  0  0  0
 34 39  1  0  0  0
 35 36  1  0  0  0
 36 37  2  0  0  0
 37 38  1  0  0  0
 38 39  2  0  0  0
 40 41  1  0  0  0
 41 42  2  0  0  0
 41 46  1  0  0  0
 42 43  1  0  0  0
 43 44  2  0  0  0
 44 45  1  0  0  0
 45 46  2  0  0  0
 30 31  1  0  0  0
 30 32  1  0  0  0
 31 32  1  0  0  0
 21 23  1  0  0  0
  9 11  1  0  0  0
 10 12  1  0  0  0
M  END
> <minimizedAffinity>
-10.98296

$$$$
