3DJV_C3P_A_125
  RCSB PDB12061708203D
Coordinates from PDB:3DJV:A:125 Model:1 without hydrogens
 21 22  0  0  0  0            999 V2000
   32.0930   38.1280   12.1670   P 0  0  0  0  0  0  0  0  0  0  0  0
   32.9580   39.3740   12.1560   O 0  0  0  0  0  0  0  0  0  0  0  0
   32.8480   36.8280   12.0200   O 0  0  0  0  0  0  0  0  0  0  0  0
   31.0490   38.1190   13.2580   O 0  0  0  0  0  0  0  0  0  0  0  0
   31.2960   42.2590    8.9820   O 0  0  0  0  0  0  0  0  0  0  0  0
   30.9030   41.5590   10.1730   C 0  0  0  0  0  0  0  0  0  0  0  0
   30.3010   40.1870    9.8600   C 0  0  0  0  0  0  0  0  0  0  0  0
   29.6400   40.1940    8.5890   O 0  0  0  0  0  0  0  0  0  0  0  0
   31.3530   39.0760    9.7820   C 0  0  0  0  0  0  0  0  0  0  0  0
   31.1870   38.1560   10.8380   O 0  0  0  0  0  0  0  0  0  0  0  0
   31.0940   38.3500    8.4750   C 0  0  0  0  0  0  0  0  0  0  0  0
   32.3320   37.8720    7.9670   O 0  0  0  0  0  0  0  0  0  0  0  0
   30.5630   39.5450    7.7110   C 0  0  0  0  0  0  0  0  0  0  0  0
   30.1230   39.5120    6.3130   N 0  0  0  0  0  0  0  0  0  0  0  0
   29.7620   38.3900    5.5080   C 0  0  0  0  0  0  0  0  0  0  0  0
   29.4220   38.6270    4.2200   N 0  0  0  0  0  0  0  0  0  0  0  0
   29.4280   39.8770    3.6870   C 0  0  0  0  0  0  0  0  0  0  0  0
   29.7910   40.9650    4.4590   C 0  0  0  0  0  0  0  0  0  0  0  0
   30.1350   40.7390    5.7740   C 0  0  0  0  0  0  0  0  0  0  0  0
   29.7370   37.2070    5.9270   O 0  0  0  0  0  0  0  0  0  0  0  0
   29.0840   40.0930    2.3980   N 0  0  0  0  0  0  0  0  0  0  0  0
  1  2  2  0  0  0  0
  1  3  1  0  0  0  0
  1  4  1  0  0  0  0
  1 10  1  0  0  0  0
  5  6  1  0  0  0  0
  6  7  1  0  0  0  0
  7  8  1  0  0  0  0
  7  9  1  0  0  0  0
  8 13  1  0  0  0  0
  9 10  1  0  0  0  0
  9 11  1  0  0  0  0
 11 12  1  0  0  0  0
 11 13  1  0  0  0  0
 13 14  1  0  0  0  0
 14 15  1  0  0  0  0
 14 19  1  0  0  0  0
 15 16  1  0  0  0  0
 15 20  2  0  0  0  0
 16 17  2  0  0  0  0
 17 18  1  0  0  0  0
 17 21  1  0  0  0  0
 18 19  2  0  0  0  0
A    1
P
A    2
O1P
A    3
O2P
A    4
O3P
A    5
O5'
A    6
C5'
A    7
C4'
A    8
O4'
A    9
C3'
A   10
O3'
A   11
C2'
A   12
O2'
A   13
C1'
A   14
N1
A   15
C2
A   16
N3
A   17
C4
A   18
C5
A   19
C6
A   20
O2
A   21
N4
M  END
>  <InstanceId>
3DJV_C3P_A_125

>  <ChemCompId>
C3P

>  <PdbId>
3DJV

>  <ChainId>
A

>  <ResidueNumber>
125

>  <InsertionCode>


>  <Model>
1

>  <AltIds>


>  <MissingHeavyAtoms>
0

>  <ObservedFormula>
C9 N3 O8 P

>  <Name>
CYTIDINE-3'-MONOPHOSPHATE

>  <SystematicName>
[(2R,3S,4R,5R)-5-(4-amino-2-oxo-pyrimidin-1-yl)-4-hydroxy-2-(hydroxymethyl)oxolan-3-yl] dihydrogen phosphate

>  <Synonyms>


>  <Type>
NON-POLYMER

>  <Formula>
C9 H14 N3 O8 P

>  <MolecularWeight>
323.197

>  <ModifiedDate>
2011-06-04

>  <Parent>


>  <OneLetterCode>


>  <SubcomponentList>


>  <AmbiguousFlag>
N

>  <InChI>
InChI=1S/C9H14N3O8P/c10-5-1-2-12(9(15)11-5)8-6(14)7(4(3-13)19-8)20-21(16,17)18/h1-2,4,6-8,13-14H,3H2,(H2,10,11,15)(H2,16,17,18)/t4-,6-,7-,8-/m1/s1

>  <InChIKey>
UOOOPKANIPLQPU-XVFCMESISA-N

>  <SMILES>
C1=CN(C(=O)N=C1N)[C@H]2[C@@H]([C@@H]([C@H](O2)CO)OP(=O)(O)O)O

$$$$
