5L9G_MO0_A_401
  RCSB PDB12061718453D
Coordinates from PDB:5L9G:A:401 Model:1 without hydrogens
 21 20  0  0  0  0            999 V2000
   83.6450   27.8430    5.5100   O 0  0  0  0  0  0  0  0  0  0  0  0
   82.4970   28.0970    4.7470   C 0  0  0  0  0  0  0  0  0  0  0  0
   82.5500   27.4800    3.3610   C 0  0  0  0  0  0  0  0  0  0  0  0
   83.1510   28.3590    2.4750   O 0  0  0  0  0  0  0  0  0  0  0  0
   83.1190   26.0830    3.3180   C 0  0  0  0  0  0  0  0  0  0  0  0
   82.4520   25.2340    4.1770   O 0  0  0  0  0  0  0  0  0  0  0  0
   83.2350   25.4640    1.9250   C 0  0  0  0  0  0  0  0  0  0  0  0
   81.9800   25.3290    1.3300   O 0  0  0  0  0  0  0  0  0  0  0  0
   84.0190   24.1830    1.9330   C 0  0  0  0  0  0  0  0  0  0  0  0
   85.3020   24.4300    2.4330   O 0  0  0  0  0  0  0  0  0  0  0  0
   84.0720   23.4560    0.5810   C 0  0  0  0  0  0  0  0  0  0  0  0
   83.6890   22.0520    0.7790   N 0  0  0  0  0  0  0  0  0  0  0  0
   83.9350   21.2150   -0.4210   C 0  0  0  0  0  0  0  0  0  0  0  0
   82.6360   20.9510   -1.1440   C 0  0  0  0  0  0  0  0  0  0  0  0
   81.5980   21.5410   -0.7760   O 0  0  0  0  0  0  0  0  0  0  0  0
   84.6540   19.9240   -0.1090   C 0  0  0  0  0  0  0  0  0  0  0  0
   83.7490   18.8820    0.5130   C 0  0  0  0  0  0  0  0  0  0  0  0
   84.4870   17.8350    1.2710   C 0  0  0  0  0  0  0  0  0  0  0  0
   84.7020   16.6020    0.6410   O 0  0  0  0  0  0  0  0  0  0  0  0
   84.9080   17.9900    2.4290   N 0  0  0  0  0  0  0  0  0  0  0  0
   82.5880   20.1920   -2.1630   O 0  0  0  0  0  0  0  0  0  0  0  0
 21 14  2  0  0  0  0
 14 15  1  0  0  0  0
 14 13  1  0  0  0  0
 13 16  1  0  0  0  0
 13 12  1  0  0  0  0
 16 17  1  0  0  0  0
 17 18  1  0  0  0  0
 11 12  1  0  0  0  0
 11  9  1  0  0  0  0
 20 18  1  0  0  0  0
 18 19  2  0  0  0  0
  8  7  1  0  0  0  0
  7  9  1  0  0  0  0
  7  5  1  0  0  0  0
  9 10  1  0  0  0  0
  4  3  1  0  0  0  0
  5  3  1  0  0  0  0
  5  6  1  0  0  0  0
  3  2  1  0  0  0  0
  2  1  1  0  0  0  0
A    1
OAB
A    2
CAF
A    3
CAG
A    4
OAC
A    5
CAH
A    6
OAM
A    7
CAI
A    8
OAD
A    9
CAJ
A   10
OAE
A   11
CAK
A   12
N
A   13
CA
A   14
C
A   15
O
A   16
CB
A   17
CG
A   18
CD
A   19
OE1
A   20
NE2
A   21
OXT
M  END
>  <InstanceId>
5L9G_MO0_A_401

>  <ChemCompId>
MO0

>  <PdbId>
5L9G

>  <ChainId>
A

>  <ResidueNumber>
401

>  <InsertionCode>


>  <Model>
1

>  <AltIds>


>  <MissingHeavyAtoms>
0

>  <ObservedFormula>
C11 N2 O8

>  <Name>
mannopine

>  <SystematicName>
(2~{S})-5-azanyl-5-oxidanylidene-2-[[(2~{R},3~{R},4~{R},5~{R})-2,3,4,5,6-pentakis(oxidanyl)hexyl]amino]pentanoic acid

>  <Synonyms>


>  <Type>
NON-POLYMER

>  <Formula>
C11 H22 N2 O8

>  <MolecularWeight>
310.301

>  <ModifiedDate>
2016-09-16

>  <Parent>


>  <OneLetterCode>


>  <SubcomponentList>


>  <AmbiguousFlag>
N

>  <InChI>
InChI=1S/C11H22N2O8/c12-8(17)2-1-5(11(20)21)13-3-6(15)9(18)10(19)7(16)4-14/h5-7,9-10,13-16,18-19H,1-4H2,(H2,12,17)(H,20,21)/t5-,6+,7+,9+,10+/m0/s1

>  <InChIKey>
VPRLICVDSGMIKO-SZWOQXJISA-N

>  <SMILES>
C(CC(=O)N)[C@@H](C(=O)O)NC[C@H]([C@H]([C@@H]([C@@H](CO)O)O)O)O

$$$$
