5L9G_MO0_A_401


 30 29  0  0  0  0  0  0  0  0999 V2000
   84.0892   25.3880    2.6090 C   0  0  0  0  0  0  0  0  0  0  0  0
   84.9014   26.3216    3.2615 O   0  0  0  0  0  0  0  0  0  0  0  0
   84.9780   27.1204    2.7165 H   0  0  0  0  0  0  0  0  0  0  0  0
   82.7059   25.9534    2.4591 C   0  0  0  0  0  0  0  0  0  0  0  0
   82.1536   25.7114    1.2006 O   0  0  0  0  0  0  0  0  0  0  0  0
   82.0358   24.7565    1.0775 H   0  0  0  0  0  0  0  0  0  0  0  0
   81.7647   25.4892    3.5707 C   0  0  0  0  0  0  0  0  0  0  0  0
   80.9303   24.4875    3.1192 O   0  0  0  0  0  0  0  0  0  0  0  0
   80.3475   24.8391    2.4281 H   0  0  0  0  0  0  0  0  0  0  0  0
   80.9952   26.5844    4.2676 C   0  0  0  0  0  0  0  0  0  0  0  0
   79.9561   27.1072    3.5153 O   0  0  0  0  0  0  0  0  0  0  0  0
   80.3174   27.5767    2.7473 H   0  0  0  0  0  0  0  0  0  0  0  0
   81.4732   28.9747    4.3497 O   0  0  0  0  0  0  0  0  0  0  0  0
   81.8551   27.7091    4.8154 C   0  0  0  0  0  0  0  0  0  0  0  0
   82.0559   29.6493    4.7320 H   0  0  0  0  0  0  0  0  0  0  0  0
   84.7286   24.9036    1.2991 C   0  0  0  0  0  0  0  0  0  0  0  0
   84.8681   23.4423    1.3483 N   0  0  0  0  0  0  0  0  0  0  0  0
   85.8473   23.2029    1.1924 H   0  0  0  0  0  0  0  0  0  0  0  0
   84.0427   22.7520    0.3269 C   0  0  0  0  0  0  0  0  0  0  0  0
   82.6330   22.5698    0.8364 C   0  0  0  0  0  0  0  0  0  0  0  0
   82.4485   22.2505    2.0301 O   0  0  0  0  0  0  0  0  0  0  0  0
   81.6262   22.7998    0.0947 O   0  0  0  0  0  0  0  0  0  0  0  0
   83.1815   22.0782    2.5877 H   0  0  0  0  0  0  0  0  0  0  0  0
   84.6309   21.4359   -0.1235 C   0  0  0  0  0  0  0  0  0  0  0  0
   83.5777   20.3829   -0.3948 C   0  0  0  0  0  0  0  0  0  0  0  0
   84.0173   19.0040   -0.0471 C   0  0  0  0  0  0  0  0  0  0  0  0
   84.0619   18.0538   -1.0759 O   0  0  0  0  0  0  0  0  0  0  0  0
   84.3319   18.6496    1.1008 N   0  0  0  0  0  0  0  0  0  0  0  0
   84.3085   19.2991    1.8403 H   0  0  0  0  0  0  0  0  0  0  0  0
   84.6047   17.7191    1.2713 H   0  0  0  0  0  0  0  0  0  0  0  0
 22 20  2  0  0  0
 20 21  1  0  0  0
 20 19  1  0  0  0
 19 24  1  0  0  0
 19 17  1  0  0  0
 24 25  1  0  0  0
 25 26  1  0  0  0
 16 17  1  0  0  0
 16  1  1  0  0  0
 28 26  1  0  0  0
 26 27  2  0  0  0
  5  4  1  0  0  0
  4  1  1  0  0  0
  4  7  1  0  0  0
  1  2  1  0  0  0
 11 10  1  0  0  0
  7 10  1  0  0  0
  7  8  1  0  0  0
 10 14  1  0  0  0
 14 13  1  0  0  0
 13 15  1  0  0  0
 11 12  1  0  0  0
  8  9  1  0  0  0
  5  6  1  0  0  0
  2  3  1  0  0  0
 17 18  1  0  0  0
 21 23  1  0  0  0
 28 29  1  0  0  0
 28 30  1  0  0  0
M  END
> <minimizedAffinity>
-9.00882

$$$$
5L9G_MO0_A_401


 30 29  0  0  0  0  0  0  0  0999 V2000
   84.0642   24.4355    1.5479 C   0  0  0  0  0  0  0  0  0  0  0  0
   84.8676   25.5802    1.5847 O   0  0  0  0  0  0  0  0  0  0  0  0
   84.8576   26.0103    0.7153 H   0  0  0  0  0  0  0  0  0  0  0  0
   82.6435   24.8358    1.2706 C   0  0  0  0  0  0  0  0  0  0  0  0
   81.7507   23.7670    1.3596 O   0  0  0  0  0  0  0  0  0  0  0  0
   81.7319   23.4365    2.2714 H   0  0  0  0  0  0  0  0  0  0  0  0
   82.1885   26.0059    2.1430 C   0  0  0  0  0  0  0  0  0  0  0  0
   82.6993   27.1970    1.6697 O   0  0  0  0  0  0  0  0  0  0  0  0
   83.6661   27.1878    1.7473 H   0  0  0  0  0  0  0  0  0  0  0  0
   82.4322   25.8435    3.6234 C   0  0  0  0  0  0  0  0  0  0  0  0
   81.5417   24.9863    4.2487 O   0  0  0  0  0  0  0  0  0  0  0  0
   80.6538   25.3767    4.2356 H   0  0  0  0  0  0  0  0  0  0  0  0
   83.8400   27.5967    4.5686 O   0  0  0  0  0  0  0  0  0  0  0  0
   82.5236   27.1480    4.3943 C   0  0  0  0  0  0  0  0  0  0  0  0
   83.8346   28.4298    5.0654 H   0  0  0  0  0  0  0  0  0  0  0  0
   84.6315   23.3801    0.5869 C   0  0  0  0  0  0  0  0  0  0  0  0
   83.9299   22.1087    0.8066 N   0  0  0  0  0  0  0  0  0  0  0  0
   84.3925   21.6078    1.5651 H   0  0  0  0  0  0  0  0  0  0  0  0
   83.9210   21.2423   -0.3977 C   0  0  0  0  0  0  0  0  0  0  0  0
   82.5019   21.0078   -0.8572 C   0  0  0  0  0  0  0  0  0  0  0  0
   81.6139   21.8319   -0.5515 O   0  0  0  0  0  0  0  0  0  0  0  0
   82.2024   20.0248   -1.6059 O   0  0  0  0  0  0  0  0  0  0  0  0
   81.8209   22.5609   -0.0006 H   0  0  0  0  0  0  0  0  0  0  0  0
   84.6485   19.9343   -0.1953 C   0  0  0  0  0  0  0  0  0  0  0  0
   83.9048   18.9825    0.7173 C   0  0  0  0  0  0  0  0  0  0  0  0
   84.5606   17.6525    0.8447 C   0  0  0  0  0  0  0  0  0  0  0  0
   85.1747   17.3413    2.0652 O   0  0  0  0  0  0  0  0  0  0  0  0
   84.6040   16.8146   -0.0709 N   0  0  0  0  0  0  0  0  0  0  0  0
   84.1799   17.0101   -0.9375 H   0  0  0  0  0  0  0  0  0  0  0  0
   85.0624   15.9548    0.0700 H   0  0  0  0  0  0  0  0  0  0  0  0
 22 20  2  0  0  0
 20 21  1  0  0  0
 20 19  1  0  0  0
 19 24  1  0  0  0
 19 17  1  0  0  0
 24 25  1  0  0  0
 25 26  1  0  0  0
 16 17  1  0  0  0
 16  1  1  0  0  0
 28 26  1  0  0  0
 26 27  2  0  0  0
  5  4  1  0  0  0
  4  1  1  0  0  0
  4  7  1  0  0  0
  1  2  1  0  0  0
 11 10  1  0  0  0
  7 10  1  0  0  0
  7  8  1  0  0  0
 10 14  1  0  0  0
 14 13  1  0  0  0
 13 15  1  0  0  0
 11 12  1  0  0  0
  8  9  1  0  0  0
  5  6  1  0  0  0
  2  3  1  0  0  0
 17 18  1  0  0  0
 21 23  1  0  0  0
 28 29  1  0  0  0
 28 30  1  0  0  0
M  END
> <minimizedAffinity>
-9.00169

$$$$
5L9G_MO0_A_401


 30 29  0  0  0  0  0  0  0  0999 V2000
   82.2110   24.3049    1.9047 C   0  0  0  0  0  0  0  0  0  0  0  0
   81.3191   23.2635    2.1824 O   0  0  0  0  0  0  0  0  0  0  0  0
   81.7596   22.5993    2.7353 H   0  0  0  0  0  0  0  0  0  0  0  0
   82.5949   24.9842    3.1879 C   0  0  0  0  0  0  0  0  0  0  0  0
   83.8733   24.6356    3.6257 O   0  0  0  0  0  0  0  0  0  0  0  0
   84.5309   24.9476    2.9844 H   0  0  0  0  0  0  0  0  0  0  0  0
   82.4352   26.5027    3.1120 C   0  0  0  0  0  0  0  0  0  0  0  0
   81.6770   26.8610    2.0164 O   0  0  0  0  0  0  0  0  0  0  0  0
   82.1478   26.6177    1.2039 H   0  0  0  0  0  0  0  0  0  0  0  0
   83.7182   27.2937    3.1853 C   0  0  0  0  0  0  0  0  0  0  0  0
   84.1869   27.4859    4.4746 O   0  0  0  0  0  0  0  0  0  0  0  0
   83.5727   28.0588    4.9599 H   0  0  0  0  0  0  0  0  0  0  0  0
   82.8690   29.5766    3.0573 O   0  0  0  0  0  0  0  0  0  0  0  0
   83.6861   28.6176    2.4431 C   0  0  0  0  0  0  0  0  0  0  0  0
   82.8885   30.3970    2.5401 H   0  0  0  0  0  0  0  0  0  0  0  0
   83.3965   23.8197    1.0571 C   0  0  0  0  0  0  0  0  0  0  0  0
   83.4685   22.3547    1.1318 N   0  0  0  0  0  0  0  0  0  0  0  0
   84.2569   22.0969    1.7254 H   0  0  0  0  0  0  0  0  0  0  0  0
   83.6480   21.7201   -0.1971 C   0  0  0  0  0  0  0  0  0  0  0  0
   82.3074   21.3227   -0.7671 C   0  0  0  0  0  0  0  0  0  0  0  0
   81.2999   22.0134   -0.5046 O   0  0  0  0  0  0  0  0  0  0  0  0
   82.1924   20.3386   -1.5639 O   0  0  0  0  0  0  0  0  0  0  0  0
   81.3706   22.7415    0.0810 H   0  0  0  0  0  0  0  0  0  0  0  0
   84.5965   20.5451   -0.1724 C   0  0  0  0  0  0  0  0  0  0  0  0
   84.0937   19.4010    0.6821 C   0  0  0  0  0  0  0  0  0  0  0  0
   84.3671   18.0607    0.0953 C   0  0  0  0  0  0  0  0  0  0  0  0
   84.4566   17.9645   -1.2997 O   0  0  0  0  0  0  0  0  0  0  0  0
   84.5059   17.0278    0.7706 N   0  0  0  0  0  0  0  0  0  0  0  0
   84.4472   17.0699    1.7524 H   0  0  0  0  0  0  0  0  0  0  0  0
   84.6747   16.1667    0.3240 H   0  0  0  0  0  0  0  0  0  0  0  0
 22 20  2  0  0  0
 20 21  1  0  0  0
 20 19  1  0  0  0
 19 24  1  0  0  0
 19 17  1  0  0  0
 24 25  1  0  0  0
 25 26  1  0  0  0
 16 17  1  0  0  0
 16  1  1  0  0  0
 28 26  1  0  0  0
 26 27  2  0  0  0
  5  4  1  0  0  0
  4  1  1  0  0  0
  4  7  1  0  0  0
  1  2  1  0  0  0
 11 10  1  0  0  0
  7 10  1  0  0  0
  7  8  1  0  0  0
 10 14  1  0  0  0
 14 13  1  0  0  0
 13 15  1  0  0  0
 11 12  1  0  0  0
  8  9  1  0  0  0
  5  6  1  0  0  0
  2  3  1  0  0  0
 17 18  1  0  0  0
 21 23  1  0  0  0
 28 29  1  0  0  0
 28 30  1  0  0  0
M  END
> <minimizedAffinity>
-8.88996

$$$$
5L9G_MO0_A_401


 30 29  0  0  0  0  0  0  0  0999 V2000
   82.5849   22.2889   -0.1494 C   0  0  0  0  0  0  0  0  0  0  0  0
   81.5257   21.5996   -0.7495 O   0  0  0  0  0  0  0  0  0  0  0  0
   81.1997   20.9163   -0.1431 H   0  0  0  0  0  0  0  0  0  0  0  0
   82.0852   22.9925    1.0798 C   0  0  0  0  0  0  0  0  0  0  0  0
   82.4743   22.3623    2.2624 O   0  0  0  0  0  0  0  0  0  0  0  0
   83.4403   22.3962    2.3442 H   0  0  0  0  0  0  0  0  0  0  0  0
   82.4639   24.4735    1.0960 C   0  0  0  0  0  0  0  0  0  0  0  0
   83.8330   24.6295    1.0262 O   0  0  0  0  0  0  0  0  0  0  0  0
   84.2418   24.2577    1.8233 H   0  0  0  0  0  0  0  0  0  0  0  0
   81.8669   25.2828    2.2211 C   0  0  0  0  0  0  0  0  0  0  0  0
   81.1607   26.3970    1.7985 O   0  0  0  0  0  0  0  0  0  0  0  0
   81.7722   27.0348    1.3983 H   0  0  0  0  0  0  0  0  0  0  0  0
   83.5619   24.5857    3.8305 O   0  0  0  0  0  0  0  0  0  0  0  0
   82.8520   25.6753    3.3074 C   0  0  0  0  0  0  0  0  0  0  0  0
   84.1725   24.8971    4.5168 H   0  0  0  0  0  0  0  0  0  0  0  0
   83.7934   21.3703    0.0852 C   0  0  0  0  0  0  0  0  0  0  0  0
   83.3378   20.1433    0.7515 N   0  0  0  0  0  0  0  0  0  0  0  0
   83.7297   20.1188    1.6929 H   0  0  0  0  0  0  0  0  0  0  0  0
   83.7511   18.9126    0.0335 C   0  0  0  0  0  0  0  0  0  0  0  0
   84.3827   17.9373    0.9978 C   0  0  0  0  0  0  0  0  0  0  0  0
   84.8637   18.3597    2.0707 O   0  0  0  0  0  0  0  0  0  0  0  0
   84.3761   16.6859    0.7729 O   0  0  0  0  0  0  0  0  0  0  0  0
   84.8750   19.2795    2.2492 H   0  0  0  0  0  0  0  0  0  0  0  0
   84.6644   19.1853   -1.1380 C   0  0  0  0  0  0  0  0  0  0  0  0
   84.5929   18.1110   -2.2023 C   0  0  0  0  0  0  0  0  0  0  0  0
   85.8004   17.2419   -2.2466 C   0  0  0  0  0  0  0  0  0  0  0  0
   86.9386   17.7379   -2.8963 O   0  0  0  0  0  0  0  0  0  0  0  0
   85.8487   16.1031   -1.7536 N   0  0  0  0  0  0  0  0  0  0  0  0
   85.0619   15.7328   -1.2921 H   0  0  0  0  0  0  0  0  0  0  0  0
   86.6738   15.5707   -1.8242 H   0  0  0  0  0  0  0  0  0  0  0  0
 22 20  2  0  0  0
 20 21  1  0  0  0
 20 19  1  0  0  0
 19 24  1  0  0  0
 19 17  1  0  0  0
 24 25  1  0  0  0
 25 26  1  0  0  0
 16 17  1  0  0  0
 16  1  1  0  0  0
 28 26  1  0  0  0
 26 27  2  0  0  0
  5  4  1  0  0  0
  4  1  1  0  0  0
  4  7  1  0  0  0
  1  2  1  0  0  0
 11 10  1  0  0  0
  7 10  1  0  0  0
  7  8  1  0  0  0
 10 14  1  0  0  0
 14 13  1  0  0  0
 13 15  1  0  0  0
 11 12  1  0  0  0
  8  9  1  0  0  0
  5  6  1  0  0  0
  2  3  1  0  0  0
 17 18  1  0  0  0
 21 23  1  0  0  0
 28 29  1  0  0  0
 28 30  1  0  0  0
M  END
> <minimizedAffinity>
-8.83938

$$$$
5L9G_MO0_A_401


 30 29  0  0  0  0  0  0  0  0999 V2000
   83.0093   22.7155    0.5172 C   0  0  0  0  0  0  0  0  0  0  0  0
   84.3582   22.8157    0.8741 O   0  0  0  0  0  0  0  0  0  0  0  0
   84.5266   22.2700    1.6582 H   0  0  0  0  0  0  0  0  0  0  0  0
   82.7005   21.2949    0.1400 C   0  0  0  0  0  0  0  0  0  0  0  0
   82.0001   21.1922   -1.0625 O   0  0  0  0  0  0  0  0  0  0  0  0
   82.5553   21.5166   -1.7888 H   0  0  0  0  0  0  0  0  0  0  0  0
   83.9491   20.4130    0.1258 C   0  0  0  0  0  0  0  0  0  0  0  0
   84.8135   20.8042   -0.8758 O   0  0  0  0  0  0  0  0  0  0  0  0
   84.3949   20.6597   -1.7389 H   0  0  0  0  0  0  0  0  0  0  0  0
   83.6920   18.9264    0.0916 C   0  0  0  0  0  0  0  0  0  0  0  0
   84.3560   18.2184    1.0800 O   0  0  0  0  0  0  0  0  0  0  0  0
   85.3118   18.2581    0.9194 H   0  0  0  0  0  0  0  0  0  0  0  0
   83.1408   18.8214   -2.2820 O   0  0  0  0  0  0  0  0  0  0  0  0
   83.9293   18.2762   -1.2595 C   0  0  0  0  0  0  0  0  0  0  0  0
   83.3356   18.3681   -3.1171 H   0  0  0  0  0  0  0  0  0  0  0  0
   82.0947   23.3035    1.6021 C   0  0  0  0  0  0  0  0  0  0  0  0
   82.9190   23.7348    2.7386 N   0  0  0  0  0  0  0  0  0  0  0  0
   82.5057   23.3716    3.5975 H   0  0  0  0  0  0  0  0  0  0  0  0
   83.0192   25.2110    2.8478 C   0  0  0  0  0  0  0  0  0  0  0  0
   84.4458   25.6517    2.6235 C   0  0  0  0  0  0  0  0  0  0  0  0
   84.6920   26.8623    2.4368 O   0  0  0  0  0  0  0  0  0  0  0  0
   85.4113   24.8267    2.6873 O   0  0  0  0  0  0  0  0  0  0  0  0
   83.9900   27.4810    2.3877 H   0  0  0  0  0  0  0  0  0  0  0  0
   82.4845   25.7488    4.1539 C   0  0  0  0  0  0  0  0  0  0  0  0
   81.5232   26.9029    3.9654 C   0  0  0  0  0  0  0  0  0  0  0  0
   82.1166   28.2267    4.2983 C   0  0  0  0  0  0  0  0  0  0  0  0
   81.9115   28.7280    5.5907 O   0  0  0  0  0  0  0  0  0  0  0  0
   82.7682   28.9122    3.4935 N   0  0  0  0  0  0  0  0  0  0  0  0
   82.9256   28.5815    2.5797 H   0  0  0  0  0  0  0  0  0  0  0  0
   83.1272   29.7865    3.7693 H   0  0  0  0  0  0  0  0  0  0  0  0
 22 20  2  0  0  0
 20 21  1  0  0  0
 20 19  1  0  0  0
 19 24  1  0  0  0
 19 17  1  0  0  0
 24 25  1  0  0  0
 25 26  1  0  0  0
 16 17  1  0  0  0
 16  1  1  0  0  0
 28 26  1  0  0  0
 26 27  2  0  0  0
  5  4  1  0  0  0
  4  1  1  0  0  0
  4  7  1  0  0  0
  1  2  1  0  0  0
 11 10  1  0  0  0
  7 10  1  0  0  0
  7  8  1  0  0  0
 10 14  1  0  0  0
 14 13  1  0  0  0
 13 15  1  0  0  0
 11 12  1  0  0  0
  8  9  1  0  0  0
  5  6  1  0  0  0
  2  3  1  0  0  0
 17 18  1  0  0  0
 21 23  1  0  0  0
 28 29  1  0  0  0
 28 30  1  0  0  0
M  END
> <minimizedAffinity>
-8.51657

$$$$
5L9G_MO0_A_401


 30 29  0  0  0  0  0  0  0  0999 V2000
   83.8798   25.7136    2.6365 C   0  0  0  0  0  0  0  0  0  0  0  0
   83.8924   24.8191    3.7121 O   0  0  0  0  0  0  0  0  0  0  0  0
   84.7833   24.7854    4.0942 H   0  0  0  0  0  0  0  0  0  0  0  0
   84.1977   27.0939    3.1360 C   0  0  0  0  0  0  0  0  0  0  0  0
   85.3098   27.6560    2.5078 O   0  0  0  0  0  0  0  0  0  0  0  0
   85.1196   27.7813    1.5650 H   0  0  0  0  0  0  0  0  0  0  0  0
   82.9921   28.0310    3.0610 C   0  0  0  0  0  0  0  0  0  0  0  0
   83.3606   29.2638    2.5631 O   0  0  0  0  0  0  0  0  0  0  0  0
   83.9729   29.6924    3.1815 H   0  0  0  0  0  0  0  0  0  0  0  0
   82.1915   28.1599    4.3336 C   0  0  0  0  0  0  0  0  0  0  0  0
   82.9658   28.3242    5.4704 O   0  0  0  0  0  0  0  0  0  0  0  0
   83.4726   27.5139    5.6363 H   0  0  0  0  0  0  0  0  0  0  0  0
   80.1850   27.0065    3.5638 O   0  0  0  0  0  0  0  0  0  0  0  0
   81.1755   27.0538    4.5544 C   0  0  0  0  0  0  0  0  0  0  0  0
   79.5680   26.2836    3.7577 H   0  0  0  0  0  0  0  0  0  0  0  0
   84.7756   25.2258    1.4882 C   0  0  0  0  0  0  0  0  0  0  0  0
   84.8789   23.7622    1.5524 N   0  0  0  0  0  0  0  0  0  0  0  0
   85.8460   23.4952    1.3688 H   0  0  0  0  0  0  0  0  0  0  0  0
   84.0037   23.0810    0.5670 C   0  0  0  0  0  0  0  0  0  0  0  0
   82.5988   22.9721    1.1096 C   0  0  0  0  0  0  0  0  0  0  0  0
   82.4163   22.4910    2.2481 O   0  0  0  0  0  0  0  0  0  0  0  0
   81.6019   23.4215    0.4608 O   0  0  0  0  0  0  0  0  0  0  0  0
   83.1421   22.1563    2.7371 H   0  0  0  0  0  0  0  0  0  0  0  0
   84.5265   21.7297    0.1406 C   0  0  0  0  0  0  0  0  0  0  0  0
   83.5077   20.9229   -0.6358 C   0  0  0  0  0  0  0  0  0  0  0  0
   83.7887   19.4612   -0.6377 C   0  0  0  0  0  0  0  0  0  0  0  0
   84.4841   18.9284    0.4558 O   0  0  0  0  0  0  0  0  0  0  0  0
   83.4537   18.6960   -1.5567 N   0  0  0  0  0  0  0  0  0  0  0  0
   82.9643   19.0468   -2.3356 H   0  0  0  0  0  0  0  0  0  0  0  0
   83.6776   17.7386   -1.5063 H   0  0  0  0  0  0  0  0  0  0  0  0
 22 20  2  0  0  0
 20 21  1  0  0  0
 20 19  1  0  0  0
 19 24  1  0  0  0
 19 17  1  0  0  0
 24 25  1  0  0  0
 25 26  1  0  0  0
 16 17  1  0  0  0
 16  1  1  0  0  0
 28 26  1  0  0  0
 26 27  2  0  0  0
  5  4  1  0  0  0
  4  1  1  0  0  0
  4  7  1  0  0  0
  1  2  1  0  0  0
 11 10  1  0  0  0
  7 10  1  0  0  0
  7  8  1  0  0  0
 10 14  1  0  0  0
 14 13  1  0  0  0
 13 15  1  0  0  0
 11 12  1  0  0  0
  8  9  1  0  0  0
  5  6  1  0  0  0
  2  3  1  0  0  0
 17 18  1  0  0  0
 21 23  1  0  0  0
 28 29  1  0  0  0
 28 30  1  0  0  0
M  END
> <minimizedAffinity>
-8.45584

$$$$
5L9G_MO0_A_401


 30 29  0  0  0  0  0  0  0  0999 V2000
   82.0026   24.7894    3.1010 C   0  0  0  0  0  0  0  0  0  0  0  0
   83.1656   24.6267    3.8613 O   0  0  0  0  0  0  0  0  0  0  0  0
   83.9409   24.8227    3.3124 H   0  0  0  0  0  0  0  0  0  0  0  0
   81.8876   26.2241    2.6719 C   0  0  0  0  0  0  0  0  0  0  0  0
   80.8493   26.4381    1.7645 O   0  0  0  0  0  0  0  0  0  0  0  0
   80.0004   26.2486    2.1940 H   0  0  0  0  0  0  0  0  0  0  0  0
   81.7841   27.1796    3.8608 C   0  0  0  0  0  0  0  0  0  0  0  0
   80.5244   27.7379    3.9319 O   0  0  0  0  0  0  0  0  0  0  0  0
   80.3719   28.2925    3.1508 H   0  0  0  0  0  0  0  0  0  0  0  0
   82.8650   28.2293    3.9445 C   0  0  0  0  0  0  0  0  0  0  0  0
   82.3988   29.5274    3.8158 O   0  0  0  0  0  0  0  0  0  0  0  0
   82.0611   29.6619    2.9165 H   0  0  0  0  0  0  0  0  0  0  0  0
   85.1731   27.4974    3.6513 O   0  0  0  0  0  0  0  0  0  0  0  0
   84.0367   28.0043    3.0060 C   0  0  0  0  0  0  0  0  0  0  0  0
   85.8849   27.3750    3.0039 H   0  0  0  0  0  0  0  0  0  0  0  0
   81.9328   23.7703    1.9539 C   0  0  0  0  0  0  0  0  0  0  0  0
   82.9354   24.1233    0.9404 N   0  0  0  0  0  0  0  0  0  0  0  0
   82.5561   23.9092    0.0181 H   0  0  0  0  0  0  0  0  0  0  0  0
   84.2104   23.3844    1.1121 C   0  0  0  0  0  0  0  0  0  0  0  0
   85.3464   24.3545    1.3312 C   0  0  0  0  0  0  0  0  0  0  0  0
   86.0291   24.7307    0.3548 O   0  0  0  0  0  0  0  0  0  0  0  0
   85.5817   24.8501    2.4783 O   0  0  0  0  0  0  0  0  0  0  0  0
   85.8662   24.3737   -0.4960 H   0  0  0  0  0  0  0  0  0  0  0  0
   84.5125   22.4450   -0.0313 C   0  0  0  0  0  0  0  0  0  0  0  0
   83.9240   21.0648    0.1699 C   0  0  0  0  0  0  0  0  0  0  0  0
   82.8927   20.7088   -0.8425 C   0  0  0  0  0  0  0  0  0  0  0  0
   81.7123   21.4636   -0.8657 O   0  0  0  0  0  0  0  0  0  0  0  0
   83.0158   19.7765   -1.6537 N   0  0  0  0  0  0  0  0  0  0  0  0
   83.8359   19.2319   -1.6568 H   0  0  0  0  0  0  0  0  0  0  0  0
   82.2932   19.5821   -2.2935 H   0  0  0  0  0  0  0  0  0  0  0  0
 22 20  2  0  0  0
 20 21  1  0  0  0
 20 19  1  0  0  0
 19 24  1  0  0  0
 19 17  1  0  0  0
 24 25  1  0  0  0
 25 26  1  0  0  0
 16 17  1  0  0  0
 16  1  1  0  0  0
 28 26  1  0  0  0
 26 27  2  0  0  0
  5  4  1  0  0  0
  4  1  1  0  0  0
  4  7  1  0  0  0
  1  2  1  0  0  0
 11 10  1  0  0  0
  7 10  1  0  0  0
  7  8  1  0  0  0
 10 14  1  0  0  0
 14 13  1  0  0  0
 13 15  1  0  0  0
 11 12  1  0  0  0
  8  9  1  0  0  0
  5  6  1  0  0  0
  2  3  1  0  0  0
 17 18  1  0  0  0
 21 23  1  0  0  0
 28 29  1  0  0  0
 28 30  1  0  0  0
M  END
> <minimizedAffinity>
-8.42740

$$$$
5L9G_MO0_A_401


 30 29  0  0  0  0  0  0  0  0999 V2000
   81.2543   24.6875    2.6682 C   0  0  0  0  0  0  0  0  0  0  0  0
   80.0899   24.3585    3.3704 O   0  0  0  0  0  0  0  0  0  0  0  0
   80.3213   23.8328    4.1520 H   0  0  0  0  0  0  0  0  0  0  0  0
   82.1292   25.5475    3.5345 C   0  0  0  0  0  0  0  0  0  0  0  0
   83.2635   24.8779    3.9954 O   0  0  0  0  0  0  0  0  0  0  0  0
   83.8289   24.6439    3.2428 H   0  0  0  0  0  0  0  0  0  0  0  0
   82.5066   26.8636    2.8543 C   0  0  0  0  0  0  0  0  0  0  0  0
   83.1433   26.6289    1.6531 O   0  0  0  0  0  0  0  0  0  0  0  0
   83.9877   26.1805    1.8169 H   0  0  0  0  0  0  0  0  0  0  0  0
   83.2750   27.8391    3.7117 C   0  0  0  0  0  0  0  0  0  0  0  0
   84.5495   27.4111    4.0454 O   0  0  0  0  0  0  0  0  0  0  0  0
   84.4886   26.6390    4.6295 H   0  0  0  0  0  0  0  0  0  0  0  0
   81.3230   28.9355    4.6794 O   0  0  0  0  0  0  0  0  0  0  0  0
   82.5400   28.2984    4.9580 C   0  0  0  0  0  0  0  0  0  0  0  0
   80.9014   29.2050    5.5104 H   0  0  0  0  0  0  0  0  0  0  0  0
   81.9436   23.4365    2.1035 C   0  0  0  0  0  0  0  0  0  0  0  0
   82.8705   23.8421    1.0388 N   0  0  0  0  0  0  0  0  0  0  0  0
   82.4707   23.5749    0.1393 H   0  0  0  0  0  0  0  0  0  0  0  0
   84.2069   23.2114    1.1699 C   0  0  0  0  0  0  0  0  0  0  0  0
   85.2702   24.2743    1.3094 C   0  0  0  0  0  0  0  0  0  0  0  0
   85.9340   24.6136    0.3068 O   0  0  0  0  0  0  0  0  0  0  0  0
   85.4596   24.8806    2.4109 O   0  0  0  0  0  0  0  0  0  0  0  0
   85.8044   24.1752   -0.5111 H   0  0  0  0  0  0  0  0  0  0  0  0
   84.5318   22.2646    0.0391 C   0  0  0  0  0  0  0  0  0  0  0  0
   83.3991   21.3099   -0.2728 C   0  0  0  0  0  0  0  0  0  0  0  0
   83.8250   19.8847   -0.3256 C   0  0  0  0  0  0  0  0  0  0  0  0
   83.5989   19.1792   -1.5150 O   0  0  0  0  0  0  0  0  0  0  0  0
   84.3545   19.2876    0.6259 N   0  0  0  0  0  0  0  0  0  0  0  0
   84.5236   19.7619    1.4719 H   0  0  0  0  0  0  0  0  0  0  0  0
   84.6051   18.3400    0.5343 H   0  0  0  0  0  0  0  0  0  0  0  0
 22 20  2  0  0  0
 20 21  1  0  0  0
 20 19  1  0  0  0
 19 24  1  0  0  0
 19 17  1  0  0  0
 24 25  1  0  0  0
 25 26  1  0  0  0
 16 17  1  0  0  0
 16  1  1  0  0  0
 28 26  1  0  0  0
 26 27  2  0  0  0
  5  4  1  0  0  0
  4  1  1  0  0  0
  4  7  1  0  0  0
  1  2  1  0  0  0
 11 10  1  0  0  0
  7 10  1  0  0  0
  7  8  1  0  0  0
 10 14  1  0  0  0
 14 13  1  0  0  0
 13 15  1  0  0  0
 11 12  1  0  0  0
  8  9  1  0  0  0
  5  6  1  0  0  0
  2  3  1  0  0  0
 17 18  1  0  0  0
 21 23  1  0  0  0
 28 29  1  0  0  0
 28 30  1  0  0  0
M  END
> <minimizedAffinity>
-8.37763

$$$$
5L9G_MO0_A_401


 30 29  0  0  0  0  0  0  0  0999 V2000
   83.1122   22.9769    0.4533 C   0  0  0  0  0  0  0  0  0  0  0  0
   84.1552   23.0490    1.3828 O   0  0  0  0  0  0  0  0  0  0  0  0
   83.8516   22.7035    2.2369 H   0  0  0  0  0  0  0  0  0  0  0  0
   82.7379   21.5383    0.2388 C   0  0  0  0  0  0  0  0  0  0  0  0
   81.9405   21.3470   -0.8903 O   0  0  0  0  0  0  0  0  0  0  0  0
   82.4435   21.5837   -1.6852 H   0  0  0  0  0  0  0  0  0  0  0  0
   83.9584   20.6180    0.2119 C   0  0  0  0  0  0  0  0  0  0  0  0
   84.8499   21.0157   -0.7630 O   0  0  0  0  0  0  0  0  0  0  0  0
   84.4404   20.9142   -1.6364 H   0  0  0  0  0  0  0  0  0  0  0  0
   83.6555   19.1424    0.1225 C   0  0  0  0  0  0  0  0  0  0  0  0
   84.2964   18.3780    1.0836 O   0  0  0  0  0  0  0  0  0  0  0  0
   85.2531   18.3940    0.9243 H   0  0  0  0  0  0  0  0  0  0  0  0
   83.0170   19.0593   -2.2301 O   0  0  0  0  0  0  0  0  0  0  0  0
   83.8738   18.5360   -1.2520 C   0  0  0  0  0  0  0  0  0  0  0  0
   83.2027   18.6357   -3.0827 H   0  0  0  0  0  0  0  0  0  0  0  0
   81.9426   23.8912    0.8474 C   0  0  0  0  0  0  0  0  0  0  0  0
   81.8860   23.9889    2.3117 N   0  0  0  0  0  0  0  0  0  0  0  0
   81.0942   23.4389    2.6448 H   0  0  0  0  0  0  0  0  0  0  0  0
   81.7275   25.3849    2.7883 C   0  0  0  0  0  0  0  0  0  0  0  0
   80.3966   25.5477    3.4826 C   0  0  0  0  0  0  0  0  0  0  0  0
   79.8175   24.5409    3.9429 O   0  0  0  0  0  0  0  0  0  0  0  0
   79.8834   26.6959    3.6692 O   0  0  0  0  0  0  0  0  0  0  0  0
   80.1847   23.6887    3.8128 H   0  0  0  0  0  0  0  0  0  0  0  0
   81.8966   26.4107    1.6927 C   0  0  0  0  0  0  0  0  0  0  0  0
   82.8559   27.5199    2.0682 C   0  0  0  0  0  0  0  0  0  0  0  0
   84.1490   27.0235    2.6133 C   0  0  0  0  0  0  0  0  0  0  0  0
   84.8170   26.0205    1.8984 O   0  0  0  0  0  0  0  0  0  0  0  0
   84.6575   27.4385    3.6675 N   0  0  0  0  0  0  0  0  0  0  0  0
   84.2070   28.1428    4.1874 H   0  0  0  0  0  0  0  0  0  0  0  0
   85.5111   27.0632    3.9833 H   0  0  0  0  0  0  0  0  0  0  0  0
 22 20  2  0  0  0
 20 21  1  0  0  0
 20 19  1  0  0  0
 19 24  1  0  0  0
 19 17  1  0  0  0
 24 25  1  0  0  0
 25 26  1  0  0  0
 16 17  1  0  0  0
 16  1  1  0  0  0
 28 26  1  0  0  0
 26 27  2  0  0  0
  5  4  1  0  0  0
  4  1  1  0  0  0
  4  7  1  0  0  0
  1  2  1  0  0  0
 11 10  1  0  0  0
  7 10  1  0  0  0
  7  8  1  0  0  0
 10 14  1  0  0  0
 14 13  1  0  0  0
 13 15  1  0  0  0
 11 12  1  0  0  0
  8  9  1  0  0  0
  5  6  1  0  0  0
  2  3  1  0  0  0
 17 18  1  0  0  0
 21 23  1  0  0  0
 28 29  1  0  0  0
 28 30  1  0  0  0
M  END
> <minimizedAffinity>
-7.91246

$$$$
5L9G_MO0_A_401


 30 29  0  0  0  0  0  0  0  0999 V2000
   82.5945   21.2364   -0.1421 C   0  0  0  0  0  0  0  0  0  0  0  0
   81.7286   20.8464   -1.1694 O   0  0  0  0  0  0  0  0  0  0  0  0
   81.9304   21.3525   -1.9719 H   0  0  0  0  0  0  0  0  0  0  0  0
   84.0064   20.9025   -0.5303 C   0  0  0  0  0  0  0  0  0  0  0  0
   84.9315   21.2108    0.4679 O   0  0  0  0  0  0  0  0  0  0  0  0
   84.7616   20.6593    1.2476 H   0  0  0  0  0  0  0  0  0  0  0  0
   84.1554   19.4517   -0.9886 C   0  0  0  0  0  0  0  0  0  0  0  0
   83.3665   19.2037   -2.0930 O   0  0  0  0  0  0  0  0  0  0  0  0
   82.4319   19.2949   -1.8499 H   0  0  0  0  0  0  0  0  0  0  0  0
   83.9564   18.4095    0.0844 C   0  0  0  0  0  0  0  0  0  0  0  0
   84.3919   18.8042    1.3387 O   0  0  0  0  0  0  0  0  0  0  0  0
   85.3573   18.8988    1.3308 H   0  0  0  0  0  0  0  0  0  0  0  0
   84.9504   16.9325   -1.5827 O   0  0  0  0  0  0  0  0  0  0  0  0
   84.5207   17.0412   -0.2530 C   0  0  0  0  0  0  0  0  0  0  0  0
   85.2991   16.0407   -1.7380 H   0  0  0  0  0  0  0  0  0  0  0  0
   82.3697   22.7024    0.2575 C   0  0  0  0  0  0  0  0  0  0  0  0
   82.9719   22.9350    1.5767 N   0  0  0  0  0  0  0  0  0  0  0  0
   82.2842   22.7052    2.2941 H   0  0  0  0  0  0  0  0  0  0  0  0
   83.4070   24.3402    1.7696 C   0  0  0  0  0  0  0  0  0  0  0  0
   84.9100   24.4367    1.6627 C   0  0  0  0  0  0  0  0  0  0  0  0
   85.5775   24.7563    2.6694 O   0  0  0  0  0  0  0  0  0  0  0  0
   85.5180   24.1342    0.5877 O   0  0  0  0  0  0  0  0  0  0  0  0
   85.1422   24.9815    3.4680 H   0  0  0  0  0  0  0  0  0  0  0  0
   82.9156   24.9430    3.0642 C   0  0  0  0  0  0  0  0  0  0  0  0
   82.3675   26.3434    2.8905 C   0  0  0  0  0  0  0  0  0  0  0  0
   80.9791   26.3723    2.3548 C   0  0  0  0  0  0  0  0  0  0  0  0
   79.9268   26.1630    3.2560 O   0  0  0  0  0  0  0  0  0  0  0  0
   80.7058   26.5577    1.1576 N   0  0  0  0  0  0  0  0  0  0  0  0
   81.4279   26.7070    0.5052 H   0  0  0  0  0  0  0  0  0  0  0  0
   79.7671   26.5552    0.8609 H   0  0  0  0  0  0  0  0  0  0  0  0
 22 20  2  0  0  0
 20 21  1  0  0  0
 20 19  1  0  0  0
 19 24  1  0  0  0
 19 17  1  0  0  0
 24 25  1  0  0  0
 25 26  1  0  0  0
 16 17  1  0  0  0
 16  1  1  0  0  0
 28 26  1  0  0  0
 26 27  2  0  0  0
  5  4  1  0  0  0
  4  1  1  0  0  0
  4  7  1  0  0  0
  1  2  1  0  0  0
 11 10  1  0  0  0
  7 10  1  0  0  0
  7  8  1  0  0  0
 10 14  1  0  0  0
 14 13  1  0  0  0
 13 15  1  0  0  0
 11 12  1  0  0  0
  8  9  1  0  0  0
  5  6  1  0  0  0
  2  3  1  0  0  0
 17 18  1  0  0  0
 21 23  1  0  0  0
 28 29  1  0  0  0
 28 30  1  0  0  0
M  END
> <minimizedAffinity>
-7.88745

$$$$
