3GSM_VPU_A_341


 23 23  0  0  0  0  0  0  0  0999 V2000
   -3.6737   16.1593   12.4300 C   0  0  0  0  0  0  0  0  0  0  0  0
   -3.1885   16.2738   10.9743 C   0  0  0  0  0  0  0  0  0  0  0  0
   -1.8516   16.8007   10.8510 O   0  0  0  0  0  0  0  0  0  0  0  0
   -3.2623   14.8648   10.3752 C   0  0  0  0  0  0  0  0  0  0  0  0
   -2.5714   14.8095    9.1135 O   0  0  0  0  0  0  0  0  0  0  0  0
   -4.7167   14.4000   10.2007 C   0  0  0  0  0  0  0  0  0  0  0  0
   -5.5514   14.6610   11.3472 O   0  0  0  0  0  0  0  0  0  0  0  0
   -5.0563   15.5275   12.4240 C   0  0  0  0  0  0  0  0  0  0  0  0
   -5.8077   15.7350   13.4210 N   0  0  0  0  0  0  0  0  0  0  0  0
   -1.2288   16.2119   11.3052 H   0  0  0  0  0  0  0  0  0  0  0  0
   -3.0006   15.4091    8.4832 H   0  0  0  0  0  0  0  0  0  0  0  0
   -5.5006   16.3121   14.1572 H   0  0  0  0  0  0  0  0  0  0  0  0
   -2.5589   17.8783   13.8195 C   0  0  0  0  0  0  0  0  0  0  0  0
   -1.5512   17.1986   13.9792 O   0  0  0  0  0  0  0  0  0  0  0  0
   -3.6199   17.4744   13.0929 N   0  0  0  0  0  0  0  0  0  0  0  0
   -4.3892   18.0819   13.0013 H   0  0  0  0  0  0  0  0  0  0  0  0
   -2.6352   19.2508   14.4648 C   0  0  0  0  0  0  0  0  0  0  0  0
   -3.7207   20.0929   13.7846 C   0  0  0  0  0  0  0  0  0  0  0  0
   -2.3090   20.8133   11.7919 C   0  0  0  0  0  0  0  0  0  0  0  0
   -3.1332   21.2635   13.0105 C   0  0  0  0  0  0  0  0  0  0  0  0
   -4.7532   12.9106    9.8986 C   0  0  0  0  0  0  0  0  0  0  0  0
   -4.3133   12.1026   10.7055 O   0  0  0  0  0  0  0  0  0  0  0  0
   -3.3541   12.2196   10.7901 H   0  0  0  0  0  0  0  0  0  0  0  0
 19 20  1  0  0  0
 20 18  1  0  0  0
 18 17  1  0  0  0
 17 13  1  0  0  0
 13 14  2  0  0  0
 13 15  1  0  0  0
 15  1  1  0  0  0
  1  2  1  0  0  0
  1  8  1  0  0  0
  2  3  1  0  0  0
  2  4  1  0  0  0
  4  5  1  0  0  0
  4  6  1  0  0  0
  6 21  1  0  0  0
  6  7  1  0  0  0
 21 22  1  0  0  0
  7  8  1  0  0  0
  8  9  2  0  0  0
 15 16  1  0  0  0
  3 10  1  0  0  0
  5 11  1  0  0  0
 22 23  1  0  0  0
  9 12  1  0  0  0
M  END
> <minimizedAffinity>
-6.20196

$$$$
3GSM_VPU_A_341


 23 23  0  0  0  0  0  0  0  0999 V2000
   -2.4251   17.8140   12.2780 C   0  0  0  0  0  0  0  0  0  0  0  0
   -2.0230   17.6955   13.7584 C   0  0  0  0  0  0  0  0  0  0  0  0
   -0.6020   17.8016   13.9811 O   0  0  0  0  0  0  0  0  0  0  0  0
   -2.7631   18.8113   14.5048 C   0  0  0  0  0  0  0  0  0  0  0  0
   -2.2446   18.9645   15.8390 O   0  0  0  0  0  0  0  0  0  0  0  0
   -4.2770   18.5511   14.5540 C   0  0  0  0  0  0  0  0  0  0  0  0
   -4.8360   18.1344   13.2919 O   0  0  0  0  0  0  0  0  0  0  0  0
   -3.9417   17.7598   12.1895 C   0  0  0  0  0  0  0  0  0  0  0  0
   -4.4595   17.4034   11.0911 N   0  0  0  0  0  0  0  0  0  0  0  0
   -0.2910   18.6690   13.6781 H   0  0  0  0  0  0  0  0  0  0  0  0
   -2.3884   18.1451   16.3378 H   0  0  0  0  0  0  0  0  0  0  0  0
   -3.8829   17.1470   10.3354 H   0  0  0  0  0  0  0  0  0  0  0  0
   -0.5580   17.0001   10.8710 C   0  0  0  0  0  0  0  0  0  0  0  0
    0.0534   18.0602   10.9433 O   0  0  0  0  0  0  0  0  0  0  0  0
   -1.7420   16.7826   11.4774 N   0  0  0  0  0  0  0  0  0  0  0  0
   -2.1671   15.8997   11.3818 H   0  0  0  0  0  0  0  0  0  0  0  0
    0.0330   15.8592   10.0616 C   0  0  0  0  0  0  0  0  0  0  0  0
   -0.7595   15.6689    8.7632 C   0  0  0  0  0  0  0  0  0  0  0  0
   -1.4437   17.6423    7.3071 C   0  0  0  0  0  0  0  0  0  0  0  0
   -0.3294   16.6505    7.6832 C   0  0  0  0  0  0  0  0  0  0  0  0
   -5.0039   19.8016   15.0216 C   0  0  0  0  0  0  0  0  0  0  0  0
   -4.8669   20.2071   16.1681 O   0  0  0  0  0  0  0  0  0  0  0  0
   -5.2505   19.5653   16.7860 H   0  0  0  0  0  0  0  0  0  0  0  0
 19 20  1  0  0  0
 20 18  1  0  0  0
 18 17  1  0  0  0
 17 13  1  0  0  0
 13 14  2  0  0  0
 13 15  1  0  0  0
 15  1  1  0  0  0
  1  2  1  0  0  0
  1  8  1  0  0  0
  2  3  1  0  0  0
  2  4  1  0  0  0
  4  5  1  0  0  0
  4  6  1  0  0  0
  6 21  1  0  0  0
  6  7  1  0  0  0
 21 22  1  0  0  0
  7  8  1  0  0  0
  8  9  2  0  0  0
 15 16  1  0  0  0
  3 10  1  0  0  0
  5 11  1  0  0  0
 22 23  1  0  0  0
  9 12  1  0  0  0
M  END
> <minimizedAffinity>
-6.16112

$$$$
3GSM_VPU_A_341


 23 23  0  0  0  0  0  0  0  0999 V2000
   -2.8757   19.6724   13.2007 C   0  0  0  0  0  0  0  0  0  0  0  0
   -4.1539   18.8461   13.4261 C   0  0  0  0  0  0  0  0  0  0  0  0
   -3.8986   17.4896   13.8441 O   0  0  0  0  0  0  0  0  0  0  0  0
   -4.9724   19.5855   14.4905 C   0  0  0  0  0  0  0  0  0  0  0  0
   -6.0465   18.7584   14.9748 O   0  0  0  0  0  0  0  0  0  0  0  0
   -5.5301   20.9132   13.9537 C   0  0  0  0  0  0  0  0  0  0  0  0
   -4.5653   21.6942   13.2200 O   0  0  0  0  0  0  0  0  0  0  0  0
   -3.2824   21.0914   12.8378 C   0  0  0  0  0  0  0  0  0  0  0  0
   -2.4520   21.8015   12.1992 N   0  0  0  0  0  0  0  0  0  0  0  0
   -3.4203   17.4959   14.6879 H   0  0  0  0  0  0  0  0  0  0  0  0
   -6.6505   18.5524   14.2443 H   0  0  0  0  0  0  0  0  0  0  0  0
   -1.5841   21.4223   11.9305 H   0  0  0  0  0  0  0  0  0  0  0  0
   -1.0269   18.1682   12.5315 C   0  0  0  0  0  0  0  0  0  0  0  0
   -0.7694   17.8526   13.6878 O   0  0  0  0  0  0  0  0  0  0  0  0
   -2.0153   19.0215   12.1969 N   0  0  0  0  0  0  0  0  0  0  0  0
   -2.1684   19.2176   11.2444 H   0  0  0  0  0  0  0  0  0  0  0  0
   -0.2016   17.5770   11.4022 C   0  0  0  0  0  0  0  0  0  0  0  0
   -1.1100   16.8201   10.4265 C   0  0  0  0  0  0  0  0  0  0  0  0
    0.4145   14.8864    9.7794 C   0  0  0  0  0  0  0  0  0  0  0  0
   -0.3193   16.1545    9.3101 C   0  0  0  0  0  0  0  0  0  0  0  0
   -6.0673   21.7527   15.1015 C   0  0  0  0  0  0  0  0  0  0  0  0
   -6.0355   21.3283   16.2489 O   0  0  0  0  0  0  0  0  0  0  0  0
   -6.6268   20.5633   16.3272 H   0  0  0  0  0  0  0  0  0  0  0  0
 19 20  1  0  0  0
 20 18  1  0  0  0
 18 17  1  0  0  0
 17 13  1  0  0  0
 13 14  2  0  0  0
 13 15  1  0  0  0
 15  1  1  0  0  0
  1  2  1  0  0  0
  1  8  1  0  0  0
  2  3  1  0  0  0
  2  4  1  0  0  0
  4  5  1  0  0  0
  4  6  1  0  0  0
  6 21  1  0  0  0
  6  7  1  0  0  0
 21 22  1  0  0  0
  7  8  1  0  0  0
  8  9  2  0  0  0
 15 16  1  0  0  0
  3 10  1  0  0  0
  5 11  1  0  0  0
 22 23  1  0  0  0
  9 12  1  0  0  0
M  END
> <minimizedAffinity>
-5.97768

$$$$
3GSM_VPU_A_341


 23 23  0  0  0  0  0  0  0  0999 V2000
   -2.6814   16.0830   12.3669 C   0  0  0  0  0  0  0  0  0  0  0  0
   -4.0713   16.1740   11.7132 C   0  0  0  0  0  0  0  0  0  0  0  0
   -4.3539   15.0907   10.8039 O   0  0  0  0  0  0  0  0  0  0  0  0
   -5.0933   16.1898   12.8556 C   0  0  0  0  0  0  0  0  0  0  0  0
   -6.4268   15.9919   12.3508 O   0  0  0  0  0  0  0  0  0  0  0  0
   -5.0225   17.4976   13.6597 C   0  0  0  0  0  0  0  0  0  0  0  0
   -3.6789   17.9064   13.9866 O   0  0  0  0  0  0  0  0  0  0  0  0
   -2.5397   17.2343   13.3495 C   0  0  0  0  0  0  0  0  0  0  0  0
   -1.3714   17.6095   13.6591 N   0  0  0  0  0  0  0  0  0  0  0  0
   -4.3288   14.2492   11.2857 H   0  0  0  0  0  0  0  0  0  0  0  0
   -6.6576   16.7202   11.7531 H   0  0  0  0  0  0  0  0  0  0  0  0
   -0.5897   17.1758   13.2468 H   0  0  0  0  0  0  0  0  0  0  0  0
   -1.1314   14.8916   10.8482 C   0  0  0  0  0  0  0  0  0  0  0  0
   -1.5134   13.7845   11.2103 O   0  0  0  0  0  0  0  0  0  0  0  0
   -1.6310   16.0455   11.3340 N   0  0  0  0  0  0  0  0  0  0  0  0
   -1.2803   16.8966   10.9851 H   0  0  0  0  0  0  0  0  0  0  0  0
   -0.0399   14.9902    9.7970 C   0  0  0  0  0  0  0  0  0  0  0  0
   -0.1826   16.2985    9.0108 C   0  0  0  0  0  0  0  0  0  0  0  0
   -2.3539   16.6204    7.7207 C   0  0  0  0  0  0  0  0  0  0  0  0
   -0.9087   16.0939    7.6896 C   0  0  0  0  0  0  0  0  0  0  0  0
   -5.8182   17.3592   14.9475 C   0  0  0  0  0  0  0  0  0  0  0  0
   -6.3692   16.3026   15.2261 O   0  0  0  0  0  0  0  0  0  0  0  0
   -7.0781   16.1293   14.5871 H   0  0  0  0  0  0  0  0  0  0  0  0
 19 20  1  0  0  0
 20 18  1  0  0  0
 18 17  1  0  0  0
 17 13  1  0  0  0
 13 14  2  0  0  0
 13 15  1  0  0  0
 15  1  1  0  0  0
  1  2  1  0  0  0
  1  8  1  0  0  0
  2  3  1  0  0  0
  2  4  1  0  0  0
  4  5  1  0  0  0
  4  6  1  0  0  0
  6 21  1  0  0  0
  6  7  1  0  0  0
 21 22  1  0  0  0
  7  8  1  0  0  0
  8  9  2  0  0  0
 15 16  1  0  0  0
  3 10  1  0  0  0
  5 11  1  0  0  0
 22 23  1  0  0  0
  9 12  1  0  0  0
M  END
> <minimizedAffinity>
-5.77317

$$$$
3GSM_VPU_A_341


 23 23  0  0  0  0  0  0  0  0999 V2000
   -4.0608   16.6777   12.4592 C   0  0  0  0  0  0  0  0  0  0  0  0
   -5.4047   16.7213   13.2073 C   0  0  0  0  0  0  0  0  0  0  0  0
   -5.9330   15.4167   13.5222 O   0  0  0  0  0  0  0  0  0  0  0  0
   -5.1659   17.5227   14.4920 C   0  0  0  0  0  0  0  0  0  0  0  0
   -6.2799   17.3864   15.3935 O   0  0  0  0  0  0  0  0  0  0  0  0
   -4.9087   19.0080   14.1924 C   0  0  0  0  0  0  0  0  0  0  0  0
   -3.9837   19.2302   13.1087 O   0  0  0  0  0  0  0  0  0  0  0  0
   -3.5820   18.1059   12.2545 C   0  0  0  0  0  0  0  0  0  0  0  0
   -2.7646   18.3284   11.3143 N   0  0  0  0  0  0  0  0  0  0  0  0
   -5.3103   14.9461   14.0981 H   0  0  0  0  0  0  0  0  0  0  0  0
   -7.0784   17.7475   14.9777 H   0  0  0  0  0  0  0  0  0  0  0  0
   -2.4784   17.5924   10.7263 H   0  0  0  0  0  0  0  0  0  0  0  0
   -3.9574   14.5814   11.1465 C   0  0  0  0  0  0  0  0  0  0  0  0
   -3.6263   13.9068   12.1150 O   0  0  0  0  0  0  0  0  0  0  0  0
   -4.1945   15.9068   11.2104 N   0  0  0  0  0  0  0  0  0  0  0  0
   -4.4677   16.3784   10.3906 H   0  0  0  0  0  0  0  0  0  0  0  0
   -4.1155   13.9074    9.7949 C   0  0  0  0  0  0  0  0  0  0  0  0
   -5.2994   12.9340    9.8272 C   0  0  0  0  0  0  0  0  0  0  0  0
   -7.2629   13.5601    8.3322 C   0  0  0  0  0  0  0  0  0  0  0  0
   -6.6349   13.6566    9.7333 C   0  0  0  0  0  0  0  0  0  0  0  0
   -4.3810   19.7048   15.4361 C   0  0  0  0  0  0  0  0  0  0  0  0
   -5.1371   20.3377   16.1609 O   0  0  0  0  0  0  0  0  0  0  0  0
   -5.4729   21.1111   15.6813 H   0  0  0  0  0  0  0  0  0  0  0  0
 19 20  1  0  0  0
 20 18  1  0  0  0
 18 17  1  0  0  0
 17 13  1  0  0  0
 13 14  2  0  0  0
 13 15  1  0  0  0
 15  1  1  0  0  0
  1  2  1  0  0  0
  1  8  1  0  0  0
  2  3  1  0  0  0
  2  4  1  0  0  0
  4  5  1  0  0  0
  4  6  1  0  0  0
  6 21  1  0  0  0
  6  7  1  0  0  0
 21 22  1  0  0  0
  7  8  1  0  0  0
  8  9  2  0  0  0
 15 16  1  0  0  0
  3 10  1  0  0  0
  5 11  1  0  0  0
 22 23  1  0  0  0
  9 12  1  0  0  0
M  END
> <minimizedAffinity>
-5.68511

$$$$
3GSM_VPU_A_341


 23 23  0  0  0  0  0  0  0  0999 V2000
   -3.5210   16.4074   12.0111 C   0  0  0  0  0  0  0  0  0  0  0  0
   -2.5763   15.2330   12.3211 C   0  0  0  0  0  0  0  0  0  0  0  0
   -3.2596   14.0454   12.7712 O   0  0  0  0  0  0  0  0  0  0  0  0
   -1.7990   14.9432   11.0321 C   0  0  0  0  0  0  0  0  0  0  0  0
   -1.0951   13.6913   11.1306 O   0  0  0  0  0  0  0  0  0  0  0  0
   -0.8157   16.0761   10.6978 C   0  0  0  0  0  0  0  0  0  0  0  0
   -1.3829   17.3952   10.8297 O   0  0  0  0  0  0  0  0  0  0  0  0
   -2.6878   17.5631   11.4810 C   0  0  0  0  0  0  0  0  0  0  0  0
   -3.1645   18.7314   11.5782 N   0  0  0  0  0  0  0  0  0  0  0  0
   -3.8651   13.7385   12.0783 H   0  0  0  0  0  0  0  0  0  0  0  0
   -0.4453   13.7414   11.8491 H   0  0  0  0  0  0  0  0  0  0  0  0
   -4.0377   18.8724   12.0104 H   0  0  0  0  0  0  0  0  0  0  0  0
   -5.5701   16.2660   13.3929 C   0  0  0  0  0  0  0  0  0  0  0  0
   -6.1304   15.5046   12.6123 O   0  0  0  0  0  0  0  0  0  0  0  0
   -4.3252   16.7451   13.1988 N   0  0  0  0  0  0  0  0  0  0  0  0
   -3.9380   17.3442   13.8773 H   0  0  0  0  0  0  0  0  0  0  0  0
   -6.2992   16.7034   14.6511 C   0  0  0  0  0  0  0  0  0  0  0  0
   -7.7799   16.9529   14.3418 C   0  0  0  0  0  0  0  0  0  0  0  0
   -7.0756   19.3996   14.3368 C   0  0  0  0  0  0  0  0  0  0  0  0
   -8.0136   18.3330   13.7457 C   0  0  0  0  0  0  0  0  0  0  0  0
   -0.2927   15.9084    9.2804 C   0  0  0  0  0  0  0  0  0  0  0  0
   -0.8646   15.1682    8.4913 O   0  0  0  0  0  0  0  0  0  0  0  0
   -0.7864   14.2501    8.7944 H   0  0  0  0  0  0  0  0  0  0  0  0
 19 20  1  0  0  0
 20 18  1  0  0  0
 18 17  1  0  0  0
 17 13  1  0  0  0
 13 14  2  0  0  0
 13 15  1  0  0  0
 15  1  1  0  0  0
  1  2  1  0  0  0
  1  8  1  0  0  0
  2  3  1  0  0  0
  2  4  1  0  0  0
  4  5  1  0  0  0
  4  6  1  0  0  0
  6 21  1  0  0  0
  6  7  1  0  0  0
 21 22  1  0  0  0
  7  8  1  0  0  0
  8  9  2  0  0  0
 15 16  1  0  0  0
  3 10  1  0  0  0
  5 11  1  0  0  0
 22 23  1  0  0  0
  9 12  1  0  0  0
M  END
> <minimizedAffinity>
-5.60587

$$$$
3GSM_VPU_A_341


 23 23  0  0  0  0  0  0  0  0999 V2000
   -3.9109   15.9869   11.1736 C   0  0  0  0  0  0  0  0  0  0  0  0
   -4.2893   16.4588    9.7587 C   0  0  0  0  0  0  0  0  0  0  0  0
   -3.1748   16.9810    9.0068 O   0  0  0  0  0  0  0  0  0  0  0  0
   -4.8954   15.2482    9.0398 C   0  0  0  0  0  0  0  0  0  0  0  0
   -5.0247   15.5040    7.6291 O   0  0  0  0  0  0  0  0  0  0  0  0
   -6.2597   14.8629    9.6332 C   0  0  0  0  0  0  0  0  0  0  0  0
   -6.2799   14.8374   11.0748 O   0  0  0  0  0  0  0  0  0  0  0  0
   -5.1500   15.3965   11.8271 C   0  0  0  0  0  0  0  0  0  0  0  0
   -5.1915   15.3558   13.0913 N   0  0  0  0  0  0  0  0  0  0  0  0
   -2.5051   16.2879    8.8979 H   0  0  0  0  0  0  0  0  0  0  0  0
   -5.6296   16.2493    7.4898 H   0  0  0  0  0  0  0  0  0  0  0  0
   -4.4472   15.7236   13.6203 H   0  0  0  0  0  0  0  0  0  0  0  0
   -1.9694   17.2957   11.9771 C   0  0  0  0  0  0  0  0  0  0  0  0
   -1.1593   16.5964   11.3792 O   0  0  0  0  0  0  0  0  0  0  0  0
   -3.3010   17.0908   11.9358 N   0  0  0  0  0  0  0  0  0  0  0  0
   -3.8893   17.7027   12.4344 H   0  0  0  0  0  0  0  0  0  0  0  0
   -1.4668   18.4598   12.8128 C   0  0  0  0  0  0  0  0  0  0  0  0
   -2.6232   19.0730   13.6109 C   0  0  0  0  0  0  0  0  0  0  0  0
   -3.8203   18.4787   15.7780 C   0  0  0  0  0  0  0  0  0  0  0  0
   -2.4806   18.8236   15.1050 C   0  0  0  0  0  0  0  0  0  0  0  0
   -6.6852   13.4990    9.1141 C   0  0  0  0  0  0  0  0  0  0  0  0
   -6.8599   13.3174    7.9165 O   0  0  0  0  0  0  0  0  0  0  0  0
   -7.6201   13.8405    7.6177 H   0  0  0  0  0  0  0  0  0  0  0  0
 19 20  1  0  0  0
 20 18  1  0  0  0
 18 17  1  0  0  0
 17 13  1  0  0  0
 13 14  2  0  0  0
 13 15  1  0  0  0
 15  1  1  0  0  0
  1  2  1  0  0  0
  1  8  1  0  0  0
  2  3  1  0  0  0
  2  4  1  0  0  0
  4  5  1  0  0  0
  4  6  1  0  0  0
  6 21  1  0  0  0
  6  7  1  0  0  0
 21 22  1  0  0  0
  7  8  1  0  0  0
  8  9  2  0  0  0
 15 16  1  0  0  0
  3 10  1  0  0  0
  5 11  1  0  0  0
 22 23  1  0  0  0
  9 12  1  0  0  0
M  END
> <minimizedAffinity>
-5.48510

$$$$
3GSM_VPU_A_341


 23 23  0  0  0  0  0  0  0  0999 V2000
   -3.0395   17.0893   11.6597 C   0  0  0  0  0  0  0  0  0  0  0  0
   -4.4670   16.9959   12.2264 C   0  0  0  0  0  0  0  0  0  0  0  0
   -5.1466   15.7716   11.8808 O   0  0  0  0  0  0  0  0  0  0  0  0
   -4.3440   17.1245   13.7489 C   0  0  0  0  0  0  0  0  0  0  0  0
   -5.5823   16.7723   14.3929 O   0  0  0  0  0  0  0  0  0  0  0  0
   -3.9180   18.5416   14.1641 C   0  0  0  0  0  0  0  0  0  0  0  0
   -2.8327   19.0753   13.3790 O   0  0  0  0  0  0  0  0  0  0  0  0
   -2.4135   18.3834   12.1539 C   0  0  0  0  0  0  0  0  0  0  0  0
   -1.4546   18.8709   11.4873 N   0  0  0  0  0  0  0  0  0  0  0  0
   -4.6555   15.0166   12.2408 H   0  0  0  0  0  0  0  0  0  0  0  0
   -6.2790   17.3857   14.1114 H   0  0  0  0  0  0  0  0  0  0  0  0
   -1.1532   18.4271   10.6618 H   0  0  0  0  0  0  0  0  0  0  0  0
   -2.7041   15.8222    9.5596 C   0  0  0  0  0  0  0  0  0  0  0  0
   -2.3464   14.8064   10.1453 O   0  0  0  0  0  0  0  0  0  0  0  0
   -3.0613   16.9577   10.1921 N   0  0  0  0  0  0  0  0  0  0  0  0
   -3.3481   17.7294    9.6524 H   0  0  0  0  0  0  0  0  0  0  0  0
   -2.7554   15.8216    8.0419 C   0  0  0  0  0  0  0  0  0  0  0  0
   -1.8080   16.8892    7.4826 C   0  0  0  0  0  0  0  0  0  0  0  0
    0.3905   17.3675    8.6744 C   0  0  0  0  0  0  0  0  0  0  0  0
   -0.3470   16.4961    7.6431 C   0  0  0  0  0  0  0  0  0  0  0  0
   -3.5134   18.5538   15.6294 C   0  0  0  0  0  0  0  0  0  0  0  0
   -2.3316   18.5546   15.9470 O   0  0  0  0  0  0  0  0  0  0  0  0
   -1.9248   17.7150   15.6815 H   0  0  0  0  0  0  0  0  0  0  0  0
 19 20  1  0  0  0
 20 18  1  0  0  0
 18 17  1  0  0  0
 17 13  1  0  0  0
 13 14  2  0  0  0
 13 15  1  0  0  0
 15  1  1  0  0  0
  1  2  1  0  0  0
  1  8  1  0  0  0
  2  3  1  0  0  0
  2  4  1  0  0  0
  4  5  1  0  0  0
  4  6  1  0  0  0
  6 21  1  0  0  0
  6  7  1  0  0  0
 21 22  1  0  0  0
  7  8  1  0  0  0
  8  9  2  0  0  0
 15 16  1  0  0  0
  3 10  1  0  0  0
  5 11  1  0  0  0
 22 23  1  0  0  0
  9 12  1  0  0  0
M  END
> <minimizedAffinity>
-5.36283

$$$$
3GSM_VPU_A_341


 23 23  0  0  0  0  0  0  0  0999 V2000
   -2.8637   17.7515   12.0847 C   0  0  0  0  0  0  0  0  0  0  0  0
   -2.4196   16.2955   12.3093 C   0  0  0  0  0  0  0  0  0  0  0  0
   -3.4761   15.4360   12.7835 O   0  0  0  0  0  0  0  0  0  0  0  0
   -1.8837   15.7880   10.9658 C   0  0  0  0  0  0  0  0  0  0  0  0
   -1.7032   14.3602   10.9944 O   0  0  0  0  0  0  0  0  0  0  0  0
   -0.5645   16.4788   10.5858 C   0  0  0  0  0  0  0  0  0  0  0  0
   -0.5804   17.9077   10.7790 O   0  0  0  0  0  0  0  0  0  0  0  0
   -1.6854   18.5283   11.5200 C   0  0  0  0  0  0  0  0  0  0  0  0
   -1.6768   19.7849   11.6697 N   0  0  0  0  0  0  0  0  0  0  0  0
   -4.1905   15.4098   12.1279 H   0  0  0  0  0  0  0  0  0  0  0  0
   -1.0439   14.1310   11.6680 H   0  0  0  0  0  0  0  0  0  0  0  0
   -2.4056   20.2269   12.1624 H   0  0  0  0  0  0  0  0  0  0  0  0
   -4.4242   19.2078   13.3387 C   0  0  0  0  0  0  0  0  0  0  0  0
   -4.9798   19.6092   12.3223 O   0  0  0  0  0  0  0  0  0  0  0  0
   -3.4120   18.3177   13.3298 N   0  0  0  0  0  0  0  0  0  0  0  0
   -3.0236   18.0347   14.1891 H   0  0  0  0  0  0  0  0  0  0  0  0
   -4.8865   19.7273   14.6887 C   0  0  0  0  0  0  0  0  0  0  0  0
   -6.3408   20.2039   14.5995 C   0  0  0  0  0  0  0  0  0  0  0  0
   -6.0326   22.6337   13.9042 C   0  0  0  0  0  0  0  0  0  0  0  0
   -6.4893   21.6623   15.0064 C   0  0  0  0  0  0  0  0  0  0  0  0
   -0.2243   16.1857    9.1335 C   0  0  0  0  0  0  0  0  0  0  0  0
   -0.8804   15.3745    8.4939 O   0  0  0  0  0  0  0  0  0  0  0  0
   -0.7494   14.4880    8.8652 H   0  0  0  0  0  0  0  0  0  0  0  0
 19 20  1  0  0  0
 20 18  1  0  0  0
 18 17  1  0  0  0
 17 13  1  0  0  0
 13 14  2  0  0  0
 13 15  1  0  0  0
 15  1  1  0  0  0
  1  2  1  0  0  0
  1  8  1  0  0  0
  2  3  1  0  0  0
  2  4  1  0  0  0
  4  5  1  0  0  0
  4  6  1  0  0  0
  6 21  1  0  0  0
  6  7  1  0  0  0
 21 22  1  0  0  0
  7  8  1  0  0  0
  8  9  2  0  0  0
 15 16  1  0  0  0
  3 10  1  0  0  0
  5 11  1  0  0  0
 22 23  1  0  0  0
  9 12  1  0  0  0
M  END
> <minimizedAffinity>
-5.35060

$$$$
3GSM_VPU_A_341


 23 23  0  0  0  0  0  0  0  0999 V2000
   -3.3686   17.9090   12.2156 C   0  0  0  0  0  0  0  0  0  0  0  0
   -2.5082   19.0973   12.6794 C   0  0  0  0  0  0  0  0  0  0  0  0
   -1.6764   19.6492   11.6385 O   0  0  0  0  0  0  0  0  0  0  0  0
   -3.4774   20.1617   13.2062 C   0  0  0  0  0  0  0  0  0  0  0  0
   -2.8000   21.4164   13.4039 O   0  0  0  0  0  0  0  0  0  0  0  0
   -4.1521   19.7151   14.5128 C   0  0  0  0  0  0  0  0  0  0  0  0
   -4.6355   18.3569   14.4822 O   0  0  0  0  0  0  0  0  0  0  0  0
   -4.2447   17.4715   13.3782 C   0  0  0  0  0  0  0  0  0  0  0  0
   -4.6880   16.2861   13.3736 N   0  0  0  0  0  0  0  0  0  0  0  0
   -2.2360   19.9771   10.9172 H   0  0  0  0  0  0  0  0  0  0  0  0
   -2.1065   21.3074   14.0733 H   0  0  0  0  0  0  0  0  0  0  0  0
   -4.4418   15.6713   12.6452 H   0  0  0  0  0  0  0  0  0  0  0  0
   -2.6313   16.3830   10.4112 C   0  0  0  0  0  0  0  0  0  0  0  0
   -3.4430   16.8261    9.6065 O   0  0  0  0  0  0  0  0  0  0  0  0
   -2.5135   16.8377   11.6746 N   0  0  0  0  0  0  0  0  0  0  0  0
   -1.8292   16.4384   12.2591 H   0  0  0  0  0  0  0  0  0  0  0  0
   -1.6995   15.2635    9.9814 C   0  0  0  0  0  0  0  0  0  0  0  0
   -0.2434   15.7401   10.0366 C   0  0  0  0  0  0  0  0  0  0  0  0
   -0.4468   16.4927    7.6128 C   0  0  0  0  0  0  0  0  0  0  0  0
    0.0329   16.8477    9.0308 C   0  0  0  0  0  0  0  0  0  0  0  0
   -5.3133   20.6399   14.8402 C   0  0  0  0  0  0  0  0  0  0  0  0
   -5.5872   20.9045   16.0032 O   0  0  0  0  0  0  0  0  0  0  0  0
   -5.8967   20.1028   16.4529 H   0  0  0  0  0  0  0  0  0  0  0  0
 19 20  1  0  0  0
 20 18  1  0  0  0
 18 17  1  0  0  0
 17 13  1  0  0  0
 13 14  2  0  0  0
 13 15  1  0  0  0
 15  1  1  0  0  0
  1  2  1  0  0  0
  1  8  1  0  0  0
  2  3  1  0  0  0
  2  4  1  0  0  0
  4  5  1  0  0  0
  4  6  1  0  0  0
  6 21  1  0  0  0
  6  7  1  0  0  0
 21 22  1  0  0  0
  7  8  1  0  0  0
  8  9  2  0  0  0
 15 16  1  0  0  0
  3 10  1  0  0  0
  5 11  1  0  0  0
 22 23  1  0  0  0
  9 12  1  0  0  0
M  END
> <minimizedAffinity>
-5.33394

$$$$
