1OYT_FSN_H_501


 34 38  0  0  0  0  0  0  0  0999 V2000
   16.7758  -12.8301   22.5863 O   0  0  0  0  0  0  0  0  0  0  0  0
   17.5161  -12.5877   21.6497 C   0  0  0  0  0  0  0  0  0  0  0  0
   18.6513  -13.3771   21.3595 N   0  0  0  0  0  0  0  0  0  0  0  0
   19.2187  -12.9941   20.1097 C   0  0  0  0  0  0  0  0  0  0  0  0
   20.2144  -13.4931   19.6093 O   0  0  0  0  0  0  0  0  0  0  0  0
   18.4103  -11.9227   19.5341 C   0  0  0  0  0  0  0  0  0  0  0  0
   17.4155  -12.3502   18.4555 C   0  0  0  0  0  0  0  0  0  0  0  0
   15.9834  -12.5814   18.9620 N   0  0  0  0  0  0  0  0  0  0  0  0
   15.1856  -12.1825   17.7669 C   0  0  0  0  0  0  0  0  0  0  0  0
   16.1445  -12.4159   16.5546 C   0  0  0  0  0  0  0  0  0  0  0  0
   17.4874  -11.8713   17.0628 C   0  0  0  0  0  0  0  0  0  0  0  0
   16.0117  -11.4428   19.9791 C   0  0  0  0  0  0  0  0  0  0  0  0
   17.3777  -11.5204   20.6353 C   0  0  0  0  0  0  0  0  0  0  0  0
   14.7924  -11.2857   20.8370 C   0  0  0  0  0  0  0  0  0  0  0  0
   14.0253  -12.4188   21.0899 C   0  0  0  0  0  0  0  0  0  0  0  0
   12.9216  -12.3376   21.9281 C   0  0  0  0  0  0  0  0  0  0  0  0
   12.5938  -11.0815   22.5103 C   0  0  0  0  0  0  0  0  0  0  0  0
   13.3648   -9.9405   22.2625 C   0  0  0  0  0  0  0  0  0  0  0  0
   14.4774  -10.0338   21.4206 C   0  0  0  0  0  0  0  0  0  0  0  0
   11.4250  -11.0152   23.3725 C   0  0  0  0  0  0  0  0  0  0  0  0
   10.6369  -12.0988   23.5908 N   0  0  0  0  0  0  0  0  0  0  0  0
   11.0511   -9.8801   24.0159 N   0  0  0  0  0  0  0  0  0  0  0  0
   10.8482  -12.9567   23.1565 H   0  0  0  0  0  0  0  0  0  0  0  0
    9.8541  -12.0268   24.1835 H   0  0  0  0  0  0  0  0  0  0  0  0
   11.5765   -9.0550   23.9040 H   0  0  0  0  0  0  0  0  0  0  0  0
   10.2546   -9.8818   24.5944 H   0  0  0  0  0  0  0  0  0  0  0  0
   18.9708  -14.5632   22.1530 C   0  0  0  0  0  0  0  0  0  0  0  0
   19.8636  -14.1890   23.3043 C   0  0  0  0  0  0  0  0  0  0  0  0
   19.3019  -14.0520   24.5881 C   0  0  0  0  0  0  0  0  0  0  0  0
   20.1316  -13.7387   25.6643 C   0  0  0  0  0  0  0  0  0  0  0  0
   21.5006  -13.5675   25.4202 C   0  0  0  0  0  0  0  0  0  0  0  0
   22.2480  -13.2872   26.5025 F   0  0  0  0  0  0  0  0  0  0  0  0
   22.1073  -13.6788   24.1607 C   0  0  0  0  0  0  0  0  0  0  0  0
   21.2488  -13.9970   23.0782 C   0  0  0  0  0  0  0  0  0  0  0  0
  1  2  2  0  0  0
  2  3  1  0  0  0
  2 13  1  0  0  0
  3 27  1  0  0  0
  3  4  1  0  0  0
 27 28  1  0  0  0
 28 29  2  0  0  0
 28 34  1  0  0  0
 29 30  1  0  0  0
 30 31  2  0  0  0
 31 32  1  0  0  0
 31 33  1  0  0  0
 33 34  2  0  0  0
  4  5  2  0  0  0
  4  6  1  0  0  0
  6  7  1  0  0  0
  6 13  1  0  0  0
  7  8  1  0  0  0
  7 11  1  0  0  0
  8  9  1  0  0  0
  8 12  1  0  0  0
  9 10  1  0  0  0
 10 11  1  0  0  0
 12 14  1  0  0  0
 12 13  1  0  0  0
 14 15  2  0  0  0
 14 19  1  0  0  0
 15 16  1  0  0  0
 16 17  2  0  0  0
 17 18  1  0  0  0
 17 20  1  0  0  0
 18 19  2  0  0  0
 20 21  2  0  0  0
 20 22  1  0  0  0
 21 23  1  0  0  0
 21 24  1  0  0  0
 22 25  1  0  0  0
 22 26  1  0  0  0
M  CHG 1  21   1
M  END
> <minimizedAffinity>
-11.19426

$$$$
1OYT_FSN_H_501


 34 38  0  0  0  0  0  0  0  0999 V2000
   16.8074  -12.9401   22.6594 O   0  0  0  0  0  0  0  0  0  0  0  0
   17.5605  -12.7058   21.7311 C   0  0  0  0  0  0  0  0  0  0  0  0
   18.6872  -13.5106   21.4500 N   0  0  0  0  0  0  0  0  0  0  0  0
   19.2728  -13.1323   20.2072 C   0  0  0  0  0  0  0  0  0  0  0  0
   20.2662  -13.6442   19.7154 O   0  0  0  0  0  0  0  0  0  0  0  0
   18.4857  -12.0478   19.6265 C   0  0  0  0  0  0  0  0  0  0  0  0
   17.4959  -12.4579   18.5367 C   0  0  0  0  0  0  0  0  0  0  0  0
   16.0556  -12.6699   19.0280 N   0  0  0  0  0  0  0  0  0  0  0  0
   15.2758  -12.2562   17.8261 C   0  0  0  0  0  0  0  0  0  0  0  0
   16.2435  -12.5000   16.6229 C   0  0  0  0  0  0  0  0  0  0  0  0
   17.5888  -11.9761   17.1463 C   0  0  0  0  0  0  0  0  0  0  0  0
   16.0899  -11.5347   20.0487 C   0  0  0  0  0  0  0  0  0  0  0  0
   17.4478  -11.6337   20.7185 C   0  0  0  0  0  0  0  0  0  0  0  0
   14.8643  -11.3625   20.8947 C   0  0  0  0  0  0  0  0  0  0  0  0
   14.1359  -12.5017   21.2230 C   0  0  0  0  0  0  0  0  0  0  0  0
   13.0285  -12.4026   22.0543 C   0  0  0  0  0  0  0  0  0  0  0  0
   12.6568  -11.1223   22.5515 C   0  0  0  0  0  0  0  0  0  0  0  0
   13.3888   -9.9747   22.2277 C   0  0  0  0  0  0  0  0  0  0  0  0
   14.5056  -10.0859   21.3935 C   0  0  0  0  0  0  0  0  0  0  0  0
   11.4848  -11.0386   23.4078 C   0  0  0  0  0  0  0  0  0  0  0  0
   11.1194   -9.8758   24.0055 N   0  0  0  0  0  0  0  0  0  0  0  0
   10.6819  -12.1037   23.6590 N   0  0  0  0  0  0  0  0  0  0  0  0
   11.6557   -9.0618   23.8679 H   0  0  0  0  0  0  0  0  0  0  0  0
   10.3180   -9.8465   24.5767 H   0  0  0  0  0  0  0  0  0  0  0  0
   10.8862  -12.9795   23.2585 H   0  0  0  0  0  0  0  0  0  0  0  0
    9.8951  -12.0004   24.2417 H   0  0  0  0  0  0  0  0  0  0  0  0
   18.9816  -14.7034   22.2432 C   0  0  0  0  0  0  0  0  0  0  0  0
   17.9314  -15.7537   22.0052 C   0  0  0  0  0  0  0  0  0  0  0  0
   17.3753  -16.4266   23.1100 C   0  0  0  0  0  0  0  0  0  0  0  0
   16.3771  -17.3767   22.8965 C   0  0  0  0  0  0  0  0  0  0  0  0
   15.9687  -17.6273   21.5799 C   0  0  0  0  0  0  0  0  0  0  0  0
   14.9892  -18.5388   21.4442 F   0  0  0  0  0  0  0  0  0  0  0  0
   16.4990  -16.9960   20.4455 C   0  0  0  0  0  0  0  0  0  0  0  0
   17.5132  -16.0337   20.6810 C   0  0  0  0  0  0  0  0  0  0  0  0
  1  2  2  0  0  0
  2  3  1  0  0  0
  2 13  1  0  0  0
  3 27  1  0  0  0
  3  4  1  0  0  0
 27 28  1  0  0  0
 28 29  2  0  0  0
 28 34  1  0  0  0
 29 30  1  0  0  0
 30 31  2  0  0  0
 31 32  1  0  0  0
 31 33  1  0  0  0
 33 34  2  0  0  0
  4  5  2  0  0  0
  4  6  1  0  0  0
  6  7  1  0  0  0
  6 13  1  0  0  0
  7  8  1  0  0  0
  7 11  1  0  0  0
  8  9  1  0  0  0
  8 12  1  0  0  0
  9 10  1  0  0  0
 10 11  1  0  0  0
 12 14  1  0  0  0
 12 13  1  0  0  0
 14 15  2  0  0  0
 14 19  1  0  0  0
 15 16  1  0  0  0
 16 17  2  0  0  0
 17 18  1  0  0  0
 17 20  1  0  0  0
 18 19  2  0  0  0
 20 21  2  0  0  0
 20 22  1  0  0  0
 21 23  1  0  0  0
 21 24  1  0  0  0
 22 25  1  0  0  0
 22 26  1  0  0  0
M  CHG 1  21   1
M  END
> <minimizedAffinity>
-9.40351

$$$$
1OYT_FSN_H_501


 34 38  0  0  0  0  0  0  0  0999 V2000
   16.1572  -13.1322   22.8292 O   0  0  0  0  0  0  0  0  0  0  0  0
   16.3479  -13.7492   21.7964 C   0  0  0  0  0  0  0  0  0  0  0  0
   17.0463  -14.9770   21.7673 N   0  0  0  0  0  0  0  0  0  0  0  0
   16.9528  -15.5735   20.4766 C   0  0  0  0  0  0  0  0  0  0  0  0
   17.4700  -16.6314   20.1539 O   0  0  0  0  0  0  0  0  0  0  0  0
   16.1357  -14.7178   19.6205 C   0  0  0  0  0  0  0  0  0  0  0  0
   14.6806  -15.1516   19.4462 C   0  0  0  0  0  0  0  0  0  0  0  0
   13.6864  -14.4440   20.3799 N   0  0  0  0  0  0  0  0  0  0  0  0
   12.4636  -14.4079   19.5271 C   0  0  0  0  0  0  0  0  0  0  0  0
   12.6289  -15.6138   18.5463 C   0  0  0  0  0  0  0  0  0  0  0  0
   14.1083  -15.5340   18.1423 C   0  0  0  0  0  0  0  0  0  0  0  0
   14.3964  -13.0928   20.3385 C   0  0  0  0  0  0  0  0  0  0  0  0
   15.8769  -13.4106   20.4360 C   0  0  0  0  0  0  0  0  0  0  0  0
   13.8190  -12.0105   21.2003 C   0  0  0  0  0  0  0  0  0  0  0  0
   12.8297  -12.3643   22.1126 C   0  0  0  0  0  0  0  0  0  0  0  0
   12.3071  -11.4105   22.9753 C   0  0  0  0  0  0  0  0  0  0  0  0
   12.7969  -10.0768   22.9009 C   0  0  0  0  0  0  0  0  0  0  0  0
   13.7948   -9.7173   21.9882 C   0  0  0  0  0  0  0  0  0  0  0  0
   14.3182  -10.6866   21.1269 C   0  0  0  0  0  0  0  0  0  0  0  0
   12.2250   -9.0902   23.8028 C   0  0  0  0  0  0  0  0  0  0  0  0
   12.9487   -8.0360   24.2588 N   0  0  0  0  0  0  0  0  0  0  0  0
   10.9413   -9.1518   24.2392 N   0  0  0  0  0  0  0  0  0  0  0  0
   13.8876   -7.9275   23.9833 H   0  0  0  0  0  0  0  0  0  0  0  0
   12.5346   -7.3801   24.8650 H   0  0  0  0  0  0  0  0  0  0  0  0
   10.3576   -9.8896   23.9489 H   0  0  0  0  0  0  0  0  0  0  0  0
   10.5939   -8.4588   24.8461 H   0  0  0  0  0  0  0  0  0  0  0  0
   17.5414  -15.5949   22.9969 C   0  0  0  0  0  0  0  0  0  0  0  0
   18.7631  -14.8659   23.4853 C   0  0  0  0  0  0  0  0  0  0  0  0
   18.7949  -14.3989   24.8132 C   0  0  0  0  0  0  0  0  0  0  0  0
   19.9388  -13.7526   25.2804 C   0  0  0  0  0  0  0  0  0  0  0  0
   21.0166  -13.5898   24.4001 C   0  0  0  0  0  0  0  0  0  0  0  0
   22.0961  -12.9776   24.9181 F   0  0  0  0  0  0  0  0  0  0  0  0
   21.0308  -14.0232   23.0664 C   0  0  0  0  0  0  0  0  0  0  0  0
   19.8594  -14.6774   22.6081 C   0  0  0  0  0  0  0  0  0  0  0  0
  1  2  2  0  0  0
  2  3  1  0  0  0
  2 13  1  0  0  0
  3 27  1  0  0  0
  3  4  1  0  0  0
 27 28  1  0  0  0
 28 29  2  0  0  0
 28 34  1  0  0  0
 29 30  1  0  0  0
 30 31  2  0  0  0
 31 32  1  0  0  0
 31 33  1  0  0  0
 33 34  2  0  0  0
  4  5  2  0  0  0
  4  6  1  0  0  0
  6  7  1  0  0  0
  6 13  1  0  0  0
  7  8  1  0  0  0
  7 11  1  0  0  0
  8  9  1  0  0  0
  8 12  1  0  0  0
  9 10  1  0  0  0
 10 11  1  0  0  0
 12 14  1  0  0  0
 12 13  1  0  0  0
 14 15  2  0  0  0
 14 19  1  0  0  0
 15 16  1  0  0  0
 16 17  2  0  0  0
 17 18  1  0  0  0
 17 20  1  0  0  0
 18 19  2  0  0  0
 20 21  2  0  0  0
 20 22  1  0  0  0
 21 23  1  0  0  0
 21 24  1  0  0  0
 22 25  1  0  0  0
 22 26  1  0  0  0
M  CHG 1  21   1
M  END
> <minimizedAffinity>
-9.12820

$$$$
1OYT_FSN_H_501


 34 38  0  0  0  0  0  0  0  0999 V2000
   16.3282  -14.7997   20.6257 O   0  0  0  0  0  0  0  0  0  0  0  0
   16.8877  -13.7789   20.2669 C   0  0  0  0  0  0  0  0  0  0  0  0
   18.2747  -13.5754   20.4424 N   0  0  0  0  0  0  0  0  0  0  0  0
   18.6958  -12.3964   19.7618 C   0  0  0  0  0  0  0  0  0  0  0  0
   19.8376  -11.9641   19.7488 O   0  0  0  0  0  0  0  0  0  0  0  0
   17.5441  -11.8069   19.0843 C   0  0  0  0  0  0  0  0  0  0  0  0
   17.4317  -12.1041   17.5894 C   0  0  0  0  0  0  0  0  0  0  0  0
   16.5014  -13.2756   17.2386 N   0  0  0  0  0  0  0  0  0  0  0  0
   15.9756  -12.8409   15.9127 C   0  0  0  0  0  0  0  0  0  0  0  0
   17.0809  -11.8964   15.3385 C   0  0  0  0  0  0  0  0  0  0  0  0
   17.4859  -11.0534   16.5565 C   0  0  0  0  0  0  0  0  0  0  0  0
   15.4809  -12.9737   18.3336 C   0  0  0  0  0  0  0  0  0  0  0  0
   16.2984  -12.6199   19.5621 C   0  0  0  0  0  0  0  0  0  0  0  0
   14.3389  -13.9361   18.4633 C   0  0  0  0  0  0  0  0  0  0  0  0
   14.3876  -15.1073   17.7135 C   0  0  0  0  0  0  0  0  0  0  0  0
   13.3848  -16.0583   17.8447 C   0  0  0  0  0  0  0  0  0  0  0  0
   12.3153  -15.8068   18.7487 C   0  0  0  0  0  0  0  0  0  0  0  0
   12.2645  -14.6326   19.5081 C   0  0  0  0  0  0  0  0  0  0  0  0
   13.2821  -13.6832   19.3723 C   0  0  0  0  0  0  0  0  0  0  0  0
   11.2675  -16.8086   18.8593 C   0  0  0  0  0  0  0  0  0  0  0  0
   11.3584  -17.8426   19.7343 N   0  0  0  0  0  0  0  0  0  0  0  0
   10.1372  -16.7744   18.1088 N   0  0  0  0  0  0  0  0  0  0  0  0
   12.1511  -17.9309   20.3115 H   0  0  0  0  0  0  0  0  0  0  0  0
   10.6316  -18.5042   19.7918 H   0  0  0  0  0  0  0  0  0  0  0  0
   10.0035  -16.0524   17.4529 H   0  0  0  0  0  0  0  0  0  0  0  0
    9.4510  -17.4715   18.2202 H   0  0  0  0  0  0  0  0  0  0  0  0
   19.1228  -14.6115   21.0305 C   0  0  0  0  0  0  0  0  0  0  0  0
   19.4289  -14.2756   22.4644 C   0  0  0  0  0  0  0  0  0  0  0  0
   18.4265  -14.4541   23.4370 C   0  0  0  0  0  0  0  0  0  0  0  0
   18.7164  -14.1764   24.7724 C   0  0  0  0  0  0  0  0  0  0  0  0
   20.0030  -13.7234   25.0929 C   0  0  0  0  0  0  0  0  0  0  0  0
   20.2240  -13.4937   26.3994 F   0  0  0  0  0  0  0  0  0  0  0  0
   21.0314  -13.5160   24.1623 C   0  0  0  0  0  0  0  0  0  0  0  0
   20.7188  -13.8025   22.8094 C   0  0  0  0  0  0  0  0  0  0  0  0
  1  2  2  0  0  0
  2  3  1  0  0  0
  2 13  1  0  0  0
  3 27  1  0  0  0
  3  4  1  0  0  0
 27 28  1  0  0  0
 28 29  2  0  0  0
 28 34  1  0  0  0
 29 30  1  0  0  0
 30 31  2  0  0  0
 31 32  1  0  0  0
 31 33  1  0  0  0
 33 34  2  0  0  0
  4  5  2  0  0  0
  4  6  1  0  0  0
  6  7  1  0  0  0
  6 13  1  0  0  0
  7  8  1  0  0  0
  7 11  1  0  0  0
  8  9  1  0  0  0
  8 12  1  0  0  0
  9 10  1  0  0  0
 10 11  1  0  0  0
 12 14  1  0  0  0
 12 13  1  0  0  0
 14 15  2  0  0  0
 14 19  1  0  0  0
 15 16  1  0  0  0
 16 17  2  0  0  0
 17 18  1  0  0  0
 17 20  1  0  0  0
 18 19  2  0  0  0
 20 21  2  0  0  0
 20 22  1  0  0  0
 21 23  1  0  0  0
 21 24  1  0  0  0
 22 25  1  0  0  0
 22 26  1  0  0  0
M  CHG 1  21   1
M  END
> <minimizedAffinity>
-8.70425

$$$$
1OYT_FSN_H_501


 34 38  0  0  0  0  0  0  0  0999 V2000
   17.3469  -11.8368   21.5462 O   0  0  0  0  0  0  0  0  0  0  0  0
   16.3555  -12.5263   21.3868 C   0  0  0  0  0  0  0  0  0  0  0  0
   15.3549  -12.2048   20.4426 N   0  0  0  0  0  0  0  0  0  0  0  0
   14.4184  -13.2724   20.3253 C   0  0  0  0  0  0  0  0  0  0  0  0
   13.4398  -13.2697   19.5951 O   0  0  0  0  0  0  0  0  0  0  0  0
   14.8297  -14.3590   21.2101 C   0  0  0  0  0  0  0  0  0  0  0  0
   15.5701  -15.5153   20.5388 C   0  0  0  0  0  0  0  0  0  0  0  0
   17.1018  -15.4316   20.6284 N   0  0  0  0  0  0  0  0  0  0  0  0
   17.4686  -16.8764   20.6730 C   0  0  0  0  0  0  0  0  0  0  0  0
   16.2883  -17.6071   19.9544 C   0  0  0  0  0  0  0  0  0  0  0  0
   15.0470  -16.8935   20.5097 C   0  0  0  0  0  0  0  0  0  0  0  0
   17.1251  -14.8396   22.0358 C   0  0  0  0  0  0  0  0  0  0  0  0
   16.0187  -13.8014   22.0563 C   0  0  0  0  0  0  0  0  0  0  0  0
   18.4736  -14.4872   22.5877 C   0  0  0  0  0  0  0  0  0  0  0  0
   18.5887  -14.3185   23.9641 C   0  0  0  0  0  0  0  0  0  0  0  0
   19.8281  -14.0520   24.5301 C   0  0  0  0  0  0  0  0  0  0  0  0
   20.9632  -13.9504   23.6784 C   0  0  0  0  0  0  0  0  0  0  0  0
   20.8531  -14.1238   22.2943 C   0  0  0  0  0  0  0  0  0  0  0  0
   19.6011  -14.3968   21.7345 C   0  0  0  0  0  0  0  0  0  0  0  0
   22.2488  -13.6554   24.2899 C   0  0  0  0  0  0  0  0  0  0  0  0
   23.3983  -13.6508   23.5676 N   0  0  0  0  0  0  0  0  0  0  0  0
   22.3843  -13.3610   25.6079 N   0  0  0  0  0  0  0  0  0  0  0  0
   23.3756  -13.8554   22.6049 H   0  0  0  0  0  0  0  0  0  0  0  0
   24.2547  -13.4427   24.0065 H   0  0  0  0  0  0  0  0  0  0  0  0
   21.5926  -13.3459   26.1928 H   0  0  0  0  0  0  0  0  0  0  0  0
   23.2743  -13.1626   25.9790 H   0  0  0  0  0  0  0  0  0  0  0  0
   15.4850  -11.0384   19.5700 C   0  0  0  0  0  0  0  0  0  0  0  0
   15.9585  -11.4636   18.2071 C   0  0  0  0  0  0  0  0  0  0  0  0
   15.0276  -11.5403   17.1535 C   0  0  0  0  0  0  0  0  0  0  0  0
   15.4683  -11.9010   15.8806 C   0  0  0  0  0  0  0  0  0  0  0  0
   16.8301  -12.1786   15.7026 C   0  0  0  0  0  0  0  0  0  0  0  0
   17.1933  -12.5000   14.4482 F   0  0  0  0  0  0  0  0  0  0  0  0
   17.7944  -12.1305   16.7197 C   0  0  0  0  0  0  0  0  0  0  0  0
   17.3287  -11.7629   18.0073 C   0  0  0  0  0  0  0  0  0  0  0  0
  1  2  2  0  0  0
  2  3  1  0  0  0
  2 13  1  0  0  0
  3 27  1  0  0  0
  3  4  1  0  0  0
 27 28  1  0  0  0
 28 29  2  0  0  0
 28 34  1  0  0  0
 29 30  1  0  0  0
 30 31  2  0  0  0
 31 32  1  0  0  0
 31 33  1  0  0  0
 33 34  2  0  0  0
  4  5  2  0  0  0
  4  6  1  0  0  0
  6  7  1  0  0  0
  6 13  1  0  0  0
  7  8  1  0  0  0
  7 11  1  0  0  0
  8  9  1  0  0  0
  8 12  1  0  0  0
  9 10  1  0  0  0
 10 11  1  0  0  0
 12 14  1  0  0  0
 12 13  1  0  0  0
 14 15  2  0  0  0
 14 19  1  0  0  0
 15 16  1  0  0  0
 16 17  2  0  0  0
 17 18  1  0  0  0
 17 20  1  0  0  0
 18 19  2  0  0  0
 20 21  2  0  0  0
 20 22  1  0  0  0
 21 23  1  0  0  0
 21 24  1  0  0  0
 22 25  1  0  0  0
 22 26  1  0  0  0
M  CHG 1  21   1
M  END
> <minimizedAffinity>
-8.48185

$$$$
1OYT_FSN_H_501


 34 38  0  0  0  0  0  0  0  0999 V2000
   16.8941  -13.2708   22.8580 O   0  0  0  0  0  0  0  0  0  0  0  0
   17.3407  -14.2698   22.3228 C   0  0  0  0  0  0  0  0  0  0  0  0
   18.1875  -15.1756   22.9999 N   0  0  0  0  0  0  0  0  0  0  0  0
   18.3991  -16.3443   22.2125 C   0  0  0  0  0  0  0  0  0  0  0  0
   19.0981  -17.2914   22.5369 O   0  0  0  0  0  0  0  0  0  0  0  0
   17.6393  -16.2198   20.9715 C   0  0  0  0  0  0  0  0  0  0  0  0
   16.3061  -16.9660   20.9337 C   0  0  0  0  0  0  0  0  0  0  0  0
   15.0806  -16.1031   21.2721 N   0  0  0  0  0  0  0  0  0  0  0  0
   14.0313  -16.7480   20.4315 C   0  0  0  0  0  0  0  0  0  0  0  0
   14.5208  -18.2211   20.2478 C   0  0  0  0  0  0  0  0  0  0  0  0
   16.0248  -18.0580   19.9837 C   0  0  0  0  0  0  0  0  0  0  0  0
   15.6047  -14.8443   20.5847 C   0  0  0  0  0  0  0  0  0  0  0  0
   17.0741  -14.7634   20.9544 C   0  0  0  0  0  0  0  0  0  0  0  0
   14.7498  -13.6181   20.6991 C   0  0  0  0  0  0  0  0  0  0  0  0
   13.7117  -13.6337   21.6255 C   0  0  0  0  0  0  0  0  0  0  0  0
   12.9304  -12.5015   21.8125 C   0  0  0  0  0  0  0  0  0  0  0  0
   13.2093  -11.3405   21.0388 C   0  0  0  0  0  0  0  0  0  0  0  0
   14.2550  -11.3187   20.1093 C   0  0  0  0  0  0  0  0  0  0  0  0
   15.0393  -12.4628   19.9319 C   0  0  0  0  0  0  0  0  0  0  0  0
   12.3693  -10.1709   21.2392 C   0  0  0  0  0  0  0  0  0  0  0  0
   11.6711   -9.9822   22.3880 N   0  0  0  0  0  0  0  0  0  0  0  0
   12.2334   -9.1961   20.3045 N   0  0  0  0  0  0  0  0  0  0  0  0
   11.7222  -10.6492   23.1103 H   0  0  0  0  0  0  0  0  0  0  0  0
   11.1137   -9.1783   22.4989 H   0  0  0  0  0  0  0  0  0  0  0  0
   12.7110   -9.2668   19.4465 H   0  0  0  0  0  0  0  0  0  0  0  0
   11.6573   -8.4184   20.4846 H   0  0  0  0  0  0  0  0  0  0  0  0
   18.5369  -14.9777   24.4062 C   0  0  0  0  0  0  0  0  0  0  0  0
   19.9159  -14.3873   24.5173 C   0  0  0  0  0  0  0  0  0  0  0  0
   20.3712  -13.9468   25.7748 C   0  0  0  0  0  0  0  0  0  0  0  0
   21.6615  -13.4303   25.8889 C   0  0  0  0  0  0  0  0  0  0  0  0
   22.4563  -13.3666   24.7367 C   0  0  0  0  0  0  0  0  0  0  0  0
   23.6959  -12.8780   24.9183 F   0  0  0  0  0  0  0  0  0  0  0  0
   22.0465  -13.7783   23.4603 C   0  0  0  0  0  0  0  0  0  0  0  0
   20.7318  -14.3000   23.3626 C   0  0  0  0  0  0  0  0  0  0  0  0
  1  2  2  0  0  0
  2  3  1  0  0  0
  2 13  1  0  0  0
  3 27  1  0  0  0
  3  4  1  0  0  0
 27 28  1  0  0  0
 28 29  2  0  0  0
 28 34  1  0  0  0
 29 30  1  0  0  0
 30 31  2  0  0  0
 31 32  1  0  0  0
 31 33  1  0  0  0
 33 34  2  0  0  0
  4  5  2  0  0  0
  4  6  1  0  0  0
  6  7  1  0  0  0
  6 13  1  0  0  0
  7  8  1  0  0  0
  7 11  1  0  0  0
  8  9  1  0  0  0
  8 12  1  0  0  0
  9 10  1  0  0  0
 10 11  1  0  0  0
 12 14  1  0  0  0
 12 13  1  0  0  0
 14 15  2  0  0  0
 14 19  1  0  0  0
 15 16  1  0  0  0
 16 17  2  0  0  0
 17 18  1  0  0  0
 17 20  1  0  0  0
 18 19  2  0  0  0
 20 21  2  0  0  0
 20 22  1  0  0  0
 21 23  1  0  0  0
 21 24  1  0  0  0
 22 25  1  0  0  0
 22 26  1  0  0  0
M  CHG 1  21   1
M  END
> <minimizedAffinity>
-8.44697

$$$$
1OYT_FSN_H_501


 34 38  0  0  0  0  0  0  0  0999 V2000
   17.2385  -12.7210   19.9795 O   0  0  0  0  0  0  0  0  0  0  0  0
   16.9841  -13.8676   20.3028 C   0  0  0  0  0  0  0  0  0  0  0  0
   17.0886  -14.3174   21.6380 N   0  0  0  0  0  0  0  0  0  0  0  0
   16.5475  -15.6294   21.7660 C   0  0  0  0  0  0  0  0  0  0  0  0
   16.5140  -16.2762   22.8011 O   0  0  0  0  0  0  0  0  0  0  0  0
   16.0387  -16.0579   20.4659 C   0  0  0  0  0  0  0  0  0  0  0  0
   14.5287  -15.9266   20.2698 C   0  0  0  0  0  0  0  0  0  0  0  0
   14.0871  -14.6458   19.5448 N   0  0  0  0  0  0  0  0  0  0  0  0
   12.8727  -15.1251   18.8241 C   0  0  0  0  0  0  0  0  0  0  0  0
   12.3571  -16.3307   19.6750 C   0  0  0  0  0  0  0  0  0  0  0  0
   13.6475  -17.0840   20.0295 C   0  0  0  0  0  0  0  0  0  0  0  0
   15.2815  -14.6070   18.5942 C   0  0  0  0  0  0  0  0  0  0  0  0
   16.4867  -14.9642   19.4441 C   0  0  0  0  0  0  0  0  0  0  0  0
   15.3580  -13.4302   17.6687 C   0  0  0  0  0  0  0  0  0  0  0  0
   16.1563  -13.5459   16.5348 C   0  0  0  0  0  0  0  0  0  0  0  0
   16.2121  -12.5070   15.6156 C   0  0  0  0  0  0  0  0  0  0  0  0
   15.4475  -11.3325   15.8610 C   0  0  0  0  0  0  0  0  0  0  0  0
   14.6399  -11.2135   16.9975 C   0  0  0  0  0  0  0  0  0  0  0  0
   14.5867  -12.2675   17.9148 C   0  0  0  0  0  0  0  0  0  0  0  0
   15.5324  -10.2505   14.8937 C   0  0  0  0  0  0  0  0  0  0  0  0
   16.3271  -10.3352   13.7962 N   0  0  0  0  0  0  0  0  0  0  0  0
   14.8255   -9.0984   15.0172 N   0  0  0  0  0  0  0  0  0  0  0  0
   16.8688  -11.1426   13.6419 H   0  0  0  0  0  0  0  0  0  0  0  0
   16.3616   -9.5891   13.1548 H   0  0  0  0  0  0  0  0  0  0  0  0
   14.2282   -8.9677   15.7889 H   0  0  0  0  0  0  0  0  0  0  0  0
   14.9099   -8.3935   14.3352 H   0  0  0  0  0  0  0  0  0  0  0  0
   17.4694  -13.4053   22.7159 C   0  0  0  0  0  0  0  0  0  0  0  0
   18.9054  -13.6329   23.1015 C   0  0  0  0  0  0  0  0  0  0  0  0
   19.9099  -13.4548   22.1311 C   0  0  0  0  0  0  0  0  0  0  0  0
   21.2450  -13.6315   22.4930 C   0  0  0  0  0  0  0  0  0  0  0  0
   21.5333  -13.9860   23.8175 C   0  0  0  0  0  0  0  0  0  0  0  0
   22.8398  -14.1208   24.1064 F   0  0  0  0  0  0  0  0  0  0  0  0
   20.5711  -14.1888   24.8174 C   0  0  0  0  0  0  0  0  0  0  0  0
   19.2191  -14.0057   24.4317 C   0  0  0  0  0  0  0  0  0  0  0  0
  1  2  2  0  0  0
  2  3  1  0  0  0
  2 13  1  0  0  0
  3 27  1  0  0  0
  3  4  1  0  0  0
 27 28  1  0  0  0
 28 29  2  0  0  0
 28 34  1  0  0  0
 29 30  1  0  0  0
 30 31  2  0  0  0
 31 32  1  0  0  0
 31 33  1  0  0  0
 33 34  2  0  0  0
  4  5  2  0  0  0
  4  6  1  0  0  0
  6  7  1  0  0  0
  6 13  1  0  0  0
  7  8  1  0  0  0
  7 11  1  0  0  0
  8  9  1  0  0  0
  8 12  1  0  0  0
  9 10  1  0  0  0
 10 11  1  0  0  0
 12 14  1  0  0  0
 12 13  1  0  0  0
 14 15  2  0  0  0
 14 19  1  0  0  0
 15 16  1  0  0  0
 16 17  2  0  0  0
 17 18  1  0  0  0
 17 20  1  0  0  0
 18 19  2  0  0  0
 20 21  2  0  0  0
 20 22  1  0  0  0
 21 23  1  0  0  0
 21 24  1  0  0  0
 22 25  1  0  0  0
 22 26  1  0  0  0
M  CHG 1  21   1
M  END
> <minimizedAffinity>
-8.26845

$$$$
