1OYT_FSN_H_501
  RCSB PDB12061703363D
Coordinates from PDB:1OYT:H:501 Model:1 without hydrogens
 30 34  0  0  0  0            999 V2000
   16.6950  -12.8160   22.7290   O 0  0  0  0  0  0  0  0  0  0  0  0
   17.4090  -12.5450   21.7800   C 0  0  0  0  0  0  0  0  0  0  0  0
   18.5310  -13.3290   21.4300   N 0  0  0  0  0  0  0  0  0  0  0  0
   18.8670  -14.5430   22.1730   C 0  0  0  0  0  0  0  0  0  0  0  0
   19.7880  -14.2110   23.3150   C 0  0  0  0  0  0  0  0  0  0  0  0
   19.2510  -14.0800   24.6100   C 0  0  0  0  0  0  0  0  0  0  0  0
   20.1060  -13.8060   25.6770   C 0  0  0  0  0  0  0  0  0  0  0  0
   21.4750  -13.6670   25.4130   C 0  0  0  0  0  0  0  0  0  0  0  0
   22.2470  -13.4240   26.4870   F 0  0  0  0  0  0  0  0  0  0  0  0
   22.0580  -13.7740   24.1420   C 0  0  0  0  0  0  0  0  0  0  0  0
   21.1740  -14.0520   23.0690   C 0  0  0  0  0  0  0  0  0  0  0  0
   19.0640  -12.9060   20.1780   C 0  0  0  0  0  0  0  0  0  0  0  0
   20.0420  -13.3920   19.6320   O 0  0  0  0  0  0  0  0  0  0  0  0
   18.2450  -11.8120   19.6630   C 0  0  0  0  0  0  0  0  0  0  0  0
   17.2170  -12.1980   18.6000   C 0  0  0  0  0  0  0  0  0  0  0  0
   15.7990  -12.4400   19.1400   N 0  0  0  0  0  0  0  0  0  0  0  0
   14.9690  -11.9970   17.9830   C 0  0  0  0  0  0  0  0  0  0  0  0
   15.8910  -12.1930   16.7360   C 0  0  0  0  0  0  0  0  0  0  0  0
   17.2510  -11.6720   17.2230   C 0  0  0  0  0  0  0  0  0  0  0  0
   15.8630  -11.3370   20.1940   C 0  0  0  0  0  0  0  0  0  0  0  0
   14.6700  -11.2040   21.0920   C 0  0  0  0  0  0  0  0  0  0  0  0
   13.9280  -12.3500   21.3610   C 0  0  0  0  0  0  0  0  0  0  0  0
   12.8510  -12.2910   22.2350   C 0  0  0  0  0  0  0  0  0  0  0  0
   12.5240  -11.0440   22.8370   C 0  0  0  0  0  0  0  0  0  0  0  0
   13.2700   -9.8900   22.5730   C 0  0  0  0  0  0  0  0  0  0  0  0
   14.3560   -9.9610   21.6950   C 0  0  0  0  0  0  0  0  0  0  0  0
   11.3830  -11.0010   23.7370   C 0  0  0  0  0  0  0  0  0  0  0  0
   10.5520  -12.0640   23.8870   N 0  3  0  0  0  0  0  0  0  0  0  0
   11.0790   -9.9100   24.4850   N 0  0  0  0  0  0  0  0  0  0  0  0
   17.2470  -11.4430   20.8070   C 0  0  0  0  0  0  0  0  0  0  0  0
  1  2  2  0  0  0  0
  2  3  1  0  0  0  0
  2 30  1  0  0  0  0
  3  4  1  0  0  0  0
  3 12  1  0  0  0  0
  4  5  1  0  0  0  0
  5  6  2  0  0  0  0
  5 11  1  0  0  0  0
  6  7  1  0  0  0  0
  7  8  2  0  0  0  0
  8  9  1  0  0  0  0
  8 10  1  0  0  0  0
 10 11  2  0  0  0  0
 12 13  2  0  0  0  0
 12 14  1  0  0  0  0
 14 15  1  0  0  0  0
 14 30  1  0  0  0  0
 15 16  1  0  0  0  0
 15 19  1  0  0  0  0
 16 17  1  0  0  0  0
 16 20  1  0  0  0  0
 17 18  1  0  0  0  0
 18 19  1  0  0  0  0
 20 21  1  0  0  0  0
 20 30  1  0  0  0  0
 21 22  2  0  0  0  0
 21 26  1  0  0  0  0
 22 23  1  0  0  0  0
 23 24  2  0  0  0  0
 24 25  1  0  0  0  0
 24 27  1  0  0  0  0
 25 26  2  0  0  0  0
 27 28  2  0  0  0  0
 27 29  1  0  0  0  0
M  CHG  1  28   1
A    1
O21
A    2
C20
A    3
N19
A    4
C23
A    5
C24
A    6
C32
A    7
C31
A    8
C30
A    9
F29
A   10
C26
A   11
C25
A   12
C17
A   13
O18
A   14
C16
A   15
C15
A   16
N11
A   17
C12
A   18
C13
A   19
C14
A   20
C10
A   21
C7
A   22
C8
A   23
C9
A   24
C4
A   25
C5
A   26
C6
A   27
C3
A   28
N1
A   29
N2
A   30
C22
M  END
>  <InstanceId>
1OYT_FSN_H_501

>  <ChemCompId>
FSN

>  <PdbId>
1OYT

>  <ChainId>
H

>  <ResidueNumber>
501

>  <InsertionCode>


>  <Model>
1

>  <AltIds>


>  <MissingHeavyAtoms>
0

>  <ObservedFormula>
C23 N4 O2 F

>  <Name>
(3ASR,4RS,8ASR,8BRS)-4-(2-(4-FLUOROBENZYL)-1,3-DIOXODEACAHYDROPYRROLO[3,4-A] PYRROLIZIN-4-YL)BENZAMIDINE

>  <SystematicName>
[[4-[(3aS,4R,5S,8aS,8bR)-2-[(4-fluorophenyl)methyl]-1,3-dioxo-4,6,7,8,8a,8b-hexahydro-3aH-pyrrolo[3,4-a]pyrrolizin-4-yl]phenyl]-amino-methylidene]azanium

>  <Synonyms>


>  <Type>
NON-POLYMER

>  <Formula>
C23 H24 F N4 O2

>  <MolecularWeight>
407.461

>  <ModifiedDate>
2011-06-04

>  <Parent>


>  <OneLetterCode>


>  <SubcomponentList>


>  <AmbiguousFlag>
N

>  <InChI>
InChI=1S/C23H23FN4O2/c24-16-9-3-13(4-10-16)12-28-22(29)18-17-2-1-11-27(17)20(19(18)23(28)30)14-5-7-15(8-6-14)21(25)26/h3-10,17-20H,1-2,11-12H2,(H3,25,26)/p+1/t17-,18-,19-,20-/m0/s1

>  <InChIKey>
GJYCQHGTXMVIBG-MUGJNUQGSA-O

>  <SMILES>
c1cc(ccc1CN2C(=O)[C@H]3[C@@H]4CCC[N@@]4[C@H]([C@H]3C2=O)c5ccc(cc5)C(=[NH2+])N)F

$$$$
