3MDZ_EZL_A_264
  RCSB PDB12061709443D
Coordinates from PDB:3MDZ:A:264 Model:1 without hydrogens
 16 17  0  0  0  0            999 V2000
   15.8730   12.5730   80.9780   N 0  0  0  0  0  0  0  0  0  0  0  0
   15.2480    7.8930   81.7440   C 0  0  0  0  0  0  0  0  0  0  0  0
   14.0870    7.6460   80.9600   C 0  0  0  0  0  0  0  0  0  0  0  0
   13.4120    6.4610   81.0850   C 0  0  0  0  0  0  0  0  0  0  0  0
   13.8010    5.4700   81.9760   C 0  0  0  0  0  0  0  0  0  0  0  0
   13.6890    3.1060   82.2510   C 0  0  0  0  0  0  0  0  0  0  0  0
   16.7720   11.2790   79.0280   O 0  0  0  0  0  0  0  0  0  0  0  0
   14.4110   11.6960   79.0050   O 0  0  0  0  0  0  0  0  0  0  0  0
   15.5860   11.4040   79.8610   S 0  0  0  0  0  0  0  0  0  0  0  0
   15.1850    9.8450   80.5200   C 0  0  0  0  0  0  0  0  0  0  0  0
   15.8370    9.1190   81.4750   N 0  0  0  0  0  0  0  0  0  0  0  0
   13.7630    8.9930   79.9280   S 0  0  0  0  0  0  0  0  0  0  0  0
   14.9260    5.6800   82.7960   C 0  0  0  0  0  0  0  0  0  0  0  0
   15.6290    6.8790   82.6620   C 0  0  0  0  0  0  0  0  0  0  0  0
   12.9920    4.3580   82.0000   O 0  0  0  0  0  0  0  0  0  0  0  0
   12.6010    2.0430   81.9650   C 0  0  0  0  0  0  0  0  0  0  0  0
  1  9  1  0  0  0  0
  2  3  2  0  0  0  0
  2 11  1  0  0  0  0
  2 14  1  0  0  0  0
  3  4  1  0  0  0  0
  3 12  1  0  0  0  0
  4  5  2  0  0  0  0
  5 13  1  0  0  0  0
  5 15  1  0  0  0  0
  6 15  1  0  0  0  0
  6 16  1  0  0  0  0
  7  9  2  0  0  0  0
  8  9  2  0  0  0  0
  9 10  1  0  0  0  0
 10 11  2  0  0  0  0
 10 12  1  0  0  0  0
 13 14  2  0  0  0  0
A    1
N1
A    2
C2
A    3
C3
A    4
C4
A    5
C5
A    6
C8
A    7
O1
A    8
O2
A    9
S1
A   10
C1
A   11
N2
A   12
S2
A   13
C6
A   14
C7
A   15
O3
A   16
C9
M  END
>  <InstanceId>
3MDZ_EZL_A_264

>  <ChemCompId>
EZL

>  <PdbId>
3MDZ

>  <ChainId>
A

>  <ResidueNumber>
264

>  <InsertionCode>


>  <Model>
1

>  <AltIds>


>  <MissingHeavyAtoms>
0

>  <ObservedFormula>
C9 N2 O3 S2

>  <Name>
6-ethoxy-1,3-benzothiazole-2-sulfonamide

>  <SystematicName>
6-ethoxy-1,3-benzothiazole-2-sulfonamide

>  <Synonyms>
Ethoxzolamide

>  <Type>
NON-POLYMER

>  <Formula>
C9 H10 N2 O3 S2

>  <MolecularWeight>
258.317

>  <ModifiedDate>
2011-06-04

>  <Parent>


>  <OneLetterCode>


>  <SubcomponentList>


>  <AmbiguousFlag>
N

>  <InChI>
InChI=1S/C9H10N2O3S2/c1-2-14-6-3-4-7-8(5-6)15-9(11-7)16(10,12)13/h3-5H,2H2,1H3,(H2,10,12,13)

>  <InChIKey>
OUZWUKMCLIBBOG-UHFFFAOYSA-N

>  <SMILES>
CCOc1ccc2c(c1)sc(n2)S(=O)(=O)N

$$$$
