3MDZ_EZL_A_264


 18 19  0  0  0  0  0  0  0  0999 V2000
   13.1962    8.9895   82.1507 C   0  0  0  0  0  0  0  0  0  0  0  0
   14.1763   10.0034   82.3375 C   0  0  0  0  0  0  0  0  0  0  0  0
   15.0553   10.3040   81.3313 C   0  0  0  0  0  0  0  0  0  0  0  0
   15.0254    9.6672   80.0981 C   0  0  0  0  0  0  0  0  0  0  0  0
   12.7249    9.5874   84.3263 C   0  0  0  0  0  0  0  0  0  0  0  0
   12.4088    8.7790   83.2723 N   0  0  0  0  0  0  0  0  0  0  0  0
   14.0457   10.6786   83.9223 S   0  0  0  0  0  0  0  0  0  0  0  0
   14.0539    8.6778   79.8540 C   0  0  0  0  0  0  0  0  0  0  0  0
   13.1651    8.3543   80.8812 C   0  0  0  0  0  0  0  0  0  0  0  0
   10.7574    8.6235   86.1496 N   0  0  0  0  0  0  0  0  0  0  0  0
   13.0456    9.3201   86.9005 O   0  0  0  0  0  0  0  0  0  0  0  0
   11.6488   11.0717   86.0465 O   0  0  0  0  0  0  0  0  0  0  0  0
   12.0236    9.6429   85.9170 S   0  0  0  0  0  0  0  0  0  0  0  0
   10.4116    8.7231   87.1041 H   0  0  0  0  0  0  0  0  0  0  0  0
   11.0624    7.6622   85.9971 H   0  0  0  0  0  0  0  0  0  0  0  0
   15.9555   10.1143   79.1889 O   0  0  0  0  0  0  0  0  0  0  0  0
   16.0398   11.5616   79.0691 C   0  0  0  0  0  0  0  0  0  0  0  0
   14.7292   11.9228   78.3292 C   0  0  0  0  0  0  0  0  0  0  0  0
 10 13  1  0  0  0
  1  2  2  0  0  0
  1  6  1  0  0  0
  1  9  1  0  0  0
  2  3  1  0  0  0
  2  7  1  0  0  0
  3  4  2  0  0  0
  4  8  1  0  0  0
  4 16  1  0  0  0
 17 16  1  0  0  0
 17 18  1  0  0  0
 11 13  2  0  0  0
 12 13  2  0  0  0
 13  5  1  0  0  0
  5  6  2  0  0  0
  5  7  1  0  0  0
  8  9  2  0  0  0
 10 14  1  0  0  0
 10 15  1  0  0  0
M  END
> <minimizedAffinity>
-6.57965

$$$$
3MDZ_EZL_A_264


 18 19  0  0  0  0  0  0  0  0999 V2000
   13.6780   10.0890   83.5067 C   0  0  0  0  0  0  0  0  0  0  0  0
   13.9621    9.2040   82.4299 C   0  0  0  0  0  0  0  0  0  0  0  0
   14.8773    9.5557   81.4737 C   0  0  0  0  0  0  0  0  0  0  0  0
   15.5758   10.7548   81.5133 C   0  0  0  0  0  0  0  0  0  0  0  0
   12.2189    8.3789   84.0159 C   0  0  0  0  0  0  0  0  0  0  0  0
   12.7046    9.6056   84.3676 N   0  0  0  0  0  0  0  0  0  0  0  0
   13.0053    7.7717   82.5629 S   0  0  0  0  0  0  0  0  0  0  0  0
   15.3520   11.6508   82.5760 C   0  0  0  0  0  0  0  0  0  0  0  0
   14.4079   11.3063   83.5454 C   0  0  0  0  0  0  0  0  0  0  0  0
   10.2895    8.1229   86.0984 N   0  0  0  0  0  0  0  0  0  0  0  0
    9.9340    7.1370   83.8210 O   0  0  0  0  0  0  0  0  0  0  0  0
   11.7111    6.1732   85.1101 O   0  0  0  0  0  0  0  0  0  0  0  0
   10.9849    7.4244   84.7850 S   0  0  0  0  0  0  0  0  0  0  0  0
    9.5823    7.4962   86.4824 H   0  0  0  0  0  0  0  0  0  0  0  0
    9.8515    9.0023   85.8240 H   0  0  0  0  0  0  0  0  0  0  0  0
   16.4825   10.9346   80.4949 O   0  0  0  0  0  0  0  0  0  0  0  0
   15.9580   11.6339   79.3321 C   0  0  0  0  0  0  0  0  0  0  0  0
   16.0822   10.5760   78.2092 C   0  0  0  0  0  0  0  0  0  0  0  0
 10 13  1  0  0  0
  1  2  2  0  0  0
  1  6  1  0  0  0
  1  9  1  0  0  0
  2  3  1  0  0  0
  2  7  1  0  0  0
  3  4  2  0  0  0
  4  8  1  0  0  0
  4 16  1  0  0  0
 17 16  1  0  0  0
 17 18  1  0  0  0
 11 13  2  0  0  0
 12 13  2  0  0  0
 13  5  1  0  0  0
  5  6  2  0  0  0
  5  7  1  0  0  0
  8  9  2  0  0  0
 10 14  1  0  0  0
 10 15  1  0  0  0
M  END
> <minimizedAffinity>
-6.53790

$$$$
3MDZ_EZL_A_264


 18 19  0  0  0  0  0  0  0  0999 V2000
   15.2037    7.8188   81.5903 C   0  0  0  0  0  0  0  0  0  0  0  0
   14.0058    7.5948   80.8564 C   0  0  0  0  0  0  0  0  0  0  0  0
   13.2732    6.4569   81.0664 C   0  0  0  0  0  0  0  0  0  0  0  0
   13.6382    5.4946   81.9980 C   0  0  0  0  0  0  0  0  0  0  0  0
   15.2041    9.7038   80.2640 C   0  0  0  0  0  0  0  0  0  0  0  0
   15.8478    8.9946   81.2370 N   0  0  0  0  0  0  0  0  0  0  0  0
   13.7199    8.9011   79.7627 S   0  0  0  0  0  0  0  0  0  0  0  0
   14.7994    5.6856   82.7709 C   0  0  0  0  0  0  0  0  0  0  0  0
   15.5604    6.8354   82.5503 C   0  0  0  0  0  0  0  0  0  0  0  0
   14.5279   11.8566   78.5223 N   0  0  0  0  0  0  0  0  0  0  0  0
   15.9810   12.1779   80.5399 O   0  0  0  0  0  0  0  0  0  0  0  0
   16.9068   10.8233   78.7916 O   0  0  0  0  0  0  0  0  0  0  0  0
   15.6654   11.2014   79.5089 S   0  0  0  0  0  0  0  0  0  0  0  0
   14.8824   12.7270   78.1258 H   0  0  0  0  0  0  0  0  0  0  0  0
   13.6816   12.0472   79.0588 H   0  0  0  0  0  0  0  0  0  0  0  0
   12.7724    4.4315   82.1072 O   0  0  0  0  0  0  0  0  0  0  0  0
   13.3865    3.1268   81.9149 C   0  0  0  0  0  0  0  0  0  0  0  0
   12.1669    2.1745   81.8779 C   0  0  0  0  0  0  0  0  0  0  0  0
 10 13  1  0  0  0
  1  2  2  0  0  0
  1  6  1  0  0  0
  1  9  1  0  0  0
  2  3  1  0  0  0
  2  7  1  0  0  0
  3  4  2  0  0  0
  4  8  1  0  0  0
  4 16  1  0  0  0
 17 16  1  0  0  0
 17 18  1  0  0  0
 11 13  2  0  0  0
 12 13  2  0  0  0
 13  5  1  0  0  0
  5  6  2  0  0  0
  5  7  1  0  0  0
  8  9  2  0  0  0
 10 14  1  0  0  0
 10 15  1  0  0  0
M  END
> <minimizedAffinity>
-6.47906

$$$$
3MDZ_EZL_A_264


 18 19  0  0  0  0  0  0  0  0999 V2000
   13.0250    8.2825   82.5868 C   0  0  0  0  0  0  0  0  0  0  0  0
   13.6187    9.5196   82.2115 C   0  0  0  0  0  0  0  0  0  0  0  0
   13.9942    9.7361   80.9124 C   0  0  0  0  0  0  0  0  0  0  0  0
   13.8017    8.7930   79.9120 C   0  0  0  0  0  0  0  0  0  0  0  0
   13.0721    9.3280   84.6403 C   0  0  0  0  0  0  0  0  0  0  0  0
   12.7365    8.2046   83.9407 N   0  0  0  0  0  0  0  0  0  0  0  0
   13.7629   10.5565   83.5857 S   0  0  0  0  0  0  0  0  0  0  0  0
   13.1900    7.5649   80.2276 C   0  0  0  0  0  0  0  0  0  0  0  0
   12.8198    7.3306   81.5534 C   0  0  0  0  0  0  0  0  0  0  0  0
   12.5235   11.1992   86.7195 N   0  0  0  0  0  0  0  0  0  0  0  0
   11.8914    8.7798   86.9001 O   0  0  0  0  0  0  0  0  0  0  0  0
   14.2434    9.2445   86.8633 O   0  0  0  0  0  0  0  0  0  0  0  0
   12.9155    9.6497   86.3426 S   0  0  0  0  0  0  0  0  0  0  0  0
   12.4533   11.2953   87.7326 H   0  0  0  0  0  0  0  0  0  0  0  0
   11.6282   11.4369   86.2926 H   0  0  0  0  0  0  0  0  0  0  0  0
   14.2038    9.1853   78.6565 O   0  0  0  0  0  0  0  0  0  0  0  0
   14.7215   10.5428   78.5819 C   0  0  0  0  0  0  0  0  0  0  0  0
   16.1342   10.3399   77.9831 C   0  0  0  0  0  0  0  0  0  0  0  0
 10 13  1  0  0  0
  1  2  2  0  0  0
  1  6  1  0  0  0
  1  9  1  0  0  0
  2  3  1  0  0  0
  2  7  1  0  0  0
  3  4  2  0  0  0
  4  8  1  0  0  0
  4 16  1  0  0  0
 17 16  1  0  0  0
 17 18  1  0  0  0
 11 13  2  0  0  0
 12 13  2  0  0  0
 13  5  1  0  0  0
  5  6  2  0  0  0
  5  7  1  0  0  0
  8  9  2  0  0  0
 10 14  1  0  0  0
 10 15  1  0  0  0
M  END
> <minimizedAffinity>
-6.42966

$$$$
3MDZ_EZL_A_264


 18 19  0  0  0  0  0  0  0  0999 V2000
   13.9363   10.5153   84.4023 C   0  0  0  0  0  0  0  0  0  0  0  0
   13.1384    9.4401   83.9219 C   0  0  0  0  0  0  0  0  0  0  0  0
   12.2972    8.7742   84.7731 C   0  0  0  0  0  0  0  0  0  0  0  0
   12.1645    9.1166   86.1119 C   0  0  0  0  0  0  0  0  0  0  0  0
   14.6374   10.4637   82.2072 C   0  0  0  0  0  0  0  0  0  0  0  0
   14.7600   11.0604   83.4292 N   0  0  0  0  0  0  0  0  0  0  0  0
   13.4374    9.1763   82.2410 S   0  0  0  0  0  0  0  0  0  0  0  0
   12.9104   10.1936   86.6275 C   0  0  0  0  0  0  0  0  0  0  0  0
   13.7826   10.8665   85.7695 C   0  0  0  0  0  0  0  0  0  0  0  0
   14.6368   10.5013   79.3570 N   0  0  0  0  0  0  0  0  0  0  0  0
   15.8779   12.2052   80.7142 O   0  0  0  0  0  0  0  0  0  0  0  0
   16.6977    9.9567   80.8588 O   0  0  0  0  0  0  0  0  0  0  0  0
   15.4878   10.8038   80.7285 S   0  0  0  0  0  0  0  0  0  0  0  0
   15.2100   10.7281   78.5443 H   0  0  0  0  0  0  0  0  0  0  0  0
   13.7923   11.0733   79.3478 H   0  0  0  0  0  0  0  0  0  0  0  0
   11.2505    8.3686   86.8166 O   0  0  0  0  0  0  0  0  0  0  0  0
   10.6471    7.2803   86.0629 C   0  0  0  0  0  0  0  0  0  0  0  0
    9.1812    7.2889   86.5595 C   0  0  0  0  0  0  0  0  0  0  0  0
 10 13  1  0  0  0
  1  2  2  0  0  0
  1  6  1  0  0  0
  1  9  1  0  0  0
  2  3  1  0  0  0
  2  7  1  0  0  0
  3  4  2  0  0  0
  4  8  1  0  0  0
  4 16  1  0  0  0
 17 16  1  0  0  0
 17 18  1  0  0  0
 11 13  2  0  0  0
 12 13  2  0  0  0
 13  5  1  0  0  0
  5  6  2  0  0  0
  5  7  1  0  0  0
  8  9  2  0  0  0
 10 14  1  0  0  0
 10 15  1  0  0  0
M  END
> <minimizedAffinity>
-6.41220

$$$$
3MDZ_EZL_A_264


 18 19  0  0  0  0  0  0  0  0999 V2000
   14.5818   10.3944   82.2196 C   0  0  0  0  0  0  0  0  0  0  0  0
   13.5181    9.4566   82.3326 C   0  0  0  0  0  0  0  0  0  0  0  0
   13.1804    8.6678   81.2653 C   0  0  0  0  0  0  0  0  0  0  0  0
   13.8538    8.7233   80.0526 C   0  0  0  0  0  0  0  0  0  0  0  0
   13.9142   10.8251   84.3832 C   0  0  0  0  0  0  0  0  0  0  0  0
   14.7751   11.1412   83.3717 N   0  0  0  0  0  0  0  0  0  0  0  0
   12.8175    9.5321   83.9099 S   0  0  0  0  0  0  0  0  0  0  0  0
   14.9338    9.6138   79.9013 C   0  0  0  0  0  0  0  0  0  0  0  0
   15.2730   10.4332   80.9799 C   0  0  0  0  0  0  0  0  0  0  0  0
   14.3268   13.0659   86.0960 N   0  0  0  0  0  0  0  0  0  0  0  0
   12.3890   11.5022   86.3874 O   0  0  0  0  0  0  0  0  0  0  0  0
   14.5574   10.5658   86.7997 O   0  0  0  0  0  0  0  0  0  0  0  0
   13.7830   11.5215   85.9718 S   0  0  0  0  0  0  0  0  0  0  0  0
   14.2118   13.3907   87.0561 H   0  0  0  0  0  0  0  0  0  0  0  0
   13.7925   13.6661   85.4677 H   0  0  0  0  0  0  0  0  0  0  0  0
   13.4093    7.8382   79.0983 O   0  0  0  0  0  0  0  0  0  0  0  0
   12.6072    6.7404   79.6159 C   0  0  0  0  0  0  0  0  0  0  0  0
   13.6326    5.5862   79.7244 C   0  0  0  0  0  0  0  0  0  0  0  0
 10 13  1  0  0  0
  1  2  2  0  0  0
  1  6  1  0  0  0
  1  9  1  0  0  0
  2  3  1  0  0  0
  2  7  1  0  0  0
  3  4  2  0  0  0
  4  8  1  0  0  0
  4 16  1  0  0  0
 17 16  1  0  0  0
 17 18  1  0  0  0
 11 13  2  0  0  0
 12 13  2  0  0  0
 13  5  1  0  0  0
  5  6  2  0  0  0
  5  7  1  0  0  0
  8  9  2  0  0  0
 10 14  1  0  0  0
 10 15  1  0  0  0
M  END
> <minimizedAffinity>
-6.17405

$$$$
3MDZ_EZL_A_264


 18 19  0  0  0  0  0  0  0  0999 V2000
   13.4469    8.0715   80.3816 C   0  0  0  0  0  0  0  0  0  0  0  0
   14.4320    7.9867   81.4044 C   0  0  0  0  0  0  0  0  0  0  0  0
   14.3023    7.0656   82.4095 C   0  0  0  0  0  0  0  0  0  0  0  0
   13.2410    6.1728   82.4723 C   0  0  0  0  0  0  0  0  0  0  0  0
   14.8461    9.7771   79.7139 C   0  0  0  0  0  0  0  0  0  0  0  0
   13.7020    9.0762   79.4608 N   0  0  0  0  0  0  0  0  0  0  0  0
   15.6675    9.1662   81.1458 S   0  0  0  0  0  0  0  0  0  0  0  0
   12.2564    6.1970   81.4663 C   0  0  0  0  0  0  0  0  0  0  0  0
   12.3733    7.1446   80.4475 C   0  0  0  0  0  0  0  0  0  0  0  0
   16.3870   12.1746   79.7647 N   0  0  0  0  0  0  0  0  0  0  0  0
   16.4014   10.6201   77.7978 O   0  0  0  0  0  0  0  0  0  0  0  0
   14.3249   11.7382   78.2297 O   0  0  0  0  0  0  0  0  0  0  0  0
   15.5252   11.1222   78.8448 S   0  0  0  0  0  0  0  0  0  0  0  0
   16.7453   12.9264   79.1758 H   0  0  0  0  0  0  0  0  0  0  0  0
   17.1672   11.6840   80.2020 H   0  0  0  0  0  0  0  0  0  0  0  0
   13.2827    5.2918   83.5276 O   0  0  0  0  0  0  0  0  0  0  0  0
   14.4932    4.4883   83.5997 C   0  0  0  0  0  0  0  0  0  0  0  0
   14.2484    3.4000   82.5268 C   0  0  0  0  0  0  0  0  0  0  0  0
 10 13  1  0  0  0
  1  2  2  0  0  0
  1  6  1  0  0  0
  1  9  1  0  0  0
  2  3  1  0  0  0
  2  7  1  0  0  0
  3  4  2  0  0  0
  4  8  1  0  0  0
  4 16  1  0  0  0
 17 16  1  0  0  0
 17 18  1  0  0  0
 11 13  2  0  0  0
 12 13  2  0  0  0
 13  5  1  0  0  0
  5  6  2  0  0  0
  5  7  1  0  0  0
  8  9  2  0  0  0
 10 14  1  0  0  0
 10 15  1  0  0  0
M  END
> <minimizedAffinity>
-6.03927

$$$$
3MDZ_EZL_A_264


 18 19  0  0  0  0  0  0  0  0999 V2000
   13.3677    8.1249   80.6692 C   0  0  0  0  0  0  0  0  0  0  0  0
   13.7268    8.6967   81.9212 C   0  0  0  0  0  0  0  0  0  0  0  0
   13.2236    8.1773   83.0842 C   0  0  0  0  0  0  0  0  0  0  0  0
   12.3744    7.0792   83.1060 C   0  0  0  0  0  0  0  0  0  0  0  0
   14.7157    9.8451   79.9368 C   0  0  0  0  0  0  0  0  0  0  0  0
   13.9287    8.7856   79.5870 N   0  0  0  0  0  0  0  0  0  0  0  0
   14.7908   10.0370   81.6849 S   0  0  0  0  0  0  0  0  0  0  0  0
   12.0143    6.4592   81.8944 C   0  0  0  0  0  0  0  0  0  0  0  0
   12.5102    6.9938   80.7036 C   0  0  0  0  0  0  0  0  0  0  0  0
   16.3315   10.2681   77.6269 N   0  0  0  0  0  0  0  0  0  0  0  0
   14.6547   11.9591   78.4109 O   0  0  0  0  0  0  0  0  0  0  0  0
   16.5241   11.5901   79.8662 O   0  0  0  0  0  0  0  0  0  0  0  0
   15.5800   10.9560   78.9148 S   0  0  0  0  0  0  0  0  0  0  0  0
   16.8097   10.9895   77.0872 H   0  0  0  0  0  0  0  0  0  0  0  0
   15.6400    9.8048   77.0374 H   0  0  0  0  0  0  0  0  0  0  0  0
   11.9902    6.6648   84.3599 O   0  0  0  0  0  0  0  0  0  0  0  0
   12.3834    7.5561   85.4404 C   0  0  0  0  0  0  0  0  0  0  0  0
   11.0395    7.8521   86.1487 C   0  0  0  0  0  0  0  0  0  0  0  0
 10 13  1  0  0  0
  1  2  2  0  0  0
  1  6  1  0  0  0
  1  9  1  0  0  0
  2  3  1  0  0  0
  2  7  1  0  0  0
  3  4  2  0  0  0
  4  8  1  0  0  0
  4 16  1  0  0  0
 17 16  1  0  0  0
 17 18  1  0  0  0
 11 13  2  0  0  0
 12 13  2  0  0  0
 13  5  1  0  0  0
  5  6  2  0  0  0
  5  7  1  0  0  0
  8  9  2  0  0  0
 10 14  1  0  0  0
 10 15  1  0  0  0
M  END
> <minimizedAffinity>
-5.89169

$$$$
3MDZ_EZL_A_264


 18 19  0  0  0  0  0  0  0  0999 V2000
   13.6107    6.2492   80.6438 C   0  0  0  0  0  0  0  0  0  0  0  0
   14.5169    6.8273   81.5755 C   0  0  0  0  0  0  0  0  0  0  0  0
   14.8709    8.1454   81.4633 C   0  0  0  0  0  0  0  0  0  0  0  0
   14.3617    8.9741   80.4727 C   0  0  0  0  0  0  0  0  0  0  0  0
   14.0654    4.3988   81.9405 C   0  0  0  0  0  0  0  0  0  0  0  0
   13.3828    4.9003   80.8697 N   0  0  0  0  0  0  0  0  0  0  0  0
   15.0266    5.6456   82.7280 S   0  0  0  0  0  0  0  0  0  0  0  0
   13.4378    8.4562   79.5452 C   0  0  0  0  0  0  0  0  0  0  0  0
   13.0850    7.1088   79.6433 C   0  0  0  0  0  0  0  0  0  0  0  0
   15.1644    1.7717   81.8145 N   0  0  0  0  0  0  0  0  0  0  0  0
   14.4290    2.8086   83.9753 O   0  0  0  0  0  0  0  0  0  0  0  0
   12.6875    2.3454   82.3937 O   0  0  0  0  0  0  0  0  0  0  0  0
   14.0975    2.7735   82.5593 S   0  0  0  0  0  0  0  0  0  0  0  0
   15.1151    0.8458   82.2396 H   0  0  0  0  0  0  0  0  0  0  0  0
   16.1086    2.1434   81.9175 H   0  0  0  0  0  0  0  0  0  0  0  0
   14.7943   10.2786   80.5253 O   0  0  0  0  0  0  0  0  0  0  0  0
   15.7820   10.6313   79.5172 C   0  0  0  0  0  0  0  0  0  0  0  0
   15.0405   11.6885   78.6638 C   0  0  0  0  0  0  0  0  0  0  0  0
 10 13  1  0  0  0
  1  2  2  0  0  0
  1  6  1  0  0  0
  1  9  1  0  0  0
  2  3  1  0  0  0
  2  7  1  0  0  0
  3  4  2  0  0  0
  4  8  1  0  0  0
  4 16  1  0  0  0
 17 16  1  0  0  0
 17 18  1  0  0  0
 11 13  2  0  0  0
 12 13  2  0  0  0
 13  5  1  0  0  0
  5  6  2  0  0  0
  5  7  1  0  0  0
  8  9  2  0  0  0
 10 14  1  0  0  0
 10 15  1  0  0  0
M  END
> <minimizedAffinity>
-5.86737

$$$$
3MDZ_EZL_A_264


 18 19  0  0  0  0  0  0  0  0999 V2000
   14.7174    6.0400   82.4120 C   0  0  0  0  0  0  0  0  0  0  0  0
   13.6919    6.0171   81.4264 C   0  0  0  0  0  0  0  0  0  0  0  0
   13.0046    4.8594   81.1758 C   0  0  0  0  0  0  0  0  0  0  0  0
   13.2497    3.6805   81.8668 C   0  0  0  0  0  0  0  0  0  0  0  0
   14.8469    8.2177   81.6680 C   0  0  0  0  0  0  0  0  0  0  0  0
   15.3421    7.2731   82.5204 N   0  0  0  0  0  0  0  0  0  0  0  0
   13.5332    7.5719   80.6904 S   0  0  0  0  0  0  0  0  0  0  0  0
   14.2340    3.6607   82.8732 C   0  0  0  0  0  0  0  0  0  0  0  0
   14.9503    4.8330   83.1226 C   0  0  0  0  0  0  0  0  0  0  0  0
   14.9143   10.8888   82.6608 N   0  0  0  0  0  0  0  0  0  0  0  0
   16.7948    9.9160   81.3183 O   0  0  0  0  0  0  0  0  0  0  0  0
   14.7236   10.2168   80.1486 O   0  0  0  0  0  0  0  0  0  0  0  0
   15.3467    9.8692   81.4484 S   0  0  0  0  0  0  0  0  0  0  0  0
   15.2468   11.8295   82.4488 H   0  0  0  0  0  0  0  0  0  0  0  0
   15.3293   10.5708   83.5367 H   0  0  0  0  0  0  0  0  0  0  0  0
   12.4457    2.6214   81.5154 O   0  0  0  0  0  0  0  0  0  0  0  0
   12.0924    1.7370   82.6150 C   0  0  0  0  0  0  0  0  0  0  0  0
   10.5525    1.8756   82.6870 C   0  0  0  0  0  0  0  0  0  0  0  0
 10 13  1  0  0  0
  1  2  2  0  0  0
  1  6  1  0  0  0
  1  9  1  0  0  0
  2  3  1  0  0  0
  2  7  1  0  0  0
  3  4  2  0  0  0
  4  8  1  0  0  0
  4 16  1  0  0  0
 17 16  1  0  0  0
 17 18  1  0  0  0
 11 13  2  0  0  0
 12 13  2  0  0  0
 13  5  1  0  0  0
  5  6  2  0  0  0
  5  7  1  0  0  0
  8  9  2  0  0  0
 10 14  1  0  0  0
 10 15  1  0  0  0
M  END
> <minimizedAffinity>
-5.70907

$$$$
