2X95_X95_A_1623


 43 45  0  0  0  0  0  0  0  0999 V2000
   28.0061   -5.5519  -28.6681 C   0  0  0  0  0  0  0  0  0  0  0  0
   27.1241   -4.0591  -26.9896 O   0  0  0  0  0  0  0  0  0  0  0  0
   27.9136   -4.9680  -27.2433 C   0  0  0  0  0  0  0  0  0  0  0  0
   28.7437   -5.5536  -26.3725 N   0  0  0  0  0  0  0  0  0  0  0  0
   29.1814   -6.3732  -26.6979 H   0  0  0  0  0  0  0  0  0  0  0  0
   29.1061   -5.1503  -24.9800 C   0  0  0  0  0  0  0  0  0  0  0  0
   31.2016   -4.1254  -24.8245 O   0  0  0  0  0  0  0  0  0  0  0  0
   29.4531   -2.7615  -24.9012 O   0  0  0  0  0  0  0  0  0  0  0  0
   29.9829   -3.8877  -24.9119 C   0  0  0  0  0  0  0  0  0  0  0  0
   31.5088   -5.0105  -24.8417 H   0  0  0  0  0  0  0  0  0  0  0  0
   27.9568   -5.2796  -23.9705 C   0  0  0  0  0  0  0  0  0  0  0  0
   26.8619  -10.3927  -22.5783 C   0  0  0  0  0  0  0  0  0  0  0  0
   26.2302   -9.6485  -23.5728 C   0  0  0  0  0  0  0  0  0  0  0  0
   27.8936   -9.8169  -21.8372 C   0  0  0  0  0  0  0  0  0  0  0  0
   26.6299   -8.3357  -23.8223 C   0  0  0  0  0  0  0  0  0  0  0  0
   29.2108   -6.5296  -22.1311 C   0  0  0  0  0  0  0  0  0  0  0  0
   28.2802   -6.4990  -23.0831 C   0  0  0  0  0  0  0  0  0  0  0  0
   28.2880   -8.4997  -22.0880 C   0  0  0  0  0  0  0  0  0  0  0  0
   27.6607   -7.7545  -23.0785 C   0  0  0  0  0  0  0  0  0  0  0  0
   29.2202   -7.7256  -21.5387 N   0  0  0  0  0  0  0  0  0  0  0  0
   29.8235   -7.9934  -20.8082 H   0  0  0  0  0  0  0  0  0  0  0  0
   27.7212   -6.9963  -28.6724 N   0  0  0  0  0  0  0  0  0  0  0  0
   27.7269   -7.3232  -27.7062 H   0  0  0  0  0  0  0  0  0  0  0  0
   28.6745   -7.8123  -29.4358 C   0  0  0  0  0  0  0  0  0  0  0  0
   27.9445   -8.5877  -30.5231 C   0  0  0  0  0  0  0  0  0  0  0  0
   26.7896   -8.9899  -30.2658 O   0  0  0  0  0  0  0  0  0  0  0  0
   28.5578   -8.7492  -31.5985 O   0  0  0  0  0  0  0  0  0  0  0  0
   26.4106   -8.8201  -29.4259 H   0  0  0  0  0  0  0  0  0  0  0  0
   29.3914   -8.7779  -28.4857 C   0  0  0  0  0  0  0  0  0  0  0  0
   28.6065   -8.9178  -27.1833 C   0  0  0  0  0  0  0  0  0  0  0  0
   31.0695   -9.9776  -23.7830 C   0  0  0  0  0  0  0  0  0  0  0  0
   31.2422   -8.7523  -24.4313 C   0  0  0  0  0  0  0  0  0  0  0  0
   30.0993  -10.8725  -24.2345 C   0  0  0  0  0  0  0  0  0  0  0  0
   30.4439   -8.4236  -25.5264 C   0  0  0  0  0  0  0  0  0  0  0  0
   29.4678   -9.3154  -25.9785 C   0  0  0  0  0  0  0  0  0  0  0  0
   29.2957  -10.5391  -25.3268 C   0  0  0  0  0  0  0  0  0  0  0  0
   26.8982   -4.9591  -29.5590 C   0  0  0  0  0  0  0  0  0  0  0  0
   25.6637   -5.8330  -29.7752 C   0  0  0  0  0  0  0  0  0  0  0  0
   25.1174   -5.6512  -31.1975 C   0  0  0  0  0  0  0  0  0  0  0  0
   23.2047   -4.6526  -32.3694 N   0  0  0  0  0  0  0  0  0  0  0  0
   23.6022   -5.4489  -31.1924 C   0  0  0  0  0  0  0  0  0  0  0  0
   22.1935   -4.5190  -32.3638 H   0  0  0  0  0  0  0  0  0  0  0  0
   23.4780   -5.1439  -33.2205 H   0  0  0  0  0  0  0  0  0  0  0  0
 25 27  2  0  0  0
 25 24  1  0  0  0
 25 26  1  0  0  0
 22 24  1  0  0  0
 22  1  1  0  0  0
 24 29  1  0  0  0
 29 30  1  0  0  0
 40 41  1  0  0  0
  7  9  1  0  0  0
  2  3  2  0  0  0
  8  9  2  0  0  0
 31 32  1  0  0  0
 31 33  2  0  0  0
 32 34  2  0  0  0
 33 36  1  0  0  0
 12 13  1  0  0  0
 12 14  2  0  0  0
 13 15  2  0  0  0
 34 35  1  0  0  0
 36 35  2  0  0  0
 14 18  1  0  0  0
 15 19  1  0  0  0
 16 17  2  0  0  0
 16 20  1  0  0  0
 41 39  1  0  0  0
 39 38  1  0  0  0
 38 37  1  0  0  0
 30 35  1  0  0  0
 37  1  1  0  0  0
 11 17  1  0  0  0
 11  6  1  0  0  0
  4  3  1  0  0  0
  4  6  1  0  0  0
  9  6  1  0  0  0
  3  1  1  0  0  0
 17 19  1  0  0  0
 18 19  2  0  0  0
 18 20  1  0  0  0
 26 28  1  0  0  0
 40 42  1  0  0  0
 40 43  1  0  0  0
 22 23  1  0  0  0
  7 10  1  0  0  0
  4  5  1  0  0  0
 20 21  1  0  0  0
M  END
> <minimizedAffinity>
-8.66865

$$$$
2X95_X95_A_1623


 43 45  0  0  0  0  0  0  0  0999 V2000
   27.1541   -5.7798  -26.9977 C   0  0  0  0  0  0  0  0  0  0  0  0
   26.8882   -4.2129  -28.8136 O   0  0  0  0  0  0  0  0  0  0  0  0
   26.8318   -5.3883  -28.4545 C   0  0  0  0  0  0  0  0  0  0  0  0
   26.5160   -6.4323  -29.2295 N   0  0  0  0  0  0  0  0  0  0  0  0
   26.6836   -7.3161  -28.8296 H   0  0  0  0  0  0  0  0  0  0  0  0
   25.9472   -6.4580  -30.6110 C   0  0  0  0  0  0  0  0  0  0  0  0
   24.9116   -4.4461  -31.1992 O   0  0  0  0  0  0  0  0  0  0  0  0
   23.5727   -6.0480  -30.4476 O   0  0  0  0  0  0  0  0  0  0  0  0
   24.6846   -5.5939  -30.7745 C   0  0  0  0  0  0  0  0  0  0  0  0
   25.7861   -4.1931  -31.4210 H   0  0  0  0  0  0  0  0  0  0  0  0
   27.0022   -6.4027  -31.7248 C   0  0  0  0  0  0  0  0  0  0  0  0
   31.9318   -6.5616  -29.4991 C   0  0  0  0  0  0  0  0  0  0  0  0
   31.1620   -5.4240  -29.7337 C   0  0  0  0  0  0  0  0  0  0  0  0
   31.4309   -7.8162  -29.8459 C   0  0  0  0  0  0  0  0  0  0  0  0
   29.8985   -5.5434  -30.3124 C   0  0  0  0  0  0  0  0  0  0  0  0
   28.2956   -8.5698  -31.3390 C   0  0  0  0  0  0  0  0  0  0  0  0
   28.2012   -7.2450  -31.2432 C   0  0  0  0  0  0  0  0  0  0  0  0
   30.1661   -7.9305  -30.4294 C   0  0  0  0  0  0  0  0  0  0  0  0
   29.3956   -6.7988  -30.6649 C   0  0  0  0  0  0  0  0  0  0  0  0
   29.4668   -8.9817  -30.8490 N   0  0  0  0  0  0  0  0  0  0  0  0
   29.7668   -9.9183  -30.8049 H   0  0  0  0  0  0  0  0  0  0  0  0
   26.7780   -7.1768  -26.7249 N   0  0  0  0  0  0  0  0  0  0  0  0
   26.1050   -7.1798  -25.9584 H   0  0  0  0  0  0  0  0  0  0  0  0
   27.8943   -8.0569  -26.3554 C   0  0  0  0  0  0  0  0  0  0  0  0
   28.1354   -9.0833  -27.4530 C   0  0  0  0  0  0  0  0  0  0  0  0
   27.1490   -9.4429  -28.1308 O   0  0  0  0  0  0  0  0  0  0  0  0
   29.3114   -9.4766  -27.5984 O   0  0  0  0  0  0  0  0  0  0  0  0
   26.3005   -9.0908  -27.9466 H   0  0  0  0  0  0  0  0  0  0  0  0
   27.5703   -8.7604  -25.0329 C   0  0  0  0  0  0  0  0  0  0  0  0
   28.8489   -9.2959  -24.3922 C   0  0  0  0  0  0  0  0  0  0  0  0
   31.2978   -6.2299  -22.5608 C   0  0  0  0  0  0  0  0  0  0  0  0
   30.1394   -6.6866  -21.9277 C   0  0  0  0  0  0  0  0  0  0  0  0
   31.6703   -6.7603  -23.7962 C   0  0  0  0  0  0  0  0  0  0  0  0
   29.3583   -7.6730  -22.5288 C   0  0  0  0  0  0  0  0  0  0  0  0
   29.7308   -8.2101  -23.7638 C   0  0  0  0  0  0  0  0  0  0  0  0
   30.8910   -7.7532  -24.3937 C   0  0  0  0  0  0  0  0  0  0  0  0
   28.6768   -5.7602  -26.7659 C   0  0  0  0  0  0  0  0  0  0  0  0
   29.1970   -4.7200  -25.7750 C   0  0  0  0  0  0  0  0  0  0  0  0
   28.2784   -4.6375  -24.5487 C   0  0  0  0  0  0  0  0  0  0  0  0
   28.9005   -2.2769  -24.8119 N   0  0  0  0  0  0  0  0  0  0  0  0
   27.8981   -3.1912  -24.2317 C   0  0  0  0  0  0  0  0  0  0  0  0
   28.6447   -1.3127  -24.5992 H   0  0  0  0  0  0  0  0  0  0  0  0
   28.9324   -2.4049  -25.8234 H   0  0  0  0  0  0  0  0  0  0  0  0
 25 27  2  0  0  0
 25 24  1  0  0  0
 25 26  1  0  0  0
 22 24  1  0  0  0
 22  1  1  0  0  0
 24 29  1  0  0  0
 29 30  1  0  0  0
 40 41  1  0  0  0
  7  9  1  0  0  0
  2  3  2  0  0  0
  8  9  2  0  0  0
 31 32  1  0  0  0
 31 33  2  0  0  0
 32 34  2  0  0  0
 33 36  1  0  0  0
 12 13  1  0  0  0
 12 14  2  0  0  0
 13 15  2  0  0  0
 34 35  1  0  0  0
 36 35  2  0  0  0
 14 18  1  0  0  0
 15 19  1  0  0  0
 16 17  2  0  0  0
 16 20  1  0  0  0
 41 39  1  0  0  0
 39 38  1  0  0  0
 38 37  1  0  0  0
 30 35  1  0  0  0
 37  1  1  0  0  0
 11 17  1  0  0  0
 11  6  1  0  0  0
  4  3  1  0  0  0
  4  6  1  0  0  0
  9  6  1  0  0  0
  3  1  1  0  0  0
 17 19  1  0  0  0
 18 19  2  0  0  0
 18 20  1  0  0  0
 26 28  1  0  0  0
 40 42  1  0  0  0
 40 43  1  0  0  0
 22 23  1  0  0  0
  7 10  1  0  0  0
  4  5  1  0  0  0
 20 21  1  0  0  0
M  END
> <minimizedAffinity>
-8.59980

$$$$
2X95_X95_A_1623


 43 45  0  0  0  0  0  0  0  0999 V2000
   28.2311   -7.4664  -26.1430 C   0  0  0  0  0  0  0  0  0  0  0  0
   27.5646   -9.4210  -27.3915 O   0  0  0  0  0  0  0  0  0  0  0  0
   27.8579   -8.2268  -27.4322 C   0  0  0  0  0  0  0  0  0  0  0  0
   27.8808   -7.4604  -28.5286 N   0  0  0  0  0  0  0  0  0  0  0  0
   27.9694   -6.4941  -28.3619 H   0  0  0  0  0  0  0  0  0  0  0  0
   27.7922   -7.8508  -29.9683 C   0  0  0  0  0  0  0  0  0  0  0  0
   25.6748   -6.8597  -29.9622 O   0  0  0  0  0  0  0  0  0  0  0  0
   26.6229   -7.1206  -31.9513 O   0  0  0  0  0  0  0  0  0  0  0  0
   26.6068   -7.2087  -30.7098 C   0  0  0  0  0  0  0  0  0  0  0  0
   25.7537   -6.9652  -29.0345 H   0  0  0  0  0  0  0  0  0  0  0  0
   29.1466   -7.8996  -30.6893 C   0  0  0  0  0  0  0  0  0  0  0  0
   29.1564  -12.8325  -32.9136 C   0  0  0  0  0  0  0  0  0  0  0  0
   28.5163  -11.6984  -33.4094 C   0  0  0  0  0  0  0  0  0  0  0  0
   29.8904  -12.7477  -31.7307 C   0  0  0  0  0  0  0  0  0  0  0  0
   28.6112  -10.4875  -32.7237 C   0  0  0  0  0  0  0  0  0  0  0  0
   30.3811   -9.8910  -29.6750 C   0  0  0  0  0  0  0  0  0  0  0  0
   29.6252   -9.3649  -30.6370 C   0  0  0  0  0  0  0  0  0  0  0  0
   29.9792  -11.5332  -31.0449 C   0  0  0  0  0  0  0  0  0  0  0  0
   29.3425  -10.4003  -31.5358 C   0  0  0  0  0  0  0  0  0  0  0  0
   30.5975  -11.1851  -29.9194 N   0  0  0  0  0  0  0  0  0  0  0  0
   31.1320  -11.7887  -29.3544 H   0  0  0  0  0  0  0  0  0  0  0  0
   27.1989   -6.4783  -25.7885 N   0  0  0  0  0  0  0  0  0  0  0  0
   26.4296   -6.5720  -26.4517 H   0  0  0  0  0  0  0  0  0  0  0  0
   27.6489   -5.0803  -25.8063 C   0  0  0  0  0  0  0  0  0  0  0  0
   26.8499   -4.2875  -26.8307 C   0  0  0  0  0  0  0  0  0  0  0  0
   26.3939   -3.1804  -26.4726 O   0  0  0  0  0  0  0  0  0  0  0  0
   26.7247   -4.8049  -27.9600 O   0  0  0  0  0  0  0  0  0  0  0  0
   26.5399   -2.8739  -25.5993 H   0  0  0  0  0  0  0  0  0  0  0  0
   29.1427   -5.0318  -26.1456 C   0  0  0  0  0  0  0  0  0  0  0  0
   29.9312   -4.4446  -24.9769 C   0  0  0  0  0  0  0  0  0  0  0  0
   30.6404   -7.2505  -21.7559 C   0  0  0  0  0  0  0  0  0  0  0  0
   31.4849   -7.2170  -22.8681 C   0  0  0  0  0  0  0  0  0  0  0  0
   29.5551   -6.3772  -21.6802 C   0  0  0  0  0  0  0  0  0  0  0  0
   31.2447   -6.3100  -23.8996 C   0  0  0  0  0  0  0  0  0  0  0  0
   30.1615   -5.4304  -23.8251 C   0  0  0  0  0  0  0  0  0  0  0  0
   29.3199   -5.4645  -22.7106 C   0  0  0  0  0  0  0  0  0  0  0  0
   28.2418   -8.4297  -24.9412 C   0  0  0  0  0  0  0  0  0  0  0  0
   27.1594   -8.2073  -23.8860 C   0  0  0  0  0  0  0  0  0  0  0  0
   26.3108   -9.4735  -23.7095 C   0  0  0  0  0  0  0  0  0  0  0  0
   26.2897  -11.2831  -25.3689 N   0  0  0  0  0  0  0  0  0  0  0  0
   27.0387  -10.7114  -24.2332 C   0  0  0  0  0  0  0  0  0  0  0  0
   26.7773  -12.1088  -25.7166 H   0  0  0  0  0  0  0  0  0  0  0  0
   26.2208  -10.5900  -26.1141 H   0  0  0  0  0  0  0  0  0  0  0  0
 25 27  2  0  0  0
 25 24  1  0  0  0
 25 26  1  0  0  0
 22 24  1  0  0  0
 22  1  1  0  0  0
 24 29  1  0  0  0
 29 30  1  0  0  0
 40 41  1  0  0  0
  7  9  1  0  0  0
  2  3  2  0  0  0
  8  9  2  0  0  0
 31 32  1  0  0  0
 31 33  2  0  0  0
 32 34  2  0  0  0
 33 36  1  0  0  0
 12 13  1  0  0  0
 12 14  2  0  0  0
 13 15  2  0  0  0
 34 35  1  0  0  0
 36 35  2  0  0  0
 14 18  1  0  0  0
 15 19  1  0  0  0
 16 17  2  0  0  0
 16 20  1  0  0  0
 41 39  1  0  0  0
 39 38  1  0  0  0
 38 37  1  0  0  0
 30 35  1  0  0  0
 37  1  1  0  0  0
 11 17  1  0  0  0
 11  6  1  0  0  0
  4  3  1  0  0  0
  4  6  1  0  0  0
  9  6  1  0  0  0
  3  1  1  0  0  0
 17 19  1  0  0  0
 18 19  2  0  0  0
 18 20  1  0  0  0
 26 28  1  0  0  0
 40 42  1  0  0  0
 40 43  1  0  0  0
 22 23  1  0  0  0
  7 10  1  0  0  0
  4  5  1  0  0  0
 20 21  1  0  0  0
M  END
> <minimizedAffinity>
-8.56551

$$$$
2X95_X95_A_1623


 43 45  0  0  0  0  0  0  0  0999 V2000
   27.1245   -5.8997  -28.8109 C   0  0  0  0  0  0  0  0  0  0  0  0
   26.6986   -8.2509  -28.4734 O   0  0  0  0  0  0  0  0  0  0  0  0
   27.5372   -7.3507  -28.4890 C   0  0  0  0  0  0  0  0  0  0  0  0
   28.8472   -7.4933  -28.2572 N   0  0  0  0  0  0  0  0  0  0  0  0
   29.3988   -6.7078  -28.4762 H   0  0  0  0  0  0  0  0  0  0  0  0
   29.5987   -8.6659  -27.7159 C   0  0  0  0  0  0  0  0  0  0  0  0
   29.3733  -10.6346  -28.9566 O   0  0  0  0  0  0  0  0  0  0  0  0
   31.1631   -9.4012  -29.4027 O   0  0  0  0  0  0  0  0  0  0  0  0
   30.0976   -9.6341  -28.8027 C   0  0  0  0  0  0  0  0  0  0  0  0
   28.5853  -10.7238  -28.4574 H   0  0  0  0  0  0  0  0  0  0  0  0
   30.5589   -8.3203  -26.5690 C   0  0  0  0  0  0  0  0  0  0  0  0
   26.7081   -9.3628  -22.9130 C   0  0  0  0  0  0  0  0  0  0  0  0
   26.6334   -8.4473  -23.9610 C   0  0  0  0  0  0  0  0  0  0  0  0
   27.8657  -10.1218  -22.7423 C   0  0  0  0  0  0  0  0  0  0  0  0
   27.7122   -8.2937  -24.8318 C   0  0  0  0  0  0  0  0  0  0  0  0
   30.8276  -10.0431  -24.7040 C   0  0  0  0  0  0  0  0  0  0  0  0
   30.0955   -9.1318  -25.3419 C   0  0  0  0  0  0  0  0  0  0  0  0
   28.9456   -9.9615  -23.6149 C   0  0  0  0  0  0  0  0  0  0  0  0
   28.8751   -9.0499  -24.6608 C   0  0  0  0  0  0  0  0  0  0  0  0
   30.1406  -10.5432  -23.6748 N   0  0  0  0  0  0  0  0  0  0  0  0
   30.4675  -11.2355  -23.0558 H   0  0  0  0  0  0  0  0  0  0  0  0
   27.9936   -4.9322  -28.1209 N   0  0  0  0  0  0  0  0  0  0  0  0
   28.9446   -5.0570  -28.4678 H   0  0  0  0  0  0  0  0  0  0  0  0
   28.0212   -5.0594  -26.6579 C   0  0  0  0  0  0  0  0  0  0  0  0
   26.7734   -4.4298  -26.0554 C   0  0  0  0  0  0  0  0  0  0  0  0
   26.4949   -3.2614  -26.4005 O   0  0  0  0  0  0  0  0  0  0  0  0
   26.1153   -5.1417  -25.2687 O   0  0  0  0  0  0  0  0  0  0  0  0
   27.0521   -2.8044  -26.9993 H   0  0  0  0  0  0  0  0  0  0  0  0
   29.2783   -4.3734  -26.1119 C   0  0  0  0  0  0  0  0  0  0  0  0
   29.1383   -4.1314  -24.6106 C   0  0  0  0  0  0  0  0  0  0  0  0
   31.0449   -7.1806  -22.1984 C   0  0  0  0  0  0  0  0  0  0  0  0
   31.7150   -6.6108  -23.2836 C   0  0  0  0  0  0  0  0  0  0  0  0
   29.7483   -6.7698  -21.8882 C   0  0  0  0  0  0  0  0  0  0  0  0
   31.0893   -5.6311  -24.0539 C   0  0  0  0  0  0  0  0  0  0  0  0
   29.7925   -5.2136  -23.7433 C   0  0  0  0  0  0  0  0  0  0  0  0
   29.1256   -5.7834  -22.6560 C   0  0  0  0  0  0  0  0  0  0  0  0
   27.3571   -5.5990  -30.3035 C   0  0  0  0  0  0  0  0  0  0  0  0
   26.1492   -5.0874  -31.0869 C   0  0  0  0  0  0  0  0  0  0  0  0
   24.8632   -5.7677  -30.5991 C   0  0  0  0  0  0  0  0  0  0  0  0
   23.3347   -6.4114  -32.4096 N   0  0  0  0  0  0  0  0  0  0  0  0
   23.6563   -5.3482  -31.4381 C   0  0  0  0  0  0  0  0  0  0  0  0
   22.5292   -6.1293  -32.9682 H   0  0  0  0  0  0  0  0  0  0  0  0
   23.1169   -7.2737  -31.9103 H   0  0  0  0  0  0  0  0  0  0  0  0
 25 27  2  0  0  0
 25 24  1  0  0  0
 25 26  1  0  0  0
 22 24  1  0  0  0
 22  1  1  0  0  0
 24 29  1  0  0  0
 29 30  1  0  0  0
 40 41  1  0  0  0
  7  9  1  0  0  0
  2  3  2  0  0  0
  8  9  2  0  0  0
 31 32  1  0  0  0
 31 33  2  0  0  0
 32 34  2  0  0  0
 33 36  1  0  0  0
 12 13  1  0  0  0
 12 14  2  0  0  0
 13 15  2  0  0  0
 34 35  1  0  0  0
 36 35  2  0  0  0
 14 18  1  0  0  0
 15 19  1  0  0  0
 16 17  2  0  0  0
 16 20  1  0  0  0
 41 39  1  0  0  0
 39 38  1  0  0  0
 38 37  1  0  0  0
 30 35  1  0  0  0
 37  1  1  0  0  0
 11 17  1  0  0  0
 11  6  1  0  0  0
  4  3  1  0  0  0
  4  6  1  0  0  0
  9  6  1  0  0  0
  3  1  1  0  0  0
 17 19  1  0  0  0
 18 19  2  0  0  0
 18 20  1  0  0  0
 26 28  1  0  0  0
 40 42  1  0  0  0
 40 43  1  0  0  0
 22 23  1  0  0  0
  7 10  1  0  0  0
  4  5  1  0  0  0
 20 21  1  0  0  0
M  END
> <minimizedAffinity>
-8.53909

$$$$
2X95_X95_A_1623


 43 45  0  0  0  0  0  0  0  0999 V2000
   30.8810   -5.8610  -27.6127 C   0  0  0  0  0  0  0  0  0  0  0  0
   31.2920   -5.0866  -25.3644 O   0  0  0  0  0  0  0  0  0  0  0  0
   30.4748   -5.2063  -26.2764 C   0  0  0  0  0  0  0  0  0  0  0  0
   29.2005   -4.7995  -26.2479 N   0  0  0  0  0  0  0  0  0  0  0  0
   28.7362   -4.8169  -27.1158 H   0  0  0  0  0  0  0  0  0  0  0  0
   28.3762   -4.3226  -25.0963 C   0  0  0  0  0  0  0  0  0  0  0  0
   26.8884   -2.5871  -25.5865 O   0  0  0  0  0  0  0  0  0  0  0  0
   28.8892   -1.9758  -24.8472 O   0  0  0  0  0  0  0  0  0  0  0  0
   28.0340   -2.8239  -25.1613 C   0  0  0  0  0  0  0  0  0  0  0  0
   26.3116   -3.2946  -25.7979 H   0  0  0  0  0  0  0  0  0  0  0  0
   27.2639   -5.2938  -24.6766 C   0  0  0  0  0  0  0  0  0  0  0  0
   27.3430  -10.2973  -22.6176 C   0  0  0  0  0  0  0  0  0  0  0  0
   26.4906   -9.8210  -23.6117 C   0  0  0  0  0  0  0  0  0  0  0  0
   28.2987   -9.4461  -22.0632 C   0  0  0  0  0  0  0  0  0  0  0  0
   26.5954   -8.4999  -24.0469 C   0  0  0  0  0  0  0  0  0  0  0  0
   28.8985   -6.0356  -22.8611 C   0  0  0  0  0  0  0  0  0  0  0  0
   27.9014   -6.3049  -23.7017 C   0  0  0  0  0  0  0  0  0  0  0  0
   28.3972   -8.1220  -22.4996 C   0  0  0  0  0  0  0  0  0  0  0  0
   27.5493   -7.6433  -23.4904 C   0  0  0  0  0  0  0  0  0  0  0  0
   29.1993   -7.1213  -22.1454 N   0  0  0  0  0  0  0  0  0  0  0  0
   29.9053   -7.1736  -21.4613 H   0  0  0  0  0  0  0  0  0  0  0  0
   30.7334   -7.3247  -27.5565 N   0  0  0  0  0  0  0  0  0  0  0  0
   30.4575   -7.6511  -28.4826 H   0  0  0  0  0  0  0  0  0  0  0  0
   29.7416   -7.8094  -26.5876 C   0  0  0  0  0  0  0  0  0  0  0  0
   30.4027   -8.7492  -25.5895 C   0  0  0  0  0  0  0  0  0  0  0  0
   29.9323   -9.9024  -25.4868 O   0  0  0  0  0  0  0  0  0  0  0  0
   31.3787   -8.2933  -24.9583 O   0  0  0  0  0  0  0  0  0  0  0  0
   29.1936  -10.1549  -26.0049 H   0  0  0  0  0  0  0  0  0  0  0  0
   28.6154   -8.5339  -27.3329 C   0  0  0  0  0  0  0  0  0  0  0  0
   27.4235   -7.5990  -27.5270 C   0  0  0  0  0  0  0  0  0  0  0  0
   26.2147   -7.0313  -31.6462 C   0  0  0  0  0  0  0  0  0  0  0  0
   25.7827   -6.1513  -30.6510 C   0  0  0  0  0  0  0  0  0  0  0  0
   27.0391   -8.1064  -31.3137 C   0  0  0  0  0  0  0  0  0  0  0  0
   26.1774   -6.3461  -29.3278 C   0  0  0  0  0  0  0  0  0  0  0  0
   27.0072   -7.4190  -28.9918 C   0  0  0  0  0  0  0  0  0  0  0  0
   27.4396   -8.2962  -29.9894 C   0  0  0  0  0  0  0  0  0  0  0  0
   29.9078   -5.4390  -28.7295 C   0  0  0  0  0  0  0  0  0  0  0  0
   30.3346   -5.7684  -30.1592 C   0  0  0  0  0  0  0  0  0  0  0  0
   29.3430   -5.1739  -31.1680 C   0  0  0  0  0  0  0  0  0  0  0  0
   29.3315   -3.2387  -32.6791 N   0  0  0  0  0  0  0  0  0  0  0  0
   30.0674   -4.4637  -32.3114 C   0  0  0  0  0  0  0  0  0  0  0  0
   29.8167   -2.7666  -33.4421 H   0  0  0  0  0  0  0  0  0  0  0  0
   29.2812   -2.6171  -31.8720 H   0  0  0  0  0  0  0  0  0  0  0  0
 25 27  2  0  0  0
 25 24  1  0  0  0
 25 26  1  0  0  0
 22 24  1  0  0  0
 22  1  1  0  0  0
 24 29  1  0  0  0
 29 30  1  0  0  0
 40 41  1  0  0  0
  7  9  1  0  0  0
  2  3  2  0  0  0
  8  9  2  0  0  0
 31 32  1  0  0  0
 31 33  2  0  0  0
 32 34  2  0  0  0
 33 36  1  0  0  0
 12 13  1  0  0  0
 12 14  2  0  0  0
 13 15  2  0  0  0
 34 35  1  0  0  0
 36 35  2  0  0  0
 14 18  1  0  0  0
 15 19  1  0  0  0
 16 17  2  0  0  0
 16 20  1  0  0  0
 41 39  1  0  0  0
 39 38  1  0  0  0
 38 37  1  0  0  0
 30 35  1  0  0  0
 37  1  1  0  0  0
 11 17  1  0  0  0
 11  6  1  0  0  0
  4  3  1  0  0  0
  4  6  1  0  0  0
  9  6  1  0  0  0
  3  1  1  0  0  0
 17 19  1  0  0  0
 18 19  2  0  0  0
 18 20  1  0  0  0
 26 28  1  0  0  0
 40 42  1  0  0  0
 40 43  1  0  0  0
 22 23  1  0  0  0
  7 10  1  0  0  0
  4  5  1  0  0  0
 20 21  1  0  0  0
M  END
> <minimizedAffinity>
-8.47345

$$$$
2X95_X95_A_1623


 43 45  0  0  0  0  0  0  0  0999 V2000
   28.7323   -8.7538  -27.2334 C   0  0  0  0  0  0  0  0  0  0  0  0
   27.2039  -10.2874  -26.1677 O   0  0  0  0  0  0  0  0  0  0  0  0
   28.1985   -9.5742  -26.0412 C   0  0  0  0  0  0  0  0  0  0  0  0
   28.9228   -9.4269  -24.9259 N   0  0  0  0  0  0  0  0  0  0  0  0
   29.7795   -8.9560  -25.0425 H   0  0  0  0  0  0  0  0  0  0  0  0
   28.6267   -9.8699  -23.5298 C   0  0  0  0  0  0  0  0  0  0  0  0
   28.9446  -11.6547  -22.0536 O   0  0  0  0  0  0  0  0  0  0  0  0
   29.3613  -12.0731  -24.1925 O   0  0  0  0  0  0  0  0  0  0  0  0
   28.9998  -11.3373  -23.2559 C   0  0  0  0  0  0  0  0  0  0  0  0
   28.6585  -11.0298  -21.4167 H   0  0  0  0  0  0  0  0  0  0  0  0
   28.9733   -8.8300  -22.4551 C   0  0  0  0  0  0  0  0  0  0  0  0
   31.2670   -4.2842  -24.2869 C   0  0  0  0  0  0  0  0  0  0  0  0
   31.9241   -5.3855  -23.7416 C   0  0  0  0  0  0  0  0  0  0  0  0
   29.8774   -4.2996  -24.4045 C   0  0  0  0  0  0  0  0  0  0  0  0
   31.1928   -6.4947  -23.3169 C   0  0  0  0  0  0  0  0  0  0  0  0
   27.6419   -6.8907  -23.4473 C   0  0  0  0  0  0  0  0  0  0  0  0
   28.8053   -7.4429  -23.1083 C   0  0  0  0  0  0  0  0  0  0  0  0
   29.1485   -5.4116  -23.9738 C   0  0  0  0  0  0  0  0  0  0  0  0
   29.7998   -6.5114  -23.4297 C   0  0  0  0  0  0  0  0  0  0  0  0
   27.8452   -5.6791  -23.9688 N   0  0  0  0  0  0  0  0  0  0  0  0
   27.1400   -5.0765  -24.2988 H   0  0  0  0  0  0  0  0  0  0  0  0
   28.6288   -9.5113  -28.4914 N   0  0  0  0  0  0  0  0  0  0  0  0
   28.2825  -10.4452  -28.2714 H   0  0  0  0  0  0  0  0  0  0  0  0
   29.8889   -9.6548  -29.2323 C   0  0  0  0  0  0  0  0  0  0  0  0
   31.0110   -8.9346  -28.4985 C   0  0  0  0  0  0  0  0  0  0  0  0
   31.5603   -9.5389  -27.5525 O   0  0  0  0  0  0  0  0  0  0  0  0
   31.3044   -7.7939  -28.9127 O   0  0  0  0  0  0  0  0  0  0  0  0
   31.2697  -10.3969  -27.3130 H   0  0  0  0  0  0  0  0  0  0  0  0
   29.7187   -9.0757  -30.6410 C   0  0  0  0  0  0  0  0  0  0  0  0
   28.2506   -8.7478  -30.9037 C   0  0  0  0  0  0  0  0  0  0  0  0
   27.5681   -4.5395  -31.6626 C   0  0  0  0  0  0  0  0  0  0  0  0
   28.8596   -5.0201  -31.4337 C   0  0  0  0  0  0  0  0  0  0  0  0
   26.4853   -5.4188  -31.6430 C   0  0  0  0  0  0  0  0  0  0  0  0
   29.0660   -6.3772  -31.1885 C   0  0  0  0  0  0  0  0  0  0  0  0
   27.9844   -7.2618  -31.1729 C   0  0  0  0  0  0  0  0  0  0  0  0
   26.6941   -6.7788  -31.4046 C   0  0  0  0  0  0  0  0  0  0  0  0
   27.8388   -7.5225  -27.4746 C   0  0  0  0  0  0  0  0  0  0  0  0
   28.5460   -6.1684  -27.5028 C   0  0  0  0  0  0  0  0  0  0  0  0
   27.5797   -5.0652  -27.9543 C   0  0  0  0  0  0  0  0  0  0  0  0
   26.7307   -3.4777  -26.2847 N   0  0  0  0  0  0  0  0  0  0  0  0
   26.5042   -4.7991  -26.9011 C   0  0  0  0  0  0  0  0  0  0  0  0
   26.0120   -3.3024  -25.5825 H   0  0  0  0  0  0  0  0  0  0  0  0
   26.6871   -2.7552  -27.0035 H   0  0  0  0  0  0  0  0  0  0  0  0
 25 27  2  0  0  0
 25 24  1  0  0  0
 25 26  1  0  0  0
 22 24  1  0  0  0
 22  1  1  0  0  0
 24 29  1  0  0  0
 29 30  1  0  0  0
 40 41  1  0  0  0
  7  9  1  0  0  0
  2  3  2  0  0  0
  8  9  2  0  0  0
 31 32  1  0  0  0
 31 33  2  0  0  0
 32 34  2  0  0  0
 33 36  1  0  0  0
 12 13  1  0  0  0
 12 14  2  0  0  0
 13 15  2  0  0  0
 34 35  1  0  0  0
 36 35  2  0  0  0
 14 18  1  0  0  0
 15 19  1  0  0  0
 16 17  2  0  0  0
 16 20  1  0  0  0
 41 39  1  0  0  0
 39 38  1  0  0  0
 38 37  1  0  0  0
 30 35  1  0  0  0
 37  1  1  0  0  0
 11 17  1  0  0  0
 11  6  1  0  0  0
  4  3  1  0  0  0
  4  6  1  0  0  0
  9  6  1  0  0  0
  3  1  1  0  0  0
 17 19  1  0  0  0
 18 19  2  0  0  0
 18 20  1  0  0  0
 26 28  1  0  0  0
 40 42  1  0  0  0
 40 43  1  0  0  0
 22 23  1  0  0  0
  7 10  1  0  0  0
  4  5  1  0  0  0
 20 21  1  0  0  0
M  END
> <minimizedAffinity>
-8.18431

$$$$
2X95_X95_A_1623


 43 45  0  0  0  0  0  0  0  0999 V2000
   29.3469   -9.2145  -27.1816 C   0  0  0  0  0  0  0  0  0  0  0  0
   27.1687   -9.9163  -26.4158 O   0  0  0  0  0  0  0  0  0  0  0  0
   28.3867   -9.9954  -26.2609 C   0  0  0  0  0  0  0  0  0  0  0  0
   29.0151  -10.7338  -25.3389 N   0  0  0  0  0  0  0  0  0  0  0  0
   29.9885  -10.8167  -25.4615 H   0  0  0  0  0  0  0  0  0  0  0  0
   28.4614  -11.4515  -24.1511 C   0  0  0  0  0  0  0  0  0  0  0  0
   28.3115  -13.6210  -23.2925 O   0  0  0  0  0  0  0  0  0  0  0  0
   28.3006  -13.4454  -25.5044 O   0  0  0  0  0  0  0  0  0  0  0  0
   28.3309  -12.9712  -24.3540 C   0  0  0  0  0  0  0  0  0  0  0  0
   28.3378  -13.1743  -22.4692 H   0  0  0  0  0  0  0  0  0  0  0  0
   29.0079  -10.9529  -22.8060 C   0  0  0  0  0  0  0  0  0  0  0  0
   30.8480   -5.8643  -22.8417 C   0  0  0  0  0  0  0  0  0  0  0  0
   31.6087   -7.0242  -22.9752 C   0  0  0  0  0  0  0  0  0  0  0  0
   29.4653   -5.9610  -22.6868 C   0  0  0  0  0  0  0  0  0  0  0  0
   30.9872   -8.2728  -22.9533 C   0  0  0  0  0  0  0  0  0  0  0  0
   27.4912   -8.9132  -22.5658 C   0  0  0  0  0  0  0  0  0  0  0  0
   28.7013   -9.4429  -22.7342 C   0  0  0  0  0  0  0  0  0  0  0  0
   28.8476   -7.2144  -22.6614 C   0  0  0  0  0  0  0  0  0  0  0  0
   29.6023   -8.3731  -22.7941 C   0  0  0  0  0  0  0  0  0  0  0  0
   27.5759   -7.5818  -22.5268 N   0  0  0  0  0  0  0  0  0  0  0  0
   26.8153   -6.9668  -22.4156 H   0  0  0  0  0  0  0  0  0  0  0  0
   29.0568   -9.4770  -28.6009 N   0  0  0  0  0  0  0  0  0  0  0  0
   29.9270   -9.7517  -29.0566 H   0  0  0  0  0  0  0  0  0  0  0  0
   28.4954   -8.3376  -29.3384 C   0  0  0  0  0  0  0  0  0  0  0  0
   27.1607   -8.7242  -29.9594 C   0  0  0  0  0  0  0  0  0  0  0  0
   26.2666   -9.1372  -29.1903 O   0  0  0  0  0  0  0  0  0  0  0  0
   27.0609   -8.5834  -31.1960 O   0  0  0  0  0  0  0  0  0  0  0  0
   26.4356   -9.2095  -28.2715 H   0  0  0  0  0  0  0  0  0  0  0  0
   29.4813   -7.9021  -30.4279 C   0  0  0  0  0  0  0  0  0  0  0  0
   29.8761   -6.4403  -30.2295 C   0  0  0  0  0  0  0  0  0  0  0  0
   28.0689   -3.7076  -33.0610 C   0  0  0  0  0  0  0  0  0  0  0  0
   29.4564   -3.8600  -33.0068 C   0  0  0  0  0  0  0  0  0  0  0  0
   27.2548   -4.4369  -32.1941 C   0  0  0  0  0  0  0  0  0  0  0  0
   30.0262   -4.7418  -32.0891 C   0  0  0  0  0  0  0  0  0  0  0  0
   29.2138   -5.4776  -31.2225 C   0  0  0  0  0  0  0  0  0  0  0  0
   27.8263   -5.3250  -31.2805 C   0  0  0  0  0  0  0  0  0  0  0  0
   29.1102   -7.6996  -27.0352 C   0  0  0  0  0  0  0  0  0  0  0  0
   30.2454   -6.8953  -26.4035 C   0  0  0  0  0  0  0  0  0  0  0  0
   29.8626   -5.4130  -26.2999 C   0  0  0  0  0  0  0  0  0  0  0  0
   32.2518   -4.9744  -25.9422 N   0  0  0  0  0  0  0  0  0  0  0  0
   31.0429   -4.5055  -26.6466 C   0  0  0  0  0  0  0  0  0  0  0  0
   33.0379   -4.3676  -26.1751 H   0  0  0  0  0  0  0  0  0  0  0  0
   32.4634   -5.9301  -26.2293 H   0  0  0  0  0  0  0  0  0  0  0  0
 25 27  2  0  0  0
 25 24  1  0  0  0
 25 26  1  0  0  0
 22 24  1  0  0  0
 22  1  1  0  0  0
 24 29  1  0  0  0
 29 30  1  0  0  0
 40 41  1  0  0  0
  7  9  1  0  0  0
  2  3  2  0  0  0
  8  9  2  0  0  0
 31 32  1  0  0  0
 31 33  2  0  0  0
 32 34  2  0  0  0
 33 36  1  0  0  0
 12 13  1  0  0  0
 12 14  2  0  0  0
 13 15  2  0  0  0
 34 35  1  0  0  0
 36 35  2  0  0  0
 14 18  1  0  0  0
 15 19  1  0  0  0
 16 17  2  0  0  0
 16 20  1  0  0  0
 41 39  1  0  0  0
 39 38  1  0  0  0
 38 37  1  0  0  0
 30 35  1  0  0  0
 37  1  1  0  0  0
 11 17  1  0  0  0
 11  6  1  0  0  0
  4  3  1  0  0  0
  4  6  1  0  0  0
  9  6  1  0  0  0
  3  1  1  0  0  0
 17 19  1  0  0  0
 18 19  2  0  0  0
 18 20  1  0  0  0
 26 28  1  0  0  0
 40 42  1  0  0  0
 40 43  1  0  0  0
 22 23  1  0  0  0
  7 10  1  0  0  0
  4  5  1  0  0  0
 20 21  1  0  0  0
M  END
> <minimizedAffinity>
-8.16178

$$$$
2X95_X95_A_1623


 43 45  0  0  0  0  0  0  0  0999 V2000
   28.0740   -5.8690  -28.1698 C   0  0  0  0  0  0  0  0  0  0  0  0
   28.0230   -4.0981  -26.5313 O   0  0  0  0  0  0  0  0  0  0  0  0
   28.4803   -5.1972  -26.8420 C   0  0  0  0  0  0  0  0  0  0  0  0
   29.3314   -5.9286  -26.1132 N   0  0  0  0  0  0  0  0  0  0  0  0
   29.4626   -6.8528  -26.4259 H   0  0  0  0  0  0  0  0  0  0  0  0
   30.1125   -5.5530  -24.8961 C   0  0  0  0  0  0  0  0  0  0  0  0
   31.8964   -4.9643  -26.2879 O   0  0  0  0  0  0  0  0  0  0  0  0
   31.7542   -3.8623  -24.3672 O   0  0  0  0  0  0  0  0  0  0  0  0
   31.3543   -4.6967  -25.1998 C   0  0  0  0  0  0  0  0  0  0  0  0
   31.5204   -5.6109  -26.8522 H   0  0  0  0  0  0  0  0  0  0  0  0
   29.2461   -5.1567  -23.6924 C   0  0  0  0  0  0  0  0  0  0  0  0
   26.5235   -9.7658  -22.9026 C   0  0  0  0  0  0  0  0  0  0  0  0
   26.3289   -8.8522  -23.9366 C   0  0  0  0  0  0  0  0  0  0  0  0
   27.5107   -9.5253  -21.9472 C   0  0  0  0  0  0  0  0  0  0  0  0
   27.1186   -7.7050  -24.0122 C   0  0  0  0  0  0  0  0  0  0  0  0
   29.7216   -6.7500  -21.7549 C   0  0  0  0  0  0  0  0  0  0  0  0
   29.0390   -6.4347  -22.8540 C   0  0  0  0  0  0  0  0  0  0  0  0
   28.2969   -8.3723  -22.0247 C   0  0  0  0  0  0  0  0  0  0  0  0
   28.1060   -7.4591  -23.0540 C   0  0  0  0  0  0  0  0  0  0  0  0
   29.2829   -7.9096  -21.2607 N   0  0  0  0  0  0  0  0  0  0  0  0
   29.6344   -8.3537  -20.4555 H   0  0  0  0  0  0  0  0  0  0  0  0
   27.3117   -7.1056  -27.9308 N   0  0  0  0  0  0  0  0  0  0  0  0
   27.1600   -7.1952  -26.9261 H   0  0  0  0  0  0  0  0  0  0  0  0
   27.9617   -8.3343  -28.4054 C   0  0  0  0  0  0  0  0  0  0  0  0
   28.3657   -9.2018  -27.2219 C   0  0  0  0  0  0  0  0  0  0  0  0
   29.4679   -8.9630  -26.6836 O   0  0  0  0  0  0  0  0  0  0  0  0
   27.5507  -10.0807  -26.8724 O   0  0  0  0  0  0  0  0  0  0  0  0
   30.0145   -8.2795  -27.0183 H   0  0  0  0  0  0  0  0  0  0  0  0
   29.1939   -7.9675  -29.2396 C   0  0  0  0  0  0  0  0  0  0  0  0
   28.9562   -8.3051  -30.7098 C   0  0  0  0  0  0  0  0  0  0  0  0
   29.7199  -12.4659  -31.6353 C   0  0  0  0  0  0  0  0  0  0  0  0
   30.2378  -11.8897  -30.4729 C   0  0  0  0  0  0  0  0  0  0  0  0
   28.9532  -11.6965  -32.5108 C   0  0  0  0  0  0  0  0  0  0  0  0
   29.9863  -10.5482  -30.1872 C   0  0  0  0  0  0  0  0  0  0  0  0
   29.2147   -9.7757  -31.0592 C   0  0  0  0  0  0  0  0  0  0  0  0
   28.6961  -10.3551  -32.2198 C   0  0  0  0  0  0  0  0  0  0  0  0
   27.0842   -4.9733  -28.9383 C   0  0  0  0  0  0  0  0  0  0  0  0
   25.8535   -5.6680  -29.5191 C   0  0  0  0  0  0  0  0  0  0  0  0
   25.5380   -5.1238  -30.9187 C   0  0  0  0  0  0  0  0  0  0  0  0
   23.3772   -4.5579  -31.9384 N   0  0  0  0  0  0  0  0  0  0  0  0
   24.2111   -5.6708  -31.4448 C   0  0  0  0  0  0  0  0  0  0  0  0
   22.4926   -4.9253  -32.2888 H   0  0  0  0  0  0  0  0  0  0  0  0
   23.8667   -4.0743  -32.6913 H   0  0  0  0  0  0  0  0  0  0  0  0
 25 27  2  0  0  0
 25 24  1  0  0  0
 25 26  1  0  0  0
 22 24  1  0  0  0
 22  1  1  0  0  0
 24 29  1  0  0  0
 29 30  1  0  0  0
 40 41  1  0  0  0
  7  9  1  0  0  0
  2  3  2  0  0  0
  8  9  2  0  0  0
 31 32  1  0  0  0
 31 33  2  0  0  0
 32 34  2  0  0  0
 33 36  1  0  0  0
 12 13  1  0  0  0
 12 14  2  0  0  0
 13 15  2  0  0  0
 34 35  1  0  0  0
 36 35  2  0  0  0
 14 18  1  0  0  0
 15 19  1  0  0  0
 16 17  2  0  0  0
 16 20  1  0  0  0
 41 39  1  0  0  0
 39 38  1  0  0  0
 38 37  1  0  0  0
 30 35  1  0  0  0
 37  1  1  0  0  0
 11 17  1  0  0  0
 11  6  1  0  0  0
  4  3  1  0  0  0
  4  6  1  0  0  0
  9  6  1  0  0  0
  3  1  1  0  0  0
 17 19  1  0  0  0
 18 19  2  0  0  0
 18 20  1  0  0  0
 26 28  1  0  0  0
 40 42  1  0  0  0
 40 43  1  0  0  0
 22 23  1  0  0  0
  7 10  1  0  0  0
  4  5  1  0  0  0
 20 21  1  0  0  0
M  END
> <minimizedAffinity>
-8.07378

$$$$
2X95_X95_A_1623


 43 45  0  0  0  0  0  0  0  0999 V2000
   27.7692   -3.3104  -24.1607 C   0  0  0  0  0  0  0  0  0  0  0  0
   30.1046   -2.9044  -24.6131 O   0  0  0  0  0  0  0  0  0  0  0  0
   29.2338   -3.7419  -24.3804 C   0  0  0  0  0  0  0  0  0  0  0  0
   29.4215   -5.0626  -24.2773 N   0  0  0  0  0  0  0  0  0  0  0  0
   28.6553   -5.5676  -23.9207 H   0  0  0  0  0  0  0  0  0  0  0  0
   30.6196   -5.8863  -24.6221 C   0  0  0  0  0  0  0  0  0  0  0  0
   30.9339   -5.6810  -26.9298 O   0  0  0  0  0  0  0  0  0  0  0  0
   32.4510   -4.6918  -25.6478 O   0  0  0  0  0  0  0  0  0  0  0  0
   31.4103   -5.3503  -25.8284 C   0  0  0  0  0  0  0  0  0  0  0  0
   30.1414   -6.1796  -26.9667 H   0  0  0  0  0  0  0  0  0  0  0  0
   31.4156   -6.3762  -23.4043 C   0  0  0  0  0  0  0  0  0  0  0  0
   28.8632  -11.0966  -22.7094 C   0  0  0  0  0  0  0  0  0  0  0  0
   29.7504  -10.7745  -23.7345 C   0  0  0  0  0  0  0  0  0  0  0  0
   28.5690  -10.1489  -21.7294 C   0  0  0  0  0  0  0  0  0  0  0  0
   30.3386   -9.5104  -23.7769 C   0  0  0  0  0  0  0  0  0  0  0  0
   29.8221   -6.8343  -21.4629 C   0  0  0  0  0  0  0  0  0  0  0  0
   30.4537   -7.2397  -22.5629 C   0  0  0  0  0  0  0  0  0  0  0  0
   29.1576   -8.8822  -21.7783 C   0  0  0  0  0  0  0  0  0  0  0  0
   30.0426   -8.5571  -22.7986 C   0  0  0  0  0  0  0  0  0  0  0  0
   29.0509   -7.8157  -20.9901 N   0  0  0  0  0  0  0  0  0  0  0  0
   28.4900   -7.7592  -20.1830 H   0  0  0  0  0  0  0  0  0  0  0  0
   27.6928   -1.9725  -23.5512 N   0  0  0  0  0  0  0  0  0  0  0  0
   27.3576   -2.0791  -22.5938 H   0  0  0  0  0  0  0  0  0  0  0  0
   26.8058   -1.0277  -24.2426 C   0  0  0  0  0  0  0  0  0  0  0  0
   27.6294    0.0313  -24.9613 C   0  0  0  0  0  0  0  0  0  0  0  0
   28.8657   -0.1418  -25.0174 O   0  0  0  0  0  0  0  0  0  0  0  0
   26.9970    0.9890  -25.4531 O   0  0  0  0  0  0  0  0  0  0  0  0
   29.2520   -0.8953  -24.6161 H   0  0  0  0  0  0  0  0  0  0  0  0
   25.8698   -0.3702  -23.2226 C   0  0  0  0  0  0  0  0  0  0  0  0
   26.6673    0.5161  -22.2683 C   0  0  0  0  0  0  0  0  0  0  0  0
   24.2654    2.9942  -19.6528 C   0  0  0  0  0  0  0  0  0  0  0  0
   25.6509    2.9235  -19.4900 C   0  0  0  0  0  0  0  0  0  0  0  0
   23.6454    2.2581  -20.6627 C   0  0  0  0  0  0  0  0  0  0  0  0
   26.4131    2.1202  -20.3376 C   0  0  0  0  0  0  0  0  0  0  0  0
   25.7962    1.3853  -21.3534 C   0  0  0  0  0  0  0  0  0  0  0  0
   24.4105    1.4597  -21.5155 C   0  0  0  0  0  0  0  0  0  0  0  0
   27.0572   -3.1353  -25.5153 C   0  0  0  0  0  0  0  0  0  0  0  0
   26.5578   -4.4134  -26.1873 C   0  0  0  0  0  0  0  0  0  0  0  0
   26.8588   -4.3840  -27.6917 C   0  0  0  0  0  0  0  0  0  0  0  0
   27.9749   -6.4394  -26.9442 N   0  0  0  0  0  0  0  0  0  0  0  0
   27.7217   -5.5737  -28.1121 C   0  0  0  0  0  0  0  0  0  0  0  0
   28.5507   -7.2323  -27.2271 H   0  0  0  0  0  0  0  0  0  0  0  0
   27.0872   -6.7788  -26.5737 H   0  0  0  0  0  0  0  0  0  0  0  0
 25 27  2  0  0  0
 25 24  1  0  0  0
 25 26  1  0  0  0
 22 24  1  0  0  0
 22  1  1  0  0  0
 24 29  1  0  0  0
 29 30  1  0  0  0
 40 41  1  0  0  0
  7  9  1  0  0  0
  2  3  2  0  0  0
  8  9  2  0  0  0
 31 32  1  0  0  0
 31 33  2  0  0  0
 32 34  2  0  0  0
 33 36  1  0  0  0
 12 13  1  0  0  0
 12 14  2  0  0  0
 13 15  2  0  0  0
 34 35  1  0  0  0
 36 35  2  0  0  0
 14 18  1  0  0  0
 15 19  1  0  0  0
 16 17  2  0  0  0
 16 20  1  0  0  0
 41 39  1  0  0  0
 39 38  1  0  0  0
 38 37  1  0  0  0
 30 35  1  0  0  0
 37  1  1  0  0  0
 11 17  1  0  0  0
 11  6  1  0  0  0
  4  3  1  0  0  0
  4  6  1  0  0  0
  9  6  1  0  0  0
  3  1  1  0  0  0
 17 19  1  0  0  0
 18 19  2  0  0  0
 18 20  1  0  0  0
 26 28  1  0  0  0
 40 42  1  0  0  0
 40 43  1  0  0  0
 22 23  1  0  0  0
  7 10  1  0  0  0
  4  5  1  0  0  0
 20 21  1  0  0  0
M  END
> <minimizedAffinity>
-7.97103

$$$$
2X95_X95_A_1623


 43 45  0  0  0  0  0  0  0  0999 V2000
   28.6927   -7.2076  -26.3209 C   0  0  0  0  0  0  0  0  0  0  0  0
   28.4740   -9.0815  -27.8256 O   0  0  0  0  0  0  0  0  0  0  0  0
   28.7902   -7.8995  -27.6961 C   0  0  0  0  0  0  0  0  0  0  0  0
   29.2240   -7.0910  -28.6700 N   0  0  0  0  0  0  0  0  0  0  0  0
   29.2694   -6.1367  -28.4323 H   0  0  0  0  0  0  0  0  0  0  0  0
   29.6498   -7.4191  -30.0642 C   0  0  0  0  0  0  0  0  0  0  0  0
   31.1991   -8.7539  -31.1972 O   0  0  0  0  0  0  0  0  0  0  0  0
   31.8083   -8.0497  -29.1831 O   0  0  0  0  0  0  0  0  0  0  0  0
   31.0188   -8.1171  -30.1430 C   0  0  0  0  0  0  0  0  0  0  0  0
   30.5445   -8.7455  -31.8675 H   0  0  0  0  0  0  0  0  0  0  0  0
   28.5203   -7.9548  -30.9553 C   0  0  0  0  0  0  0  0  0  0  0  0
   29.0309   -3.0384  -33.1573 C   0  0  0  0  0  0  0  0  0  0  0  0
   30.0615   -3.8488  -32.6852 C   0  0  0  0  0  0  0  0  0  0  0  0
   27.7129   -3.4892  -33.0882 C   0  0  0  0  0  0  0  0  0  0  0  0
   29.7725   -5.1028  -32.1471 C   0  0  0  0  0  0  0  0  0  0  0  0
   26.5373   -6.5834  -31.7952 C   0  0  0  0  0  0  0  0  0  0  0  0
   27.8473   -6.7283  -31.6048 C   0  0  0  0  0  0  0  0  0  0  0  0
   27.4278   -4.7448  -32.5443 C   0  0  0  0  0  0  0  0  0  0  0  0
   28.4524   -5.5557  -32.0726 C   0  0  0  0  0  0  0  0  0  0  0  0
   26.2852   -5.4010  -32.3607 N   0  0  0  0  0  0  0  0  0  0  0  0
   25.3919   -5.0663  -32.6042 H   0  0  0  0  0  0  0  0  0  0  0  0
   27.3497   -6.6465  -26.0999 N   0  0  0  0  0  0  0  0  0  0  0  0
   26.7306   -7.0122  -26.8233 H   0  0  0  0  0  0  0  0  0  0  0  0
   27.2784   -5.1799  -26.1369 C   0  0  0  0  0  0  0  0  0  0  0  0
   26.7154   -4.7182  -27.4734 C   0  0  0  0  0  0  0  0  0  0  0  0
   26.6055   -3.4869  -27.6566 O   0  0  0  0  0  0  0  0  0  0  0  0
   26.4191   -5.6135  -28.2916 O   0  0  0  0  0  0  0  0  0  0  0  0
   26.8548   -2.8885  -26.9800 H   0  0  0  0  0  0  0  0  0  0  0  0
   28.6796   -4.5976  -25.9217 C   0  0  0  0  0  0  0  0  0  0  0  0
   28.8463   -4.1436  -24.4731 C   0  0  0  0  0  0  0  0  0  0  0  0
   31.2217   -6.8530  -22.0714 C   0  0  0  0  0  0  0  0  0  0  0  0
   31.7980   -6.1549  -23.1352 C   0  0  0  0  0  0  0  0  0  0  0  0
   29.8682   -6.6822  -21.7794 C   0  0  0  0  0  0  0  0  0  0  0  0
   31.0219   -5.2867  -23.9024 C   0  0  0  0  0  0  0  0  0  0  0  0
   29.6670   -5.1094  -23.6099 C   0  0  0  0  0  0  0  0  0  0  0  0
   29.0938   -5.8071  -22.5439 C   0  0  0  0  0  0  0  0  0  0  0  0
   28.8453   -8.2440  -25.1917 C   0  0  0  0  0  0  0  0  0  0  0  0
   27.5874   -8.5511  -24.3806 C   0  0  0  0  0  0  0  0  0  0  0  0
   27.7004   -9.9274  -23.7116 C   0  0  0  0  0  0  0  0  0  0  0  0
   26.7716  -10.8946  -25.7684 N   0  0  0  0  0  0  0  0  0  0  0  0
   26.6917  -10.9168  -24.2951 C   0  0  0  0  0  0  0  0  0  0  0  0
   26.0978  -11.5555  -26.1554 H   0  0  0  0  0  0  0  0  0  0  0  0
   27.7124  -11.1573  -26.0619 H   0  0  0  0  0  0  0  0  0  0  0  0
 25 27  2  0  0  0
 25 24  1  0  0  0
 25 26  1  0  0  0
 22 24  1  0  0  0
 22  1  1  0  0  0
 24 29  1  0  0  0
 29 30  1  0  0  0
 40 41  1  0  0  0
  7  9  1  0  0  0
  2  3  2  0  0  0
  8  9  2  0  0  0
 31 32  1  0  0  0
 31 33  2  0  0  0
 32 34  2  0  0  0
 33 36  1  0  0  0
 12 13  1  0  0  0
 12 14  2  0  0  0
 13 15  2  0  0  0
 34 35  1  0  0  0
 36 35  2  0  0  0
 14 18  1  0  0  0
 15 19  1  0  0  0
 16 17  2  0  0  0
 16 20  1  0  0  0
 41 39  1  0  0  0
 39 38  1  0  0  0
 38 37  1  0  0  0
 30 35  1  0  0  0
 37  1  1  0  0  0
 11 17  1  0  0  0
 11  6  1  0  0  0
  4  3  1  0  0  0
  4  6  1  0  0  0
  9  6  1  0  0  0
  3  1  1  0  0  0
 17 19  1  0  0  0
 18 19  2  0  0  0
 18 20  1  0  0  0
 26 28  1  0  0  0
 40 42  1  0  0  0
 40 43  1  0  0  0
 22 23  1  0  0  0
  7 10  1  0  0  0
  4  5  1  0  0  0
 20 21  1  0  0  0
M  END
> <minimizedAffinity>
-7.94715

$$$$
