2ZC9_22U_H_1501
  RCSB PDB12061707433D
Coordinates from PDB:2ZC9:H:1501 Model:1 without hydrogens
 27 29  0  0  0  0            999 V2000
   16.3050  -15.7140   23.2320   N 0  0  0  0  0  0  0  0  0  0  0  0
   17.6270  -15.0160   23.2870   C 0  0  0  0  0  0  0  0  0  0  0  0
   17.4490  -13.6090   22.7270   C 0  0  0  0  0  0  0  0  0  0  0  0
   16.4680  -12.9820   23.1440   O 0  0  0  0  0  0  0  0  0  0  0  0
   18.1650  -14.9640   24.7310   C 0  0  0  0  0  0  0  0  0  0  0  0
   19.5640  -14.3300   24.8080   C 0  0  0  0  0  0  0  0  0  0  0  0
   20.6640  -14.8530   24.1100   C 0  0  0  0  0  0  0  0  0  0  0  0
   19.7440  -13.1800   25.5860   C 0  0  0  0  0  0  0  0  0  0  0  0
   21.9170  -14.2340   24.2320   C 0  0  0  0  0  0  0  0  0  0  0  0
   20.9960  -12.5890   25.7570   C 0  0  0  0  0  0  0  0  0  0  0  0
   22.0730  -13.0830   24.9910   C 0  0  0  0  0  0  0  0  0  0  0  0
   18.1330  -13.1630   21.6570   N 0  0  0  0  0  0  0  0  0  0  0  0
   17.8360  -11.8460   21.1120   C 0  0  0  0  0  0  0  0  0  0  0  0
   16.4020  -11.7500   20.6340   C 0  0  0  0  0  0  0  0  0  0  0  0
   15.8850  -12.6720   20.0140   O 0  0  0  0  0  0  0  0  0  0  0  0
   18.8240  -11.7770   19.9170   C 0  0  0  0  0  0  0  0  0  0  0  0
   19.9730  -12.7300   20.3520   C 0  0  0  0  0  0  0  0  0  0  0  0
   19.2070  -13.9150   20.9810   C 0  0  0  0  0  0  0  0  0  0  0  0
   15.7260  -10.6080   20.9320   N 0  0  0  0  0  0  0  0  0  0  0  0
   14.3690  -10.4430   20.3670   C 0  0  0  0  0  0  0  0  0  0  0  0
   13.3410  -10.3610   21.5130   C 0  0  0  0  0  0  0  0  0  0  0  0
   12.4440  -11.4030   21.6720   C 0  0  0  0  0  0  0  0  0  0  0  0
   11.5120  -11.3900   22.7010   C 0  0  0  0  0  0  0  0  0  0  0  0
   11.4380  -10.2950   23.5610   C 0  0  0  0  0  0  0  0  0  0  0  0
   12.3350   -9.2340   23.4100   C 0  0  0  0  0  0  0  0  0  0  0  0
   13.2880   -9.2590   22.3860   C 0  0  0  0  0  0  0  0  0  0  0  0
   12.2410   -7.8830   24.5260  Cl 0  0  0  0  0  0  0  0  0  0  0  0
  5  2  1  0  0  0  0
  5  6  1  0  0  0  0
  1  2  1  0  0  0  0
  2  3  1  0  0  0  0
  3  4  2  0  0  0  0
  3 12  1  0  0  0  0
 12 18  1  0  0  0  0
 12 13  1  0  0  0  0
 18 17  1  0  0  0  0
 17 16  1  0  0  0  0
 16 13  1  0  0  0  0
 13 14  1  0  0  0  0
 14 19  1  0  0  0  0
 14 15  2  0  0  0  0
 19 20  1  0  0  0  0
 20 21  1  0  0  0  0
 21 26  2  0  0  0  0
 21 22  1  0  0  0  0
 26 25  1  0  0  0  0
 25 24  2  0  0  0  0
 25 27  1  0  0  0  0
 24 23  1  0  0  0  0
 23 22  2  0  0  0  0
  6  7  2  0  0  0  0
  6  8  1  0  0  0  0
  7  9  1  0  0  0  0
  9 11  2  0  0  0  0
 11 10  1  0  0  0  0
 10  8  2  0  0  0  0
A    1
N1
A    2
C2
A    3
C3
A    4
O1
A    5
C1
A    6
C16
A    7
C17
A    8
C21
A    9
C18
A   10
C20
A   11
C19
A   12
N2
A   13
C7
A   14
C8
A   15
O2
A   16
C6
A   17
C5
A   18
C4
A   19
N3
A   20
C9
A   21
C10
A   22
C15
A   23
C14
A   24
C13
A   25
C12
A   26
C11
A   27
CL1
M  END
>  <InstanceId>
2ZC9_22U_H_1501

>  <ChemCompId>
22U

>  <PdbId>
2ZC9

>  <ChainId>
H

>  <ResidueNumber>
1501

>  <InsertionCode>


>  <Model>
1

>  <AltIds>


>  <MissingHeavyAtoms>
0

>  <ObservedFormula>
C21 N3 O2 Cl

>  <Name>
D-phenylalanyl-N-(3-chlorobenzyl)-L-prolinamide

>  <SystematicName>
(2S)-1-[(2R)-2-azanyl-3-phenyl-propanoyl]-N-[(3-chlorophenyl)methyl]pyrrolidine-2-carboxamide

>  <Synonyms>
(2S)-1-[(2R)-2-amino-3-phenyl-propanoyl]-N-[(3-chlorophenyl)methyl]pyrrolidine-2-carboxamide

>  <Type>
peptide-like

>  <Formula>
C21 H24 Cl N3 O2

>  <MolecularWeight>
385.887

>  <ModifiedDate>
2011-06-04

>  <Parent>


>  <OneLetterCode>


>  <SubcomponentList>
DPN PRO C2A

>  <AmbiguousFlag>
N

>  <InChI>
InChI=1S/C21H24ClN3O2/c22-17-9-4-8-16(12-17)14-24-20(26)19-10-5-11-25(19)21(27)18(23)13-15-6-2-1-3-7-15/h1-4,6-9,12,18-19H,5,10-11,13-14,23H2,(H,24,26)/t18-,19+/m1/s1

>  <InChIKey>
CJHLRGCXPGIPCB-MOPGFXCFSA-N

>  <SMILES>
c1ccc(cc1)C[C@H](C(=O)N2CCC[C@H]2C(=O)NCc3cccc(c3)Cl)N

$$$$
