5NDF_LU2_A_608
  RCSB PDB12061719103D
Coordinates from PDB:5NDF:A:608 Model:1 without hydrogens
 21 23  0  0  0  0            999 V2000
   18.5010  -44.2570  -37.2030   C 0  0  0  0  0  0  0  0  0  0  0  0
   17.7390  -46.3130  -36.1150   O 0  0  0  0  0  0  0  0  0  0  0  0
   18.3090  -45.1160  -36.0950   C 0  0  0  0  0  0  0  0  0  0  0  0
   19.6400  -43.2050  -33.5220   O 0  0  0  0  0  0  0  0  0  0  0  0
   18.6950  -44.7750  -34.8600   C 0  0  0  0  0  0  0  0  0  0  0  0
   20.1550  -41.0690  -34.5170   O 0  0  0  0  0  0  0  0  0  0  0  0
   19.2640  -43.5570  -34.7640   C 0  0  0  0  0  0  0  0  0  0  0  0
   19.3610  -42.0400  -38.1780   O 0  0  0  0  0  0  0  0  0  0  0  0
   19.4770  -42.6810  -35.8520   C 0  0  0  0  0  0  0  0  0  0  0  0
   21.3110  -38.6820  -41.8480   O 0  0  0  0  0  0  0  0  0  0  0  0
   19.0940  -42.9860  -37.1320   C 0  0  0  0  0  0  0  0  0  0  0  0
   20.4910  -36.3200  -41.0730   O 0  0  0  0  0  0  0  0  0  0  0  0
   20.0160  -41.4500  -35.6360   C 0  0  0  0  0  0  0  0  0  0  0  0
   20.0820  -40.4510  -36.5370   C 0  0  0  0  0  0  0  0  0  0  0  0
   19.8420  -40.7610  -37.8330   C 0  0  0  0  0  0  0  0  0  0  0  0
   20.0020  -39.6610  -38.6870   C 0  0  0  0  0  0  0  0  0  0  0  0
   20.6320  -39.7610  -39.9100   C 0  0  0  0  0  0  0  0  0  0  0  0
   20.7460  -38.6190  -40.6630   C 0  0  0  0  0  0  0  0  0  0  0  0
   20.3060  -37.3790  -40.2460   C 0  0  0  0  0  0  0  0  0  0  0  0
   19.6920  -37.2340  -39.0230   C 0  0  0  0  0  0  0  0  0  0  0  0
   19.5490  -38.3740  -38.2490   C 0  0  0  0  0  0  0  0  0  0  0  0
  1  3  2  0  0  0  0
  1 11  1  0  0  0  0
  2  3  1  0  0  0  0
  3  5  1  0  0  0  0
  7  4  1  0  0  0  0
  5  7  2  0  0  0  0
 13  6  2  0  0  0  0
  9  7  1  0  0  0  0
  8 11  1  0  0  0  0
  8 15  1  0  0  0  0
 11  9  2  0  0  0  0
  9 13  1  0  0  0  0
 18 10  1  0  0  0  0
 12 19  1  0  0  0  0
 14 13  1  0  0  0  0
 15 14  2  0  0  0  0
 16 15  1  0  0  0  0
 21 16  2  0  0  0  0
 16 17  1  0  0  0  0
 18 17  2  0  0  0  0
 19 18  1  0  0  0  0
 20 19  2  0  0  0  0
 20 21  1  0  0  0  0
A    1
C1
A    2
O1
A    3
C2
A    4
O2
A    5
C3
A    6
O3
A    7
C4
A    8
O4
A    9
C5
A   10
O5
A   11
C6
A   12
O6
A   13
C7
A   14
C8
A   15
C9
A   16
C10
A   17
C11
A   18
C12
A   19
C13
A   20
C14
A   21
C15
M  END
>  <InstanceId>
5NDF_LU2_A_608

>  <ChemCompId>
LU2

>  <PdbId>
5NDF

>  <ChainId>
A

>  <ResidueNumber>
608

>  <InsertionCode>


>  <Model>
1

>  <AltIds>


>  <MissingHeavyAtoms>
0

>  <ObservedFormula>
C15 O6

>  <Name>
2-(3,4-dihydroxyphenyl)-5,7-dihydroxy-4H-chromen-4-one

>  <SystematicName>
2-[3,4-bis(oxidanyl)phenyl]-5,7-bis(oxidanyl)chromen-4-one

>  <Synonyms>
Luteolin

>  <Type>
NON-POLYMER

>  <Formula>
C15 H10 O6

>  <MolecularWeight>
286.236

>  <ModifiedDate>
2012-03-16

>  <Parent>


>  <OneLetterCode>


>  <SubcomponentList>


>  <AmbiguousFlag>
N

>  <InChI>
InChI=1S/C15H10O6/c16-8-4-11(19)15-12(20)6-13(21-14(15)5-8)7-1-2-9(17)10(18)3-7/h1-6,16-19H

>  <InChIKey>
IQPNAANSBPBGFQ-UHFFFAOYSA-N

>  <SMILES>
c1cc(c(cc1C2=CC(=O)c3c(cc(cc3O2)O)O)O)O

$$$$
