5O9O_9PB_A_601


 61 66  0  0  0  0  0  0  0  0999 V2000
    9.5397    9.7745   22.7020 C   0  0  0  0  0  0  0  0  0  0  0  0
   10.1000   11.1190   22.3783 C   0  0  0  0  0  0  0  0  0  0  0  0
   10.3529   11.0494   20.9716 O   0  0  0  0  0  0  0  0  0  0  0  0
    9.3805    9.6761   24.1007 O   0  0  0  0  0  0  0  0  0  0  0  0
   10.6171    9.8384   24.8311 C   0  0  0  0  0  0  0  0  0  0  0  0
   11.1924   11.1609   24.5071 C   0  0  0  0  0  0  0  0  0  0  0  0
   12.4395   11.2603   25.2142 O   0  0  0  0  0  0  0  0  0  0  0  0
   11.4404   11.2348   23.0080 C   0  0  0  0  0  0  0  0  0  0  0  0
   10.9414   10.3012   20.7855 H   0  0  0  0  0  0  0  0  0  0  0  0
   13.0215   10.5317   24.9472 H   0  0  0  0  0  0  0  0  0  0  0  0
    6.3856    8.9076   21.3378 C   0  0  0  0  0  0  0  0  0  0  0  0
    7.6700    8.5975   21.3865 C   0  0  0  0  0  0  0  0  0  0  0  0
    6.2000    9.9522   22.1290 N   0  0  0  0  0  0  0  0  0  0  0  0
    7.2885   10.2820   22.5859 N   0  0  0  0  0  0  0  0  0  0  0  0
    8.2055    9.5809   22.1295 N   0  0  0  0  0  0  0  0  0  0  0  0
    5.2883    8.1627   20.5816 C   0  0  0  0  0  0  0  0  0  0  0  0
    5.7451    7.7543   19.3091 O   0  0  0  0  0  0  0  0  0  0  0  0
    5.3060    8.6915   18.3088 C   0  0  0  0  0  0  0  0  0  0  0  0
    4.3188    7.7201   16.3064 C   0  0  0  0  0  0  0  0  0  0  0  0
    4.5035    7.1185   15.0620 C   0  0  0  0  0  0  0  0  0  0  0  0
    3.4052    6.7422   14.2995 C   0  0  0  0  0  0  0  0  0  0  0  0
    3.5922    6.1403   13.0580 C   0  0  0  0  0  0  0  0  0  0  0  0
    4.8745    5.9163   12.5705 C   0  0  0  0  0  0  0  0  0  0  0  0
    5.9764    6.2930   13.3275 C   0  0  0  0  0  0  0  0  0  0  0  0
    5.7873    6.8895   14.5682 C   0  0  0  0  0  0  0  0  0  0  0  0
    6.8918    7.2633   15.3171 C   0  0  0  0  0  0  0  0  0  0  0  0
    6.7100    7.8600   16.5596 C   0  0  0  0  0  0  0  0  0  0  0  0
    5.4327    8.0956   17.0552 C   0  0  0  0  0  0  0  0  0  0  0  0
   10.1169   10.0464   26.2648 C   0  0  0  0  0  0  0  0  0  0  0  0
    9.4337   11.2717   26.3555 O   0  0  0  0  0  0  0  0  0  0  0  0
   10.0345   11.9953   26.1181 H   0  0  0  0  0  0  0  0  0  0  0  0
   11.9903   12.5321   22.7114 O   0  0  0  0  0  0  0  0  0  0  0  0
   15.9370   13.4913   21.9247 C   0  0  0  0  0  0  0  0  0  0  0  0
   15.5179   12.0497   22.1028 C   0  0  0  0  0  0  0  0  0  0  0  0
   14.8818   14.2090   21.1455 C   0  0  0  0  0  0  0  0  0  0  0  0
   13.2315   12.6231   22.0370 C   0  0  0  0  0  0  0  0  0  0  0  0
   13.5434   14.1089   21.8675 C   0  0  0  0  0  0  0  0  0  0  0  0
   12.4804   14.6910   21.0675 O   0  0  0  0  0  0  0  0  0  0  0  0
   14.2695   11.9600   22.7975 O   0  0  0  0  0  0  0  0  0  0  0  0
   17.1080   13.4636   21.0963 O   0  0  0  0  0  0  0  0  0  0  0  0
   12.4223   14.2252   20.2187 H   0  0  0  0  0  0  0  0  0  0  0  0
   16.9003   13.0228   20.2576 H   0  0  0  0  0  0  0  0  0  0  0  0
   16.5927   11.3021   22.9154 C   0  0  0  0  0  0  0  0  0  0  0  0
   17.0812   12.1682   23.9240 O   0  0  0  0  0  0  0  0  0  0  0  0
   17.4622   12.9602   23.5134 H   0  0  0  0  0  0  0  0  0  0  0  0
   15.2431   15.5624   20.9610 O   0  0  0  0  0  0  0  0  0  0  0  0
   15.1380   16.1304   19.6887 C   0  0  0  0  0  0  0  0  0  0  0  0
   15.9801   15.3188   18.9022 O   0  0  0  0  0  0  0  0  0  0  0  0
   15.9955   15.7780   17.5289 C   0  0  0  0  0  0  0  0  0  0  0  0
   16.5257   17.2225   17.5005 C   0  0  0  0  0  0  0  0  0  0  0  0
   16.4359   17.6967   16.1547 O   0  0  0  0  0  0  0  0  0  0  0  0
   15.6388   18.1274   18.3404 C   0  0  0  0  0  0  0  0  0  0  0  0
   16.2601   19.3997   18.4492 O   0  0  0  0  0  0  0  0  0  0  0  0
   15.6652   17.5681   19.7390 C   0  0  0  0  0  0  0  0  0  0  0  0
   14.8653   18.3182   20.6704 O   0  0  0  0  0  0  0  0  0  0  0  0
   15.5115   17.6667   15.8623 H   0  0  0  0  0  0  0  0  0  0  0  0
   17.1424   19.2964   18.8390 H   0  0  0  0  0  0  0  0  0  0  0  0
   13.9369   18.2963   20.3901 H   0  0  0  0  0  0  0  0  0  0  0  0
   16.8217   14.7399   16.7222 C   0  0  0  0  0  0  0  0  0  0  0  0
   15.9761   13.9771   15.8370 O   0  0  0  0  0  0  0  0  0  0  0  0
   15.5467   14.5748   15.2052 H   0  0  0  0  0  0  0  0  0  0  0  0
 23 22  2  0  0  0
 23 24  1  0  0  0
 22 21  1  0  0  0
 24 25  2  0  0  0
 21 20  2  0  0  0
 25 20  1  0  0  0
 25 26  1  0  0  0
 20 19  1  0  0  0
 51 50  1  0  0  0
 59 60  1  0  0  0
 59 49  1  0  0  0
 26 27  2  0  0  0
 19 28  2  0  0  0
 50 49  1  0  0  0
 50 52  1  0  0  0
 49 48  1  0  0  0
 27 28  1  0  0  0
 28 18  1  0  0  0
 52 53  1  0  0  0
 52 54  1  0  0  0
 48 47  1  0  0  0
 18 17  1  0  0  0
 47 54  1  0  0  0
 47 46  1  0  0  0
 17 16  1  0  0  0
 54 55  1  0  0  0
 46 35  1  0  0  0
  3  2  1  0  0  0
 38 37  1  0  0  0
 16 11  1  0  0  0
 35 37  1  0  0  0
 35 33  1  0  0  0
 40 33  1  0  0  0
 11 13  1  0  0  0
 11 12  2  0  0  0
 13 14  2  0  0  0
 37 36  1  0  0  0
 12 15  1  0  0  0
 33 34  1  0  0  0
 14 15  1  0  0  0
 36 32  1  0  0  0
 36 39  1  0  0  0
 15  1  1  0  0  0
 34 39  1  0  0  0
 34 43  1  0  0  0
  2  1  1  0  0  0
  2  8  1  0  0  0
 32  8  1  0  0  0
  1  4  1  0  0  0
  8  6  1  0  0  0
 43 44  1  0  0  0
  4  5  1  0  0  0
  6  5  1  0  0  0
  6  7  1  0  0  0
  5 29  1  0  0  0
 29 30  1  0  0  0
  3  9  1  0  0  0
 30 31  1  0  0  0
  7 10  1  0  0  0
 38 41  1  0  0  0
 44 45  1  0  0  0
 40 42  1  0  0  0
 60 61  1  0  0  0
 51 56  1  0  0  0
 53 57  1  0  0  0
 55 58  1  0  0  0
M  END
> <minimizedAffinity>
-11.62154

$$$$
5O9O_9PB_A_601


 61 66  0  0  0  0  0  0  0  0999 V2000
    9.5444    9.7236   22.5222 C   0  0  0  0  0  0  0  0  0  0  0  0
   10.1695   10.9621   21.9727 C   0  0  0  0  0  0  0  0  0  0  0  0
   10.3527   10.6608   20.5859 O   0  0  0  0  0  0  0  0  0  0  0  0
    9.4441    9.8518   23.9241 O   0  0  0  0  0  0  0  0  0  0  0  0
   10.7205   10.0413   24.5750 C   0  0  0  0  0  0  0  0  0  0  0  0
   11.3592   11.2569   24.0281 C   0  0  0  0  0  0  0  0  0  0  0  0
   12.6412   11.3800   24.6655 O   0  0  0  0  0  0  0  0  0  0  0  0
   11.5420   11.0833   22.5279 C   0  0  0  0  0  0  0  0  0  0  0  0
   10.8857    9.8552   20.4977 H   0  0  0  0  0  0  0  0  0  0  0  0
   13.1653   10.5818   24.4947 H   0  0  0  0  0  0  0  0  0  0  0  0
    6.3060    8.8664   21.3653 C   0  0  0  0  0  0  0  0  0  0  0  0
    7.5888    8.5472   21.3377 C   0  0  0  0  0  0  0  0  0  0  0  0
    6.1769    9.9204   22.1551 N   0  0  0  0  0  0  0  0  0  0  0  0
    7.2939   10.2467   22.5402 N   0  0  0  0  0  0  0  0  0  0  0  0
    8.1760    9.5341   22.0355 N   0  0  0  0  0  0  0  0  0  0  0  0
    5.1589    8.1220   20.6864 C   0  0  0  0  0  0  0  0  0  0  0  0
    5.2182    8.2813   19.2843 O   0  0  0  0  0  0  0  0  0  0  0  0
    3.9168    8.0561   18.7119 C   0  0  0  0  0  0  0  0  0  0  0  0
    5.3165    7.7614   16.7418 C   0  0  0  0  0  0  0  0  0  0  0  0
    5.4161    7.4075   15.3966 C   0  0  0  0  0  0  0  0  0  0  0  0
    6.6460    7.4533   14.7527 C   0  0  0  0  0  0  0  0  0  0  0  0
    6.7426    7.1009   13.4093 C   0  0  0  0  0  0  0  0  0  0  0  0
    5.6144    6.6971   12.7047 C   0  0  0  0  0  0  0  0  0  0  0  0
    4.3825    6.6470   13.3441 C   0  0  0  0  0  0  0  0  0  0  0  0
    4.2878    7.0033   14.6839 C   0  0  0  0  0  0  0  0  0  0  0  0
    3.0552    6.9499   15.3150 C   0  0  0  0  0  0  0  0  0  0  0  0
    2.9530    7.3056   16.6552 C   0  0  0  0  0  0  0  0  0  0  0  0
    4.0750    7.7046   17.3725 C   0  0  0  0  0  0  0  0  0  0  0  0
   10.3003   10.4997   25.9758 C   0  0  0  0  0  0  0  0  0  0  0  0
    8.8993   10.5956   26.0429 O   0  0  0  0  0  0  0  0  0  0  0  0
    8.5877   11.2401   25.3884 H   0  0  0  0  0  0  0  0  0  0  0  0
   12.1551   12.2800   22.0129 O   0  0  0  0  0  0  0  0  0  0  0  0
   15.8716   13.4577   20.6288 C   0  0  0  0  0  0  0  0  0  0  0  0
   15.7522   12.5590   21.8386 C   0  0  0  0  0  0  0  0  0  0  0  0
   14.8556   13.0406   19.6142 C   0  0  0  0  0  0  0  0  0  0  0  0
   13.4524   12.2097   21.4511 C   0  0  0  0  0  0  0  0  0  0  0  0
   13.4581   13.1113   20.2180 C   0  0  0  0  0  0  0  0  0  0  0  0
   12.4683   12.5918   19.2910 O   0  0  0  0  0  0  0  0  0  0  0  0
   14.4437   12.6426   22.4132 O   0  0  0  0  0  0  0  0  0  0  0  0
   17.1576   13.1813   20.0559 O   0  0  0  0  0  0  0  0  0  0  0  0
   12.6786   11.6694   19.0768 H   0  0  0  0  0  0  0  0  0  0  0  0
   17.2174   12.2386   19.8353 H   0  0  0  0  0  0  0  0  0  0  0  0
   16.7870   12.9870   22.8970 C   0  0  0  0  0  0  0  0  0  0  0  0
   17.5375   11.8493   23.2820 O   0  0  0  0  0  0  0  0  0  0  0  0
   16.9414   11.1777   23.6488 H   0  0  0  0  0  0  0  0  0  0  0  0
   14.9404   13.8626   18.4681 O   0  0  0  0  0  0  0  0  0  0  0  0
   15.1080   15.2407   18.6265 C   0  0  0  0  0  0  0  0  0  0  0  0
   13.7939   15.7397   18.5239 O   0  0  0  0  0  0  0  0  0  0  0  0
   13.7824   17.1812   18.6610 C   0  0  0  0  0  0  0  0  0  0  0  0
   14.6363   17.7882   17.5335 C   0  0  0  0  0  0  0  0  0  0  0  0
   14.7012   19.2009   17.7439 O   0  0  0  0  0  0  0  0  0  0  0  0
   16.0633   17.2705   17.6145 C   0  0  0  0  0  0  0  0  0  0  0  0
   16.7675   17.6945   16.4566 O   0  0  0  0  0  0  0  0  0  0  0  0
   15.9792   15.7721   17.4837 C   0  0  0  0  0  0  0  0  0  0  0  0
   17.2603   15.1199   17.5416 O   0  0  0  0  0  0  0  0  0  0  0  0
   15.1008   19.3808   18.6093 H   0  0  0  0  0  0  0  0  0  0  0  0
   16.3108   17.3714   15.6641 H   0  0  0  0  0  0  0  0  0  0  0  0
   17.6718   15.2913   18.4031 H   0  0  0  0  0  0  0  0  0  0  0  0
   12.2913   17.6137   18.6855 C   0  0  0  0  0  0  0  0  0  0  0  0
   11.9537   18.3828   17.5128 O   0  0  0  0  0  0  0  0  0  0  0  0
   12.0962   17.8426   16.7199 H   0  0  0  0  0  0  0  0  0  0  0  0
 23 22  2  0  0  0
 23 24  1  0  0  0
 22 21  1  0  0  0
 24 25  2  0  0  0
 21 20  2  0  0  0
 25 20  1  0  0  0
 25 26  1  0  0  0
 20 19  1  0  0  0
 51 50  1  0  0  0
 59 60  1  0  0  0
 59 49  1  0  0  0
 26 27  2  0  0  0
 19 28  2  0  0  0
 50 49  1  0  0  0
 50 52  1  0  0  0
 49 48  1  0  0  0
 27 28  1  0  0  0
 28 18  1  0  0  0
 52 53  1  0  0  0
 52 54  1  0  0  0
 48 47  1  0  0  0
 18 17  1  0  0  0
 47 54  1  0  0  0
 47 46  1  0  0  0
 17 16  1  0  0  0
 54 55  1  0  0  0
 46 35  1  0  0  0
  3  2  1  0  0  0
 38 37  1  0  0  0
 16 11  1  0  0  0
 35 37  1  0  0  0
 35 33  1  0  0  0
 40 33  1  0  0  0
 11 13  1  0  0  0
 11 12  2  0  0  0
 13 14  2  0  0  0
 37 36  1  0  0  0
 12 15  1  0  0  0
 33 34  1  0  0  0
 14 15  1  0  0  0
 36 32  1  0  0  0
 36 39  1  0  0  0
 15  1  1  0  0  0
 34 39  1  0  0  0
 34 43  1  0  0  0
  2  1  1  0  0  0
  2  8  1  0  0  0
 32  8  1  0  0  0
  1  4  1  0  0  0
  8  6  1  0  0  0
 43 44  1  0  0  0
  4  5  1  0  0  0
  6  5  1  0  0  0
  6  7  1  0  0  0
  5 29  1  0  0  0
 29 30  1  0  0  0
  3  9  1  0  0  0
 30 31  1  0  0  0
  7 10  1  0  0  0
 38 41  1  0  0  0
 44 45  1  0  0  0
 40 42  1  0  0  0
 60 61  1  0  0  0
 51 56  1  0  0  0
 53 57  1  0  0  0
 55 58  1  0  0  0
M  END
> <minimizedAffinity>
-11.24662

$$$$
5O9O_9PB_A_601


 61 66  0  0  0  0  0  0  0  0999 V2000
    8.8447    9.2539   22.2007 C   0  0  0  0  0  0  0  0  0  0  0  0
    9.6950   10.0143   21.2388 C   0  0  0  0  0  0  0  0  0  0  0  0
    9.8324    9.1202   20.1300 O   0  0  0  0  0  0  0  0  0  0  0  0
    8.7563    9.9871   23.4032 O   0  0  0  0  0  0  0  0  0  0  0  0
   10.0393   10.2258   24.0245 C   0  0  0  0  0  0  0  0  0  0  0  0
   10.8987   10.9648   23.0757 C   0  0  0  0  0  0  0  0  0  0  0  0
   12.1749   11.1378   23.7133 O   0  0  0  0  0  0  0  0  0  0  0  0
   11.0606   10.1353   21.8109 C   0  0  0  0  0  0  0  0  0  0  0  0
   10.2067    8.2796   20.4369 H   0  0  0  0  0  0  0  0  0  0  0  0
   12.5426   10.2698   23.9416 H   0  0  0  0  0  0  0  0  0  0  0  0
    5.5648    8.4856   21.0993 C   0  0  0  0  0  0  0  0  0  0  0  0
    6.8248    8.0853   21.1208 C   0  0  0  0  0  0  0  0  0  0  0  0
    5.4988    9.6224   21.7737 N   0  0  0  0  0  0  0  0  0  0  0  0
    6.6320    9.9163   22.1365 N   0  0  0  0  0  0  0  0  0  0  0  0
    7.4698    9.1009   21.7195 N   0  0  0  0  0  0  0  0  0  0  0  0
    4.3764    7.7479   20.4875 C   0  0  0  0  0  0  0  0  0  0  0  0
    3.8079    8.4992   19.4353 O   0  0  0  0  0  0  0  0  0  0  0  0
    4.8433    8.9513   18.5433 C   0  0  0  0  0  0  0  0  0  0  0  0
    5.8054    8.0117   16.5137 C   0  0  0  0  0  0  0  0  0  0  0  0
    5.6109    7.3467   15.3035 C   0  0  0  0  0  0  0  0  0  0  0  0
    6.6940    7.0650   14.4808 C   0  0  0  0  0  0  0  0  0  0  0  0
    6.4970    6.4023   13.2723 C   0  0  0  0  0  0  0  0  0  0  0  0
    5.2205    6.0140   12.8825 C   0  0  0  0  0  0  0  0  0  0  0  0
    4.1342    6.2908   13.7024 C   0  0  0  0  0  0  0  0  0  0  0  0
    4.3327    6.9562   14.9061 C   0  0  0  0  0  0  0  0  0  0  0  0
    3.2438    7.2279   15.7191 C   0  0  0  0  0  0  0  0  0  0  0  0
    3.4350    7.8939   16.9244 C   0  0  0  0  0  0  0  0  0  0  0  0
    4.7074    8.2814   17.3287 C   0  0  0  0  0  0  0  0  0  0  0  0
    9.6983   11.3043   25.0587 C   0  0  0  0  0  0  0  0  0  0  0  0
    8.9103   10.7480   26.0815 O   0  0  0  0  0  0  0  0  0  0  0  0
    8.0893   10.3970   25.7026 H   0  0  0  0  0  0  0  0  0  0  0  0
   11.8909   10.8754   20.8966 O   0  0  0  0  0  0  0  0  0  0  0  0
   11.5894   14.3496   18.6707 C   0  0  0  0  0  0  0  0  0  0  0  0
   10.3827   13.4623   18.8766 C   0  0  0  0  0  0  0  0  0  0  0  0
   12.3685   14.4098   19.9455 C   0  0  0  0  0  0  0  0  0  0  0  0
   11.5044   12.1803   20.5073 C   0  0  0  0  0  0  0  0  0  0  0  0
   12.7824   13.0057   20.3691 C   0  0  0  0  0  0  0  0  0  0  0  0
   13.4316   13.0285   21.6679 O   0  0  0  0  0  0  0  0  0  0  0  0
   10.7768   12.1396   19.2564 O   0  0  0  0  0  0  0  0  0  0  0  0
   11.0756   15.6698   18.4437 O   0  0  0  0  0  0  0  0  0  0  0  0
   12.8225   13.3958   22.3274 H   0  0  0  0  0  0  0  0  0  0  0  0
   10.5314   15.9394   19.2000 H   0  0  0  0  0  0  0  0  0  0  0  0
    9.5777   13.3827   17.5652 C   0  0  0  0  0  0  0  0  0  0  0  0
   10.4815   13.4312   16.4758 O   0  0  0  0  0  0  0  0  0  0  0  0
   10.9850   14.2596   16.5100 H   0  0  0  0  0  0  0  0  0  0  0  0
   13.5059   15.2330   19.7870 O   0  0  0  0  0  0  0  0  0  0  0  0
   14.4224   14.9442   18.7726 C   0  0  0  0  0  0  0  0  0  0  0  0
   15.4479   14.2549   19.4506 O   0  0  0  0  0  0  0  0  0  0  0  0
   16.5039   13.8790   18.5338 C   0  0  0  0  0  0  0  0  0  0  0  0
   17.0901   15.1580   17.9097 C   0  0  0  0  0  0  0  0  0  0  0  0
   18.0565   14.7660   16.9316 O   0  0  0  0  0  0  0  0  0  0  0  0
   16.0088   15.9276   17.1684 C   0  0  0  0  0  0  0  0  0  0  0  0
   16.5352   17.1861   16.7742 O   0  0  0  0  0  0  0  0  0  0  0  0
   14.9494   16.2584   18.1871 C   0  0  0  0  0  0  0  0  0  0  0  0
   13.8406   16.9949   17.6410 O   0  0  0  0  0  0  0  0  0  0  0  0
   17.6275   14.2210   16.2535 H   0  0  0  0  0  0  0  0  0  0  0  0
   16.8471   17.6659   17.5575 H   0  0  0  0  0  0  0  0  0  0  0  0
   13.4014   16.4608   16.9607 H   0  0  0  0  0  0  0  0  0  0  0  0
   17.5013   13.0030   19.3394 C   0  0  0  0  0  0  0  0  0  0  0  0
   18.6210   12.6047   18.5219 O   0  0  0  0  0  0  0  0  0  0  0  0
   19.0947   13.3938   18.2156 H   0  0  0  0  0  0  0  0  0  0  0  0
 23 22  2  0  0  0
 23 24  1  0  0  0
 22 21  1  0  0  0
 24 25  2  0  0  0
 21 20  2  0  0  0
 25 20  1  0  0  0
 25 26  1  0  0  0
 20 19  1  0  0  0
 51 50  1  0  0  0
 59 60  1  0  0  0
 59 49  1  0  0  0
 26 27  2  0  0  0
 19 28  2  0  0  0
 50 49  1  0  0  0
 50 52  1  0  0  0
 49 48  1  0  0  0
 27 28  1  0  0  0
 28 18  1  0  0  0
 52 53  1  0  0  0
 52 54  1  0  0  0
 48 47  1  0  0  0
 18 17  1  0  0  0
 47 54  1  0  0  0
 47 46  1  0  0  0
 17 16  1  0  0  0
 54 55  1  0  0  0
 46 35  1  0  0  0
  3  2  1  0  0  0
 38 37  1  0  0  0
 16 11  1  0  0  0
 35 37  1  0  0  0
 35 33  1  0  0  0
 40 33  1  0  0  0
 11 13  1  0  0  0
 11 12  2  0  0  0
 13 14  2  0  0  0
 37 36  1  0  0  0
 12 15  1  0  0  0
 33 34  1  0  0  0
 14 15  1  0  0  0
 36 32  1  0  0  0
 36 39  1  0  0  0
 15  1  1  0  0  0
 34 39  1  0  0  0
 34 43  1  0  0  0
  2  1  1  0  0  0
  2  8  1  0  0  0
 32  8  1  0  0  0
  1  4  1  0  0  0
  8  6  1  0  0  0
 43 44  1  0  0  0
  4  5  1  0  0  0
  6  5  1  0  0  0
  6  7  1  0  0  0
  5 29  1  0  0  0
 29 30  1  0  0  0
  3  9  1  0  0  0
 30 31  1  0  0  0
  7 10  1  0  0  0
 38 41  1  0  0  0
 44 45  1  0  0  0
 40 42  1  0  0  0
 60 61  1  0  0  0
 51 56  1  0  0  0
 53 57  1  0  0  0
 55 58  1  0  0  0
M  END
> <minimizedAffinity>
-10.69368

$$$$
5O9O_9PB_A_601


 61 66  0  0  0  0  0  0  0  0999 V2000
    8.3468   12.8245   17.9787 C   0  0  0  0  0  0  0  0  0  0  0  0
    9.5083   13.7154   18.2677 C   0  0  0  0  0  0  0  0  0  0  0  0
    9.2166   14.2396   19.5668 O   0  0  0  0  0  0  0  0  0  0  0  0
    8.4561   12.3553   16.6523 O   0  0  0  0  0  0  0  0  0  0  0  0
    8.4692   13.4146   15.6690 C   0  0  0  0  0  0  0  0  0  0  0  0
    9.6064   14.3152   15.9531 C   0  0  0  0  0  0  0  0  0  0  0  0
    9.5533   15.3758   14.9849 O   0  0  0  0  0  0  0  0  0  0  0  0
    9.4437   14.8850   17.3541 C   0  0  0  0  0  0  0  0  0  0  0  0
    8.3524   14.6799   19.5512 H   0  0  0  0  0  0  0  0  0  0  0  0
    8.6994   15.8312   15.0508 H   0  0  0  0  0  0  0  0  0  0  0  0
    7.9758   10.0687   20.1761 C   0  0  0  0  0  0  0  0  0  0  0  0
    7.7672   11.3642   20.0142 C   0  0  0  0  0  0  0  0  0  0  0  0
    8.5328    9.6152   19.0645 N   0  0  0  0  0  0  0  0  0  0  0  0
    8.6943   10.5636   18.3051 N   0  0  0  0  0  0  0  0  0  0  0  0
    8.3416   11.6321   18.8292 N   0  0  0  0  0  0  0  0  0  0  0  0
    7.5804    9.2175   21.3802 C   0  0  0  0  0  0  0  0  0  0  0  0
    8.2769    9.6314   22.5371 O   0  0  0  0  0  0  0  0  0  0  0  0
    9.6326    9.1500   22.4892 C   0  0  0  0  0  0  0  0  0  0  0  0
   11.4356   10.6591   23.1211 C   0  0  0  0  0  0  0  0  0  0  0  0
   12.1526   11.2961   24.1333 C   0  0  0  0  0  0  0  0  0  0  0  0
   13.2081   12.1409   23.8146 C   0  0  0  0  0  0  0  0  0  0  0  0
   13.9235   12.7746   24.8271 C   0  0  0  0  0  0  0  0  0  0  0  0
   13.5857   12.5722   26.1602 C   0  0  0  0  0  0  0  0  0  0  0  0
   12.5295   11.7306   26.4846 C   0  0  0  0  0  0  0  0  0  0  0  0
   11.8198   11.0957   25.4725 C   0  0  0  0  0  0  0  0  0  0  0  0
   10.7668   10.2582   25.8043 C   0  0  0  0  0  0  0  0  0  0  0  0
   10.0528    9.6193   24.7968 C   0  0  0  0  0  0  0  0  0  0  0  0
   10.3764    9.8189   23.4596 C   0  0  0  0  0  0  0  0  0  0  0  0
    8.9463   12.6785   14.4122 C   0  0  0  0  0  0  0  0  0  0  0  0
   10.3507   12.7038   14.3524 O   0  0  0  0  0  0  0  0  0  0  0  0
   10.6565   13.6237   14.3199 H   0  0  0  0  0  0  0  0  0  0  0  0
   10.5646   15.7501   17.6155 O   0  0  0  0  0  0  0  0  0  0  0  0
   12.3025   17.2731   21.0470 C   0  0  0  0  0  0  0  0  0  0  0  0
   10.8809   16.7593   21.0693 C   0  0  0  0  0  0  0  0  0  0  0  0
   13.1315   16.3655   20.1956 C   0  0  0  0  0  0  0  0  0  0  0  0
   11.1058   15.8108   18.9220 C   0  0  0  0  0  0  0  0  0  0  0  0
   12.5485   16.2952   18.7894 C   0  0  0  0  0  0  0  0  0  0  0  0
   13.2643   15.3234   17.9817 O   0  0  0  0  0  0  0  0  0  0  0  0
   10.3312   16.7123   19.7484 O   0  0  0  0  0  0  0  0  0  0  0  0
   12.7939   17.1360   22.3880 O   0  0  0  0  0  0  0  0  0  0  0  0
   13.2034   14.4494   18.3980 H   0  0  0  0  0  0  0  0  0  0  0  0
   12.7305   16.2078   22.6623 H   0  0  0  0  0  0  0  0  0  0  0  0
   10.0136   17.6938   21.9346 C   0  0  0  0  0  0  0  0  0  0  0  0
    9.8428   17.1009   23.2094 O   0  0  0  0  0  0  0  0  0  0  0  0
    9.4094   16.2388   23.1096 H   0  0  0  0  0  0  0  0  0  0  0  0
   14.4692   16.8186   20.1533 O   0  0  0  0  0  0  0  0  0  0  0  0
   15.5039   15.8850   20.0531 C   0  0  0  0  0  0  0  0  0  0  0  0
   15.6733   15.7387   18.6616 O   0  0  0  0  0  0  0  0  0  0  0  0
   16.7226   14.7837   18.3721 C   0  0  0  0  0  0  0  0  0  0  0  0
   16.3270   13.4229   18.9725 C   0  0  0  0  0  0  0  0  0  0  0  0
   17.4171   12.5202   18.7704 O   0  0  0  0  0  0  0  0  0  0  0  0
   16.1361   13.5443   20.4758 C   0  0  0  0  0  0  0  0  0  0  0  0
   15.5881   12.3288   20.9644 O   0  0  0  0  0  0  0  0  0  0  0  0
   15.0482   14.5653   20.6843 C   0  0  0  0  0  0  0  0  0  0  0  0
   14.7425   14.8008   22.0704 O   0  0  0  0  0  0  0  0  0  0  0  0
   18.2104   12.8683   19.2069 H   0  0  0  0  0  0  0  0  0  0  0  0
   14.7522   12.1446   20.5082 H   0  0  0  0  0  0  0  0  0  0  0  0
   15.5280   15.1500   22.5199 H   0  0  0  0  0  0  0  0  0  0  0  0
   16.9329   14.8069   16.8338 C   0  0  0  0  0  0  0  0  0  0  0  0
   15.9305   14.0181   16.1601 O   0  0  0  0  0  0  0  0  0  0  0  0
   15.0517   14.3831   16.3482 H   0  0  0  0  0  0  0  0  0  0  0  0
 23 22  2  0  0  0
 23 24  1  0  0  0
 22 21  1  0  0  0
 24 25  2  0  0  0
 21 20  2  0  0  0
 25 20  1  0  0  0
 25 26  1  0  0  0
 20 19  1  0  0  0
 51 50  1  0  0  0
 59 60  1  0  0  0
 59 49  1  0  0  0
 26 27  2  0  0  0
 19 28  2  0  0  0
 50 49  1  0  0  0
 50 52  1  0  0  0
 49 48  1  0  0  0
 27 28  1  0  0  0
 28 18  1  0  0  0
 52 53  1  0  0  0
 52 54  1  0  0  0
 48 47  1  0  0  0
 18 17  1  0  0  0
 47 54  1  0  0  0
 47 46  1  0  0  0
 17 16  1  0  0  0
 54 55  1  0  0  0
 46 35  1  0  0  0
  3  2  1  0  0  0
 38 37  1  0  0  0
 16 11  1  0  0  0
 35 37  1  0  0  0
 35 33  1  0  0  0
 40 33  1  0  0  0
 11 13  1  0  0  0
 11 12  2  0  0  0
 13 14  2  0  0  0
 37 36  1  0  0  0
 12 15  1  0  0  0
 33 34  1  0  0  0
 14 15  1  0  0  0
 36 32  1  0  0  0
 36 39  1  0  0  0
 15  1  1  0  0  0
 34 39  1  0  0  0
 34 43  1  0  0  0
  2  1  1  0  0  0
  2  8  1  0  0  0
 32  8  1  0  0  0
  1  4  1  0  0  0
  8  6  1  0  0  0
 43 44  1  0  0  0
  4  5  1  0  0  0
  6  5  1  0  0  0
  6  7  1  0  0  0
  5 29  1  0  0  0
 29 30  1  0  0  0
  3  9  1  0  0  0
 30 31  1  0  0  0
  7 10  1  0  0  0
 38 41  1  0  0  0
 44 45  1  0  0  0
 40 42  1  0  0  0
 60 61  1  0  0  0
 51 56  1  0  0  0
 53 57  1  0  0  0
 55 58  1  0  0  0
M  END
> <minimizedAffinity>
-9.83594

$$$$
5O9O_9PB_A_601


 61 66  0  0  0  0  0  0  0  0999 V2000
    7.9444   12.7048   17.6670 C   0  0  0  0  0  0  0  0  0  0  0  0
    8.8312   13.7657   18.2279 C   0  0  0  0  0  0  0  0  0  0  0  0
    8.1295   14.2109   19.3929 O   0  0  0  0  0  0  0  0  0  0  0  0
    8.4707   12.2850   16.4268 O   0  0  0  0  0  0  0  0  0  0  0  0
    8.5702   13.3511   15.4560 C   0  0  0  0  0  0  0  0  0  0  0  0
    9.4336   14.4177   16.0056 C   0  0  0  0  0  0  0  0  0  0  0  0
    9.4658   15.4742   15.0321 O   0  0  0  0  0  0  0  0  0  0  0  0
    8.8208   14.9268   17.3015 C   0  0  0  0  0  0  0  0  0  0  0  0
    7.2404   14.5063   19.1416 H   0  0  0  0  0  0  0  0  0  0  0  0
    8.5628   15.7847   14.8618 H   0  0  0  0  0  0  0  0  0  0  0  0
    7.5304    9.9794   19.8945 C   0  0  0  0  0  0  0  0  0  0  0  0
    7.4365   11.2907   19.7537 C   0  0  0  0  0  0  0  0  0  0  0  0
    7.9210    9.4831   18.7315 N   0  0  0  0  0  0  0  0  0  0  0  0
    8.0966   10.4177   17.9583 N   0  0  0  0  0  0  0  0  0  0  0  0
    7.9086   11.5110   18.5149 N   0  0  0  0  0  0  0  0  0  0  0  0
    7.1792    9.1607   21.1344 C   0  0  0  0  0  0  0  0  0  0  0  0
    7.9429    9.5812   22.2455 O   0  0  0  0  0  0  0  0  0  0  0  0
    9.1654    8.8243   22.3123 C   0  0  0  0  0  0  0  0  0  0  0  0
   10.4225    9.9747   24.0513 C   0  0  0  0  0  0  0  0  0  0  0  0
   11.4605   10.8415   24.3917 C   0  0  0  0  0  0  0  0  0  0  0  0
   11.7055   11.1465   25.7245 C   0  0  0  0  0  0  0  0  0  0  0  0
   12.7415   12.0133   26.0617 C   0  0  0  0  0  0  0  0  0  0  0  0
   13.5397   12.5748   25.0718 C   0  0  0  0  0  0  0  0  0  0  0  0
   13.3009   12.2713   23.7377 C   0  0  0  0  0  0  0  0  0  0  0  0
   12.2635   11.4093   23.4033 C   0  0  0  0  0  0  0  0  0  0  0  0
   12.0322   11.1108   22.0699 C   0  0  0  0  0  0  0  0  0  0  0  0
   10.9956   10.2496   21.7281 C   0  0  0  0  0  0  0  0  0  0  0  0
   10.1946    9.6763   22.7091 C   0  0  0  0  0  0  0  0  0  0  0  0
    9.4713   12.7259   14.3854 C   0  0  0  0  0  0  0  0  0  0  0  0
   10.8201   12.8867   14.7479 O   0  0  0  0  0  0  0  0  0  0  0  0
   11.0236   13.8320   14.8253 H   0  0  0  0  0  0  0  0  0  0  0  0
    9.6802   15.9562   17.8258 O   0  0  0  0  0  0  0  0  0  0  0  0
   12.0276   16.6660   21.1576 C   0  0  0  0  0  0  0  0  0  0  0  0
   10.5326   16.4882   21.2953 C   0  0  0  0  0  0  0  0  0  0  0  0
   12.5393   15.6918   20.1454 C   0  0  0  0  0  0  0  0  0  0  0  0
   10.3347   15.7512   19.0640 C   0  0  0  0  0  0  0  0  0  0  0  0
   11.8332   15.9077   18.8122 C   0  0  0  0  0  0  0  0  0  0  0  0
   12.2242   14.8923   17.8505 O   0  0  0  0  0  0  0  0  0  0  0  0
    9.8718   16.7100   20.0449 O   0  0  0  0  0  0  0  0  0  0  0  0
   12.5901   16.2772   22.4189 O   0  0  0  0  0  0  0  0  0  0  0  0
   11.9959   14.0150   18.1958 H   0  0  0  0  0  0  0  0  0  0  0  0
   12.3339   15.3634   22.6192 H   0  0  0  0  0  0  0  0  0  0  0  0
    9.9914   17.4958   22.3279 C   0  0  0  0  0  0  0  0  0  0  0  0
    9.9796   16.8762   23.6014 O   0  0  0  0  0  0  0  0  0  0  0  0
    9.4134   16.0891   23.5728 H   0  0  0  0  0  0  0  0  0  0  0  0
   13.9369   15.8320   19.9921 O   0  0  0  0  0  0  0  0  0  0  0  0
   14.6753   14.7732   19.4574 C   0  0  0  0  0  0  0  0  0  0  0  0
   15.3080   14.2175   20.5875 O   0  0  0  0  0  0  0  0  0  0  0  0
   16.1351   13.0911   20.2080 C   0  0  0  0  0  0  0  0  0  0  0  0
   17.2120   13.5824   19.2242 C   0  0  0  0  0  0  0  0  0  0  0  0
   17.9523   12.4433   18.7788 O   0  0  0  0  0  0  0  0  0  0  0  0
   16.5631   14.1888   17.9905 C   0  0  0  0  0  0  0  0  0  0  0  0
   17.5717   14.8012   17.2004 O   0  0  0  0  0  0  0  0  0  0  0  0
   15.7118   15.3325   18.4774 C   0  0  0  0  0  0  0  0  0  0  0  0
   15.0198   16.0210   17.4206 O   0  0  0  0  0  0  0  0  0  0  0  0
   17.3522   11.8177   18.3435 H   0  0  0  0  0  0  0  0  0  0  0  0
   18.0357   15.4690   17.7293 H   0  0  0  0  0  0  0  0  0  0  0  0
   14.4150   15.4066   16.9761 H   0  0  0  0  0  0  0  0  0  0  0  0
   16.6621   12.4622   21.5263 C   0  0  0  0  0  0  0  0  0  0  0  0
   17.3454   13.4432   22.3335 O   0  0  0  0  0  0  0  0  0  0  0  0
   16.7298   14.1558   22.5663 H   0  0  0  0  0  0  0  0  0  0  0  0
 23 22  2  0  0  0
 23 24  1  0  0  0
 22 21  1  0  0  0
 24 25  2  0  0  0
 21 20  2  0  0  0
 25 20  1  0  0  0
 25 26  1  0  0  0
 20 19  1  0  0  0
 51 50  1  0  0  0
 59 60  1  0  0  0
 59 49  1  0  0  0
 26 27  2  0  0  0
 19 28  2  0  0  0
 50 49  1  0  0  0
 50 52  1  0  0  0
 49 48  1  0  0  0
 27 28  1  0  0  0
 28 18  1  0  0  0
 52 53  1  0  0  0
 52 54  1  0  0  0
 48 47  1  0  0  0
 18 17  1  0  0  0
 47 54  1  0  0  0
 47 46  1  0  0  0
 17 16  1  0  0  0
 54 55  1  0  0  0
 46 35  1  0  0  0
  3  2  1  0  0  0
 38 37  1  0  0  0
 16 11  1  0  0  0
 35 37  1  0  0  0
 35 33  1  0  0  0
 40 33  1  0  0  0
 11 13  1  0  0  0
 11 12  2  0  0  0
 13 14  2  0  0  0
 37 36  1  0  0  0
 12 15  1  0  0  0
 33 34  1  0  0  0
 14 15  1  0  0  0
 36 32  1  0  0  0
 36 39  1  0  0  0
 15  1  1  0  0  0
 34 39  1  0  0  0
 34 43  1  0  0  0
  2  1  1  0  0  0
  2  8  1  0  0  0
 32  8  1  0  0  0
  1  4  1  0  0  0
  8  6  1  0  0  0
 43 44  1  0  0  0
  4  5  1  0  0  0
  6  5  1  0  0  0
  6  7  1  0  0  0
  5 29  1  0  0  0
 29 30  1  0  0  0
  3  9  1  0  0  0
 30 31  1  0  0  0
  7 10  1  0  0  0
 38 41  1  0  0  0
 44 45  1  0  0  0
 40 42  1  0  0  0
 60 61  1  0  0  0
 51 56  1  0  0  0
 53 57  1  0  0  0
 55 58  1  0  0  0
M  END
> <minimizedAffinity>
-9.77719

$$$$
5O9O_9PB_A_601


 61 66  0  0  0  0  0  0  0  0999 V2000
   10.1821   10.9258   22.8128 C   0  0  0  0  0  0  0  0  0  0  0  0
   10.7595   12.1964   22.2849 C   0  0  0  0  0  0  0  0  0  0  0  0
   10.5616   12.0954   20.8713 O   0  0  0  0  0  0  0  0  0  0  0  0
   10.4479   10.8492   24.1966 O   0  0  0  0  0  0  0  0  0  0  0  0
   11.8585   10.8701   24.5112 C   0  0  0  0  0  0  0  0  0  0  0  0
   12.4475   12.1171   23.9794 C   0  0  0  0  0  0  0  0  0  0  0  0
   13.8540   12.0742   24.2710 O   0  0  0  0  0  0  0  0  0  0  0  0
   12.2324   12.1590   22.4740 C   0  0  0  0  0  0  0  0  0  0  0  0
   10.9802   11.2841   20.5434 H   0  0  0  0  0  0  0  0  0  0  0  0
   14.2439   11.2830   23.8674 H   0  0  0  0  0  0  0  0  0  0  0  0
    6.6954   10.4315   22.4139 C   0  0  0  0  0  0  0  0  0  0  0  0
    7.8974   10.0834   21.9870 C   0  0  0  0  0  0  0  0  0  0  0  0
    6.8608   11.3035   23.3956 N   0  0  0  0  0  0  0  0  0  0  0  0
    8.0625   11.5068   23.5259 N   0  0  0  0  0  0  0  0  0  0  0  0
    8.7241   10.8854   22.6792 N   0  0  0  0  0  0  0  0  0  0  0  0
    5.3546    9.8810   21.9343 C   0  0  0  0  0  0  0  0  0  0  0  0
    5.3916    9.6076   20.5491 O   0  0  0  0  0  0  0  0  0  0  0  0
    5.4121    8.1847   20.3327 C   0  0  0  0  0  0  0  0  0  0  0  0
    5.7574    8.0738   17.9252 C   0  0  0  0  0  0  0  0  0  0  0  0
    5.2338    7.8086   16.6602 C   0  0  0  0  0  0  0  0  0  0  0  0
    6.0319    7.9478   15.5319 C   0  0  0  0  0  0  0  0  0  0  0  0
    5.5064    7.6837   14.2700 C   0  0  0  0  0  0  0  0  0  0  0  0
    4.1851    7.2753   14.1292 C   0  0  0  0  0  0  0  0  0  0  0  0
    3.3833    7.1319   15.2542 C   0  0  0  0  0  0  0  0  0  0  0  0
    3.9088    7.4002   16.5123 C   0  0  0  0  0  0  0  0  0  0  0  0
    3.1026    7.2540   17.6299 C   0  0  0  0  0  0  0  0  0  0  0  0
    3.6216    7.5213   18.8917 C   0  0  0  0  0  0  0  0  0  0  0  0
    4.9433    7.9239   19.0463 C   0  0  0  0  0  0  0  0  0  0  0  0
   11.8457   11.1371   26.0204 C   0  0  0  0  0  0  0  0  0  0  0  0
   10.6822   10.5896   26.5889 O   0  0  0  0  0  0  0  0  0  0  0  0
    9.9013   10.9992   26.1848 H   0  0  0  0  0  0  0  0  0  0  0  0
   12.8030   13.3839   21.9769 O   0  0  0  0  0  0  0  0  0  0  0  0
   15.2784   14.4983   18.8551 C   0  0  0  0  0  0  0  0  0  0  0  0
   15.4488   13.1555   19.5284 C   0  0  0  0  0  0  0  0  0  0  0  0
   13.8181   14.7888   18.7180 C   0  0  0  0  0  0  0  0  0  0  0  0
   13.4176   13.3970   20.7018 C   0  0  0  0  0  0  0  0  0  0  0  0
   13.1532   14.7711   20.0892 C   0  0  0  0  0  0  0  0  0  0  0  0
   11.7145   14.9269   19.9674 O   0  0  0  0  0  0  0  0  0  0  0  0
   14.8387   13.1494   20.8234 O   0  0  0  0  0  0  0  0  0  0  0  0
   15.7899   14.3412   17.5239 O   0  0  0  0  0  0  0  0  0  0  0  0
   11.3557   14.2051   19.4278 H   0  0  0  0  0  0  0  0  0  0  0  0
   15.3093   13.6283   17.0749 H   0  0  0  0  0  0  0  0  0  0  0  0
   16.9508   12.8502   19.6863 C   0  0  0  0  0  0  0  0  0  0  0  0
   17.4838   12.5307   18.4135 O   0  0  0  0  0  0  0  0  0  0  0  0
   17.0209   11.7578   18.0539 H   0  0  0  0  0  0  0  0  0  0  0  0
   13.6234   16.0400   18.0911 O   0  0  0  0  0  0  0  0  0  0  0  0
   14.5091   17.0859   18.3633 C   0  0  0  0  0  0  0  0  0  0  0  0
   13.7604   17.9319   19.2060 O   0  0  0  0  0  0  0  0  0  0  0  0
   14.5382   19.0925   19.5867 C   0  0  0  0  0  0  0  0  0  0  0  0
   14.9193   19.8672   18.3126 C   0  0  0  0  0  0  0  0  0  0  0  0
   15.7730   20.9485   18.6951 O   0  0  0  0  0  0  0  0  0  0  0  0
   15.7299   18.9827   17.3791 C   0  0  0  0  0  0  0  0  0  0  0  0
   15.8969   19.6594   16.1419 O   0  0  0  0  0  0  0  0  0  0  0  0
   14.8576   17.7986   17.0526 C   0  0  0  0  0  0  0  0  0  0  0  0
   15.4845   16.8527   16.1682 O   0  0  0  0  0  0  0  0  0  0  0  0
   16.5652   20.5966   19.1304 H   0  0  0  0  0  0  0  0  0  0  0  0
   15.0267   19.8740   15.7707 H   0  0  0  0  0  0  0  0  0  0  0  0
   16.2792   16.4918   16.5915 H   0  0  0  0  0  0  0  0  0  0  0  0
   13.6892   19.8761   20.6242 C   0  0  0  0  0  0  0  0  0  0  0  0
   13.9037   19.3719   21.9585 O   0  0  0  0  0  0  0  0  0  0  0  0
   14.8383   19.4749   22.1968 H   0  0  0  0  0  0  0  0  0  0  0  0
 23 22  2  0  0  0
 23 24  1  0  0  0
 22 21  1  0  0  0
 24 25  2  0  0  0
 21 20  2  0  0  0
 25 20  1  0  0  0
 25 26  1  0  0  0
 20 19  1  0  0  0
 51 50  1  0  0  0
 59 60  1  0  0  0
 59 49  1  0  0  0
 26 27  2  0  0  0
 19 28  2  0  0  0
 50 49  1  0  0  0
 50 52  1  0  0  0
 49 48  1  0  0  0
 27 28  1  0  0  0
 28 18  1  0  0  0
 52 53  1  0  0  0
 52 54  1  0  0  0
 48 47  1  0  0  0
 18 17  1  0  0  0
 47 54  1  0  0  0
 47 46  1  0  0  0
 17 16  1  0  0  0
 54 55  1  0  0  0
 46 35  1  0  0  0
  3  2  1  0  0  0
 38 37  1  0  0  0
 16 11  1  0  0  0
 35 37  1  0  0  0
 35 33  1  0  0  0
 40 33  1  0  0  0
 11 13  1  0  0  0
 11 12  2  0  0  0
 13 14  2  0  0  0
 37 36  1  0  0  0
 12 15  1  0  0  0
 33 34  1  0  0  0
 14 15  1  0  0  0
 36 32  1  0  0  0
 36 39  1  0  0  0
 15  1  1  0  0  0
 34 39  1  0  0  0
 34 43  1  0  0  0
  2  1  1  0  0  0
  2  8  1  0  0  0
 32  8  1  0  0  0
  1  4  1  0  0  0
  8  6  1  0  0  0
 43 44  1  0  0  0
  4  5  1  0  0  0
  6  5  1  0  0  0
  6  7  1  0  0  0
  5 29  1  0  0  0
 29 30  1  0  0  0
  3  9  1  0  0  0
 30 31  1  0  0  0
  7 10  1  0  0  0
 38 41  1  0  0  0
 44 45  1  0  0  0
 40 42  1  0  0  0
 60 61  1  0  0  0
 51 56  1  0  0  0
 53 57  1  0  0  0
 55 58  1  0  0  0
M  END
> <minimizedAffinity>
-9.64665

$$$$
5O9O_9PB_A_601


 61 66  0  0  0  0  0  0  0  0999 V2000
    8.0488   12.6609   17.6403 C   0  0  0  0  0  0  0  0  0  0  0  0
    9.2280   13.4963   18.0121 C   0  0  0  0  0  0  0  0  0  0  0  0
    8.8713   14.0339   19.2893 O   0  0  0  0  0  0  0  0  0  0  0  0
    8.2281   12.1868   16.3233 O   0  0  0  0  0  0  0  0  0  0  0  0
    8.3594   13.2440   15.3465 C   0  0  0  0  0  0  0  0  0  0  0  0
    9.5150   14.0901   15.7117 C   0  0  0  0  0  0  0  0  0  0  0  0
    9.5793   15.1518   14.7455 O   0  0  0  0  0  0  0  0  0  0  0  0
    9.2821   14.6673   17.0998 C   0  0  0  0  0  0  0  0  0  0  0  0
    8.0320   14.5144   19.2150 H   0  0  0  0  0  0  0  0  0  0  0  0
    8.7453   15.6470   14.7531 H   0  0  0  0  0  0  0  0  0  0  0  0
    7.3732    9.7564   19.5555 C   0  0  0  0  0  0  0  0  0  0  0  0
    6.8819   10.8976   19.1034 C   0  0  0  0  0  0  0  0  0  0  0  0
    8.6089    9.6468   19.0946 N   0  0  0  0  0  0  0  0  0  0  0  0
    8.8673   10.6590   18.4535 N   0  0  0  0  0  0  0  0  0  0  0  0
    7.9284   11.4702   18.4848 N   0  0  0  0  0  0  0  0  0  0  0  0
    6.6413    8.7060   20.3873 C   0  0  0  0  0  0  0  0  0  0  0  0
    6.0155    7.7532   19.5535 O   0  0  0  0  0  0  0  0  0  0  0  0
    4.6102    8.0460   19.4467 C   0  0  0  0  0  0  0  0  0  0  0  0
    2.9305    7.2393   17.8796 C   0  0  0  0  0  0  0  0  0  0  0  0
    2.5699    6.9646   16.5609 C   0  0  0  0  0  0  0  0  0  0  0  0
    1.3126    6.4480   16.2750 C   0  0  0  0  0  0  0  0  0  0  0  0
    0.9554    6.1732   14.9577 C   0  0  0  0  0  0  0  0  0  0  0  0
    1.8485    6.4171   13.9208 C   0  0  0  0  0  0  0  0  0  0  0  0
    3.1061    6.9360   14.2006 C   0  0  0  0  0  0  0  0  0  0  0  0
    3.4619    7.2054   15.5166 C   0  0  0  0  0  0  0  0  0  0  0  0
    4.7182    7.7239   15.7875 C   0  0  0  0  0  0  0  0  0  0  0  0
    5.0811    7.9953   17.1019 C   0  0  0  0  0  0  0  0  0  0  0  0
    4.1945    7.7621   18.1470 C   0  0  0  0  0  0  0  0  0  0  0  0
    8.8878   12.4860   14.1237 C   0  0  0  0  0  0  0  0  0  0  0  0
   10.2929   12.4532   14.1570 O   0  0  0  0  0  0  0  0  0  0  0  0
   10.6378   13.3598   14.1452 H   0  0  0  0  0  0  0  0  0  0  0  0
   10.4215   15.4788   17.4412 O   0  0  0  0  0  0  0  0  0  0  0  0
   12.4810   16.6692   20.8259 C   0  0  0  0  0  0  0  0  0  0  0  0
   10.9832   16.8526   20.7343 C   0  0  0  0  0  0  0  0  0  0  0  0
   12.8446   15.3503   20.2226 C   0  0  0  0  0  0  0  0  0  0  0  0
   10.8605   15.5298   18.7859 C   0  0  0  0  0  0  0  0  0  0  0  0
   12.3693   15.2912   18.7759 C   0  0  0  0  0  0  0  0  0  0  0  0
   12.6007   13.9741   18.2098 O   0  0  0  0  0  0  0  0  0  0  0  0
   10.5437   16.8148   19.3724 O   0  0  0  0  0  0  0  0  0  0  0  0
   12.7833   16.5750   22.2252 O   0  0  0  0  0  0  0  0  0  0  0  0
   12.1238   13.3097   18.7312 H   0  0  0  0  0  0  0  0  0  0  0  0
   12.2866   15.8383   22.6144 H   0  0  0  0  0  0  0  0  0  0  0  0
   10.5973   18.2147   21.3424 C   0  0  0  0  0  0  0  0  0  0  0  0
   11.7442   19.0457   21.3553 O   0  0  0  0  0  0  0  0  0  0  0  0
   12.4406   18.6274   21.8854 H   0  0  0  0  0  0  0  0  0  0  0  0
   14.2412   15.1472   20.2921 O   0  0  0  0  0  0  0  0  0  0  0  0
   14.7360   13.8500   20.4498 C   0  0  0  0  0  0  0  0  0  0  0  0
   14.9968   13.7698   21.8325 O   0  0  0  0  0  0  0  0  0  0  0  0
   15.5316   12.4690   22.1772 C   0  0  0  0  0  0  0  0  0  0  0  0
   16.8482   12.2602   21.4079 C   0  0  0  0  0  0  0  0  0  0  0  0
   17.3080   10.9334   21.6766 O   0  0  0  0  0  0  0  0  0  0  0  0
   16.6030   12.3402   19.9097 C   0  0  0  0  0  0  0  0  0  0  0  0
   17.8567   12.3374   19.2428 O   0  0  0  0  0  0  0  0  0  0  0  0
   16.0325   13.7093   19.6457 C   0  0  0  0  0  0  0  0  0  0  0  0
   15.7402   13.9493   18.2575 O   0  0  0  0  0  0  0  0  0  0  0  0
   16.6384   10.2942   21.3869 H   0  0  0  0  0  0  0  0  0  0  0  0
   18.3938   13.0799   19.5607 H   0  0  0  0  0  0  0  0  0  0  0  0
   15.0706   13.3165   17.9540 H   0  0  0  0  0  0  0  0  0  0  0  0
   15.6413   12.4292   23.7255 C   0  0  0  0  0  0  0  0  0  0  0  0
   17.0182   12.3446   24.1472 O   0  0  0  0  0  0  0  0  0  0  0  0
   17.5013   13.1245   23.8323 H   0  0  0  0  0  0  0  0  0  0  0  0
 23 22  2  0  0  0
 23 24  1  0  0  0
 22 21  1  0  0  0
 24 25  2  0  0  0
 21 20  2  0  0  0
 25 20  1  0  0  0
 25 26  1  0  0  0
 20 19  1  0  0  0
 51 50  1  0  0  0
 59 60  1  0  0  0
 59 49  1  0  0  0
 26 27  2  0  0  0
 19 28  2  0  0  0
 50 49  1  0  0  0
 50 52  1  0  0  0
 49 48  1  0  0  0
 27 28  1  0  0  0
 28 18  1  0  0  0
 52 53  1  0  0  0
 52 54  1  0  0  0
 48 47  1  0  0  0
 18 17  1  0  0  0
 47 54  1  0  0  0
 47 46  1  0  0  0
 17 16  1  0  0  0
 54 55  1  0  0  0
 46 35  1  0  0  0
  3  2  1  0  0  0
 38 37  1  0  0  0
 16 11  1  0  0  0
 35 37  1  0  0  0
 35 33  1  0  0  0
 40 33  1  0  0  0
 11 13  1  0  0  0
 11 12  2  0  0  0
 13 14  2  0  0  0
 37 36  1  0  0  0
 12 15  1  0  0  0
 33 34  1  0  0  0
 14 15  1  0  0  0
 36 32  1  0  0  0
 36 39  1  0  0  0
 15  1  1  0  0  0
 34 39  1  0  0  0
 34 43  1  0  0  0
  2  1  1  0  0  0
  2  8  1  0  0  0
 32  8  1  0  0  0
  1  4  1  0  0  0
  8  6  1  0  0  0
 43 44  1  0  0  0
  4  5  1  0  0  0
  6  5  1  0  0  0
  6  7  1  0  0  0
  5 29  1  0  0  0
 29 30  1  0  0  0
  3  9  1  0  0  0
 30 31  1  0  0  0
  7 10  1  0  0  0
 38 41  1  0  0  0
 44 45  1  0  0  0
 40 42  1  0  0  0
 60 61  1  0  0  0
 51 56  1  0  0  0
 53 57  1  0  0  0
 55 58  1  0  0  0
M  END
> <minimizedAffinity>
-9.43064

$$$$
5O9O_9PB_A_601


 61 66  0  0  0  0  0  0  0  0999 V2000
    6.8187    9.6573   19.2996 C   0  0  0  0  0  0  0  0  0  0  0  0
    7.4747    8.8642   18.2193 C   0  0  0  0  0  0  0  0  0  0  0  0
    8.4641    9.7572   17.6984 O   0  0  0  0  0  0  0  0  0  0  0  0
    5.7217    8.9222   19.7973 O   0  0  0  0  0  0  0  0  0  0  0  0
    4.7292    8.6216   18.7906 C   0  0  0  0  0  0  0  0  0  0  0  0
    5.3694    7.8493   17.7050 C   0  0  0  0  0  0  0  0  0  0  0  0
    4.3623    7.6145   16.7072 O   0  0  0  0  0  0  0  0  0  0  0  0
    6.5002    8.6775   17.1138 C   0  0  0  0  0  0  0  0  0  0  0  0
    8.0373   10.5780   17.4068 H   0  0  0  0  0  0  0  0  0  0  0  0
    4.0116    8.4635   16.3957 H   0  0  0  0  0  0  0  0  0  0  0  0
    8.6386   10.2477   22.2829 C   0  0  0  0  0  0  0  0  0  0  0  0
    7.5792   10.5925   21.5709 C   0  0  0  0  0  0  0  0  0  0  0  0
    9.2615    9.2832   21.6247 N   0  0  0  0  0  0  0  0  0  0  0  0
    8.6591    9.0878   20.5753 N   0  0  0  0  0  0  0  0  0  0  0  0
    7.7094    9.8758   20.4416 N   0  0  0  0  0  0  0  0  0  0  0  0
    9.0420   10.7899   23.6519 C   0  0  0  0  0  0  0  0  0  0  0  0
   10.2180   10.1589   24.1142 O   0  0  0  0  0  0  0  0  0  0  0  0
   10.7825   10.9149   25.2014 C   0  0  0  0  0  0  0  0  0  0  0  0
   12.4981   11.2444   23.5056 C   0  0  0  0  0  0  0  0  0  0  0  0
   13.7657   11.7219   23.1742 C   0  0  0  0  0  0  0  0  0  0  0  0
   14.2400   11.5975   21.8747 C   0  0  0  0  0  0  0  0  0  0  0  0
   15.5065   12.0737   21.5467 C   0  0  0  0  0  0  0  0  0  0  0  0
   16.3022   12.6798   22.5120 C   0  0  0  0  0  0  0  0  0  0  0  0
   15.8320   12.8093   23.8124 C   0  0  0  0  0  0  0  0  0  0  0  0
   14.5693   12.3293   24.1384 C   0  0  0  0  0  0  0  0  0  0  0  0
   14.1070   12.4630   25.4379 C   0  0  0  0  0  0  0  0  0  0  0  0
   12.8449   11.9845   25.7712 C   0  0  0  0  0  0  0  0  0  0  0  0
   12.0368   11.3825   24.8135 C   0  0  0  0  0  0  0  0  0  0  0  0
    3.8790    7.5541   19.4883 C   0  0  0  0  0  0  0  0  0  0  0  0
    4.4394    7.2452   20.7401 O   0  0  0  0  0  0  0  0  0  0  0  0
    5.3400    6.9067   20.6165 H   0  0  0  0  0  0  0  0  0  0  0  0
    7.1170    7.9053   16.0668 O   0  0  0  0  0  0  0  0  0  0  0  0
    6.5261    9.8313   12.4534 C   0  0  0  0  0  0  0  0  0  0  0  0
    7.2682   10.5182   13.5773 C   0  0  0  0  0  0  0  0  0  0  0  0
    6.9336    8.3933   12.4126 C   0  0  0  0  0  0  0  0  0  0  0  0
    7.3947    8.5191   14.8219 C   0  0  0  0  0  0  0  0  0  0  0  0
    6.6395    7.7310   13.7533 C   0  0  0  0  0  0  0  0  0  0  0  0
    7.1415    6.3685   13.7773 O   0  0  0  0  0  0  0  0  0  0  0  0
    6.9746    9.9044   14.8368 O   0  0  0  0  0  0  0  0  0  0  0  0
    7.0074   10.4263   11.2398 O   0  0  0  0  0  0  0  0  0  0  0  0
    8.0996    6.3743   13.6259 H   0  0  0  0  0  0  0  0  0  0  0  0
    7.9691   10.3136   11.1837 H   0  0  0  0  0  0  0  0  0  0  0  0
    6.8472   11.9992   13.6371 C   0  0  0  0  0  0  0  0  0  0  0  0
    7.9048   12.7911   13.1267 O   0  0  0  0  0  0  0  0  0  0  0  0
    8.7024   12.6477   13.6597 H   0  0  0  0  0  0  0  0  0  0  0  0
    6.2565    7.7207   11.3707 O   0  0  0  0  0  0  0  0  0  0  0  0
    4.8898    7.4605   11.5002 C   0  0  0  0  0  0  0  0  0  0  0  0
    4.8398    6.0590   11.6407 O   0  0  0  0  0  0  0  0  0  0  0  0
    3.4710    5.6080   11.7821 C   0  0  0  0  0  0  0  0  0  0  0  0
    2.6885    6.0114   10.5197 C   0  0  0  0  0  0  0  0  0  0  0  0
    1.3187    5.6536   10.7192 O   0  0  0  0  0  0  0  0  0  0  0  0
    2.7215    7.5203   10.3373 C   0  0  0  0  0  0  0  0  0  0  0  0
    2.1615    7.8380    9.0717 O   0  0  0  0  0  0  0  0  0  0  0  0
    4.1742    7.9017   10.2193 C   0  0  0  0  0  0  0  0  0  0  0  0
    4.3822    9.3141   10.0404 O   0  0  0  0  0  0  0  0  0  0  0  0
    0.9734    6.1178   11.4977 H   0  0  0  0  0  0  0  0  0  0  0  0
    2.6564    7.3793    8.3748 H   0  0  0  0  0  0  0  0  0  0  0  0
    4.0413    9.7915   10.8129 H   0  0  0  0  0  0  0  0  0  0  0  0
    3.5330    4.0853   12.0797 C   0  0  0  0  0  0  0  0  0  0  0  0
    3.2509    3.3122   10.8950 O   0  0  0  0  0  0  0  0  0  0  0  0
    3.9118    3.5117   10.2137 H   0  0  0  0  0  0  0  0  0  0  0  0
 23 22  2  0  0  0
 23 24  1  0  0  0
 22 21  1  0  0  0
 24 25  2  0  0  0
 21 20  2  0  0  0
 25 20  1  0  0  0
 25 26  1  0  0  0
 20 19  1  0  0  0
 51 50  1  0  0  0
 59 60  1  0  0  0
 59 49  1  0  0  0
 26 27  2  0  0  0
 19 28  2  0  0  0
 50 49  1  0  0  0
 50 52  1  0  0  0
 49 48  1  0  0  0
 27 28  1  0  0  0
 28 18  1  0  0  0
 52 53  1  0  0  0
 52 54  1  0  0  0
 48 47  1  0  0  0
 18 17  1  0  0  0
 47 54  1  0  0  0
 47 46  1  0  0  0
 17 16  1  0  0  0
 54 55  1  0  0  0
 46 35  1  0  0  0
  3  2  1  0  0  0
 38 37  1  0  0  0
 16 11  1  0  0  0
 35 37  1  0  0  0
 35 33  1  0  0  0
 40 33  1  0  0  0
 11 13  1  0  0  0
 11 12  2  0  0  0
 13 14  2  0  0  0
 37 36  1  0  0  0
 12 15  1  0  0  0
 33 34  1  0  0  0
 14 15  1  0  0  0
 36 32  1  0  0  0
 36 39  1  0  0  0
 15  1  1  0  0  0
 34 39  1  0  0  0
 34 43  1  0  0  0
  2  1  1  0  0  0
  2  8  1  0  0  0
 32  8  1  0  0  0
  1  4  1  0  0  0
  8  6  1  0  0  0
 43 44  1  0  0  0
  4  5  1  0  0  0
  6  5  1  0  0  0
  6  7  1  0  0  0
  5 29  1  0  0  0
 29 30  1  0  0  0
  3  9  1  0  0  0
 30 31  1  0  0  0
  7 10  1  0  0  0
 38 41  1  0  0  0
 44 45  1  0  0  0
 40 42  1  0  0  0
 60 61  1  0  0  0
 51 56  1  0  0  0
 53 57  1  0  0  0
 55 58  1  0  0  0
M  END
> <minimizedAffinity>
-9.35569

$$$$
5O9O_9PB_A_601


 61 66  0  0  0  0  0  0  0  0999 V2000
    9.7607   10.0707   20.4474 C   0  0  0  0  0  0  0  0  0  0  0  0
   10.4210   11.3941   20.2495 C   0  0  0  0  0  0  0  0  0  0  0  0
   10.9332   11.3193   18.9154 O   0  0  0  0  0  0  0  0  0  0  0  0
    9.3358    9.9741   21.7897 O   0  0  0  0  0  0  0  0  0  0  0  0
   10.4167   10.0872   22.7425 C   0  0  0  0  0  0  0  0  0  0  0  0
   11.0910   11.3879   22.5468 C   0  0  0  0  0  0  0  0  0  0  0  0
   12.1843   11.4377   23.4781 O   0  0  0  0  0  0  0  0  0  0  0  0
   11.6211   11.4570   21.1226 C   0  0  0  0  0  0  0  0  0  0  0  0
   11.5185   10.5499   18.8364 H   0  0  0  0  0  0  0  0  0  0  0  0
   12.7793   10.6885   23.3186 H   0  0  0  0  0  0  0  0  0  0  0  0
    6.6416    9.9194   18.7713 C   0  0  0  0  0  0  0  0  0  0  0  0
    7.2483    9.8550   19.9443 C   0  0  0  0  0  0  0  0  0  0  0  0
    7.5706   10.1481   17.8569 N   0  0  0  0  0  0  0  0  0  0  0  0
    8.6596   10.1740   18.4187 N   0  0  0  0  0  0  0  0  0  0  0  0
    8.5529    9.9296   19.6309 N   0  0  0  0  0  0  0  0  0  0  0  0
    5.1405    9.8318   18.5069 C   0  0  0  0  0  0  0  0  0  0  0  0
    4.8886    9.4243   17.1783 O   0  0  0  0  0  0  0  0  0  0  0  0
    5.0520    7.9986   17.0657 C   0  0  0  0  0  0  0  0  0  0  0  0
    2.7833    7.1189   16.9811 C   0  0  0  0  0  0  0  0  0  0  0  0
    1.7380    6.5983   16.2190 C   0  0  0  0  0  0  0  0  0  0  0  0
    0.5440    6.2352   16.8289 C   0  0  0  0  0  0  0  0  0  0  0  0
   -0.4977    5.7143   16.0660 C   0  0  0  0  0  0  0  0  0  0  0  0
   -0.3543    5.5584   14.6922 C   0  0  0  0  0  0  0  0  0  0  0  0
    0.8365    5.9222   14.0767 C   0  0  0  0  0  0  0  0  0  0  0  0
    1.8763    6.4378   14.8408 C   0  0  0  0  0  0  0  0  0  0  0  0
    3.0609    6.7993   14.2192 C   0  0  0  0  0  0  0  0  0  0  0  0
    4.1057    7.3153   14.9776 C   0  0  0  0  0  0  0  0  0  0  0  0
    3.9722    7.4825   16.3513 C   0  0  0  0  0  0  0  0  0  0  0  0
    9.6618   10.3095   24.0577 C   0  0  0  0  0  0  0  0  0  0  0  0
    9.9925    9.2938   24.9717 O   0  0  0  0  0  0  0  0  0  0  0  0
    9.7438    8.4323   24.6017 H   0  0  0  0  0  0  0  0  0  0  0  0
   12.2644   12.7334   20.9487 O   0  0  0  0  0  0  0  0  0  0  0  0
   15.9154   14.2066   19.6779 C   0  0  0  0  0  0  0  0  0  0  0  0
   15.8501   13.0812   20.6852 C   0  0  0  0  0  0  0  0  0  0  0  0
   14.8578   13.9915   18.6430 C   0  0  0  0  0  0  0  0  0  0  0  0
   13.5366   12.7921   20.3310 C   0  0  0  0  0  0  0  0  0  0  0  0
   13.4873   13.9238   19.3061 C   0  0  0  0  0  0  0  0  0  0  0  0
   12.4599   13.5909   18.3352 O   0  0  0  0  0  0  0  0  0  0  0  0
   14.5672   13.0330   21.3187 O   0  0  0  0  0  0  0  0  0  0  0  0
   17.1763   14.0654   19.0081 O   0  0  0  0  0  0  0  0  0  0  0  0
   12.6630   12.7330   17.9307 H   0  0  0  0  0  0  0  0  0  0  0  0
   17.2288   13.1873   18.5994 H   0  0  0  0  0  0  0  0  0  0  0  0
   16.9283   13.2984   21.7643 C   0  0  0  0  0  0  0  0  0  0  0  0
   16.2861   13.5345   23.0044 O   0  0  0  0  0  0  0  0  0  0  0  0
   15.7217   14.3200   22.9319 H   0  0  0  0  0  0  0  0  0  0  0  0
   14.8915   15.0285   17.6839 O   0  0  0  0  0  0  0  0  0  0  0  0
   14.8334   16.3573   18.1121 C   0  0  0  0  0  0  0  0  0  0  0  0
   13.4693   16.6826   17.9715 O   0  0  0  0  0  0  0  0  0  0  0  0
   13.2266   18.0527   18.3724 C   0  0  0  0  0  0  0  0  0  0  0  0
   14.0571   18.9825   17.4699 C   0  0  0  0  0  0  0  0  0  0  0  0
   13.8889   20.3205   17.9448 O   0  0  0  0  0  0  0  0  0  0  0  0
   15.5369   18.6589   17.5973 C   0  0  0  0  0  0  0  0  0  0  0  0
   16.2502   19.3967   16.6158 O   0  0  0  0  0  0  0  0  0  0  0  0
   15.6937   17.2192   17.1822 C   0  0  0  0  0  0  0  0  0  0  0  0
   17.0521   16.7496   17.2472 O   0  0  0  0  0  0  0  0  0  0  0  0
   14.1918   20.3776   18.8645 H   0  0  0  0  0  0  0  0  0  0  0  0
   15.9076   19.1784   15.7349 H   0  0  0  0  0  0  0  0  0  0  0  0
   17.3684   16.8008   18.1627 H   0  0  0  0  0  0  0  0  0  0  0  0
   11.6890   18.2640   18.3258 C   0  0  0  0  0  0  0  0  0  0  0  0
   11.0431   17.2176   17.5719 O   0  0  0  0  0  0  0  0  0  0  0  0
   11.2154   16.3614   17.9939 H   0  0  0  0  0  0  0  0  0  0  0  0
 23 22  2  0  0  0
 23 24  1  0  0  0
 22 21  1  0  0  0
 24 25  2  0  0  0
 21 20  2  0  0  0
 25 20  1  0  0  0
 25 26  1  0  0  0
 20 19  1  0  0  0
 51 50  1  0  0  0
 59 60  1  0  0  0
 59 49  1  0  0  0
 26 27  2  0  0  0
 19 28  2  0  0  0
 50 49  1  0  0  0
 50 52  1  0  0  0
 49 48  1  0  0  0
 27 28  1  0  0  0
 28 18  1  0  0  0
 52 53  1  0  0  0
 52 54  1  0  0  0
 48 47  1  0  0  0
 18 17  1  0  0  0
 47 54  1  0  0  0
 47 46  1  0  0  0
 17 16  1  0  0  0
 54 55  1  0  0  0
 46 35  1  0  0  0
  3  2  1  0  0  0
 38 37  1  0  0  0
 16 11  1  0  0  0
 35 37  1  0  0  0
 35 33  1  0  0  0
 40 33  1  0  0  0
 11 13  1  0  0  0
 11 12  2  0  0  0
 13 14  2  0  0  0
 37 36  1  0  0  0
 12 15  1  0  0  0
 33 34  1  0  0  0
 14 15  1  0  0  0
 36 32  1  0  0  0
 36 39  1  0  0  0
 15  1  1  0  0  0
 34 39  1  0  0  0
 34 43  1  0  0  0
  2  1  1  0  0  0
  2  8  1  0  0  0
 32  8  1  0  0  0
  1  4  1  0  0  0
  8  6  1  0  0  0
 43 44  1  0  0  0
  4  5  1  0  0  0
  6  5  1  0  0  0
  6  7  1  0  0  0
  5 29  1  0  0  0
 29 30  1  0  0  0
  3  9  1  0  0  0
 30 31  1  0  0  0
  7 10  1  0  0  0
 38 41  1  0  0  0
 44 45  1  0  0  0
 40 42  1  0  0  0
 60 61  1  0  0  0
 51 56  1  0  0  0
 53 57  1  0  0  0
 55 58  1  0  0  0
M  END
> <minimizedAffinity>
-9.34138

$$$$
5O9O_9PB_A_601


 61 66  0  0  0  0  0  0  0  0999 V2000
    6.2256   10.7184   20.4460 C   0  0  0  0  0  0  0  0  0  0  0  0
    6.9278    9.7834   21.3729 C   0  0  0  0  0  0  0  0  0  0  0  0
    7.0188   10.5238   22.5941 O   0  0  0  0  0  0  0  0  0  0  0  0
    6.2030   10.1446   19.1569 O   0  0  0  0  0  0  0  0  0  0  0  0
    7.5204    9.8828   18.6230 C   0  0  0  0  0  0  0  0  0  0  0  0
    8.2343    8.9698   19.5404 C   0  0  0  0  0  0  0  0  0  0  0  0
    9.5508    8.7755   18.9982 O   0  0  0  0  0  0  0  0  0  0  0  0
    8.3304    9.6256   20.9097 C   0  0  0  0  0  0  0  0  0  0  0  0
    7.4761   11.3633   22.4298 H   0  0  0  0  0  0  0  0  0  0  0  0
    9.9958    9.6333   18.9145 H   0  0  0  0  0  0  0  0  0  0  0  0
    2.9387   11.5869   21.4472 C   0  0  0  0  0  0  0  0  0  0  0  0
    4.2277   11.7582   21.6865 C   0  0  0  0  0  0  0  0  0  0  0  0
    2.8333   10.7785   20.4048 N   0  0  0  0  0  0  0  0  0  0  0  0
    3.9630   10.4460   20.0650 N   0  0  0  0  0  0  0  0  0  0  0  0
    4.8246   10.9194   20.8227 N   0  0  0  0  0  0  0  0  0  0  0  0
    1.7727   12.2532   22.1734 C   0  0  0  0  0  0  0  0  0  0  0  0
    2.1548   13.5129   22.6850 O   0  0  0  0  0  0  0  0  0  0  0  0
    1.1509   13.9942   23.5974 C   0  0  0  0  0  0  0  0  0  0  0  0
    2.8629   13.4809   25.2507 C   0  0  0  0  0  0  0  0  0  0  0  0
    3.4107   13.7249   26.5096 C   0  0  0  0  0  0  0  0  0  0  0  0
    4.5282   13.0170   26.9330 C   0  0  0  0  0  0  0  0  0  0  0  0
    5.0724   13.2614   28.1909 C   0  0  0  0  0  0  0  0  0  0  0  0
    4.5073   14.2157   29.0289 C   0  0  0  0  0  0  0  0  0  0  0  0
    3.3913   14.9284   28.6098 C   0  0  0  0  0  0  0  0  0  0  0  0
    2.8473   14.6796   27.3555 C   0  0  0  0  0  0  0  0  0  0  0  0
    1.7342   15.3955   26.9442 C   0  0  0  0  0  0  0  0  0  0  0  0
    1.1844   15.1513   25.6908 C   0  0  0  0  0  0  0  0  0  0  0  0
    1.7444   14.2043   24.8409 C   0  0  0  0  0  0  0  0  0  0  0  0
    7.2076    8.9669   17.4346 C   0  0  0  0  0  0  0  0  0  0  0  0
    7.2558    7.6234   17.8460 O   0  0  0  0  0  0  0  0  0  0  0  0
    8.1425    7.4198   18.1823 H   0  0  0  0  0  0  0  0  0  0  0  0
    9.0186    8.7180   21.7904 O   0  0  0  0  0  0  0  0  0  0  0  0
   11.1047   11.3159   24.2427 C   0  0  0  0  0  0  0  0  0  0  0  0
   10.4496   10.0793   24.8147 C   0  0  0  0  0  0  0  0  0  0  0  0
   11.7132   10.9733   22.9206 C   0  0  0  0  0  0  0  0  0  0  0  0
   10.0148    9.2177   22.6630 C   0  0  0  0  0  0  0  0  0  0  0  0
   10.6434   10.4311   21.9804 C   0  0  0  0  0  0  0  0  0  0  0  0
   11.2339    9.9756   20.7343 O   0  0  0  0  0  0  0  0  0  0  0  0
    9.4329    9.5843   23.9369 O   0  0  0  0  0  0  0  0  0  0  0  0
   12.1928   11.6306   25.1233 O   0  0  0  0  0  0  0  0  0  0  0  0
   11.8814    9.2776   20.9195 H   0  0  0  0  0  0  0  0  0  0  0  0
   12.7954   10.8723   25.1764 H   0  0  0  0  0  0  0  0  0  0  0  0
    9.8080   10.4231   26.1728 C   0  0  0  0  0  0  0  0  0  0  0  0
    8.5130   10.9479   25.9415 O   0  0  0  0  0  0  0  0  0  0  0  0
    8.5803   11.7442   25.3917 H   0  0  0  0  0  0  0  0  0  0  0  0
   12.3353   12.1101   22.3573 O   0  0  0  0  0  0  0  0  0  0  0  0
   13.5690   11.9670   21.7172 C   0  0  0  0  0  0  0  0  0  0  0  0
   14.4860   12.4525   22.6710 O   0  0  0  0  0  0  0  0  0  0  0  0
   15.8394   12.3825   22.1608 C   0  0  0  0  0  0  0  0  0  0  0  0
   15.9314   13.2504   20.8931 C   0  0  0  0  0  0  0  0  0  0  0  0
   17.2413   13.0875   20.3437 O   0  0  0  0  0  0  0  0  0  0  0  0
   14.9537   12.7533   19.8406 C   0  0  0  0  0  0  0  0  0  0  0  0
   14.9262   13.6848   18.7691 O   0  0  0  0  0  0  0  0  0  0  0  0
   13.5829   12.8418   20.4593 C   0  0  0  0  0  0  0  0  0  0  0  0
   12.5301   12.4022   19.5828 O   0  0  0  0  0  0  0  0  0  0  0  0
   17.3880   12.1530   20.1290 H   0  0  0  0  0  0  0  0  0  0  0  0
   14.6785   14.5595   19.1074 H   0  0  0  0  0  0  0  0  0  0  0  0
   12.6640   11.4677   19.3598 H   0  0  0  0  0  0  0  0  0  0  0  0
   16.7767   12.7928   23.3289 C   0  0  0  0  0  0  0  0  0  0  0  0
   16.2938   12.2799   24.5876 O   0  0  0  0  0  0  0  0  0  0  0  0
   16.2651   11.3110   24.5524 H   0  0  0  0  0  0  0  0  0  0  0  0
 23 22  2  0  0  0
 23 24  1  0  0  0
 22 21  1  0  0  0
 24 25  2  0  0  0
 21 20  2  0  0  0
 25 20  1  0  0  0
 25 26  1  0  0  0
 20 19  1  0  0  0
 51 50  1  0  0  0
 59 60  1  0  0  0
 59 49  1  0  0  0
 26 27  2  0  0  0
 19 28  2  0  0  0
 50 49  1  0  0  0
 50 52  1  0  0  0
 49 48  1  0  0  0
 27 28  1  0  0  0
 28 18  1  0  0  0
 52 53  1  0  0  0
 52 54  1  0  0  0
 48 47  1  0  0  0
 18 17  1  0  0  0
 47 54  1  0  0  0
 47 46  1  0  0  0
 17 16  1  0  0  0
 54 55  1  0  0  0
 46 35  1  0  0  0
  3  2  1  0  0  0
 38 37  1  0  0  0
 16 11  1  0  0  0
 35 37  1  0  0  0
 35 33  1  0  0  0
 40 33  1  0  0  0
 11 13  1  0  0  0
 11 12  2  0  0  0
 13 14  2  0  0  0
 37 36  1  0  0  0
 12 15  1  0  0  0
 33 34  1  0  0  0
 14 15  1  0  0  0
 36 32  1  0  0  0
 36 39  1  0  0  0
 15  1  1  0  0  0
 34 39  1  0  0  0
 34 43  1  0  0  0
  2  1  1  0  0  0
  2  8  1  0  0  0
 32  8  1  0  0  0
  1  4  1  0  0  0
  8  6  1  0  0  0
 43 44  1  0  0  0
  4  5  1  0  0  0
  6  5  1  0  0  0
  6  7  1  0  0  0
  5 29  1  0  0  0
 29 30  1  0  0  0
  3  9  1  0  0  0
 30 31  1  0  0  0
  7 10  1  0  0  0
 38 41  1  0  0  0
 44 45  1  0  0  0
 40 42  1  0  0  0
 60 61  1  0  0  0
 51 56  1  0  0  0
 53 57  1  0  0  0
 55 58  1  0  0  0
M  END
> <minimizedAffinity>
-9.23657

$$$$
