5NWE_G39_A_503
  RCSB PDB06301801303D
Coordinates from PDB:5NWE:A:503 Model:1 without hydrogens
 20 20  0  0  0  0            999 V2000
    8.9170    1.4420   44.9720   C 0  0  0  0  0  0  0  0  0  0  0  0
    8.0720    0.6560   44.4870   O 0  0  0  0  0  0  0  0  0  0  0  0
    8.6880    2.6840   45.0390   O 0  0  0  0  0  0  0  0  0  0  0  0
   10.2000    0.9100   45.4640   C 0  0  0  0  0  0  0  0  0  0  0  0
   10.4350   -0.5930   45.4580   C 0  0  0  0  0  0  0  0  0  0  0  0
   11.9090   -1.0200   45.3990   C 0  0  0  0  0  0  0  0  0  0  0  0
   12.6730   -0.2810   46.4990   C 0  0  0  0  0  0  0  0  0  0  0  0
   14.0960   -0.6200   46.4840   N 0  0  0  0  0  0  0  0  0  0  0  0
   14.7420   -1.2290   47.5000   C 0  0  0  0  0  0  0  0  0  0  0  0
   14.2070   -1.6740   48.4810   O 0  0  0  0  0  0  0  0  0  0  0  0
   16.2480   -1.3340   47.3870   C 0  0  0  0  0  0  0  0  0  0  0  0
   12.5200    1.2520   46.4010   C 0  0  0  0  0  0  0  0  0  0  0  0
   11.1580    1.7390   45.9160   C 0  0  0  0  0  0  0  0  0  0  0  0
   12.8170    1.8850   47.6630   O 0  0  0  0  0  0  0  0  0  0  0  0
   13.8520    2.8910   47.5110   C 0  0  0  0  0  0  0  0  0  0  0  0
   13.2450    4.2160   46.9860   C 0  0  0  0  0  0  0  0  0  0  0  0
   14.6430    3.0960   48.8030   C 0  0  0  0  0  0  0  0  0  0  0  0
   15.5780    1.9200   49.1280   C 0  0  0  0  0  0  0  0  0  0  0  0
   12.0940    4.7470   47.8290   C 0  0  0  0  0  0  0  0  0  0  0  0
   11.9880   -2.4820   45.5710   N 0  0  0  0  0  0  0  0  0  0  0  0
  1  2  2  0  0  0  0
  1  3  1  0  0  0  0
  1  4  1  0  0  0  0
  4  5  1  0  0  0  0
  4 13  2  0  0  0  0
  5  6  1  0  0  0  0
  6  7  1  0  0  0  0
  6 20  1  0  0  0  0
  7  8  1  0  0  0  0
  7 12  1  0  0  0  0
  8  9  1  0  0  0  0
  9 10  2  0  0  0  0
  9 11  1  0  0  0  0
 12 13  1  0  0  0  0
 12 14  1  0  0  0  0
 14 15  1  0  0  0  0
 15 16  1  0  0  0  0
 15 17  1  0  0  0  0
 16 19  1  0  0  0  0
 17 18  1  0  0  0  0
A    1
C1
A    2
O1A
A    3
O1B
A    4
C2
A    5
C3
A    6
C4
A    7
C5
A    8
N5
A    9
C10
A   10
O10
A   11
C11
A   12
C6
A   13
C7
A   14
O7
A   15
C8
A   16
C9
A   17
C81
A   18
C82
A   19
C91
A   20
N4
M  END
>  <InstanceId>
5NWE_G39_A_503

>  <ChemCompId>
G39

>  <PdbId>
5NWE

>  <ChainId>
A

>  <ResidueNumber>
503

>  <InsertionCode>


>  <Model>
1

>  <AltIds>


>  <MissingHeavyAtoms>
0

>  <ObservedFormula>
C14 N2 O4

>  <Name>
(3R,4R,5S)-4-(acetylamino)-5-amino-3-(pentan-3-yloxy)cyclohex-1-ene-1-carboxylic acid

>  <SystematicName>
(3R,4R,5S)-4-acetamido-5-azanyl-3-pentan-3-yloxy-cyclohexene-1-carboxylic acid

>  <Synonyms>
Oseltamivir carboxylate

>  <Type>
NON-POLYMER

>  <Formula>
C14 H24 N2 O4

>  <MolecularWeight>
284.351

>  <ModifiedDate>
2011-06-04

>  <Parent>


>  <OneLetterCode>


>  <SubcomponentList>


>  <AmbiguousFlag>
N

>  <InChI>
InChI=1S/C14H24N2O4/c1-4-10(5-2)20-12-7-9(14(18)19)6-11(15)13(12)16-8(3)17/h7,10-13H,4-6,15H2,1-3H3,(H,16,17)(H,18,19)/t11-,12+,13+/m0/s1

>  <InChIKey>
NENPYTRHICXVCS-YNEHKIRRSA-N

>  <SMILES>
CCC(CC)O[C@@H]1C=C(C[C@@H]([C@H]1NC(=O)C)N)C(=O)O

$$$$
