3GCS_BAX_A_401
  RCSB PDB12061708433D
Coordinates from PDB:3GCS:A:401 Model:1 without hydrogens
 32 34  0  0  0  0            999 V2000
  -16.3690   -7.3230   17.9900   C 0  0  0  0  0  0  0  0  0  0  0  0
  -17.1540   -7.0030   16.8680   C 0  0  0  0  0  0  0  0  0  0  0  0
  -16.6900   -7.3370   15.5950   C 0  0  0  0  0  0  0  0  0  0  0  0
  -15.4600   -7.9590   15.4230   C 0  0  0  0  0  0  0  0  0  0  0  0
  -18.7080   -5.4950   17.9310   C 0  0  0  0  0  0  0  0  0  0  0  0
  -20.5500   -4.1300   18.6720   C 0  0  0  0  0  0  0  0  0  0  0  0
  -19.8220   -3.1080   19.2760   C 0  0  0  0  0  0  0  0  0  0  0  0
  -20.4350   -2.1950   20.1410   C 0  0  0  0  0  0  0  0  0  0  0  0
  -21.8190   -2.2870   20.3470   C 0  0  0  0  0  0  0  0  0  0  0  0
  -22.5540   -3.2970   19.7490   C 0  0  0  0  0  0  0  0  0  0  0  0
  -21.9300   -4.2150   18.9150   C 0  0  0  0  0  0  0  0  0  0  0  0
  -22.4910   -1.4470   21.2080   O 0  0  0  0  0  0  0  0  0  0  0  0
  -22.1850    0.5610   19.9760   C 0  0  0  0  0  0  0  0  0  0  0  0
  -22.0690    1.9530   20.0280   C 0  0  0  0  0  0  0  0  0  0  0  0
  -22.2950    1.9430   22.3740   C 0  0  0  0  0  0  0  0  0  0  0  0
  -22.4250    0.5550   22.3790   C 0  0  0  0  0  0  0  0  0  0  0  0
  -22.3710    4.0680   23.5530   N 0  0  0  0  0  0  0  0  0  0  0  0
  -22.4200    4.8910   24.7720   C 0  0  0  0  0  0  0  0  0  0  0  0
  -14.6740   -8.2420   16.5630   C 0  0  0  0  0  0  0  0  0  0  0  0
  -15.1120   -7.9330   17.8450   C 0  0  0  0  0  0  0  0  0  0  0  0
  -14.2580   -8.2750   19.0990   C 0  0  0  0  0  0  0  0  0  0  0  0
  -14.9290   -7.8860   20.1380   F 0  0  0  0  0  0  0  0  0  0  0  0
  -14.0260   -9.5830   19.2090   F 0  0  0  0  0  0  0  0  0  0  0  0
  -13.1090   -7.6340   19.1850   F 0  0  0  0  0  0  0  0  0  0  0  0
  -13.1510   -9.0000   16.3780  Cl 0  0  0  0  0  0  0  0  0  0  0  0
  -18.3750   -6.4010   16.9870   N 0  0  0  0  0  0  0  0  0  0  0  0
  -19.9700   -5.0250   17.8550   N 0  0  0  0  0  0  0  0  0  0  0  0
  -17.9230   -5.1310   18.8240   O 0  0  0  0  0  0  0  0  0  0  0  0
  -22.3470   -0.1230   21.1720   C 0  0  0  0  0  0  0  0  0  0  0  0
  -22.1190    2.5800   21.2000   N 0  0  0  0  0  0  0  0  0  0  0  0
  -22.3510    2.7400   23.6900   C 0  0  0  0  0  0  0  0  0  0  0  0
  -22.3790    2.1590   24.7710   O 0  0  0  0  0  0  0  0  0  0  0  0
  1  2  2  0  0  0  0
  1 20  1  0  0  0  0
  2  3  1  0  0  0  0
  2 26  1  0  0  0  0
  3  4  2  0  0  0  0
  4 19  1  0  0  0  0
  5 26  1  0  0  0  0
  5 27  1  0  0  0  0
  5 28  2  0  0  0  0
  6  7  2  0  0  0  0
  6 11  1  0  0  0  0
  6 27  1  0  0  0  0
  7  8  1  0  0  0  0
  8  9  2  0  0  0  0
  9 10  1  0  0  0  0
  9 12  1  0  0  0  0
 10 11  2  0  0  0  0
 12 29  1  0  0  0  0
 13 14  2  0  0  0  0
 13 29  1  0  0  0  0
 14 30  1  0  0  0  0
 15 16  1  0  0  0  0
 15 30  2  0  0  0  0
 15 31  1  0  0  0  0
 16 29  2  0  0  0  0
 17 18  1  0  0  0  0
 17 31  1  0  0  0  0
 19 20  2  0  0  0  0
 19 25  1  0  0  0  0
 20 21  1  0  0  0  0
 21 22  1  0  0  0  0
 21 23  1  0  0  0  0
 21 24  1  0  0  0  0
 31 32  2  0  0  0  0
A    1
C1
A    2
C2
A    3
C3
A    4
C4
A    5
C13
A    6
C16
A    7
C17
A    8
C18
A    9
C19
A   10
C20
A   11
C21
A   12
O22
A   13
C24
A   14
C25
A   15
C27
A   16
C28
A   17
N30
A   18
C31
A   19
C5
A   20
C6
A   21
C7
A   22
F8
A   23
F9
A   24
F10
A   25
CL11
A   26
N12
A   27
N14
A   28
O15
A   29
C23
A   30
N26
A   31
C29
A   32
O32
M  END
>  <InstanceId>
3GCS_BAX_A_401

>  <ChemCompId>
BAX

>  <PdbId>
3GCS

>  <ChainId>
A

>  <ResidueNumber>
401

>  <InsertionCode>


>  <Model>
1

>  <AltIds>


>  <MissingHeavyAtoms>
0

>  <ObservedFormula>
C21 N4 O3 F3 Cl

>  <Name>
4-{4-[({[4-CHLORO-3-(TRIFLUOROMETHYL)PHENYL]AMINO}CARBONYL)AMINO]PHENOXY}-N-METHYLPYRIDINE-2-CARBOXAMIDE

>  <SystematicName>
4-[4-[[4-chloro-3-(trifluoromethyl)phenyl]carbamoylamino]phenoxy]-N-methyl-pyridine-2-carboxamide

>  <Synonyms>
Sorafenib

>  <Type>
NON-POLYMER

>  <Formula>
C21 H16 Cl F3 N4 O3

>  <MolecularWeight>
464.825

>  <ModifiedDate>
2012-09-20

>  <Parent>


>  <OneLetterCode>


>  <SubcomponentList>


>  <AmbiguousFlag>
N

>  <InChI>
InChI=1S/C21H16ClF3N4O3/c1-26-19(30)18-11-15(8-9-27-18)32-14-5-2-12(3-6-14)28-20(31)29-13-4-7-17(22)16(10-13)21(23,24)25/h2-11H,1H3,(H,26,30)(H2,28,29,31)

>  <InChIKey>
MLDQJTXFUGDVEO-UHFFFAOYSA-N

>  <SMILES>
CNC(=O)c1cc(ccn1)Oc2ccc(cc2)NC(=O)Nc3ccc(c(c3)C(F)(F)F)Cl

$$$$
