3GCS_BAX_A_401


 35 37  0  0  0  0  0  0  0  0999 V2000
  -20.6301   -4.0634   18.9619 C   0  0  0  0  0  0  0  0  0  0  0  0
  -19.9545   -2.8909   19.2905 C   0  0  0  0  0  0  0  0  0  0  0  0
  -20.5289   -1.9364   20.1371 C   0  0  0  0  0  0  0  0  0  0  0  0
  -21.8324   -2.1505   20.6075 C   0  0  0  0  0  0  0  0  0  0  0  0
  -22.5154   -3.3112   20.2846 C   0  0  0  0  0  0  0  0  0  0  0  0
  -21.9244   -4.2648   19.4667 C   0  0  0  0  0  0  0  0  0  0  0  0
  -18.8131   -5.4521   18.2035 C   0  0  0  0  0  0  0  0  0  0  0  0
  -18.5181   -6.4054   17.2940 N   0  0  0  0  0  0  0  0  0  0  0  0
  -20.0822   -4.9969   18.1660 N   0  0  0  0  0  0  0  0  0  0  0  0
  -17.9883   -5.0340   19.0348 O   0  0  0  0  0  0  0  0  0  0  0  0
  -19.2396   -6.6928   16.6889 H   0  0  0  0  0  0  0  0  0  0  0  0
  -20.6703   -5.3910   17.4819 H   0  0  0  0  0  0  0  0  0  0  0  0
  -16.4524   -7.2507   18.2420 C   0  0  0  0  0  0  0  0  0  0  0  0
  -17.2983   -7.0034   17.1461 C   0  0  0  0  0  0  0  0  0  0  0  0
  -16.8974   -7.4076   15.8720 C   0  0  0  0  0  0  0  0  0  0  0  0
  -15.6712   -8.0286   15.6720 C   0  0  0  0  0  0  0  0  0  0  0  0
  -14.8238   -8.2379   16.7836 C   0  0  0  0  0  0  0  0  0  0  0  0
  -15.1979   -7.8579   18.0668 C   0  0  0  0  0  0  0  0  0  0  0  0
  -13.3041   -8.9930   16.5631 Cl  0  0  0  0  0  0  0  0  0  0  0  0
  -14.2761   -8.1188   19.2919 C   0  0  0  0  0  0  0  0  0  0  0  0
  -14.8756   -7.6328   20.3337 F   0  0  0  0  0  0  0  0  0  0  0  0
  -14.0621   -9.4190   19.4934 F   0  0  0  0  0  0  0  0  0  0  0  0
  -13.1123   -7.5000   19.2580 F   0  0  0  0  0  0  0  0  0  0  0  0
  -22.4552   -1.2750   21.4701 O   0  0  0  0  0  0  0  0  0  0  0  0
  -22.4623    0.6116   20.0264 C   0  0  0  0  0  0  0  0  0  0  0  0
  -22.4565    2.0063   19.9326 C   0  0  0  0  0  0  0  0  0  0  0  0
  -22.4055    2.2226   22.2790 C   0  0  0  0  0  0  0  0  0  0  0  0
  -22.4188    0.8369   22.4305 C   0  0  0  0  0  0  0  0  0  0  0  0
  -22.4264    0.0451   21.2922 C   0  0  0  0  0  0  0  0  0  0  0  0
  -22.4211    2.7458   21.0376 N   0  0  0  0  0  0  0  0  0  0  0  0
  -22.3793    4.4537   23.2449 N   0  0  0  0  0  0  0  0  0  0  0  0
  -22.3452    5.3926   24.3776 C   0  0  0  0  0  0  0  0  0  0  0  0
  -22.3733    3.1453   23.5110 C   0  0  0  0  0  0  0  0  0  0  0  0
  -22.3491    2.6733   24.6439 O   0  0  0  0  0  0  0  0  0  0  0  0
  -22.4058    4.7812   22.3169 H   0  0  0  0  0  0  0  0  0  0  0  0
 13 14  2  0  0  0
 13 18  1  0  0  0
 14 15  1  0  0  0
 14  8  1  0  0  0
 15 16  2  0  0  0
 16 17  1  0  0  0
  7  8  1  0  0  0
  7  9  1  0  0  0
  7 10  2  0  0  0
  1  2  2  0  0  0
  1  6  1  0  0  0
  1  9  1  0  0  0
  2  3  1  0  0  0
  3  4  2  0  0  0
  4  5  1  0  0  0
  4 24  1  0  0  0
  5  6  2  0  0  0
 24 29  1  0  0  0
 25 26  2  0  0  0
 25 29  1  0  0  0
 26 30  1  0  0  0
 27 28  1  0  0  0
 27 30  2  0  0  0
 27 33  1  0  0  0
 28 29  2  0  0  0
 31 32  1  0  0  0
 31 33  1  0  0  0
 17 18  2  0  0  0
 17 19  1  0  0  0
 18 20  1  0  0  0
 20 21  1  0  0  0
 20 22  1  0  0  0
 20 23  1  0  0  0
 33 34  2  0  0  0
 31 35  1  0  0  0
  8 11  1  0  0  0
  9 12  1  0  0  0
M  END
> <minimizedAffinity>
-12.00071

$$$$
3GCS_BAX_A_401


 35 37  0  0  0  0  0  0  0  0999 V2000
  -20.9204   -4.1556   19.1157 C   0  0  0  0  0  0  0  0  0  0  0  0
  -22.2354   -4.2430   19.5657 C   0  0  0  0  0  0  0  0  0  0  0  0
  -22.8218   -3.2042   20.2969 C   0  0  0  0  0  0  0  0  0  0  0  0
  -22.0403   -2.0873   20.6259 C   0  0  0  0  0  0  0  0  0  0  0  0
  -20.7304   -1.9908   20.1870 C   0  0  0  0  0  0  0  0  0  0  0  0
  -20.1677   -3.0151   19.4374 C   0  0  0  0  0  0  0  0  0  0  0  0
  -19.0402   -5.4472   18.3401 C   0  0  0  0  0  0  0  0  0  0  0  0
  -18.7308   -6.4918   17.5426 N   0  0  0  0  0  0  0  0  0  0  0  0
  -20.3517   -5.1371   18.3960 N   0  0  0  0  0  0  0  0  0  0  0  0
  -18.1882   -4.8243   18.9976 O   0  0  0  0  0  0  0  0  0  0  0  0
  -19.4726   -6.9410   17.0766 H   0  0  0  0  0  0  0  0  0  0  0  0
  -20.9573   -5.6895   17.8508 H   0  0  0  0  0  0  0  0  0  0  0  0
  -16.5892   -7.2484   18.3918 C   0  0  0  0  0  0  0  0  0  0  0  0
  -17.4704   -6.9754   17.3305 C   0  0  0  0  0  0  0  0  0  0  0  0
  -17.0608   -7.2344   16.0218 C   0  0  0  0  0  0  0  0  0  0  0  0
  -15.7931   -7.7358   15.7557 C   0  0  0  0  0  0  0  0  0  0  0  0
  -14.9131   -7.9724   16.8360 C   0  0  0  0  0  0  0  0  0  0  0  0
  -15.2940   -7.7361   18.1512 C   0  0  0  0  0  0  0  0  0  0  0  0
  -13.3427   -8.5818   16.5347 Cl  0  0  0  0  0  0  0  0  0  0  0  0
  -14.3337   -8.0278   19.3393 C   0  0  0  0  0  0  0  0  0  0  0  0
  -14.9555   -7.6928   20.4266 F   0  0  0  0  0  0  0  0  0  0  0  0
  -14.0067   -9.3177   19.4177 F   0  0  0  0  0  0  0  0  0  0  0  0
  -13.2274   -7.3105   19.3534 F   0  0  0  0  0  0  0  0  0  0  0  0
  -22.5526   -1.0094   21.3146 O   0  0  0  0  0  0  0  0  0  0  0  0
  -22.4395    1.3311   21.7057 C   0  0  0  0  0  0  0  0  0  0  0  0
  -22.3253    2.6027   21.1367 C   0  0  0  0  0  0  0  0  0  0  0  0
  -22.2565    1.6892   18.9651 C   0  0  0  0  0  0  0  0  0  0  0  0
  -22.3600    0.3977   19.4798 C   0  0  0  0  0  0  0  0  0  0  0  0
  -22.4715    0.2376   20.8526 C   0  0  0  0  0  0  0  0  0  0  0  0
  -22.2476    2.7342   19.8154 N   0  0  0  0  0  0  0  0  0  0  0  0
  -22.5238    3.1345   17.0284 N   0  0  0  0  0  0  0  0  0  0  0  0
  -22.4545    3.4228   15.5869 C   0  0  0  0  0  0  0  0  0  0  0  0
  -22.1539    1.9217   17.4467 C   0  0  0  0  0  0  0  0  0  0  0  0
  -21.7507    1.0309   16.7046 O   0  0  0  0  0  0  0  0  0  0  0  0
  -22.8343    3.8170   17.6665 H   0  0  0  0  0  0  0  0  0  0  0  0
 13 14  2  0  0  0
 13 18  1  0  0  0
 14 15  1  0  0  0
 14  8  1  0  0  0
 15 16  2  0  0  0
 16 17  1  0  0  0
  7  8  1  0  0  0
  7  9  1  0  0  0
  7 10  2  0  0  0
  1  2  2  0  0  0
  1  6  1  0  0  0
  1  9  1  0  0  0
  2  3  1  0  0  0
  3  4  2  0  0  0
  4  5  1  0  0  0
  4 24  1  0  0  0
  5  6  2  0  0  0
 24 29  1  0  0  0
 25 26  2  0  0  0
 25 29  1  0  0  0
 26 30  1  0  0  0
 27 28  1  0  0  0
 27 30  2  0  0  0
 27 33  1  0  0  0
 28 29  2  0  0  0
 31 32  1  0  0  0
 31 33  1  0  0  0
 17 18  2  0  0  0
 17 19  1  0  0  0
 18 20  1  0  0  0
 20 21  1  0  0  0
 20 22  1  0  0  0
 20 23  1  0  0  0
 33 34  2  0  0  0
 31 35  1  0  0  0
  8 11  1  0  0  0
  9 12  1  0  0  0
M  END
> <minimizedAffinity>
-11.44488

$$$$
3GCS_BAX_A_401


 35 37  0  0  0  0  0  0  0  0999 V2000
  -20.5446   -4.1081   18.8332 C   0  0  0  0  0  0  0  0  0  0  0  0
  -21.8642   -4.3682   19.1944 C   0  0  0  0  0  0  0  0  0  0  0  0
  -22.5802   -3.4847   20.0093 C   0  0  0  0  0  0  0  0  0  0  0  0
  -21.9255   -2.3513   20.5124 C   0  0  0  0  0  0  0  0  0  0  0  0
  -20.6123   -2.0840   20.1630 C   0  0  0  0  0  0  0  0  0  0  0  0
  -19.9204   -2.9531   19.3302 C   0  0  0  0  0  0  0  0  0  0  0  0
  -18.6467   -5.4883   18.2873 C   0  0  0  0  0  0  0  0  0  0  0  0
  -18.1724   -6.3001   17.3184 N   0  0  0  0  0  0  0  0  0  0  0  0
  -19.8522   -4.9381   18.0355 N   0  0  0  0  0  0  0  0  0  0  0  0
  -18.0349   -5.2751   19.3487 O   0  0  0  0  0  0  0  0  0  0  0  0
  -18.7346   -6.4294   16.5206 H   0  0  0  0  0  0  0  0  0  0  0  0
  -20.2695   -5.1697   17.1744 H   0  0  0  0  0  0  0  0  0  0  0  0
  -16.1692   -7.1034   16.2130 C   0  0  0  0  0  0  0  0  0  0  0  0
  -16.9746   -6.9567   17.3564 C   0  0  0  0  0  0  0  0  0  0  0  0
  -16.5262   -7.4680   18.5749 C   0  0  0  0  0  0  0  0  0  0  0  0
  -15.3109   -8.1344   18.6667 C   0  0  0  0  0  0  0  0  0  0  0  0
  -14.5333   -8.2978   17.4979 C   0  0  0  0  0  0  0  0  0  0  0  0
  -14.9455   -7.7907   16.2716 C   0  0  0  0  0  0  0  0  0  0  0  0
  -13.0362   -9.1224   17.5820 Cl  0  0  0  0  0  0  0  0  0  0  0  0
  -14.0718   -7.9449   14.9943 C   0  0  0  0  0  0  0  0  0  0  0  0
  -12.9493   -7.3370   15.2214 F   0  0  0  0  0  0  0  0  0  0  0  0
  -13.8133   -9.2218   14.7120 F   0  0  0  0  0  0  0  0  0  0  0  0
  -14.5533   -7.3630   13.9136 F   0  0  0  0  0  0  0  0  0  0  0  0
  -22.5697   -1.4172   21.2940 O   0  0  0  0  0  0  0  0  0  0  0  0
  -22.4578    0.4159   19.7871 C   0  0  0  0  0  0  0  0  0  0  0  0
  -22.3765    1.8042   19.6460 C   0  0  0  0  0  0  0  0  0  0  0  0
  -22.3437    2.0989   21.9841 C   0  0  0  0  0  0  0  0  0  0  0  0
  -22.4328    0.7219   22.1825 C   0  0  0  0  0  0  0  0  0  0  0  0
  -22.4682   -0.1075   21.0718 C   0  0  0  0  0  0  0  0  0  0  0  0
  -22.3156    2.5788   20.7255 N   0  0  0  0  0  0  0  0  0  0  0  0
  -22.1890    4.3564   22.8737 N   0  0  0  0  0  0  0  0  0  0  0  0
  -22.1178    5.3308   23.9742 C   0  0  0  0  0  0  0  0  0  0  0  0
  -22.2778    3.0608   23.1843 C   0  0  0  0  0  0  0  0  0  0  0  0
  -22.3121    2.6291   24.3330 O   0  0  0  0  0  0  0  0  0  0  0  0
  -22.1716    4.6515   21.9347 H   0  0  0  0  0  0  0  0  0  0  0  0
 13 14  2  0  0  0
 13 18  1  0  0  0
 14 15  1  0  0  0
 14  8  1  0  0  0
 15 16  2  0  0  0
 16 17  1  0  0  0
  7  8  1  0  0  0
  7  9  1  0  0  0
  7 10  2  0  0  0
  1  2  2  0  0  0
  1  6  1  0  0  0
  1  9  1  0  0  0
  2  3  1  0  0  0
  3  4  2  0  0  0
  4  5  1  0  0  0
  4 24  1  0  0  0
  5  6  2  0  0  0
 24 29  1  0  0  0
 25 26  2  0  0  0
 25 29  1  0  0  0
 26 30  1  0  0  0
 27 28  1  0  0  0
 27 30  2  0  0  0
 27 33  1  0  0  0
 28 29  2  0  0  0
 31 32  1  0  0  0
 31 33  1  0  0  0
 17 18  2  0  0  0
 17 19  1  0  0  0
 18 20  1  0  0  0
 20 21  1  0  0  0
 20 22  1  0  0  0
 20 23  1  0  0  0
 33 34  2  0  0  0
 31 35  1  0  0  0
  8 11  1  0  0  0
  9 12  1  0  0  0
M  END
> <minimizedAffinity>
-10.96913

$$$$
3GCS_BAX_A_401


 35 37  0  0  0  0  0  0  0  0999 V2000
  -20.6074   -4.1841   18.8971 C   0  0  0  0  0  0  0  0  0  0  0  0
  -21.9025   -4.4100   19.3565 C   0  0  0  0  0  0  0  0  0  0  0  0
  -22.5910   -3.4379   20.0904 C   0  0  0  0  0  0  0  0  0  0  0  0
  -21.9306   -2.2435   20.4123 C   0  0  0  0  0  0  0  0  0  0  0  0
  -20.6414   -2.0091   19.9638 C   0  0  0  0  0  0  0  0  0  0  0  0
  -19.9781   -2.9693   19.2118 C   0  0  0  0  0  0  0  0  0  0  0  0
  -18.6856   -5.5438   18.3840 C   0  0  0  0  0  0  0  0  0  0  0  0
  -18.2549   -6.4818   17.5136 N   0  0  0  0  0  0  0  0  0  0  0  0
  -19.9424   -5.1012   18.1748 N   0  0  0  0  0  0  0  0  0  0  0  0
  -17.9903   -5.1284   19.3275 O   0  0  0  0  0  0  0  0  0  0  0  0
  -18.8812   -6.7683   16.8102 H   0  0  0  0  0  0  0  0  0  0  0  0
  -20.4243   -5.4921   17.4105 H   0  0  0  0  0  0  0  0  0  0  0  0
  -16.2309   -7.1737   16.3715 C   0  0  0  0  0  0  0  0  0  0  0  0
  -17.0193   -7.0651   17.5308 C   0  0  0  0  0  0  0  0  0  0  0  0
  -16.5155   -7.5376   18.7434 C   0  0  0  0  0  0  0  0  0  0  0  0
  -15.2607   -8.1292   18.8141 C   0  0  0  0  0  0  0  0  0  0  0  0
  -14.4995   -8.2564   17.6301 C   0  0  0  0  0  0  0  0  0  0  0  0
  -14.9672   -7.7860   16.4091 C   0  0  0  0  0  0  0  0  0  0  0  0
  -12.9542   -8.9892   17.6883 Cl  0  0  0  0  0  0  0  0  0  0  0  0
  -14.1129   -7.8993   15.1145 C   0  0  0  0  0  0  0  0  0  0  0  0
  -14.7861   -7.3365   14.1600 F   0  0  0  0  0  0  0  0  0  0  0  0
  -12.9392   -7.2779   15.2295 F   0  0  0  0  0  0  0  0  0  0  0  0
  -13.8992   -9.1296   14.6912 F   0  0  0  0  0  0  0  0  0  0  0  0
  -22.5499   -1.2247   21.1030 O   0  0  0  0  0  0  0  0  0  0  0  0
  -22.4525    1.0897   21.6299 C   0  0  0  0  0  0  0  0  0  0  0  0
  -22.3497    2.3932   21.1359 C   0  0  0  0  0  0  0  0  0  0  0  0
  -22.2825    1.6087   18.9144 C   0  0  0  0  0  0  0  0  0  0  0  0
  -22.3746    0.2887   19.3530 C   0  0  0  0  0  0  0  0  0  0  0  0
  -22.4797    0.0477   20.7144 C   0  0  0  0  0  0  0  0  0  0  0  0
  -22.2780    2.6023   19.8242 N   0  0  0  0  0  0  0  0  0  0  0  0
  -22.5401    3.1720   17.0701 N   0  0  0  0  0  0  0  0  0  0  0  0
  -22.4767    3.5451   15.6480 C   0  0  0  0  0  0  0  0  0  0  0  0
  -22.1874    1.9304   17.4118 C   0  0  0  0  0  0  0  0  0  0  0  0
  -21.8046    1.0793   16.6142 O   0  0  0  0  0  0  0  0  0  0  0  0
  -22.8343    3.8198   17.7505 H   0  0  0  0  0  0  0  0  0  0  0  0
 13 14  2  0  0  0
 13 18  1  0  0  0
 14 15  1  0  0  0
 14  8  1  0  0  0
 15 16  2  0  0  0
 16 17  1  0  0  0
  7  8  1  0  0  0
  7  9  1  0  0  0
  7 10  2  0  0  0
  1  2  2  0  0  0
  1  6  1  0  0  0
  1  9  1  0  0  0
  2  3  1  0  0  0
  3  4  2  0  0  0
  4  5  1  0  0  0
  4 24  1  0  0  0
  5  6  2  0  0  0
 24 29  1  0  0  0
 25 26  2  0  0  0
 25 29  1  0  0  0
 26 30  1  0  0  0
 27 28  1  0  0  0
 27 30  2  0  0  0
 27 33  1  0  0  0
 28 29  2  0  0  0
 31 32  1  0  0  0
 31 33  1  0  0  0
 17 18  2  0  0  0
 17 19  1  0  0  0
 18 20  1  0  0  0
 20 21  1  0  0  0
 20 22  1  0  0  0
 20 23  1  0  0  0
 33 34  2  0  0  0
 31 35  1  0  0  0
  8 11  1  0  0  0
  9 12  1  0  0  0
M  END
> <minimizedAffinity>
-10.75214

$$$$
