2VWN_H25_A_1245


 36 39  0  0  0  0  0  0  0  0999 V2000
    8.4786   63.7443    3.2245 N   0  0  0  0  0  0  0  0  0  0  0  0
    7.8519   64.5337    2.3008 C   0  0  0  0  0  0  0  0  0  0  0  0
    6.9585   64.1029    1.5496 O   0  0  0  0  0  0  0  0  0  0  0  0
    9.1957   64.0974    3.7993 H   0  0  0  0  0  0  0  0  0  0  0  0
    9.5170   61.8865    1.6019 F   0  0  0  0  0  0  0  0  0  0  0  0
    8.5756   61.4834    2.4506 C   0  0  0  0  0  0  0  0  0  0  0  0
    8.1562   60.1597    2.4555 C   0  0  0  0  0  0  0  0  0  0  0  0
    7.1966   59.7048    3.3642 C   0  0  0  0  0  0  0  0  0  0  0  0
    6.6534   60.6409    4.2550 C   0  0  0  0  0  0  0  0  0  0  0  0
    7.0976   61.9723    4.2363 C   0  0  0  0  0  0  0  0  0  0  0  0
    8.0561   62.4076    3.3187 C   0  0  0  0  0  0  0  0  0  0  0  0
    6.7240   58.3877    3.3505 N   0  0  0  0  0  0  0  0  0  0  0  0
    7.3263   57.3933    4.0441 C   0  0  0  0  0  0  0  0  0  0  0  0
    6.8342   56.1094    4.0291 C   0  0  0  0  0  0  0  0  0  0  0  0
    5.6968   55.8049    3.2973 C   0  0  0  0  0  0  0  0  0  0  0  0
    5.0885   56.8328    2.5877 C   0  0  0  0  0  0  0  0  0  0  0  0
    5.6222   58.1161    2.6134 C   0  0  0  0  0  0  0  0  0  0  0  0
    5.0637   59.0633    1.9700 O   0  0  0  0  0  0  0  0  0  0  0  0
    8.2282   65.9891    2.1762 C   0  0  0  0  0  0  0  0  0  0  0  0
    9.2237   66.3227    3.1882 N   0  0  0  0  0  0  0  0  0  0  0  0
    9.3777   67.7810    3.4084 C   0  0  0  0  0  0  0  0  0  0  0  0
   10.7644   67.8588    4.0468 C   0  0  0  0  0  0  0  0  0  0  0  0
   11.4488   69.0622    3.6660 O   0  0  0  0  0  0  0  0  0  0  0  0
   10.5248   65.7997    2.7657 C   0  0  0  0  0  0  0  0  0  0  0  0
   11.5418   66.6903    3.4478 C   0  0  0  0  0  0  0  0  0  0  0  0
   11.5282   69.0971    2.6999 H   0  0  0  0  0  0  0  0  0  0  0  0
   12.2625   65.9965    4.5298 N   0  0  0  0  0  0  0  0  0  0  0  0
   13.4579   65.4581    4.3077 C   0  0  0  0  0  0  0  0  0  0  0  0
   13.9934   65.4691    3.1917 O   0  0  0  0  0  0  0  0  0  0  0  0
   11.8559   65.9312    5.4240 H   0  0  0  0  0  0  0  0  0  0  0  0
   14.1783   64.8277    5.4582 C   0  0  0  0  0  0  0  0  0  0  0  0
   14.0760   65.0694    6.8451 C   0  0  0  0  0  0  0  0  0  0  0  0
   14.9557   64.2468    7.5538 C   0  0  0  0  0  0  0  0  0  0  0  0
   15.3429   63.6270    5.0079 S   0  0  0  0  0  0  0  0  0  0  0  0
   15.6779   63.4679    6.6838 C   0  0  0  0  0  0  0  0  0  0  0  0
   16.9179   62.2489    7.1594 Cl  0  0  0  0  0  0  0  0  0  0  0  0
  5  6  1  0  0  0
  6  7  1  0  0  0
  6 11  2  0  0  0
  7  8  2  0  0  0
  8 12  1  0  0  0
  8  9  1  0  0  0
 12 13  1  0  0  0
 12 17  1  0  0  0
 13 14  2  0  0  0
 14 15  1  0  0  0
 15 16  2  0  0  0
 16 17  1  0  0  0
 17 18  2  0  0  0
  9 10  2  0  0  0
 10 11  1  0  0  0
 11  1  1  0  0  0
  1  2  1  0  0  0
  2  3  2  0  0  0
  2 19  1  0  0  0
 19 20  1  0  0  0
 20 24  1  0  0  0
 20 21  1  0  0  0
 24 25  1  0  0  0
 22 21  1  0  0  0
 22 23  1  0  0  0
 22 25  1  0  0  0
 27 28  1  0  0  0
 27 25  1  0  0  0
 28 29  2  0  0  0
 28 31  1  0  0  0
 31 32  2  0  0  0
 31 34  1  0  0  0
 32 33  1  0  0  0
 33 35  2  0  0  0
 34 35  1  0  0  0
 35 36  1  0  0  0
  1  4  1  0  0  0
 23 26  1  0  0  0
 27 30  1  0  0  0
M  END
> <minimizedAffinity>
-10.94265

$$$$
2VWN_H25_A_1245


 36 39  0  0  0  0  0  0  0  0999 V2000
    8.0810   63.8875    3.2460 N   0  0  0  0  0  0  0  0  0  0  0  0
    7.8625   64.6366    2.1233 C   0  0  0  0  0  0  0  0  0  0  0  0
    7.3907   64.1528    1.0786 O   0  0  0  0  0  0  0  0  0  0  0  0
    8.4712   64.2830    4.0588 H   0  0  0  0  0  0  0  0  0  0  0  0
    5.8450   63.0318    4.4420 F   0  0  0  0  0  0  0  0  0  0  0  0
    6.5954   62.1111    3.8436 C   0  0  0  0  0  0  0  0  0  0  0  0
    6.2220   60.7740    3.8743 C   0  0  0  0  0  0  0  0  0  0  0  0
    6.9739   59.7944    3.2198 C   0  0  0  0  0  0  0  0  0  0  0  0
    8.1348   60.2080    2.5517 C   0  0  0  0  0  0  0  0  0  0  0  0
    8.4889   61.5660    2.5284 C   0  0  0  0  0  0  0  0  0  0  0  0
    7.7252   62.5294    3.1907 C   0  0  0  0  0  0  0  0  0  0  0  0
    6.6424   58.4362    3.2825 N   0  0  0  0  0  0  0  0  0  0  0  0
    7.2987   57.5653    4.0846 C   0  0  0  0  0  0  0  0  0  0  0  0
    6.9444   56.2379    4.1423 C   0  0  0  0  0  0  0  0  0  0  0  0
    5.8943   55.7602    3.3734 C   0  0  0  0  0  0  0  0  0  0  0  0
    5.2296   56.6626    2.5524 C   0  0  0  0  0  0  0  0  0  0  0  0
    5.6246   57.9947    2.5078 C   0  0  0  0  0  0  0  0  0  0  0  0
    5.0134   58.8272    1.7619 O   0  0  0  0  0  0  0  0  0  0  0  0
    8.1834   66.1104    2.1283 C   0  0  0  0  0  0  0  0  0  0  0  0
    9.1845   66.3870    3.1519 N   0  0  0  0  0  0  0  0  0  0  0  0
    9.3709   67.8331    3.4217 C   0  0  0  0  0  0  0  0  0  0  0  0
   10.7580   67.8580    4.0635 C   0  0  0  0  0  0  0  0  0  0  0  0
   11.4697   69.0580    3.7243 O   0  0  0  0  0  0  0  0  0  0  0  0
   10.4742   65.8496    2.7128 C   0  0  0  0  0  0  0  0  0  0  0  0
   11.5099   66.6934    3.4257 C   0  0  0  0  0  0  0  0  0  0  0  0
   11.5514   69.1239    2.7600 H   0  0  0  0  0  0  0  0  0  0  0  0
   12.2132   65.9472    4.4839 N   0  0  0  0  0  0  0  0  0  0  0  0
   13.4713   65.5535    4.3102 C   0  0  0  0  0  0  0  0  0  0  0  0
   14.0870   65.7467    3.2538 O   0  0  0  0  0  0  0  0  0  0  0  0
   11.7480   65.7386    5.3261 H   0  0  0  0  0  0  0  0  0  0  0  0
   14.1625   64.8618    5.4433 C   0  0  0  0  0  0  0  0  0  0  0  0
   14.0403   65.0438    6.8377 C   0  0  0  0  0  0  0  0  0  0  0  0
   14.8954   64.1771    7.5236 C   0  0  0  0  0  0  0  0  0  0  0  0
   15.3165   63.6639    4.9594 S   0  0  0  0  0  0  0  0  0  0  0  0
   15.6205   63.4260    6.6319 C   0  0  0  0  0  0  0  0  0  0  0  0
   16.8338   62.1679    7.0733 Cl  0  0  0  0  0  0  0  0  0  0  0  0
  5  6  1  0  0  0
  6  7  1  0  0  0
  6 11  2  0  0  0
  7  8  2  0  0  0
  8 12  1  0  0  0
  8  9  1  0  0  0
 12 13  1  0  0  0
 12 17  1  0  0  0
 13 14  2  0  0  0
 14 15  1  0  0  0
 15 16  2  0  0  0
 16 17  1  0  0  0
 17 18  2  0  0  0
  9 10  2  0  0  0
 10 11  1  0  0  0
 11  1  1  0  0  0
  1  2  1  0  0  0
  2  3  2  0  0  0
  2 19  1  0  0  0
 19 20  1  0  0  0
 20 24  1  0  0  0
 20 21  1  0  0  0
 24 25  1  0  0  0
 22 21  1  0  0  0
 22 23  1  0  0  0
 22 25  1  0  0  0
 27 28  1  0  0  0
 27 25  1  0  0  0
 28 29  2  0  0  0
 28 31  1  0  0  0
 31 32  2  0  0  0
 31 34  1  0  0  0
 32 33  1  0  0  0
 33 35  2  0  0  0
 34 35  1  0  0  0
 35 36  1  0  0  0
  1  4  1  0  0  0
 23 26  1  0  0  0
 27 30  1  0  0  0
M  END
> <minimizedAffinity>
-10.82432

$$$$
2VWN_H25_A_1245


 36 39  0  0  0  0  0  0  0  0999 V2000
    6.3487   65.1496    2.8365 N   0  0  0  0  0  0  0  0  0  0  0  0
    6.6423   65.7808    4.0132 C   0  0  0  0  0  0  0  0  0  0  0  0
    6.7775   65.1652    5.0860 O   0  0  0  0  0  0  0  0  0  0  0  0
    6.2282   65.6542    1.9998 H   0  0  0  0  0  0  0  0  0  0  0  0
    8.4226   63.5991    2.1603 F   0  0  0  0  0  0  0  0  0  0  0  0
    7.2910   62.9798    2.4844 C   0  0  0  0  0  0  0  0  0  0  0  0
    7.2133   61.5941    2.4425 C   0  0  0  0  0  0  0  0  0  0  0  0
    6.0471   60.9201    2.8158 C   0  0  0  0  0  0  0  0  0  0  0  0
    4.9486   61.6965    3.2101 C   0  0  0  0  0  0  0  0  0  0  0  0
    5.0525   63.0957    3.2511 C   0  0  0  0  0  0  0  0  0  0  0  0
    6.2263   63.7504    2.8719 C   0  0  0  0  0  0  0  0  0  0  0  0
    5.9327   59.5279    2.7312 N   0  0  0  0  0  0  0  0  0  0  0  0
    6.4758   58.6979    3.6524 C   0  0  0  0  0  0  0  0  0  0  0  0
    6.3361   57.3331    3.5577 C   0  0  0  0  0  0  0  0  0  0  0  0
    5.6260   56.7740    2.5065 C   0  0  0  0  0  0  0  0  0  0  0  0
    5.0750   57.6354    1.5661 C   0  0  0  0  0  0  0  0  0  0  0  0
    5.2489   59.0095    1.6849 C   0  0  0  0  0  0  0  0  0  0  0  0
    4.7394   59.8036    0.8288 O   0  0  0  0  0  0  0  0  0  0  0  0
    6.8285   67.2774    4.0379 C   0  0  0  0  0  0  0  0  0  0  0  0
    8.2212   67.5895    4.3373 N   0  0  0  0  0  0  0  0  0  0  0  0
    8.4969   69.0442    4.4199 C   0  0  0  0  0  0  0  0  0  0  0  0
   10.0081   69.0920    4.1957 C   0  0  0  0  0  0  0  0  0  0  0  0
   10.3946   70.2803    3.4883 O   0  0  0  0  0  0  0  0  0  0  0  0
    9.0700   67.0384    3.2786 C   0  0  0  0  0  0  0  0  0  0  0  0
   10.3104   67.9068    3.2833 C   0  0  0  0  0  0  0  0  0  0  0  0
    9.9335   70.3132    2.6355 H   0  0  0  0  0  0  0  0  0  0  0  0
   11.4927   67.1978    3.8037 N   0  0  0  0  0  0  0  0  0  0  0  0
   12.1316   66.3075    3.0506 C   0  0  0  0  0  0  0  0  0  0  0  0
   11.7450   65.9993    1.9157 O   0  0  0  0  0  0  0  0  0  0  0  0
   11.8120   67.3848    4.7160 H   0  0  0  0  0  0  0  0  0  0  0  0
   13.3683   65.6684    3.6004 C   0  0  0  0  0  0  0  0  0  0  0  0
   14.5361   65.2215    2.9454 C   0  0  0  0  0  0  0  0  0  0  0  0
   15.4365   64.6751    3.8638 C   0  0  0  0  0  0  0  0  0  0  0  0
   13.3469   65.4146    5.3139 S   0  0  0  0  0  0  0  0  0  0  0  0
   14.9016   64.7113    5.1278 C   0  0  0  0  0  0  0  0  0  0  0  0
   15.7206   64.1264    6.6233 Cl  0  0  0  0  0  0  0  0  0  0  0  0
  5  6  1  0  0  0
  6  7  1  0  0  0
  6 11  2  0  0  0
  7  8  2  0  0  0
  8 12  1  0  0  0
  8  9  1  0  0  0
 12 13  1  0  0  0
 12 17  1  0  0  0
 13 14  2  0  0  0
 14 15  1  0  0  0
 15 16  2  0  0  0
 16 17  1  0  0  0
 17 18  2  0  0  0
  9 10  2  0  0  0
 10 11  1  0  0  0
 11  1  1  0  0  0
  1  2  1  0  0  0
  2  3  2  0  0  0
  2 19  1  0  0  0
 19 20  1  0  0  0
 20 24  1  0  0  0
 20 21  1  0  0  0
 24 25  1  0  0  0
 22 21  1  0  0  0
 22 23  1  0  0  0
 22 25  1  0  0  0
 27 28  1  0  0  0
 27 25  1  0  0  0
 28 29  2  0  0  0
 28 31  1  0  0  0
 31 32  2  0  0  0
 31 34  1  0  0  0
 32 33  1  0  0  0
 33 35  2  0  0  0
 34 35  1  0  0  0
 35 36  1  0  0  0
  1  4  1  0  0  0
 23 26  1  0  0  0
 27 30  1  0  0  0
M  END
> <minimizedAffinity>
-8.95889

$$$$
2VWN_H25_A_1245


 36 39  0  0  0  0  0  0  0  0999 V2000
   10.7077   65.1629    0.2475 N   0  0  0  0  0  0  0  0  0  0  0  0
   10.7074   64.1863   -0.7093 C   0  0  0  0  0  0  0  0  0  0  0  0
   11.4370   63.1810   -0.6383 O   0  0  0  0  0  0  0  0  0  0  0  0
   10.1361   65.9604    0.1668 H   0  0  0  0  0  0  0  0  0  0  0  0
    9.8337   63.8704    2.4219 F   0  0  0  0  0  0  0  0  0  0  0  0
   11.0740   64.3485    2.4662 C   0  0  0  0  0  0  0  0  0  0  0  0
   11.8466   64.1887    3.6088 C   0  0  0  0  0  0  0  0  0  0  0  0
   13.1654   64.6484    3.6644 C   0  0  0  0  0  0  0  0  0  0  0  0
   13.6720   65.3006    2.5318 C   0  0  0  0  0  0  0  0  0  0  0  0
   12.8747   65.4447    1.3855 C   0  0  0  0  0  0  0  0  0  0  0  0
   11.5583   64.9802    1.3508 C   0  0  0  0  0  0  0  0  0  0  0  0
   13.9421   64.5426    4.8237 N   0  0  0  0  0  0  0  0  0  0  0  0
   13.6285   65.1924    5.9691 C   0  0  0  0  0  0  0  0  0  0  0  0
   14.3975   65.0603    7.1013 C   0  0  0  0  0  0  0  0  0  0  0  0
   15.5206   64.2475    7.0931 C   0  0  0  0  0  0  0  0  0  0  0  0
   15.8340   63.5875    5.9114 C   0  0  0  0  0  0  0  0  0  0  0  0
   15.0425   63.7562    4.7811 C   0  0  0  0  0  0  0  0  0  0  0  0
   15.3219   63.1473    3.6976 O   0  0  0  0  0  0  0  0  0  0  0  0
    9.7875   64.2995   -1.8993 C   0  0  0  0  0  0  0  0  0  0  0  0
    8.7336   63.2968   -1.7967 N   0  0  0  0  0  0  0  0  0  0  0  0
    7.6331   63.4933   -2.7709 C   0  0  0  0  0  0  0  0  0  0  0  0
    6.4920   62.7124   -2.1195 C   0  0  0  0  0  0  0  0  0  0  0  0
    5.2209   63.3259   -2.3834 O   0  0  0  0  0  0  0  0  0  0  0  0
    8.1510   63.3551   -0.4543 C   0  0  0  0  0  0  0  0  0  0  0  0
    6.7425   62.8242   -0.6184 C   0  0  0  0  0  0  0  0  0  0  0  0
    5.2271   64.2378   -2.0529 H   0  0  0  0  0  0  0  0  0  0  0  0
    6.5670   61.4943   -0.0085 N   0  0  0  0  0  0  0  0  0  0  0  0
    6.2851   61.3770    1.2856 C   0  0  0  0  0  0  0  0  0  0  0  0
    6.2058   62.3563    2.0387 O   0  0  0  0  0  0  0  0  0  0  0  0
    6.6591   60.6864   -0.5635 H   0  0  0  0  0  0  0  0  0  0  0  0
    6.0462   60.0073    1.8398 C   0  0  0  0  0  0  0  0  0  0  0  0
    4.9462   59.1365    1.6846 C   0  0  0  0  0  0  0  0  0  0  0  0
    5.1521   57.9524    2.3977 C   0  0  0  0  0  0  0  0  0  0  0  0
    7.3158   59.4099    2.8556 S   0  0  0  0  0  0  0  0  0  0  0  0
    6.3537   58.0032    3.0600 C   0  0  0  0  0  0  0  0  0  0  0  0
    7.0327   56.6886    4.0898 Cl  0  0  0  0  0  0  0  0  0  0  0  0
  5  6  1  0  0  0
  6  7  1  0  0  0
  6 11  2  0  0  0
  7  8  2  0  0  0
  8 12  1  0  0  0
  8  9  1  0  0  0
 12 13  1  0  0  0
 12 17  1  0  0  0
 13 14  2  0  0  0
 14 15  1  0  0  0
 15 16  2  0  0  0
 16 17  1  0  0  0
 17 18  2  0  0  0
  9 10  2  0  0  0
 10 11  1  0  0  0
 11  1  1  0  0  0
  1  2  1  0  0  0
  2  3  2  0  0  0
  2 19  1  0  0  0
 19 20  1  0  0  0
 20 24  1  0  0  0
 20 21  1  0  0  0
 24 25  1  0  0  0
 22 21  1  0  0  0
 22 23  1  0  0  0
 22 25  1  0  0  0
 27 28  1  0  0  0
 27 25  1  0  0  0
 28 29  2  0  0  0
 28 31  1  0  0  0
 31 32  2  0  0  0
 31 34  1  0  0  0
 32 33  1  0  0  0
 33 35  2  0  0  0
 34 35  1  0  0  0
 35 36  1  0  0  0
  1  4  1  0  0  0
 23 26  1  0  0  0
 27 30  1  0  0  0
M  END
> <minimizedAffinity>
-8.31393

$$$$
2VWN_H25_A_1245


 36 39  0  0  0  0  0  0  0  0999 V2000
    9.5518   63.5056   -0.7649 N   0  0  0  0  0  0  0  0  0  0  0  0
    8.5247   64.4044   -0.8464 C   0  0  0  0  0  0  0  0  0  0  0  0
    8.4141   65.3655   -0.0641 O   0  0  0  0  0  0  0  0  0  0  0  0
    9.6145   62.7408   -1.3817 H   0  0  0  0  0  0  0  0  0  0  0  0
    9.3932   62.1870    1.5586 F   0  0  0  0  0  0  0  0  0  0  0  0
   10.3881   63.0604    1.4311 C   0  0  0  0  0  0  0  0  0  0  0  0
   11.2732   63.2728    2.4796 C   0  0  0  0  0  0  0  0  0  0  0  0
   12.3488   64.1566    2.3549 C   0  0  0  0  0  0  0  0  0  0  0  0
   12.4867   64.8412    1.1395 C   0  0  0  0  0  0  0  0  0  0  0  0
   11.5836   64.6054    0.0910 C   0  0  0  0  0  0  0  0  0  0  0  0
   10.5139   63.7197    0.2364 C   0  0  0  0  0  0  0  0  0  0  0  0
   13.2206   64.4225    3.4168 N   0  0  0  0  0  0  0  0  0  0  0  0
   14.4330   63.8304    3.5260 C   0  0  0  0  0  0  0  0  0  0  0  0
   15.2802   64.1198    4.5698 C   0  0  0  0  0  0  0  0  0  0  0  0
   14.9064   65.0362    5.5405 C   0  0  0  0  0  0  0  0  0  0  0  0
   13.6590   65.6358    5.4194 C   0  0  0  0  0  0  0  0  0  0  0  0
   12.8219   65.3081    4.3591 C   0  0  0  0  0  0  0  0  0  0  0  0
   11.6802   65.8608    4.2400 O   0  0  0  0  0  0  0  0  0  0  0  0
    7.4803   64.2571   -1.9247 C   0  0  0  0  0  0  0  0  0  0  0  0
    6.8343   62.9555   -1.8018 N   0  0  0  0  0  0  0  0  0  0  0  0
    5.7330   62.7476   -2.7728 C   0  0  0  0  0  0  0  0  0  0  0  0
    4.9291   61.6328   -2.1040 C   0  0  0  0  0  0  0  0  0  0  0  0
    3.5246   61.7690   -2.3699 O   0  0  0  0  0  0  0  0  0  0  0  0
    6.2672   62.8313   -0.4573 C   0  0  0  0  0  0  0  0  0  0  0  0
    5.1262   61.8470   -0.6060 C   0  0  0  0  0  0  0  0  0  0  0  0
    3.2177   62.6328   -2.0527 H   0  0  0  0  0  0  0  0  0  0  0  0
    5.4175   60.5473    0.0240 N   0  0  0  0  0  0  0  0  0  0  0  0
    5.1390   60.3419    1.3079 C   0  0  0  0  0  0  0  0  0  0  0  0
    4.6759   61.2291    2.0364 O   0  0  0  0  0  0  0  0  0  0  0  0
    5.8215   59.8253   -0.5097 H   0  0  0  0  0  0  0  0  0  0  0  0
    5.3884   58.9817    1.8806 C   0  0  0  0  0  0  0  0  0  0  0  0
    4.7197   57.7586    1.6583 C   0  0  0  0  0  0  0  0  0  0  0  0
    5.2938   56.7386    2.4217 C   0  0  0  0  0  0  0  0  0  0  0  0
    6.6922   58.9074    3.0187 S   0  0  0  0  0  0  0  0  0  0  0  0
    6.3212   57.2396    3.1824 C   0  0  0  0  0  0  0  0  0  0  0  0
    7.3518   56.2773    4.3055 Cl  0  0  0  0  0  0  0  0  0  0  0  0
  5  6  1  0  0  0
  6  7  1  0  0  0
  6 11  2  0  0  0
  7  8  2  0  0  0
  8 12  1  0  0  0
  8  9  1  0  0  0
 12 13  1  0  0  0
 12 17  1  0  0  0
 13 14  2  0  0  0
 14 15  1  0  0  0
 15 16  2  0  0  0
 16 17  1  0  0  0
 17 18  2  0  0  0
  9 10  2  0  0  0
 10 11  1  0  0  0
 11  1  1  0  0  0
  1  2  1  0  0  0
  2  3  2  0  0  0
  2 19  1  0  0  0
 19 20  1  0  0  0
 20 24  1  0  0  0
 20 21  1  0  0  0
 24 25  1  0  0  0
 22 21  1  0  0  0
 22 23  1  0  0  0
 22 25  1  0  0  0
 27 28  1  0  0  0
 27 25  1  0  0  0
 28 29  2  0  0  0
 28 31  1  0  0  0
 31 32  2  0  0  0
 31 34  1  0  0  0
 32 33  1  0  0  0
 33 35  2  0  0  0
 34 35  1  0  0  0
 35 36  1  0  0  0
  1  4  1  0  0  0
 23 26  1  0  0  0
 27 30  1  0  0  0
M  END
> <minimizedAffinity>
-8.17140

$$$$
2VWN_H25_A_1245


 36 39  0  0  0  0  0  0  0  0999 V2000
   11.6611   65.3364    0.3692 N   0  0  0  0  0  0  0  0  0  0  0  0
   11.5787   64.2374   -0.4400 C   0  0  0  0  0  0  0  0  0  0  0  0
   12.0374   63.1289   -0.1103 O   0  0  0  0  0  0  0  0  0  0  0  0
   11.3079   66.2103    0.0852 H   0  0  0  0  0  0  0  0  0  0  0  0
   14.2843   65.7791    0.6615 F   0  0  0  0  0  0  0  0  0  0  0  0
   13.6227   65.3619    1.7372 C   0  0  0  0  0  0  0  0  0  0  0  0
   14.2929   65.1533    2.9353 C   0  0  0  0  0  0  0  0  0  0  0  0
   13.6122   64.7525    4.0884 C   0  0  0  0  0  0  0  0  0  0  0  0
   12.2300   64.5437    3.9847 C   0  0  0  0  0  0  0  0  0  0  0  0
   11.5727   64.7674    2.7648 C   0  0  0  0  0  0  0  0  0  0  0  0
   12.2714   65.1656    1.6232 C   0  0  0  0  0  0  0  0  0  0  0  0
   14.2772   64.4876    5.2909 N   0  0  0  0  0  0  0  0  0  0  0  0
   13.9654   65.1192    6.4469 C   0  0  0  0  0  0  0  0  0  0  0  0
   14.6213   64.8305    7.6205 C   0  0  0  0  0  0  0  0  0  0  0  0
   15.6244   63.8738    7.6440 C   0  0  0  0  0  0  0  0  0  0  0  0
   15.9373   63.2337    6.4513 C   0  0  0  0  0  0  0  0  0  0  0  0
   15.2639   63.5617    5.2802 C   0  0  0  0  0  0  0  0  0  0  0  0
   15.5424   62.9722    4.1857 O   0  0  0  0  0  0  0  0  0  0  0  0
   10.8988   64.3412   -1.7824 C   0  0  0  0  0  0  0  0  0  0  0  0
    9.6709   63.5546   -1.7681 N   0  0  0  0  0  0  0  0  0  0  0  0
    8.6568   64.0231   -2.7431 C   0  0  0  0  0  0  0  0  0  0  0  0
    7.3695   63.4338   -2.1669 C   0  0  0  0  0  0  0  0  0  0  0  0
    6.2465   64.2959   -2.4066 O   0  0  0  0  0  0  0  0  0  0  0  0
    9.0713   63.6339   -0.4343 C   0  0  0  0  0  0  0  0  0  0  0  0
    7.5929   63.3950   -0.6579 C   0  0  0  0  0  0  0  0  0  0  0  0
    6.4164   65.1655   -2.0120 H   0  0  0  0  0  0  0  0  0  0  0  0
    7.1500   62.0858   -0.1470 N   0  0  0  0  0  0  0  0  0  0  0  0
    6.8923   61.9181    1.1467 C   0  0  0  0  0  0  0  0  0  0  0  0
    7.0551   62.8207    1.9780 O   0  0  0  0  0  0  0  0  0  0  0  0
    7.0440   61.3295   -0.7682 H   0  0  0  0  0  0  0  0  0  0  0  0
    6.3771   60.5887    1.6023 C   0  0  0  0  0  0  0  0  0  0  0  0
    6.8999   59.6795    2.5470 C   0  0  0  0  0  0  0  0  0  0  0  0
    6.0837   58.5495    2.6458 C   0  0  0  0  0  0  0  0  0  0  0  0
    4.9177   60.0762    0.8224 S   0  0  0  0  0  0  0  0  0  0  0  0
    5.0302   58.6504    1.7712 C   0  0  0  0  0  0  0  0  0  0  0  0
    3.7203   57.4280    1.5719 Cl  0  0  0  0  0  0  0  0  0  0  0  0
  5  6  1  0  0  0
  6  7  1  0  0  0
  6 11  2  0  0  0
  7  8  2  0  0  0
  8 12  1  0  0  0
  8  9  1  0  0  0
 12 13  1  0  0  0
 12 17  1  0  0  0
 13 14  2  0  0  0
 14 15  1  0  0  0
 15 16  2  0  0  0
 16 17  1  0  0  0
 17 18  2  0  0  0
  9 10  2  0  0  0
 10 11  1  0  0  0
 11  1  1  0  0  0
  1  2  1  0  0  0
  2  3  2  0  0  0
  2 19  1  0  0  0
 19 20  1  0  0  0
 20 24  1  0  0  0
 20 21  1  0  0  0
 24 25  1  0  0  0
 22 21  1  0  0  0
 22 23  1  0  0  0
 22 25  1  0  0  0
 27 28  1  0  0  0
 27 25  1  0  0  0
 28 29  2  0  0  0
 28 31  1  0  0  0
 31 32  2  0  0  0
 31 34  1  0  0  0
 32 33  1  0  0  0
 33 35  2  0  0  0
 34 35  1  0  0  0
 35 36  1  0  0  0
  1  4  1  0  0  0
 23 26  1  0  0  0
 27 30  1  0  0  0
M  END
> <minimizedAffinity>
-8.07583

$$$$
2VWN_H25_A_1245


 36 39  0  0  0  0  0  0  0  0999 V2000
    8.7982   62.4077    1.0044 N   0  0  0  0  0  0  0  0  0  0  0  0
    9.0336   63.1454   -0.1224 C   0  0  0  0  0  0  0  0  0  0  0  0
    8.2258   63.1987   -1.0672 O   0  0  0  0  0  0  0  0  0  0  0  0
    9.4562   62.3632    1.7353 H   0  0  0  0  0  0  0  0  0  0  0  0
    8.4139   60.5435    2.8857 F   0  0  0  0  0  0  0  0  0  0  0  0
    7.4203   60.7397    2.0237 C   0  0  0  0  0  0  0  0  0  0  0  0
    6.2597   59.9820    2.1073 C   0  0  0  0  0  0  0  0  0  0  0  0
    5.1873   60.1969    1.2371 C   0  0  0  0  0  0  0  0  0  0  0  0
    5.3363   61.1897    0.2587 C   0  0  0  0  0  0  0  0  0  0  0  0
    6.5161   61.9478    0.1975 C   0  0  0  0  0  0  0  0  0  0  0  0
    7.5773   61.7160    1.0750 C   0  0  0  0  0  0  0  0  0  0  0  0
    4.0308   59.4097    1.2724 N   0  0  0  0  0  0  0  0  0  0  0  0
    3.9899   58.1570    0.7608 C   0  0  0  0  0  0  0  0  0  0  0  0
    2.8466   57.3953    0.8218 C   0  0  0  0  0  0  0  0  0  0  0  0
    1.7010   57.8998    1.4177 C   0  0  0  0  0  0  0  0  0  0  0  0
    1.7542   59.1872    1.9373 C   0  0  0  0  0  0  0  0  0  0  0  0
    2.9226   59.9346    1.8445 C   0  0  0  0  0  0  0  0  0  0  0  0
    2.9781   61.1128    2.3260 O   0  0  0  0  0  0  0  0  0  0  0  0
   10.3063   63.9456   -0.2451 C   0  0  0  0  0  0  0  0  0  0  0  0
   10.7775   64.3173    1.0839 N   0  0  0  0  0  0  0  0  0  0  0  0
   10.1166   65.5278    1.6288 C   0  0  0  0  0  0  0  0  0  0  0  0
   11.1172   65.9820    2.6914 C   0  0  0  0  0  0  0  0  0  0  0  0
   11.1446   67.4131    2.8061 O   0  0  0  0  0  0  0  0  0  0  0  0
   12.2150   64.5898    1.0196 C   0  0  0  0  0  0  0  0  0  0  0  0
   12.4808   65.5468    2.1625 C   0  0  0  0  0  0  0  0  0  0  0  0
   11.3757   67.8019    1.9480 H   0  0  0  0  0  0  0  0  0  0  0  0
   13.2358   64.9176    3.2603 N   0  0  0  0  0  0  0  0  0  0  0  0
   13.4593   65.5792    4.3919 C   0  0  0  0  0  0  0  0  0  0  0  0
   13.0947   66.7503    4.5587 O   0  0  0  0  0  0  0  0  0  0  0  0
   13.5774   64.0003    3.1552 H   0  0  0  0  0  0  0  0  0  0  0  0
   14.1692   64.8692    5.5020 C   0  0  0  0  0  0  0  0  0  0  0  0
   14.0635   65.0223    6.9012 C   0  0  0  0  0  0  0  0  0  0  0  0
   14.9326   64.1474    7.5586 C   0  0  0  0  0  0  0  0  0  0  0  0
   15.3245   63.6890    4.9795 S   0  0  0  0  0  0  0  0  0  0  0  0
   15.6511   63.4193    6.6428 C   0  0  0  0  0  0  0  0  0  0  0  0
   16.8777   62.1605    7.0434 Cl  0  0  0  0  0  0  0  0  0  0  0  0
  5  6  1  0  0  0
  6  7  1  0  0  0
  6 11  2  0  0  0
  7  8  2  0  0  0
  8 12  1  0  0  0
  8  9  1  0  0  0
 12 13  1  0  0  0
 12 17  1  0  0  0
 13 14  2  0  0  0
 14 15  1  0  0  0
 15 16  2  0  0  0
 16 17  1  0  0  0
 17 18  2  0  0  0
  9 10  2  0  0  0
 10 11  1  0  0  0
 11  1  1  0  0  0
  1  2  1  0  0  0
  2  3  2  0  0  0
  2 19  1  0  0  0
 19 20  1  0  0  0
 20 24  1  0  0  0
 20 21  1  0  0  0
 24 25  1  0  0  0
 22 21  1  0  0  0
 22 23  1  0  0  0
 22 25  1  0  0  0
 27 28  1  0  0  0
 27 25  1  0  0  0
 28 29  2  0  0  0
 28 31  1  0  0  0
 31 32  2  0  0  0
 31 34  1  0  0  0
 32 33  1  0  0  0
 33 35  2  0  0  0
 34 35  1  0  0  0
 35 36  1  0  0  0
  1  4  1  0  0  0
 23 26  1  0  0  0
 27 30  1  0  0  0
M  END
> <minimizedAffinity>
-7.99272

$$$$
