1DRJ_RIP_A_272
  RCSB PDB12061702183D
Coordinates from PDB:1DRJ:A:272 Model:1 without hydrogens
 10 10  0  0  0  0            999 V2000
   50.1230   34.0140   43.2800   C 0  0  0  0  0  0  0  0  0  0  0  0
   49.4070   33.4660   44.5170   C 0  0  0  0  0  0  0  0  0  0  0  0
   49.0130   34.5990   45.4310   C 0  0  0  0  0  0  0  0  0  0  0  0
   50.2290   35.4740   45.7600   C 0  0  0  0  0  0  0  0  0  0  0  0
   50.9290   35.9190   44.4860   C 0  0  0  0  0  0  0  0  0  0  0  0
   50.5470   32.9690   42.4360   O 0  0  0  0  0  0  0  0  0  0  0  0
   48.2460   32.7680   44.1460   O 0  0  0  0  0  0  0  0  0  0  0  0
   48.0230   35.3570   44.7770   O 0  0  0  0  0  0  0  0  0  0  0  0
   49.8410   36.6150   46.4860   O 0  0  0  0  0  0  0  0  0  0  0  0
   51.2510   34.7940   43.6660   O 0  0  0  0  0  0  0  0  0  0  0  0
  1  2  1  0  0  0  0
  1  6  1  0  0  0  0
  1 10  1  0  0  0  0
  2  3  1  0  0  0  0
  2  7  1  0  0  0  0
  3  4  1  0  0  0  0
  3  8  1  0  0  0  0
  4  5  1  0  0  0  0
  4  9  1  0  0  0  0
  5 10  1  0  0  0  0
A    1
C1
A    2
C2
A    3
C3
A    4
C4
A    5
C5
A    6
O1
A    7
O2
A    8
O3
A    9
O4
A   10
O5
M  END
>  <InstanceId>
1DRJ_RIP_A_272

>  <ChemCompId>
RIP

>  <PdbId>
1DRJ

>  <ChainId>
A

>  <ResidueNumber>
272

>  <InsertionCode>


>  <Model>
1

>  <AltIds>


>  <MissingHeavyAtoms>
0

>  <ObservedFormula>
C5 O5

>  <Name>
RIBOSE(PYRANOSE FORM)

>  <SystematicName>
(2R,3R,4R,5R)-oxane-2,3,4,5-tetrol

>  <Synonyms>


>  <Type>
SACCHARIDE

>  <Formula>
C5 H10 O5

>  <MolecularWeight>
150.13

>  <ModifiedDate>
2011-06-04

>  <Parent>


>  <OneLetterCode>


>  <SubcomponentList>


>  <AmbiguousFlag>
N

>  <InChI>
InChI=1S/C5H10O5/c6-2-1-10-5(9)4(8)3(2)7/h2-9H,1H2/t2-,3-,4-,5-/m1/s1

>  <InChIKey>
SRBFZHDQGSBBOR-TXICZTDVSA-N

>  <SMILES>
C1[C@H]([C@H]([C@H]([C@@H](O1)O)O)O)O

$$$$
