1DRJ_RIP_A_272


 14 14  0  0  0  0  0  0  0  0999 V2000
   50.1411   33.9326   43.3204 C   0  0  0  0  0  0  0  0  0  0  0  0
   49.4358   33.4586   44.5936 C   0  0  0  0  0  0  0  0  0  0  0  0
   49.1177   34.6378   45.4783 C   0  0  0  0  0  0  0  0  0  0  0  0
   50.3799   35.4672   45.7455 C   0  0  0  0  0  0  0  0  0  0  0  0
   51.0636   35.8379   44.4393 C   0  0  0  0  0  0  0  0  0  0  0  0
   50.4950   32.8423   42.5018 O   0  0  0  0  0  0  0  0  0  0  0  0
   48.2352   32.8020   44.2769 O   0  0  0  0  0  0  0  0  0  0  0  0
   48.1447   35.4178   44.8248 O   0  0  0  0  0  0  0  0  0  0  0  0
   50.0629   36.6479   46.4420 O   0  0  0  0  0  0  0  0  0  0  0  0
   51.3128   34.6731   43.6501 O   0  0  0  0  0  0  0  0  0  0  0  0
   51.1133   32.2670   42.9790 H   0  0  0  0  0  0  0  0  0  0  0  0
   47.6429   33.4160   43.8153 H   0  0  0  0  0  0  0  0  0  0  0  0
   48.4913   35.7175   43.9698 H   0  0  0  0  0  0  0  0  0  0  0  0
   49.4649   37.1900   45.9041 H   0  0  0  0  0  0  0  0  0  0  0  0
  1  2  1  0  0  0
  1  6  1  0  0  0
  1 10  1  0  0  0
  2  3  1  0  0  0
  2  7  1  0  0  0
  3  4  1  0  0  0
  3  8  1  0  0  0
  4  5  1  0  0  0
  4  9  1  0  0  0
  5 10  1  0  0  0
  6 11  1  0  0  0
  7 12  1  0  0  0
  8 13  1  0  0  0
  9 14  1  0  0  0
M  END
> <minimizedAffinity>
-7.96039

$$$$
1DRJ_RIP_A_272


 14 14  0  0  0  0  0  0  0  0999 V2000
   49.2104   33.2526   43.7468 C   0  0  0  0  0  0  0  0  0  0  0  0
   49.8069   34.4075   42.9384 C   0  0  0  0  0  0  0  0  0  0  0  0
   50.4947   35.3830   43.8602 C   0  0  0  0  0  0  0  0  0  0  0  0
   49.5415   35.8373   44.9727 C   0  0  0  0  0  0  0  0  0  0  0  0
   48.9341   34.6370   45.6808 C   0  0  0  0  0  0  0  0  0  0  0  0
   48.5173   32.3548   42.9115 O   0  0  0  0  0  0  0  0  0  0  0  0
   50.7490   33.9274   42.0139 O   0  0  0  0  0  0  0  0  0  0  0  0
   51.6204   34.7390   44.4083 O   0  0  0  0  0  0  0  0  0  0  0  0
   50.2198   36.6265   45.9196 O   0  0  0  0  0  0  0  0  0  0  0  0
   48.3209   33.7521   44.7413 O   0  0  0  0  0  0  0  0  0  0  0  0
   47.7819   32.8171   42.4797 H   0  0  0  0  0  0  0  0  0  0  0  0
   51.4716   33.4868   42.4878 H   0  0  0  0  0  0  0  0  0  0  0  0
   51.3358   33.9512   44.8975 H   0  0  0  0  0  0  0  0  0  0  0  0
   50.9235   36.1022   46.3329 H   0  0  0  0  0  0  0  0  0  0  0  0
  1  2  1  0  0  0
  1  6  1  0  0  0
  1 10  1  0  0  0
  2  3  1  0  0  0
  2  7  1  0  0  0
  3  4  1  0  0  0
  3  8  1  0  0  0
  4  5  1  0  0  0
  4  9  1  0  0  0
  5 10  1  0  0  0
  6 11  1  0  0  0
  7 12  1  0  0  0
  8 13  1  0  0  0
  9 14  1  0  0  0
M  END
> <minimizedAffinity>
-5.61500

$$$$
1DRJ_RIP_A_272


 14 14  0  0  0  0  0  0  0  0999 V2000
   51.3834   35.3928   44.7730 C   0  0  0  0  0  0  0  0  0  0  0  0
   49.9983   36.0441   44.7941 C   0  0  0  0  0  0  0  0  0  0  0  0
   48.9293   34.9838   44.8777 C   0  0  0  0  0  0  0  0  0  0  0  0
   49.1069   33.9497   43.7589 C   0  0  0  0  0  0  0  0  0  0  0  0
   50.5252   33.4023   43.7559 C   0  0  0  0  0  0  0  0  0  0  0  0
   52.3969   36.3623   44.6425 O   0  0  0  0  0  0  0  0  0  0  0  0
   49.8703   36.8950   45.9042 O   0  0  0  0  0  0  0  0  0  0  0  0
   49.0306   34.3670   46.1393 O   0  0  0  0  0  0  0  0  0  0  0  0
   48.2085   32.8793   43.9215 O   0  0  0  0  0  0  0  0  0  0  0  0
   51.4779   34.4655   43.6955 O   0  0  0  0  0  0  0  0  0  0  0  0
   52.2858   36.8351   43.8029 H   0  0  0  0  0  0  0  0  0  0  0  0
   49.9735   36.3801   46.7198 H   0  0  0  0  0  0  0  0  0  0  0  0
   49.9109   33.9712   46.2359 H   0  0  0  0  0  0  0  0  0  0  0  0
   48.3867   32.4326   44.7639 H   0  0  0  0  0  0  0  0  0  0  0  0
  1  2  1  0  0  0
  1  6  1  0  0  0
  1 10  1  0  0  0
  2  3  1  0  0  0
  2  7  1  0  0  0
  3  4  1  0  0  0
  3  8  1  0  0  0
  4  5  1  0  0  0
  4  9  1  0  0  0
  5 10  1  0  0  0
  6 11  1  0  0  0
  7 12  1  0  0  0
  8 13  1  0  0  0
  9 14  1  0  0  0
M  END
> <minimizedAffinity>
-5.25385

$$$$
1DRJ_RIP_A_272


 14 14  0  0  0  0  0  0  0  0999 V2000
   49.1723   33.5844   43.4106 C   0  0  0  0  0  0  0  0  0  0  0  0
   49.0122   33.7517   44.9237 C   0  0  0  0  0  0  0  0  0  0  0  0
   49.5302   35.1015   45.3525 C   0  0  0  0  0  0  0  0  0  0  0  0
   50.9673   35.3093   44.8584 C   0  0  0  0  0  0  0  0  0  0  0  0
   51.0612   35.0550   43.3625 C   0  0  0  0  0  0  0  0  0  0  0  0
   48.7427   32.3092   42.9940 O   0  0  0  0  0  0  0  0  0  0  0  0
   47.6596   33.6563   45.2899 O   0  0  0  0  0  0  0  0  0  0  0  0
   48.6769   36.0829   44.8129 O   0  0  0  0  0  0  0  0  0  0  0  0
   51.4013   36.6212   45.1231 O   0  0  0  0  0  0  0  0  0  0  0  0
   50.5339   33.7684   43.0337 O   0  0  0  0  0  0  0  0  0  0  0  0
   49.2873   31.6292   43.4204 H   0  0  0  0  0  0  0  0  0  0  0  0
   47.1560   34.3614   44.8539 H   0  0  0  0  0  0  0  0  0  0  0  0
   48.6730   36.0115   43.8456 H   0  0  0  0  0  0  0  0  0  0  0  0
   50.8351   37.2507   44.6499 H   0  0  0  0  0  0  0  0  0  0  0  0
  1  2  1  0  0  0
  1  6  1  0  0  0
  1 10  1  0  0  0
  2  3  1  0  0  0
  2  7  1  0  0  0
  3  4  1  0  0  0
  3  8  1  0  0  0
  4  5  1  0  0  0
  4  9  1  0  0  0
  5 10  1  0  0  0
  6 11  1  0  0  0
  7 12  1  0  0  0
  8 13  1  0  0  0
  9 14  1  0  0  0
M  END
> <minimizedAffinity>
-5.16873

$$$$
