5NVW_9BW_C_301


 38 41  0  0  0  0  0  0  0  0999 V2000
   11.9216   53.6601   92.1433 C   0  0  0  0  0  0  0  0  0  0  0  0
   10.7664   53.4069   91.8517 O   0  0  0  0  0  0  0  0  0  0  0  0
   12.8491   53.9484   91.1991 N   0  0  0  0  0  0  0  0  0  0  0  0
   14.2973   54.3297   91.3200 C   0  0  0  0  0  0  0  0  0  0  0  0
   14.5984   55.0924   90.0254 C   0  0  0  0  0  0  0  0  0  0  0  0
   14.2033   56.4720   90.1266 O   0  0  0  0  0  0  0  0  0  0  0  0
   13.7427   54.4008   89.0038 C   0  0  0  0  0  0  0  0  0  0  0  0
   12.4711   53.9561   89.7441 C   0  0  0  0  0  0  0  0  0  0  0  0
   13.2585   56.5229   90.3401 H   0  0  0  0  0  0  0  0  0  0  0  0
   12.0714   52.7084   89.2188 C   0  0  0  0  0  0  0  0  0  0  0  0
   12.4294   51.6609   89.7383 O   0  0  0  0  0  0  0  0  0  0  0  0
   11.3566   52.7554   88.0770 N   0  0  0  0  0  0  0  0  0  0  0  0
   11.1123   53.6386   87.7171 H   0  0  0  0  0  0  0  0  0  0  0  0
   10.9205   51.5562   87.3372 C   0  0  0  0  0  0  0  0  0  0  0  0
   11.6434   51.3846   86.1210 C   0  0  0  0  0  0  0  0  0  0  0  0
   11.7644   50.1472   85.4833 C   0  0  0  0  0  0  0  0  0  0  0  0
   12.4811   50.0101   84.2891 C   0  0  0  0  0  0  0  0  0  0  0  0
   12.2677   52.4747   85.5212 C   0  0  0  0  0  0  0  0  0  0  0  0
   12.9891   52.3286   84.3287 C   0  0  0  0  0  0  0  0  0  0  0  0
   13.1127   51.0875   83.6933 C   0  0  0  0  0  0  0  0  0  0  0  0
   13.8153   50.9251   82.5464 C   0  0  0  0  0  0  0  0  0  0  0  0
   13.3455   50.0387   81.1740 S   0  0  0  0  0  0  0  0  0  0  0  0
   14.7106   50.3613   80.2811 C   0  0  0  0  0  0  0  0  0  0  0  0
   15.5140   51.1315   81.0268 N   0  0  0  0  0  0  0  0  0  0  0  0
   15.0343   51.4306   82.2582 C   0  0  0  0  0  0  0  0  0  0  0  0
   15.8671   52.3200   83.2051 C   0  0  0  0  0  0  0  0  0  0  0  0
   12.3185   53.6973   93.6449 C   0  0  0  0  0  0  0  0  0  0  0  0
   11.0991   55.4992   94.8463 C   0  0  0  0  0  0  0  0  0  0  0  0
   12.0214   56.3119   94.8650 O   0  0  0  0  0  0  0  0  0  0  0  0
   11.1564   54.2719   94.3323 N   0  0  0  0  0  0  0  0  0  0  0  0
   10.3560   53.7055   94.4205 H   0  0  0  0  0  0  0  0  0  0  0  0
    9.9054   56.2359   97.0053 C   0  0  0  0  0  0  0  0  0  0  0  0
    9.5053   57.2467   95.9467 C   0  0  0  0  0  0  0  0  0  0  0  0
    9.7727   55.8140   95.5523 C   0  0  0  0  0  0  0  0  0  0  0  0
   12.6477   52.2910   94.2371 C   0  0  0  0  0  0  0  0  0  0  0  0
   11.3470   51.5834   94.6429 C   0  0  0  0  0  0  0  0  0  0  0  0
   13.5369   52.4172   95.4841 C   0  0  0  0  0  0  0  0  0  0  0  0
   13.3628   51.3480   93.2278 C   0  0  0  0  0  0  0  0  0  0  0  0
 24 23  2  0  0  0
 24 25  1  0  0  0
 23 22  1  0  0  0
 26 25  1  0  0  0
 25 21  2  0  0  0
 22 21  1  0  0  0
 21 20  1  0  0  0
 20 19  2  0  0  0
 20 17  1  0  0  0
 19 18  1  0  0  0
 17 16  2  0  0  0
 18 15  2  0  0  0
 16 15  1  0  0  0
 15 14  1  0  0  0
 14 12  1  0  0  0
 12 10  1  0  0  0
  7  8  1  0  0  0
  7  5  1  0  0  0
 10 11  2  0  0  0
 10  8  1  0  0  0
  8  3  1  0  0  0
  5  6  1  0  0  0
  5  4  1  0  0  0
  3  4  1  0  0  0
  3  1  1  0  0  0
  2  1  2  0  0  0
  1 27  1  0  0  0
 37 35  1  0  0  0
 27 35  1  0  0  0
 27 30  1  0  0  0
 38 35  1  0  0  0
 35 36  1  0  0  0
 30 28  1  0  0  0
 28 29  2  0  0  0
 28 34  1  0  0  0
 34 33  1  0  0  0
 34 32  1  0  0  0
 33 32  1  0  0  0
 30 31  1  0  0  0
  6  9  1  0  0  0
 12 13  1  0  0  0
M  END
> <minimizedAffinity>
-9.41517

$$$$
5NVW_9BW_C_301


 38 41  0  0  0  0  0  0  0  0999 V2000
   11.6562   53.8629   92.2500 C   0  0  0  0  0  0  0  0  0  0  0  0
   10.4914   53.6773   91.9460 O   0  0  0  0  0  0  0  0  0  0  0  0
   12.6257   53.9950   91.3134 N   0  0  0  0  0  0  0  0  0  0  0  0
   14.0968   54.2701   91.4455 C   0  0  0  0  0  0  0  0  0  0  0  0
   14.4889   54.8925   90.1012 C   0  0  0  0  0  0  0  0  0  0  0  0
   14.2046   56.3025   90.0743 O   0  0  0  0  0  0  0  0  0  0  0  0
   13.6041   54.1851   89.1159 C   0  0  0  0  0  0  0  0  0  0  0  0
   12.2837   53.9072   89.8521 C   0  0  0  0  0  0  0  0  0  0  0  0
   13.2623   56.4459   90.2542 H   0  0  0  0  0  0  0  0  0  0  0  0
   11.7966   52.6543   89.4216 C   0  0  0  0  0  0  0  0  0  0  0  0
   12.4228   51.6260   89.6359 O   0  0  0  0  0  0  0  0  0  0  0  0
   10.6613   52.6853   88.6957 N   0  0  0  0  0  0  0  0  0  0  0  0
   10.2185   53.5542   88.5613 H   0  0  0  0  0  0  0  0  0  0  0  0
   10.0460   51.4885   88.0917 C   0  0  0  0  0  0  0  0  0  0  0  0
   10.3408   51.3782   86.7016 C   0  0  0  0  0  0  0  0  0  0  0  0
   10.7315   52.4716   85.9241 C   0  0  0  0  0  0  0  0  0  0  0  0
   11.0146   52.3318   84.5607 C   0  0  0  0  0  0  0  0  0  0  0  0
   10.2418   50.1451   86.0636 C   0  0  0  0  0  0  0  0  0  0  0  0
   10.5206   50.0139   84.6965 C   0  0  0  0  0  0  0  0  0  0  0  0
   10.9080   51.1109   83.9182 C   0  0  0  0  0  0  0  0  0  0  0  0
   11.1705   51.0055   82.5933 C   0  0  0  0  0  0  0  0  0  0  0  0
   10.0494   51.0809   81.3177 S   0  0  0  0  0  0  0  0  0  0  0  0
   11.1603   50.8860   80.0959 C   0  0  0  0  0  0  0  0  0  0  0  0
   12.3692   50.7601   80.6593 N   0  0  0  0  0  0  0  0  0  0  0  0
   12.3755   50.8157   82.0131 C   0  0  0  0  0  0  0  0  0  0  0  0
   13.7119   50.6924   82.7748 C   0  0  0  0  0  0  0  0  0  0  0  0
   12.0195   53.9978   93.7545 C   0  0  0  0  0  0  0  0  0  0  0  0
   10.9406   55.8043   95.0773 C   0  0  0  0  0  0  0  0  0  0  0  0
   11.9720   56.4053   95.3716 O   0  0  0  0  0  0  0  0  0  0  0  0
   10.8732   54.6818   94.3638 N   0  0  0  0  0  0  0  0  0  0  0  0
    9.9841   54.2791   94.2351 H   0  0  0  0  0  0  0  0  0  0  0  0
    8.9290   55.2986   96.6025 C   0  0  0  0  0  0  0  0  0  0  0  0
    9.5076   56.6089   97.1031 C   0  0  0  0  0  0  0  0  0  0  0  0
    9.5870   56.2666   95.6347 C   0  0  0  0  0  0  0  0  0  0  0  0
   12.2615   52.6276   94.4621 C   0  0  0  0  0  0  0  0  0  0  0  0
   13.4238   52.7574   95.4567 C   0  0  0  0  0  0  0  0  0  0  0  0
   12.6223   51.5396   93.4385 C   0  0  0  0  0  0  0  0  0  0  0  0
   11.0365   52.1314   95.2823 C   0  0  0  0  0  0  0  0  0  0  0  0
 24 23  2  0  0  0
 24 25  1  0  0  0
 23 22  1  0  0  0
 26 25  1  0  0  0
 25 21  2  0  0  0
 22 21  1  0  0  0
 21 20  1  0  0  0
 20 19  2  0  0  0
 20 17  1  0  0  0
 19 18  1  0  0  0
 17 16  2  0  0  0
 18 15  2  0  0  0
 16 15  1  0  0  0
 15 14  1  0  0  0
 14 12  1  0  0  0
 12 10  1  0  0  0
  7  8  1  0  0  0
  7  5  1  0  0  0
 10 11  2  0  0  0
 10  8  1  0  0  0
  8  3  1  0  0  0
  5  6  1  0  0  0
  5  4  1  0  0  0
  3  4  1  0  0  0
  3  1  1  0  0  0
  2  1  2  0  0  0
  1 27  1  0  0  0
 37 35  1  0  0  0
 27 35  1  0  0  0
 27 30  1  0  0  0
 38 35  1  0  0  0
 35 36  1  0  0  0
 30 28  1  0  0  0
 28 29  2  0  0  0
 28 34  1  0  0  0
 34 33  1  0  0  0
 34 32  1  0  0  0
 33 32  1  0  0  0
 30 31  1  0  0  0
  6  9  1  0  0  0
 12 13  1  0  0  0
M  END
> <minimizedAffinity>
-7.89013

$$$$
5NVW_9BW_C_301


 38 41  0  0  0  0  0  0  0  0999 V2000
   10.5201   50.7431   83.4384 C   0  0  0  0  0  0  0  0  0  0  0  0
   10.8879   51.4103   84.3889 O   0  0  0  0  0  0  0  0  0  0  0  0
    9.3459   50.9855   82.8082 N   0  0  0  0  0  0  0  0  0  0  0  0
    8.7157   50.3369   81.6085 C   0  0  0  0  0  0  0  0  0  0  0  0
    7.7686   51.4058   81.0526 C   0  0  0  0  0  0  0  0  0  0  0  0
    8.4685   52.3378   80.2092 O   0  0  0  0  0  0  0  0  0  0  0  0
    7.2791   52.1144   82.2824 C   0  0  0  0  0  0  0  0  0  0  0  0
    8.4499   52.0974   83.2782 C   0  0  0  0  0  0  0  0  0  0  0  0
    9.1897   52.7492   80.7108 H   0  0  0  0  0  0  0  0  0  0  0  0
    7.9195   51.9358   84.5763 C   0  0  0  0  0  0  0  0  0  0  0  0
    6.9643   51.2003   84.7808 O   0  0  0  0  0  0  0  0  0  0  0  0
    8.4743   52.7033   85.5354 N   0  0  0  0  0  0  0  0  0  0  0  0
    9.2374   53.2751   85.2904 H   0  0  0  0  0  0  0  0  0  0  0  0
    8.0008   52.7334   86.9320 C   0  0  0  0  0  0  0  0  0  0  0  0
    9.0735   52.8841   87.8583 C   0  0  0  0  0  0  0  0  0  0  0  0
   10.2906   52.2119   87.7191 C   0  0  0  0  0  0  0  0  0  0  0  0
   11.3260   52.3805   88.6455 C   0  0  0  0  0  0  0  0  0  0  0  0
    8.9321   53.7258   88.9579 C   0  0  0  0  0  0  0  0  0  0  0  0
    9.9709   53.8847   89.8850 C   0  0  0  0  0  0  0  0  0  0  0  0
   11.1881   53.2076   89.7463 C   0  0  0  0  0  0  0  0  0  0  0  0
   12.1991   53.3399   90.6383 C   0  0  0  0  0  0  0  0  0  0  0  0
   12.3144   52.6139   92.1711 S   0  0  0  0  0  0  0  0  0  0  0  0
   13.7943   53.2635   92.5621 C   0  0  0  0  0  0  0  0  0  0  0  0
   14.1889   54.0280   91.5352 N   0  0  0  0  0  0  0  0  0  0  0  0
   13.3215   54.0777   90.4955 C   0  0  0  0  0  0  0  0  0  0  0  0
   13.6719   54.9190   89.2502 C   0  0  0  0  0  0  0  0  0  0  0  0
   11.4539   49.6175   82.9143 C   0  0  0  0  0  0  0  0  0  0  0  0
   13.6889   50.2868   82.0577 C   0  0  0  0  0  0  0  0  0  0  0  0
   13.5094   49.9365   80.8930 O   0  0  0  0  0  0  0  0  0  0  0  0
   12.8126   50.1543   83.0518 N   0  0  0  0  0  0  0  0  0  0  0  0
   13.0990   50.4389   83.9497 H   0  0  0  0  0  0  0  0  0  0  0  0
   15.5911   51.9760   81.6614 C   0  0  0  0  0  0  0  0  0  0  0  0
   15.1036   52.2275   83.0761 C   0  0  0  0  0  0  0  0  0  0  0  0
   15.0534   50.8317   82.5029 C   0  0  0  0  0  0  0  0  0  0  0  0
   11.3250   48.2805   83.7097 C   0  0  0  0  0  0  0  0  0  0  0  0
   12.3780   48.2394   84.8262 C   0  0  0  0  0  0  0  0  0  0  0  0
   11.5521   47.0718   82.7883 C   0  0  0  0  0  0  0  0  0  0  0  0
    9.9439   48.1056   84.4036 C   0  0  0  0  0  0  0  0  0  0  0  0
 24 23  2  0  0  0
 24 25  1  0  0  0
 23 22  1  0  0  0
 26 25  1  0  0  0
 25 21  2  0  0  0
 22 21  1  0  0  0
 21 20  1  0  0  0
 20 19  2  0  0  0
 20 17  1  0  0  0
 19 18  1  0  0  0
 17 16  2  0  0  0
 18 15  2  0  0  0
 16 15  1  0  0  0
 15 14  1  0  0  0
 14 12  1  0  0  0
 12 10  1  0  0  0
  7  8  1  0  0  0
  7  5  1  0  0  0
 10 11  2  0  0  0
 10  8  1  0  0  0
  8  3  1  0  0  0
  5  6  1  0  0  0
  5  4  1  0  0  0
  3  4  1  0  0  0
  3  1  1  0  0  0
  2  1  2  0  0  0
  1 27  1  0  0  0
 37 35  1  0  0  0
 27 35  1  0  0  0
 27 30  1  0  0  0
 38 35  1  0  0  0
 35 36  1  0  0  0
 30 28  1  0  0  0
 28 29  2  0  0  0
 28 34  1  0  0  0
 34 33  1  0  0  0
 34 32  1  0  0  0
 33 32  1  0  0  0
 30 31  1  0  0  0
  6  9  1  0  0  0
 12 13  1  0  0  0
M  END
> <minimizedAffinity>
-7.30191

$$$$
5NVW_9BW_C_301


 38 41  0  0  0  0  0  0  0  0999 V2000
   10.6492   53.4020   92.0913 C   0  0  0  0  0  0  0  0  0  0  0  0
    9.5322   53.6119   91.6532 O   0  0  0  0  0  0  0  0  0  0  0  0
   11.7567   53.5612   91.3278 N   0  0  0  0  0  0  0  0  0  0  0  0
   13.2146   53.4087   91.6571 C   0  0  0  0  0  0  0  0  0  0  0  0
   13.9308   54.2853   90.6241 C   0  0  0  0  0  0  0  0  0  0  0  0
   13.9587   55.6633   91.0361 O   0  0  0  0  0  0  0  0  0  0  0  0
   13.0782   54.1477   89.3960 C   0  0  0  0  0  0  0  0  0  0  0  0
   11.6320   54.0012   89.8957 C   0  0  0  0  0  0  0  0  0  0  0  0
   13.0518   55.9766   91.1786 H   0  0  0  0  0  0  0  0  0  0  0  0
   10.9629   53.0965   89.0435 C   0  0  0  0  0  0  0  0  0  0  0  0
    9.7776   53.2381   88.7783 O   0  0  0  0  0  0  0  0  0  0  0  0
   11.6881   52.0399   88.6257 N   0  0  0  0  0  0  0  0  0  0  0  0
   12.6362   51.9937   88.8869 H   0  0  0  0  0  0  0  0  0  0  0  0
   11.1389   50.9490   87.7987 C   0  0  0  0  0  0  0  0  0  0  0  0
   11.7153   50.9223   86.4955 C   0  0  0  0  0  0  0  0  0  0  0  0
   12.0356   52.0842   85.7883 C   0  0  0  0  0  0  0  0  0  0  0  0
   12.6012   52.0259   84.5095 C   0  0  0  0  0  0  0  0  0  0  0  0
   11.9788   49.7048   85.8744 C   0  0  0  0  0  0  0  0  0  0  0  0
   12.5393   49.6543   84.5910 C   0  0  0  0  0  0  0  0  0  0  0  0
   12.8560   50.8191   83.8823 C   0  0  0  0  0  0  0  0  0  0  0  0
   13.3876   50.7899   82.6365 C   0  0  0  0  0  0  0  0  0  0  0  0
   14.9980   51.1182   82.2021 S   0  0  0  0  0  0  0  0  0  0  0  0
   14.7977   50.8527   80.5729 C   0  0  0  0  0  0  0  0  0  0  0  0
   13.5156   50.5231   80.3673 N   0  0  0  0  0  0  0  0  0  0  0  0
   12.7479   50.4973   81.4834 C   0  0  0  0  0  0  0  0  0  0  0  0
   11.2554   50.1211   81.3733 C   0  0  0  0  0  0  0  0  0  0  0  0
   10.7977   52.9872   93.5811 C   0  0  0  0  0  0  0  0  0  0  0  0
   10.6769   55.1767   94.7509 C   0  0  0  0  0  0  0  0  0  0  0  0
   11.8565   55.4883   94.5990 O   0  0  0  0  0  0  0  0  0  0  0  0
   10.1152   54.0412   94.3402 N   0  0  0  0  0  0  0  0  0  0  0  0
    9.1671   53.8976   94.5636 H   0  0  0  0  0  0  0  0  0  0  0  0
   10.1748   56.3226   97.0012 C   0  0  0  0  0  0  0  0  0  0  0  0
   10.2376   57.4382   95.9747 C   0  0  0  0  0  0  0  0  0  0  0  0
    9.7364   56.0731   95.5686 C   0  0  0  0  0  0  0  0  0  0  0  0
   10.1639   51.5985   93.9072 C   0  0  0  0  0  0  0  0  0  0  0  0
   10.3542   50.6503   92.7148 C   0  0  0  0  0  0  0  0  0  0  0  0
    8.6574   51.7350   94.1786 C   0  0  0  0  0  0  0  0  0  0  0  0
   10.8135   50.8959   95.1335 C   0  0  0  0  0  0  0  0  0  0  0  0
 24 23  2  0  0  0
 24 25  1  0  0  0
 23 22  1  0  0  0
 26 25  1  0  0  0
 25 21  2  0  0  0
 22 21  1  0  0  0
 21 20  1  0  0  0
 20 19  2  0  0  0
 20 17  1  0  0  0
 19 18  1  0  0  0
 17 16  2  0  0  0
 18 15  2  0  0  0
 16 15  1  0  0  0
 15 14  1  0  0  0
 14 12  1  0  0  0
 12 10  1  0  0  0
  7  8  1  0  0  0
  7  5  1  0  0  0
 10 11  2  0  0  0
 10  8  1  0  0  0
  8  3  1  0  0  0
  5  6  1  0  0  0
  5  4  1  0  0  0
  3  4  1  0  0  0
  3  1  1  0  0  0
  2  1  2  0  0  0
  1 27  1  0  0  0
 37 35  1  0  0  0
 27 35  1  0  0  0
 27 30  1  0  0  0
 38 35  1  0  0  0
 35 36  1  0  0  0
 30 28  1  0  0  0
 28 29  2  0  0  0
 28 34  1  0  0  0
 34 33  1  0  0  0
 34 32  1  0  0  0
 33 32  1  0  0  0
 30 31  1  0  0  0
  6  9  1  0  0  0
 12 13  1  0  0  0
M  END
> <minimizedAffinity>
-7.19731

$$$$
5NVW_9BW_C_301


 38 41  0  0  0  0  0  0  0  0999 V2000
   10.7719   51.2218   85.7769 C   0  0  0  0  0  0  0  0  0  0  0  0
   11.4565   52.2169   85.6199 O   0  0  0  0  0  0  0  0  0  0  0  0
   10.0413   51.0284   86.9010 N   0  0  0  0  0  0  0  0  0  0  0  0
    9.1036   49.9216   87.2922 C   0  0  0  0  0  0  0  0  0  0  0  0
    8.1738   50.5607   88.3292 C   0  0  0  0  0  0  0  0  0  0  0  0
    7.0990   51.2782   87.6970 O   0  0  0  0  0  0  0  0  0  0  0  0
    9.0657   51.5295   89.0503 C   0  0  0  0  0  0  0  0  0  0  0  0
   10.0633   52.0504   88.0033 C   0  0  0  0  0  0  0  0  0  0  0  0
    7.4654   51.9541   87.1056 H   0  0  0  0  0  0  0  0  0  0  0  0
   11.3123   52.2265   88.6368 C   0  0  0  0  0  0  0  0  0  0  0  0
   12.0524   51.2762   88.8482 O   0  0  0  0  0  0  0  0  0  0  0  0
   11.5825   53.4768   89.0616 N   0  0  0  0  0  0  0  0  0  0  0  0
   10.9328   54.1880   88.8580 H   0  0  0  0  0  0  0  0  0  0  0  0
   12.7981   53.8379   89.8148 C   0  0  0  0  0  0  0  0  0  0  0  0
   12.5471   53.9555   91.2128 C   0  0  0  0  0  0  0  0  0  0  0  0
   11.3037   53.6695   91.7828 C   0  0  0  0  0  0  0  0  0  0  0  0
   11.0876   53.7943   93.1599 C   0  0  0  0  0  0  0  0  0  0  0  0
   13.5608   54.3728   92.0706 C   0  0  0  0  0  0  0  0  0  0  0  0
   13.3352   54.5017   93.4477 C   0  0  0  0  0  0  0  0  0  0  0  0
   12.0880   54.2185   94.0166 C   0  0  0  0  0  0  0  0  0  0  0  0
   11.8482   54.3483   95.3436 C   0  0  0  0  0  0  0  0  0  0  0  0
   11.9162   53.1243   96.5214 S   0  0  0  0  0  0  0  0  0  0  0  0
   11.5202   54.0982   97.8096 C   0  0  0  0  0  0  0  0  0  0  0  0
   11.3343   55.3395   97.3413 N   0  0  0  0  0  0  0  0  0  0  0  0
   11.5030   55.4750   96.0037 C   0  0  0  0  0  0  0  0  0  0  0  0
   11.3249   56.8614   95.3497 C   0  0  0  0  0  0  0  0  0  0  0  0
   10.7056   50.1763   84.6296 C   0  0  0  0  0  0  0  0  0  0  0  0
    9.7809   50.7663   82.3994 C   0  0  0  0  0  0  0  0  0  0  0  0
    8.9492   49.8626   82.3428 O   0  0  0  0  0  0  0  0  0  0  0  0
   10.6414   50.9678   83.3957 N   0  0  0  0  0  0  0  0  0  0  0  0
   11.2851   51.7060   83.2965 H   0  0  0  0  0  0  0  0  0  0  0  0
   10.9326   51.2156   80.1410 C   0  0  0  0  0  0  0  0  0  0  0  0
    9.4421   51.2845   79.8653 C   0  0  0  0  0  0  0  0  0  0  0  0
    9.9767   51.7165   81.2096 C   0  0  0  0  0  0  0  0  0  0  0  0
   11.9383   49.2196   84.5867 C   0  0  0  0  0  0  0  0  0  0  0  0
   13.0929   49.8971   83.8352 C   0  0  0  0  0  0  0  0  0  0  0  0
   11.5907   47.9119   83.8582 C   0  0  0  0  0  0  0  0  0  0  0  0
   12.4868   48.8558   85.9961 C   0  0  0  0  0  0  0  0  0  0  0  0
 24 23  2  0  0  0
 24 25  1  0  0  0
 23 22  1  0  0  0
 26 25  1  0  0  0
 25 21  2  0  0  0
 22 21  1  0  0  0
 21 20  1  0  0  0
 20 19  2  0  0  0
 20 17  1  0  0  0
 19 18  1  0  0  0
 17 16  2  0  0  0
 18 15  2  0  0  0
 16 15  1  0  0  0
 15 14  1  0  0  0
 14 12  1  0  0  0
 12 10  1  0  0  0
  7  8  1  0  0  0
  7  5  1  0  0  0
 10 11  2  0  0  0
 10  8  1  0  0  0
  8  3  1  0  0  0
  5  6  1  0  0  0
  5  4  1  0  0  0
  3  4  1  0  0  0
  3  1  1  0  0  0
  2  1  2  0  0  0
  1 27  1  0  0  0
 37 35  1  0  0  0
 27 35  1  0  0  0
 27 30  1  0  0  0
 38 35  1  0  0  0
 35 36  1  0  0  0
 30 28  1  0  0  0
 28 29  2  0  0  0
 28 34  1  0  0  0
 34 33  1  0  0  0
 34 32  1  0  0  0
 33 32  1  0  0  0
 30 31  1  0  0  0
  6  9  1  0  0  0
 12 13  1  0  0  0
M  END
> <minimizedAffinity>
-6.82453

$$$$
5NVW_9BW_C_301


 38 41  0  0  0  0  0  0  0  0999 V2000
   12.7347   52.6452   92.9803 C   0  0  0  0  0  0  0  0  0  0  0  0
   13.6793   52.6893   92.2126 O   0  0  0  0  0  0  0  0  0  0  0  0
   11.5012   52.2615   92.5727 N   0  0  0  0  0  0  0  0  0  0  0  0
   10.2177   52.0892   93.3343 C   0  0  0  0  0  0  0  0  0  0  0  0
    9.4089   51.0943   92.4950 C   0  0  0  0  0  0  0  0  0  0  0  0
    9.7882   49.7368   92.7828 O   0  0  0  0  0  0  0  0  0  0  0  0
    9.7932   51.4324   91.0836 C   0  0  0  0  0  0  0  0  0  0  0  0
   11.2623   51.8812   91.1380 C   0  0  0  0  0  0  0  0  0  0  0  0
   10.7382   49.6253   92.6214 H   0  0  0  0  0  0  0  0  0  0  0  0
   11.4380   52.9225   90.2014 C   0  0  0  0  0  0  0  0  0  0  0  0
   10.6256   53.8318   90.1086 O   0  0  0  0  0  0  0  0  0  0  0  0
   12.4956   52.7952   89.3756 N   0  0  0  0  0  0  0  0  0  0  0  0
   13.1016   52.0310   89.5100 H   0  0  0  0  0  0  0  0  0  0  0  0
   12.7950   53.7383   88.2817 C   0  0  0  0  0  0  0  0  0  0  0  0
   12.7862   53.1006   87.0072 C   0  0  0  0  0  0  0  0  0  0  0  0
   12.0360   51.9516   86.7435 C   0  0  0  0  0  0  0  0  0  0  0  0
   12.0476   51.3478   85.4810 C   0  0  0  0  0  0  0  0  0  0  0  0
   13.5481   53.6180   85.9634 C   0  0  0  0  0  0  0  0  0  0  0  0
   13.5598   53.0043   84.7036 C   0  0  0  0  0  0  0  0  0  0  0  0
   12.8108   51.8511   84.4422 C   0  0  0  0  0  0  0  0  0  0  0  0
   12.8186   51.2377   83.2343 C   0  0  0  0  0  0  0  0  0  0  0  0
   11.4809   50.6037   82.3986 S   0  0  0  0  0  0  0  0  0  0  0  0
   12.3354   50.0782   81.0725 C   0  0  0  0  0  0  0  0  0  0  0  0
   13.6253   50.3803   81.2718 N   0  0  0  0  0  0  0  0  0  0  0  0
   13.8902   51.0007   82.4469 C   0  0  0  0  0  0  0  0  0  0  0  0
   15.3402   51.4072   82.7841 C   0  0  0  0  0  0  0  0  0  0  0  0
   12.9744   52.9949   94.4750 C   0  0  0  0  0  0  0  0  0  0  0  0
   11.7378   55.1249   94.8080 C   0  0  0  0  0  0  0  0  0  0  0  0
   12.6456   55.8766   94.4582 O   0  0  0  0  0  0  0  0  0  0  0  0
   11.8108   53.7966   94.8704 N   0  0  0  0  0  0  0  0  0  0  0  0
   11.0218   53.3145   95.2086 H   0  0  0  0  0  0  0  0  0  0  0  0
   10.4441   56.1465   96.7858 C   0  0  0  0  0  0  0  0  0  0  0  0
   10.3660   57.1700   95.6685 C   0  0  0  0  0  0  0  0  0  0  0  0
   10.4148   55.6983   95.3350 C   0  0  0  0  0  0  0  0  0  0  0  0
   13.0966   51.7406   95.3962 C   0  0  0  0  0  0  0  0  0  0  0  0
   11.8475   51.6253   96.2813 C   0  0  0  0  0  0  0  0  0  0  0  0
   14.3267   51.8514   96.3106 C   0  0  0  0  0  0  0  0  0  0  0  0
   13.2000   50.4035   94.6082 C   0  0  0  0  0  0  0  0  0  0  0  0
 24 23  2  0  0  0
 24 25  1  0  0  0
 23 22  1  0  0  0
 26 25  1  0  0  0
 25 21  2  0  0  0
 22 21  1  0  0  0
 21 20  1  0  0  0
 20 19  2  0  0  0
 20 17  1  0  0  0
 19 18  1  0  0  0
 17 16  2  0  0  0
 18 15  2  0  0  0
 16 15  1  0  0  0
 15 14  1  0  0  0
 14 12  1  0  0  0
 12 10  1  0  0  0
  7  8  1  0  0  0
  7  5  1  0  0  0
 10 11  2  0  0  0
 10  8  1  0  0  0
  8  3  1  0  0  0
  5  6  1  0  0  0
  5  4  1  0  0  0
  3  4  1  0  0  0
  3  1  1  0  0  0
  2  1  2  0  0  0
  1 27  1  0  0  0
 37 35  1  0  0  0
 27 35  1  0  0  0
 27 30  1  0  0  0
 38 35  1  0  0  0
 35 36  1  0  0  0
 30 28  1  0  0  0
 28 29  2  0  0  0
 28 34  1  0  0  0
 34 33  1  0  0  0
 34 32  1  0  0  0
 33 32  1  0  0  0
 30 31  1  0  0  0
  6  9  1  0  0  0
 12 13  1  0  0  0
M  END
> <minimizedAffinity>
-6.50576

$$$$
5NVW_9BW_C_301


 38 41  0  0  0  0  0  0  0  0999 V2000
   11.9580   52.3664   93.7233 C   0  0  0  0  0  0  0  0  0  0  0  0
   11.0056   52.2394   92.9747 O   0  0  0  0  0  0  0  0  0  0  0  0
   12.5965   51.2960   94.2537 N   0  0  0  0  0  0  0  0  0  0  0  0
   13.7999   51.2064   95.1486 C   0  0  0  0  0  0  0  0  0  0  0  0
   14.3631   49.8052   94.8884 C   0  0  0  0  0  0  0  0  0  0  0  0
   15.2025   49.7870   93.7201 O   0  0  0  0  0  0  0  0  0  0  0  0
   13.1373   48.9758   94.6363 C   0  0  0  0  0  0  0  0  0  0  0  0
   12.1335   49.9024   93.9319 C   0  0  0  0  0  0  0  0  0  0  0  0
   14.6963   50.0985   92.9535 H   0  0  0  0  0  0  0  0  0  0  0  0
   10.8389   49.5766   94.3906 C   0  0  0  0  0  0  0  0  0  0  0  0
   10.1154   48.8226   93.7556 O   0  0  0  0  0  0  0  0  0  0  0  0
   10.4359   50.2138   95.5079 N   0  0  0  0  0  0  0  0  0  0  0  0
   11.0753   50.8109   95.9594 H   0  0  0  0  0  0  0  0  0  0  0  0
    9.0893   50.0653   96.0913 C   0  0  0  0  0  0  0  0  0  0  0  0
    8.5495   51.3136   96.5174 C   0  0  0  0  0  0  0  0  0  0  0  0
    8.8734   51.8959   97.7456 C   0  0  0  0  0  0  0  0  0  0  0  0
    8.3269   53.1236   98.1365 C   0  0  0  0  0  0  0  0  0  0  0  0
    7.6583   52.0032   95.7001 C   0  0  0  0  0  0  0  0  0  0  0  0
    7.1101   53.2290   96.1010 C   0  0  0  0  0  0  0  0  0  0  0  0
    7.4326   53.8091   97.3334 C   0  0  0  0  0  0  0  0  0  0  0  0
    6.9039   54.9874   97.7425 C   0  0  0  0  0  0  0  0  0  0  0  0
    5.3009   55.2770   98.2290 S   0  0  0  0  0  0  0  0  0  0  0  0
    5.5076   56.8932   98.5609 C   0  0  0  0  0  0  0  0  0  0  0  0
    6.7837   57.2044   98.2975 N   0  0  0  0  0  0  0  0  0  0  0  0
    7.5396   56.1747   97.8454 C   0  0  0  0  0  0  0  0  0  0  0  0
    9.0291   56.4095   97.5171 C   0  0  0  0  0  0  0  0  0  0  0  0
   12.4748   53.7985   94.0325 C   0  0  0  0  0  0  0  0  0  0  0  0
   13.4510   54.1962   91.7818 C   0  0  0  0  0  0  0  0  0  0  0  0
   14.3724   53.3878   91.8777 O   0  0  0  0  0  0  0  0  0  0  0  0
   12.5533   54.4656   92.7279 N   0  0  0  0  0  0  0  0  0  0  0  0
   11.8901   55.1677   92.5370 H   0  0  0  0  0  0  0  0  0  0  0  0
   14.6458   55.5213   89.9256 C   0  0  0  0  0  0  0  0  0  0  0  0
   13.7659   54.5122   89.2116 C   0  0  0  0  0  0  0  0  0  0  0  0
   13.3255   55.0858   90.5370 C   0  0  0  0  0  0  0  0  0  0  0  0
   11.5410   54.6047   94.9890 C   0  0  0  0  0  0  0  0  0  0  0  0
   11.9711   56.0783   95.0110 C   0  0  0  0  0  0  0  0  0  0  0  0
   11.6227   54.0574   96.4227 C   0  0  0  0  0  0  0  0  0  0  0  0
   10.0484   54.5906   94.5514 C   0  0  0  0  0  0  0  0  0  0  0  0
 24 23  2  0  0  0
 24 25  1  0  0  0
 23 22  1  0  0  0
 26 25  1  0  0  0
 25 21  2  0  0  0
 22 21  1  0  0  0
 21 20  1  0  0  0
 20 19  2  0  0  0
 20 17  1  0  0  0
 19 18  1  0  0  0
 17 16  2  0  0  0
 18 15  2  0  0  0
 16 15  1  0  0  0
 15 14  1  0  0  0
 14 12  1  0  0  0
 12 10  1  0  0  0
  7  8  1  0  0  0
  7  5  1  0  0  0
 10 11  2  0  0  0
 10  8  1  0  0  0
  8  3  1  0  0  0
  5  6  1  0  0  0
  5  4  1  0  0  0
  3  4  1  0  0  0
  3  1  1  0  0  0
  2  1  2  0  0  0
  1 27  1  0  0  0
 37 35  1  0  0  0
 27 35  1  0  0  0
 27 30  1  0  0  0
 38 35  1  0  0  0
 35 36  1  0  0  0
 30 28  1  0  0  0
 28 29  2  0  0  0
 28 34  1  0  0  0
 34 33  1  0  0  0
 34 32  1  0  0  0
 33 32  1  0  0  0
 30 31  1  0  0  0
  6  9  1  0  0  0
 12 13  1  0  0  0
M  END
> <minimizedAffinity>
-6.50269

$$$$
5NVW_9BW_C_301


 38 41  0  0  0  0  0  0  0  0999 V2000
   11.2493   52.6382   90.6618 C   0  0  0  0  0  0  0  0  0  0  0  0
   11.2357   51.6077   91.3110 O   0  0  0  0  0  0  0  0  0  0  0  0
   12.2177   53.5713   90.8244 N   0  0  0  0  0  0  0  0  0  0  0  0
   12.4630   54.8746   90.1185 C   0  0  0  0  0  0  0  0  0  0  0  0
   13.9623   55.1310   90.3051 C   0  0  0  0  0  0  0  0  0  0  0  0
   14.7404   54.4260   89.3216 O   0  0  0  0  0  0  0  0  0  0  0  0
   14.2478   54.5669   91.6668 C   0  0  0  0  0  0  0  0  0  0  0  0
   13.3133   53.3577   91.8314 C   0  0  0  0  0  0  0  0  0  0  0  0
   14.5477   53.4769   89.3766 H   0  0  0  0  0  0  0  0  0  0  0  0
   12.8927   53.3083   93.1779 C   0  0  0  0  0  0  0  0  0  0  0  0
   12.5297   54.3186   93.7634 O   0  0  0  0  0  0  0  0  0  0  0  0
   13.0035   52.1086   93.7825 N   0  0  0  0  0  0  0  0  0  0  0  0
   13.3096   51.3430   93.2445 H   0  0  0  0  0  0  0  0  0  0  0  0
   12.6913   51.8802   95.2058 C   0  0  0  0  0  0  0  0  0  0  0  0
   13.7981   51.3302   95.9155 C   0  0  0  0  0  0  0  0  0  0  0  0
   14.7558   50.5155   95.3059 C   0  0  0  0  0  0  0  0  0  0  0  0
   15.8323   49.9901   96.0295 C   0  0  0  0  0  0  0  0  0  0  0  0
   13.9571   51.5950   97.2728 C   0  0  0  0  0  0  0  0  0  0  0  0
   15.0341   51.0600   97.9924 C   0  0  0  0  0  0  0  0  0  0  0  0
   15.9905   50.2409   97.3811 C   0  0  0  0  0  0  0  0  0  0  0  0
   17.0316   49.7057   98.0630 C   0  0  0  0  0  0  0  0  0  0  0  0
   17.4182   48.0572   98.2141 S   0  0  0  0  0  0  0  0  0  0  0  0
   18.7744   48.2801   99.1500 C   0  0  0  0  0  0  0  0  0  0  0  0
   18.9233   49.5970   99.3463 N   0  0  0  0  0  0  0  0  0  0  0  0
   17.9746   50.3705   98.7653 C   0  0  0  0  0  0  0  0  0  0  0  0
   18.0464   51.9048   98.9136 C   0  0  0  0  0  0  0  0  0  0  0  0
   10.1478   52.8550   89.5877 C   0  0  0  0  0  0  0  0  0  0  0  0
   11.2081   51.6837   87.6692 C   0  0  0  0  0  0  0  0  0  0  0  0
   12.0044   52.5737   87.3772 O   0  0  0  0  0  0  0  0  0  0  0  0
   10.3068   51.7393   88.6480 N   0  0  0  0  0  0  0  0  0  0  0  0
    9.6992   50.9712   88.7491 H   0  0  0  0  0  0  0  0  0  0  0  0
   11.7898   49.1904   87.3971 C   0  0  0  0  0  0  0  0  0  0  0  0
   10.2761   49.2709   87.3299 C   0  0  0  0  0  0  0  0  0  0  0  0
   11.1117   50.4156   86.8092 C   0  0  0  0  0  0  0  0  0  0  0  0
    8.7003   52.8589   90.1720 C   0  0  0  0  0  0  0  0  0  0  0  0
    8.7223   53.4108   91.6045 C   0  0  0  0  0  0  0  0  0  0  0  0
    8.1231   51.4352   90.2128 C   0  0  0  0  0  0  0  0  0  0  0  0
    7.7139   53.7568   89.3718 C   0  0  0  0  0  0  0  0  0  0  0  0
 24 23  2  0  0  0
 24 25  1  0  0  0
 23 22  1  0  0  0
 26 25  1  0  0  0
 25 21  2  0  0  0
 22 21  1  0  0  0
 21 20  1  0  0  0
 20 19  2  0  0  0
 20 17  1  0  0  0
 19 18  1  0  0  0
 17 16  2  0  0  0
 18 15  2  0  0  0
 16 15  1  0  0  0
 15 14  1  0  0  0
 14 12  1  0  0  0
 12 10  1  0  0  0
  7  8  1  0  0  0
  7  5  1  0  0  0
 10 11  2  0  0  0
 10  8  1  0  0  0
  8  3  1  0  0  0
  5  6  1  0  0  0
  5  4  1  0  0  0
  3  4  1  0  0  0
  3  1  1  0  0  0
  2  1  2  0  0  0
  1 27  1  0  0  0
 37 35  1  0  0  0
 27 35  1  0  0  0
 27 30  1  0  0  0
 38 35  1  0  0  0
 35 36  1  0  0  0
 30 28  1  0  0  0
 28 29  2  0  0  0
 28 34  1  0  0  0
 34 33  1  0  0  0
 34 32  1  0  0  0
 33 32  1  0  0  0
 30 31  1  0  0  0
  6  9  1  0  0  0
 12 13  1  0  0  0
M  END
> <minimizedAffinity>
-6.43714

$$$$
