5NVW_9BW_C_301
  RCSB PDB12061719143D
Coordinates from PDB:5NVW:C:301 Model:1 without hydrogens
 35 38  0  0  0  0            999 V2000
    9.9120   56.5050   96.8240   C 0  0  0  0  0  0  0  0  0  0  0  0
    9.4450   57.3180   95.6310   C 0  0  0  0  0  0  0  0  0  0  0  0
    9.7950   55.8600   95.4540   C 0  0  0  0  0  0  0  0  0  0  0  0
   11.1330   55.5190   94.7830   C 0  0  0  0  0  0  0  0  0  0  0  0
   12.1080   56.2530   94.9320   O 0  0  0  0  0  0  0  0  0  0  0  0
   11.1320   54.3500   94.1450   N 0  0  0  0  0  0  0  0  0  0  0  0
   12.2870   53.7620   93.4570   C 0  0  0  0  0  0  0  0  0  0  0  0
   12.5290   52.3070   93.9680   C 0  0  0  0  0  0  0  0  0  0  0  0
   12.9570   52.3410   95.4420   C 0  0  0  0  0  0  0  0  0  0  0  0
   13.6410   51.6210   93.1590   C 0  0  0  0  0  0  0  0  0  0  0  0
   11.2600   51.4100   93.9010   C 0  0  0  0  0  0  0  0  0  0  0  0
   11.9380   53.8380   91.9450   C 0  0  0  0  0  0  0  0  0  0  0  0
   10.7840   53.6510   91.6030   O 0  0  0  0  0  0  0  0  0  0  0  0
   12.9060   54.1490   91.0500   N 0  0  0  0  0  0  0  0  0  0  0  0
   14.3630   54.4630   91.2390   C 0  0  0  0  0  0  0  0  0  0  0  0
   14.7350   55.2950   90.0070   C 0  0  0  0  0  0  0  0  0  0  0  0
   14.3900   56.6800   90.1870   O 0  0  0  0  0  0  0  0  0  0  0  0
   13.8870   54.7060   88.9170   C 0  0  0  0  0  0  0  0  0  0  0  0
   12.5760   54.2660   89.5880   C 0  0  0  0  0  0  0  0  0  0  0  0
   12.1460   53.0720   88.9700   C 0  0  0  0  0  0  0  0  0  0  0  0
   12.5850   51.9860   89.3210   O 0  0  0  0  0  0  0  0  0  0  0  0
   11.3030   53.2220   87.9290   N 0  0  0  0  0  0  0  0  0  0  0  0
   10.8110   52.0990   87.1090   C 0  0  0  0  0  0  0  0  0  0  0  0
   11.6290   51.8730   85.9640   C 0  0  0  0  0  0  0  0  0  0  0  0
   12.4700   52.8540   85.4320   C 0  0  0  0  0  0  0  0  0  0  0  0
   13.2620   52.6020   84.3060   C 0  0  0  0  0  0  0  0  0  0  0  0
   11.6090   50.6360   85.3260   C 0  0  0  0  0  0  0  0  0  0  0  0
   12.4000   50.3930   84.1950   C 0  0  0  0  0  0  0  0  0  0  0  0
   13.2390   51.3780   83.6610   C 0  0  0  0  0  0  0  0  0  0  0  0
   14.0020   51.1650   82.5620   C 0  0  0  0  0  0  0  0  0  0  0  0
   15.6380   51.5780   82.3550   S 0  0  0  0  0  0  0  0  0  0  0  0
   15.7760   50.9790   80.8100   C 0  0  0  0  0  0  0  0  0  0  0  0
   14.5850   50.4760   80.4590   N 0  0  0  0  0  0  0  0  0  0  0  0
   13.6200   50.5840   81.4040   C 0  0  0  0  0  0  0  0  0  0  0  0
   12.2080   50.0310   81.1180   C 0  0  0  0  0  0  0  0  0  0  0  0
 33 32  2  0  0  0  0
 33 34  1  0  0  0  0
 32 31  1  0  0  0  0
 35 34  1  0  0  0  0
 34 30  2  0  0  0  0
 31 30  1  0  0  0  0
 30 29  1  0  0  0  0
 29 28  2  0  0  0  0
 29 26  1  0  0  0  0
 28 27  1  0  0  0  0
 26 25  2  0  0  0  0
 27 24  2  0  0  0  0
 25 24  1  0  0  0  0
 24 23  1  0  0  0  0
 23 22  1  0  0  0  0
 22 20  1  0  0  0  0
 18 19  1  0  0  0  0
 18 16  1  0  0  0  0
 20 21  2  0  0  0  0
 20 19  1  0  0  0  0
 19 14  1  0  0  0  0
 16 17  1  0  0  0  0
 16 15  1  0  0  0  0
 14 15  1  0  0  0  0
 14 12  1  0  0  0  0
 13 12  2  0  0  0  0
 12  7  1  0  0  0  0
 10  8  1  0  0  0  0
  7  8  1  0  0  0  0
  7  6  1  0  0  0  0
 11  8  1  0  0  0  0
  8  9  1  0  0  0  0
  6  4  1  0  0  0  0
  4  5  2  0  0  0  0
  4  3  1  0  0  0  0
  3  2  1  0  0  0  0
  3  1  1  0  0  0  0
  2  1  1  0  0  0  0
A    1
CAN
A    2
CAO
A    3
CBE
A    4
CAX
A    5
OAF
A    6
NAU
A    7
CBG
A    8
CBI
A    9
CAD
A   10
CAB
A   11
CAC
A   12
CAY
A   13
OAG
A   14
N
A   15
CD2
A   16
CG
A   17
OD1
A   18
CB
A   19
CA
A   20
C
A   21
O
A   22
NAT
A   23
CAP
A   24
CAZ
A   25
CAI
A   26
CAK
A   27
CAJ
A   28
CAL
A   29
CBB
A   30
CBC
A   31
SAV
A   32
CAM
A   33
NAS
A   34
CBA
A   35
CAA
M  END
>  <InstanceId>
5NVW_9BW_C_301

>  <ChemCompId>
9BW

>  <PdbId>
5NVW

>  <ChainId>
C

>  <ResidueNumber>
301

>  <InsertionCode>


>  <Model>
1

>  <AltIds>


>  <MissingHeavyAtoms>
0

>  <ObservedFormula>
C26 N4 O4 S

>  <Name>
(2~{S},4~{R})-1-[(2~{S})-2-(cyclopropylcarbonylamino)-3,3-dimethyl-butanoyl]-~{N}-[[4-(4-methyl-1,3-thiazol-5-yl)phenyl]methyl]-4-oxidanyl-pyrrolidine-2-carboxamide

>  <SystematicName>
(2~{S},4~{R})-1-[(2~{S})-2-(cyclopropylcarbonylamino)-3,3-dimethyl-butanoyl]-~{N}-[[4-(4-methyl-1,3-thiazol-5-yl)phenyl]methyl]-4-oxidanyl-pyrrolidine-2-carboxamide

>  <Synonyms>


>  <Type>
NON-POLYMER

>  <Formula>
C26 H34 N4 O4 S

>  <MolecularWeight>
498.638

>  <ModifiedDate>
2017-09-15

>  <Parent>


>  <OneLetterCode>


>  <SubcomponentList>


>  <AmbiguousFlag>
N

>  <InChI>
InChI=1S/C26H34N4O4S/c1-15-21(35-14-28-15)17-7-5-16(6-8-17)12-27-24(33)20-11-19(31)13-30(20)25(34)22(26(2,3)4)29-23(32)18-9-10-18/h5-8,14,18-20,22,31H,9-13H2,1-4H3,(H,27,33)(H,29,32)/t19-,20+,22-/m1/s1

>  <InChIKey>
TXHVAXXHWXOMKR-RZUBCFFCSA-N

>  <SMILES>
Cc1c(scn1)c2ccc(cc2)CNC(=O)[C@@H]3C[C@H](CN3C(=O)[C@H](C(C)(C)C)NC(=O)C4CC4)O

$$$$
