1OYQ_T87_A_1


 43 47  0  0  0  0  0  0  0  0999 V2000
   -1.6899    4.7515   23.6489 N   0  0  0  0  0  0  0  0  0  0  0  0
   -2.0663    4.0019   22.5341 C   0  0  0  0  0  0  0  0  0  0  0  0
   -3.3680    3.4626   22.4329 N   0  0  0  0  0  0  0  0  0  0  0  0
   -3.8659    3.9392   23.6460 C   0  0  0  0  0  0  0  0  0  0  0  0
   -2.8660    4.7014   24.3623 C   0  0  0  0  0  0  0  0  0  0  0  0
   -5.1683    3.7637   24.2179 C   0  0  0  0  0  0  0  0  0  0  0  0
   -5.4461    4.3341   25.4700 C   0  0  0  0  0  0  0  0  0  0  0  0
   -4.4688    5.0910   26.1899 C   0  0  0  0  0  0  0  0  0  0  0  0
   -3.1724    5.2769   25.6362 C   0  0  0  0  0  0  0  0  0  0  0  0
   -4.0246    2.6376   21.3716 C   0  0  0  0  0  0  0  0  0  0  0  0
   -6.1911    5.6777   28.2090 C   0  0  0  0  0  0  0  0  0  0  0  0
   -5.5904    6.9348   27.5350 C   0  0  0  0  0  0  0  0  0  0  0  0
   -4.8001    5.6532   27.6148 C   0  0  0  0  0  0  0  0  0  0  0  0
   -3.6775    5.1856   28.5856 C   0  0  0  0  0  0  0  0  0  0  0  0
   -3.5599    3.9098   28.8814 N   0  0  0  0  0  0  0  0  0  0  0  0
   -3.1254    7.1830   30.1517 N   0  0  0  0  0  0  0  0  0  0  0  0
   -2.6920    6.2417   29.1807 C   0  0  0  0  0  0  0  0  0  0  0  0
   -1.3438    6.2722   28.7530 C   0  0  0  0  0  0  0  0  0  0  0  0
   -0.4493    7.2274   29.2919 C   0  0  0  0  0  0  0  0  0  0  0  0
   -0.8848    8.1664   30.2612 C   0  0  0  0  0  0  0  0  0  0  0  0
   -2.2243    8.1465   30.6941 C   0  0  0  0  0  0  0  0  0  0  0  0
   -4.5116    2.9261   28.2954 O   0  0  0  0  0  0  0  0  0  0  0  0
   -3.8868    1.6485   28.1497 C   0  0  0  0  0  0  0  0  0  0  0  0
   -3.3068    1.5317   26.7292 C   0  0  0  0  0  0  0  0  0  0  0  0
   -3.9893    1.0050   25.8379 O   0  0  0  0  0  0  0  0  0  0  0  0
   -2.0396    2.0160   26.4753 O   0  0  0  0  0  0  0  0  0  0  0  0
   -0.2056    2.8726   27.8354 C   0  0  0  0  0  0  0  0  0  0  0  0
   -1.1094    1.6633   27.5196 C   0  0  0  0  0  0  0  0  0  0  0  0
   -1.0146    3.7896   21.4371 C   0  0  0  0  0  0  0  0  0  0  0  0
   -1.2181    4.5603   20.1875 N   0  0  0  0  0  0  0  0  0  0  0  0
   -0.9114    4.1255   19.3592 H   0  0  0  0  0  0  0  0  0  0  0  0
   -3.0529    8.4219   19.7406 C   0  0  0  0  0  0  0  0  0  0  0  0
   -1.6366    8.2625   19.6252 C   0  0  0  0  0  0  0  0  0  0  0  0
   -1.0282    7.0105   19.7666 C   0  0  0  0  0  0  0  0  0  0  0  0
   -1.8074    5.8641   20.0320 C   0  0  0  0  0  0  0  0  0  0  0  0
   -3.2029    5.9794   20.1520 C   0  0  0  0  0  0  0  0  0  0  0  0
   -3.8194    7.2329   20.0097 C   0  0  0  0  0  0  0  0  0  0  0  0
   -4.8592    9.9875   20.0707 N   0  0  0  0  0  0  0  0  0  0  0  0
   -3.1190   10.6984   18.9638 N   0  0  0  0  0  0  0  0  0  0  0  0
   -3.6581    9.6772   19.6019 C   0  0  0  0  0  0  0  0  0  0  0  0
   -5.2216   10.8928   19.9354 H   0  0  0  0  0  0  0  0  0  0  0  0
   -3.6031   11.5537   18.9058 H   0  0  0  0  0  0  0  0  0  0  0  0
   -2.2327   10.6050   18.5455 H   0  0  0  0  0  0  0  0  0  0  0  0
 38 40  2  0  0  0
 39 40  1  0  0  0
 40 32  1  0  0  0
 32 33  2  0  0  0
 32 37  1  0  0  0
 33 34  1  0  0  0
 34 35  2  0  0  0
 35 36  1  0  0  0
 35 30  1  0  0  0
 36 37  2  0  0  0
 30 29  1  0  0  0
 29  2  1  0  0  0
  1  2  2  0  0  0
  1  5  1  0  0  0
  2  3  1  0  0  0
  3  4  1  0  0  0
  3 10  1  0  0  0
  4  5  2  0  0  0
  4  6  1  0  0  0
  5  9  1  0  0  0
  6  7  2  0  0  0
  7  8  1  0  0  0
  8  9  2  0  0  0
  8 13  1  0  0  0
 11 12  1  0  0  0
 11 13  1  0  0  0
 12 13  1  0  0  0
 13 14  1  0  0  0
 14 15  2  0  0  0
 14 17  1  0  0  0
 15 22  1  0  0  0
 16 17  2  0  0  0
 16 21  1  0  0  0
 17 18  1  0  0  0
 18 19  2  0  0  0
 19 20  1  0  0  0
 20 21  2  0  0  0
 22 23  1  0  0  0
 23 24  1  0  0  0
 24 25  2  0  0  0
 24 26  1  0  0  0
 26 28  1  0  0  0
 27 28  1  0  0  0
 38 41  1  0  0  0
 39 42  1  0  0  0
 39 43  1  0  0  0
 30 31  1  0  0  0
M  END
> <minimizedAffinity>
-8.44904

$$$$
1OYQ_T87_A_1


 43 47  0  0  0  0  0  0  0  0999 V2000
   -1.9454    4.7163   23.9200 N   0  0  0  0  0  0  0  0  0  0  0  0
   -1.3237    3.6448   23.2784 C   0  0  0  0  0  0  0  0  0  0  0  0
   -0.6128    2.6741   24.0187 N   0  0  0  0  0  0  0  0  0  0  0  0
   -0.8194    3.2148   25.2883 C   0  0  0  0  0  0  0  0  0  0  0  0
   -1.6090    4.4256   25.2226 C   0  0  0  0  0  0  0  0  0  0  0  0
   -0.3623    2.7341   26.5587 C   0  0  0  0  0  0  0  0  0  0  0  0
   -0.6884    3.4548   27.7183 C   0  0  0  0  0  0  0  0  0  0  0  0
   -1.4687    4.6526   27.6700 C   0  0  0  0  0  0  0  0  0  0  0  0
   -1.9322    5.1425   26.4182 C   0  0  0  0  0  0  0  0  0  0  0  0
    0.1336    1.4485   23.5958 C   0  0  0  0  0  0  0  0  0  0  0  0
   -1.2938    6.8853   29.2099 C   0  0  0  0  0  0  0  0  0  0  0  0
   -0.4915    5.6892   29.7765 C   0  0  0  0  0  0  0  0  0  0  0  0
   -1.7525    5.4619   28.9817 C   0  0  0  0  0  0  0  0  0  0  0  0
   -3.2152    5.1631   29.4203 C   0  0  0  0  0  0  0  0  0  0  0  0
   -3.4679    4.1238   30.1853 N   0  0  0  0  0  0  0  0  0  0  0  0
   -4.8019    7.1873   29.7830 N   0  0  0  0  0  0  0  0  0  0  0  0
   -4.3625    6.1177   28.9586 C   0  0  0  0  0  0  0  0  0  0  0  0
   -4.9826    5.9238   27.7020 C   0  0  0  0  0  0  0  0  0  0  0  0
   -6.0212    6.7883   27.2816 C   0  0  0  0  0  0  0  0  0  0  0  0
   -6.4584    7.8555   28.1069 C   0  0  0  0  0  0  0  0  0  0  0  0
   -5.8495    8.0581   29.3600 C   0  0  0  0  0  0  0  0  0  0  0  0
   -2.3531    3.2342   30.6127 O   0  0  0  0  0  0  0  0  0  0  0  0
   -2.8466    1.9336   30.9421 C   0  0  0  0  0  0  0  0  0  0  0  0
   -2.7893    1.0420   29.6891 C   0  0  0  0  0  0  0  0  0  0  0  0
   -1.7373    0.4439   29.4192 O   0  0  0  0  0  0  0  0  0  0  0  0
   -3.9097    0.9253   28.8916 O   0  0  0  0  0  0  0  0  0  0  0  0
   -4.3232    2.3479   26.9545 C   0  0  0  0  0  0  0  0  0  0  0  0
   -3.5963    1.0993   27.4946 C   0  0  0  0  0  0  0  0  0  0  0  0
   -1.4425    3.5703   21.7504 C   0  0  0  0  0  0  0  0  0  0  0  0
   -0.8881    4.7227   21.0010 N   0  0  0  0  0  0  0  0  0  0  0  0
    0.0653    4.6623   20.7629 H   0  0  0  0  0  0  0  0  0  0  0  0
   -2.9854    8.2691   19.7756 C   0  0  0  0  0  0  0  0  0  0  0  0
   -1.6033    8.0852   19.4585 C   0  0  0  0  0  0  0  0  0  0  0  0
   -0.9106    6.9344   19.8501 C   0  0  0  0  0  0  0  0  0  0  0  0
   -1.5673    5.9187   20.5775 C   0  0  0  0  0  0  0  0  0  0  0  0
   -2.9257    6.0620   20.9082 C   0  0  0  0  0  0  0  0  0  0  0  0
   -3.6267    7.2140   20.5167 C   0  0  0  0  0  0  0  0  0  0  0  0
   -4.9956    9.5272   19.3295 N   0  0  0  0  0  0  0  0  0  0  0  0
   -3.0941   10.5437   18.9979 N   0  0  0  0  0  0  0  0  0  0  0  0
   -3.6747    9.4240   19.3851 C   0  0  0  0  0  0  0  0  0  0  0  0
   -5.4118   10.3729   19.0450 H   0  0  0  0  0  0  0  0  0  0  0  0
   -3.6431   11.3180   18.7367 H   0  0  0  0  0  0  0  0  0  0  0  0
   -2.1119   10.6048   18.9703 H   0  0  0  0  0  0  0  0  0  0  0  0
 38 40  2  0  0  0
 39 40  1  0  0  0
 40 32  1  0  0  0
 32 33  2  0  0  0
 32 37  1  0  0  0
 33 34  1  0  0  0
 34 35  2  0  0  0
 35 36  1  0  0  0
 35 30  1  0  0  0
 36 37  2  0  0  0
 30 29  1  0  0  0
 29  2  1  0  0  0
  1  2  2  0  0  0
  1  5  1  0  0  0
  2  3  1  0  0  0
  3  4  1  0  0  0
  3 10  1  0  0  0
  4  5  2  0  0  0
  4  6  1  0  0  0
  5  9  1  0  0  0
  6  7  2  0  0  0
  7  8  1  0  0  0
  8  9  2  0  0  0
  8 13  1  0  0  0
 11 12  1  0  0  0
 11 13  1  0  0  0
 12 13  1  0  0  0
 13 14  1  0  0  0
 14 15  2  0  0  0
 14 17  1  0  0  0
 15 22  1  0  0  0
 16 17  2  0  0  0
 16 21  1  0  0  0
 17 18  1  0  0  0
 18 19  2  0  0  0
 19 20  1  0  0  0
 20 21  2  0  0  0
 22 23  1  0  0  0
 23 24  1  0  0  0
 24 25  2  0  0  0
 24 26  1  0  0  0
 26 28  1  0  0  0
 27 28  1  0  0  0
 38 41  1  0  0  0
 39 42  1  0  0  0
 39 43  1  0  0  0
 30 31  1  0  0  0
M  END
> <minimizedAffinity>
-8.23348

$$$$
1OYQ_T87_A_1


 43 47  0  0  0  0  0  0  0  0999 V2000
   -1.3467    4.5313   23.6757 N   0  0  0  0  0  0  0  0  0  0  0  0
   -1.5305    3.6425   22.6162 C   0  0  0  0  0  0  0  0  0  0  0  0
   -2.4820    2.6020   22.7036 N   0  0  0  0  0  0  0  0  0  0  0  0
   -2.9505    2.8806   23.9881 C   0  0  0  0  0  0  0  0  0  0  0  0
   -2.2727    4.0245   24.5589 C   0  0  0  0  0  0  0  0  0  0  0  0
   -3.9573    2.2004   24.7482 C   0  0  0  0  0  0  0  0  0  0  0  0
   -4.2628    2.6583   26.0395 C   0  0  0  0  0  0  0  0  0  0  0  0
   -3.6025    3.7881   26.6172 C   0  0  0  0  0  0  0  0  0  0  0  0
   -2.6028    4.4759   25.8762 C   0  0  0  0  0  0  0  0  0  0  0  0
   -2.8768    1.5295   21.7382 C   0  0  0  0  0  0  0  0  0  0  0  0
   -3.3257    3.5713   29.3123 C   0  0  0  0  0  0  0  0  0  0  0  0
   -4.7355    3.1766   28.8103 C   0  0  0  0  0  0  0  0  0  0  0  0
   -3.9270    4.2239   28.0872 C   0  0  0  0  0  0  0  0  0  0  0  0
   -3.9732    5.7788   28.1252 C   0  0  0  0  0  0  0  0  0  0  0  0
   -4.9499    6.4179   27.5195 N   0  0  0  0  0  0  0  0  0  0  0  0
   -3.1963    7.4423   29.9626 N   0  0  0  0  0  0  0  0  0  0  0  0
   -2.8642    6.5584   28.9019 C   0  0  0  0  0  0  0  0  0  0  0  0
   -1.5037    6.3907   28.5521 C   0  0  0  0  0  0  0  0  0  0  0  0
   -0.4977    7.0952   29.2554 C   0  0  0  0  0  0  0  0  0  0  0  0
   -0.8320    7.9775   30.3141 C   0  0  0  0  0  0  0  0  0  0  0  0
   -2.1826    8.1532   30.6708 C   0  0  0  0  0  0  0  0  0  0  0  0
   -5.9948    5.6475   26.7906 O   0  0  0  0  0  0  0  0  0  0  0  0
   -7.3007    6.0612   27.1997 C   0  0  0  0  0  0  0  0  0  0  0  0
   -8.3145    5.6785   26.1073 C   0  0  0  0  0  0  0  0  0  0  0  0
   -9.5268    5.8040   26.3355 O   0  0  0  0  0  0  0  0  0  0  0  0
   -7.8546    5.2042   24.8955 O   0  0  0  0  0  0  0  0  0  0  0  0
   -7.8500    2.8325   25.4633 C   0  0  0  0  0  0  0  0  0  0  0  0
   -8.4427    3.9313   24.5575 C   0  0  0  0  0  0  0  0  0  0  0  0
   -0.6613    3.8416   21.3675 C   0  0  0  0  0  0  0  0  0  0  0  0
   -1.3495    4.4086   20.1834 N   0  0  0  0  0  0  0  0  0  0  0  0
   -1.4247    3.8127   19.4034 H   0  0  0  0  0  0  0  0  0  0  0  0
   -3.1315    8.2964   19.7509 C   0  0  0  0  0  0  0  0  0  0  0  0
   -1.7360    8.0960   19.5119 C   0  0  0  0  0  0  0  0  0  0  0  0
   -1.1451    6.8350   19.6474 C   0  0  0  0  0  0  0  0  0  0  0  0
   -1.9215    5.7203   20.0301 C   0  0  0  0  0  0  0  0  0  0  0  0
   -3.2969    5.8762   20.2735 C   0  0  0  0  0  0  0  0  0  0  0  0
   -3.8959    7.1390   20.1377 C   0  0  0  0  0  0  0  0  0  0  0  0
   -3.1539   10.5898   19.0006 N   0  0  0  0  0  0  0  0  0  0  0  0
   -4.8956    9.8922   20.1137 N   0  0  0  0  0  0  0  0  0  0  0  0
   -3.7188    9.5608   19.6177 C   0  0  0  0  0  0  0  0  0  0  0  0
   -3.6274   11.4512   18.9457 H   0  0  0  0  0  0  0  0  0  0  0  0
   -5.2472   10.8021   19.9809 H   0  0  0  0  0  0  0  0  0  0  0  0
   -5.4221    9.2295   20.6165 H   0  0  0  0  0  0  0  0  0  0  0  0
 38 40  2  0  0  0
 39 40  1  0  0  0
 40 32  1  0  0  0
 32 33  2  0  0  0
 32 37  1  0  0  0
 33 34  1  0  0  0
 34 35  2  0  0  0
 35 36  1  0  0  0
 35 30  1  0  0  0
 36 37  2  0  0  0
 30 29  1  0  0  0
 29  2  1  0  0  0
  1  2  2  0  0  0
  1  5  1  0  0  0
  2  3  1  0  0  0
  3  4  1  0  0  0
  3 10  1  0  0  0
  4  5  2  0  0  0
  4  6  1  0  0  0
  5  9  1  0  0  0
  6  7  2  0  0  0
  7  8  1  0  0  0
  8  9  2  0  0  0
  8 13  1  0  0  0
 11 12  1  0  0  0
 11 13  1  0  0  0
 12 13  1  0  0  0
 13 14  1  0  0  0
 14 15  2  0  0  0
 14 17  1  0  0  0
 15 22  1  0  0  0
 16 17  2  0  0  0
 16 21  1  0  0  0
 17 18  1  0  0  0
 18 19  2  0  0  0
 19 20  1  0  0  0
 20 21  2  0  0  0
 22 23  1  0  0  0
 23 24  1  0  0  0
 24 25  2  0  0  0
 24 26  1  0  0  0
 26 28  1  0  0  0
 27 28  1  0  0  0
 38 41  1  0  0  0
 39 42  1  0  0  0
 39 43  1  0  0  0
 30 31  1  0  0  0
M  END
> <minimizedAffinity>
-8.19868

$$$$
1OYQ_T87_A_1


 43 47  0  0  0  0  0  0  0  0999 V2000
   -2.0001    4.6494   23.8858 N   0  0  0  0  0  0  0  0  0  0  0  0
   -1.3417    3.6104   23.2276 C   0  0  0  0  0  0  0  0  0  0  0  0
   -0.5935    2.6561   23.9524 N   0  0  0  0  0  0  0  0  0  0  0  0
   -0.8157    3.1712   25.2299 C   0  0  0  0  0  0  0  0  0  0  0  0
   -1.6492    4.3531   25.1833 C   0  0  0  0  0  0  0  0  0  0  0  0
   -0.3374    2.6898   26.4923 C   0  0  0  0  0  0  0  0  0  0  0  0
   -0.6859    3.3819   27.6628 C   0  0  0  0  0  0  0  0  0  0  0  0
   -1.5095    4.5510   27.6333 C   0  0  0  0  0  0  0  0  0  0  0  0
   -1.9945    5.0410   26.3897 C   0  0  0  0  0  0  0  0  0  0  0  0
    0.1958    1.4646   23.5103 C   0  0  0  0  0  0  0  0  0  0  0  0
   -1.4008    6.7631   29.2087 C   0  0  0  0  0  0  0  0  0  0  0  0
   -0.5659    5.5814   29.7581 C   0  0  0  0  0  0  0  0  0  0  0  0
   -1.8185    5.3311   28.9569 C   0  0  0  0  0  0  0  0  0  0  0  0
   -3.2729    4.9840   29.3875 C   0  0  0  0  0  0  0  0  0  0  0  0
   -3.4880    3.9845   30.2146 N   0  0  0  0  0  0  0  0  0  0  0  0
   -5.2196    5.4172   27.7233 N   0  0  0  0  0  0  0  0  0  0  0  0
   -4.4579    5.8444   28.8431 C   0  0  0  0  0  0  0  0  0  0  0  0
   -4.7869    7.0713   29.4659 C   0  0  0  0  0  0  0  0  0  0  0  0
   -5.8607    7.8515   28.9748 C   0  0  0  0  0  0  0  0  0  0  0  0
   -6.6196    7.4227   27.8562 C   0  0  0  0  0  0  0  0  0  0  0  0
   -6.3012    6.2039   27.2275 C   0  0  0  0  0  0  0  0  0  0  0  0
   -2.3381    3.1851   30.7200 O   0  0  0  0  0  0  0  0  0  0  0  0
   -2.6476    2.6082   31.9909 C   0  0  0  0  0  0  0  0  0  0  0  0
   -1.3939    1.9080   32.5438 C   0  0  0  0  0  0  0  0  0  0  0  0
   -0.5199    1.5191   31.7549 O   0  0  0  0  0  0  0  0  0  0  0  0
   -1.2667    1.7277   33.9063 O   0  0  0  0  0  0  0  0  0  0  0  0
   -1.4619    3.5201   35.5484 C   0  0  0  0  0  0  0  0  0  0  0  0
   -2.2163    2.5228   34.6454 C   0  0  0  0  0  0  0  0  0  0  0  0
   -1.4626    3.5528   21.6991 C   0  0  0  0  0  0  0  0  0  0  0  0
   -0.9054    4.7116   20.9616 N   0  0  0  0  0  0  0  0  0  0  0  0
    0.0476    4.6511   20.7223 H   0  0  0  0  0  0  0  0  0  0  0  0
   -2.9948    8.2748   19.7720 C   0  0  0  0  0  0  0  0  0  0  0  0
   -1.6026    8.1097   19.4905 C   0  0  0  0  0  0  0  0  0  0  0  0
   -0.9123    6.9536   19.8708 C   0  0  0  0  0  0  0  0  0  0  0  0
   -1.5817    5.9138   20.5510 C   0  0  0  0  0  0  0  0  0  0  0  0
   -2.9503    6.0381   20.8456 C   0  0  0  0  0  0  0  0  0  0  0  0
   -3.6488    7.1953   20.4652 C   0  0  0  0  0  0  0  0  0  0  0  0
   -5.0025    9.5420   19.3401 N   0  0  0  0  0  0  0  0  0  0  0  0
   -3.0989   10.5567   19.0153 N   0  0  0  0  0  0  0  0  0  0  0  0
   -3.6817    9.4350   19.3930 C   0  0  0  0  0  0  0  0  0  0  0  0
   -5.4169   10.3912   19.0639 H   0  0  0  0  0  0  0  0  0  0  0  0
   -3.6463   11.3347   18.7618 H   0  0  0  0  0  0  0  0  0  0  0  0
   -2.1165   10.6157   18.9868 H   0  0  0  0  0  0  0  0  0  0  0  0
 38 40  2  0  0  0
 39 40  1  0  0  0
 40 32  1  0  0  0
 32 33  2  0  0  0
 32 37  1  0  0  0
 33 34  1  0  0  0
 34 35  2  0  0  0
 35 36  1  0  0  0
 35 30  1  0  0  0
 36 37  2  0  0  0
 30 29  1  0  0  0
 29  2  1  0  0  0
  1  2  2  0  0  0
  1  5  1  0  0  0
  2  3  1  0  0  0
  3  4  1  0  0  0
  3 10  1  0  0  0
  4  5  2  0  0  0
  4  6  1  0  0  0
  5  9  1  0  0  0
  6  7  2  0  0  0
  7  8  1  0  0  0
  8  9  2  0  0  0
  8 13  1  0  0  0
 11 12  1  0  0  0
 11 13  1  0  0  0
 12 13  1  0  0  0
 13 14  1  0  0  0
 14 15  2  0  0  0
 14 17  1  0  0  0
 15 22  1  0  0  0
 16 17  2  0  0  0
 16 21  1  0  0  0
 17 18  1  0  0  0
 18 19  2  0  0  0
 19 20  1  0  0  0
 20 21  2  0  0  0
 22 23  1  0  0  0
 23 24  1  0  0  0
 24 25  2  0  0  0
 24 26  1  0  0  0
 26 28  1  0  0  0
 27 28  1  0  0  0
 38 41  1  0  0  0
 39 42  1  0  0  0
 39 43  1  0  0  0
 30 31  1  0  0  0
M  END
> <minimizedAffinity>
-8.13934

$$$$
1OYQ_T87_A_1


 43 47  0  0  0  0  0  0  0  0999 V2000
   -1.7490    4.1804   23.1166 N   0  0  0  0  0  0  0  0  0  0  0  0
   -2.0254    3.1624   22.2036 C   0  0  0  0  0  0  0  0  0  0  0  0
   -2.6206    1.9537   22.6284 N   0  0  0  0  0  0  0  0  0  0  0  0
   -2.7269    2.2610   23.9852 C   0  0  0  0  0  0  0  0  0  0  0  0
   -2.2075    3.5816   24.2681 C   0  0  0  0  0  0  0  0  0  0  0  0
   -3.2551    1.4630   25.0521 C   0  0  0  0  0  0  0  0  0  0  0  0
   -3.2530    1.9808   26.3569 C   0  0  0  0  0  0  0  0  0  0  0  0
   -2.7441    3.2845   26.6523 C   0  0  0  0  0  0  0  0  0  0  0  0
   -2.2184    4.0905   25.6055 C   0  0  0  0  0  0  0  0  0  0  0  0
   -3.0176    0.7215   21.8786 C   0  0  0  0  0  0  0  0  0  0  0  0
   -3.7189    3.4211   29.1858 C   0  0  0  0  0  0  0  0  0  0  0  0
   -3.8214    4.7620   28.4197 C   0  0  0  0  0  0  0  0  0  0  0  0
   -2.6995    3.7963   28.1329 C   0  0  0  0  0  0  0  0  0  0  0  0
   -1.2180    3.7573   28.6073 C   0  0  0  0  0  0  0  0  0  0  0  0
   -0.6345    4.8621   29.0172 N   0  0  0  0  0  0  0  0  0  0  0  0
    0.5832    2.1385   27.6680 N   0  0  0  0  0  0  0  0  0  0  0  0
   -0.4503    2.3966   28.6072 C   0  0  0  0  0  0  0  0  0  0  0  0
   -0.7811    1.3968   29.5518 C   0  0  0  0  0  0  0  0  0  0  0  0
   -0.0859    0.1640   29.5539 C   0  0  0  0  0  0  0  0  0  0  0  0
    0.9455   -0.0913   28.6148 C   0  0  0  0  0  0  0  0  0  0  0  0
    1.2832    0.8957   27.6692 C   0  0  0  0  0  0  0  0  0  0  0  0
   -1.3931    6.1432   29.0098 O   0  0  0  0  0  0  0  0  0  0  0  0
   -0.6658    7.1614   29.7014 C   0  0  0  0  0  0  0  0  0  0  0  0
   -1.6595    8.0750   30.4403 C   0  0  0  0  0  0  0  0  0  0  0  0
   -2.8761    7.9166   30.2611 O   0  0  0  0  0  0  0  0  0  0  0  0
   -1.1770    9.0514   31.2881 O   0  0  0  0  0  0  0  0  0  0  0  0
   -0.0169    9.4310   33.3994 C   0  0  0  0  0  0  0  0  0  0  0  0
   -1.0528    8.5739   32.6434 C   0  0  0  0  0  0  0  0  0  0  0  0
   -1.6559    3.4103   20.7351 C   0  0  0  0  0  0  0  0  0  0  0  0
   -1.0310    4.7210   20.4373 N   0  0  0  0  0  0  0  0  0  0  0  0
   -0.0475    4.7288   20.3947 H   0  0  0  0  0  0  0  0  0  0  0  0
   -3.0413    8.4609   19.7670 C   0  0  0  0  0  0  0  0  0  0  0  0
   -1.6481    8.3129   19.4811 C   0  0  0  0  0  0  0  0  0  0  0  0
   -0.9834    7.1002   19.6931 C   0  0  0  0  0  0  0  0  0  0  0  0
   -1.6805    5.9836   20.2024 C   0  0  0  0  0  0  0  0  0  0  0  0
   -3.0510    6.0888   20.4954 C   0  0  0  0  0  0  0  0  0  0  0  0
   -3.7239    7.3029   20.2834 C   0  0  0  0  0  0  0  0  0  0  0  0
   -4.9549    9.9232   19.9172 N   0  0  0  0  0  0  0  0  0  0  0  0
   -3.1698   10.7205   18.9495 N   0  0  0  0  0  0  0  0  0  0  0  0
   -3.7026    9.6775   19.5568 C   0  0  0  0  0  0  0  0  0  0  0  0
   -5.3552   10.8044   19.7367 H   0  0  0  0  0  0  0  0  0  0  0  0
   -3.6948   11.5456   18.8367 H   0  0  0  0  0  0  0  0  0  0  0  0
   -2.2471   10.6736   18.6092 H   0  0  0  0  0  0  0  0  0  0  0  0
 38 40  2  0  0  0
 39 40  1  0  0  0
 40 32  1  0  0  0
 32 33  2  0  0  0
 32 37  1  0  0  0
 33 34  1  0  0  0
 34 35  2  0  0  0
 35 36  1  0  0  0
 35 30  1  0  0  0
 36 37  2  0  0  0
 30 29  1  0  0  0
 29  2  1  0  0  0
  1  2  2  0  0  0
  1  5  1  0  0  0
  2  3  1  0  0  0
  3  4  1  0  0  0
  3 10  1  0  0  0
  4  5  2  0  0  0
  4  6  1  0  0  0
  5  9  1  0  0  0
  6  7  2  0  0  0
  7  8  1  0  0  0
  8  9  2  0  0  0
  8 13  1  0  0  0
 11 12  1  0  0  0
 11 13  1  0  0  0
 12 13  1  0  0  0
 13 14  1  0  0  0
 14 15  2  0  0  0
 14 17  1  0  0  0
 15 22  1  0  0  0
 16 17  2  0  0  0
 16 21  1  0  0  0
 17 18  1  0  0  0
 18 19  2  0  0  0
 19 20  1  0  0  0
 20 21  2  0  0  0
 22 23  1  0  0  0
 23 24  1  0  0  0
 24 25  2  0  0  0
 24 26  1  0  0  0
 26 28  1  0  0  0
 27 28  1  0  0  0
 38 41  1  0  0  0
 39 42  1  0  0  0
 39 43  1  0  0  0
 30 31  1  0  0  0
M  END
> <minimizedAffinity>
-7.76113

$$$$
1OYQ_T87_A_1


 43 47  0  0  0  0  0  0  0  0999 V2000
   -2.2257    4.6485   23.9524 N   0  0  0  0  0  0  0  0  0  0  0  0
   -1.5413    3.6244   23.2973 C   0  0  0  0  0  0  0  0  0  0  0  0
   -0.7364    2.7163   24.0205 N   0  0  0  0  0  0  0  0  0  0  0  0
   -0.9478    3.2473   25.2934 C   0  0  0  0  0  0  0  0  0  0  0  0
   -1.8305    4.3929   25.2458 C   0  0  0  0  0  0  0  0  0  0  0  0
   -0.4185    2.8113   26.5519 C   0  0  0  0  0  0  0  0  0  0  0  0
   -0.7661    3.5119   27.7176 C   0  0  0  0  0  0  0  0  0  0  0  0
   -1.6381    4.6454   27.6871 C   0  0  0  0  0  0  0  0  0  0  0  0
   -2.1739    5.0901   26.4474 C   0  0  0  0  0  0  0  0  0  0  0  0
    0.0904    1.5495   23.5810 C   0  0  0  0  0  0  0  0  0  0  0  0
   -1.6774    6.9168   29.1792 C   0  0  0  0  0  0  0  0  0  0  0  0
   -0.6800    5.8575   29.7070 C   0  0  0  0  0  0  0  0  0  0  0  0
   -1.9460    5.4385   29.0033 C   0  0  0  0  0  0  0  0  0  0  0  0
   -3.3205    4.9500   29.5448 C   0  0  0  0  0  0  0  0  0  0  0  0
   -4.4118    5.6266   29.2609 N   0  0  0  0  0  0  0  0  0  0  0  0
   -4.1648    2.5347   29.9920 N   0  0  0  0  0  0  0  0  0  0  0  0
   -3.3848    3.6473   30.4047 C   0  0  0  0  0  0  0  0  0  0  0  0
   -2.6599    3.5623   31.6166 C   0  0  0  0  0  0  0  0  0  0  0  0
   -2.7160    2.3825   32.3964 C   0  0  0  0  0  0  0  0  0  0  0  0
   -3.4960    1.2729   31.9821 C   0  0  0  0  0  0  0  0  0  0  0  0
   -4.2224    1.3459   30.7783 C   0  0  0  0  0  0  0  0  0  0  0  0
   -4.3196    6.8623   28.4354 O   0  0  0  0  0  0  0  0  0  0  0  0
   -5.5451    7.0914   27.7359 C   0  0  0  0  0  0  0  0  0  0  0  0
   -6.4711    7.9525   28.6128 C   0  0  0  0  0  0  0  0  0  0  0  0
   -5.9721    8.7809   29.3889 O   0  0  0  0  0  0  0  0  0  0  0  0
   -7.8379    7.7865   28.5176 O   0  0  0  0  0  0  0  0  0  0  0  0
   -8.8972    5.6481   28.0153 C   0  0  0  0  0  0  0  0  0  0  0  0
   -8.2712    6.5425   29.1048 C   0  0  0  0  0  0  0  0  0  0  0  0
   -1.6979    3.5313   21.7737 C   0  0  0  0  0  0  0  0  0  0  0  0
   -1.1100    4.6459   20.9933 N   0  0  0  0  0  0  0  0  0  0  0  0
   -0.1680    4.5360   20.7291 H   0  0  0  0  0  0  0  0  0  0  0  0
   -3.0690    8.2730   19.7751 C   0  0  0  0  0  0  0  0  0  0  0  0
   -1.6857    8.0518   19.4882 C   0  0  0  0  0  0  0  0  0  0  0  0
   -1.0378    6.8746   19.8777 C   0  0  0  0  0  0  0  0  0  0  0  0
   -1.7424    5.8685   20.5729 C   0  0  0  0  0  0  0  0  0  0  0  0
   -3.1035    6.0481   20.8733 C   0  0  0  0  0  0  0  0  0  0  0  0
   -3.7596    7.2268   20.4837 C   0  0  0  0  0  0  0  0  0  0  0  0
   -3.0882   10.5654   19.0218 N   0  0  0  0  0  0  0  0  0  0  0  0
   -5.0225    9.6160   19.3623 N   0  0  0  0  0  0  0  0  0  0  0  0
   -3.7134    9.4543   19.3867 C   0  0  0  0  0  0  0  0  0  0  0  0
   -3.6080   11.3596   18.7606 H   0  0  0  0  0  0  0  0  0  0  0  0
   -5.4070   10.4764   19.0774 H   0  0  0  0  0  0  0  0  0  0  0  0
   -5.6150    8.8763   19.6289 H   0  0  0  0  0  0  0  0  0  0  0  0
 38 40  2  0  0  0
 39 40  1  0  0  0
 40 32  1  0  0  0
 32 33  2  0  0  0
 32 37  1  0  0  0
 33 34  1  0  0  0
 34 35  2  0  0  0
 35 36  1  0  0  0
 35 30  1  0  0  0
 36 37  2  0  0  0
 30 29  1  0  0  0
 29  2  1  0  0  0
  1  2  2  0  0  0
  1  5  1  0  0  0
  2  3  1  0  0  0
  3  4  1  0  0  0
  3 10  1  0  0  0
  4  5  2  0  0  0
  4  6  1  0  0  0
  5  9  1  0  0  0
  6  7  2  0  0  0
  7  8  1  0  0  0
  8  9  2  0  0  0
  8 13  1  0  0  0
 11 12  1  0  0  0
 11 13  1  0  0  0
 12 13  1  0  0  0
 13 14  1  0  0  0
 14 15  2  0  0  0
 14 17  1  0  0  0
 15 22  1  0  0  0
 16 17  2  0  0  0
 16 21  1  0  0  0
 17 18  1  0  0  0
 18 19  2  0  0  0
 19 20  1  0  0  0
 20 21  2  0  0  0
 22 23  1  0  0  0
 23 24  1  0  0  0
 24 25  2  0  0  0
 24 26  1  0  0  0
 26 28  1  0  0  0
 27 28  1  0  0  0
 38 41  1  0  0  0
 39 42  1  0  0  0
 39 43  1  0  0  0
 30 31  1  0  0  0
M  END
> <minimizedAffinity>
-7.74374

$$$$
1OYQ_T87_A_1


 43 47  0  0  0  0  0  0  0  0999 V2000
   -3.4911    3.5849   24.5291 N   0  0  0  0  0  0  0  0  0  0  0  0
   -2.2930    3.4197   23.8338 C   0  0  0  0  0  0  0  0  0  0  0  0
   -1.0651    3.3197   24.5251 N   0  0  0  0  0  0  0  0  0  0  0  0
   -1.5667    3.4399   25.8215 C   0  0  0  0  0  0  0  0  0  0  0  0
   -3.0051    3.5978   25.8168 C   0  0  0  0  0  0  0  0  0  0  0  0
   -0.8585    3.4275   27.0674 C   0  0  0  0  0  0  0  0  0  0  0  0
   -1.5790    3.5744   28.2631 C   0  0  0  0  0  0  0  0  0  0  0  0
   -3.0008    3.7304   28.2751 C   0  0  0  0  0  0  0  0  0  0  0  0
   -3.7194    3.7427   27.0483 C   0  0  0  0  0  0  0  0  0  0  0  0
    0.3392    3.1429   24.0405 C   0  0  0  0  0  0  0  0  0  0  0  0
   -3.4070    3.2525   30.9197 C   0  0  0  0  0  0  0  0  0  0  0  0
   -4.5637    2.7475   30.0239 C   0  0  0  0  0  0  0  0  0  0  0  0
   -3.7573    3.9586   29.6285 C   0  0  0  0  0  0  0  0  0  0  0  0
   -4.0391    5.4827   29.7670 C   0  0  0  0  0  0  0  0  0  0  0  0
   -5.2202    5.9604   29.4413 N   0  0  0  0  0  0  0  0  0  0  0  0
   -2.8452    6.7576   31.6895 N   0  0  0  0  0  0  0  0  0  0  0  0
   -2.9158    6.4220   30.3114 C   0  0  0  0  0  0  0  0  0  0  0  0
   -1.9478    6.9544   29.4277 C   0  0  0  0  0  0  0  0  0  0  0  0
   -0.9287    7.8046   29.9192 C   0  0  0  0  0  0  0  0  0  0  0  0
   -0.8608    8.1384   31.2958 C   0  0  0  0  0  0  0  0  0  0  0  0
   -1.8189    7.6153   32.1850 C   0  0  0  0  0  0  0  0  0  0  0  0
   -6.2724    5.0398   28.9291 O   0  0  0  0  0  0  0  0  0  0  0  0
   -7.5712    5.5006   29.3093 C   0  0  0  0  0  0  0  0  0  0  0  0
   -8.0545    6.5425   28.2852 C   0  0  0  0  0  0  0  0  0  0  0  0
   -8.6045    6.1572   27.2429 O   0  0  0  0  0  0  0  0  0  0  0  0
   -7.8672    7.8846   28.5475 O   0  0  0  0  0  0  0  0  0  0  0  0
   -8.1064    9.7288   30.1251 C   0  0  0  0  0  0  0  0  0  0  0  0
   -8.5419    8.2965   29.7538 C   0  0  0  0  0  0  0  0  0  0  0  0
   -2.3674    3.3551   22.3025 C   0  0  0  0  0  0  0  0  0  0  0  0
   -1.6072    4.3977   21.5730 N   0  0  0  0  0  0  0  0  0  0  0  0
   -0.6448    4.2260   21.4567 H   0  0  0  0  0  0  0  0  0  0  0  0
   -3.1472    8.0631   19.9387 C   0  0  0  0  0  0  0  0  0  0  0  0
   -1.7906    7.6703   19.7147 C   0  0  0  0  0  0  0  0  0  0  0  0
   -1.2786    6.4788   20.2397 C   0  0  0  0  0  0  0  0  0  0  0  0
   -2.0984    5.6292   21.0132 C   0  0  0  0  0  0  0  0  0  0  0  0
   -3.4376    5.9799   21.2554 C   0  0  0  0  0  0  0  0  0  0  0  0
   -3.9575    7.1738   20.7300 C   0  0  0  0  0  0  0  0  0  0  0  0
   -2.9095   10.2778   19.0107 N   0  0  0  0  0  0  0  0  0  0  0  0
   -4.9399    9.5283   19.2833 N   0  0  0  0  0  0  0  0  0  0  0  0
   -3.6552    9.2583   19.4146 C   0  0  0  0  0  0  0  0  0  0  0  0
   -3.3371   11.0889   18.6521 H   0  0  0  0  0  0  0  0  0  0  0  0
   -5.2255   10.3915   18.9057 H   0  0  0  0  0  0  0  0  0  0  0  0
   -5.6131    8.8665   19.5630 H   0  0  0  0  0  0  0  0  0  0  0  0
 38 40  2  0  0  0
 39 40  1  0  0  0
 40 32  1  0  0  0
 32 33  2  0  0  0
 32 37  1  0  0  0
 33 34  1  0  0  0
 34 35  2  0  0  0
 35 36  1  0  0  0
 35 30  1  0  0  0
 36 37  2  0  0  0
 30 29  1  0  0  0
 29  2  1  0  0  0
  1  2  2  0  0  0
  1  5  1  0  0  0
  2  3  1  0  0  0
  3  4  1  0  0  0
  3 10  1  0  0  0
  4  5  2  0  0  0
  4  6  1  0  0  0
  5  9  1  0  0  0
  6  7  2  0  0  0
  7  8  1  0  0  0
  8  9  2  0  0  0
  8 13  1  0  0  0
 11 12  1  0  0  0
 11 13  1  0  0  0
 12 13  1  0  0  0
 13 14  1  0  0  0
 14 15  2  0  0  0
 14 17  1  0  0  0
 15 22  1  0  0  0
 16 17  2  0  0  0
 16 21  1  0  0  0
 17 18  1  0  0  0
 18 19  2  0  0  0
 19 20  1  0  0  0
 20 21  2  0  0  0
 22 23  1  0  0  0
 23 24  1  0  0  0
 24 25  2  0  0  0
 24 26  1  0  0  0
 26 28  1  0  0  0
 27 28  1  0  0  0
 38 41  1  0  0  0
 39 42  1  0  0  0
 39 43  1  0  0  0
 30 31  1  0  0  0
M  END
> <minimizedAffinity>
-7.56337

$$$$
1OYQ_T87_A_1


 43 47  0  0  0  0  0  0  0  0999 V2000
   -1.3097    4.3497   24.3664 N   0  0  0  0  0  0  0  0  0  0  0  0
   -2.3172    3.9276   23.4986 C   0  0  0  0  0  0  0  0  0  0  0  0
   -3.6717    3.9503   23.8995 N   0  0  0  0  0  0  0  0  0  0  0  0
   -3.4801    4.4517   25.1874 C   0  0  0  0  0  0  0  0  0  0  0  0
   -2.0779    4.6853   25.4581 C   0  0  0  0  0  0  0  0  0  0  0  0
   -4.4549    4.7365   26.1987 C   0  0  0  0  0  0  0  0  0  0  0  0
   -4.0256    5.2342   27.4391 C   0  0  0  0  0  0  0  0  0  0  0  0
   -2.6436    5.4712   27.7216 C   0  0  0  0  0  0  0  0  0  0  0  0
   -1.6634    5.1963   26.7289 C   0  0  0  0  0  0  0  0  0  0  0  0
   -4.9282    3.5624   23.1862 C   0  0  0  0  0  0  0  0  0  0  0  0
   -2.0336    7.4203   29.5149 C   0  0  0  0  0  0  0  0  0  0  0  0
   -0.8148    6.5524   29.1193 C   0  0  0  0  0  0  0  0  0  0  0  0
   -2.2028    5.9639   29.1425 C   0  0  0  0  0  0  0  0  0  0  0  0
   -2.9435    5.0956   30.2001 C   0  0  0  0  0  0  0  0  0  0  0  0
   -4.0969    5.5003   30.6850 N   0  0  0  0  0  0  0  0  0  0  0  0
   -1.3793    3.0543   29.8351 N   0  0  0  0  0  0  0  0  0  0  0  0
   -2.3117    3.7417   30.6567 C   0  0  0  0  0  0  0  0  0  0  0  0
   -2.6664    3.1801   31.9057 C   0  0  0  0  0  0  0  0  0  0  0  0
   -2.0941    1.9543   32.3215 C   0  0  0  0  0  0  0  0  0  0  0  0
   -1.1635    1.2698   31.4990 C   0  0  0  0  0  0  0  0  0  0  0  0
   -0.8032    1.8183   30.2535 C   0  0  0  0  0  0  0  0  0  0  0  0
   -4.6763    6.7933   30.2276 O   0  0  0  0  0  0  0  0  0  0  0  0
   -6.1000    6.7012   30.1360 C   0  0  0  0  0  0  0  0  0  0  0  0
   -6.6151    7.8012   29.1913 C   0  0  0  0  0  0  0  0  0  0  0  0
   -6.3361    8.9853   29.4315 O   0  0  0  0  0  0  0  0  0  0  0  0
   -7.3763    7.4483   28.0954 O   0  0  0  0  0  0  0  0  0  0  0  0
   -8.0732    5.6310   26.6261 C   0  0  0  0  0  0  0  0  0  0  0  0
   -7.6242    6.0283   28.0472 C   0  0  0  0  0  0  0  0  0  0  0  0
   -1.8932    3.4407   22.1067 C   0  0  0  0  0  0  0  0  0  0  0  0
   -1.3407    4.4747   21.1997 N   0  0  0  0  0  0  0  0  0  0  0  0
   -0.4363    4.3022   20.8511 H   0  0  0  0  0  0  0  0  0  0  0  0
   -3.1159    8.1553   19.8658 C   0  0  0  0  0  0  0  0  0  0  0  0
   -3.8982    7.1594   20.5298 C   0  0  0  0  0  0  0  0  0  0  0  0
   -3.3312    5.9586   20.9704 C   0  0  0  0  0  0  0  0  0  0  0  0
   -1.9592    5.6991   20.7645 C   0  0  0  0  0  0  0  0  0  0  0  0
   -1.1565    6.6533   20.1161 C   0  0  0  0  0  0  0  0  0  0  0  0
   -1.7195    7.8610   19.6730 C   0  0  0  0  0  0  0  0  0  0  0  0
   -4.9919    9.5845   19.3551 N   0  0  0  0  0  0  0  0  0  0  0  0
   -2.9991   10.3947   18.9930 N   0  0  0  0  0  0  0  0  0  0  0  0
   -3.6876    9.3547   19.4231 C   0  0  0  0  0  0  0  0  0  0  0  0
   -5.3224   10.4541   19.0329 H   0  0  0  0  0  0  0  0  0  0  0  0
   -3.4688   11.2074   18.6962 H   0  0  0  0  0  0  0  0  0  0  0  0
   -2.0156   10.3581   18.9688 H   0  0  0  0  0  0  0  0  0  0  0  0
 38 40  2  0  0  0
 39 40  1  0  0  0
 40 32  1  0  0  0
 32 33  2  0  0  0
 32 37  1  0  0  0
 33 34  1  0  0  0
 34 35  2  0  0  0
 35 36  1  0  0  0
 35 30  1  0  0  0
 36 37  2  0  0  0
 30 29  1  0  0  0
 29  2  1  0  0  0
  1  2  2  0  0  0
  1  5  1  0  0  0
  2  3  1  0  0  0
  3  4  1  0  0  0
  3 10  1  0  0  0
  4  5  2  0  0  0
  4  6  1  0  0  0
  5  9  1  0  0  0
  6  7  2  0  0  0
  7  8  1  0  0  0
  8  9  2  0  0  0
  8 13  1  0  0  0
 11 12  1  0  0  0
 11 13  1  0  0  0
 12 13  1  0  0  0
 13 14  1  0  0  0
 14 15  2  0  0  0
 14 17  1  0  0  0
 15 22  1  0  0  0
 16 17  2  0  0  0
 16 21  1  0  0  0
 17 18  1  0  0  0
 18 19  2  0  0  0
 19 20  1  0  0  0
 20 21  2  0  0  0
 22 23  1  0  0  0
 23 24  1  0  0  0
 24 25  2  0  0  0
 24 26  1  0  0  0
 26 28  1  0  0  0
 27 28  1  0  0  0
 38 41  1  0  0  0
 39 42  1  0  0  0
 39 43  1  0  0  0
 30 31  1  0  0  0
M  END
> <minimizedAffinity>
-7.46061

$$$$
1OYQ_T87_A_1


 43 47  0  0  0  0  0  0  0  0999 V2000
   -1.1788    4.4100   23.8153 N   0  0  0  0  0  0  0  0  0  0  0  0
   -0.7810    3.4515   22.8829 C   0  0  0  0  0  0  0  0  0  0  0  0
   -0.7762    2.0787   23.2160 N   0  0  0  0  0  0  0  0  0  0  0  0
   -1.2299    2.2005   24.5298 C   0  0  0  0  0  0  0  0  0  0  0  0
   -1.4656    3.5849   24.8790 C   0  0  0  0  0  0  0  0  0  0  0  0
   -1.4671    1.1737   25.5011 C   0  0  0  0  0  0  0  0  0  0  0  0
   -1.9211    1.5353   26.7792 C   0  0  0  0  0  0  0  0  0  0  0  0
   -2.1596    2.8989   27.1392 C   0  0  0  0  0  0  0  0  0  0  0  0
   -1.9316    3.9301   26.1872 C   0  0  0  0  0  0  0  0  0  0  0  0
   -0.4044    0.8634   22.4266 C   0  0  0  0  0  0  0  0  0  0  0  0
   -1.7717    2.9707   29.8284 C   0  0  0  0  0  0  0  0  0  0  0  0
   -2.9250    2.0302   29.4034 C   0  0  0  0  0  0  0  0  0  0  0  0
   -2.6018    3.2632   28.5980 C   0  0  0  0  0  0  0  0  0  0  0  0
   -3.2496    4.6775   28.5616 C   0  0  0  0  0  0  0  0  0  0  0  0
   -4.4498    4.8327   28.0472 N   0  0  0  0  0  0  0  0  0  0  0  0
   -1.1426    6.1860   28.7405 N   0  0  0  0  0  0  0  0  0  0  0  0
   -2.4682    5.8923   29.1568 C   0  0  0  0  0  0  0  0  0  0  0  0
   -3.0792    6.7204   30.1276 C   0  0  0  0  0  0  0  0  0  0  0  0
   -2.3733    7.8221   30.6670 C   0  0  0  0  0  0  0  0  0  0  0  0
   -1.0495    8.1129   30.2498 C   0  0  0  0  0  0  0  0  0  0  0  0
   -0.4306    7.2956   29.2848 C   0  0  0  0  0  0  0  0  0  0  0  0
   -5.1718    3.6553   27.4912 O   0  0  0  0  0  0  0  0  0  0  0  0
   -5.9704    4.0397   26.3695 C   0  0  0  0  0  0  0  0  0  0  0  0
   -5.3580    3.4454   25.0891 C   0  0  0  0  0  0  0  0  0  0  0  0
   -4.9726    2.2669   25.0927 O   0  0  0  0  0  0  0  0  0  0  0  0
   -5.2509    4.2351   23.9622 O   0  0  0  0  0  0  0  0  0  0  0  0
   -6.4085    4.2728   21.8161 C   0  0  0  0  0  0  0  0  0  0  0  0
   -6.5325    4.4641   23.3416 C   0  0  0  0  0  0  0  0  0  0  0  0
   -0.3513    3.9495   21.4966 C   0  0  0  0  0  0  0  0  0  0  0  0
   -1.4500    4.3014   20.5660 N   0  0  0  0  0  0  0  0  0  0  0  0
   -1.8683    3.5480   20.0899 H   0  0  0  0  0  0  0  0  0  0  0  0
   -3.1089    8.1772   19.7272 C   0  0  0  0  0  0  0  0  0  0  0  0
   -1.7972    7.8257   19.2792 C   0  0  0  0  0  0  0  0  0  0  0  0
   -1.2475    6.5667   19.5443 C   0  0  0  0  0  0  0  0  0  0  0  0
   -1.9826    5.6053   20.2705 C   0  0  0  0  0  0  0  0  0  0  0  0
   -3.2756    5.9125   20.7276 C   0  0  0  0  0  0  0  0  0  0  0  0
   -3.8333    7.1738   20.4634 C   0  0  0  0  0  0  0  0  0  0  0  0
   -4.9435    9.7359   19.5612 N   0  0  0  0  0  0  0  0  0  0  0  0
   -2.9570   10.4834   19.0574 N   0  0  0  0  0  0  0  0  0  0  0  0
   -3.6546    9.4397   19.4631 C   0  0  0  0  0  0  0  0  0  0  0  0
   -5.2559   10.6475   19.3593 H   0  0  0  0  0  0  0  0  0  0  0  0
   -3.4082   11.3424   18.8907 H   0  0  0  0  0  0  0  0  0  0  0  0
   -1.9852   10.4033   18.9214 H   0  0  0  0  0  0  0  0  0  0  0  0
 38 40  2  0  0  0
 39 40  1  0  0  0
 40 32  1  0  0  0
 32 33  2  0  0  0
 32 37  1  0  0  0
 33 34  1  0  0  0
 34 35  2  0  0  0
 35 36  1  0  0  0
 35 30  1  0  0  0
 36 37  2  0  0  0
 30 29  1  0  0  0
 29  2  1  0  0  0
  1  2  2  0  0  0
  1  5  1  0  0  0
  2  3  1  0  0  0
  3  4  1  0  0  0
  3 10  1  0  0  0
  4  5  2  0  0  0
  4  6  1  0  0  0
  5  9  1  0  0  0
  6  7  2  0  0  0
  7  8  1  0  0  0
  8  9  2  0  0  0
  8 13  1  0  0  0
 11 12  1  0  0  0
 11 13  1  0  0  0
 12 13  1  0  0  0
 13 14  1  0  0  0
 14 15  2  0  0  0
 14 17  1  0  0  0
 15 22  1  0  0  0
 16 17  2  0  0  0
 16 21  1  0  0  0
 17 18  1  0  0  0
 18 19  2  0  0  0
 19 20  1  0  0  0
 20 21  2  0  0  0
 22 23  1  0  0  0
 23 24  1  0  0  0
 24 25  2  0  0  0
 24 26  1  0  0  0
 26 28  1  0  0  0
 27 28  1  0  0  0
 38 41  1  0  0  0
 39 42  1  0  0  0
 39 43  1  0  0  0
 30 31  1  0  0  0
M  END
> <minimizedAffinity>
-7.36533

$$$$
1OYQ_T87_A_1


 43 47  0  0  0  0  0  0  0  0999 V2000
   -1.2787    3.6839   23.6892 N   0  0  0  0  0  0  0  0  0  0  0  0
   -1.6299    2.9201   22.5758 C   0  0  0  0  0  0  0  0  0  0  0  0
   -2.3609    1.7204   22.7249 N   0  0  0  0  0  0  0  0  0  0  0  0
   -2.4783    1.7412   24.1151 C   0  0  0  0  0  0  0  0  0  0  0  0
   -1.8338    2.9069   24.6804 C   0  0  0  0  0  0  0  0  0  0  0  0
   -3.1207    0.7963   24.9803 C   0  0  0  0  0  0  0  0  0  0  0  0
   -3.1068    1.0207   26.3658 C   0  0  0  0  0  0  0  0  0  0  0  0
   -2.4749    2.1685   26.9398 C   0  0  0  0  0  0  0  0  0  0  0  0
   -1.8348    3.1172   26.0959 C   0  0  0  0  0  0  0  0  0  0  0  0
   -2.8595    0.7269   21.7238 C   0  0  0  0  0  0  0  0  0  0  0  0
   -2.6593    1.2202   29.4802 C   0  0  0  0  0  0  0  0  0  0  0  0
   -3.7936    2.2074   29.1138 C   0  0  0  0  0  0  0  0  0  0  0  0
   -2.4250    2.3451   28.4962 C   0  0  0  0  0  0  0  0  0  0  0  0
   -1.2240    3.2752   28.8331 C   0  0  0  0  0  0  0  0  0  0  0  0
    0.0055    2.8462   28.6497 N   0  0  0  0  0  0  0  0  0  0  0  0
   -2.1303    4.9249   30.6231 N   0  0  0  0  0  0  0  0  0  0  0  0
   -1.4995    4.7171   29.3678 C   0  0  0  0  0  0  0  0  0  0  0  0
   -1.1205    5.8422   28.5986 C   0  0  0  0  0  0  0  0  0  0  0  0
   -1.3682    7.1491   29.0819 C   0  0  0  0  0  0  0  0  0  0  0  0
   -1.9986    7.3538   30.3356 C   0  0  0  0  0  0  0  0  0  0  0  0
   -2.3811    6.2419   31.1100 C   0  0  0  0  0  0  0  0  0  0  0  0
    0.2366    1.4685   28.1348 O   0  0  0  0  0  0  0  0  0  0  0  0
    1.2855    1.4649   27.1633 C   0  0  0  0  0  0  0  0  0  0  0  0
    2.3800    0.4793   27.6089 C   0  0  0  0  0  0  0  0  0  0  0  0
    2.2237   -0.1663   28.6559 O   0  0  0  0  0  0  0  0  0  0  0  0
    3.5129    0.3329   26.8343 O   0  0  0  0  0  0  0  0  0  0  0  0
    4.2925   -1.7050   25.7450 C   0  0  0  0  0  0  0  0  0  0  0  0
    4.1683   -0.9296   27.0726 C   0  0  0  0  0  0  0  0  0  0  0  0
   -1.1895    3.4337   21.1986 C   0  0  0  0  0  0  0  0  0  0  0  0
   -0.7614    4.8517   21.1432 N   0  0  0  0  0  0  0  0  0  0  0  0
    0.1591    5.0349   21.4406 H   0  0  0  0  0  0  0  0  0  0  0  0
   -2.9647    8.2914   19.8050 C   0  0  0  0  0  0  0  0  0  0  0  0
   -3.5885    7.2838   20.6051 C   0  0  0  0  0  0  0  0  0  0  0  0
   -2.8812    6.1609   21.0483 C   0  0  0  0  0  0  0  0  0  0  0  0
   -1.5212    5.9943   20.7095 C   0  0  0  0  0  0  0  0  0  0  0  0
   -0.8722    6.9631   19.9250 C   0  0  0  0  0  0  0  0  0  0  0  0
   -1.5764    8.0929   19.4784 C   0  0  0  0  0  0  0  0  0  0  0  0
   -3.1179   10.5449   18.9557 N   0  0  0  0  0  0  0  0  0  0  0  0
   -4.9931    9.4894   19.3144 N   0  0  0  0  0  0  0  0  0  0  0  0
   -3.6768    9.4123   19.3601 C   0  0  0  0  0  0  0  0  0  0  0  0
   -3.6831   11.2930   18.6556 H   0  0  0  0  0  0  0  0  0  0  0  0
   -5.4270   10.3112   18.9893 H   0  0  0  0  0  0  0  0  0  0  0  0
   -5.5414    8.7252   19.6053 H   0  0  0  0  0  0  0  0  0  0  0  0
 38 40  2  0  0  0
 39 40  1  0  0  0
 40 32  1  0  0  0
 32 33  2  0  0  0
 32 37  1  0  0  0
 33 34  1  0  0  0
 34 35  2  0  0  0
 35 36  1  0  0  0
 35 30  1  0  0  0
 36 37  2  0  0  0
 30 29  1  0  0  0
 29  2  1  0  0  0
  1  2  2  0  0  0
  1  5  1  0  0  0
  2  3  1  0  0  0
  3  4  1  0  0  0
  3 10  1  0  0  0
  4  5  2  0  0  0
  4  6  1  0  0  0
  5  9  1  0  0  0
  6  7  2  0  0  0
  7  8  1  0  0  0
  8  9  2  0  0  0
  8 13  1  0  0  0
 11 12  1  0  0  0
 11 13  1  0  0  0
 12 13  1  0  0  0
 13 14  1  0  0  0
 14 15  2  0  0  0
 14 17  1  0  0  0
 15 22  1  0  0  0
 16 17  2  0  0  0
 16 21  1  0  0  0
 17 18  1  0  0  0
 18 19  2  0  0  0
 19 20  1  0  0  0
 20 21  2  0  0  0
 22 23  1  0  0  0
 23 24  1  0  0  0
 24 25  2  0  0  0
 24 26  1  0  0  0
 26 28  1  0  0  0
 27 28  1  0  0  0
 38 41  1  0  0  0
 39 42  1  0  0  0
 39 43  1  0  0  0
 30 31  1  0  0  0
M  END
> <minimizedAffinity>
-7.29304

$$$$
