4NUC_435_A_201


 29 31  0  0  0  0  0  0  0  0999 V2000
  -16.0706    8.2411   -8.2591 C   0  0  0  0  0  0  0  0  0  0  0  0
  -15.7373    7.4519   -7.1444 C   0  0  0  0  0  0  0  0  0  0  0  0
  -16.1144    6.1465   -7.0397 C   0  0  0  0  0  0  0  0  0  0  0  0
  -16.9410    5.5561   -8.0117 C   0  0  0  0  0  0  0  0  0  0  0  0
  -17.3254    6.3943   -9.1107 C   0  0  0  0  0  0  0  0  0  0  0  0
  -16.9162    7.7310   -9.2098 C   0  0  0  0  0  0  0  0  0  0  0  0
  -17.4641    3.9979   -7.8033 S   0  0  0  0  0  0  0  0  0  0  0  0
  -18.1862    3.5897   -9.0193 O   0  0  0  0  0  0  0  0  0  0  0  0
  -18.2229    4.0909   -6.5347 O   0  0  0  0  0  0  0  0  0  0  0  0
  -16.2060    2.9531   -7.7130 N   0  0  0  0  0  0  0  0  0  0  0  0
  -15.7125    2.7765   -8.5464 H   0  0  0  0  0  0  0  0  0  0  0  0
  -15.7846    2.3156   -6.6114 C   0  0  0  0  0  0  0  0  0  0  0  0
  -16.1476    1.0053   -6.4828 N   0  0  0  0  0  0  0  0  0  0  0  0
  -15.7605    0.2722   -5.4296 C   0  0  0  0  0  0  0  0  0  0  0  0
  -14.9436    0.8430   -4.4410 C   0  0  0  0  0  0  0  0  0  0  0  0
  -14.5534    2.1870   -4.5555 C   0  0  0  0  0  0  0  0  0  0  0  0
  -14.9741    2.9440   -5.6491 C   0  0  0  0  0  0  0  0  0  0  0  0
  -14.7681   10.0021   -7.4789 N   0  0  0  0  0  0  0  0  0  0  0  0
  -15.6723    9.5974   -8.2771 N   0  0  0  0  0  0  0  0  0  0  0  0
  -12.7778   12.9338   -8.5407 C   0  0  0  0  0  0  0  0  0  0  0  0
  -13.2319   11.6511   -8.3451 C   0  0  0  0  0  0  0  0  0  0  0  0
  -14.3612   11.3528   -7.6086 C   0  0  0  0  0  0  0  0  0  0  0  0
  -15.1477   12.4106   -7.1321 C   0  0  0  0  0  0  0  0  0  0  0  0
  -14.7388   13.7369   -7.3734 C   0  0  0  0  0  0  0  0  0  0  0  0
  -13.5491   13.9785   -8.0903 C   0  0  0  0  0  0  0  0  0  0  0  0
  -13.1499   15.2823   -8.3181 O   0  0  0  0  0  0  0  0  0  0  0  0
  -15.5303   14.8688   -6.8333 C   0  0  0  0  0  0  0  0  0  0  0  0
  -11.5064   13.1938   -9.3039 C   0  0  0  0  0  0  0  0  0  0  0  0
  -12.3609   15.4544   -8.7933 H   0  0  0  0  0  0  0  0  0  0  0  0
 20 21  2  0  0  0
 20 25  1  0  0  0
 20 28  1  0  0  0
 21 22  1  0  0  0
 22 23  2  0  0  0
 22 18  1  0  0  0
 23 24  1  0  0  0
 24 25  2  0  0  0
 24 27  1  0  0  0
 25 26  1  0  0  0
 18 19  2  0  0  0
 19  1  1  0  0  0
  1  2  2  0  0  0
  1  6  1  0  0  0
  2  3  1  0  0  0
  3  4  2  0  0  0
  4  5  1  0  0  0
  4  7  1  0  0  0
  5  6  2  0  0  0
  7  8  2  0  0  0
  7  9  2  0  0  0
  7 10  1  0  0  0
 10 12  1  0  0  0
 12 13  2  0  0  0
 12 17  1  0  0  0
 13 14  1  0  0  0
 14 15  2  0  0  0
 15 16  1  0  0  0
 16 17  2  0  0  0
 26 29  1  0  0  0
 10 11  1  0  0  0
M  END
> <minimizedAffinity>
-8.52330

$$$$
4NUC_435_A_201


 29 31  0  0  0  0  0  0  0  0999 V2000
  -16.0677    8.1784   -7.9429 C   0  0  0  0  0  0  0  0  0  0  0  0
  -16.9152    7.5884   -8.8970 C   0  0  0  0  0  0  0  0  0  0  0  0
  -17.3107    6.2871   -8.8114 C   0  0  0  0  0  0  0  0  0  0  0  0
  -16.8063    5.4466   -7.8035 C   0  0  0  0  0  0  0  0  0  0  0  0
  -15.8922    6.0477   -6.8755 C   0  0  0  0  0  0  0  0  0  0  0  0
  -15.5075    7.3920   -6.9700 C   0  0  0  0  0  0  0  0  0  0  0  0
  -17.2286    3.8445   -7.7873 S   0  0  0  0  0  0  0  0  0  0  0  0
  -17.7365    3.4903   -9.1227 O   0  0  0  0  0  0  0  0  0  0  0  0
  -18.1645    3.7805   -6.6412 O   0  0  0  0  0  0  0  0  0  0  0  0
  -15.9173    2.8836   -7.5880 N   0  0  0  0  0  0  0  0  0  0  0  0
  -15.3177    2.7816   -8.3621 H   0  0  0  0  0  0  0  0  0  0  0  0
  -15.5834    2.2228   -6.4704 C   0  0  0  0  0  0  0  0  0  0  0  0
  -15.9266    0.9022   -6.4114 N   0  0  0  0  0  0  0  0  0  0  0  0
  -15.6202    0.1466   -5.3476 C   0  0  0  0  0  0  0  0  0  0  0  0
  -14.9098    0.7046   -4.2731 C   0  0  0  0  0  0  0  0  0  0  0  0
  -14.5416    2.0590   -4.3147 C   0  0  0  0  0  0  0  0  0  0  0  0
  -14.8784    2.8390   -5.4211 C   0  0  0  0  0  0  0  0  0  0  0  0
  -14.7174   10.0008   -7.4313 N   0  0  0  0  0  0  0  0  0  0  0  0
  -15.6743    9.5245   -8.1211 N   0  0  0  0  0  0  0  0  0  0  0  0
  -14.7346   13.6999   -7.4168 C   0  0  0  0  0  0  0  0  0  0  0  0
  -15.0573   12.3804   -7.2052 C   0  0  0  0  0  0  0  0  0  0  0  0
  -14.3232   11.3305   -7.7204 C   0  0  0  0  0  0  0  0  0  0  0  0
  -13.1288   11.6171   -8.3954 C   0  0  0  0  0  0  0  0  0  0  0  0
  -12.7414   12.9601   -8.5712 C   0  0  0  0  0  0  0  0  0  0  0  0
  -13.5581   13.9917   -8.0648 C   0  0  0  0  0  0  0  0  0  0  0  0
  -13.1757   15.3076   -8.2463 O   0  0  0  0  0  0  0  0  0  0  0  0
  -11.5076   13.2850   -9.3272 C   0  0  0  0  0  0  0  0  0  0  0  0
  -15.6067   14.8028   -6.8789 C   0  0  0  0  0  0  0  0  0  0  0  0
  -13.7109   16.0012   -7.9139 H   0  0  0  0  0  0  0  0  0  0  0  0
 20 21  2  0  0  0
 20 25  1  0  0  0
 20 28  1  0  0  0
 21 22  1  0  0  0
 22 23  2  0  0  0
 22 18  1  0  0  0
 23 24  1  0  0  0
 24 25  2  0  0  0
 24 27  1  0  0  0
 25 26  1  0  0  0
 18 19  2  0  0  0
 19  1  1  0  0  0
  1  2  2  0  0  0
  1  6  1  0  0  0
  2  3  1  0  0  0
  3  4  2  0  0  0
  4  5  1  0  0  0
  4  7  1  0  0  0
  5  6  2  0  0  0
  7  8  2  0  0  0
  7  9  2  0  0  0
  7 10  1  0  0  0
 10 12  1  0  0  0
 12 13  2  0  0  0
 12 17  1  0  0  0
 13 14  1  0  0  0
 14 15  2  0  0  0
 15 16  1  0  0  0
 16 17  2  0  0  0
 26 29  1  0  0  0
 10 11  1  0  0  0
M  END
> <minimizedAffinity>
-8.50533

$$$$
4NUC_435_A_201


 29 31  0  0  0  0  0  0  0  0999 V2000
  -16.1237    8.2361   -8.1040 C   0  0  0  0  0  0  0  0  0  0  0  0
  -15.8478    7.4573   -6.9664 C   0  0  0  0  0  0  0  0  0  0  0  0
  -16.2204    6.1497   -6.8735 C   0  0  0  0  0  0  0  0  0  0  0  0
  -16.9865    5.5461   -7.8860 C   0  0  0  0  0  0  0  0  0  0  0  0
  -17.3147    6.3735   -9.0110 C   0  0  0  0  0  0  0  0  0  0  0  0
  -16.9107    7.7127   -9.0968 C   0  0  0  0  0  0  0  0  0  0  0  0
  -17.5088    3.9852   -7.6959 S   0  0  0  0  0  0  0  0  0  0  0  0
  -18.0845    3.8549   -6.3474 O   0  0  0  0  0  0  0  0  0  0  0  0
  -16.2896    3.2075   -8.0163 O   0  0  0  0  0  0  0  0  0  0  0  0
  -18.7573    3.6470   -8.7005 N   0  0  0  0  0  0  0  0  0  0  0  0
  -19.6570    3.6236   -8.3012 H   0  0  0  0  0  0  0  0  0  0  0  0
  -18.6701    3.3990  -10.0151 C   0  0  0  0  0  0  0  0  0  0  0  0
  -18.0538    2.2366  -10.3817 N   0  0  0  0  0  0  0  0  0  0  0  0
  -17.9334    1.8846  -11.6694 C   0  0  0  0  0  0  0  0  0  0  0  0
  -18.4688    2.7066  -12.6735 C   0  0  0  0  0  0  0  0  0  0  0  0
  -19.1117    3.9037  -12.3193 C   0  0  0  0  0  0  0  0  0  0  0  0
  -19.2186    4.2665  -10.9766 C   0  0  0  0  0  0  0  0  0  0  0  0
  -14.6844    9.9557   -7.4896 N   0  0  0  0  0  0  0  0  0  0  0  0
  -15.7352    9.5953   -8.1095 N   0  0  0  0  0  0  0  0  0  0  0  0
  -12.7575   12.9439   -8.5103 C   0  0  0  0  0  0  0  0  0  0  0  0
  -13.1810   11.6487   -8.3278 C   0  0  0  0  0  0  0  0  0  0  0  0
  -14.3107   11.3172   -7.6063 C   0  0  0  0  0  0  0  0  0  0  0  0
  -15.1293   12.3516   -7.1326 C   0  0  0  0  0  0  0  0  0  0  0  0
  -14.7516   13.6893   -7.3611 C   0  0  0  0  0  0  0  0  0  0  0  0
  -13.5603   13.9657   -8.0625 C   0  0  0  0  0  0  0  0  0  0  0  0
  -13.1919   15.2806   -8.2777 O   0  0  0  0  0  0  0  0  0  0  0  0
  -15.5780   14.7972   -6.8234 C   0  0  0  0  0  0  0  0  0  0  0  0
  -11.4845   13.2410   -9.2570 C   0  0  0  0  0  0  0  0  0  0  0  0
  -12.4022   15.4758   -8.7427 H   0  0  0  0  0  0  0  0  0  0  0  0
 20 21  2  0  0  0
 20 25  1  0  0  0
 20 28  1  0  0  0
 21 22  1  0  0  0
 22 23  2  0  0  0
 22 18  1  0  0  0
 23 24  1  0  0  0
 24 25  2  0  0  0
 24 27  1  0  0  0
 25 26  1  0  0  0
 18 19  2  0  0  0
 19  1  1  0  0  0
  1  2  2  0  0  0
  1  6  1  0  0  0
  2  3  1  0  0  0
  3  4  2  0  0  0
  4  5  1  0  0  0
  4  7  1  0  0  0
  5  6  2  0  0  0
  7  8  2  0  0  0
  7  9  2  0  0  0
  7 10  1  0  0  0
 10 12  1  0  0  0
 12 13  2  0  0  0
 12 17  1  0  0  0
 13 14  1  0  0  0
 14 15  2  0  0  0
 15 16  1  0  0  0
 16 17  2  0  0  0
 26 29  1  0  0  0
 10 11  1  0  0  0
M  END
> <minimizedAffinity>
-8.44936

$$$$
4NUC_435_A_201


 29 31  0  0  0  0  0  0  0  0999 V2000
  -16.0653    8.1996   -8.2235 C   0  0  0  0  0  0  0  0  0  0  0  0
  -15.6609    7.4748   -7.0887 C   0  0  0  0  0  0  0  0  0  0  0  0
  -16.0317    6.1795   -6.8839 C   0  0  0  0  0  0  0  0  0  0  0  0
  -16.9203    5.5376   -7.7643 C   0  0  0  0  0  0  0  0  0  0  0  0
  -17.3745    6.3125   -8.8829 C   0  0  0  0  0  0  0  0  0  0  0  0
  -16.9714    7.6392   -9.0860 C   0  0  0  0  0  0  0  0  0  0  0  0
  -17.4302    3.9966   -7.4321 S   0  0  0  0  0  0  0  0  0  0  0  0
  -18.0663    3.9998   -6.1047 O   0  0  0  0  0  0  0  0  0  0  0  0
  -16.1872    3.2115   -7.6125 O   0  0  0  0  0  0  0  0  0  0  0  0
  -18.6260    3.5311   -8.4499 N   0  0  0  0  0  0  0  0  0  0  0  0
  -19.5444    3.5473   -8.0955 H   0  0  0  0  0  0  0  0  0  0  0  0
  -18.4724    3.1302   -9.7199 C   0  0  0  0  0  0  0  0  0  0  0  0
  -17.7154    2.0119   -9.9241 N   0  0  0  0  0  0  0  0  0  0  0  0
  -17.5176    1.5159  -11.1535 C   0  0  0  0  0  0  0  0  0  0  0  0
  -18.1152    2.1343  -12.2630 C   0  0  0  0  0  0  0  0  0  0  0  0
  -18.9024    3.2819  -12.0760 C   0  0  0  0  0  0  0  0  0  0  0  0
  -19.0895    3.7972  -10.7933 C   0  0  0  0  0  0  0  0  0  0  0  0
  -14.7584   10.0142   -7.5867 N   0  0  0  0  0  0  0  0  0  0  0  0
  -15.6677    9.5507   -8.3462 N   0  0  0  0  0  0  0  0  0  0  0  0
  -14.7621   13.7106   -7.4428 C   0  0  0  0  0  0  0  0  0  0  0  0
  -15.0943   12.3860   -7.2847 C   0  0  0  0  0  0  0  0  0  0  0  0
  -14.3531   11.3514   -7.8204 C   0  0  0  0  0  0  0  0  0  0  0  0
  -13.1431   11.6561   -8.4589 C   0  0  0  0  0  0  0  0  0  0  0  0
  -12.7469   13.0026   -8.5789 C   0  0  0  0  0  0  0  0  0  0  0  0
  -13.5706   14.0195   -8.0544 C   0  0  0  0  0  0  0  0  0  0  0  0
  -13.1793   15.3393   -8.1813 O   0  0  0  0  0  0  0  0  0  0  0  0
  -11.4957   13.3482   -9.2961 C   0  0  0  0  0  0  0  0  0  0  0  0
  -15.6415   14.7980   -6.8855 C   0  0  0  0  0  0  0  0  0  0  0  0
  -13.7191   16.0232   -7.8364 H   0  0  0  0  0  0  0  0  0  0  0  0
 20 21  2  0  0  0
 20 25  1  0  0  0
 20 28  1  0  0  0
 21 22  1  0  0  0
 22 23  2  0  0  0
 22 18  1  0  0  0
 23 24  1  0  0  0
 24 25  2  0  0  0
 24 27  1  0  0  0
 25 26  1  0  0  0
 18 19  2  0  0  0
 19  1  1  0  0  0
  1  2  2  0  0  0
  1  6  1  0  0  0
  2  3  1  0  0  0
  3  4  2  0  0  0
  4  5  1  0  0  0
  4  7  1  0  0  0
  5  6  2  0  0  0
  7  8  2  0  0  0
  7  9  2  0  0  0
  7 10  1  0  0  0
 10 12  1  0  0  0
 12 13  2  0  0  0
 12 17  1  0  0  0
 13 14  1  0  0  0
 14 15  2  0  0  0
 15 16  1  0  0  0
 16 17  2  0  0  0
 26 29  1  0  0  0
 10 11  1  0  0  0
M  END
> <minimizedAffinity>
-8.37407

$$$$
4NUC_435_A_201


 29 31  0  0  0  0  0  0  0  0999 V2000
  -15.9454    8.1155   -7.7114 C   0  0  0  0  0  0  0  0  0  0  0  0
  -16.8681    7.5051   -8.5790 C   0  0  0  0  0  0  0  0  0  0  0  0
  -17.2124    6.1914   -8.4657 C   0  0  0  0  0  0  0  0  0  0  0  0
  -16.5813    5.3608   -7.5231 C   0  0  0  0  0  0  0  0  0  0  0  0
  -15.5954    5.9845   -6.6883 C   0  0  0  0  0  0  0  0  0  0  0  0
  -15.2640    7.3409   -6.8088 C   0  0  0  0  0  0  0  0  0  0  0  0
  -16.9502    3.7462   -7.4791 S   0  0  0  0  0  0  0  0  0  0  0  0
  -15.6891    2.9882   -7.4384 O   0  0  0  0  0  0  0  0  0  0  0  0
  -17.8224    3.5934   -8.6664 O   0  0  0  0  0  0  0  0  0  0  0  0
  -17.7060    3.3444   -6.0827 N   0  0  0  0  0  0  0  0  0  0  0  0
  -18.4201    2.6691   -6.1407 H   0  0  0  0  0  0  0  0  0  0  0  0
  -17.4443    3.8484   -4.8683 C   0  0  0  0  0  0  0  0  0  0  0  0
  -18.2622    4.8501   -4.4292 N   0  0  0  0  0  0  0  0  0  0  0  0
  -18.0992    5.4075   -3.2212 C   0  0  0  0  0  0  0  0  0  0  0  0
  -17.0851    4.9455   -2.3675 C   0  0  0  0  0  0  0  0  0  0  0  0
  -16.2359    3.9125   -2.7959 C   0  0  0  0  0  0  0  0  0  0  0  0
  -16.4064    3.3498   -4.0608 C   0  0  0  0  0  0  0  0  0  0  0  0
  -14.5834    9.9660   -7.3551 N   0  0  0  0  0  0  0  0  0  0  0  0
  -15.6141    9.4744   -7.9161 N   0  0  0  0  0  0  0  0  0  0  0  0
  -14.8171   13.6572   -7.4173 C   0  0  0  0  0  0  0  0  0  0  0  0
  -15.0631   12.3257   -7.1797 C   0  0  0  0  0  0  0  0  0  0  0  0
  -14.2662   11.3102   -7.6701 C   0  0  0  0  0  0  0  0  0  0  0  0
  -13.0871   11.6526   -8.3461 C   0  0  0  0  0  0  0  0  0  0  0  0
  -12.7780   13.0120   -8.5480 C   0  0  0  0  0  0  0  0  0  0  0  0
  -13.6563   14.0041   -8.0664 C   0  0  0  0  0  0  0  0  0  0  0  0
  -13.3505   15.3362   -8.2735 O   0  0  0  0  0  0  0  0  0  0  0  0
  -11.5613   13.3931   -9.3056 C   0  0  0  0  0  0  0  0  0  0  0  0
  -15.7550   14.7180   -6.9059 C   0  0  0  0  0  0  0  0  0  0  0  0
  -13.9271   16.0039   -7.9577 H   0  0  0  0  0  0  0  0  0  0  0  0
 20 21  2  0  0  0
 20 25  1  0  0  0
 20 28  1  0  0  0
 21 22  1  0  0  0
 22 23  2  0  0  0
 22 18  1  0  0  0
 23 24  1  0  0  0
 24 25  2  0  0  0
 24 27  1  0  0  0
 25 26  1  0  0  0
 18 19  2  0  0  0
 19  1  1  0  0  0
  1  2  2  0  0  0
  1  6  1  0  0  0
  2  3  1  0  0  0
  3  4  2  0  0  0
  4  5  1  0  0  0
  4  7  1  0  0  0
  5  6  2  0  0  0
  7  8  2  0  0  0
  7  9  2  0  0  0
  7 10  1  0  0  0
 10 12  1  0  0  0
 12 13  2  0  0  0
 12 17  1  0  0  0
 13 14  1  0  0  0
 14 15  2  0  0  0
 15 16  1  0  0  0
 16 17  2  0  0  0
 26 29  1  0  0  0
 10 11  1  0  0  0
M  END
> <minimizedAffinity>
-8.30822

$$$$
4NUC_435_A_201


 29 31  0  0  0  0  0  0  0  0999 V2000
  -15.8524    8.4537   -6.1249 C   0  0  0  0  0  0  0  0  0  0  0  0
  -15.4024    7.3830   -6.9173 C   0  0  0  0  0  0  0  0  0  0  0  0
  -15.7796    6.0951   -6.6801 C   0  0  0  0  0  0  0  0  0  0  0  0
  -16.5698    5.7708   -5.5633 C   0  0  0  0  0  0  0  0  0  0  0  0
  -16.9673    6.8675   -4.7282 C   0  0  0  0  0  0  0  0  0  0  0  0
  -16.5822    8.1882   -4.9954 C   0  0  0  0  0  0  0  0  0  0  0  0
  -16.9267    4.1841   -5.2470 S   0  0  0  0  0  0  0  0  0  0  0  0
  -18.3715    4.0820   -4.9850 O   0  0  0  0  0  0  0  0  0  0  0  0
  -15.9896    3.8678   -4.1444 O   0  0  0  0  0  0  0  0  0  0  0  0
  -16.6902    3.2445   -6.5676 N   0  0  0  0  0  0  0  0  0  0  0  0
  -17.3017    3.3810   -7.3270 H   0  0  0  0  0  0  0  0  0  0  0  0
  -15.7427    2.3071   -6.7121 C   0  0  0  0  0  0  0  0  0  0  0  0
  -14.6133    2.6737   -7.3869 N   0  0  0  0  0  0  0  0  0  0  0  0
  -13.5976    1.8181   -7.5677 C   0  0  0  0  0  0  0  0  0  0  0  0
  -13.6714    0.5207   -7.0365 C   0  0  0  0  0  0  0  0  0  0  0  0
  -14.8207    0.1239   -6.3342 C   0  0  0  0  0  0  0  0  0  0  0  0
  -15.8773    1.0188   -6.1645 C   0  0  0  0  0  0  0  0  0  0  0  0
  -14.6740    9.9601   -7.4472 N   0  0  0  0  0  0  0  0  0  0  0  0
  -15.3877    9.7572   -6.4138 N   0  0  0  0  0  0  0  0  0  0  0  0
  -14.8105   13.6567   -7.4237 C   0  0  0  0  0  0  0  0  0  0  0  0
  -15.0978   12.3268   -7.2269 C   0  0  0  0  0  0  0  0  0  0  0  0
  -14.3130   11.3028   -7.7191 C   0  0  0  0  0  0  0  0  0  0  0  0
  -13.1059   11.6300   -8.3517 C   0  0  0  0  0  0  0  0  0  0  0  0
  -12.7560   12.9853   -8.5105 C   0  0  0  0  0  0  0  0  0  0  0  0
  -13.6224   13.9884   -8.0299 C   0  0  0  0  0  0  0  0  0  0  0  0
  -13.2763   15.3165   -8.1946 O   0  0  0  0  0  0  0  0  0  0  0  0
  -11.5079   13.3523   -9.2225 C   0  0  0  0  0  0  0  0  0  0  0  0
  -15.7356   14.7292   -6.9134 C   0  0  0  0  0  0  0  0  0  0  0  0
  -13.8447   15.9914   -7.8791 H   0  0  0  0  0  0  0  0  0  0  0  0
 20 21  2  0  0  0
 20 25  1  0  0  0
 20 28  1  0  0  0
 21 22  1  0  0  0
 22 23  2  0  0  0
 22 18  1  0  0  0
 23 24  1  0  0  0
 24 25  2  0  0  0
 24 27  1  0  0  0
 25 26  1  0  0  0
 18 19  2  0  0  0
 19  1  1  0  0  0
  1  2  2  0  0  0
  1  6  1  0  0  0
  2  3  1  0  0  0
  3  4  2  0  0  0
  4  5  1  0  0  0
  4  7  1  0  0  0
  5  6  2  0  0  0
  7  8  2  0  0  0
  7  9  2  0  0  0
  7 10  1  0  0  0
 10 12  1  0  0  0
 12 13  2  0  0  0
 12 17  1  0  0  0
 13 14  1  0  0  0
 14 15  2  0  0  0
 15 16  1  0  0  0
 16 17  2  0  0  0
 26 29  1  0  0  0
 10 11  1  0  0  0
M  END
> <minimizedAffinity>
-8.06780

$$$$
4NUC_435_A_201


 29 31  0  0  0  0  0  0  0  0999 V2000
  -15.8778    8.4031   -6.2502 C   0  0  0  0  0  0  0  0  0  0  0  0
  -15.2732    7.3355   -6.9367 C   0  0  0  0  0  0  0  0  0  0  0  0
  -15.6121    6.0364   -6.7025 C   0  0  0  0  0  0  0  0  0  0  0  0
  -16.5248    5.7028   -5.6865 C   0  0  0  0  0  0  0  0  0  0  0  0
  -17.0844    6.8006   -4.9517 C   0  0  0  0  0  0  0  0  0  0  0  0
  -16.7354    8.1319   -5.2158 C   0  0  0  0  0  0  0  0  0  0  0  0
  -16.8387    4.1091   -5.3601 S   0  0  0  0  0  0  0  0  0  0  0  0
  -18.2424    3.9961   -4.9316 O   0  0  0  0  0  0  0  0  0  0  0  0
  -15.7776    3.7766   -4.3816 O   0  0  0  0  0  0  0  0  0  0  0  0
  -16.7576    3.1948   -6.7166 N   0  0  0  0  0  0  0  0  0  0  0  0
  -15.9410    2.6603   -6.8457 H   0  0  0  0  0  0  0  0  0  0  0  0
  -17.6982    3.1056   -7.6678 C   0  0  0  0  0  0  0  0  0  0  0  0
  -18.3203    1.8976   -7.8056 N   0  0  0  0  0  0  0  0  0  0  0  0
  -19.2893    1.7091   -8.7122 C   0  0  0  0  0  0  0  0  0  0  0  0
  -19.7017    2.7740   -9.5286 C   0  0  0  0  0  0  0  0  0  0  0  0
  -19.0800    4.0265   -9.4003 C   0  0  0  0  0  0  0  0  0  0  0  0
  -18.0629    4.2069   -8.4629 C   0  0  0  0  0  0  0  0  0  0  0  0
  -14.5869    9.9279   -7.4398 N   0  0  0  0  0  0  0  0  0  0  0  0
  -15.4463    9.7210   -6.5248 N   0  0  0  0  0  0  0  0  0  0  0  0
  -14.8154   13.6199   -7.4163 C   0  0  0  0  0  0  0  0  0  0  0  0
  -15.0672   12.2833   -7.2158 C   0  0  0  0  0  0  0  0  0  0  0  0
  -14.2626   11.2789   -7.7162 C   0  0  0  0  0  0  0  0  0  0  0  0
  -13.0709   11.6358   -8.3621 C   0  0  0  0  0  0  0  0  0  0  0  0
  -12.7567   12.9992   -8.5252 C   0  0  0  0  0  0  0  0  0  0  0  0
  -13.6426   13.9807   -8.0356 C   0  0  0  0  0  0  0  0  0  0  0  0
  -13.3316   15.3170   -8.2046 O   0  0  0  0  0  0  0  0  0  0  0  0
  -11.5261   13.3968   -9.2510 C   0  0  0  0  0  0  0  0  0  0  0  0
  -15.7613   14.6693   -6.8964 C   0  0  0  0  0  0  0  0  0  0  0  0
  -13.9132   15.9776   -7.8832 H   0  0  0  0  0  0  0  0  0  0  0  0
 20 21  2  0  0  0
 20 25  1  0  0  0
 20 28  1  0  0  0
 21 22  1  0  0  0
 22 23  2  0  0  0
 22 18  1  0  0  0
 23 24  1  0  0  0
 24 25  2  0  0  0
 24 27  1  0  0  0
 25 26  1  0  0  0
 18 19  2  0  0  0
 19  1  1  0  0  0
  1  2  2  0  0  0
  1  6  1  0  0  0
  2  3  1  0  0  0
  3  4  2  0  0  0
  4  5  1  0  0  0
  4  7  1  0  0  0
  5  6  2  0  0  0
  7  8  2  0  0  0
  7  9  2  0  0  0
  7 10  1  0  0  0
 10 12  1  0  0  0
 12 13  2  0  0  0
 12 17  1  0  0  0
 13 14  1  0  0  0
 14 15  2  0  0  0
 15 16  1  0  0  0
 16 17  2  0  0  0
 26 29  1  0  0  0
 10 11  1  0  0  0
M  END
> <minimizedAffinity>
-7.94682

$$$$
4NUC_435_A_201


 29 31  0  0  0  0  0  0  0  0999 V2000
  -15.7538    7.9194   -6.0535 C   0  0  0  0  0  0  0  0  0  0  0  0
  -15.1512    6.8399   -6.7230 C   0  0  0  0  0  0  0  0  0  0  0  0
  -15.5810    5.5563   -6.5657 C   0  0  0  0  0  0  0  0  0  0  0  0
  -16.5971    5.2454   -5.6451 C   0  0  0  0  0  0  0  0  0  0  0  0
  -17.1577    6.3508   -4.9226 C   0  0  0  0  0  0  0  0  0  0  0  0
  -16.7133    7.6669   -5.1076 C   0  0  0  0  0  0  0  0  0  0  0  0
  -17.0266    3.6634   -5.4044 S   0  0  0  0  0  0  0  0  0  0  0  0
  -15.8875    2.8148   -5.7905 O   0  0  0  0  0  0  0  0  0  0  0  0
  -18.2781    3.5574   -6.1894 O   0  0  0  0  0  0  0  0  0  0  0  0
  -17.2478    3.3403   -3.8141 N   0  0  0  0  0  0  0  0  0  0  0  0
  -18.1476    3.0505   -3.5390 H   0  0  0  0  0  0  0  0  0  0  0  0
  -16.3194    3.4332   -2.8514 C   0  0  0  0  0  0  0  0  0  0  0  0
  -16.5477    4.3482   -1.8635 N   0  0  0  0  0  0  0  0  0  0  0  0
  -15.6922    4.5049   -0.8437 C   0  0  0  0  0  0  0  0  0  0  0  0
  -14.5440    3.7013   -0.7626 C   0  0  0  0  0  0  0  0  0  0  0  0
  -14.2919    2.7500   -1.7642 C   0  0  0  0  0  0  0  0  0  0  0  0
  -15.1824    2.6057   -2.8282 C   0  0  0  0  0  0  0  0  0  0  0  0
  -15.3234    9.7804   -7.3793 N   0  0  0  0  0  0  0  0  0  0  0  0
  -15.2273    9.2177   -6.2424 N   0  0  0  0  0  0  0  0  0  0  0  0
  -13.1195   12.6172   -8.2618 C   0  0  0  0  0  0  0  0  0  0  0  0
  -13.6449   11.3564   -8.1058 C   0  0  0  0  0  0  0  0  0  0  0  0
  -14.8480   11.1115   -7.4740 C   0  0  0  0  0  0  0  0  0  0  0  0
  -15.6275   12.2051   -7.0726 C   0  0  0  0  0  0  0  0  0  0  0  0
  -15.1410   13.5110   -7.2783 C   0  0  0  0  0  0  0  0  0  0  0  0
  -13.8820   13.6969   -7.8849 C   0  0  0  0  0  0  0  0  0  0  0  0
  -13.4074   14.9808   -8.0780 O   0  0  0  0  0  0  0  0  0  0  0  0
  -15.9281   14.6791   -6.8141 C   0  0  0  0  0  0  0  0  0  0  0  0
  -11.7742   12.8176   -8.9072 C   0  0  0  0  0  0  0  0  0  0  0  0
  -12.5720   15.1159   -8.4802 H   0  0  0  0  0  0  0  0  0  0  0  0
 20 21  2  0  0  0
 20 25  1  0  0  0
 20 28  1  0  0  0
 21 22  1  0  0  0
 22 23  2  0  0  0
 22 18  1  0  0  0
 23 24  1  0  0  0
 24 25  2  0  0  0
 24 27  1  0  0  0
 25 26  1  0  0  0
 18 19  2  0  0  0
 19  1  1  0  0  0
  1  2  2  0  0  0
  1  6  1  0  0  0
  2  3  1  0  0  0
  3  4  2  0  0  0
  4  5  1  0  0  0
  4  7  1  0  0  0
  5  6  2  0  0  0
  7  8  2  0  0  0
  7  9  2  0  0  0
  7 10  1  0  0  0
 10 12  1  0  0  0
 12 13  2  0  0  0
 12 17  1  0  0  0
 13 14  1  0  0  0
 14 15  2  0  0  0
 15 16  1  0  0  0
 16 17  2  0  0  0
 26 29  1  0  0  0
 10 11  1  0  0  0
M  END
> <minimizedAffinity>
-7.88134

$$$$
4NUC_435_A_201


 29 31  0  0  0  0  0  0  0  0999 V2000
  -15.9257    8.2933   -7.6965 C   0  0  0  0  0  0  0  0  0  0  0  0
  -15.4985    7.4845   -6.6288 C   0  0  0  0  0  0  0  0  0  0  0  0
  -15.8220    6.1634   -6.5436 C   0  0  0  0  0  0  0  0  0  0  0  0
  -16.6836    5.5715   -7.4838 C   0  0  0  0  0  0  0  0  0  0  0  0
  -17.1624    6.4268   -8.5312 C   0  0  0  0  0  0  0  0  0  0  0  0
  -16.8078    7.7802   -8.6117 C   0  0  0  0  0  0  0  0  0  0  0  0
  -17.1374    3.9893   -7.2946 S   0  0  0  0  0  0  0  0  0  0  0  0
  -16.2887    3.1610   -8.1666 O   0  0  0  0  0  0  0  0  0  0  0  0
  -18.5901    4.0458   -7.5780 O   0  0  0  0  0  0  0  0  0  0  0  0
  -16.8080    3.4504   -5.7834 N   0  0  0  0  0  0  0  0  0  0  0  0
  -15.8901    3.1387   -5.6116 H   0  0  0  0  0  0  0  0  0  0  0  0
  -17.6702    3.3938   -4.7584 C   0  0  0  0  0  0  0  0  0  0  0  0
  -17.9733    4.5754   -4.1442 N   0  0  0  0  0  0  0  0  0  0  0  0
  -18.8401    4.6310   -3.1234 C   0  0  0  0  0  0  0  0  0  0  0  0
  -19.4768    3.4610   -2.6803 C   0  0  0  0  0  0  0  0  0  0  0  0
  -19.1846    2.2357   -3.3008 C   0  0  0  0  0  0  0  0  0  0  0  0
  -18.2702    2.1881   -4.3531 C   0  0  0  0  0  0  0  0  0  0  0  0
  -14.3525   10.0053   -7.7169 N   0  0  0  0  0  0  0  0  0  0  0  0
  -15.5777    9.6635   -7.6947 N   0  0  0  0  0  0  0  0  0  0  0  0
  -12.6400   13.1511   -8.6419 C   0  0  0  0  0  0  0  0  0  0  0  0
  -12.9686   11.8242   -8.4952 C   0  0  0  0  0  0  0  0  0  0  0  0
  -14.0792   11.3931   -7.7969 C   0  0  0  0  0  0  0  0  0  0  0  0
  -14.9776   12.3526   -7.3106 C   0  0  0  0  0  0  0  0  0  0  0  0
  -14.6972   13.7197   -7.5029 C   0  0  0  0  0  0  0  0  0  0  0  0
  -13.5214   14.0999   -8.1815 C   0  0  0  0  0  0  0  0  0  0  0  0
  -13.2488   15.4432   -8.3612 O   0  0  0  0  0  0  0  0  0  0  0  0
  -15.6095   14.7504   -6.9510 C   0  0  0  0  0  0  0  0  0  0  0  0
  -11.3837   13.5590   -9.3641 C   0  0  0  0  0  0  0  0  0  0  0  0
  -12.4702   15.7071   -8.8108 H   0  0  0  0  0  0  0  0  0  0  0  0
 20 21  2  0  0  0
 20 25  1  0  0  0
 20 28  1  0  0  0
 21 22  1  0  0  0
 22 23  2  0  0  0
 22 18  1  0  0  0
 23 24  1  0  0  0
 24 25  2  0  0  0
 24 27  1  0  0  0
 25 26  1  0  0  0
 18 19  2  0  0  0
 19  1  1  0  0  0
  1  2  2  0  0  0
  1  6  1  0  0  0
  2  3  1  0  0  0
  3  4  2  0  0  0
  4  5  1  0  0  0
  4  7  1  0  0  0
  5  6  2  0  0  0
  7  8  2  0  0  0
  7  9  2  0  0  0
  7 10  1  0  0  0
 10 12  1  0  0  0
 12 13  2  0  0  0
 12 17  1  0  0  0
 13 14  1  0  0  0
 14 15  2  0  0  0
 15 16  1  0  0  0
 16 17  2  0  0  0
 26 29  1  0  0  0
 10 11  1  0  0  0
M  END
> <minimizedAffinity>
-7.69685

$$$$
4NUC_435_A_201


 29 31  0  0  0  0  0  0  0  0999 V2000
  -15.9871    8.4625   -6.1646 C   0  0  0  0  0  0  0  0  0  0  0  0
  -15.6502    7.4507   -7.0808 C   0  0  0  0  0  0  0  0  0  0  0  0
  -16.0605    6.1608   -6.9220 C   0  0  0  0  0  0  0  0  0  0  0  0
  -16.7682    5.7672   -5.7727 C   0  0  0  0  0  0  0  0  0  0  0  0
  -17.0483    6.7993   -4.8164 C   0  0  0  0  0  0  0  0  0  0  0  0
  -16.6312    8.1241   -5.0029 C   0  0  0  0  0  0  0  0  0  0  0  0
  -17.1644    4.1722   -5.5625 S   0  0  0  0  0  0  0  0  0  0  0  0
  -18.2991    4.1005   -4.6277 O   0  0  0  0  0  0  0  0  0  0  0  0
  -15.8718    3.5828   -5.1433 O   0  0  0  0  0  0  0  0  0  0  0  0
  -17.7413    3.5131   -6.9464 N   0  0  0  0  0  0  0  0  0  0  0  0
  -18.3395    4.0737   -7.4915 H   0  0  0  0  0  0  0  0  0  0  0  0
  -17.4758    2.2824   -7.4071 C   0  0  0  0  0  0  0  0  0  0  0  0
  -16.4298    2.1642   -8.2773 N   0  0  0  0  0  0  0  0  0  0  0  0
  -16.0686    0.9752   -8.7795 C   0  0  0  0  0  0  0  0  0  0  0  0
  -16.7555   -0.1865   -8.3932 C   0  0  0  0  0  0  0  0  0  0  0  0
  -17.8306   -0.0894   -7.4952 C   0  0  0  0  0  0  0  0  0  0  0  0
  -18.2064    1.1554   -6.9900 C   0  0  0  0  0  0  0  0  0  0  0  0
  -14.6768    9.9880   -7.3318 N   0  0  0  0  0  0  0  0  0  0  0  0
  -15.4933    9.7693   -6.3810 N   0  0  0  0  0  0  0  0  0  0  0  0
  -12.7352   12.8787   -8.5799 C   0  0  0  0  0  0  0  0  0  0  0  0
  -13.1714   11.6037   -8.3078 C   0  0  0  0  0  0  0  0  0  0  0  0
  -14.2878   11.3340   -7.5412 C   0  0  0  0  0  0  0  0  0  0  0  0
  -15.0809   12.4076   -7.1136 C   0  0  0  0  0  0  0  0  0  0  0  0
  -14.6909   13.7230   -7.4332 C   0  0  0  0  0  0  0  0  0  0  0  0
  -13.5132   13.9379   -8.1779 C   0  0  0  0  0  0  0  0  0  0  0  0
  -13.1325   15.2315   -8.4826 O   0  0  0  0  0  0  0  0  0  0  0  0
  -15.4892   14.8741   -6.9462 C   0  0  0  0  0  0  0  0  0  0  0  0
  -11.4766   13.1102   -9.3728 C   0  0  0  0  0  0  0  0  0  0  0  0
  -12.3517   15.3859   -8.9769 H   0  0  0  0  0  0  0  0  0  0  0  0
 20 21  2  0  0  0
 20 25  1  0  0  0
 20 28  1  0  0  0
 21 22  1  0  0  0
 22 23  2  0  0  0
 22 18  1  0  0  0
 23 24  1  0  0  0
 24 25  2  0  0  0
 24 27  1  0  0  0
 25 26  1  0  0  0
 18 19  2  0  0  0
 19  1  1  0  0  0
  1  2  2  0  0  0
  1  6  1  0  0  0
  2  3  1  0  0  0
  3  4  2  0  0  0
  4  5  1  0  0  0
  4  7  1  0  0  0
  5  6  2  0  0  0
  7  8  2  0  0  0
  7  9  2  0  0  0
  7 10  1  0  0  0
 10 12  1  0  0  0
 12 13  2  0  0  0
 12 17  1  0  0  0
 13 14  1  0  0  0
 14 15  2  0  0  0
 15 16  1  0  0  0
 16 17  2  0  0  0
 26 29  1  0  0  0
 10 11  1  0  0  0
M  END
> <minimizedAffinity>
-7.43972

$$$$
