1ONY_588_A_322


 47 48  0  0  0  0  0  0  0  0999 V2000
   33.5892   28.5776   20.8729 C   0  0  0  0  0  0  0  0  0  0  0  0
   32.2258   28.8896   21.1857 C   0  0  0  0  0  0  0  0  0  0  0  0
   31.5618   29.9602   20.5831 C   0  0  0  0  0  0  0  0  0  0  0  0
   32.2251   30.7727   19.6373 C   0  0  0  0  0  0  0  0  0  0  0  0
   33.5818   30.4918   19.3145 C   0  0  0  0  0  0  0  0  0  0  0  0
   34.2888   29.4068   19.9159 C   0  0  0  0  0  0  0  0  0  0  0  0
   34.6502   27.6528   22.8524 C   0  0  0  0  0  0  0  0  0  0  0  0
   34.8801   26.6939   23.6001 O   0  0  0  0  0  0  0  0  0  0  0  0
   34.1556   27.4710   21.5386 N   0  0  0  0  0  0  0  0  0  0  0  0
   34.1795   26.1767   20.8782 C   0  0  0  0  0  0  0  0  0  0  0  0
   32.9056   25.5116   20.6493 C   0  0  0  0  0  0  0  0  0  0  0  0
   32.7946   24.2586   20.0189 C   0  0  0  0  0  0  0  0  0  0  0  0
   33.9483   23.5893   19.5814 C   0  0  0  0  0  0  0  0  0  0  0  0
   35.2124   24.1800   19.7734 C   0  0  0  0  0  0  0  0  0  0  0  0
   35.3740   25.4495   20.4080 C   0  0  0  0  0  0  0  0  0  0  0  0
   36.7889   25.9195   20.5268 C   0  0  0  0  0  0  0  0  0  0  0  0
   37.5899   25.5349   19.7109 O   0  0  0  0  0  0  0  0  0  0  0  0
   37.2007   26.6501   21.4109 O   0  0  0  0  0  0  0  0  0  0  0  0
   36.6120   26.9716   22.0651 H   0  0  0  0  0  0  0  0  0  0  0  0
   35.9264   29.6912   23.1212 O   0  0  0  0  0  0  0  0  0  0  0  0
   34.9389   29.0840   23.4136 C   0  0  0  0  0  0  0  0  0  0  0  0
   34.0033   29.6297   24.2307 O   0  0  0  0  0  0  0  0  0  0  0  0
   36.5650   29.3029   22.5560 H   0  0  0  0  0  0  0  0  0  0  0  0
   35.7367   29.1673   19.5342 C   0  0  0  0  0  0  0  0  0  0  0  0
   35.9656   28.4540   18.1997 C   0  0  0  0  0  0  0  0  0  0  0  0
   37.4710   28.5035   17.8513 C   0  0  0  0  0  0  0  0  0  0  0  0
   37.8565   28.4715   16.6961 O   0  0  0  0  0  0  0  0  0  0  0  0
   38.3014   28.5805   18.9052 N   0  0  0  0  0  0  0  0  0  0  0  0
   37.9360   28.6034   19.8191 H   0  0  0  0  0  0  0  0  0  0  0  0
   39.2751   28.6140   18.7634 H   0  0  0  0  0  0  0  0  0  0  0  0
   31.4815   31.9104   18.9783 C   0  0  0  0  0  0  0  0  0  0  0  0
   31.1999   31.6864   17.4535 C   0  0  0  0  0  0  0  0  0  0  0  0
   30.3740   30.3941   17.1988 C   0  0  0  0  0  0  0  0  0  0  0  0
   29.2054   30.2958   17.5629 O   0  0  0  0  0  0  0  0  0  0  0  0
   31.0588   29.4287   16.5391 N   0  0  0  0  0  0  0  0  0  0  0  0
   31.9939   29.6001   16.2833 H   0  0  0  0  0  0  0  0  0  0  0  0
   30.4551   28.1355   16.1925 C   0  0  0  0  0  0  0  0  0  0  0  0
   30.9564   27.0521   17.1564 C   0  0  0  0  0  0  0  0  0  0  0  0
   32.4237   27.2652   17.5641 C   0  0  0  0  0  0  0  0  0  0  0  0
   33.3666   26.2677   16.8913 C   0  0  0  0  0  0  0  0  0  0  0  0
   32.6291   25.0319   16.3651 C   0  0  0  0  0  0  0  0  0  0  0  0
   30.5183   32.8624   16.9236 N   0  0  0  0  0  0  0  0  0  0  0  0
   30.7828   33.6521   17.5125 H   0  0  0  0  0  0  0  0  0  0  0  0
   30.8128   33.3362   15.2698 S   0  0  0  0  0  0  0  0  0  0  0  0
   30.7652   34.7623   15.3117 O   0  0  0  0  0  0  0  0  0  0  0  0
   29.8048   32.6422   14.5182 O   0  0  0  0  0  0  0  0  0  0  0  0
   32.4159   32.7529   14.7877 C   0  0  0  0  0  0  0  0  0  0  0  0
 20 21  1  0  0  0
 21 22  2  0  0  0
 21  7  1  0  0  0
  7  8  2  0  0  0
  7  9  1  0  0  0
  9  1  1  0  0  0
  9 10  1  0  0  0
  1  2  2  0  0  0
  1  6  1  0  0  0
  2  3  1  0  0  0
  3  4  2  0  0  0
  4  5  1  0  0  0
  4 31  1  0  0  0
  5  6  2  0  0  0
  6 24  1  0  0  0
 24 25  2  0  0  0
 25 26  1  0  0  0
 26 27  2  0  0  0
 26 28  1  0  0  0
 31 32  1  0  0  0
 32 42  1  0  0  0
 32 33  1  0  0  0
 42 44  1  0  0  0
 44 45  2  0  0  0
 44 46  2  0  0  0
 44 47  1  0  0  0
 33 34  2  0  0  0
 33 35  1  0  0  0
 35 37  1  0  0  0
 37 38  1  0  0  0
 38 39  1  0  0  0
 39 40  1  0  0  0
 40 41  1  0  0  0
 10 11  2  0  0  0
 10 15  1  0  0  0
 11 12  1  0  0  0
 12 13  2  0  0  0
 13 14  1  0  0  0
 14 15  2  0  0  0
 15 16  1  0  0  0
 16 17  2  0  0  0
 16 18  1  0  0  0
 20 23  1  0  0  0
 28 29  1  0  0  0
 28 30  1  0  0  0
 42 43  1  0  0  0
 35 36  1  0  0  0
 18 19  1  0  0  0
M  END
> <minimizedAffinity>
-7.50378

$$$$
1ONY_588_A_322


 47 48  0  0  0  0  0  0  0  0999 V2000
   33.5553   28.5996   20.8341 C   0  0  0  0  0  0  0  0  0  0  0  0
   32.1934   28.9239   21.1409 C   0  0  0  0  0  0  0  0  0  0  0  0
   31.5431   30.0031   20.5388 C   0  0  0  0  0  0  0  0  0  0  0  0
   32.2194   30.8125   19.5994 C   0  0  0  0  0  0  0  0  0  0  0  0
   33.5749   30.5193   19.2827 C   0  0  0  0  0  0  0  0  0  0  0  0
   34.2680   29.4252   19.8838 C   0  0  0  0  0  0  0  0  0  0  0  0
   34.5687   27.6500   22.8267 C   0  0  0  0  0  0  0  0  0  0  0  0
   34.7820   26.6815   23.5670 O   0  0  0  0  0  0  0  0  0  0  0  0
   34.1072   27.4851   21.4987 N   0  0  0  0  0  0  0  0  0  0  0  0
   34.1501   26.1998   20.8218 C   0  0  0  0  0  0  0  0  0  0  0  0
   32.8826   25.5454   20.5339 C   0  0  0  0  0  0  0  0  0  0  0  0
   32.7897   24.3018   19.8822 C   0  0  0  0  0  0  0  0  0  0  0  0
   33.9562   23.6318   19.4810 C   0  0  0  0  0  0  0  0  0  0  0  0
   35.2149   24.2124   19.7305 C   0  0  0  0  0  0  0  0  0  0  0  0
   35.3582   25.4721   20.3887 C   0  0  0  0  0  0  0  0  0  0  0  0
   36.7698   25.9321   20.5693 C   0  0  0  0  0  0  0  0  0  0  0  0
   37.6030   25.5420   19.7890 O   0  0  0  0  0  0  0  0  0  0  0  0
   37.1478   26.6597   21.4708 O   0  0  0  0  0  0  0  0  0  0  0  0
   36.5334   26.9853   22.0989 H   0  0  0  0  0  0  0  0  0  0  0  0
   35.7890   29.7235   23.0858 O   0  0  0  0  0  0  0  0  0  0  0  0
   34.8405   29.0740   23.4141 C   0  0  0  0  0  0  0  0  0  0  0  0
   33.9348   29.5630   24.2980 O   0  0  0  0  0  0  0  0  0  0  0  0
   36.4072   29.3741   22.4745 H   0  0  0  0  0  0  0  0  0  0  0  0
   35.7155   29.1729   19.5087 C   0  0  0  0  0  0  0  0  0  0  0  0
   35.9436   28.4430   18.1831 C   0  0  0  0  0  0  0  0  0  0  0  0
   37.4503   28.4796   17.8383 C   0  0  0  0  0  0  0  0  0  0  0  0
   37.8379   28.4505   16.6837 O   0  0  0  0  0  0  0  0  0  0  0  0
   38.2790   28.5422   18.8944 N   0  0  0  0  0  0  0  0  0  0  0  0
   37.9119   28.5634   19.8077 H   0  0  0  0  0  0  0  0  0  0  0  0
   39.2533   28.5669   18.7549 H   0  0  0  0  0  0  0  0  0  0  0  0
   31.4905   31.9599   18.9406 C   0  0  0  0  0  0  0  0  0  0  0  0
   31.2067   31.7402   17.4156 C   0  0  0  0  0  0  0  0  0  0  0  0
   30.3124   30.4935   17.1646 C   0  0  0  0  0  0  0  0  0  0  0  0
   30.7748   29.4524   16.7062 O   0  0  0  0  0  0  0  0  0  0  0  0
   29.0148   30.6727   17.5114 N   0  0  0  0  0  0  0  0  0  0  0  0
   28.7365   31.5438   17.8760 H   0  0  0  0  0  0  0  0  0  0  0  0
   28.0089   29.6130   17.3625 C   0  0  0  0  0  0  0  0  0  0  0  0
   27.0598   29.6233   18.5680 C   0  0  0  0  0  0  0  0  0  0  0  0
   27.5647   30.5305   19.7024 C   0  0  0  0  0  0  0  0  0  0  0  0
   26.4218   31.1898   20.4742 C   0  0  0  0  0  0  0  0  0  0  0  0
   26.4786   30.8840   21.9746 C   0  0  0  0  0  0  0  0  0  0  0  0
   30.5944   32.9479   16.8726 N   0  0  0  0  0  0  0  0  0  0  0  0
   30.9166   33.7292   17.4436 H   0  0  0  0  0  0  0  0  0  0  0  0
   30.8962   33.3728   15.2069 S   0  0  0  0  0  0  0  0  0  0  0  0
   30.9316   34.7998   15.2217 O   0  0  0  0  0  0  0  0  0  0  0  0
   29.8409   32.7245   14.4797 O   0  0  0  0  0  0  0  0  0  0  0  0
   32.4571   32.6885   14.7190 C   0  0  0  0  0  0  0  0  0  0  0  0
 20 21  1  0  0  0
 21 22  2  0  0  0
 21  7  1  0  0  0
  7  8  2  0  0  0
  7  9  1  0  0  0
  9  1  1  0  0  0
  9 10  1  0  0  0
  1  2  2  0  0  0
  1  6  1  0  0  0
  2  3  1  0  0  0
  3  4  2  0  0  0
  4  5  1  0  0  0
  4 31  1  0  0  0
  5  6  2  0  0  0
  6 24  1  0  0  0
 24 25  2  0  0  0
 25 26  1  0  0  0
 26 27  2  0  0  0
 26 28  1  0  0  0
 31 32  1  0  0  0
 32 42  1  0  0  0
 32 33  1  0  0  0
 42 44  1  0  0  0
 44 45  2  0  0  0
 44 46  2  0  0  0
 44 47  1  0  0  0
 33 34  2  0  0  0
 33 35  1  0  0  0
 35 37  1  0  0  0
 37 38  1  0  0  0
 38 39  1  0  0  0
 39 40  1  0  0  0
 40 41  1  0  0  0
 10 11  2  0  0  0
 10 15  1  0  0  0
 11 12  1  0  0  0
 12 13  2  0  0  0
 13 14  1  0  0  0
 14 15  2  0  0  0
 15 16  1  0  0  0
 16 17  2  0  0  0
 16 18  1  0  0  0
 20 23  1  0  0  0
 28 29  1  0  0  0
 28 30  1  0  0  0
 42 43  1  0  0  0
 35 36  1  0  0  0
 18 19  1  0  0  0
M  END
> <minimizedAffinity>
-7.28506

$$$$
1ONY_588_A_322


 47 48  0  0  0  0  0  0  0  0999 V2000
   33.6405   28.5378   20.9127 C   0  0  0  0  0  0  0  0  0  0  0  0
   32.2834   28.8560   21.2460 C   0  0  0  0  0  0  0  0  0  0  0  0
   31.6135   29.9263   20.6496 C   0  0  0  0  0  0  0  0  0  0  0  0
   32.2644   30.7324   19.6895 C   0  0  0  0  0  0  0  0  0  0  0  0
   33.6147   30.4451   19.3461 C   0  0  0  0  0  0  0  0  0  0  0  0
   34.3274   29.3602   19.9408 C   0  0  0  0  0  0  0  0  0  0  0  0
   34.7199   27.6151   22.8832 C   0  0  0  0  0  0  0  0  0  0  0  0
   34.9572   26.6569   23.6295 O   0  0  0  0  0  0  0  0  0  0  0  0
   34.2137   27.4321   21.5740 N   0  0  0  0  0  0  0  0  0  0  0  0
   34.2326   26.1373   20.9143 C   0  0  0  0  0  0  0  0  0  0  0  0
   32.9566   25.4748   20.6898 C   0  0  0  0  0  0  0  0  0  0  0  0
   32.8409   24.2217   20.0605 C   0  0  0  0  0  0  0  0  0  0  0  0
   33.9918   23.5496   19.6197 C   0  0  0  0  0  0  0  0  0  0  0  0
   35.2577   24.1377   19.8074 C   0  0  0  0  0  0  0  0  0  0  0  0
   35.4241   25.4072   20.4408 C   0  0  0  0  0  0  0  0  0  0  0  0
   36.8404   25.8742   20.5549 C   0  0  0  0  0  0  0  0  0  0  0  0
   37.6453   25.4597   19.7577 O   0  0  0  0  0  0  0  0  0  0  0  0
   37.2493   26.6310   21.4180 O   0  0  0  0  0  0  0  0  0  0  0  0
   36.6575   26.9763   22.0571 H   0  0  0  0  0  0  0  0  0  0  0  0
   36.0017   29.6506   23.1471 O   0  0  0  0  0  0  0  0  0  0  0  0
   35.0125   29.0469   23.4409 C   0  0  0  0  0  0  0  0  0  0  0  0
   34.0782   29.5973   24.2564 O   0  0  0  0  0  0  0  0  0  0  0  0
   36.6392   29.2591   22.5830 H   0  0  0  0  0  0  0  0  0  0  0  0
   35.7681   29.1139   19.5368 C   0  0  0  0  0  0  0  0  0  0  0  0
   35.9728   28.3935   18.2023 C   0  0  0  0  0  0  0  0  0  0  0  0
   37.4726   28.4360   17.8292 C   0  0  0  0  0  0  0  0  0  0  0  0
   37.8380   28.4279   16.6671 O   0  0  0  0  0  0  0  0  0  0  0  0
   38.3215   28.4791   18.8702 N   0  0  0  0  0  0  0  0  0  0  0  0
   37.9720   28.4837   19.7906 H   0  0  0  0  0  0  0  0  0  0  0  0
   39.2929   28.5061   18.7125 H   0  0  0  0  0  0  0  0  0  0  0  0
   31.5142   31.8699   19.0376 C   0  0  0  0  0  0  0  0  0  0  0  0
   30.6125   31.4291   17.8346 C   0  0  0  0  0  0  0  0  0  0  0  0
   29.2205   30.9228   18.3068 C   0  0  0  0  0  0  0  0  0  0  0  0
   28.7547   31.2450   19.3963 O   0  0  0  0  0  0  0  0  0  0  0  0
   28.5937   30.1272   17.4064 N   0  0  0  0  0  0  0  0  0  0  0  0
   29.0451   29.9265   16.5548 H   0  0  0  0  0  0  0  0  0  0  0  0
   27.2649   29.5540   17.6564 C   0  0  0  0  0  0  0  0  0  0  0  0
   27.3588   28.0232   17.7025 C   0  0  0  0  0  0  0  0  0  0  0  0
   26.3102   27.3454   16.8049 C   0  0  0  0  0  0  0  0  0  0  0  0
   25.0097   27.0469   17.5507 C   0  0  0  0  0  0  0  0  0  0  0  0
   25.2578   26.5263   18.9703 C   0  0  0  0  0  0  0  0  0  0  0  0
   30.4815   32.5498   16.9099 N   0  0  0  0  0  0  0  0  0  0  0  0
   31.1673   33.2508   17.1905 H   0  0  0  0  0  0  0  0  0  0  0  0
   30.7076   32.2675   15.2025 S   0  0  0  0  0  0  0  0  0  0  0  0
   29.7164   33.0909   14.5881 O   0  0  0  0  0  0  0  0  0  0  0  0
   30.5934   30.8428   15.0614 O   0  0  0  0  0  0  0  0  0  0  0  0
   32.3453   32.7765   14.7536 C   0  0  0  0  0  0  0  0  0  0  0  0
 20 21  1  0  0  0
 21 22  2  0  0  0
 21  7  1  0  0  0
  7  8  2  0  0  0
  7  9  1  0  0  0
  9  1  1  0  0  0
  9 10  1  0  0  0
  1  2  2  0  0  0
  1  6  1  0  0  0
  2  3  1  0  0  0
  3  4  2  0  0  0
  4  5  1  0  0  0
  4 31  1  0  0  0
  5  6  2  0  0  0
  6 24  1  0  0  0
 24 25  2  0  0  0
 25 26  1  0  0  0
 26 27  2  0  0  0
 26 28  1  0  0  0
 31 32  1  0  0  0
 32 42  1  0  0  0
 32 33  1  0  0  0
 42 44  1  0  0  0
 44 45  2  0  0  0
 44 46  2  0  0  0
 44 47  1  0  0  0
 33 34  2  0  0  0
 33 35  1  0  0  0
 35 37  1  0  0  0
 37 38  1  0  0  0
 38 39  1  0  0  0
 39 40  1  0  0  0
 40 41  1  0  0  0
 10 11  2  0  0  0
 10 15  1  0  0  0
 11 12  1  0  0  0
 12 13  2  0  0  0
 13 14  1  0  0  0
 14 15  2  0  0  0
 15 16  1  0  0  0
 16 17  2  0  0  0
 16 18  1  0  0  0
 20 23  1  0  0  0
 28 29  1  0  0  0
 28 30  1  0  0  0
 42 43  1  0  0  0
 35 36  1  0  0  0
 18 19  1  0  0  0
M  END
> <minimizedAffinity>
-6.58966

$$$$
1ONY_588_A_322


 47 48  0  0  0  0  0  0  0  0999 V2000
   33.5735   28.4795   20.8467 C   0  0  0  0  0  0  0  0  0  0  0  0
   32.2000   28.8083   21.0905 C   0  0  0  0  0  0  0  0  0  0  0  0
   31.5602   29.8417   20.4027 C   0  0  0  0  0  0  0  0  0  0  0  0
   32.2592   30.5982   19.4362 C   0  0  0  0  0  0  0  0  0  0  0  0
   33.6263   30.2998   19.1804 C   0  0  0  0  0  0  0  0  0  0  0  0
   34.3091   29.2520   19.8695 C   0  0  0  0  0  0  0  0  0  0  0  0
   34.5213   27.6625   22.9284 C   0  0  0  0  0  0  0  0  0  0  0  0
   34.7180   26.7420   23.7318 O   0  0  0  0  0  0  0  0  0  0  0  0
   34.1134   27.4138   21.5959 N   0  0  0  0  0  0  0  0  0  0  0  0
   34.1982   26.0921   20.9978 C   0  0  0  0  0  0  0  0  0  0  0  0
   32.9571   25.3576   20.8034 C   0  0  0  0  0  0  0  0  0  0  0  0
   32.9054   24.0722   20.2336 C   0  0  0  0  0  0  0  0  0  0  0  0
   34.0894   23.4379   19.8260 C   0  0  0  0  0  0  0  0  0  0  0  0
   35.3242   24.0959   19.9870 C   0  0  0  0  0  0  0  0  0  0  0  0
   35.4258   25.4003   20.5602 C   0  0  0  0  0  0  0  0  0  0  0  0
   36.8169   25.9416   20.6535 C   0  0  0  0  0  0  0  0  0  0  0  0
   37.1231   26.5654   21.6395 O   0  0  0  0  0  0  0  0  0  0  0  0
   37.6642   25.8181   19.7864 O   0  0  0  0  0  0  0  0  0  0  0  0
   37.4681   25.3410   19.0042 H   0  0  0  0  0  0  0  0  0  0  0  0
   33.9977   29.6531   24.2010 O   0  0  0  0  0  0  0  0  0  0  0  0
   34.7525   29.1222   23.4410 C   0  0  0  0  0  0  0  0  0  0  0  0
   35.8692   29.7608   23.0098 O   0  0  0  0  0  0  0  0  0  0  0  0
   33.2299   29.2010   24.4912 H   0  0  0  0  0  0  0  0  0  0  0  0
   35.7696   28.9916   19.5558 C   0  0  0  0  0  0  0  0  0  0  0  0
   36.0730   28.5265   18.1297 C   0  0  0  0  0  0  0  0  0  0  0  0
   37.6031   28.5392   17.9082 C   0  0  0  0  0  0  0  0  0  0  0  0
   38.0873   28.3247   16.8111 O   0  0  0  0  0  0  0  0  0  0  0  0
   38.3389   28.7981   19.0026 N   0  0  0  0  0  0  0  0  0  0  0  0
   37.8956   28.9646   19.8658 H   0  0  0  0  0  0  0  0  0  0  0  0
   39.3212   28.8214   18.9412 H   0  0  0  0  0  0  0  0  0  0  0  0
   31.5420   31.6953   18.6853 C   0  0  0  0  0  0  0  0  0  0  0  0
   31.0119   31.2593   17.2770 C   0  0  0  0  0  0  0  0  0  0  0  0
   32.1495   30.7048   16.3741 C   0  0  0  0  0  0  0  0  0  0  0  0
   32.9791   31.4473   15.8563 O   0  0  0  0  0  0  0  0  0  0  0  0
   32.1333   29.3564   16.2403 N   0  0  0  0  0  0  0  0  0  0  0  0
   31.4293   28.8421   16.6976 H   0  0  0  0  0  0  0  0  0  0  0  0
   33.1291   28.6352   15.4370 C   0  0  0  0  0  0  0  0  0  0  0  0
   33.2852   27.2030   15.9649 C   0  0  0  0  0  0  0  0  0  0  0  0
   32.7777   27.0531   17.4088 C   0  0  0  0  0  0  0  0  0  0  0  0
   31.5123   26.2001   17.4964 C   0  0  0  0  0  0  0  0  0  0  0  0
   30.4809   26.7849   18.4672 C   0  0  0  0  0  0  0  0  0  0  0  0
   29.9525   30.2728   17.4582 N   0  0  0  0  0  0  0  0  0  0  0  0
   29.3529   30.6126   18.2101 H   0  0  0  0  0  0  0  0  0  0  0  0
   28.9139   29.8905   16.1086 S   0  0  0  0  0  0  0  0  0  0  0  0
   27.6028   29.9108   16.6728 O   0  0  0  0  0  0  0  0  0  0  0  0
   29.4234   28.6427   15.6125 O   0  0  0  0  0  0  0  0  0  0  0  0
   29.1079   31.1427   14.8689 C   0  0  0  0  0  0  0  0  0  0  0  0
 20 21  1  0  0  0
 21 22  2  0  0  0
 21  7  1  0  0  0
  7  8  2  0  0  0
  7  9  1  0  0  0
  9  1  1  0  0  0
  9 10  1  0  0  0
  1  2  2  0  0  0
  1  6  1  0  0  0
  2  3  1  0  0  0
  3  4  2  0  0  0
  4  5  1  0  0  0
  4 31  1  0  0  0
  5  6  2  0  0  0
  6 24  1  0  0  0
 24 25  2  0  0  0
 25 26  1  0  0  0
 26 27  2  0  0  0
 26 28  1  0  0  0
 31 32  1  0  0  0
 32 42  1  0  0  0
 32 33  1  0  0  0
 42 44  1  0  0  0
 44 45  2  0  0  0
 44 46  2  0  0  0
 44 47  1  0  0  0
 33 34  2  0  0  0
 33 35  1  0  0  0
 35 37  1  0  0  0
 37 38  1  0  0  0
 38 39  1  0  0  0
 39 40  1  0  0  0
 40 41  1  0  0  0
 10 11  2  0  0  0
 10 15  1  0  0  0
 11 12  1  0  0  0
 12 13  2  0  0  0
 13 14  1  0  0  0
 14 15  2  0  0  0
 15 16  1  0  0  0
 16 17  2  0  0  0
 16 18  1  0  0  0
 20 23  1  0  0  0
 28 29  1  0  0  0
 28 30  1  0  0  0
 42 43  1  0  0  0
 35 36  1  0  0  0
 18 19  1  0  0  0
M  END
> <minimizedAffinity>
-6.41364

$$$$
1ONY_588_A_322


 47 48  0  0  0  0  0  0  0  0999 V2000
   33.3361   28.5372   20.9190 C   0  0  0  0  0  0  0  0  0  0  0  0
   31.9376   28.6484   21.2120 C   0  0  0  0  0  0  0  0  0  0  0  0
   31.1511   29.6617   20.6601 C   0  0  0  0  0  0  0  0  0  0  0  0
   31.7209   30.6146   19.7870 C   0  0  0  0  0  0  0  0  0  0  0  0
   33.1088   30.5339   19.4857 C   0  0  0  0  0  0  0  0  0  0  0  0
   33.9398   29.5119   20.0368 C   0  0  0  0  0  0  0  0  0  0  0  0
   34.4975   27.6395   22.8541 C   0  0  0  0  0  0  0  0  0  0  0  0
   34.8390   26.6758   23.5513 O   0  0  0  0  0  0  0  0  0  0  0  0
   34.0294   27.4714   21.5288 N   0  0  0  0  0  0  0  0  0  0  0  0
   34.2076   26.2265   20.8005 C   0  0  0  0  0  0  0  0  0  0  0  0
   33.0185   25.4429   20.5010 C   0  0  0  0  0  0  0  0  0  0  0  0
   33.0576   24.2229   19.8012 C   0  0  0  0  0  0  0  0  0  0  0  0
   34.2862   23.7067   19.3602 C   0  0  0  0  0  0  0  0  0  0  0  0
   35.4744   24.4176   19.6184 C   0  0  0  0  0  0  0  0  0  0  0  0
   35.4837   25.6591   20.3248 C   0  0  0  0  0  0  0  0  0  0  0  0
   36.8364   26.2704   20.5077 C   0  0  0  0  0  0  0  0  0  0  0  0
   37.6235   26.2010   19.5961 O   0  0  0  0  0  0  0  0  0  0  0  0
   37.2135   26.8170   21.5294 O   0  0  0  0  0  0  0  0  0  0  0  0
   36.6339   26.8924   22.2618 H   0  0  0  0  0  0  0  0  0  0  0  0
   33.8314   29.4565   24.3070 O   0  0  0  0  0  0  0  0  0  0  0  0
   34.6134   29.0626   23.4930 C   0  0  0  0  0  0  0  0  0  0  0  0
   35.6626   29.8314   23.1073 O   0  0  0  0  0  0  0  0  0  0  0  0
   33.1110   28.9156   24.5647 H   0  0  0  0  0  0  0  0  0  0  0  0
   35.4139   29.4880   19.6819 C   0  0  0  0  0  0  0  0  0  0  0  0
   35.7536   28.9882   18.2759 C   0  0  0  0  0  0  0  0  0  0  0  0
   37.2508   29.2509   17.9936 C   0  0  0  0  0  0  0  0  0  0  0  0
   37.8642   28.6004   17.1661 O   0  0  0  0  0  0  0  0  0  0  0  0
   37.8082   30.2329   18.7224 N   0  0  0  0  0  0  0  0  0  0  0  0
   37.2658   30.7276   19.3784 H   0  0  0  0  0  0  0  0  0  0  0  0
   38.7589   30.4575   18.6004 H   0  0  0  0  0  0  0  0  0  0  0  0
   30.8477   31.6878   19.1807 C   0  0  0  0  0  0  0  0  0  0  0  0
   30.2842   31.3236   17.7650 C   0  0  0  0  0  0  0  0  0  0  0  0
   30.9191   32.1951   16.6450 C   0  0  0  0  0  0  0  0  0  0  0  0
   32.0961   32.0665   16.3198 O   0  0  0  0  0  0  0  0  0  0  0  0
   30.0544   33.0703   16.0769 N   0  0  0  0  0  0  0  0  0  0  0  0
   29.1256   33.0991   16.4021 H   0  0  0  0  0  0  0  0  0  0  0  0
   30.4542   33.9773   14.9933 C   0  0  0  0  0  0  0  0  0  0  0  0
   30.6070   35.4035   15.5380 C   0  0  0  0  0  0  0  0  0  0  0  0
   31.1670   36.3749   14.4857 C   0  0  0  0  0  0  0  0  0  0  0  0
   32.6195   36.0671   14.1224 C   0  0  0  0  0  0  0  0  0  0  0  0
   33.6062   37.0175   14.8087 C   0  0  0  0  0  0  0  0  0  0  0  0
   30.5090   29.9030   17.5208 N   0  0  0  0  0  0  0  0  0  0  0  0
   30.8710   29.5042   18.3871 H   0  0  0  0  0  0  0  0  0  0  0  0
   29.1646   28.9081   17.0221 S   0  0  0  0  0  0  0  0  0  0  0  0
   29.3490   27.6965   17.7540 O   0  0  0  0  0  0  0  0  0  0  0  0
   29.2701   28.8626   15.5904 O   0  0  0  0  0  0  0  0  0  0  0  0
   27.6561   29.7201   17.4779 C   0  0  0  0  0  0  0  0  0  0  0  0
 20 21  1  0  0  0
 21 22  2  0  0  0
 21  7  1  0  0  0
  7  8  2  0  0  0
  7  9  1  0  0  0
  9  1  1  0  0  0
  9 10  1  0  0  0
  1  2  2  0  0  0
  1  6  1  0  0  0
  2  3  1  0  0  0
  3  4  2  0  0  0
  4  5  1  0  0  0
  4 31  1  0  0  0
  5  6  2  0  0  0
  6 24  1  0  0  0
 24 25  2  0  0  0
 25 26  1  0  0  0
 26 27  2  0  0  0
 26 28  1  0  0  0
 31 32  1  0  0  0
 32 42  1  0  0  0
 32 33  1  0  0  0
 42 44  1  0  0  0
 44 45  2  0  0  0
 44 46  2  0  0  0
 44 47  1  0  0  0
 33 34  2  0  0  0
 33 35  1  0  0  0
 35 37  1  0  0  0
 37 38  1  0  0  0
 38 39  1  0  0  0
 39 40  1  0  0  0
 40 41  1  0  0  0
 10 11  2  0  0  0
 10 15  1  0  0  0
 11 12  1  0  0  0
 12 13  2  0  0  0
 13 14  1  0  0  0
 14 15  2  0  0  0
 15 16  1  0  0  0
 16 17  2  0  0  0
 16 18  1  0  0  0
 20 23  1  0  0  0
 28 29  1  0  0  0
 28 30  1  0  0  0
 42 43  1  0  0  0
 35 36  1  0  0  0
 18 19  1  0  0  0
M  END
> <minimizedAffinity>
-6.28561

$$$$
1ONY_588_A_322


 47 48  0  0  0  0  0  0  0  0999 V2000
   33.4325   28.5260   20.7325 C   0  0  0  0  0  0  0  0  0  0  0  0
   32.0782   28.8771   21.0435 C   0  0  0  0  0  0  0  0  0  0  0  0
   31.4595   29.9906   20.4712 C   0  0  0  0  0  0  0  0  0  0  0  0
   32.1613   30.8091   19.5588 C   0  0  0  0  0  0  0  0  0  0  0  0
   33.5100   30.4895   19.2387 C   0  0  0  0  0  0  0  0  0  0  0  0
   34.1712   29.3601   19.8098 C   0  0  0  0  0  0  0  0  0  0  0  0
   34.4462   27.4998   22.6866 C   0  0  0  0  0  0  0  0  0  0  0  0
   34.6346   26.5100   23.4052 O   0  0  0  0  0  0  0  0  0  0  0  0
   33.9517   27.3780   21.3658 N   0  0  0  0  0  0  0  0  0  0  0  0
   33.9283   26.1047   20.6658 C   0  0  0  0  0  0  0  0  0  0  0  0
   32.6673   25.6813   20.0757 C   0  0  0  0  0  0  0  0  0  0  0  0
   32.5151   24.4727   19.3715 C   0  0  0  0  0  0  0  0  0  0  0  0
   33.6109   23.6093   19.2159 C   0  0  0  0  0  0  0  0  0  0  0  0
   34.8597   23.9615   19.7638 C   0  0  0  0  0  0  0  0  0  0  0  0
   35.0615   25.1772   20.4863 C   0  0  0  0  0  0  0  0  0  0  0  0
   36.4521   25.3839   20.9966 C   0  0  0  0  0  0  0  0  0  0  0  0
   37.2048   26.0660   20.3459 O   0  0  0  0  0  0  0  0  0  0  0  0
   36.8919   24.8884   22.0193 O   0  0  0  0  0  0  0  0  0  0  0  0
   36.3410   24.3516   22.5544 H   0  0  0  0  0  0  0  0  0  0  0  0
   35.7736   29.5013   22.9823 O   0  0  0  0  0  0  0  0  0  0  0  0
   34.7878   28.9006   23.2930 C   0  0  0  0  0  0  0  0  0  0  0  0
   33.8997   29.4284   24.1725 O   0  0  0  0  0  0  0  0  0  0  0  0
   36.3790   29.1256   22.3738 H   0  0  0  0  0  0  0  0  0  0  0  0
   35.6132   29.0806   19.4330 C   0  0  0  0  0  0  0  0  0  0  0  0
   35.8323   28.4468   18.0574 C   0  0  0  0  0  0  0  0  0  0  0  0
   37.3442   28.4505   17.7338 C   0  0  0  0  0  0  0  0  0  0  0  0
   37.7482   28.3576   16.5882 O   0  0  0  0  0  0  0  0  0  0  0  0
   38.1581   28.5595   18.7976 N   0  0  0  0  0  0  0  0  0  0  0  0
   37.7780   28.6317   19.7029 H   0  0  0  0  0  0  0  0  0  0  0  0
   39.1345   28.5672   18.6717 H   0  0  0  0  0  0  0  0  0  0  0  0
   31.4660   31.9944   18.9316 C   0  0  0  0  0  0  0  0  0  0  0  0
   30.4290   31.6086   17.8225 C   0  0  0  0  0  0  0  0  0  0  0  0
   30.7145   32.3397   16.4805 C   0  0  0  0  0  0  0  0  0  0  0  0
   30.8242   33.5614   16.4246 O   0  0  0  0  0  0  0  0  0  0  0  0
   30.8403   31.5060   15.4196 N   0  0  0  0  0  0  0  0  0  0  0  0
   30.7398   30.5371   15.5625 H   0  0  0  0  0  0  0  0  0  0  0  0
   31.1214   31.9970   14.0644 C   0  0  0  0  0  0  0  0  0  0  0  0
   32.4452   31.4067   13.5611 C   0  0  0  0  0  0  0  0  0  0  0  0
   33.6461   32.3164   13.8693 C   0  0  0  0  0  0  0  0  0  0  0  0
   34.4702   31.8128   15.0540 C   0  0  0  0  0  0  0  0  0  0  0  0
   34.1803   30.3448   15.3841 C   0  0  0  0  0  0  0  0  0  0  0  0
   30.4433   30.1602   17.6489 N   0  0  0  0  0  0  0  0  0  0  0  0
   30.9885   29.7721   18.4186 H   0  0  0  0  0  0  0  0  0  0  0  0
   28.9260   29.2985   17.6110 S   0  0  0  0  0  0  0  0  0  0  0  0
   28.3812   29.6266   16.3330 O   0  0  0  0  0  0  0  0  0  0  0  0
   28.2326   29.7514   18.7844 O   0  0  0  0  0  0  0  0  0  0  0  0
   29.2542   27.5621   17.7517 C   0  0  0  0  0  0  0  0  0  0  0  0
 20 21  1  0  0  0
 21 22  2  0  0  0
 21  7  1  0  0  0
  7  8  2  0  0  0
  7  9  1  0  0  0
  9  1  1  0  0  0
  9 10  1  0  0  0
  1  2  2  0  0  0
  1  6  1  0  0  0
  2  3  1  0  0  0
  3  4  2  0  0  0
  4  5  1  0  0  0
  4 31  1  0  0  0
  5  6  2  0  0  0
  6 24  1  0  0  0
 24 25  2  0  0  0
 25 26  1  0  0  0
 26 27  2  0  0  0
 26 28  1  0  0  0
 31 32  1  0  0  0
 32 42  1  0  0  0
 32 33  1  0  0  0
 42 44  1  0  0  0
 44 45  2  0  0  0
 44 46  2  0  0  0
 44 47  1  0  0  0
 33 34  2  0  0  0
 33 35  1  0  0  0
 35 37  1  0  0  0
 37 38  1  0  0  0
 38 39  1  0  0  0
 39 40  1  0  0  0
 40 41  1  0  0  0
 10 11  2  0  0  0
 10 15  1  0  0  0
 11 12  1  0  0  0
 12 13  2  0  0  0
 13 14  1  0  0  0
 14 15  2  0  0  0
 15 16  1  0  0  0
 16 17  2  0  0  0
 16 18  1  0  0  0
 20 23  1  0  0  0
 28 29  1  0  0  0
 28 30  1  0  0  0
 42 43  1  0  0  0
 35 36  1  0  0  0
 18 19  1  0  0  0
M  END
> <minimizedAffinity>
-6.25806

$$$$
1ONY_588_A_322


 47 48  0  0  0  0  0  0  0  0999 V2000
   36.0536   26.7298   18.8157 C   0  0  0  0  0  0  0  0  0  0  0  0
   35.4851   27.4706   17.7285 C   0  0  0  0  0  0  0  0  0  0  0  0
   34.8331   26.8350   16.6697 C   0  0  0  0  0  0  0  0  0  0  0  0
   34.7151   25.4277   16.6434 C   0  0  0  0  0  0  0  0  0  0  0  0
   35.2782   24.6664   17.7050 C   0  0  0  0  0  0  0  0  0  0  0  0
   35.9536   25.2867   18.7994 C   0  0  0  0  0  0  0  0  0  0  0  0
   38.0338   27.8610   19.6514 C   0  0  0  0  0  0  0  0  0  0  0  0
   38.5554   28.7501   20.3361 O   0  0  0  0  0  0  0  0  0  0  0  0
   36.6833   27.4774   19.8322 N   0  0  0  0  0  0  0  0  0  0  0  0
   35.9230   27.8639   21.0088 C   0  0  0  0  0  0  0  0  0  0  0  0
   36.0045   27.0024   22.1788 C   0  0  0  0  0  0  0  0  0  0  0  0
   35.3188   27.2677   23.3784 C   0  0  0  0  0  0  0  0  0  0  0  0
   34.5057   28.4071   23.4839 C   0  0  0  0  0  0  0  0  0  0  0  0
   34.3846   29.2815   22.3864 C   0  0  0  0  0  0  0  0  0  0  0  0
   35.0612   29.0531   21.1493 C   0  0  0  0  0  0  0  0  0  0  0  0
   34.8141   30.0853   20.0956 C   0  0  0  0  0  0  0  0  0  0  0  0
   33.7222   30.5950   20.0389 O   0  0  0  0  0  0  0  0  0  0  0  0
   35.6360   30.4344   19.2663 O   0  0  0  0  0  0  0  0  0  0  0  0
   36.4964   30.0634   19.2745 H   0  0  0  0  0  0  0  0  0  0  0  0
   39.5770   26.1886   18.8283 O   0  0  0  0  0  0  0  0  0  0  0  0
   38.9326   27.1639   18.5777 C   0  0  0  0  0  0  0  0  0  0  0  0
   38.9315   27.6949   17.3292 O   0  0  0  0  0  0  0  0  0  0  0  0
   39.5691   25.8318   19.6947 H   0  0  0  0  0  0  0  0  0  0  0  0
   36.5391   24.4163   19.8944 C   0  0  0  0  0  0  0  0  0  0  0  0
   35.5369   23.8448   20.8999 C   0  0  0  0  0  0  0  0  0  0  0  0
   36.2521   22.8030   21.7906 C   0  0  0  0  0  0  0  0  0  0  0  0
   37.2287   23.1001   22.4556 O   0  0  0  0  0  0  0  0  0  0  0  0
   35.7208   21.5687   21.7691 N   0  0  0  0  0  0  0  0  0  0  0  0
   34.9298   21.3829   21.2130 H   0  0  0  0  0  0  0  0  0  0  0  0
   36.1224   20.8504   22.3093 H   0  0  0  0  0  0  0  0  0  0  0  0
   33.9842   24.7611   15.5018 C   0  0  0  0  0  0  0  0  0  0  0  0
   33.5900   23.2712   15.7839 C   0  0  0  0  0  0  0  0  0  0  0  0
   32.2328   23.1614   16.5342 C   0  0  0  0  0  0  0  0  0  0  0  0
   31.6991   22.0752   16.7419 O   0  0  0  0  0  0  0  0  0  0  0  0
   31.7306   24.3550   16.9335 N   0  0  0  0  0  0  0  0  0  0  0  0
   32.2329   25.1755   16.7245 H   0  0  0  0  0  0  0  0  0  0  0  0
   30.4632   24.4676   17.6669 C   0  0  0  0  0  0  0  0  0  0  0  0
   30.6820   25.2538   18.9663 C   0  0  0  0  0  0  0  0  0  0  0  0
   32.0867   25.0356   19.5526 C   0  0  0  0  0  0  0  0  0  0  0  0
   32.6403   26.2928   20.2231 C   0  0  0  0  0  0  0  0  0  0  0  0
   31.9833   27.5726   19.6956 C   0  0  0  0  0  0  0  0  0  0  0  0
   33.5544   22.5467   14.5181 N   0  0  0  0  0  0  0  0  0  0  0  0
   33.9114   23.1788   13.8016 H   0  0  0  0  0  0  0  0  0  0  0  0
   34.4463   21.0535   14.3738 S   0  0  0  0  0  0  0  0  0  0  0  0
   33.4281   20.0555   14.3020 O   0  0  0  0  0  0  0  0  0  0  0  0
   35.3221   21.0531   15.5121 O   0  0  0  0  0  0  0  0  0  0  0  0
   35.4098   21.1077   12.8868 C   0  0  0  0  0  0  0  0  0  0  0  0
 20 21  1  0  0  0
 21 22  2  0  0  0
 21  7  1  0  0  0
  7  8  2  0  0  0
  7  9  1  0  0  0
  9  1  1  0  0  0
  9 10  1  0  0  0
  1  2  2  0  0  0
  1  6  1  0  0  0
  2  3  1  0  0  0
  3  4  2  0  0  0
  4  5  1  0  0  0
  4 31  1  0  0  0
  5  6  2  0  0  0
  6 24  1  0  0  0
 24 25  2  0  0  0
 25 26  1  0  0  0
 26 27  2  0  0  0
 26 28  1  0  0  0
 31 32  1  0  0  0
 32 42  1  0  0  0
 32 33  1  0  0  0
 42 44  1  0  0  0
 44 45  2  0  0  0
 44 46  2  0  0  0
 44 47  1  0  0  0
 33 34  2  0  0  0
 33 35  1  0  0  0
 35 37  1  0  0  0
 37 38  1  0  0  0
 38 39  1  0  0  0
 39 40  1  0  0  0
 40 41  1  0  0  0
 10 11  2  0  0  0
 10 15  1  0  0  0
 11 12  1  0  0  0
 12 13  2  0  0  0
 13 14  1  0  0  0
 14 15  2  0  0  0
 15 16  1  0  0  0
 16 17  2  0  0  0
 16 18  1  0  0  0
 20 23  1  0  0  0
 28 29  1  0  0  0
 28 30  1  0  0  0
 42 43  1  0  0  0
 35 36  1  0  0  0
 18 19  1  0  0  0
M  END
> <minimizedAffinity>
-6.23286

$$$$
1ONY_588_A_322


 47 48  0  0  0  0  0  0  0  0999 V2000
   35.4196   26.8062   18.2540 C   0  0  0  0  0  0  0  0  0  0  0  0
   34.8679   27.3563   17.0511 C   0  0  0  0  0  0  0  0  0  0  0  0
   34.4605   26.5423   15.9921 C   0  0  0  0  0  0  0  0  0  0  0  0
   34.5826   25.1380   16.0809 C   0  0  0  0  0  0  0  0  0  0  0  0
   35.1355   24.5649   17.2597 C   0  0  0  0  0  0  0  0  0  0  0  0
   35.5642   25.3705   18.3579 C   0  0  0  0  0  0  0  0  0  0  0  0
   37.0826   28.3008   19.2027 C   0  0  0  0  0  0  0  0  0  0  0  0
   37.3718   29.3133   19.8527 O   0  0  0  0  0  0  0  0  0  0  0  0
   35.7915   27.7231   19.2587 N   0  0  0  0  0  0  0  0  0  0  0  0
   34.8330   28.0768   20.2923 C   0  0  0  0  0  0  0  0  0  0  0  0
   33.6651   28.8485   19.8949 C   0  0  0  0  0  0  0  0  0  0  0  0
   32.6649   29.2507   20.7991 C   0  0  0  0  0  0  0  0  0  0  0  0
   32.7701   28.9114   22.1572 C   0  0  0  0  0  0  0  0  0  0  0  0
   33.8772   28.1651   22.6059 C   0  0  0  0  0  0  0  0  0  0  0  0
   34.9164   27.7353   21.7252 C   0  0  0  0  0  0  0  0  0  0  0  0
   36.0129   26.9546   22.3773 C   0  0  0  0  0  0  0  0  0  0  0  0
   35.7208   25.9497   22.9774 O   0  0  0  0  0  0  0  0  0  0  0  0
   37.1882   27.2764   22.3673 O   0  0  0  0  0  0  0  0  0  0  0  0
   37.4583   28.0500   21.9130 H   0  0  0  0  0  0  0  0  0  0  0  0
   38.3769   27.9982   17.1805 O   0  0  0  0  0  0  0  0  0  0  0  0
   38.2089   27.6716   18.3182 C   0  0  0  0  0  0  0  0  0  0  0  0
   39.0164   26.7523   18.9044 O   0  0  0  0  0  0  0  0  0  0  0  0
   37.8121   28.6342   16.7874 H   0  0  0  0  0  0  0  0  0  0  0  0
   36.1532   24.6966   19.5820 C   0  0  0  0  0  0  0  0  0  0  0  0
   37.2139   23.6277   19.3095 C   0  0  0  0  0  0  0  0  0  0  0  0
   37.8749   23.2186   20.6459 C   0  0  0  0  0  0  0  0  0  0  0  0
   37.4179   23.5788   21.7163 O   0  0  0  0  0  0  0  0  0  0  0  0
   38.9727   22.4518   20.5318 N   0  0  0  0  0  0  0  0  0  0  0  0
   39.2993   22.1893   19.6409 H   0  0  0  0  0  0  0  0  0  0  0  0
   39.4502   22.1526   21.3390 H   0  0  0  0  0  0  0  0  0  0  0  0
   34.1129   24.2738   14.9345 C   0  0  0  0  0  0  0  0  0  0  0  0
   33.6729   22.8328   15.3641 C   0  0  0  0  0  0  0  0  0  0  0  0
   32.1346   22.7304   15.5642 C   0  0  0  0  0  0  0  0  0  0  0  0
   31.4146   22.1741   14.7396 O   0  0  0  0  0  0  0  0  0  0  0  0
   31.6948   23.2898   16.7174 N   0  0  0  0  0  0  0  0  0  0  0  0
   32.3489   23.7110   17.3207 H   0  0  0  0  0  0  0  0  0  0  0  0
   30.2766   23.2898   17.0990 C   0  0  0  0  0  0  0  0  0  0  0  0
   29.9382   24.5875   17.8443 C   0  0  0  0  0  0  0  0  0  0  0  0
   31.0226   25.6635   17.6677 C   0  0  0  0  0  0  0  0  0  0  0  0
   31.5529   26.1818   19.0043 C   0  0  0  0  0  0  0  0  0  0  0  0
   32.2672   25.0919   19.8104 C   0  0  0  0  0  0  0  0  0  0  0  0
   34.1403   21.8804   14.3627 N   0  0  0  0  0  0  0  0  0  0  0  0
   34.8508   22.3559   13.8064 H   0  0  0  0  0  0  0  0  0  0  0  0
   34.8325   20.3685   14.8927 S   0  0  0  0  0  0  0  0  0  0  0  0
   35.5881   19.9272   13.7648 O   0  0  0  0  0  0  0  0  0  0  0  0
   33.7005   19.5858   15.3035 O   0  0  0  0  0  0  0  0  0  0  0  0
   35.8750   20.6796   16.2924 C   0  0  0  0  0  0  0  0  0  0  0  0
 20 21  1  0  0  0
 21 22  2  0  0  0
 21  7  1  0  0  0
  7  8  2  0  0  0
  7  9  1  0  0  0
  9  1  1  0  0  0
  9 10  1  0  0  0
  1  2  2  0  0  0
  1  6  1  0  0  0
  2  3  1  0  0  0
  3  4  2  0  0  0
  4  5  1  0  0  0
  4 31  1  0  0  0
  5  6  2  0  0  0
  6 24  1  0  0  0
 24 25  2  0  0  0
 25 26  1  0  0  0
 26 27  2  0  0  0
 26 28  1  0  0  0
 31 32  1  0  0  0
 32 42  1  0  0  0
 32 33  1  0  0  0
 42 44  1  0  0  0
 44 45  2  0  0  0
 44 46  2  0  0  0
 44 47  1  0  0  0
 33 34  2  0  0  0
 33 35  1  0  0  0
 35 37  1  0  0  0
 37 38  1  0  0  0
 38 39  1  0  0  0
 39 40  1  0  0  0
 40 41  1  0  0  0
 10 11  2  0  0  0
 10 15  1  0  0  0
 11 12  1  0  0  0
 12 13  2  0  0  0
 13 14  1  0  0  0
 14 15  2  0  0  0
 15 16  1  0  0  0
 16 17  2  0  0  0
 16 18  1  0  0  0
 20 23  1  0  0  0
 28 29  1  0  0  0
 28 30  1  0  0  0
 42 43  1  0  0  0
 35 36  1  0  0  0
 18 19  1  0  0  0
M  END
> <minimizedAffinity>
-6.21457

$$$$
1ONY_588_A_322


 47 48  0  0  0  0  0  0  0  0999 V2000
   33.9291   26.8571   20.4634 C   0  0  0  0  0  0  0  0  0  0  0  0
   32.8641   25.9683   20.8239 C   0  0  0  0  0  0  0  0  0  0  0  0
   32.7841   24.6728   20.3086 C   0  0  0  0  0  0  0  0  0  0  0  0
   33.7638   24.1990   19.4082 C   0  0  0  0  0  0  0  0  0  0  0  0
   34.8273   25.0629   19.0258 C   0  0  0  0  0  0  0  0  0  0  0  0
   34.9347   26.3935   19.5324 C   0  0  0  0  0  0  0  0  0  0  0  0
   34.7928   28.4044   22.1245 C   0  0  0  0  0  0  0  0  0  0  0  0
   35.0494   29.5595   22.4868 O   0  0  0  0  0  0  0  0  0  0  0  0
   33.9109   28.1396   21.0493 N   0  0  0  0  0  0  0  0  0  0  0  0
   33.0234   29.1572   20.5118 C   0  0  0  0  0  0  0  0  0  0  0  0
   31.6565   29.1928   21.0097 C   0  0  0  0  0  0  0  0  0  0  0  0
   30.7024   30.1293   20.5711 C   0  0  0  0  0  0  0  0  0  0  0  0
   31.0518   31.0861   19.6052 C   0  0  0  0  0  0  0  0  0  0  0  0
   32.3598   31.1047   19.0832 C   0  0  0  0  0  0  0  0  0  0  0  0
   33.3612   30.1743   19.4978 C   0  0  0  0  0  0  0  0  0  0  0  0
   34.6916   30.3430   18.8357 C   0  0  0  0  0  0  0  0  0  0  0  0
   34.7288   30.3924   17.6309 O   0  0  0  0  0  0  0  0  0  0  0  0
   35.7536   30.4100   19.4294 O   0  0  0  0  0  0  0  0  0  0  0  0
   35.7699   30.3755   20.3657 H   0  0  0  0  0  0  0  0  0  0  0  0
   34.8812   26.5844   23.7169 O   0  0  0  0  0  0  0  0  0  0  0  0
   35.4760   27.2383   22.9119 C   0  0  0  0  0  0  0  0  0  0  0  0
   36.7751   26.9736   22.6238 O   0  0  0  0  0  0  0  0  0  0  0  0
   33.9842   26.7776   23.9068 H   0  0  0  0  0  0  0  0  0  0  0  0
   36.0885   27.2658   19.0772 C   0  0  0  0  0  0  0  0  0  0  0  0
   37.4776   26.6283   19.1543 C   0  0  0  0  0  0  0  0  0  0  0  0
   38.4958   27.5460   18.4393 C   0  0  0  0  0  0  0  0  0  0  0  0
   39.5574   27.1149   18.0253 O   0  0  0  0  0  0  0  0  0  0  0  0
   38.1225   28.8313   18.3173 N   0  0  0  0  0  0  0  0  0  0  0  0
   37.2523   29.1268   18.6704 H   0  0  0  0  0  0  0  0  0  0  0  0
   38.7192   29.4773   17.8747 H   0  0  0  0  0  0  0  0  0  0  0  0
   33.6729   22.7861   18.8818 C   0  0  0  0  0  0  0  0  0  0  0  0
   33.1460   22.6894   17.4096 C   0  0  0  0  0  0  0  0  0  0  0  0
   32.2117   23.8782   17.0476 C   0  0  0  0  0  0  0  0  0  0  0  0
   31.0299   23.8915   17.3806 O   0  0  0  0  0  0  0  0  0  0  0  0
   32.8297   24.8702   16.3619 N   0  0  0  0  0  0  0  0  0  0  0  0
   33.7845   24.7725   16.1425 H   0  0  0  0  0  0  0  0  0  0  0  0
   32.1253   26.0859   15.9344 C   0  0  0  0  0  0  0  0  0  0  0  0
   32.3511   27.2056   16.9588 C   0  0  0  0  0  0  0  0  0  0  0  0
   31.0909   27.5022   17.7887 C   0  0  0  0  0  0  0  0  0  0  0  0
   30.1253   28.4419   17.0669 C   0  0  0  0  0  0  0  0  0  0  0  0
   28.8028   28.6116   17.8222 C   0  0  0  0  0  0  0  0  0  0  0  0
   34.2885   22.6206   16.5050 N   0  0  0  0  0  0  0  0  0  0  0  0
   35.0132   23.2252   16.8919 H   0  0  0  0  0  0  0  0  0  0  0  0
   35.0276   21.0705   16.1937 S   0  0  0  0  0  0  0  0  0  0  0  0
   36.2153   21.0956   16.9853 O   0  0  0  0  0  0  0  0  0  0  0  0
   35.1617   21.0231   14.7645 O   0  0  0  0  0  0  0  0  0  0  0  0
   33.9184   19.7941   16.7257 C   0  0  0  0  0  0  0  0  0  0  0  0
 20 21  1  0  0  0
 21 22  2  0  0  0
 21  7  1  0  0  0
  7  8  2  0  0  0
  7  9  1  0  0  0
  9  1  1  0  0  0
  9 10  1  0  0  0
  1  2  2  0  0  0
  1  6  1  0  0  0
  2  3  1  0  0  0
  3  4  2  0  0  0
  4  5  1  0  0  0
  4 31  1  0  0  0
  5  6  2  0  0  0
  6 24  1  0  0  0
 24 25  2  0  0  0
 25 26  1  0  0  0
 26 27  2  0  0  0
 26 28  1  0  0  0
 31 32  1  0  0  0
 32 42  1  0  0  0
 32 33  1  0  0  0
 42 44  1  0  0  0
 44 45  2  0  0  0
 44 46  2  0  0  0
 44 47  1  0  0  0
 33 34  2  0  0  0
 33 35  1  0  0  0
 35 37  1  0  0  0
 37 38  1  0  0  0
 38 39  1  0  0  0
 39 40  1  0  0  0
 40 41  1  0  0  0
 10 11  2  0  0  0
 10 15  1  0  0  0
 11 12  1  0  0  0
 12 13  2  0  0  0
 13 14  1  0  0  0
 14 15  2  0  0  0
 15 16  1  0  0  0
 16 17  2  0  0  0
 16 18  1  0  0  0
 20 23  1  0  0  0
 28 29  1  0  0  0
 28 30  1  0  0  0
 42 43  1  0  0  0
 35 36  1  0  0  0
 18 19  1  0  0  0
M  END
> <minimizedAffinity>
-6.20702

$$$$
1ONY_588_A_322


 47 48  0  0  0  0  0  0  0  0999 V2000
   31.5947   27.4058   18.7086 C   0  0  0  0  0  0  0  0  0  0  0  0
   31.4690   27.9179   20.0412 C   0  0  0  0  0  0  0  0  0  0  0  0
   32.3956   27.6042   21.0378 C   0  0  0  0  0  0  0  0  0  0  0  0
   33.4950   26.7642   20.7539 C   0  0  0  0  0  0  0  0  0  0  0  0
   33.6398   26.2340   19.4418 C   0  0  0  0  0  0  0  0  0  0  0  0
   32.7075   26.5334   18.4026 C   0  0  0  0  0  0  0  0  0  0  0  0
   29.4375   26.9985   17.6694 C   0  0  0  0  0  0  0  0  0  0  0  0
   28.4132   27.4205   17.1181 O   0  0  0  0  0  0  0  0  0  0  0  0
   30.6033   27.7933   17.7838 N   0  0  0  0  0  0  0  0  0  0  0  0
   30.7862   29.0093   17.0092 C   0  0  0  0  0  0  0  0  0  0  0  0
   31.5598   28.9173   15.7801 C   0  0  0  0  0  0  0  0  0  0  0  0
   31.8059   30.0203   14.9419 C   0  0  0  0  0  0  0  0  0  0  0  0
   31.2989   31.2848   15.2803 C   0  0  0  0  0  0  0  0  0  0  0  0
   30.5418   31.4404   16.4577 C   0  0  0  0  0  0  0  0  0  0  0  0
   30.2666   30.3503   17.3388 C   0  0  0  0  0  0  0  0  0  0  0  0
   29.4489   30.7018   18.5407 C   0  0  0  0  0  0  0  0  0  0  0  0
   30.0220   31.0866   19.5299 O   0  0  0  0  0  0  0  0  0  0  0  0
   28.2358   30.6033   18.6020 O   0  0  0  0  0  0  0  0  0  0  0  0
   27.7514   30.3081   17.8562 H   0  0  0  0  0  0  0  0  0  0  0  0
   28.9720   25.2897   19.3183 O   0  0  0  0  0  0  0  0  0  0  0  0
   29.3996   25.5387   18.2300 C   0  0  0  0  0  0  0  0  0  0  0  0
   29.8477   24.5503   17.4158 O   0  0  0  0  0  0  0  0  0  0  0  0
   28.6656   25.9815   19.8710 H   0  0  0  0  0  0  0  0  0  0  0  0
   32.9151   25.9281   17.0278 C   0  0  0  0  0  0  0  0  0  0  0  0
   33.8066   24.6855   16.9737 C   0  0  0  0  0  0  0  0  0  0  0  0
   33.7207   24.0623   15.5615 C   0  0  0  0  0  0  0  0  0  0  0  0
   33.7430   22.8552   15.3980 O   0  0  0  0  0  0  0  0  0  0  0  0
   33.6240   24.9429   14.5509 N   0  0  0  0  0  0  0  0  0  0  0  0
   33.6102   25.9091   14.7395 H   0  0  0  0  0  0  0  0  0  0  0  0
   33.5670   24.6219   13.6219 H   0  0  0  0  0  0  0  0  0  0  0  0
   34.4999   26.4573   21.8392 C   0  0  0  0  0  0  0  0  0  0  0  0
   35.8525   25.8738   21.3058 C   0  0  0  0  0  0  0  0  0  0  0  0
   36.8905   26.9923   21.0081 C   0  0  0  0  0  0  0  0  0  0  0  0
   37.4890   27.5708   21.9108 O   0  0  0  0  0  0  0  0  0  0  0  0
   37.0666   27.2373   19.6870 N   0  0  0  0  0  0  0  0  0  0  0  0
   36.5434   26.7187   19.0339 H   0  0  0  0  0  0  0  0  0  0  0  0
   38.0105   28.2493   19.1953 C   0  0  0  0  0  0  0  0  0  0  0  0
   37.2573   29.5423   18.8563 C   0  0  0  0  0  0  0  0  0  0  0  0
   35.7791   29.2869   18.5181 C   0  0  0  0  0  0  0  0  0  0  0  0
   34.8293   29.9747   19.4986 C   0  0  0  0  0  0  0  0  0  0  0  0
   33.6124   30.5884   18.7984 C   0  0  0  0  0  0  0  0  0  0  0  0
   36.3692   24.9188   22.2800 N   0  0  0  0  0  0  0  0  0  0  0  0
   35.6671   24.8315   23.0147 H   0  0  0  0  0  0  0  0  0  0  0  0
   36.7615   23.3021   21.7525 S   0  0  0  0  0  0  0  0  0  0  0  0
   36.4169   22.4866   22.8723 O   0  0  0  0  0  0  0  0  0  0  0  0
   38.1426   23.3813   21.3661 O   0  0  0  0  0  0  0  0  0  0  0  0
   35.7726   22.9107   20.3342 C   0  0  0  0  0  0  0  0  0  0  0  0
 20 21  1  0  0  0
 21 22  2  0  0  0
 21  7  1  0  0  0
  7  8  2  0  0  0
  7  9  1  0  0  0
  9  1  1  0  0  0
  9 10  1  0  0  0
  1  2  2  0  0  0
  1  6  1  0  0  0
  2  3  1  0  0  0
  3  4  2  0  0  0
  4  5  1  0  0  0
  4 31  1  0  0  0
  5  6  2  0  0  0
  6 24  1  0  0  0
 24 25  2  0  0  0
 25 26  1  0  0  0
 26 27  2  0  0  0
 26 28  1  0  0  0
 31 32  1  0  0  0
 32 42  1  0  0  0
 32 33  1  0  0  0
 42 44  1  0  0  0
 44 45  2  0  0  0
 44 46  2  0  0  0
 44 47  1  0  0  0
 33 34  2  0  0  0
 33 35  1  0  0  0
 35 37  1  0  0  0
 37 38  1  0  0  0
 38 39  1  0  0  0
 39 40  1  0  0  0
 40 41  1  0  0  0
 10 11  2  0  0  0
 10 15  1  0  0  0
 11 12  1  0  0  0
 12 13  2  0  0  0
 13 14  1  0  0  0
 14 15  2  0  0  0
 15 16  1  0  0  0
 16 17  2  0  0  0
 16 18  1  0  0  0
 20 23  1  0  0  0
 28 29  1  0  0  0
 28 30  1  0  0  0
 42 43  1  0  0  0
 35 36  1  0  0  0
 18 19  1  0  0  0
M  END
> <minimizedAffinity>
-6.08489

$$$$
