3CKZ_ZMR_A_469
  RCSB PDB12061708113D
Coordinates from PDB:3CKZ:A:469 Model:1 without hydrogens
 23 23  0  0  0  0            999 V2000
  -30.2410  -53.1300    6.6480   C 0  0  0  0  0  0  0  0  0  0  0  0
  -31.3330  -52.5290    6.4940   O 0  0  0  0  0  0  0  0  0  0  0  0
  -29.1810  -52.6830    6.1790   O 0  0  0  0  0  0  0  0  0  0  0  0
  -30.2510  -54.3840    7.4020   C 0  0  0  0  0  0  0  0  0  0  0  0
  -29.1290  -55.0600    7.7510   C 0  0  0  0  0  0  0  0  0  0  0  0
  -29.1700  -56.1270    8.8400   C 0  0  0  0  0  0  0  0  0  0  0  0
  -30.5260  -56.8340    8.7520   C 0  0  0  0  0  0  0  0  0  0  0  0
  -30.6670  -57.8540    9.7820   N 0  0  0  0  0  0  0  0  0  0  0  0
  -30.6130  -59.1750    9.5620   C 0  0  0  0  0  0  0  0  0  0  0  0
  -30.5210  -59.6830    8.4570   O 0  0  0  0  0  0  0  0  0  0  0  0
  -30.6470  -60.0450   10.7880   C 0  0  0  0  0  0  0  0  0  0  0  0
  -31.6650  -55.8090    8.8240   C 0  0  0  0  0  0  0  0  0  0  0  0
  -31.5720  -54.8710    7.7500   O 0  0  0  0  0  0  0  0  0  0  0  0
  -33.0480  -56.4220    8.6780   C 0  0  0  0  0  0  0  0  0  0  0  0
  -33.1590  -56.9510    7.3560   O 0  0  0  0  0  0  0  0  0  0  0  0
  -34.1360  -55.3580    8.8770   C 0  0  0  0  0  0  0  0  0  0  0  0
  -33.9750  -54.7610   10.1730   O 0  0  0  0  0  0  0  0  0  0  0  0
  -35.5350  -55.9600    8.7550   C 0  0  0  0  0  0  0  0  0  0  0  0
  -35.8070  -56.7910    9.8930   O 0  0  0  0  0  0  0  0  0  0  0  0
  -28.1980  -57.1930    8.6160   N 0  0  0  0  0  0  0  0  0  0  0  0
  -27.5560  -57.8760    9.4720   C 0  0  0  0  0  0  0  0  0  0  0  0
  -27.6800  -57.6790   10.7820   N 0  0  0  0  0  0  0  0  0  0  0  0
  -26.7290  -58.8360    9.0330   N 0  0  0  0  0  0  0  0  0  0  0  0
  1  2  1  0  0  0  0
  1  3  2  0  0  0  0
  1  4  1  0  0  0  0
  4  5  2  0  0  0  0
  4 13  1  0  0  0  0
  5  6  1  0  0  0  0
  6  7  1  0  0  0  0
  6 20  1  0  0  0  0
  7  8  1  0  0  0  0
  7 12  1  0  0  0  0
  8  9  1  0  0  0  0
  9 10  2  0  0  0  0
  9 11  1  0  0  0  0
 12 13  1  0  0  0  0
 12 14  1  0  0  0  0
 14 15  1  0  0  0  0
 14 16  1  0  0  0  0
 16 17  1  0  0  0  0
 16 18  1  0  0  0  0
 18 19  1  0  0  0  0
 20 21  2  0  0  0  0
 21 22  1  0  0  0  0
 21 23  1  0  0  0  0
A    1
C1
A    2
O1A
A    3
O1B
A    4
C2
A    5
C3
A    6
C4
A    7
C5
A    8
N5
A    9
C10
A   10
O10
A   11
C11
A   12
C6
A   13
O6
A   14
C7
A   15
O7
A   16
C8
A   17
O8
A   18
C9
A   19
O9
A   20
NE
A   21
CZ
A   22
NH1
A   23
NH2
M  END
>  <InstanceId>
3CKZ_ZMR_A_469

>  <ChemCompId>
ZMR

>  <PdbId>
3CKZ

>  <ChainId>
A

>  <ResidueNumber>
469

>  <InsertionCode>


>  <Model>
1

>  <AltIds>


>  <MissingHeavyAtoms>
0

>  <ObservedFormula>
C12 N4 O7

>  <Name>
ZANAMIVIR

>  <SystematicName>
(4S,5R,6R)-5-acetamido-4-(diaminomethylideneamino)-6-[(1R,2R)-1,2,3-trihydroxypropyl]-5,6-dihydro-4H-pyran-2-carboxylic acid

>  <Synonyms>
MODIFIED SIALIC ACID

>  <Type>
NON-POLYMER

>  <Formula>
C12 H20 N4 O7

>  <MolecularWeight>
332.31

>  <ModifiedDate>
2011-06-04

>  <Parent>


>  <OneLetterCode>


>  <SubcomponentList>


>  <AmbiguousFlag>
N

>  <InChI>
InChI=1S/C12H20N4O7/c1-4(18)15-8-5(16-12(13)14)2-7(11(21)22)23-10(8)9(20)6(19)3-17/h2,5-6,8-10,17,19-20H,3H2,1H3,(H,15,18)(H,21,22)(H4,13,14,16)/t5-,6+,8+,9+,10+/m0/s1

>  <InChIKey>
ARAIBEBZBOPLMB-UFGQHTETSA-N

>  <SMILES>
CC(=O)N[C@@H]1[C@H](C=C(O[C@H]1[C@@H]([C@@H](CO)O)O)C(=O)O)N=C(N)N

$$$$
