3M67_E36_A_262


 31 34  0  0  0  0  0  0  0  0999 V2000
   -3.0900    6.9729   12.0256 C   0  0  0  0  0  0  0  0  0  0  0  0
   -2.3437    6.2175   10.8663 C   0  0  0  0  0  0  0  0  0  0  0  0
   -1.9215    6.9134    9.8527 O   0  0  0  0  0  0  0  0  0  0  0  0
   -2.1073    4.7045   10.9639 C   0  0  0  0  0  0  0  0  0  0  0  0
   -3.2305    3.7512   11.0076 C   0  0  0  0  0  0  0  0  0  0  0  0
   -2.9901    2.4251   11.0845 C   0  0  0  0  0  0  0  0  0  0  0  0
   -1.5911    2.0029   11.1326 C   0  0  0  0  0  0  0  0  0  0  0  0
   -0.5481    2.8467   11.1270 C   0  0  0  0  0  0  0  0  0  0  0  0
   -0.8244    4.2641   11.0492 C   0  0  0  0  0  0  0  0  0  0  0  0
   -1.3674    0.3135   11.2426 Cl  0  0  0  0  0  0  0  0  0  0  0  0
   -4.4221    1.3199   11.2277 S   0  0  0  0  0  0  0  0  0  0  0  0
   -5.5742    2.3616   11.3083 O   0  0  0  0  0  0  0  0  0  0  0  0
   -4.2990    0.4334   12.4606 O   0  0  0  0  0  0  0  0  0  0  0  0
   -4.4187    0.4374    9.7666 N   0  0  0  0  0  0  0  0  0  0  0  0
   -4.5033    1.0815    8.9802 H   0  0  0  0  0  0  0  0  0  0  0  0
   -5.2049   -0.2123    9.7600 H   0  0  0  0  0  0  0  0  0  0  0  0
   -2.1672    6.7716   13.6186 S   0  0  0  0  0  0  0  0  0  0  0  0
   -7.3765    1.9914   16.6335 O   0  0  0  0  0  0  0  0  0  0  0  0
   -7.1804    1.0970   17.7290 C   0  0  0  0  0  0  0  0  0  0  0  0
   -5.8308    0.3102   17.5858 C   0  0  0  0  0  0  0  0  0  0  0  0
   -5.2809    0.3785   16.2821 O   0  0  0  0  0  0  0  0  0  0  0  0
   -5.0927    1.6640   15.8504 C   0  0  0  0  0  0  0  0  0  0  0  0
   -6.2539    2.5859   16.0592 C   0  0  0  0  0  0  0  0  0  0  0  0
   -6.1818    3.8884   15.7103 C   0  0  0  0  0  0  0  0  0  0  0  0
   -4.8907    4.3310   15.1404 C   0  0  0  0  0  0  0  0  0  0  0  0
   -4.4926    5.6530   14.7069 N   0  0  0  0  0  0  0  0  0  0  0  0
   -3.2617    5.5145   14.3120 C   0  0  0  0  0  0  0  0  0  0  0  0
   -2.8283    4.1461   14.4423 N   0  0  0  0  0  0  0  0  0  0  0  0
   -3.8953    3.4839   14.9716 C   0  0  0  0  0  0  0  0  0  0  0  0
   -3.9481    2.0664   15.3285 C   0  0  0  0  0  0  0  0  0  0  0  0
   -1.9507    3.7708   14.2009 H   0  0  0  0  0  0  0  0  0  0  0  0
 18 19  1  0  0  0
 18 23  1  0  0  0
 19 20  1  0  0  0
 20 21  1  0  0  0
 21 22  1  0  0  0
 22 23  2  0  0  0
 22 30  1  0  0  0
 23 24  1  0  0  0
 24 25  2  0  0  0
 25 26  1  0  0  0
 25 29  1  0  0  0
 26 27  2  0  0  0
 27 28  1  0  0  0
 27 17  1  0  0  0
 28 29  1  0  0  0
 29 30  2  0  0  0
 17  1  1  0  0  0
  1  2  1  0  0  0
  2  3  2  0  0  0
  2  4  1  0  0  0
  4  5  2  0  0  0
  4  9  1  0  0  0
  5  6  1  0  0  0
  6  7  2  0  0  0
  6 11  1  0  0  0
  7  8  1  0  0  0
  7 10  1  0  0  0
  8  9  2  0  0  0
 11 12  2  0  0  0
 11 13  2  0  0  0
 11 14  1  0  0  0
 28 31  1  0  0  0
 14 15  1  0  0  0
 14 16  1  0  0  0
M  END
> <minimizedAffinity>
-8.31577

$$$$
3M67_E36_A_262


 31 34  0  0  0  0  0  0  0  0999 V2000
   -4.1718    3.9660   11.2923 C   0  0  0  0  0  0  0  0  0  0  0  0
   -3.8273    3.1720   12.6048 C   0  0  0  0  0  0  0  0  0  0  0  0
   -2.8165    2.3550   12.5800 O   0  0  0  0  0  0  0  0  0  0  0  0
   -4.6584    3.3929   13.8755 C   0  0  0  0  0  0  0  0  0  0  0  0
   -4.8873    2.3059   14.8442 C   0  0  0  0  0  0  0  0  0  0  0  0
   -5.6156    2.5338   15.9577 C   0  0  0  0  0  0  0  0  0  0  0  0
   -6.1583    3.8797   16.1353 C   0  0  0  0  0  0  0  0  0  0  0  0
   -5.9949    4.8807   15.2573 C   0  0  0  0  0  0  0  0  0  0  0  0
   -5.2160    4.6173   14.0676 C   0  0  0  0  0  0  0  0  0  0  0  0
   -7.0784    4.0872   17.5590 Cl  0  0  0  0  0  0  0  0  0  0  0  0
   -5.9320    1.1246   17.0562 S   0  0  0  0  0  0  0  0  0  0  0  0
   -7.4754    0.9972   16.9125 O   0  0  0  0  0  0  0  0  0  0  0  0
   -5.4633    1.4288   18.4735 O   0  0  0  0  0  0  0  0  0  0  0  0
   -5.0836   -0.1688   16.3345 N   0  0  0  0  0  0  0  0  0  0  0  0
   -5.4397   -0.3248   15.3915 H   0  0  0  0  0  0  0  0  0  0  0  0
   -5.2137   -1.0135   16.8912 H   0  0  0  0  0  0  0  0  0  0  0  0
   -3.2372    5.5642   11.2474 S   0  0  0  0  0  0  0  0  0  0  0  0
   -9.2009    8.9646    7.7908 O   0  0  0  0  0  0  0  0  0  0  0  0
   -9.1465    9.8550    6.6760 C   0  0  0  0  0  0  0  0  0  0  0  0
   -8.0205   10.9313    6.8627 C   0  0  0  0  0  0  0  0  0  0  0  0
   -7.5486   11.0194    8.1954 O   0  0  0  0  0  0  0  0  0  0  0  0
   -7.1012    9.8205    8.6821 C   0  0  0  0  0  0  0  0  0  0  0  0
   -8.0096    8.6541    8.4448 C   0  0  0  0  0  0  0  0  0  0  0  0
   -7.6663    7.4105    8.8433 C   0  0  0  0  0  0  0  0  0  0  0  0
   -6.3452    7.2862    9.4966 C   0  0  0  0  0  0  0  0  0  0  0  0
   -5.6856    6.0996    9.9976 N   0  0  0  0  0  0  0  0  0  0  0  0
   -4.5437    6.5234   10.4523 C   0  0  0  0  0  0  0  0  0  0  0  0
   -4.4234    7.9512   10.2965 N   0  0  0  0  0  0  0  0  0  0  0  0
   -5.5787    8.3411    9.6878 C   0  0  0  0  0  0  0  0  0  0  0  0
   -5.9287    9.7010    9.2782 C   0  0  0  0  0  0  0  0  0  0  0  0
   -3.6693    8.5216   10.5706 H   0  0  0  0  0  0  0  0  0  0  0  0
 18 19  1  0  0  0
 18 23  1  0  0  0
 19 20  1  0  0  0
 20 21  1  0  0  0
 21 22  1  0  0  0
 22 23  2  0  0  0
 22 30  1  0  0  0
 23 24  1  0  0  0
 24 25  2  0  0  0
 25 26  1  0  0  0
 25 29  1  0  0  0
 26 27  2  0  0  0
 27 28  1  0  0  0
 27 17  1  0  0  0
 28 29  1  0  0  0
 29 30  2  0  0  0
 17  1  1  0  0  0
  1  2  1  0  0  0
  2  3  2  0  0  0
  2  4  1  0  0  0
  4  5  2  0  0  0
  4  9  1  0  0  0
  5  6  1  0  0  0
  6  7  2  0  0  0
  6 11  1  0  0  0
  7  8  1  0  0  0
  7 10  1  0  0  0
  8  9  2  0  0  0
 11 12  2  0  0  0
 11 13  2  0  0  0
 11 14  1  0  0  0
 28 31  1  0  0  0
 14 15  1  0  0  0
 14 16  1  0  0  0
M  END
> <minimizedAffinity>
-8.09411

$$$$
3M67_E36_A_262


 31 34  0  0  0  0  0  0  0  0999 V2000
   -3.2043    1.4154   12.2204 C   0  0  0  0  0  0  0  0  0  0  0  0
   -4.4733    2.3429   12.1880 C   0  0  0  0  0  0  0  0  0  0  0  0
   -4.9922    2.6322   11.0318 O   0  0  0  0  0  0  0  0  0  0  0  0
   -5.0812    2.8574   13.4996 C   0  0  0  0  0  0  0  0  0  0  0  0
   -5.2394    1.9780   14.6717 C   0  0  0  0  0  0  0  0  0  0  0  0
   -5.7696    2.4625   15.8147 C   0  0  0  0  0  0  0  0  0  0  0  0
   -6.1767    3.8667   15.8179 C   0  0  0  0  0  0  0  0  0  0  0  0
   -6.0755    4.6836   14.7586 C   0  0  0  0  0  0  0  0  0  0  0  0
   -5.5098    4.1464   13.5409 C   0  0  0  0  0  0  0  0  0  0  0  0
   -6.8498    4.4028   17.2929 Cl  0  0  0  0  0  0  0  0  0  0  0  0
   -6.0182    1.2979   17.1838 S   0  0  0  0  0  0  0  0  0  0  0  0
   -7.5587    1.0981   17.1066 O   0  0  0  0  0  0  0  0  0  0  0  0
   -5.5350    1.8982   18.4980 O   0  0  0  0  0  0  0  0  0  0  0  0
   -5.1394   -0.0897   16.7193 N   0  0  0  0  0  0  0  0  0  0  0  0
   -5.5067   -0.4451   15.8366 H   0  0  0  0  0  0  0  0  0  0  0  0
   -5.2307   -0.8067   17.4389 H   0  0  0  0  0  0  0  0  0  0  0  0
   -1.9503    2.0035   10.9910 S   0  0  0  0  0  0  0  0  0  0  0  0
   -1.7899    9.4912   12.7188 O   0  0  0  0  0  0  0  0  0  0  0  0
   -0.8488   10.1513   13.5657 C   0  0  0  0  0  0  0  0  0  0  0  0
   -0.6149    9.3460   14.8916 C   0  0  0  0  0  0  0  0  0  0  0  0
   -1.6055    8.3615   15.1285 O   0  0  0  0  0  0  0  0  0  0  0  0
   -1.7372    7.4784   14.0906 C   0  0  0  0  0  0  0  0  0  0  0  0
   -1.8220    8.0975   12.7300 C   0  0  0  0  0  0  0  0  0  0  0  0
   -1.9167    7.3334   11.6207 C   0  0  0  0  0  0  0  0  0  0  0  0
   -1.9075    5.8714   11.8443 C   0  0  0  0  0  0  0  0  0  0  0  0
   -1.9595    4.8015   10.8712 N   0  0  0  0  0  0  0  0  0  0  0  0
   -1.9003    3.7107   11.5760 C   0  0  0  0  0  0  0  0  0  0  0  0
   -1.8346    4.0087   12.9846 N   0  0  0  0  0  0  0  0  0  0  0  0
   -1.8341    5.3694   13.0606 C   0  0  0  0  0  0  0  0  0  0  0  0
   -1.7427    6.1714   14.2804 C   0  0  0  0  0  0  0  0  0  0  0  0
   -1.7979    3.3676   13.7309 H   0  0  0  0  0  0  0  0  0  0  0  0
 18 19  1  0  0  0
 18 23  1  0  0  0
 19 20  1  0  0  0
 20 21  1  0  0  0
 21 22  1  0  0  0
 22 23  2  0  0  0
 22 30  1  0  0  0
 23 24  1  0  0  0
 24 25  2  0  0  0
 25 26  1  0  0  0
 25 29  1  0  0  0
 26 27  2  0  0  0
 27 28  1  0  0  0
 27 17  1  0  0  0
 28 29  1  0  0  0
 29 30  2  0  0  0
 17  1  1  0  0  0
  1  2  1  0  0  0
  2  3  2  0  0  0
  2  4  1  0  0  0
  4  5  2  0  0  0
  4  9  1  0  0  0
  5  6  1  0  0  0
  6  7  2  0  0  0
  6 11  1  0  0  0
  7  8  1  0  0  0
  7 10  1  0  0  0
  8  9  2  0  0  0
 11 12  2  0  0  0
 11 13  2  0  0  0
 11 14  1  0  0  0
 28 31  1  0  0  0
 14 15  1  0  0  0
 14 16  1  0  0  0
M  END
> <minimizedAffinity>
-7.95309

$$$$
3M67_E36_A_262


 31 34  0  0  0  0  0  0  0  0999 V2000
   -3.2300    2.6040   11.2720 C   0  0  0  0  0  0  0  0  0  0  0  0
   -3.9507    1.7303   12.3624 C   0  0  0  0  0  0  0  0  0  0  0  0
   -3.8911    0.4366   12.2497 O   0  0  0  0  0  0  0  0  0  0  0  0
   -4.6746    2.4082   13.5333 C   0  0  0  0  0  0  0  0  0  0  0  0
   -4.9739    1.6793   14.7789 C   0  0  0  0  0  0  0  0  0  0  0  0
   -5.6041    2.3060   15.7949 C   0  0  0  0  0  0  0  0  0  0  0  0
   -5.9722    3.7059   15.5889 C   0  0  0  0  0  0  0  0  0  0  0  0
   -5.7427    4.3872   14.4563 C   0  0  0  0  0  0  0  0  0  0  0  0
   -5.0709    3.6986   13.3764 C   0  0  0  0  0  0  0  0  0  0  0  0
   -6.7769    4.4259   16.9119 Cl  0  0  0  0  0  0  0  0  0  0  0  0
   -6.0210    1.3192   17.2596 S   0  0  0  0  0  0  0  0  0  0  0  0
   -7.5725    1.2990   17.1526 O   0  0  0  0  0  0  0  0  0  0  0  0
   -5.4944    1.9829   18.5257 O   0  0  0  0  0  0  0  0  0  0  0  0
   -5.3094   -0.2025   16.9567 N   0  0  0  0  0  0  0  0  0  0  0  0
   -5.6996   -0.5959   16.1004 H   0  0  0  0  0  0  0  0  0  0  0  0
   -5.5023   -0.8296   17.7377 H   0  0  0  0  0  0  0  0  0  0  0  0
   -1.3929    2.5028   11.4826 S   0  0  0  0  0  0  0  0  0  0  0  0
   -1.1383    9.4343   14.7941 O   0  0  0  0  0  0  0  0  0  0  0  0
   -1.0863   10.6963   14.1284 C   0  0  0  0  0  0  0  0  0  0  0  0
   -0.0370   10.6809   12.9623 C   0  0  0  0  0  0  0  0  0  0  0  0
    0.8599    9.5867   13.0332 O   0  0  0  0  0  0  0  0  0  0  0  0
    0.2210    8.3764   13.0709 C   0  0  0  0  0  0  0  0  0  0  0  0
   -0.9158    8.2824   14.0409 C   0  0  0  0  0  0  0  0  0  0  0  0
   -1.6501    7.1543   14.1476 C   0  0  0  0  0  0  0  0  0  0  0  0
   -1.2701    6.0513   13.2384 C   0  0  0  0  0  0  0  0  0  0  0  0
   -1.8762    4.7458   13.0883 N   0  0  0  0  0  0  0  0  0  0  0  0
   -1.1883    4.1683   12.1484 C   0  0  0  0  0  0  0  0  0  0  0  0
   -0.1303    5.0278   11.6801 N   0  0  0  0  0  0  0  0  0  0  0  0
   -0.2598    6.1767   12.4016 C   0  0  0  0  0  0  0  0  0  0  0  0
    0.5605    7.3808   12.2723 C   0  0  0  0  0  0  0  0  0  0  0  0
    0.5410    4.8280   10.9882 H   0  0  0  0  0  0  0  0  0  0  0  0
 18 19  1  0  0  0
 18 23  1  0  0  0
 19 20  1  0  0  0
 20 21  1  0  0  0
 21 22  1  0  0  0
 22 23  2  0  0  0
 22 30  1  0  0  0
 23 24  1  0  0  0
 24 25  2  0  0  0
 25 26  1  0  0  0
 25 29  1  0  0  0
 26 27  2  0  0  0
 27 28  1  0  0  0
 27 17  1  0  0  0
 28 29  1  0  0  0
 29 30  2  0  0  0
 17  1  1  0  0  0
  1  2  1  0  0  0
  2  3  2  0  0  0
  2  4  1  0  0  0
  4  5  2  0  0  0
  4  9  1  0  0  0
  5  6  1  0  0  0
  6  7  2  0  0  0
  6 11  1  0  0  0
  7  8  1  0  0  0
  7 10  1  0  0  0
  8  9  2  0  0  0
 11 12  2  0  0  0
 11 13  2  0  0  0
 11 14  1  0  0  0
 28 31  1  0  0  0
 14 15  1  0  0  0
 14 16  1  0  0  0
M  END
> <minimizedAffinity>
-7.57370

$$$$
3M67_E36_A_262


 31 34  0  0  0  0  0  0  0  0999 V2000
   -4.5029    6.7081   11.3316 C   0  0  0  0  0  0  0  0  0  0  0  0
   -6.0477    6.9955   11.2775 C   0  0  0  0  0  0  0  0  0  0  0  0
   -6.7920    6.5310   12.2366 O   0  0  0  0  0  0  0  0  0  0  0  0
   -6.6333    7.8276   10.1289 C   0  0  0  0  0  0  0  0  0  0  0  0
   -6.3635    9.2715   10.0090 C   0  0  0  0  0  0  0  0  0  0  0  0
   -6.8859    9.9747    8.9820 C   0  0  0  0  0  0  0  0  0  0  0  0
   -7.7205    9.2437    8.0298 C   0  0  0  0  0  0  0  0  0  0  0  0
   -8.0109    7.9377    8.1291 C   0  0  0  0  0  0  0  0  0  0  0  0
   -7.4467    7.2012    9.2384 C   0  0  0  0  0  0  0  0  0  0  0  0
   -8.3556   10.2022    6.7672 Cl  0  0  0  0  0  0  0  0  0  0  0  0
   -6.5863   11.7642    8.9521 S   0  0  0  0  0  0  0  0  0  0  0  0
   -5.8295   11.9449   10.2988 O   0  0  0  0  0  0  0  0  0  0  0  0
   -7.9006   12.5304    8.8706 O   0  0  0  0  0  0  0  0  0  0  0  0
   -5.5891   11.9999    7.5870 N   0  0  0  0  0  0  0  0  0  0  0  0
   -4.7280   11.4646    7.6985 H   0  0  0  0  0  0  0  0  0  0  0  0
   -5.3643   12.9908    7.4973 H   0  0  0  0  0  0  0  0  0  0  0  0
   -4.1332    5.0545   10.5843 S   0  0  0  0  0  0  0  0  0  0  0  0
   -4.7789    0.3971   16.6645 O   0  0  0  0  0  0  0  0  0  0  0  0
   -5.9328    0.2233   17.4871 C   0  0  0  0  0  0  0  0  0  0  0  0
   -6.5724    1.6041   17.8682 C   0  0  0  0  0  0  0  0  0  0  0  0
   -5.7105    2.7028   17.6301 O   0  0  0  0  0  0  0  0  0  0  0  0
   -5.2677    2.7612   16.3359 C   0  0  0  0  0  0  0  0  0  0  0  0
   -4.7601    1.4696   15.7740 C   0  0  0  0  0  0  0  0  0  0  0  0
   -4.3295    1.3860   14.4969 C   0  0  0  0  0  0  0  0  0  0  0  0
   -4.4165    2.6328   13.7060 C   0  0  0  0  0  0  0  0  0  0  0  0
   -4.0706    2.8566   12.3187 N   0  0  0  0  0  0  0  0  0  0  0  0
   -4.3526    4.1076   12.1056 C   0  0  0  0  0  0  0  0  0  0  0  0
   -4.8517    4.7359   13.3029 N   0  0  0  0  0  0  0  0  0  0  0  0
   -4.8676    3.7488   14.2424 C   0  0  0  0  0  0  0  0  0  0  0  0
   -5.3293    3.8725   15.6248 C   0  0  0  0  0  0  0  0  0  0  0  0
   -5.1225    5.6755   13.4174 H   0  0  0  0  0  0  0  0  0  0  0  0
 18 19  1  0  0  0
 18 23  1  0  0  0
 19 20  1  0  0  0
 20 21  1  0  0  0
 21 22  1  0  0  0
 22 23  2  0  0  0
 22 30  1  0  0  0
 23 24  1  0  0  0
 24 25  2  0  0  0
 25 26  1  0  0  0
 25 29  1  0  0  0
 26 27  2  0  0  0
 27 28  1  0  0  0
 27 17  1  0  0  0
 28 29  1  0  0  0
 29 30  2  0  0  0
 17  1  1  0  0  0
  1  2  1  0  0  0
  2  3  2  0  0  0
  2  4  1  0  0  0
  4  5  2  0  0  0
  4  9  1  0  0  0
  5  6  1  0  0  0
  6  7  2  0  0  0
  6 11  1  0  0  0
  7  8  1  0  0  0
  7 10  1  0  0  0
  8  9  2  0  0  0
 11 12  2  0  0  0
 11 13  2  0  0  0
 11 14  1  0  0  0
 28 31  1  0  0  0
 14 15  1  0  0  0
 14 16  1  0  0  0
M  END
> <minimizedAffinity>
-7.39938

$$$$
3M67_E36_A_262


 31 34  0  0  0  0  0  0  0  0999 V2000
   -2.7488    4.9076   12.2778 C   0  0  0  0  0  0  0  0  0  0  0  0
   -3.3020    3.6100   12.9719 C   0  0  0  0  0  0  0  0  0  0  0  0
   -2.8813    2.4576   12.5420 O   0  0  0  0  0  0  0  0  0  0  0  0
   -4.2892    3.7266   14.1408 C   0  0  0  0  0  0  0  0  0  0  0  0
   -4.5649    2.5856   15.0321 C   0  0  0  0  0  0  0  0  0  0  0  0
   -5.4320    2.7220   16.0577 C   0  0  0  0  0  0  0  0  0  0  0  0
   -6.0720    4.0264   16.2204 C   0  0  0  0  0  0  0  0  0  0  0  0
   -5.8667    5.0739   15.4077 C   0  0  0  0  0  0  0  0  0  0  0  0
   -4.9383    4.9083   14.3113 C   0  0  0  0  0  0  0  0  0  0  0  0
   -7.1646    4.1178   17.5297 Cl  0  0  0  0  0  0  0  0  0  0  0  0
   -5.7904    1.2490   17.0549 S   0  0  0  0  0  0  0  0  0  0  0  0
   -7.3107    1.0818   16.7728 O   0  0  0  0  0  0  0  0  0  0  0  0
   -5.4539    1.4939   18.5204 O   0  0  0  0  0  0  0  0  0  0  0  0
   -4.8393    0.0213   16.3466 N   0  0  0  0  0  0  0  0  0  0  0  0
   -5.1089   -0.0968   15.3700 H   0  0  0  0  0  0  0  0  0  0  0  0
   -4.9863   -0.8547   16.8481 H   0  0  0  0  0  0  0  0  0  0  0  0
   -1.0751    5.3287   12.9496 S   0  0  0  0  0  0  0  0  0  0  0  0
   -2.2340   12.8441   11.8308 O   0  0  0  0  0  0  0  0  0  0  0  0
   -1.2980   13.8960   12.0669 C   0  0  0  0  0  0  0  0  0  0  0  0
   -0.5828   13.7201   13.4521 C   0  0  0  0  0  0  0  0  0  0  0  0
   -1.2382   12.7984   14.3052 O   0  0  0  0  0  0  0  0  0  0  0  0
   -1.4029   11.5663   13.7314 C   0  0  0  0  0  0  0  0  0  0  0  0
   -1.9427   11.5774   12.3349 C   0  0  0  0  0  0  0  0  0  0  0  0
   -2.1165   10.4296   11.6452 C   0  0  0  0  0  0  0  0  0  0  0  0
   -1.7208    9.1903   12.3490 C   0  0  0  0  0  0  0  0  0  0  0  0
   -1.7524    7.8239   11.8735 N   0  0  0  0  0  0  0  0  0  0  0  0
   -1.2820    7.1198   12.8600 C   0  0  0  0  0  0  0  0  0  0  0  0
   -0.9590    7.9595   13.9860 N   0  0  0  0  0  0  0  0  0  0  0  0
   -1.2524    9.2270   13.5803 C   0  0  0  0  0  0  0  0  0  0  0  0
   -1.0646   10.4528   14.3559 C   0  0  0  0  0  0  0  0  0  0  0  0
   -0.6032    7.6781   14.8598 H   0  0  0  0  0  0  0  0  0  0  0  0
 18 19  1  0  0  0
 18 23  1  0  0  0
 19 20  1  0  0  0
 20 21  1  0  0  0
 21 22  1  0  0  0
 22 23  2  0  0  0
 22 30  1  0  0  0
 23 24  1  0  0  0
 24 25  2  0  0  0
 25 26  1  0  0  0
 25 29  1  0  0  0
 26 27  2  0  0  0
 27 28  1  0  0  0
 27 17  1  0  0  0
 28 29  1  0  0  0
 29 30  2  0  0  0
 17  1  1  0  0  0
  1  2  1  0  0  0
  2  3  2  0  0  0
  2  4  1  0  0  0
  4  5  2  0  0  0
  4  9  1  0  0  0
  5  6  1  0  0  0
  6  7  2  0  0  0
  6 11  1  0  0  0
  7  8  1  0  0  0
  7 10  1  0  0  0
  8  9  2  0  0  0
 11 12  2  0  0  0
 11 13  2  0  0  0
 11 14  1  0  0  0
 28 31  1  0  0  0
 14 15  1  0  0  0
 14 16  1  0  0  0
M  END
> <minimizedAffinity>
-7.33745

$$$$
3M67_E36_A_262


 31 34  0  0  0  0  0  0  0  0999 V2000
   -4.5872    6.2859   12.1560 C   0  0  0  0  0  0  0  0  0  0  0  0
   -5.7345    5.5226   12.9129 C   0  0  0  0  0  0  0  0  0  0  0  0
   -6.9326    6.0256   12.8780 O   0  0  0  0  0  0  0  0  0  0  0  0
   -5.4297    4.2074   13.6422 C   0  0  0  0  0  0  0  0  0  0  0  0
   -6.0076    3.9088   14.9647 C   0  0  0  0  0  0  0  0  0  0  0  0
   -5.7277    2.7388   15.5771 C   0  0  0  0  0  0  0  0  0  0  0  0
   -4.8342    1.8172   14.8774 C   0  0  0  0  0  0  0  0  0  0  0  0
   -4.2671    2.0731   13.6888 C   0  0  0  0  0  0  0  0  0  0  0  0
   -4.5742    3.3334   13.0495 C   0  0  0  0  0  0  0  0  0  0  0  0
   -4.5169    0.3659   15.7197 Cl  0  0  0  0  0  0  0  0  0  0  0  0
   -6.4007    2.4817   17.2426 S   0  0  0  0  0  0  0  0  0  0  0  0
   -6.9556    3.9030   17.5441 O   0  0  0  0  0  0  0  0  0  0  0  0
   -5.3086    2.0250   18.2017 O   0  0  0  0  0  0  0  0  0  0  0  0
   -7.6285    1.3164   17.0237 N   0  0  0  0  0  0  0  0  0  0  0  0
   -8.3278    1.6771   16.3746 H   0  0  0  0  0  0  0  0  0  0  0  0
   -8.0696    1.1146   17.9210 H   0  0  0  0  0  0  0  0  0  0  0  0
   -4.4831    5.7063   10.4002 S   0  0  0  0  0  0  0  0  0  0  0  0
   -8.1651   11.9040    7.7341 O   0  0  0  0  0  0  0  0  0  0  0  0
   -9.5540   12.2002    7.8816 C   0  0  0  0  0  0  0  0  0  0  0  0
  -10.4395   10.9432    7.5704 C   0  0  0  0  0  0  0  0  0  0  0  0
   -9.7354    9.9196    6.8897 O   0  0  0  0  0  0  0  0  0  0  0  0
   -8.6092    9.5151    7.5550 C   0  0  0  0  0  0  0  0  0  0  0  0
   -7.7281   10.6189    8.0521 C   0  0  0  0  0  0  0  0  0  0  0  0
   -6.6065   10.3529    8.7553 C   0  0  0  0  0  0  0  0  0  0  0  0
   -6.3322    8.9222    9.0113 C   0  0  0  0  0  0  0  0  0  0  0  0
   -5.2441    8.3228    9.7536 N   0  0  0  0  0  0  0  0  0  0  0  0
   -5.4738    7.0442    9.7019 C   0  0  0  0  0  0  0  0  0  0  0  0
   -6.6605    6.7632    8.9337 N   0  0  0  0  0  0  0  0  0  0  0  0
   -7.1342    7.9828    8.5520 C   0  0  0  0  0  0  0  0  0  0  0  0
   -8.3485    8.2398    7.7781 C   0  0  0  0  0  0  0  0  0  0  0  0
   -7.0457    5.8807    8.7288 H   0  0  0  0  0  0  0  0  0  0  0  0
 18 19  1  0  0  0
 18 23  1  0  0  0
 19 20  1  0  0  0
 20 21  1  0  0  0
 21 22  1  0  0  0
 22 23  2  0  0  0
 22 30  1  0  0  0
 23 24  1  0  0  0
 24 25  2  0  0  0
 25 26  1  0  0  0
 25 29  1  0  0  0
 26 27  2  0  0  0
 27 28  1  0  0  0
 27 17  1  0  0  0
 28 29  1  0  0  0
 29 30  2  0  0  0
 17  1  1  0  0  0
  1  2  1  0  0  0
  2  3  2  0  0  0
  2  4  1  0  0  0
  4  5  2  0  0  0
  4  9  1  0  0  0
  5  6  1  0  0  0
  6  7  2  0  0  0
  6 11  1  0  0  0
  7  8  1  0  0  0
  7 10  1  0  0  0
  8  9  2  0  0  0
 11 12  2  0  0  0
 11 13  2  0  0  0
 11 14  1  0  0  0
 28 31  1  0  0  0
 14 15  1  0  0  0
 14 16  1  0  0  0
M  END
> <minimizedAffinity>
-7.26208

$$$$
3M67_E36_A_262


 31 34  0  0  0  0  0  0  0  0999 V2000
   -3.9170    4.6612   11.6024 C   0  0  0  0  0  0  0  0  0  0  0  0
   -3.6295    3.7232   12.8309 C   0  0  0  0  0  0  0  0  0  0  0  0
   -2.6109    2.9184   12.7630 O   0  0  0  0  0  0  0  0  0  0  0  0
   -4.5239    3.7935   14.0757 C   0  0  0  0  0  0  0  0  0  0  0  0
   -4.7151    2.6248   14.9531 C   0  0  0  0  0  0  0  0  0  0  0  0
   -5.5013    2.7206   16.0463 C   0  0  0  0  0  0  0  0  0  0  0  0
   -6.1427    4.0107   16.2951 C   0  0  0  0  0  0  0  0  0  0  0  0
   -6.0143    5.0827   15.4989 C   0  0  0  0  0  0  0  0  0  0  0  0
   -5.1723    4.9606   14.3295 C   0  0  0  0  0  0  0  0  0  0  0  0
   -7.1309    4.0504   17.6873 Cl  0  0  0  0  0  0  0  0  0  0  0  0
   -5.7626    1.2158   17.0261 S   0  0  0  0  0  0  0  0  0  0  0  0
   -7.2724    0.9613   16.7528 O   0  0  0  0  0  0  0  0  0  0  0  0
   -5.4297    1.4615   18.4923 O   0  0  0  0  0  0  0  0  0  0  0  0
   -4.7454    0.0568   16.2945 N   0  0  0  0  0  0  0  0  0  0  0  0
   -5.0152   -0.0646   15.3184 H   0  0  0  0  0  0  0  0  0  0  0  0
   -4.8355   -0.8328   16.7853 H   0  0  0  0  0  0  0  0  0  0  0  0
   -2.4888    4.6279   10.4238 S   0  0  0  0  0  0  0  0  0  0  0  0
    2.1304    9.8923   13.5899 O   0  0  0  0  0  0  0  0  0  0  0  0
    2.0411   10.4201   14.9136 C   0  0  0  0  0  0  0  0  0  0  0  0
    0.5620   10.7966   15.2767 C   0  0  0  0  0  0  0  0  0  0  0  0
   -0.2885   10.8699   14.1463 O   0  0  0  0  0  0  0  0  0  0  0  0
   -0.2928    9.7172   13.4076 C   0  0  0  0  0  0  0  0  0  0  0  0
    1.0577    9.1461   13.1044 C   0  0  0  0  0  0  0  0  0  0  0  0
    1.1882    7.9923   12.4151 C   0  0  0  0  0  0  0  0  0  0  0  0
   -0.0753    7.3381   12.0112 C   0  0  0  0  0  0  0  0  0  0  0  0
   -0.2686    6.0914   11.3022 N   0  0  0  0  0  0  0  0  0  0  0  0
   -1.5588    5.9556   11.2184 C   0  0  0  0  0  0  0  0  0  0  0  0
   -2.2364    7.0748   11.8230 N   0  0  0  0  0  0  0  0  0  0  0  0
   -1.2429    7.8782   12.2972 C   0  0  0  0  0  0  0  0  0  0  0  0
   -1.4151    9.1316   13.0311 C   0  0  0  0  0  0  0  0  0  0  0  0
   -3.2075    7.2262   11.8809 H   0  0  0  0  0  0  0  0  0  0  0  0
 18 19  1  0  0  0
 18 23  1  0  0  0
 19 20  1  0  0  0
 20 21  1  0  0  0
 21 22  1  0  0  0
 22 23  2  0  0  0
 22 30  1  0  0  0
 23 24  1  0  0  0
 24 25  2  0  0  0
 25 26  1  0  0  0
 25 29  1  0  0  0
 26 27  2  0  0  0
 27 28  1  0  0  0
 27 17  1  0  0  0
 28 29  1  0  0  0
 29 30  2  0  0  0
 17  1  1  0  0  0
  1  2  1  0  0  0
  2  3  2  0  0  0
  2  4  1  0  0  0
  4  5  2  0  0  0
  4  9  1  0  0  0
  5  6  1  0  0  0
  6  7  2  0  0  0
  6 11  1  0  0  0
  7  8  1  0  0  0
  7 10  1  0  0  0
  8  9  2  0  0  0
 11 12  2  0  0  0
 11 13  2  0  0  0
 11 14  1  0  0  0
 28 31  1  0  0  0
 14 15  1  0  0  0
 14 16  1  0  0  0
M  END
> <minimizedAffinity>
-7.06232

$$$$
3M67_E36_A_262


 31 34  0  0  0  0  0  0  0  0999 V2000
   -1.9157    7.6005   14.1108 C   0  0  0  0  0  0  0  0  0  0  0  0
   -0.7003    8.4179   13.5397 C   0  0  0  0  0  0  0  0  0  0  0  0
    0.1437    7.8022   12.7661 O   0  0  0  0  0  0  0  0  0  0  0  0
   -0.5508    9.9072   13.8774 C   0  0  0  0  0  0  0  0  0  0  0  0
    0.5655   10.4009   14.7034 C   0  0  0  0  0  0  0  0  0  0  0  0
    0.6749   11.7185   14.9758 C   0  0  0  0  0  0  0  0  0  0  0  0
   -0.3556   12.6000   14.4293 C   0  0  0  0  0  0  0  0  0  0  0  0
   -1.4007   12.1779   13.7017 C   0  0  0  0  0  0  0  0  0  0  0  0
   -1.5046   10.7625   13.4237 C   0  0  0  0  0  0  0  0  0  0  0  0
   -0.1573   14.2488   14.8271 Cl  0  0  0  0  0  0  0  0  0  0  0  0
    2.0219   12.2390   16.0747 S   0  0  0  0  0  0  0  0  0  0  0  0
    1.2079   12.7081   17.3143 O   0  0  0  0  0  0  0  0  0  0  0  0
    2.8539   13.3381   15.4260 O   0  0  0  0  0  0  0  0  0  0  0  0
    2.9085   10.8084   16.3585 N   0  0  0  0  0  0  0  0  0  0  0  0
    2.3015   10.1126   16.7920 H   0  0  0  0  0  0  0  0  0  0  0  0
    3.6913   11.0112   16.9801 H   0  0  0  0  0  0  0  0  0  0  0  0
   -2.6573    6.5443   12.7826 S   0  0  0  0  0  0  0  0  0  0  0  0
   -4.9698    0.9186   17.4815 O   0  0  0  0  0  0  0  0  0  0  0  0
   -6.1743    0.1594   17.3751 C   0  0  0  0  0  0  0  0  0  0  0  0
   -7.4074    1.0866   17.0907 C   0  0  0  0  0  0  0  0  0  0  0  0
   -7.1457    2.4557   17.3431 O   0  0  0  0  0  0  0  0  0  0  0  0
   -6.0656    2.9284   16.6471 C   0  0  0  0  0  0  0  0  0  0  0  0
   -4.8428    2.0658   16.6996 C   0  0  0  0  0  0  0  0  0  0  0  0
   -3.7226    2.4022   16.0250 C   0  0  0  0  0  0  0  0  0  0  0  0
   -3.8001    3.6470   15.2298 C   0  0  0  0  0  0  0  0  0  0  0  0
   -2.7940    4.2496   14.3821 N   0  0  0  0  0  0  0  0  0  0  0  0
   -3.3646    5.3117   13.8959 C   0  0  0  0  0  0  0  0  0  0  0  0
   -4.7057    5.4561   14.4039 N   0  0  0  0  0  0  0  0  0  0  0  0
   -4.8969    4.3775   15.2147 C   0  0  0  0  0  0  0  0  0  0  0  0
   -6.1203    4.0451   15.9441 C   0  0  0  0  0  0  0  0  0  0  0  0
   -5.3455    6.1781   14.2075 H   0  0  0  0  0  0  0  0  0  0  0  0
 18 19  1  0  0  0
 18 23  1  0  0  0
 19 20  1  0  0  0
 20 21  1  0  0  0
 21 22  1  0  0  0
 22 23  2  0  0  0
 22 30  1  0  0  0
 23 24  1  0  0  0
 24 25  2  0  0  0
 25 26  1  0  0  0
 25 29  1  0  0  0
 26 27  2  0  0  0
 27 28  1  0  0  0
 27 17  1  0  0  0
 28 29  1  0  0  0
 29 30  2  0  0  0
 17  1  1  0  0  0
  1  2  1  0  0  0
  2  3  2  0  0  0
  2  4  1  0  0  0
  4  5  2  0  0  0
  4  9  1  0  0  0
  5  6  1  0  0  0
  6  7  2  0  0  0
  6 11  1  0  0  0
  7  8  1  0  0  0
  7 10  1  0  0  0
  8  9  2  0  0  0
 11 12  2  0  0  0
 11 13  2  0  0  0
 11 14  1  0  0  0
 28 31  1  0  0  0
 14 15  1  0  0  0
 14 16  1  0  0  0
M  END
> <minimizedAffinity>
-6.99955

$$$$
3M67_E36_A_262


 31 34  0  0  0  0  0  0  0  0999 V2000
   -1.1051    5.6959   11.8816 C   0  0  0  0  0  0  0  0  0  0  0  0
   -1.1290    6.8542   10.8188 C   0  0  0  0  0  0  0  0  0  0  0  0
   -0.0653    7.0459   10.0965 O   0  0  0  0  0  0  0  0  0  0  0  0
   -2.3940    7.7036   10.6380 C   0  0  0  0  0  0  0  0  0  0  0  0
   -3.7295    7.1755   10.9695 C   0  0  0  0  0  0  0  0  0  0  0  0
   -4.8230    7.9504   10.8080 C   0  0  0  0  0  0  0  0  0  0  0  0
   -4.6122    9.3009   10.2888 C   0  0  0  0  0  0  0  0  0  0  0  0
   -3.4142    9.7992    9.9478 C   0  0  0  0  0  0  0  0  0  0  0  0
   -2.2544    8.9533   10.1228 C   0  0  0  0  0  0  0  0  0  0  0  0
   -6.0420   10.2152   10.0995 Cl  0  0  0  0  0  0  0  0  0  0  0  0
   -6.4401    7.2012   11.1490 S   0  0  0  0  0  0  0  0  0  0  0  0
   -6.8171    6.6885    9.7299 O   0  0  0  0  0  0  0  0  0  0  0  0
   -7.4064    8.2353   11.7128 O   0  0  0  0  0  0  0  0  0  0  0  0
   -6.0952    5.9402   12.2465 N   0  0  0  0  0  0  0  0  0  0  0  0
   -5.4463    5.2820   11.8150 H   0  0  0  0  0  0  0  0  0  0  0  0
   -6.9591    5.4557   12.4901 H   0  0  0  0  0  0  0  0  0  0  0  0
   -1.7864    4.1387   11.1462 S   0  0  0  0  0  0  0  0  0  0  0  0
   -6.4677    3.1901   17.1680 O   0  0  0  0  0  0  0  0  0  0  0  0
   -6.2392    2.3543   18.3029 C   0  0  0  0  0  0  0  0  0  0  0  0
   -5.7177    0.9392   17.8707 C   0  0  0  0  0  0  0  0  0  0  0  0
   -5.9129    0.6694   16.4939 O   0  0  0  0  0  0  0  0  0  0  0  0
   -5.3506    1.6166   15.6808 C   0  0  0  0  0  0  0  0  0  0  0  0
   -5.6373    3.0367   16.0589 C   0  0  0  0  0  0  0  0  0  0  0  0
   -5.1109    4.0645   15.3590 C   0  0  0  0  0  0  0  0  0  0  0  0
   -4.2312    3.6904   14.2304 C   0  0  0  0  0  0  0  0  0  0  0  0
   -3.4996    4.5485   13.3234 N   0  0  0  0  0  0  0  0  0  0  0  0
   -2.8658    3.7319   12.5350 C   0  0  0  0  0  0  0  0  0  0  0  0
   -3.1634    2.3606   12.8641 N   0  0  0  0  0  0  0  0  0  0  0  0
   -4.0085    2.4264   13.9313 C   0  0  0  0  0  0  0  0  0  0  0  0
   -4.5737    1.2930   14.6629 C   0  0  0  0  0  0  0  0  0  0  0  0
   -2.8284    1.5511   12.4150 H   0  0  0  0  0  0  0  0  0  0  0  0
 18 19  1  0  0  0
 18 23  1  0  0  0
 19 20  1  0  0  0
 20 21  1  0  0  0
 21 22  1  0  0  0
 22 23  2  0  0  0
 22 30  1  0  0  0
 23 24  1  0  0  0
 24 25  2  0  0  0
 25 26  1  0  0  0
 25 29  1  0  0  0
 26 27  2  0  0  0
 27 28  1  0  0  0
 27 17  1  0  0  0
 28 29  1  0  0  0
 29 30  2  0  0  0
 17  1  1  0  0  0
  1  2  1  0  0  0
  2  3  2  0  0  0
  2  4  1  0  0  0
  4  5  2  0  0  0
  4  9  1  0  0  0
  5  6  1  0  0  0
  6  7  2  0  0  0
  6 11  1  0  0  0
  7  8  1  0  0  0
  7 10  1  0  0  0
  8  9  2  0  0  0
 11 12  2  0  0  0
 11 13  2  0  0  0
 11 14  1  0  0  0
 28 31  1  0  0  0
 14 15  1  0  0  0
 14 16  1  0  0  0
M  END
> <minimizedAffinity>
-6.83064

$$$$
