2XJ2_985_A_1001


 26 28  0  0  0  0  0  0  0  0999 V2000
  -22.4488  -36.7108   -2.6715 C   0  0  0  0  0  0  0  0  0  0  0  0
  -22.0322  -35.5656   -3.2450 N   0  0  0  0  0  0  0  0  0  0  0  0
  -21.9638  -35.3927   -4.5768 C   0  0  0  0  0  0  0  0  0  0  0  0
  -22.3790  -36.4385   -5.4001 C   0  0  0  0  0  0  0  0  0  0  0  0
  -22.8043  -37.5708   -4.8407 N   0  0  0  0  0  0  0  0  0  0  0  0
  -22.8684  -37.7365   -3.5174 C   0  0  0  0  0  0  0  0  0  0  0  0
  -21.5164  -34.2242   -5.0693 N   0  0  0  0  0  0  0  0  0  0  0  0
  -20.2778  -33.6615   -4.4972 C   0  0  0  0  0  0  0  0  0  0  0  0
  -20.6014  -32.7438   -3.2929 C   0  0  0  0  0  0  0  0  0  0  0  0
  -21.8469  -31.9374   -3.4258 N   0  0  0  0  0  0  0  0  0  0  0  0
  -22.0489  -31.3536   -4.7723 C   0  0  0  0  0  0  0  0  0  0  0  0
  -22.9940  -32.2470   -5.6104 C   0  0  0  0  0  0  0  0  0  0  0  0
  -22.2846  -33.5226   -6.1365 C   0  0  0  0  0  0  0  0  0  0  0  0
  -21.7805  -30.8189   -2.4614 C   0  0  0  0  0  0  0  0  0  0  0  0
  -22.9133  -36.8497    1.5148 C   0  0  0  0  0  0  0  0  0  0  0  0
  -23.0482  -38.0190    0.7688 C   0  0  0  0  0  0  0  0  0  0  0  0
  -22.8841  -37.9912   -0.6162 C   0  0  0  0  0  0  0  0  0  0  0  0
  -22.5586  -36.8059   -1.2682 C   0  0  0  0  0  0  0  0  0  0  0  0
  -22.4469  -35.6402   -0.5026 C   0  0  0  0  0  0  0  0  0  0  0  0
  -22.5896  -35.6511    0.8823 C   0  0  0  0  0  0  0  0  0  0  0  0
  -22.4926  -34.4694    1.6276 C   0  0  0  0  0  0  0  0  0  0  0  0
  -21.8330  -33.3113    1.2175 C   0  0  0  0  0  0  0  0  0  0  0  0
  -21.8288  -32.1611    2.0177 C   0  0  0  0  0  0  0  0  0  0  0  0
  -21.2006  -31.1747    1.5923 O   0  0  0  0  0  0  0  0  0  0  0  0
  -22.4542  -32.1544    3.1069 O   0  0  0  0  0  0  0  0  0  0  0  0
  -20.7480  -31.2251    0.7734 H   0  0  0  0  0  0  0  0  0  0  0  0
 18  1  1  0  0  0
  1  2  2  0  0  0
  1  6  1  0  0  0
  2  3  1  0  0  0
  3  7  1  0  0  0
  3  4  2  0  0  0
  5  4  1  0  0  0
  6  5  2  0  0  0
  8  7  1  0  0  0
  7 13  1  0  0  0
  9  8  1  0  0  0
  9 10  1  0  0  0
 14 10  1  0  0  0
 10 11  1  0  0  0
 11 12  1  0  0  0
 13 12  1  0  0  0
 15 16  2  0  0  0
 15 20  1  0  0  0
 16 17  1  0  0  0
 17 18  2  0  0  0
 19 18  1  0  0  0
 20 19  2  0  0  0
 21 20  1  0  0  0
 21 22  2  0  0  0
 23 22  1  0  0  0
 25 23  2  0  0  0
 23 24  1  0  0  0
 24 26  1  0  0  0
M  END
> <minimizedAffinity>
-9.99883

$$$$
2XJ2_985_A_1001


 26 28  0  0  0  0  0  0  0  0999 V2000
  -22.6031  -36.1046   -2.6274 C   0  0  0  0  0  0  0  0  0  0  0  0
  -22.2165  -34.8963   -3.0799 N   0  0  0  0  0  0  0  0  0  0  0  0
  -22.2398  -34.5564   -4.3807 C   0  0  0  0  0  0  0  0  0  0  0  0
  -22.7218  -35.4893   -5.2980 C   0  0  0  0  0  0  0  0  0  0  0  0
  -23.1178  -36.6829   -4.8572 N   0  0  0  0  0  0  0  0  0  0  0  0
  -23.0908  -37.0147   -3.5642 C   0  0  0  0  0  0  0  0  0  0  0  0
  -21.8167  -33.3353   -4.7522 N   0  0  0  0  0  0  0  0  0  0  0  0
  -22.7897  -32.2263   -4.7182 C   0  0  0  0  0  0  0  0  0  0  0  0
  -23.5294  -32.1085   -6.0734 C   0  0  0  0  0  0  0  0  0  0  0  0
  -22.6990  -32.3934   -7.2769 N   0  0  0  0  0  0  0  0  0  0  0  0
  -21.3337  -31.8212   -7.2192 C   0  0  0  0  0  0  0  0  0  0  0  0
  -20.3219  -32.8892   -6.7401 C   0  0  0  0  0  0  0  0  0  0  0  0
  -20.4123  -33.1414   -5.2120 C   0  0  0  0  0  0  0  0  0  0  0  0
  -23.3756  -31.8119   -8.4557 C   0  0  0  0  0  0  0  0  0  0  0  0
  -22.7850  -36.7815    1.5281 C   0  0  0  0  0  0  0  0  0  0  0  0
  -22.8951  -37.8584    0.6506 C   0  0  0  0  0  0  0  0  0  0  0  0
  -22.8235  -37.6518   -0.7271 C   0  0  0  0  0  0  0  0  0  0  0  0
  -22.6153  -36.3764   -1.2431 C   0  0  0  0  0  0  0  0  0  0  0  0
  -22.5268  -35.3070   -0.3453 C   0  0  0  0  0  0  0  0  0  0  0  0
  -22.5784  -35.4956    1.0332 C   0  0  0  0  0  0  0  0  0  0  0  0
  -22.5068  -34.4089    1.9139 C   0  0  0  0  0  0  0  0  0  0  0  0
  -21.9502  -33.1660    1.6145 C   0  0  0  0  0  0  0  0  0  0  0  0
  -21.9655  -32.1238    2.5509 C   0  0  0  0  0  0  0  0  0  0  0  0
  -21.2274  -31.1472    2.3270 O   0  0  0  0  0  0  0  0  0  0  0  0
  -22.7144  -32.1971    3.5566 O   0  0  0  0  0  0  0  0  0  0  0  0
  -20.6848  -31.1355    1.5632 H   0  0  0  0  0  0  0  0  0  0  0  0
 18  1  1  0  0  0
  1  2  2  0  0  0
  1  6  1  0  0  0
  2  3  1  0  0  0
  3  7  1  0  0  0
  3  4  2  0  0  0
  5  4  1  0  0  0
  6  5  2  0  0  0
  8  7  1  0  0  0
  7 13  1  0  0  0
  9  8  1  0  0  0
  9 10  1  0  0  0
 14 10  1  0  0  0
 10 11  1  0  0  0
 11 12  1  0  0  0
 13 12  1  0  0  0
 15 16  2  0  0  0
 15 20  1  0  0  0
 16 17  1  0  0  0
 17 18  2  0  0  0
 19 18  1  0  0  0
 20 19  2  0  0  0
 21 20  1  0  0  0
 21 22  2  0  0  0
 23 22  1  0  0  0
 25 23  2  0  0  0
 23 24  1  0  0  0
 24 26  1  0  0  0
M  END
> <minimizedAffinity>
-9.15946

$$$$
2XJ2_985_A_1001


 26 28  0  0  0  0  0  0  0  0999 V2000
  -21.9578  -35.7101   -2.6954 C   0  0  0  0  0  0  0  0  0  0  0  0
  -22.6877  -36.2668   -3.6809 N   0  0  0  0  0  0  0  0  0  0  0  0
  -22.4704  -36.0217   -4.9851 C   0  0  0  0  0  0  0  0  0  0  0  0
  -21.4151  -35.1786   -5.3312 C   0  0  0  0  0  0  0  0  0  0  0  0
  -20.6802  -34.6332   -4.3625 N   0  0  0  0  0  0  0  0  0  0  0  0
  -20.9022  -34.8796   -3.0692 C   0  0  0  0  0  0  0  0  0  0  0  0
  -23.2586  -36.6024   -5.9068 N   0  0  0  0  0  0  0  0  0  0  0  0
  -24.5182  -37.2203   -5.4492 C   0  0  0  0  0  0  0  0  0  0  0  0
  -24.2913  -38.7046   -5.0710 C   0  0  0  0  0  0  0  0  0  0  0  0
  -23.3191  -39.4371   -5.9298 N   0  0  0  0  0  0  0  0  0  0  0  0
  -23.4423  -39.1365   -7.3753 C   0  0  0  0  0  0  0  0  0  0  0  0
  -22.4131  -38.0587   -7.7909 C   0  0  0  0  0  0  0  0  0  0  0  0
  -22.8341  -36.6366   -7.3350 C   0  0  0  0  0  0  0  0  0  0  0  0
  -23.5473  -40.8873   -5.7559 C   0  0  0  0  0  0  0  0  0  0  0  0
  -22.8042  -36.6066    1.3345 C   0  0  0  0  0  0  0  0  0  0  0  0
  -22.8565  -37.6197    0.3791 C   0  0  0  0  0  0  0  0  0  0  0  0
  -22.5659  -37.3410   -0.9565 C   0  0  0  0  0  0  0  0  0  0  0  0
  -22.1953  -36.0586   -1.3491 C   0  0  0  0  0  0  0  0  0  0  0  0
  -22.1679  -35.0524   -0.3773 C   0  0  0  0  0  0  0  0  0  0  0  0
  -22.4375  -35.3147    0.9633 C   0  0  0  0  0  0  0  0  0  0  0  0
  -22.4230  -34.2890    1.9168 C   0  0  0  0  0  0  0  0  0  0  0  0
  -21.9062  -33.0098    1.7148 C   0  0  0  0  0  0  0  0  0  0  0  0
  -21.9779  -32.0353    2.7190 C   0  0  0  0  0  0  0  0  0  0  0  0
  -21.2203  -31.0537    2.6141 O   0  0  0  0  0  0  0  0  0  0  0  0
  -22.7934  -32.1703    3.6648 O   0  0  0  0  0  0  0  0  0  0  0  0
  -20.6274  -30.9947    1.8909 H   0  0  0  0  0  0  0  0  0  0  0  0
 18  1  1  0  0  0
  1  2  2  0  0  0
  1  6  1  0  0  0
  2  3  1  0  0  0
  3  7  1  0  0  0
  3  4  2  0  0  0
  5  4  1  0  0  0
  6  5  2  0  0  0
  8  7  1  0  0  0
  7 13  1  0  0  0
  9  8  1  0  0  0
  9 10  1  0  0  0
 14 10  1  0  0  0
 10 11  1  0  0  0
 11 12  1  0  0  0
 13 12  1  0  0  0
 15 16  2  0  0  0
 15 20  1  0  0  0
 16 17  1  0  0  0
 17 18  2  0  0  0
 19 18  1  0  0  0
 20 19  2  0  0  0
 21 20  1  0  0  0
 21 22  2  0  0  0
 23 22  1  0  0  0
 25 23  2  0  0  0
 23 24  1  0  0  0
 24 26  1  0  0  0
M  END
> <minimizedAffinity>
-9.01161

$$$$
2XJ2_985_A_1001


 26 28  0  0  0  0  0  0  0  0999 V2000
  -23.4871  -37.4606   -4.1254 C   0  0  0  0  0  0  0  0  0  0  0  0
  -22.7259  -36.6820   -4.9181 N   0  0  0  0  0  0  0  0  0  0  0  0
  -22.9971  -36.4680   -6.2176 C   0  0  0  0  0  0  0  0  0  0  0  0
  -24.1419  -37.0527   -6.7578 C   0  0  0  0  0  0  0  0  0  0  0  0
  -24.9074  -37.8147   -5.9772 N   0  0  0  0  0  0  0  0  0  0  0  0
  -24.6316  -38.0243   -4.6877 C   0  0  0  0  0  0  0  0  0  0  0  0
  -22.1740  -35.6930   -6.9455 N   0  0  0  0  0  0  0  0  0  0  0  0
  -21.3305  -34.7164   -6.2294 C   0  0  0  0  0  0  0  0  0  0  0  0
  -22.0685  -33.3632   -6.0825 C   0  0  0  0  0  0  0  0  0  0  0  0
  -22.9158  -32.9727   -7.2439 N   0  0  0  0  0  0  0  0  0  0  0  0
  -22.2987  -33.2472   -8.5625 C   0  0  0  0  0  0  0  0  0  0  0  0
  -22.8133  -34.5921   -9.1283 C   0  0  0  0  0  0  0  0  0  0  0  0
  -22.1575  -35.8131   -8.4310 C   0  0  0  0  0  0  0  0  0  0  0  0
  -23.1688  -31.5183   -7.1652 C   0  0  0  0  0  0  0  0  0  0  0  0
  -22.7114  -37.7086    0.0094 C   0  0  0  0  0  0  0  0  0  0  0  0
  -23.0805  -38.8555   -0.6909 C   0  0  0  0  0  0  0  0  0  0  0  0
  -23.3275  -38.7917   -2.0624 C   0  0  0  0  0  0  0  0  0  0  0  0
  -23.1841  -37.5928   -2.7539 C   0  0  0  0  0  0  0  0  0  0  0  0
  -22.8316  -36.4498   -2.0281 C   0  0  0  0  0  0  0  0  0  0  0  0
  -22.5639  -36.4970   -0.6626 C   0  0  0  0  0  0  0  0  0  0  0  0
  -22.2310  -35.3373    0.0485 C   0  0  0  0  0  0  0  0  0  0  0  0
  -22.6825  -35.0215    1.3294 C   0  0  0  0  0  0  0  0  0  0  0  0
  -22.2569  -33.8544    1.9776 C   0  0  0  0  0  0  0  0  0  0  0  0
  -21.3957  -33.1656    1.4011 O   0  0  0  0  0  0  0  0  0  0  0  0
  -22.7538  -33.5381    3.0869 O   0  0  0  0  0  0  0  0  0  0  0  0
  -21.0527  -33.4406    0.5737 H   0  0  0  0  0  0  0  0  0  0  0  0
 18  1  1  0  0  0
  1  2  2  0  0  0
  1  6  1  0  0  0
  2  3  1  0  0  0
  3  7  1  0  0  0
  3  4  2  0  0  0
  5  4  1  0  0  0
  6  5  2  0  0  0
  8  7  1  0  0  0
  7 13  1  0  0  0
  9  8  1  0  0  0
  9 10  1  0  0  0
 14 10  1  0  0  0
 10 11  1  0  0  0
 11 12  1  0  0  0
 13 12  1  0  0  0
 15 16  2  0  0  0
 15 20  1  0  0  0
 16 17  1  0  0  0
 17 18  2  0  0  0
 19 18  1  0  0  0
 20 19  2  0  0  0
 21 20  1  0  0  0
 21 22  2  0  0  0
 23 22  1  0  0  0
 25 23  2  0  0  0
 23 24  1  0  0  0
 24 26  1  0  0  0
M  END
> <minimizedAffinity>
-8.95923

$$$$
2XJ2_985_A_1001


 26 28  0  0  0  0  0  0  0  0999 V2000
  -22.2133  -35.3483   -0.9831 C   0  0  0  0  0  0  0  0  0  0  0  0
  -21.7343  -34.5796   -1.9799 N   0  0  0  0  0  0  0  0  0  0  0  0
  -21.2490  -33.3408   -1.7847 C   0  0  0  0  0  0  0  0  0  0  0  0
  -21.2079  -32.8459   -0.4818 C   0  0  0  0  0  0  0  0  0  0  0  0
  -21.6686  -33.6049    0.5119 N   0  0  0  0  0  0  0  0  0  0  0  0
  -22.1506  -34.8337    0.3111 C   0  0  0  0  0  0  0  0  0  0  0  0
  -20.8086  -32.6302   -2.8378 N   0  0  0  0  0  0  0  0  0  0  0  0
  -21.3472  -31.2694   -3.0277 C   0  0  0  0  0  0  0  0  0  0  0  0
  -22.6236  -31.3056   -3.9035 C   0  0  0  0  0  0  0  0  0  0  0  0
  -22.6104  -32.3100   -5.0036 N   0  0  0  0  0  0  0  0  0  0  0  0
  -21.3169  -32.4064   -5.7194 C   0  0  0  0  0  0  0  0  0  0  0  0
  -20.4761  -33.5771   -5.1569 C   0  0  0  0  0  0  0  0  0  0  0  0
  -19.8318  -33.2338   -3.7879 C   0  0  0  0  0  0  0  0  0  0  0  0
  -23.6393  -31.9270   -5.9936 C   0  0  0  0  0  0  0  0  0  0  0  0
  -23.3807  -39.2897   -1.9123 C   0  0  0  0  0  0  0  0  0  0  0  0
  -23.0214  -38.9692   -0.6046 C   0  0  0  0  0  0  0  0  0  0  0  0
  -22.6455  -37.6659   -0.2789 C   0  0  0  0  0  0  0  0  0  0  0  0
  -22.6491  -36.6644   -1.2449 C   0  0  0  0  0  0  0  0  0  0  0  0
  -22.9946  -37.0120   -2.5554 C   0  0  0  0  0  0  0  0  0  0  0  0
  -23.3893  -38.3030   -2.8960 C   0  0  0  0  0  0  0  0  0  0  0  0
  -23.7129  -38.6341   -4.2178 C   0  0  0  0  0  0  0  0  0  0  0  0
  -24.5451  -37.8897   -5.0531 C   0  0  0  0  0  0  0  0  0  0  0  0
  -24.7739  -38.2810   -6.3789 C   0  0  0  0  0  0  0  0  0  0  0  0
  -24.4510  -39.4409   -6.6934 O   0  0  0  0  0  0  0  0  0  0  0  0
  -25.2972  -37.4750   -7.1877 O   0  0  0  0  0  0  0  0  0  0  0  0
  -24.0630  -40.0081   -6.0565 H   0  0  0  0  0  0  0  0  0  0  0  0
 18  1  1  0  0  0
  1  2  2  0  0  0
  1  6  1  0  0  0
  2  3  1  0  0  0
  3  7  1  0  0  0
  3  4  2  0  0  0
  5  4  1  0  0  0
  6  5  2  0  0  0
  8  7  1  0  0  0
  7 13  1  0  0  0
  9  8  1  0  0  0
  9 10  1  0  0  0
 14 10  1  0  0  0
 10 11  1  0  0  0
 11 12  1  0  0  0
 13 12  1  0  0  0
 15 16  2  0  0  0
 15 20  1  0  0  0
 16 17  1  0  0  0
 17 18  2  0  0  0
 19 18  1  0  0  0
 20 19  2  0  0  0
 21 20  1  0  0  0
 21 22  2  0  0  0
 23 22  1  0  0  0
 25 23  2  0  0  0
 23 24  1  0  0  0
 24 26  1  0  0  0
M  END
> <minimizedAffinity>
-8.91834

$$$$
2XJ2_985_A_1001


 26 28  0  0  0  0  0  0  0  0999 V2000
  -22.6939  -37.0551   -2.7639 C   0  0  0  0  0  0  0  0  0  0  0  0
  -23.3102  -38.0625   -3.4114 N   0  0  0  0  0  0  0  0  0  0  0  0
  -23.2965  -38.1938   -4.7496 C   0  0  0  0  0  0  0  0  0  0  0  0
  -22.5786  -37.2608   -5.4968 C   0  0  0  0  0  0  0  0  0  0  0  0
  -21.9557  -36.2677   -4.8631 N   0  0  0  0  0  0  0  0  0  0  0  0
  -21.9745  -36.1423   -3.5340 C   0  0  0  0  0  0  0  0  0  0  0  0
  -23.9552  -39.2179   -5.3198 N   0  0  0  0  0  0  0  0  0  0  0  0
  -23.2952  -40.5377   -5.3428 C   0  0  0  0  0  0  0  0  0  0  0  0
  -22.4425  -40.6985   -6.6252 C   0  0  0  0  0  0  0  0  0  0  0  0
  -23.0201  -40.0833   -7.8529 N   0  0  0  0  0  0  0  0  0  0  0  0
  -24.4800  -40.2866   -8.0021 C   0  0  0  0  0  0  0  0  0  0  0  0
  -25.2518  -39.0505   -7.4823 C   0  0  0  0  0  0  0  0  0  0  0  0
  -25.2951  -38.9931   -5.9325 C   0  0  0  0  0  0  0  0  0  0  0  0
  -22.3637  -40.6918   -9.0295 C   0  0  0  0  0  0  0  0  0  0  0  0
  -22.8274  -36.7785    1.4392 C   0  0  0  0  0  0  0  0  0  0  0  0
  -22.9978  -38.0182    0.8259 C   0  0  0  0  0  0  0  0  0  0  0  0
  -22.9429  -38.1277   -0.5637 C   0  0  0  0  0  0  0  0  0  0  0  0
  -22.6920  -37.0101   -1.3538 C   0  0  0  0  0  0  0  0  0  0  0  0
  -22.5431  -35.7723   -0.7189 C   0  0  0  0  0  0  0  0  0  0  0  0
  -22.5770  -35.6459    0.6672 C   0  0  0  0  0  0  0  0  0  0  0  0
  -22.4447  -34.3943    1.2816 C   0  0  0  0  0  0  0  0  0  0  0  0
  -21.6320  -33.3566    0.8267 C   0  0  0  0  0  0  0  0  0  0  0  0
  -21.6006  -32.1214    1.4876 C   0  0  0  0  0  0  0  0  0  0  0  0
  -22.1954  -32.0446    2.5779 O   0  0  0  0  0  0  0  0  0  0  0  0
  -20.9777  -31.1560    0.9802 O   0  0  0  0  0  0  0  0  0  0  0  0
  -22.6476  -32.7912    2.9186 H   0  0  0  0  0  0  0  0  0  0  0  0
 18  1  1  0  0  0
  1  2  2  0  0  0
  1  6  1  0  0  0
  2  3  1  0  0  0
  3  7  1  0  0  0
  3  4  2  0  0  0
  5  4  1  0  0  0
  6  5  2  0  0  0
  8  7  1  0  0  0
  7 13  1  0  0  0
  9  8  1  0  0  0
  9 10  1  0  0  0
 14 10  1  0  0  0
 10 11  1  0  0  0
 11 12  1  0  0  0
 13 12  1  0  0  0
 15 16  2  0  0  0
 15 20  1  0  0  0
 16 17  1  0  0  0
 17 18  2  0  0  0
 19 18  1  0  0  0
 20 19  2  0  0  0
 21 20  1  0  0  0
 21 22  2  0  0  0
 23 22  1  0  0  0
 25 23  2  0  0  0
 23 24  1  0  0  0
 24 26  1  0  0  0
M  END
> <minimizedAffinity>
-8.78838

$$$$
2XJ2_985_A_1001


 26 28  0  0  0  0  0  0  0  0999 V2000
  -22.2689  -33.1615   -5.6170 C   0  0  0  0  0  0  0  0  0  0  0  0
  -22.2037  -34.4622   -5.2736 N   0  0  0  0  0  0  0  0  0  0  0  0
  -22.2009  -35.4610   -6.1739 C   0  0  0  0  0  0  0  0  0  0  0  0
  -22.2305  -35.1291   -7.5278 C   0  0  0  0  0  0  0  0  0  0  0  0
  -22.2826  -33.8440   -7.8765 N   0  0  0  0  0  0  0  0  0  0  0  0
  -22.2866  -32.8570   -6.9774 C   0  0  0  0  0  0  0  0  0  0  0  0
  -22.1548  -36.7352   -5.7469 N   0  0  0  0  0  0  0  0  0  0  0  0
  -21.8127  -37.7818   -6.7296 C   0  0  0  0  0  0  0  0  0  0  0  0
  -23.0901  -38.3213   -7.4184 C   0  0  0  0  0  0  0  0  0  0  0  0
  -24.2894  -38.4243   -6.5407 N   0  0  0  0  0  0  0  0  0  0  0  0
  -24.0030  -38.9439   -5.1833 C   0  0  0  0  0  0  0  0  0  0  0  0
  -23.8440  -37.7754   -4.1818 C   0  0  0  0  0  0  0  0  0  0  0  0
  -22.4763  -37.0576   -4.3278 C   0  0  0  0  0  0  0  0  0  0  0  0
  -25.2519  -39.3485   -7.1770 C   0  0  0  0  0  0  0  0  0  0  0  0
  -21.8816  -30.2169   -2.6270 C   0  0  0  0  0  0  0  0  0  0  0  0
  -22.3551  -29.8586   -3.8877 C   0  0  0  0  0  0  0  0  0  0  0  0
  -22.5013  -30.8245   -4.8836 C   0  0  0  0  0  0  0  0  0  0  0  0
  -22.2030  -32.1590   -4.6265 C   0  0  0  0  0  0  0  0  0  0  0  0
  -21.7109  -32.4937   -3.3602 C   0  0  0  0  0  0  0  0  0  0  0  0
  -21.5748  -31.5472   -2.3483 C   0  0  0  0  0  0  0  0  0  0  0  0
  -21.0622  -31.9000   -1.0936 C   0  0  0  0  0  0  0  0  0  0  0  0
  -21.6071  -31.5227    0.1332 C   0  0  0  0  0  0  0  0  0  0  0  0
  -21.0458  -31.9639    1.3388 C   0  0  0  0  0  0  0  0  0  0  0  0
  -21.2654  -31.2775    2.3532 O   0  0  0  0  0  0  0  0  0  0  0  0
  -20.3657  -33.0196    1.3629 O   0  0  0  0  0  0  0  0  0  0  0  0
  -21.7787  -30.4963    2.2882 H   0  0  0  0  0  0  0  0  0  0  0  0
 18  1  1  0  0  0
  1  2  2  0  0  0
  1  6  1  0  0  0
  2  3  1  0  0  0
  3  7  1  0  0  0
  3  4  2  0  0  0
  5  4  1  0  0  0
  6  5  2  0  0  0
  8  7  1  0  0  0
  7 13  1  0  0  0
  9  8  1  0  0  0
  9 10  1  0  0  0
 14 10  1  0  0  0
 10 11  1  0  0  0
 11 12  1  0  0  0
 13 12  1  0  0  0
 15 16  2  0  0  0
 15 20  1  0  0  0
 16 17  1  0  0  0
 17 18  2  0  0  0
 19 18  1  0  0  0
 20 19  2  0  0  0
 21 20  1  0  0  0
 21 22  2  0  0  0
 23 22  1  0  0  0
 25 23  2  0  0  0
 23 24  1  0  0  0
 24 26  1  0  0  0
M  END
> <minimizedAffinity>
-8.77901

$$$$
2XJ2_985_A_1001


 26 28  0  0  0  0  0  0  0  0999 V2000
  -22.5949  -36.6626   -5.1204 C   0  0  0  0  0  0  0  0  0  0  0  0
  -22.1518  -35.4396   -5.4694 N   0  0  0  0  0  0  0  0  0  0  0  0
  -22.0885  -35.0166   -6.7443 C   0  0  0  0  0  0  0  0  0  0  0  0
  -22.5379  -35.8747   -7.7472 C   0  0  0  0  0  0  0  0  0  0  0  0
  -22.9894  -37.0821   -7.4095 N   0  0  0  0  0  0  0  0  0  0  0  0
  -23.0482  -37.4965   -6.1416 C   0  0  0  0  0  0  0  0  0  0  0  0
  -21.6135  -33.7870   -7.0097 N   0  0  0  0  0  0  0  0  0  0  0  0
  -20.6397  -33.2034   -6.0667 C   0  0  0  0  0  0  0  0  0  0  0  0
  -21.3671  -32.4101   -4.9535 C   0  0  0  0  0  0  0  0  0  0  0  0
  -22.5824  -31.6690   -5.3927 N   0  0  0  0  0  0  0  0  0  0  0  0
  -22.4359  -30.9871   -6.6998 C   0  0  0  0  0  0  0  0  0  0  0  0
  -23.0267  -31.8605   -7.8320 C   0  0  0  0  0  0  0  0  0  0  0  0
  -22.0969  -33.0442   -8.2079 C   0  0  0  0  0  0  0  0  0  0  0  0
  -22.8846  -30.6332   -4.3821 C   0  0  0  0  0  0  0  0  0  0  0  0
  -23.0060  -37.5702   -1.0256 C   0  0  0  0  0  0  0  0  0  0  0  0
  -23.3735  -38.5168   -1.9800 C   0  0  0  0  0  0  0  0  0  0  0  0
  -23.2308  -38.2360   -3.3389 C   0  0  0  0  0  0  0  0  0  0  0  0
  -22.6969  -37.0220   -3.7599 C   0  0  0  0  0  0  0  0  0  0  0  0
  -22.3525  -36.0786   -2.7858 C   0  0  0  0  0  0  0  0  0  0  0  0
  -22.4712  -36.3472   -1.4249 C   0  0  0  0  0  0  0  0  0  0  0  0
  -22.1385  -35.3816   -0.4665 C   0  0  0  0  0  0  0  0  0  0  0  0
  -22.6806  -35.3003    0.8156 C   0  0  0  0  0  0  0  0  0  0  0  0
  -22.2500  -34.3213    1.7208 C   0  0  0  0  0  0  0  0  0  0  0  0
  -22.7292  -34.3578    2.8686 O   0  0  0  0  0  0  0  0  0  0  0  0
  -21.4042  -33.4652    1.3610 O   0  0  0  0  0  0  0  0  0  0  0  0
  -23.3583  -35.0150    3.0930 H   0  0  0  0  0  0  0  0  0  0  0  0
 18  1  1  0  0  0
  1  2  2  0  0  0
  1  6  1  0  0  0
  2  3  1  0  0  0
  3  7  1  0  0  0
  3  4  2  0  0  0
  5  4  1  0  0  0
  6  5  2  0  0  0
  8  7  1  0  0  0
  7 13  1  0  0  0
  9  8  1  0  0  0
  9 10  1  0  0  0
 14 10  1  0  0  0
 10 11  1  0  0  0
 11 12  1  0  0  0
 13 12  1  0  0  0
 15 16  2  0  0  0
 15 20  1  0  0  0
 16 17  1  0  0  0
 17 18  2  0  0  0
 19 18  1  0  0  0
 20 19  2  0  0  0
 21 20  1  0  0  0
 21 22  2  0  0  0
 23 22  1  0  0  0
 25 23  2  0  0  0
 23 24  1  0  0  0
 24 26  1  0  0  0
M  END
> <minimizedAffinity>
-8.70542

$$$$
2XJ2_985_A_1001


 26 28  0  0  0  0  0  0  0  0999 V2000
  -21.7381  -31.7144   -3.0112 C   0  0  0  0  0  0  0  0  0  0  0  0
  -21.3334  -32.5970   -3.9446 N   0  0  0  0  0  0  0  0  0  0  0  0
  -21.4718  -32.3857   -5.2653 C   0  0  0  0  0  0  0  0  0  0  0  0
  -22.0282  -31.1783   -5.6856 C   0  0  0  0  0  0  0  0  0  0  0  0
  -22.4200  -30.2941   -4.7688 N   0  0  0  0  0  0  0  0  0  0  0  0
  -22.2811  -30.5108   -3.4587 C   0  0  0  0  0  0  0  0  0  0  0  0
  -21.0602  -33.3278   -6.1319 N   0  0  0  0  0  0  0  0  0  0  0  0
  -20.4679  -32.8821   -7.4081 C   0  0  0  0  0  0  0  0  0  0  0  0
  -21.5634  -32.7202   -8.4903 C   0  0  0  0  0  0  0  0  0  0  0  0
  -22.6610  -33.7261   -8.4381 N   0  0  0  0  0  0  0  0  0  0  0  0
  -22.2026  -35.1083   -8.1658 C   0  0  0  0  0  0  0  0  0  0  0  0
  -22.3473  -35.4370   -6.6609 C   0  0  0  0  0  0  0  0  0  0  0  0
  -21.2387  -34.7707   -5.8041 C   0  0  0  0  0  0  0  0  0  0  0  0
  -23.3453  -33.7343   -9.7485 C   0  0  0  0  0  0  0  0  0  0  0  0
  -20.9298  -32.6260    1.0232 C   0  0  0  0  0  0  0  0  0  0  0  0
  -20.6911  -31.3379    0.5481 C   0  0  0  0  0  0  0  0  0  0  0  0
  -20.9662  -31.0175   -0.7814 C   0  0  0  0  0  0  0  0  0  0  0  0
  -21.5056  -31.9677   -1.6429 C   0  0  0  0  0  0  0  0  0  0  0  0
  -21.7194  -33.2598   -1.1507 C   0  0  0  0  0  0  0  0  0  0  0  0
  -21.4676  -33.5938    0.1773 C   0  0  0  0  0  0  0  0  0  0  0  0
  -21.6707  -34.8983    0.6448 C   0  0  0  0  0  0  0  0  0  0  0  0
  -22.6187  -35.7924    0.1485 C   0  0  0  0  0  0  0  0  0  0  0  0
  -22.7161  -37.0956    0.6540 C   0  0  0  0  0  0  0  0  0  0  0  0
  -23.1052  -37.2221    1.8292 O   0  0  0  0  0  0  0  0  0  0  0  0
  -22.4283  -38.0741   -0.0789 O   0  0  0  0  0  0  0  0  0  0  0  0
  -23.3090  -36.4631    2.3395 H   0  0  0  0  0  0  0  0  0  0  0  0
 18  1  1  0  0  0
  1  2  2  0  0  0
  1  6  1  0  0  0
  2  3  1  0  0  0
  3  7  1  0  0  0
  3  4  2  0  0  0
  5  4  1  0  0  0
  6  5  2  0  0  0
  8  7  1  0  0  0
  7 13  1  0  0  0
  9  8  1  0  0  0
  9 10  1  0  0  0
 14 10  1  0  0  0
 10 11  1  0  0  0
 11 12  1  0  0  0
 13 12  1  0  0  0
 15 16  2  0  0  0
 15 20  1  0  0  0
 16 17  1  0  0  0
 17 18  2  0  0  0
 19 18  1  0  0  0
 20 19  2  0  0  0
 21 20  1  0  0  0
 21 22  2  0  0  0
 23 22  1  0  0  0
 25 23  2  0  0  0
 23 24  1  0  0  0
 24 26  1  0  0  0
M  END
> <minimizedAffinity>
-8.62332

$$$$
2XJ2_985_A_1001


 26 28  0  0  0  0  0  0  0  0999 V2000
  -22.0808  -32.9122   -5.7651 C   0  0  0  0  0  0  0  0  0  0  0  0
  -22.0074  -32.4938   -7.0432 N   0  0  0  0  0  0  0  0  0  0  0  0
  -22.0545  -33.3307   -8.0947 C   0  0  0  0  0  0  0  0  0  0  0  0
  -22.2237  -34.6924   -7.8472 C   0  0  0  0  0  0  0  0  0  0  0  0
  -22.3095  -35.1135   -6.5858 N   0  0  0  0  0  0  0  0  0  0  0  0
  -22.2605  -34.2773   -5.5460 C   0  0  0  0  0  0  0  0  0  0  0  0
  -21.9535  -32.8335   -9.3399 N   0  0  0  0  0  0  0  0  0  0  0  0
  -20.6147  -32.4418   -9.8216 C   0  0  0  0  0  0  0  0  0  0  0  0
  -20.3224  -30.9612   -9.4753 C   0  0  0  0  0  0  0  0  0  0  0  0
  -21.4934  -30.0448   -9.5663 N   0  0  0  0  0  0  0  0  0  0  0  0
  -22.3620  -30.2878  -10.7415 C   0  0  0  0  0  0  0  0  0  0  0  0
  -23.5690  -31.1710  -10.3457 C   0  0  0  0  0  0  0  0  0  0  0  0
  -23.1759  -32.6622  -10.1751 C   0  0  0  0  0  0  0  0  0  0  0  0
  -20.9906  -28.6580   -9.6638 C   0  0  0  0  0  0  0  0  0  0  0  0
  -21.9185  -30.1652   -2.5733 C   0  0  0  0  0  0  0  0  0  0  0  0
  -22.3474  -29.7368   -3.8281 C   0  0  0  0  0  0  0  0  0  0  0  0
  -22.4191  -30.6374   -4.8909 C   0  0  0  0  0  0  0  0  0  0  0  0
  -22.0902  -31.9771   -4.7088 C   0  0  0  0  0  0  0  0  0  0  0  0
  -21.6438  -32.3818   -3.4461 C   0  0  0  0  0  0  0  0  0  0  0  0
  -21.5823  -31.5018   -2.3689 C   0  0  0  0  0  0  0  0  0  0  0  0
  -21.1144  -31.9232   -1.1179 C   0  0  0  0  0  0  0  0  0  0  0  0
  -21.5523  -31.4330    0.1118 C   0  0  0  0  0  0  0  0  0  0  0  0
  -21.0538  -31.9511    1.3144 C   0  0  0  0  0  0  0  0  0  0  0  0
  -21.2631  -31.2908    2.3482 O   0  0  0  0  0  0  0  0  0  0  0  0
  -20.4374  -33.0455    1.3165 O   0  0  0  0  0  0  0  0  0  0  0  0
  -21.7279  -30.4787    2.2993 H   0  0  0  0  0  0  0  0  0  0  0  0
 18  1  1  0  0  0
  1  2  2  0  0  0
  1  6  1  0  0  0
  2  3  1  0  0  0
  3  7  1  0  0  0
  3  4  2  0  0  0
  5  4  1  0  0  0
  6  5  2  0  0  0
  8  7  1  0  0  0
  7 13  1  0  0  0
  9  8  1  0  0  0
  9 10  1  0  0  0
 14 10  1  0  0  0
 10 11  1  0  0  0
 11 12  1  0  0  0
 13 12  1  0  0  0
 15 16  2  0  0  0
 15 20  1  0  0  0
 16 17  1  0  0  0
 17 18  2  0  0  0
 19 18  1  0  0  0
 20 19  2  0  0  0
 21 20  1  0  0  0
 21 22  2  0  0  0
 23 22  1  0  0  0
 25 23  2  0  0  0
 23 24  1  0  0  0
 24 26  1  0  0  0
M  END
> <minimizedAffinity>
-8.51707

$$$$
