1EC2_BEJ_B_501


 62 65  0  0  0  0  0  0  0  0999 V2000
   14.0127   22.8396    4.5143 C   0  0  0  0  0  0  0  0  0  0  0  0
   14.6532   22.6269    3.2400 O   0  0  0  0  0  0  0  0  0  0  0  0
   15.5177   23.0669    3.2351 H   0  0  0  0  0  0  0  0  0  0  0  0
   13.7395   24.3033    4.7506 C   0  0  0  0  0  0  0  0  0  0  0  0
   14.9103   25.0022    4.3286 O   0  0  0  0  0  0  0  0  0  0  0  0
   15.0881   24.8017    3.3964 H   0  0  0  0  0  0  0  0  0  0  0  0
   12.3793   24.7237    4.1503 C   0  0  0  0  0  0  0  0  0  0  0  0
   11.3128   24.7869    5.2633 C   0  0  0  0  0  0  0  0  0  0  0  0
   11.1668   23.8478    6.0576 O   0  0  0  0  0  0  0  0  0  0  0  0
   10.5281   25.9427    5.3154 N   0  0  0  0  0  0  0  0  0  0  0  0
   10.7185   26.6316    4.6383 H   0  0  0  0  0  0  0  0  0  0  0  0
    9.4228   26.2517    6.2927 C   0  0  0  0  0  0  0  0  0  0  0  0
    8.6601   27.1151    5.5059 C   0  0  0  0  0  0  0  0  0  0  0  0
    8.7341   28.0790    4.8272 O   0  0  0  0  0  0  0  0  0  0  0  0
    7.0526   26.6146    5.5227 N   0  0  0  0  0  0  0  0  0  0  0  0
    6.0047   27.3236    4.7884 C   0  0  0  0  0  0  0  0  0  0  0  0
    6.8093   25.8165    6.0452 H   0  0  0  0  0  0  0  0  0  0  0  0
    9.9476   27.0875    7.5369 C   0  0  0  0  0  0  0  0  0  0  0  0
   10.5957   26.2233    8.6626 C   0  0  0  0  0  0  0  0  0  0  0  0
    8.8728   27.9985    8.1952 C   0  0  0  0  0  0  0  0  0  0  0  0
   11.9179   23.8148    3.0822 O   0  0  0  0  0  0  0  0  0  0  0  0
   11.2145   24.4182    1.9895 C   0  0  0  0  0  0  0  0  0  0  0  0
    9.7327   24.3685    2.1824 C   0  0  0  0  0  0  0  0  0  0  0  0
    8.9602   25.5179    1.8931 C   0  0  0  0  0  0  0  0  0  0  0  0
    7.5431   25.4895    2.0797 C   0  0  0  0  0  0  0  0  0  0  0  0
    6.8797   24.2902    2.5654 C   0  0  0  0  0  0  0  0  0  0  0  0
    7.7012   23.1293    2.8547 C   0  0  0  0  0  0  0  0  0  0  0  0
    9.1102   23.1509    2.6709 C   0  0  0  0  0  0  0  0  0  0  0  0
    5.3656   24.2410    2.7646 C   0  0  0  0  0  0  0  0  0  0  0  0
    4.7095   23.6983    3.9297 C   0  0  0  0  0  0  0  0  0  0  0  0
    3.2690   23.6872    4.0349 C   0  0  0  0  0  0  0  0  0  0  0  0
    2.5297   24.2372    2.9322 C   0  0  0  0  0  0  0  0  0  0  0  0
    3.1153   24.7668    1.7970 N   0  0  0  0  0  0  0  0  0  0  0  0
    4.4817   24.7601    1.7338 C   0  0  0  0  0  0  0  0  0  0  0  0
   14.8001   22.2079    5.6526 C   0  0  0  0  0  0  0  0  0  0  0  0
   14.9914   20.7636    5.2694 C   0  0  0  0  0  0  0  0  0  0  0  0
   14.0681   19.9696    5.4690 O   0  0  0  0  0  0  0  0  0  0  0  0
   16.2269   20.4480    4.7248 N   0  0  0  0  0  0  0  0  0  0  0  0
   16.8802   21.1772    4.6212 H   0  0  0  0  0  0  0  0  0  0  0  0
   16.6295   19.1102    4.2932 C   0  0  0  0  0  0  0  0  0  0  0  0
   18.0146   18.8701    4.9130 C   0  0  0  0  0  0  0  0  0  0  0  0
   18.9275   19.7108    4.7787 O   0  0  0  0  0  0  0  0  0  0  0  0
   18.1418   17.6710    5.6051 N   0  0  0  0  0  0  0  0  0  0  0  0
   19.4054   17.3482    6.2190 C   0  0  0  0  0  0  0  0  0  0  0  0
   17.3798   17.0515    5.6750 H   0  0  0  0  0  0  0  0  0  0  0  0
   16.7714   19.0149    2.7241 C   0  0  0  0  0  0  0  0  0  0  0  0
   17.2860   17.6218    2.2180 C   0  0  0  0  0  0  0  0  0  0  0  0
   15.4762   19.3905    1.9936 C   0  0  0  0  0  0  0  0  0  0  0  0
   14.1122   22.3692    6.9059 O   0  0  0  0  0  0  0  0  0  0  0  0
   14.8752   23.1298    7.8937 C   0  0  0  0  0  0  0  0  0  0  0  0
   15.8976   22.2488    8.5616 C   0  0  0  0  0  0  0  0  0  0  0  0
   15.4283   21.1473    9.3830 C   0  0  0  0  0  0  0  0  0  0  0  0
   16.3696   20.2756   10.0203 C   0  0  0  0  0  0  0  0  0  0  0  0
   17.7922   20.4911    9.8458 C   0  0  0  0  0  0  0  0  0  0  0  0
   18.2467   21.6026    9.0169 C   0  0  0  0  0  0  0  0  0  0  0  0
   17.3076   22.4824    8.3733 C   0  0  0  0  0  0  0  0  0  0  0  0
   18.7844   19.5718   10.5182 C   0  0  0  0  0  0  0  0  0  0  0  0
   18.9581   19.4998   11.9565 C   0  0  0  0  0  0  0  0  0  0  0  0
   19.9239   18.6055   12.5446 C   0  0  0  0  0  0  0  0  0  0  0  0
   20.6890   17.8045   11.6449 C   0  0  0  0  0  0  0  0  0  0  0  0
   20.5485   17.8460   10.2656 N   0  0  0  0  0  0  0  0  0  0  0  0
   19.6269   18.7032    9.7370 C   0  0  0  0  0  0  0  0  0  0  0  0
 23 24  2  0  0  0
 23 28  1  0  0  0
 23 22  1  0  0  0
 24 25  1  0  0  0
 25 26  2  0  0  0
 26 27  1  0  0  0
 26 29  1  0  0  0
 27 28  2  0  0  0
 51 52  2  0  0  0
 51 56  1  0  0  0
 51 50  1  0  0  0
 52 53  1  0  0  0
 53 54  2  0  0  0
 54 55  1  0  0  0
 54 57  1  0  0  0
 55 56  2  0  0  0
 50 49  1  0  0  0
 49 35  1  0  0  0
 35  1  1  0  0  0
 35 36  1  0  0  0
  1  4  1  0  0  0
  1  2  1  0  0  0
  4  7  1  0  0  0
  4  5  1  0  0  0
  7  8  1  0  0  0
  7 21  1  0  0  0
  8  9  2  0  0  0
  8 10  1  0  0  0
 10 12  1  0  0  0
 12 18  1  0  0  0
 12 13  1  0  0  0
 18 19  1  0  0  0
 18 20  1  0  0  0
 13 14  2  0  0  0
 13 15  1  0  0  0
 15 16  1  0  0  0
 21 22  1  0  0  0
 36 37  2  0  0  0
 36 38  1  0  0  0
 38 40  1  0  0  0
 40 46  1  0  0  0
 40 41  1  0  0  0
 46 47  1  0  0  0
 46 48  1  0  0  0
 41 42  2  0  0  0
 41 43  1  0  0  0
 43 44  1  0  0  0
 29 30  2  0  0  0
 29 34  1  0  0  0
 30 31  1  0  0  0
 31 32  2  0  0  0
 32 33  1  0  0  0
 33 34  2  0  0  0
 57 58  2  0  0  0
 57 62  1  0  0  0
 58 59  1  0  0  0
 59 60  2  0  0  0
 60 61  1  0  0  0
 61 62  2  0  0  0
 10 11  1  0  0  0
 15 17  1  0  0  0
  5  6  1  0  0  0
  2  3  1  0  0  0
 38 39  1  0  0  0
 43 45  1  0  0  0
M  END
> <minimizedAffinity>
-11.00616

$$$$
1EC2_BEJ_B_501


 62 65  0  0  0  0  0  0  0  0999 V2000
   13.4344   24.5648    4.8353 C   0  0  0  0  0  0  0  0  0  0  0  0
   14.3695   25.4847    4.2365 O   0  0  0  0  0  0  0  0  0  0  0  0
   14.3904   25.3457    3.2767 H   0  0  0  0  0  0  0  0  0  0  0  0
   13.8660   23.1351    4.6279 C   0  0  0  0  0  0  0  0  0  0  0  0
   14.3146   23.0446    3.2760 O   0  0  0  0  0  0  0  0  0  0  0  0
   15.0361   23.6767    3.1318 H   0  0  0  0  0  0  0  0  0  0  0  0
   14.8215   22.6698    5.7494 C   0  0  0  0  0  0  0  0  0  0  0  0
   15.1021   21.1596    5.6050 C   0  0  0  0  0  0  0  0  0  0  0  0
   14.3965   20.3237    6.1858 O   0  0  0  0  0  0  0  0  0  0  0  0
   16.1873   20.7972    4.8015 N   0  0  0  0  0  0  0  0  0  0  0  0
   16.6889   21.5349    4.3851 H   0  0  0  0  0  0  0  0  0  0  0  0
   16.6748   19.4026    4.5017 C   0  0  0  0  0  0  0  0  0  0  0  0
   17.9455   19.4798    5.0724 C   0  0  0  0  0  0  0  0  0  0  0  0
   18.9326   20.1285    5.0820 O   0  0  0  0  0  0  0  0  0  0  0  0
   18.1637   18.1876    6.1294 N   0  0  0  0  0  0  0  0  0  0  0  0
   19.4029   17.9929    6.8819 C   0  0  0  0  0  0  0  0  0  0  0  0
   17.4313   17.5399    6.2450 H   0  0  0  0  0  0  0  0  0  0  0  0
   16.8715   19.1652    2.9438 C   0  0  0  0  0  0  0  0  0  0  0  0
   15.5917   19.4221    2.0894 C   0  0  0  0  0  0  0  0  0  0  0  0
   17.4153   17.7556    2.5749 C   0  0  0  0  0  0  0  0  0  0  0  0
   14.2951   22.9421    7.1016 O   0  0  0  0  0  0  0  0  0  0  0  0
   15.2401   23.4052    8.0738 C   0  0  0  0  0  0  0  0  0  0  0  0
   16.0510   22.2857    8.6434 C   0  0  0  0  0  0  0  0  0  0  0  0
   15.4120   21.3062    9.4395 C   0  0  0  0  0  0  0  0  0  0  0  0
   16.1744   20.2336    9.9981 C   0  0  0  0  0  0  0  0  0  0  0  0
   17.6052   20.1336    9.7592 C   0  0  0  0  0  0  0  0  0  0  0  0
   18.2303   21.1556    8.9401 C   0  0  0  0  0  0  0  0  0  0  0  0
   17.4780   22.2240    8.3816 C   0  0  0  0  0  0  0  0  0  0  0  0
   18.4337   18.9904   10.3437 C   0  0  0  0  0  0  0  0  0  0  0  0
   17.8808   17.7816   10.9054 C   0  0  0  0  0  0  0  0  0  0  0  0
   18.7383   16.7506   11.4421 C   0  0  0  0  0  0  0  0  0  0  0  0
   20.1548   16.9871   11.3898 C   0  0  0  0  0  0  0  0  0  0  0  0
   20.7285   18.1291   10.8621 N   0  0  0  0  0  0  0  0  0  0  0  0
   19.8843   19.0829   10.3632 C   0  0  0  0  0  0  0  0  0  0  0  0
   12.0128   24.8144    4.3545 C   0  0  0  0  0  0  0  0  0  0  0  0
   11.1416   24.7248    5.5802 C   0  0  0  0  0  0  0  0  0  0  0  0
   10.8018   23.6102    5.9865 O   0  0  0  0  0  0  0  0  0  0  0  0
   10.7806   25.9376    6.1473 N   0  0  0  0  0  0  0  0  0  0  0  0
   11.1178   26.7590    5.7220 H   0  0  0  0  0  0  0  0  0  0  0  0
    9.9354   26.0846    7.3314 C   0  0  0  0  0  0  0  0  0  0  0  0
    9.0363   27.2993    7.0550 C   0  0  0  0  0  0  0  0  0  0  0  0
    9.3438   28.4306    7.4835 O   0  0  0  0  0  0  0  0  0  0  0  0
    7.8933   27.0199    6.3144 N   0  0  0  0  0  0  0  0  0  0  0  0
    6.9798   28.0917    6.0066 C   0  0  0  0  0  0  0  0  0  0  0  0
    7.7104   26.1034    6.0047 H   0  0  0  0  0  0  0  0  0  0  0  0
   10.7838   26.3874    8.6274 C   0  0  0  0  0  0  0  0  0  0  0  0
   10.0929   25.9274    9.9588 C   0  0  0  0  0  0  0  0  0  0  0  0
   12.2026   25.8102    8.5483 C   0  0  0  0  0  0  0  0  0  0  0  0
   11.6419   23.8716    3.3328 O   0  0  0  0  0  0  0  0  0  0  0  0
   11.0101   24.4931    2.1705 C   0  0  0  0  0  0  0  0  0  0  0  0
    9.5104   24.4384    2.2941 C   0  0  0  0  0  0  0  0  0  0  0  0
    8.9072   23.2423    2.8543 C   0  0  0  0  0  0  0  0  0  0  0  0
    7.4852   23.1590    3.0053 C   0  0  0  0  0  0  0  0  0  0  0  0
    6.6458   24.2688    2.5997 C   0  0  0  0  0  0  0  0  0  0  0  0
    7.2682   25.4634    2.0386 C   0  0  0  0  0  0  0  0  0  0  0  0
    8.6958   25.5548    1.8840 C   0  0  0  0  0  0  0  0  0  0  0  0
    5.1463   24.1804    2.7588 C   0  0  0  0  0  0  0  0  0  0  0  0
    4.4997   23.6014    3.9211 C   0  0  0  0  0  0  0  0  0  0  0  0
    3.0626   23.5400    4.0185 C   0  0  0  0  0  0  0  0  0  0  0  0
    2.3210   24.0745    2.9228 C   0  0  0  0  0  0  0  0  0  0  0  0
    2.9053   24.6366    1.7974 N   0  0  0  0  0  0  0  0  0  0  0  0
    4.2682   24.6801    1.7322 C   0  0  0  0  0  0  0  0  0  0  0  0
 23 24  2  0  0  0
 23 28  1  0  0  0
 23 22  1  0  0  0
 24 25  1  0  0  0
 25 26  2  0  0  0
 26 27  1  0  0  0
 26 29  1  0  0  0
 27 28  2  0  0  0
 51 52  2  0  0  0
 51 56  1  0  0  0
 51 50  1  0  0  0
 52 53  1  0  0  0
 53 54  2  0  0  0
 54 55  1  0  0  0
 54 57  1  0  0  0
 55 56  2  0  0  0
 50 49  1  0  0  0
 49 35  1  0  0  0
 35  1  1  0  0  0
 35 36  1  0  0  0
  1  4  1  0  0  0
  1  2  1  0  0  0
  4  7  1  0  0  0
  4  5  1  0  0  0
  7  8  1  0  0  0
  7 21  1  0  0  0
  8  9  2  0  0  0
  8 10  1  0  0  0
 10 12  1  0  0  0
 12 18  1  0  0  0
 12 13  1  0  0  0
 18 19  1  0  0  0
 18 20  1  0  0  0
 13 14  2  0  0  0
 13 15  1  0  0  0
 15 16  1  0  0  0
 21 22  1  0  0  0
 36 37  2  0  0  0
 36 38  1  0  0  0
 38 40  1  0  0  0
 40 46  1  0  0  0
 40 41  1  0  0  0
 46 47  1  0  0  0
 46 48  1  0  0  0
 41 42  2  0  0  0
 41 43  1  0  0  0
 43 44  1  0  0  0
 29 30  2  0  0  0
 29 34  1  0  0  0
 30 31  1  0  0  0
 31 32  2  0  0  0
 32 33  1  0  0  0
 33 34  2  0  0  0
 57 58  2  0  0  0
 57 62  1  0  0  0
 58 59  1  0  0  0
 59 60  2  0  0  0
 60 61  1  0  0  0
 61 62  2  0  0  0
 10 11  1  0  0  0
 15 17  1  0  0  0
  5  6  1  0  0  0
  2  3  1  0  0  0
 38 39  1  0  0  0
 43 45  1  0  0  0
M  END
> <minimizedAffinity>
-10.96602

$$$$
1EC2_BEJ_B_501


 62 65  0  0  0  0  0  0  0  0999 V2000
   13.6151   23.6387    4.9377 C   0  0  0  0  0  0  0  0  0  0  0  0
   15.0106   23.3347    5.1363 O   0  0  0  0  0  0  0  0  0  0  0  0
   15.1280   22.9022    5.9966 H   0  0  0  0  0  0  0  0  0  0  0  0
   13.1169   24.6175    5.9706 C   0  0  0  0  0  0  0  0  0  0  0  0
   12.6624   25.7628    5.2502 O   0  0  0  0  0  0  0  0  0  0  0  0
   11.9709   25.4974    4.6239 H   0  0  0  0  0  0  0  0  0  0  0  0
   12.1425   23.9405    6.9603 C   0  0  0  0  0  0  0  0  0  0  0  0
   10.7486   24.5928    6.8514 C   0  0  0  0  0  0  0  0  0  0  0  0
   10.0595   24.4531    5.8318 O   0  0  0  0  0  0  0  0  0  0  0  0
   10.3209   25.3459    7.9489 N   0  0  0  0  0  0  0  0  0  0  0  0
   10.9418   25.3998    8.7110 H   0  0  0  0  0  0  0  0  0  0  0  0
    9.0149   26.0844    8.0953 C   0  0  0  0  0  0  0  0  0  0  0  0
    9.0764   26.8812    6.9517 C   0  0  0  0  0  0  0  0  0  0  0  0
    9.7458   27.6841    6.4018 O   0  0  0  0  0  0  0  0  0  0  0  0
    7.7088   26.6115    6.0075 N   0  0  0  0  0  0  0  0  0  0  0  0
    7.4840   27.3057    4.7397 C   0  0  0  0  0  0  0  0  0  0  0  0
    7.0365   25.9637    6.3198 H   0  0  0  0  0  0  0  0  0  0  0  0
    9.0218   27.0586    9.3494 C   0  0  0  0  0  0  0  0  0  0  0  0
    7.9248   28.1671    9.3063 C   0  0  0  0  0  0  0  0  0  0  0  0
   10.3886   27.7515    9.6142 C   0  0  0  0  0  0  0  0  0  0  0  0
   12.6065   24.0093    8.3601 O   0  0  0  0  0  0  0  0  0  0  0  0
   13.9532   24.4531    8.5658 C   0  0  0  0  0  0  0  0  0  0  0  0
   14.8812   23.3144    8.8437 C   0  0  0  0  0  0  0  0  0  0  0  0
   14.4686   22.2868    9.7242 C   0  0  0  0  0  0  0  0  0  0  0  0
   15.3472   21.1949   10.0066 C   0  0  0  0  0  0  0  0  0  0  0  0
   16.6663   21.1242    9.3991 C   0  0  0  0  0  0  0  0  0  0  0  0
   17.0596   22.1953    8.5023 C   0  0  0  0  0  0  0  0  0  0  0  0
   16.1909   23.2831    8.2172 C   0  0  0  0  0  0  0  0  0  0  0  0
   17.6152   19.9613    9.6855 C   0  0  0  0  0  0  0  0  0  0  0  0
   17.1985   18.5949    9.8905 C   0  0  0  0  0  0  0  0  0  0  0  0
   18.1639   17.5553   10.1613 C   0  0  0  0  0  0  0  0  0  0  0  0
   19.5457   17.9460   10.2166 C   0  0  0  0  0  0  0  0  0  0  0  0
   19.9904   19.2415   10.0273 N   0  0  0  0  0  0  0  0  0  0  0  0
   19.0468   20.1985    9.7729 C   0  0  0  0  0  0  0  0  0  0  0  0
   12.7666   22.3772    4.8809 C   0  0  0  0  0  0  0  0  0  0  0  0
   13.6362   21.2712    5.4194 C   0  0  0  0  0  0  0  0  0  0  0  0
   13.7790   21.1701    6.6410 O   0  0  0  0  0  0  0  0  0  0  0  0
   14.2233   20.4539    4.4655 N   0  0  0  0  0  0  0  0  0  0  0  0
   14.0298   20.6444    3.5192 H   0  0  0  0  0  0  0  0  0  0  0  0
   15.1092   19.3294    4.7637 C   0  0  0  0  0  0  0  0  0  0  0  0
   16.5011   19.9410    4.9850 C   0  0  0  0  0  0  0  0  0  0  0  0
   16.8508   20.9691    4.3695 O   0  0  0  0  0  0  0  0  0  0  0  0
   17.2971   19.2589    5.8983 N   0  0  0  0  0  0  0  0  0  0  0  0
   18.6248   19.7490    6.1720 C   0  0  0  0  0  0  0  0  0  0  0  0
   16.9589   18.4531    6.3515 H   0  0  0  0  0  0  0  0  0  0  0  0
   15.2046   18.3178    3.5558 C   0  0  0  0  0  0  0  0  0  0  0  0
   14.9372   18.9749    2.1564 C   0  0  0  0  0  0  0  0  0  0  0  0
   16.5366   17.5578    3.5304 C   0  0  0  0  0  0  0  0  0  0  0  0
   12.3059   22.1265    3.5411 O   0  0  0  0  0  0  0  0  0  0  0  0
   12.1039   23.3445    2.7588 C   0  0  0  0  0  0  0  0  0  0  0  0
   10.6355   23.6545    2.6365 C   0  0  0  0  0  0  0  0  0  0  0  0
   10.2443   24.9879    2.2153 C   0  0  0  0  0  0  0  0  0  0  0  0
    8.8577   25.3165    2.0694 C   0  0  0  0  0  0  0  0  0  0  0  0
    7.8425   24.3184    2.3413 C   0  0  0  0  0  0  0  0  0  0  0  0
    8.2529   22.9833    2.7635 C   0  0  0  0  0  0  0  0  0  0  0  0
    9.6436   22.6454    2.9122 C   0  0  0  0  0  0  0  0  0  0  0  0
    6.3805   24.6654    2.1875 C   0  0  0  0  0  0  0  0  0  0  0  0
    5.3186   23.9813    2.9006 C   0  0  0  0  0  0  0  0  0  0  0  0
    3.9382   24.3523    2.7125 C   0  0  0  0  0  0  0  0  0  0  0  0
    3.6779   25.4168    1.7985 C   0  0  0  0  0  0  0  0  0  0  0  0
    4.6675   26.0937    1.1013 N   0  0  0  0  0  0  0  0  0  0  0  0
    5.9656   25.7200    1.2986 C   0  0  0  0  0  0  0  0  0  0  0  0
 23 24  2  0  0  0
 23 28  1  0  0  0
 23 22  1  0  0  0
 24 25  1  0  0  0
 25 26  2  0  0  0
 26 27  1  0  0  0
 26 29  1  0  0  0
 27 28  2  0  0  0
 51 52  2  0  0  0
 51 56  1  0  0  0
 51 50  1  0  0  0
 52 53  1  0  0  0
 53 54  2  0  0  0
 54 55  1  0  0  0
 54 57  1  0  0  0
 55 56  2  0  0  0
 50 49  1  0  0  0
 49 35  1  0  0  0
 35  1  1  0  0  0
 35 36  1  0  0  0
  1  4  1  0  0  0
  1  2  1  0  0  0
  4  7  1  0  0  0
  4  5  1  0  0  0
  7  8  1  0  0  0
  7 21  1  0  0  0
  8  9  2  0  0  0
  8 10  1  0  0  0
 10 12  1  0  0  0
 12 18  1  0  0  0
 12 13  1  0  0  0
 18 19  1  0  0  0
 18 20  1  0  0  0
 13 14  2  0  0  0
 13 15  1  0  0  0
 15 16  1  0  0  0
 21 22  1  0  0  0
 36 37  2  0  0  0
 36 38  1  0  0  0
 38 40  1  0  0  0
 40 46  1  0  0  0
 40 41  1  0  0  0
 46 47  1  0  0  0
 46 48  1  0  0  0
 41 42  2  0  0  0
 41 43  1  0  0  0
 43 44  1  0  0  0
 29 30  2  0  0  0
 29 34  1  0  0  0
 30 31  1  0  0  0
 31 32  2  0  0  0
 32 33  1  0  0  0
 33 34  2  0  0  0
 57 58  2  0  0  0
 57 62  1  0  0  0
 58 59  1  0  0  0
 59 60  2  0  0  0
 60 61  1  0  0  0
 61 62  2  0  0  0
 10 11  1  0  0  0
 15 17  1  0  0  0
  5  6  1  0  0  0
  2  3  1  0  0  0
 38 39  1  0  0  0
 43 45  1  0  0  0
M  END
> <minimizedAffinity>
-10.61999

$$$$
1EC2_BEJ_B_501


 62 65  0  0  0  0  0  0  0  0999 V2000
   13.8914   24.0631    4.9439 C   0  0  0  0  0  0  0  0  0  0  0  0
   14.4549   25.1366    4.1632 O   0  0  0  0  0  0  0  0  0  0  0  0
   14.8074   25.8178    4.7571 H   0  0  0  0  0  0  0  0  0  0  0  0
   12.7255   24.5428    5.7708 C   0  0  0  0  0  0  0  0  0  0  0  0
   13.2390   25.5532    6.6382 O   0  0  0  0  0  0  0  0  0  0  0  0
   13.6375   26.2618    6.1090 H   0  0  0  0  0  0  0  0  0  0  0  0
   11.5116   24.8898    4.8800 C   0  0  0  0  0  0  0  0  0  0  0  0
   10.2670   25.1268    5.7602 C   0  0  0  0  0  0  0  0  0  0  0  0
    9.1530   24.7142    5.4100 O   0  0  0  0  0  0  0  0  0  0  0  0
   10.4660   25.8313    6.9513 N   0  0  0  0  0  0  0  0  0  0  0  0
   11.3880   26.1201    7.1399 H   0  0  0  0  0  0  0  0  0  0  0  0
    9.4258   26.1978    7.9790 C   0  0  0  0  0  0  0  0  0  0  0  0
    8.9477   27.3766    7.4062 C   0  0  0  0  0  0  0  0  0  0  0  0
    9.2372   28.5018    7.1935 O   0  0  0  0  0  0  0  0  0  0  0  0
    7.4006   27.1148    6.7957 N   0  0  0  0  0  0  0  0  0  0  0  0
    6.6321   28.1686    6.1333 C   0  0  0  0  0  0  0  0  0  0  0  0
    6.9990   26.2206    6.8877 H   0  0  0  0  0  0  0  0  0  0  0  0
   10.0801   26.5832    9.3738 C   0  0  0  0  0  0  0  0  0  0  0  0
    9.4630   27.8500   10.0434 C   0  0  0  0  0  0  0  0  0  0  0  0
   11.6228   26.7736    9.3262 C   0  0  0  0  0  0  0  0  0  0  0  0
   11.2132   23.8424    3.8832 O   0  0  0  0  0  0  0  0  0  0  0  0
   10.9842   24.2853    2.5400 C   0  0  0  0  0  0  0  0  0  0  0  0
    9.5413   24.5853    2.2882 C   0  0  0  0  0  0  0  0  0  0  0  0
    8.6050   23.5246    2.2922 C   0  0  0  0  0  0  0  0  0  0  0  0
    7.2227   23.7935    2.0455 C   0  0  0  0  0  0  0  0  0  0  0  0
    6.7618   25.1484    1.7886 C   0  0  0  0  0  0  0  0  0  0  0  0
    7.7480   26.2131    1.7893 C   0  0  0  0  0  0  0  0  0  0  0  0
    9.1233   25.9526    2.0344 C   0  0  0  0  0  0  0  0  0  0  0  0
    5.2874   25.4537    1.5289 C   0  0  0  0  0  0  0  0  0  0  0  0
    4.6303   25.2973    0.2536 C   0  0  0  0  0  0  0  0  0  0  0  0
    3.2302   25.6142    0.0942 C   0  0  0  0  0  0  0  0  0  0  0  0
    2.5318   26.0889    1.2570 C   0  0  0  0  0  0  0  0  0  0  0  0
    3.1201   26.2547    2.4974 N   0  0  0  0  0  0  0  0  0  0  0  0
    4.4475   25.9441    2.6094 C   0  0  0  0  0  0  0  0  0  0  0  0
   14.9483   23.3647    5.7863 C   0  0  0  0  0  0  0  0  0  0  0  0
   14.7881   21.8923    5.5108 C   0  0  0  0  0  0  0  0  0  0  0  0
   13.7034   21.3574    5.7562 O   0  0  0  0  0  0  0  0  0  0  0  0
   15.9097   21.2530    5.0050 N   0  0  0  0  0  0  0  0  0  0  0  0
   16.7172   21.7963    4.8568 H   0  0  0  0  0  0  0  0  0  0  0  0
   15.9798   19.8300    4.6759 C   0  0  0  0  0  0  0  0  0  0  0  0
   17.4316   19.4086    4.9497 C   0  0  0  0  0  0  0  0  0  0  0  0
   18.3375   20.2627    5.0375 O   0  0  0  0  0  0  0  0  0  0  0  0
   17.6242   18.0378    5.0799 N   0  0  0  0  0  0  0  0  0  0  0  0
   18.9528   17.5389    5.3321 C   0  0  0  0  0  0  0  0  0  0  0  0
   16.8642   17.4170    5.0011 H   0  0  0  0  0  0  0  0  0  0  0  0
   15.6706   19.5616    3.1515 C   0  0  0  0  0  0  0  0  0  0  0  0
   14.9263   18.2064    2.8851 C   0  0  0  0  0  0  0  0  0  0  0  0
   14.9038   20.7168    2.4959 C   0  0  0  0  0  0  0  0  0  0  0  0
   14.7972   23.6943    7.1787 O   0  0  0  0  0  0  0  0  0  0  0  0
   16.0670   23.7710    7.8986 C   0  0  0  0  0  0  0  0  0  0  0  0
   16.3644   22.4629    8.5828 C   0  0  0  0  0  0  0  0  0  0  0  0
   17.7198   21.9457    8.5236 C   0  0  0  0  0  0  0  0  0  0  0  0
   18.0469   20.7138    9.1774 C   0  0  0  0  0  0  0  0  0  0  0  0
   17.0257   19.9817    9.8997 C   0  0  0  0  0  0  0  0  0  0  0  0
   15.6686   20.5157    9.9494 C   0  0  0  0  0  0  0  0  0  0  0  0
   15.3322   21.7525    9.2956 C   0  0  0  0  0  0  0  0  0  0  0  0
   17.3710   18.6826   10.5888 C   0  0  0  0  0  0  0  0  0  0  0  0
   16.5082   17.5167   10.5727 C   0  0  0  0  0  0  0  0  0  0  0  0
   16.8870   16.3024   11.2512 C   0  0  0  0  0  0  0  0  0  0  0  0
   18.1422   16.3106   11.9301 C   0  0  0  0  0  0  0  0  0  0  0  0
   18.9927   17.4057   11.9650 N   0  0  0  0  0  0  0  0  0  0  0  0
   18.6072   18.5423   11.3144 C   0  0  0  0  0  0  0  0  0  0  0  0
 23 24  2  0  0  0
 23 28  1  0  0  0
 23 22  1  0  0  0
 24 25  1  0  0  0
 25 26  2  0  0  0
 26 27  1  0  0  0
 26 29  1  0  0  0
 27 28  2  0  0  0
 51 52  2  0  0  0
 51 56  1  0  0  0
 51 50  1  0  0  0
 52 53  1  0  0  0
 53 54  2  0  0  0
 54 55  1  0  0  0
 54 57  1  0  0  0
 55 56  2  0  0  0
 50 49  1  0  0  0
 49 35  1  0  0  0
 35  1  1  0  0  0
 35 36  1  0  0  0
  1  4  1  0  0  0
  1  2  1  0  0  0
  4  7  1  0  0  0
  4  5  1  0  0  0
  7  8  1  0  0  0
  7 21  1  0  0  0
  8  9  2  0  0  0
  8 10  1  0  0  0
 10 12  1  0  0  0
 12 18  1  0  0  0
 12 13  1  0  0  0
 18 19  1  0  0  0
 18 20  1  0  0  0
 13 14  2  0  0  0
 13 15  1  0  0  0
 15 16  1  0  0  0
 21 22  1  0  0  0
 36 37  2  0  0  0
 36 38  1  0  0  0
 38 40  1  0  0  0
 40 46  1  0  0  0
 40 41  1  0  0  0
 46 47  1  0  0  0
 46 48  1  0  0  0
 41 42  2  0  0  0
 41 43  1  0  0  0
 43 44  1  0  0  0
 29 30  2  0  0  0
 29 34  1  0  0  0
 30 31  1  0  0  0
 31 32  2  0  0  0
 32 33  1  0  0  0
 33 34  2  0  0  0
 57 58  2  0  0  0
 57 62  1  0  0  0
 58 59  1  0  0  0
 59 60  2  0  0  0
 60 61  1  0  0  0
 61 62  2  0  0  0
 10 11  1  0  0  0
 15 17  1  0  0  0
  5  6  1  0  0  0
  2  3  1  0  0  0
 38 39  1  0  0  0
 43 45  1  0  0  0
M  END
> <minimizedAffinity>
-10.11306

$$$$
1EC2_BEJ_B_501


 62 65  0  0  0  0  0  0  0  0999 V2000
   13.8834   24.1687    4.7895 C   0  0  0  0  0  0  0  0  0  0  0  0
   14.9582   24.9906    4.2908 O   0  0  0  0  0  0  0  0  0  0  0  0
   14.9873   24.9326    3.3230 H   0  0  0  0  0  0  0  0  0  0  0  0
   14.1113   22.7145    4.4632 C   0  0  0  0  0  0  0  0  0  0  0  0
   14.4085   22.6592    3.0682 O   0  0  0  0  0  0  0  0  0  0  0  0
   15.1850   23.2096    2.8810 H   0  0  0  0  0  0  0  0  0  0  0  0
   15.1085   22.0681    5.4507 C   0  0  0  0  0  0  0  0  0  0  0  0
   15.2783   20.5711    5.1185 C   0  0  0  0  0  0  0  0  0  0  0  0
   14.3402   19.7764    5.2688 O   0  0  0  0  0  0  0  0  0  0  0  0
   16.5348   20.1699    4.6551 N   0  0  0  0  0  0  0  0  0  0  0  0
   17.2163   20.8756    4.5724 H   0  0  0  0  0  0  0  0  0  0  0  0
   16.9623   18.7772    4.2679 C   0  0  0  0  0  0  0  0  0  0  0  0
   18.2389   18.7680    4.8303 C   0  0  0  0  0  0  0  0  0  0  0  0
   19.3578   19.0858    4.6245 O   0  0  0  0  0  0  0  0  0  0  0  0
   18.1761   18.0447    6.3493 N   0  0  0  0  0  0  0  0  0  0  0  0
   19.3627   17.8856    7.1899 C   0  0  0  0  0  0  0  0  0  0  0  0
   17.3100   17.7173    6.6838 H   0  0  0  0  0  0  0  0  0  0  0  0
   17.1383   18.6260    2.6968 C   0  0  0  0  0  0  0  0  0  0  0  0
   15.9766   19.2445    1.8590 C   0  0  0  0  0  0  0  0  0  0  0  0
   17.3467   17.1625    2.2140 C   0  0  0  0  0  0  0  0  0  0  0  0
   14.6948   22.2122    6.8606 O   0  0  0  0  0  0  0  0  0  0  0  0
   15.6310   22.8480    7.7393 C   0  0  0  0  0  0  0  0  0  0  0  0
   16.4213   21.8542    8.5286 C   0  0  0  0  0  0  0  0  0  0  0  0
   17.8278   21.9901    8.5987 C   0  0  0  0  0  0  0  0  0  0  0  0
   18.5990   21.0438    9.3428 C   0  0  0  0  0  0  0  0  0  0  0  0
   17.9559   19.9370   10.0326 C   0  0  0  0  0  0  0  0  0  0  0  0
   16.5120   19.8251    9.9389 C   0  0  0  0  0  0  0  0  0  0  0  0
   15.7397   20.7626    9.2014 C   0  0  0  0  0  0  0  0  0  0  0  0
   18.7646   18.9204   10.8370 C   0  0  0  0  0  0  0  0  0  0  0  0
   18.2186   17.7231   11.4293 C   0  0  0  0  0  0  0  0  0  0  0  0
   19.0554   16.8161   12.1799 C   0  0  0  0  0  0  0  0  0  0  0  0
   20.4442   17.1627   12.3066 C   0  0  0  0  0  0  0  0  0  0  0  0
   21.0103   18.2984   11.7572 N   0  0  0  0  0  0  0  0  0  0  0  0
   20.1864   19.1330   11.0532 C   0  0  0  0  0  0  0  0  0  0  0  0
   12.5271   24.6627    4.3086 C   0  0  0  0  0  0  0  0  0  0  0  0
   11.9964   25.5449    5.4084 C   0  0  0  0  0  0  0  0  0  0  0  0
   12.7665   25.9073    6.3020 O   0  0  0  0  0  0  0  0  0  0  0  0
   10.6505   25.8666    5.3200 N   0  0  0  0  0  0  0  0  0  0  0  0
   10.1446   25.5087    4.5550 H   0  0  0  0  0  0  0  0  0  0  0  0
    9.9284   26.6989    6.2812 C   0  0  0  0  0  0  0  0  0  0  0  0
    9.9174   25.9050    7.5965 C   0  0  0  0  0  0  0  0  0  0  0  0
    9.4079   24.7668    7.6498 O   0  0  0  0  0  0  0  0  0  0  0  0
   10.5044   26.5581    8.6745 N   0  0  0  0  0  0  0  0  0  0  0  0
   10.5393   25.8999    9.9564 C   0  0  0  0  0  0  0  0  0  0  0  0
   10.8905   27.4569    8.5638 H   0  0  0  0  0  0  0  0  0  0  0  0
    8.4317   26.9421    5.8429 C   0  0  0  0  0  0  0  0  0  0  0  0
    7.5569   27.6457    6.9390 C   0  0  0  0  0  0  0  0  0  0  0  0
    8.3250   27.7075    4.5181 C   0  0  0  0  0  0  0  0  0  0  0  0
   11.6553   23.5591    4.0050 O   0  0  0  0  0  0  0  0  0  0  0  0
   11.2438   23.5125    2.6033 C   0  0  0  0  0  0  0  0  0  0  0  0
    9.8351   24.0223    2.4507 C   0  0  0  0  0  0  0  0  0  0  0  0
    8.7517   23.2351    3.0115 C   0  0  0  0  0  0  0  0  0  0  0  0
    7.3995   23.6953    2.9032 C   0  0  0  0  0  0  0  0  0  0  0  0
    7.1104   24.9481    2.2341 C   0  0  0  0  0  0  0  0  0  0  0  0
    8.2110   25.7269    1.6761 C   0  0  0  0  0  0  0  0  0  0  0  0
    9.5718   25.2716    1.7810 C   0  0  0  0  0  0  0  0  0  0  0  0
    5.6844   25.4329    2.1198 C   0  0  0  0  0  0  0  0  0  0  0  0
    4.8560   25.2075    0.9505 C   0  0  0  0  0  0  0  0  0  0  0  0
    3.5009   25.6964    0.8944 C   0  0  0  0  0  0  0  0  0  0  0  0
    3.0255   26.4044    2.0386 C   0  0  0  0  0  0  0  0  0  0  0  0
    3.7884   26.6368    3.1734 N   0  0  0  0  0  0  0  0  0  0  0  0
    5.0684   26.1631    3.1978 C   0  0  0  0  0  0  0  0  0  0  0  0
 23 24  2  0  0  0
 23 28  1  0  0  0
 23 22  1  0  0  0
 24 25  1  0  0  0
 25 26  2  0  0  0
 26 27  1  0  0  0
 26 29  1  0  0  0
 27 28  2  0  0  0
 51 52  2  0  0  0
 51 56  1  0  0  0
 51 50  1  0  0  0
 52 53  1  0  0  0
 53 54  2  0  0  0
 54 55  1  0  0  0
 54 57  1  0  0  0
 55 56  2  0  0  0
 50 49  1  0  0  0
 49 35  1  0  0  0
 35  1  1  0  0  0
 35 36  1  0  0  0
  1  4  1  0  0  0
  1  2  1  0  0  0
  4  7  1  0  0  0
  4  5  1  0  0  0
  7  8  1  0  0  0
  7 21  1  0  0  0
  8  9  2  0  0  0
  8 10  1  0  0  0
 10 12  1  0  0  0
 12 18  1  0  0  0
 12 13  1  0  0  0
 18 19  1  0  0  0
 18 20  1  0  0  0
 13 14  2  0  0  0
 13 15  1  0  0  0
 15 16  1  0  0  0
 21 22  1  0  0  0
 36 37  2  0  0  0
 36 38  1  0  0  0
 38 40  1  0  0  0
 40 46  1  0  0  0
 40 41  1  0  0  0
 46 47  1  0  0  0
 46 48  1  0  0  0
 41 42  2  0  0  0
 41 43  1  0  0  0
 43 44  1  0  0  0
 29 30  2  0  0  0
 29 34  1  0  0  0
 30 31  1  0  0  0
 31 32  2  0  0  0
 32 33  1  0  0  0
 33 34  2  0  0  0
 57 58  2  0  0  0
 57 62  1  0  0  0
 58 59  1  0  0  0
 59 60  2  0  0  0
 60 61  1  0  0  0
 61 62  2  0  0  0
 10 11  1  0  0  0
 15 17  1  0  0  0
  5  6  1  0  0  0
  2  3  1  0  0  0
 38 39  1  0  0  0
 43 45  1  0  0  0
M  END
> <minimizedAffinity>
-10.01560

$$$$
1EC2_BEJ_B_501


 62 65  0  0  0  0  0  0  0  0999 V2000
   11.4493   24.6623    4.9888 C   0  0  0  0  0  0  0  0  0  0  0  0
   10.8000   25.9318    4.7743 O   0  0  0  0  0  0  0  0  0  0  0  0
   11.4624   26.5962    4.5278 H   0  0  0  0  0  0  0  0  0  0  0  0
   12.4206   24.7331    6.1398 C   0  0  0  0  0  0  0  0  0  0  0  0
   12.7684   26.1097    6.2856 O   0  0  0  0  0  0  0  0  0  0  0  0
   11.9657   26.6312    6.4424 H   0  0  0  0  0  0  0  0  0  0  0  0
   11.8811   23.9790    7.3757 C   0  0  0  0  0  0  0  0  0  0  0  0
   10.5214   24.5727    7.7988 C   0  0  0  0  0  0  0  0  0  0  0  0
    9.5502   23.8382    8.0254 O   0  0  0  0  0  0  0  0  0  0  0  0
   10.4490   25.9651    7.9002 N   0  0  0  0  0  0  0  0  0  0  0  0
   11.2742   26.4620    7.6967 H   0  0  0  0  0  0  0  0  0  0  0  0
    9.2482   26.7905    8.2862 C   0  0  0  0  0  0  0  0  0  0  0  0
    8.8834   27.2625    7.0251 C   0  0  0  0  0  0  0  0  0  0  0  0
    9.3163   27.7759    6.0534 O   0  0  0  0  0  0  0  0  0  0  0  0
    7.2336   27.0202    6.7925 N   0  0  0  0  0  0  0  0  0  0  0  0
    6.5507   27.4152    5.5607 C   0  0  0  0  0  0  0  0  0  0  0  0
    6.7098   26.5977    7.5111 H   0  0  0  0  0  0  0  0  0  0  0  0
    9.6522   28.0517    9.1627 C   0  0  0  0  0  0  0  0  0  0  0  0
   11.0761   27.9640    9.7942 C   0  0  0  0  0  0  0  0  0  0  0  0
    8.6469   28.3892   10.3002 C   0  0  0  0  0  0  0  0  0  0  0  0
   12.8099   24.0184    8.5226 O   0  0  0  0  0  0  0  0  0  0  0  0
   14.1741   24.3435    8.2291 C   0  0  0  0  0  0  0  0  0  0  0  0
   15.1001   23.2148    8.5515 C   0  0  0  0  0  0  0  0  0  0  0  0
   14.6160   22.1183    9.3032 C   0  0  0  0  0  0  0  0  0  0  0  0
   15.4906   21.0346    9.6267 C   0  0  0  0  0  0  0  0  0  0  0  0
   16.8783   21.0424    9.1926 C   0  0  0  0  0  0  0  0  0  0  0  0
   17.3436   22.1829    8.4251 C   0  0  0  0  0  0  0  0  0  0  0  0
   16.4793   23.2629    8.0999 C   0  0  0  0  0  0  0  0  0  0  0  0
   17.8246   19.8896    9.5246 C   0  0  0  0  0  0  0  0  0  0  0  0
   17.4525   18.4954    9.5157 C   0  0  0  0  0  0  0  0  0  0  0  0
   18.4111   17.4673    9.8477 C   0  0  0  0  0  0  0  0  0  0  0  0
   19.7400   17.8982   10.1847 C   0  0  0  0  0  0  0  0  0  0  0  0
   20.1408   19.2214   10.2069 N   0  0  0  0  0  0  0  0  0  0  0  0
   19.2051   20.1664    9.8866 C   0  0  0  0  0  0  0  0  0  0  0  0
   12.0991   24.1401    3.7161 C   0  0  0  0  0  0  0  0  0  0  0  0
   11.0721   24.3144    2.6278 C   0  0  0  0  0  0  0  0  0  0  0  0
   11.4578   24.4311    1.4613 O   0  0  0  0  0  0  0  0  0  0  0  0
    9.7517   24.3418    3.0503 N   0  0  0  0  0  0  0  0  0  0  0  0
    9.5784   24.2404    4.0141 H   0  0  0  0  0  0  0  0  0  0  0  0
    8.5982   24.5104    2.1676 C   0  0  0  0  0  0  0  0  0  0  0  0
    8.5677   26.0019    1.8000 C   0  0  0  0  0  0  0  0  0  0  0  0
    8.3799   26.3639    0.6202 O   0  0  0  0  0  0  0  0  0  0  0  0
    8.7658   26.8682    2.8692 N   0  0  0  0  0  0  0  0  0  0  0  0
    8.7616   28.2893    2.6281 C   0  0  0  0  0  0  0  0  0  0  0  0
    8.9070   26.5162    3.7777 H   0  0  0  0  0  0  0  0  0  0  0  0
    7.2427   24.1569    2.8950 C   0  0  0  0  0  0  0  0  0  0  0  0
    5.9633   24.5370    2.0701 C   0  0  0  0  0  0  0  0  0  0  0  0
    7.1718   22.6854    3.3214 C   0  0  0  0  0  0  0  0  0  0  0  0
   12.5199   22.7736    3.8763 O   0  0  0  0  0  0  0  0  0  0  0  0
   13.4627   22.3320    2.8503 C   0  0  0  0  0  0  0  0  0  0  0  0
   14.5218   21.4479    3.4538 C   0  0  0  0  0  0  0  0  0  0  0  0
   14.9929   20.3109    2.6833 C   0  0  0  0  0  0  0  0  0  0  0  0
   16.0125   19.4567    3.2149 C   0  0  0  0  0  0  0  0  0  0  0  0
   16.5764   19.7261    4.5227 C   0  0  0  0  0  0  0  0  0  0  0  0
   16.0916   20.8729    5.2836 C   0  0  0  0  0  0  0  0  0  0  0  0
   15.0680   21.7358    4.7565 C   0  0  0  0  0  0  0  0  0  0  0  0
   17.6513   18.8250    5.0830 C   0  0  0  0  0  0  0  0  0  0  0  0
   17.7712   17.4196    4.7444 C   0  0  0  0  0  0  0  0  0  0  0  0
   18.8162   16.6048    5.3125 C   0  0  0  0  0  0  0  0  0  0  0  0
   19.7150   17.2495    6.2140 C   0  0  0  0  0  0  0  0  0  0  0  0
   19.6314   18.5903    6.5590 N   0  0  0  0  0  0  0  0  0  0  0  0
   18.6311   19.3369    6.0064 C   0  0  0  0  0  0  0  0  0  0  0  0
 23 24  2  0  0  0
 23 28  1  0  0  0
 23 22  1  0  0  0
 24 25  1  0  0  0
 25 26  2  0  0  0
 26 27  1  0  0  0
 26 29  1  0  0  0
 27 28  2  0  0  0
 51 52  2  0  0  0
 51 56  1  0  0  0
 51 50  1  0  0  0
 52 53  1  0  0  0
 53 54  2  0  0  0
 54 55  1  0  0  0
 54 57  1  0  0  0
 55 56  2  0  0  0
 50 49  1  0  0  0
 49 35  1  0  0  0
 35  1  1  0  0  0
 35 36  1  0  0  0
  1  4  1  0  0  0
  1  2  1  0  0  0
  4  7  1  0  0  0
  4  5  1  0  0  0
  7  8  1  0  0  0
  7 21  1  0  0  0
  8  9  2  0  0  0
  8 10  1  0  0  0
 10 12  1  0  0  0
 12 18  1  0  0  0
 12 13  1  0  0  0
 18 19  1  0  0  0
 18 20  1  0  0  0
 13 14  2  0  0  0
 13 15  1  0  0  0
 15 16  1  0  0  0
 21 22  1  0  0  0
 36 37  2  0  0  0
 36 38  1  0  0  0
 38 40  1  0  0  0
 40 46  1  0  0  0
 40 41  1  0  0  0
 46 47  1  0  0  0
 46 48  1  0  0  0
 41 42  2  0  0  0
 41 43  1  0  0  0
 43 44  1  0  0  0
 29 30  2  0  0  0
 29 34  1  0  0  0
 30 31  1  0  0  0
 31 32  2  0  0  0
 32 33  1  0  0  0
 33 34  2  0  0  0
 57 58  2  0  0  0
 57 62  1  0  0  0
 58 59  1  0  0  0
 59 60  2  0  0  0
 60 61  1  0  0  0
 61 62  2  0  0  0
 10 11  1  0  0  0
 15 17  1  0  0  0
  5  6  1  0  0  0
  2  3  1  0  0  0
 38 39  1  0  0  0
 43 45  1  0  0  0
M  END
> <minimizedAffinity>
-9.88055

$$$$
1EC2_BEJ_B_501


 62 65  0  0  0  0  0  0  0  0999 V2000
   12.7144   24.1653    6.3798 C   0  0  0  0  0  0  0  0  0  0  0  0
   12.7355   25.4778    5.7830 O   0  0  0  0  0  0  0  0  0  0  0  0
   11.8300   25.8205    5.7234 H   0  0  0  0  0  0  0  0  0  0  0  0
   11.9515   23.1876    5.5223 C   0  0  0  0  0  0  0  0  0  0  0  0
   10.5718   23.5260    5.6603 O   0  0  0  0  0  0  0  0  0  0  0  0
   10.4359   24.4468    5.3871 H   0  0  0  0  0  0  0  0  0  0  0  0
   12.5471   23.1070    4.0989 C   0  0  0  0  0  0  0  0  0  0  0  0
   14.0603   22.8174    4.1802 C   0  0  0  0  0  0  0  0  0  0  0  0
   14.8700   23.7267    4.4075 O   0  0  0  0  0  0  0  0  0  0  0  0
   14.4574   21.4927    3.9759 N   0  0  0  0  0  0  0  0  0  0  0  0
   13.7392   20.8431    3.7988 H   0  0  0  0  0  0  0  0  0  0  0  0
   15.8629   20.9480    3.9966 C   0  0  0  0  0  0  0  0  0  0  0  0
   15.6199   19.6754    3.4792 C   0  0  0  0  0  0  0  0  0  0  0  0
   14.8012   18.8259    3.4218 O   0  0  0  0  0  0  0  0  0  0  0  0
   16.9745   19.1487    2.6295 N   0  0  0  0  0  0  0  0  0  0  0  0
   17.0260   17.8441    1.9699 C   0  0  0  0  0  0  0  0  0  0  0  0
   17.7600   19.7397    2.5746 H   0  0  0  0  0  0  0  0  0  0  0  0
   16.4041   20.7593    5.4777 C   0  0  0  0  0  0  0  0  0  0  0  0
   17.7285   19.9408    5.5769 C   0  0  0  0  0  0  0  0  0  0  0  0
   15.3774   20.1244    6.4582 C   0  0  0  0  0  0  0  0  0  0  0  0
   12.3263   24.3377    3.3139 O   0  0  0  0  0  0  0  0  0  0  0  0
   11.6822   24.1786    2.0440 C   0  0  0  0  0  0  0  0  0  0  0  0
   10.1927   24.1585    2.1708 C   0  0  0  0  0  0  0  0  0  0  0  0
    9.4616   25.3409    1.9079 C   0  0  0  0  0  0  0  0  0  0  0  0
    8.0374   25.3406    2.0322 C   0  0  0  0  0  0  0  0  0  0  0  0
    7.3245   24.1364    2.4273 C   0  0  0  0  0  0  0  0  0  0  0  0
    8.1042   22.9413    2.6918 C   0  0  0  0  0  0  0  0  0  0  0  0
    9.5200   22.9349    2.5696 C   0  0  0  0  0  0  0  0  0  0  0  0
    5.8024   24.1174    2.5591 C   0  0  0  0  0  0  0  0  0  0  0  0
    5.0792   23.4448    3.6113 C   0  0  0  0  0  0  0  0  0  0  0  0
    3.6359   23.4736    3.6581 C   0  0  0  0  0  0  0  0  0  0  0  0
    2.9633   24.1973    2.6146 C   0  0  0  0  0  0  0  0  0  0  0  0
    3.6143   24.8555    1.5875 N   0  0  0  0  0  0  0  0  0  0  0  0
    4.9812   24.8060    1.5768 C   0  0  0  0  0  0  0  0  0  0  0  0
   12.1968   24.2053    7.8099 C   0  0  0  0  0  0  0  0  0  0  0  0
   11.6480   25.5938    8.0106 C   0  0  0  0  0  0  0  0  0  0  0  0
   12.2726   26.3808    8.7272 O   0  0  0  0  0  0  0  0  0  0  0  0
   10.4510   25.8630    7.3644 N   0  0  0  0  0  0  0  0  0  0  0  0
   10.0525   25.1438    6.8230 H   0  0  0  0  0  0  0  0  0  0  0  0
    9.7380   27.1380    7.4291 C   0  0  0  0  0  0  0  0  0  0  0  0
    9.2210   27.2551    8.8711 C   0  0  0  0  0  0  0  0  0  0  0  0
    8.4102   26.4228    9.3272 O   0  0  0  0  0  0  0  0  0  0  0  0
    9.7242   28.3382    9.5829 N   0  0  0  0  0  0  0  0  0  0  0  0
    9.2957   28.5407   10.9442 C   0  0  0  0  0  0  0  0  0  0  0  0
   10.3639   28.9578    9.1632 H   0  0  0  0  0  0  0  0  0  0  0  0
    8.4939   27.1676    6.4583 C   0  0  0  0  0  0  0  0  0  0  0  0
    7.5141   28.3646    6.7204 C   0  0  0  0  0  0  0  0  0  0  0  0
    8.9020   27.1401    4.9801 C   0  0  0  0  0  0  0  0  0  0  0  0
   13.2395   23.8740    8.7443 O   0  0  0  0  0  0  0  0  0  0  0  0
   14.5843   24.0287    8.1928 C   0  0  0  0  0  0  0  0  0  0  0  0
   15.4810   22.9178    8.6719 C   0  0  0  0  0  0  0  0  0  0  0  0
   16.8927   22.9778    8.3377 C   0  0  0  0  0  0  0  0  0  0  0  0
   17.7816   21.9497    8.7905 C   0  0  0  0  0  0  0  0  0  0  0  0
   17.2735   20.8481    9.5835 C   0  0  0  0  0  0  0  0  0  0  0  0
   15.8521   20.8032    9.9104 C   0  0  0  0  0  0  0  0  0  0  0  0
   14.9530   21.8321    9.4596 C   0  0  0  0  0  0  0  0  0  0  0  0
   18.2111   19.7641   10.0605 C   0  0  0  0  0  0  0  0  0  0  0  0
   18.3669   19.4008   11.4561 C   0  0  0  0  0  0  0  0  0  0  0  0
   19.2802   18.3591   11.8554 C   0  0  0  0  0  0  0  0  0  0  0  0
   20.0123   17.7130   10.8148 C   0  0  0  0  0  0  0  0  0  0  0  0
   19.8876   18.0332    9.4710 N   0  0  0  0  0  0  0  0  0  0  0  0
   19.0160   19.0244    9.1226 C   0  0  0  0  0  0  0  0  0  0  0  0
 23 24  2  0  0  0
 23 28  1  0  0  0
 23 22  1  0  0  0
 24 25  1  0  0  0
 25 26  2  0  0  0
 26 27  1  0  0  0
 26 29  1  0  0  0
 27 28  2  0  0  0
 51 52  2  0  0  0
 51 56  1  0  0  0
 51 50  1  0  0  0
 52 53  1  0  0  0
 53 54  2  0  0  0
 54 55  1  0  0  0
 54 57  1  0  0  0
 55 56  2  0  0  0
 50 49  1  0  0  0
 49 35  1  0  0  0
 35  1  1  0  0  0
 35 36  1  0  0  0
  1  4  1  0  0  0
  1  2  1  0  0  0
  4  7  1  0  0  0
  4  5  1  0  0  0
  7  8  1  0  0  0
  7 21  1  0  0  0
  8  9  2  0  0  0
  8 10  1  0  0  0
 10 12  1  0  0  0
 12 18  1  0  0  0
 12 13  1  0  0  0
 18 19  1  0  0  0
 18 20  1  0  0  0
 13 14  2  0  0  0
 13 15  1  0  0  0
 15 16  1  0  0  0
 21 22  1  0  0  0
 36 37  2  0  0  0
 36 38  1  0  0  0
 38 40  1  0  0  0
 40 46  1  0  0  0
 40 41  1  0  0  0
 46 47  1  0  0  0
 46 48  1  0  0  0
 41 42  2  0  0  0
 41 43  1  0  0  0
 43 44  1  0  0  0
 29 30  2  0  0  0
 29 34  1  0  0  0
 30 31  1  0  0  0
 31 32  2  0  0  0
 32 33  1  0  0  0
 33 34  2  0  0  0
 57 58  2  0  0  0
 57 62  1  0  0  0
 58 59  1  0  0  0
 59 60  2  0  0  0
 60 61  1  0  0  0
 61 62  2  0  0  0
 10 11  1  0  0  0
 15 17  1  0  0  0
  5  6  1  0  0  0
  2  3  1  0  0  0
 38 39  1  0  0  0
 43 45  1  0  0  0
M  END
> <minimizedAffinity>
-9.83096

$$$$
1EC2_BEJ_B_501


 62 65  0  0  0  0  0  0  0  0999 V2000
   12.6476   24.5464    6.9871 C   0  0  0  0  0  0  0  0  0  0  0  0
   12.3451   25.9342    6.7385 O   0  0  0  0  0  0  0  0  0  0  0  0
   11.3965   26.0873    6.8718 H   0  0  0  0  0  0  0  0  0  0  0  0
   11.9361   23.6483    6.0071 C   0  0  0  0  0  0  0  0  0  0  0  0
   10.5893   24.1164    5.9403 O   0  0  0  0  0  0  0  0  0  0  0  0
   10.5836   25.0467    5.6657 H   0  0  0  0  0  0  0  0  0  0  0  0
   12.7315   23.5152    4.6892 C   0  0  0  0  0  0  0  0  0  0  0  0
   11.9467   24.1732    3.5354 C   0  0  0  0  0  0  0  0  0  0  0  0
   12.4601   25.0634    2.8441 O   0  0  0  0  0  0  0  0  0  0  0  0
   10.6408   23.7198    3.3262 N   0  0  0  0  0  0  0  0  0  0  0  0
   10.3219   23.0109    3.9304 H   0  0  0  0  0  0  0  0  0  0  0  0
    9.6668   24.1954    2.2786 C   0  0  0  0  0  0  0  0  0  0  0  0
    9.1060   25.2733    2.9642 C   0  0  0  0  0  0  0  0  0  0  0  0
    8.6577   25.5900    4.0101 O   0  0  0  0  0  0  0  0  0  0  0  0
    9.0361   26.6105    1.9435 N   0  0  0  0  0  0  0  0  0  0  0  0
    8.4933   27.8979    2.3767 C   0  0  0  0  0  0  0  0  0  0  0  0
    9.3724   26.5228    1.0225 H   0  0  0  0  0  0  0  0  0  0  0  0
    8.5057   23.1417    2.0263 C   0  0  0  0  0  0  0  0  0  0  0  0
    7.1592   23.4898    2.7332 C   0  0  0  0  0  0  0  0  0  0  0  0
    8.8763   21.6788    2.4017 C   0  0  0  0  0  0  0  0  0  0  0  0
   13.0316   22.1128    4.3391 O   0  0  0  0  0  0  0  0  0  0  0  0
   14.0321   21.9050    3.3348 C   0  0  0  0  0  0  0  0  0  0  0  0
   15.0762   20.9311    3.7783 C   0  0  0  0  0  0  0  0  0  0  0  0
   15.3383   19.7906    2.9833 C   0  0  0  0  0  0  0  0  0  0  0  0
   16.3281   18.8457    3.3972 C   0  0  0  0  0  0  0  0  0  0  0  0
   17.0738   19.0400    4.6303 C   0  0  0  0  0  0  0  0  0  0  0  0
   16.7792   20.2190    5.4236 C   0  0  0  0  0  0  0  0  0  0  0  0
   15.7970   21.1622    5.0175 C   0  0  0  0  0  0  0  0  0  0  0  0
   18.1390   18.0430    5.0840 C   0  0  0  0  0  0  0  0  0  0  0  0
   18.3614   16.7506    4.4818 C   0  0  0  0  0  0  0  0  0  0  0  0
   19.3900   15.8659    4.9774 C   0  0  0  0  0  0  0  0  0  0  0  0
   20.1719   16.3322    6.0892 C   0  0  0  0  0  0  0  0  0  0  0  0
   19.9940   17.5611    6.6976 N   0  0  0  0  0  0  0  0  0  0  0  0
   19.0104   18.3714    6.2003 C   0  0  0  0  0  0  0  0  0  0  0  0
   12.3694   24.1596    8.4320 C   0  0  0  0  0  0  0  0  0  0  0  0
   11.5552   25.2870    9.0109 C   0  0  0  0  0  0  0  0  0  0  0  0
   12.1254   26.1386    9.6984 O   0  0  0  0  0  0  0  0  0  0  0  0
   10.1996   25.2561    8.7208 N   0  0  0  0  0  0  0  0  0  0  0  0
    9.8691   24.5167    8.1609 H   0  0  0  0  0  0  0  0  0  0  0  0
    9.2255   26.2422    9.1864 C   0  0  0  0  0  0  0  0  0  0  0  0
    8.2790   26.4868    8.0012 C   0  0  0  0  0  0  0  0  0  0  0  0
    8.6698   26.3173    6.8279 O   0  0  0  0  0  0  0  0  0  0  0  0
    7.0001   26.9019    8.3548 N   0  0  0  0  0  0  0  0  0  0  0  0
    6.0373   27.1646    7.3146 C   0  0  0  0  0  0  0  0  0  0  0  0
    6.7556   27.0148    9.3017 H   0  0  0  0  0  0  0  0  0  0  0  0
    9.9090   27.6152    9.5595 C   0  0  0  0  0  0  0  0  0  0  0  0
   10.0286   28.6116    8.3535 C   0  0  0  0  0  0  0  0  0  0  0  0
    9.2253   28.3084   10.7445 C   0  0  0  0  0  0  0  0  0  0  0  0
   13.5957   23.9283    9.1482 O   0  0  0  0  0  0  0  0  0  0  0  0
   14.7756   23.9007    8.2859 C   0  0  0  0  0  0  0  0  0  0  0  0
   15.6614   22.7363    8.6423 C   0  0  0  0  0  0  0  0  0  0  0  0
   15.0566   21.5771    9.2737 C   0  0  0  0  0  0  0  0  0  0  0  0
   15.8623   20.4418    9.6114 C   0  0  0  0  0  0  0  0  0  0  0  0
   17.2827   20.4480    9.3229 C   0  0  0  0  0  0  0  0  0  0  0  0
   17.8744   21.6210    8.6880 C   0  0  0  0  0  0  0  0  0  0  0  0
   17.0718   22.7650    8.3455 C   0  0  0  0  0  0  0  0  0  0  0  0
   18.1320   19.2508    9.6794 C   0  0  0  0  0  0  0  0  0  0  0  0
   17.5985   17.9105    9.8313 C   0  0  0  0  0  0  0  0  0  0  0  0
   18.4558   16.8040   10.1764 C   0  0  0  0  0  0  0  0  0  0  0  0
   19.8408   17.0966   10.3572 C   0  0  0  0  0  0  0  0  0  0  0  0
   20.3855   18.3646   10.2186 N   0  0  0  0  0  0  0  0  0  0  0  0
   19.5494   19.3932    9.8923 C   0  0  0  0  0  0  0  0  0  0  0  0
 23 24  2  0  0  0
 23 28  1  0  0  0
 23 22  1  0  0  0
 24 25  1  0  0  0
 25 26  2  0  0  0
 26 27  1  0  0  0
 26 29  1  0  0  0
 27 28  2  0  0  0
 51 52  2  0  0  0
 51 56  1  0  0  0
 51 50  1  0  0  0
 52 53  1  0  0  0
 53 54  2  0  0  0
 54 55  1  0  0  0
 54 57  1  0  0  0
 55 56  2  0  0  0
 50 49  1  0  0  0
 49 35  1  0  0  0
 35  1  1  0  0  0
 35 36  1  0  0  0
  1  4  1  0  0  0
  1  2  1  0  0  0
  4  7  1  0  0  0
  4  5  1  0  0  0
  7  8  1  0  0  0
  7 21  1  0  0  0
  8  9  2  0  0  0
  8 10  1  0  0  0
 10 12  1  0  0  0
 12 18  1  0  0  0
 12 13  1  0  0  0
 18 19  1  0  0  0
 18 20  1  0  0  0
 13 14  2  0  0  0
 13 15  1  0  0  0
 15 16  1  0  0  0
 21 22  1  0  0  0
 36 37  2  0  0  0
 36 38  1  0  0  0
 38 40  1  0  0  0
 40 46  1  0  0  0
 40 41  1  0  0  0
 46 47  1  0  0  0
 46 48  1  0  0  0
 41 42  2  0  0  0
 41 43  1  0  0  0
 43 44  1  0  0  0
 29 30  2  0  0  0
 29 34  1  0  0  0
 30 31  1  0  0  0
 31 32  2  0  0  0
 32 33  1  0  0  0
 33 34  2  0  0  0
 57 58  2  0  0  0
 57 62  1  0  0  0
 58 59  1  0  0  0
 59 60  2  0  0  0
 60 61  1  0  0  0
 61 62  2  0  0  0
 10 11  1  0  0  0
 15 17  1  0  0  0
  5  6  1  0  0  0
  2  3  1  0  0  0
 38 39  1  0  0  0
 43 45  1  0  0  0
M  END
> <minimizedAffinity>
-9.70082

$$$$
1EC2_BEJ_B_501


 62 65  0  0  0  0  0  0  0  0999 V2000
   14.6031   22.9617    6.1979 C   0  0  0  0  0  0  0  0  0  0  0  0
   15.5625   23.7312    5.4450 O   0  0  0  0  0  0  0  0  0  0  0  0
   16.1368   23.1310    4.9442 H   0  0  0  0  0  0  0  0  0  0  0  0
   15.2853   22.0856    7.2178 C   0  0  0  0  0  0  0  0  0  0  0  0
   16.6327   21.9289    6.7735 O   0  0  0  0  0  0  0  0  0  0  0  0
   17.0498   22.8009    6.6922 H   0  0  0  0  0  0  0  0  0  0  0  0
   15.0430   22.6033    8.6533 C   0  0  0  0  0  0  0  0  0  0  0  0
   15.3540   21.4871    9.6719 C   0  0  0  0  0  0  0  0  0  0  0  0
   14.5071   21.1308   10.5024 O   0  0  0  0  0  0  0  0  0  0  0  0
   16.6295   20.9183    9.6093 N   0  0  0  0  0  0  0  0  0  0  0  0
   17.2326   21.2717    8.9160 H   0  0  0  0  0  0  0  0  0  0  0  0
   17.1844   19.8241   10.4852 C   0  0  0  0  0  0  0  0  0  0  0  0
   18.5350   20.1719   10.4532 C   0  0  0  0  0  0  0  0  0  0  0  0
   19.3756   20.6085    9.7475 O   0  0  0  0  0  0  0  0  0  0  0  0
   19.2289   19.8608   11.9553 N   0  0  0  0  0  0  0  0  0  0  0  0
   20.6409   20.1218   12.2342 C   0  0  0  0  0  0  0  0  0  0  0  0
   18.6642   19.4899   12.6715 H   0  0  0  0  0  0  0  0  0  0  0  0
   17.0495   18.3949    9.8061 C   0  0  0  0  0  0  0  0  0  0  0  0
   16.3852   17.3138   10.7137 C   0  0  0  0  0  0  0  0  0  0  0  0
   18.3884   17.8111    9.2723 C   0  0  0  0  0  0  0  0  0  0  0  0
   13.6640   23.0869    8.8637 O   0  0  0  0  0  0  0  0  0  0  0  0
   13.5246   24.4233    9.3612 C   0  0  0  0  0  0  0  0  0  0  0  0
   12.2810   25.0815    8.8558 C   0  0  0  0  0  0  0  0  0  0  0  0
   11.5647   24.4805    7.7940 C   0  0  0  0  0  0  0  0  0  0  0  0
   10.3779   25.1011    7.2938 C   0  0  0  0  0  0  0  0  0  0  0  0
    9.8930   26.3482    7.8630 C   0  0  0  0  0  0  0  0  0  0  0  0
   10.6520   26.9395    8.9495 C   0  0  0  0  0  0  0  0  0  0  0  0
   11.8321   26.3275    9.4515 C   0  0  0  0  0  0  0  0  0  0  0  0
    8.6232   27.0214    7.3443 C   0  0  0  0  0  0  0  0  0  0  0  0
    7.3982   27.1502    8.0961 C   0  0  0  0  0  0  0  0  0  0  0  0
    6.2403   27.7990    7.5264 C   0  0  0  0  0  0  0  0  0  0  0  0
    6.3679   28.3039    6.1870 C   0  0  0  0  0  0  0  0  0  0  0  0
    7.5204   28.2026    5.4298 N   0  0  0  0  0  0  0  0  0  0  0  0
    8.5961   27.5819    6.0032 C   0  0  0  0  0  0  0  0  0  0  0  0
   13.6751   22.1722    5.2868 C   0  0  0  0  0  0  0  0  0  0  0  0
   14.5707   21.3283    4.4179 C   0  0  0  0  0  0  0  0  0  0  0  0
   15.0862   21.8424    3.4214 O   0  0  0  0  0  0  0  0  0  0  0  0
   14.7272   20.0110    4.8216 N   0  0  0  0  0  0  0  0  0  0  0  0
   14.2565   19.7244    5.6373 H   0  0  0  0  0  0  0  0  0  0  0  0
   15.5409   19.0170    4.1231 C   0  0  0  0  0  0  0  0  0  0  0  0
   16.9548   19.1472    4.7098 C   0  0  0  0  0  0  0  0  0  0  0  0
   17.5098   20.2620    4.7942 O   0  0  0  0  0  0  0  0  0  0  0  0
   17.5283   17.9474    5.1157 N   0  0  0  0  0  0  0  0  0  0  0  0
   18.8570   17.9610    5.6746 C   0  0  0  0  0  0  0  0  0  0  0  0
   17.0343   17.1010    5.0227 H   0  0  0  0  0  0  0  0  0  0  0  0
   15.6244   19.3070    2.5738 C   0  0  0  0  0  0  0  0  0  0  0  0
   16.9266   18.7543    1.8952 C   0  0  0  0  0  0  0  0  0  0  0  0
   14.3879   18.8083    1.8157 C   0  0  0  0  0  0  0  0  0  0  0  0
   12.8262   23.0527    4.5290 O   0  0  0  0  0  0  0  0  0  0  0  0
   12.1161   22.3816    3.4418 C   0  0  0  0  0  0  0  0  0  0  0  0
   10.7359   22.9608    3.2777 C   0  0  0  0  0  0  0  0  0  0  0  0
    9.7572   22.2066    2.5150 C   0  0  0  0  0  0  0  0  0  0  0  0
    8.4280   22.7151    2.3516 C   0  0  0  0  0  0  0  0  0  0  0  0
    8.0573   23.9830    2.9480 C   0  0  0  0  0  0  0  0  0  0  0  0
    9.0530   24.7280    3.7115 C   0  0  0  0  0  0  0  0  0  0  0  0
   10.3900   24.2239    3.8803 C   0  0  0  0  0  0  0  0  0  0  0  0
    6.6557   24.5189    2.7753 C   0  0  0  0  0  0  0  0  0  0  0  0
    5.4909   23.9244    3.4030 C   0  0  0  0  0  0  0  0  0  0  0  0
    4.1745   24.4764    3.2003 C   0  0  0  0  0  0  0  0  0  0  0  0
    4.0823   25.6258    2.3597 C   0  0  0  0  0  0  0  0  0  0  0  0
    5.1739   26.2211    1.7451 N   0  0  0  0  0  0  0  0  0  0  0  0
    6.4080   25.6761    1.9542 C   0  0  0  0  0  0  0  0  0  0  0  0
 23 24  2  0  0  0
 23 28  1  0  0  0
 23 22  1  0  0  0
 24 25  1  0  0  0
 25 26  2  0  0  0
 26 27  1  0  0  0
 26 29  1  0  0  0
 27 28  2  0  0  0
 51 52  2  0  0  0
 51 56  1  0  0  0
 51 50  1  0  0  0
 52 53  1  0  0  0
 53 54  2  0  0  0
 54 55  1  0  0  0
 54 57  1  0  0  0
 55 56  2  0  0  0
 50 49  1  0  0  0
 49 35  1  0  0  0
 35  1  1  0  0  0
 35 36  1  0  0  0
  1  4  1  0  0  0
  1  2  1  0  0  0
  4  7  1  0  0  0
  4  5  1  0  0  0
  7  8  1  0  0  0
  7 21  1  0  0  0
  8  9  2  0  0  0
  8 10  1  0  0  0
 10 12  1  0  0  0
 12 18  1  0  0  0
 12 13  1  0  0  0
 18 19  1  0  0  0
 18 20  1  0  0  0
 13 14  2  0  0  0
 13 15  1  0  0  0
 15 16  1  0  0  0
 21 22  1  0  0  0
 36 37  2  0  0  0
 36 38  1  0  0  0
 38 40  1  0  0  0
 40 46  1  0  0  0
 40 41  1  0  0  0
 46 47  1  0  0  0
 46 48  1  0  0  0
 41 42  2  0  0  0
 41 43  1  0  0  0
 43 44  1  0  0  0
 29 30  2  0  0  0
 29 34  1  0  0  0
 30 31  1  0  0  0
 31 32  2  0  0  0
 32 33  1  0  0  0
 33 34  2  0  0  0
 57 58  2  0  0  0
 57 62  1  0  0  0
 58 59  1  0  0  0
 59 60  2  0  0  0
 60 61  1  0  0  0
 61 62  2  0  0  0
 10 11  1  0  0  0
 15 17  1  0  0  0
  5  6  1  0  0  0
  2  3  1  0  0  0
 38 39  1  0  0  0
 43 45  1  0  0  0
M  END
> <minimizedAffinity>
-9.59638

$$$$
1EC2_BEJ_B_501


 62 65  0  0  0  0  0  0  0  0999 V2000
    6.0511   26.9027    4.1216 C   0  0  0  0  0  0  0  0  0  0  0  0
    6.1097   28.1039    4.9172 O   0  0  0  0  0  0  0  0  0  0  0  0
    6.4675   27.8938    5.7940 H   0  0  0  0  0  0  0  0  0  0  0  0
    5.1105   25.8918    4.7272 C   0  0  0  0  0  0  0  0  0  0  0  0
    5.0311   26.2022    6.1181 O   0  0  0  0  0  0  0  0  0  0  0  0
    4.7200   27.1142    6.2286 H   0  0  0  0  0  0  0  0  0  0  0  0
    3.7954   25.7969    3.9217 C   0  0  0  0  0  0  0  0  0  0  0  0
    3.0271   27.1315    4.0146 C   0  0  0  0  0  0  0  0  0  0  0  0
    2.6825   27.7390    2.9918 O   0  0  0  0  0  0  0  0  0  0  0  0
    2.7561   27.6113    5.2995 N   0  0  0  0  0  0  0  0  0  0  0  0
    3.0739   27.0578    6.0491 H   0  0  0  0  0  0  0  0  0  0  0  0
    2.0315   28.8816    5.6650 C   0  0  0  0  0  0  0  0  0  0  0  0
    2.9814   29.8127    5.2441 C   0  0  0  0  0  0  0  0  0  0  0  0
    4.0984   30.1568    5.4143 O   0  0  0  0  0  0  0  0  0  0  0  0
    2.3031   30.8135    4.0723 N   0  0  0  0  0  0  0  0  0  0  0  0
    3.0551   31.8954    3.4368 C   0  0  0  0  0  0  0  0  0  0  0  0
    1.3672   30.6653    3.8054 H   0  0  0  0  0  0  0  0  0  0  0  0
    1.8762   29.0446    7.2371 C   0  0  0  0  0  0  0  0  0  0  0  0
    1.5427   30.4961    7.7014 C   0  0  0  0  0  0  0  0  0  0  0  0
    3.1035   28.5529    8.0559 C   0  0  0  0  0  0  0  0  0  0  0  0
    2.9219   24.6972    4.3767 O   0  0  0  0  0  0  0  0  0  0  0  0
    2.4234   23.8159    3.3629 C   0  0  0  0  0  0  0  0  0  0  0  0
    2.7702   22.3887    3.6422 C   0  0  0  0  0  0  0  0  0  0  0  0
    1.9679   21.3627    3.0899 C   0  0  0  0  0  0  0  0  0  0  0  0
    2.2814   19.9930    3.3538 C   0  0  0  0  0  0  0  0  0  0  0  0
    3.4188   19.6363    4.1864 C   0  0  0  0  0  0  0  0  0  0  0  0
    4.2201   20.7127    4.7392 C   0  0  0  0  0  0  0  0  0  0  0  0
    3.9141   22.0760    4.4804 C   0  0  0  0  0  0  0  0  0  0  0  0
    3.7712   18.1775    4.4734 C   0  0  0  0  0  0  0  0  0  0  0  0
    2.8283   17.1783    4.9149 C   0  0  0  0  0  0  0  0  0  0  0  0
    3.2480   15.8197    5.1681 C   0  0  0  0  0  0  0  0  0  0  0  0
    4.6373   15.5163    4.9613 C   0  0  0  0  0  0  0  0  0  0  0  0
    5.5755   16.4407    4.5401 N   0  0  0  0  0  0  0  0  0  0  0  0
    5.1404   17.7170    4.3103 C   0  0  0  0  0  0  0  0  0  0  0  0
    7.4361   26.3251    3.8710 C   0  0  0  0  0  0  0  0  0  0  0  0
    8.3535   27.0175    4.8448 C   0  0  0  0  0  0  0  0  0  0  0  0
    8.8035   28.1280    4.5491 O   0  0  0  0  0  0  0  0  0  0  0  0
    8.6262   26.3180    6.0105 N   0  0  0  0  0  0  0  0  0  0  0  0
    8.2038   25.4358    6.1232 H   0  0  0  0  0  0  0  0  0  0  0  0
    9.4957   26.7960    7.0846 C   0  0  0  0  0  0  0  0  0  0  0  0
   10.6281   25.7638    7.1963 C   0  0  0  0  0  0  0  0  0  0  0  0
   10.6028   24.7142    6.5213 O   0  0  0  0  0  0  0  0  0  0  0  0
   11.6375   26.1029    8.0903 N   0  0  0  0  0  0  0  0  0  0  0  0
   12.7438   25.1969    8.2727 C   0  0  0  0  0  0  0  0  0  0  0  0
   11.5972   26.9493    8.5914 H   0  0  0  0  0  0  0  0  0  0  0  0
    8.7438   26.8508    8.4713 C   0  0  0  0  0  0  0  0  0  0  0  0
    7.4342   27.7146    8.4482 C   0  0  0  0  0  0  0  0  0  0  0  0
    8.4396   25.4551    9.0297 C   0  0  0  0  0  0  0  0  0  0  0  0
    7.8308   26.5105    2.4999 O   0  0  0  0  0  0  0  0  0  0  0  0
    8.0284   25.2553    1.7775 C   0  0  0  0  0  0  0  0  0  0  0  0
    9.2053   24.5033    2.3404 C   0  0  0  0  0  0  0  0  0  0  0  0
   10.5016   25.1572    2.3498 C   0  0  0  0  0  0  0  0  0  0  0  0
   11.6420   24.4820    2.8935 C   0  0  0  0  0  0  0  0  0  0  0  0
   11.5038   23.1451    3.4359 C   0  0  0  0  0  0  0  0  0  0  0  0
   10.1939   22.5025    3.4187 C   0  0  0  0  0  0  0  0  0  0  0  0
    9.0436   23.1741    2.8746 C   0  0  0  0  0  0  0  0  0  0  0  0
   12.7066   22.4334    4.0089 C   0  0  0  0  0  0  0  0  0  0  0  0
   13.8964   22.1286    3.2370 C   0  0  0  0  0  0  0  0  0  0  0  0
   15.0149   21.4434    3.8351 C   0  0  0  0  0  0  0  0  0  0  0  0
   14.8888   21.0869    5.2111 C   0  0  0  0  0  0  0  0  0  0  0  0
   13.7678   21.3636    5.9796 N   0  0  0  0  0  0  0  0  0  0  0  0
   12.7236   22.0126    5.3863 C   0  0  0  0  0  0  0  0  0  0  0  0
 23 24  2  0  0  0
 23 28  1  0  0  0
 23 22  1  0  0  0
 24 25  1  0  0  0
 25 26  2  0  0  0
 26 27  1  0  0  0
 26 29  1  0  0  0
 27 28  2  0  0  0
 51 52  2  0  0  0
 51 56  1  0  0  0
 51 50  1  0  0  0
 52 53  1  0  0  0
 53 54  2  0  0  0
 54 55  1  0  0  0
 54 57  1  0  0  0
 55 56  2  0  0  0
 50 49  1  0  0  0
 49 35  1  0  0  0
 35  1  1  0  0  0
 35 36  1  0  0  0
  1  4  1  0  0  0
  1  2  1  0  0  0
  4  7  1  0  0  0
  4  5  1  0  0  0
  7  8  1  0  0  0
  7 21  1  0  0  0
  8  9  2  0  0  0
  8 10  1  0  0  0
 10 12  1  0  0  0
 12 18  1  0  0  0
 12 13  1  0  0  0
 18 19  1  0  0  0
 18 20  1  0  0  0
 13 14  2  0  0  0
 13 15  1  0  0  0
 15 16  1  0  0  0
 21 22  1  0  0  0
 36 37  2  0  0  0
 36 38  1  0  0  0
 38 40  1  0  0  0
 40 46  1  0  0  0
 40 41  1  0  0  0
 46 47  1  0  0  0
 46 48  1  0  0  0
 41 42  2  0  0  0
 41 43  1  0  0  0
 43 44  1  0  0  0
 29 30  2  0  0  0
 29 34  1  0  0  0
 30 31  1  0  0  0
 31 32  2  0  0  0
 32 33  1  0  0  0
 33 34  2  0  0  0
 57 58  2  0  0  0
 57 62  1  0  0  0
 58 59  1  0  0  0
 59 60  2  0  0  0
 60 61  1  0  0  0
 61 62  2  0  0  0
 10 11  1  0  0  0
 15 17  1  0  0  0
  5  6  1  0  0  0
  2  3  1  0  0  0
 38 39  1  0  0  0
 43 45  1  0  0  0
M  END
> <minimizedAffinity>
-9.59170

$$$$
