4DE0_0JB_A_300
  RCSB PDB12061712113D
Coordinates from PDB:4DE0:A:300 Model:1 without hydrogens
 23 26  0  0  0  0            999 V2000
   -9.1470   55.4140   13.7360   O 0  0  0  0  0  0  0  0  0  0  0  0
   -8.7480   55.4880   12.5700   C 0  0  0  0  0  0  0  0  0  0  0  0
   -9.4750   56.3480   11.5940   C 0  0  0  0  0  0  0  0  0  0  0  0
   -9.1390   56.3710   10.2410   C 0  0  0  0  0  0  0  0  0  0  0  0
   -8.2370   55.6640    9.4730   N 0  0  0  0  0  0  0  0  0  0  0  0
   -8.3690   56.1060    8.2130   C 0  0  0  0  0  0  0  0  0  0  0  0
   -9.3720   57.0080    8.1210   N 0  0  0  0  0  0  0  0  0  0  0  0
   -9.8570   57.2290    9.3730   C 0  0  0  0  0  0  0  0  0  0  0  0
  -10.8600   58.0700    9.8600   C 0  0  0  0  0  0  0  0  0  0  0  0
  -11.1520   58.0240   11.2230   C 0  0  0  0  0  0  0  0  0  0  0  0
  -10.4630   57.1860   12.0650   C 0  0  0  0  0  0  0  0  0  0  0  0
   -7.6610   54.8670   12.1230   N 0  0  0  0  0  0  0  0  0  0  0  0
   -6.7920   54.0590   12.8850   C 0  0  0  0  0  0  0  0  0  0  0  0
   -5.4480   53.9970   12.5080   C 0  0  0  0  0  0  0  0  0  0  0  0
   -7.2520   53.3060   13.9800   C 0  0  0  0  0  0  0  0  0  0  0  0
   -6.3210   52.5660   14.7040   C 0  0  0  0  0  0  0  0  0  0  0  0
   -4.9760   52.5130   14.3840   C 0  0  0  0  0  0  0  0  0  0  0  0
   -4.5590   53.2480   13.2730   C 0  0  0  0  0  0  0  0  0  0  0  0
   -3.1510   53.2120   12.8680   C 0  0  0  0  0  0  0  0  0  0  0  0
   -2.1460   52.8870   13.6680   N 0  0  0  0  0  0  0  0  0  0  0  0
   -0.9980   52.9330   12.9520   N 0  0  0  0  0  0  0  0  0  0  0  0
   -1.2920   53.3310   11.6900   N 0  0  0  0  0  0  0  0  0  0  0  0
   -2.6780   53.4730   11.6370   N 0  0  0  0  0  0  0  0  0  0  0  0
  7  6  2  0  0  0  0
  7  8  1  0  0  0  0
  6  5  1  0  0  0  0
  8  9  2  0  0  0  0
  8  4  1  0  0  0  0
  5  4  1  0  0  0  0
  9 10  1  0  0  0  0
  4  3  2  0  0  0  0
 10 11  2  0  0  0  0
  3 11  1  0  0  0  0
  3  2  1  0  0  0  0
 23 22  1  0  0  0  0
 23 19  2  0  0  0  0
 22 21  2  0  0  0  0
 12  2  1  0  0  0  0
 12 13  1  0  0  0  0
 14 13  2  0  0  0  0
 14 18  1  0  0  0  0
  2  1  2  0  0  0  0
 19 18  1  0  0  0  0
 19 20  1  0  0  0  0
 13 15  1  0  0  0  0
 21 20  1  0  0  0  0
 18 17  2  0  0  0  0
 15 16  2  0  0  0  0
 17 16  1  0  0  0  0
A    1
O14
A    2
C13
A    3
C15
A    4
C20
A    5
N21
A    6
C22
A    7
N23
A    8
C19
A    9
C18
A   10
C17
A   11
C16
A   12
N12
A   13
C8
A   14
C7
A   15
C9
A   16
C10
A   17
C11
A   18
C6
A   19
C2
A   20
N3
A   21
N4
A   22
N5
A   23
N1
M  END
>  <InstanceId>
4DE0_0JB_A_300

>  <ChemCompId>
0JB

>  <PdbId>
4DE0

>  <ChainId>
A

>  <ResidueNumber>
300

>  <InsertionCode>


>  <Model>
1

>  <AltIds>


>  <MissingHeavyAtoms>
0

>  <ObservedFormula>
C15 N7 O

>  <Name>
N-[3-(1H-tetrazol-5-yl)phenyl]-1H-benzimidazole-7-carboxamide

>  <SystematicName>
N-[3-(1H-1,2,3,4-tetrazol-5-yl)phenyl]-3H-benzimidazole-4-carboxamide

>  <Synonyms>


>  <Type>
NON-POLYMER

>  <Formula>
C15 H11 N7 O

>  <MolecularWeight>
305.294

>  <ModifiedDate>
2012-03-23

>  <Parent>


>  <OneLetterCode>


>  <SubcomponentList>


>  <AmbiguousFlag>
N

>  <InChI>
InChI=1S/C15H11N7O/c23-15(11-5-2-6-12-13(11)17-8-16-12)18-10-4-1-3-9(7-10)14-19-21-22-20-14/h1-8H,(H,16,17)(H,18,23)(H,19,20,21,22)

>  <InChIKey>
OUXPKPPPOPWHCW-UHFFFAOYSA-N

>  <SMILES>
c1cc(cc(c1)NC(=O)c2cccc3c2[nH]cn3)c4[nH]nnn4

$$$$
