4DE0_0JB_A_300


 26 29  0  0  0  0  0  0  0  0999 V2000
   -2.0120   53.2403   13.3480 O   0  0  0  0  0  0  0  0  0  0  0  0
   -2.3753   52.7543   12.2728 C   0  0  0  0  0  0  0  0  0  0  0  0
   -3.6476   52.5343   11.9567 N   0  0  0  0  0  0  0  0  0  0  0  0
   -3.8266   52.1567   11.0653 H   0  0  0  0  0  0  0  0  0  0  0  0
   -1.3559   52.3379   11.2687 C   0  0  0  0  0  0  0  0  0  0  0  0
   -1.0326   50.9976   11.0611 C   0  0  0  0  0  0  0  0  0  0  0  0
   -1.5247   49.8116   11.5654 N   0  0  0  0  0  0  0  0  0  0  0  0
   -0.8301   48.8231   10.9816 C   0  0  0  0  0  0  0  0  0  0  0  0
    0.0316   49.3162   10.0637 N   0  0  0  0  0  0  0  0  0  0  0  0
   -0.0378   50.6745   10.1067 C   0  0  0  0  0  0  0  0  0  0  0  0
    0.6411   51.6751    9.4078 C   0  0  0  0  0  0  0  0  0  0  0  0
    0.2949   53.0026    9.6587 C   0  0  0  0  0  0  0  0  0  0  0  0
   -0.6759   53.3178   10.5774 C   0  0  0  0  0  0  0  0  0  0  0  0
   -2.2469   49.7099   12.2267 H   0  0  0  0  0  0  0  0  0  0  0  0
   -4.7650   52.7906   12.7779 C   0  0  0  0  0  0  0  0  0  0  0  0
   -5.6821   53.7589   12.3611 C   0  0  0  0  0  0  0  0  0  0  0  0
   -4.9536   52.1216   14.0004 C   0  0  0  0  0  0  0  0  0  0  0  0
   -6.1043   52.4040   14.7315 C   0  0  0  0  0  0  0  0  0  0  0  0
   -7.0537   53.3269   14.3300 C   0  0  0  0  0  0  0  0  0  0  0  0
   -6.8198   53.9950   13.1269 C   0  0  0  0  0  0  0  0  0  0  0  0
   -7.7761   55.0029   12.6606 C   0  0  0  0  0  0  0  0  0  0  0  0
   -7.6673   55.6741   11.5234 N   0  0  0  0  0  0  0  0  0  0  0  0
   -8.7384   56.4938   11.4070 N   0  0  0  0  0  0  0  0  0  0  0  0
   -9.5097   56.3558   12.5131 N   0  0  0  0  0  0  0  0  0  0  0  0
   -8.9030   55.3726   13.2936 N   0  0  0  0  0  0  0  0  0  0  0  0
   -6.9324   55.5908   10.8735 H   0  0  0  0  0  0  0  0  0  0  0  0
  9  8  2  0  0  0
  9 10  1  0  0  0
  8  7  1  0  0  0
 10 11  2  0  0  0
 10  6  1  0  0  0
  7  6  1  0  0  0
 11 12  1  0  0  0
  6  5  2  0  0  0
 12 13  2  0  0  0
  5 13  1  0  0  0
  5  2  1  0  0  0
 25 24  1  0  0  0
 25 21  2  0  0  0
 24 23  2  0  0  0
  3  2  1  0  0  0
  3 15  1  0  0  0
 16 15  2  0  0  0
 16 20  1  0  0  0
  2  1  2  0  0  0
 21 20  1  0  0  0
 21 22  1  0  0  0
 15 17  1  0  0  0
 23 22  1  0  0  0
 20 19  2  0  0  0
 17 18  2  0  0  0
 19 18  1  0  0  0
  7 14  1  0  0  0
  3  4  1  0  0  0
 22 26  1  0  0  0
M  END
> <minimizedAffinity>
-8.90631

$$$$
4DE0_0JB_A_300


 26 29  0  0  0  0  0  0  0  0999 V2000
   -8.9683   55.5928   13.3112 O   0  0  0  0  0  0  0  0  0  0  0  0
   -8.8534   55.1260   12.1740 C   0  0  0  0  0  0  0  0  0  0  0  0
   -7.9528   54.2059   11.8433 N   0  0  0  0  0  0  0  0  0  0  0  0
   -7.9586   53.8914   10.9104 H   0  0  0  0  0  0  0  0  0  0  0  0
   -9.7258   55.6316   11.0767 C   0  0  0  0  0  0  0  0  0  0  0  0
  -10.6768   56.6280   11.2930 C   0  0  0  0  0  0  0  0  0  0  0  0
  -11.0095   57.4043   12.3839 N   0  0  0  0  0  0  0  0  0  0  0  0
  -12.0039   58.2165   11.9941 C   0  0  0  0  0  0  0  0  0  0  0  0
  -12.2713   58.0544   10.6787 N   0  0  0  0  0  0  0  0  0  0  0  0
  -11.4879   57.0453   10.2100 C   0  0  0  0  0  0  0  0  0  0  0  0
  -11.3721   56.4488    8.9525 C   0  0  0  0  0  0  0  0  0  0  0  0
  -10.4174   55.4458    8.7863 C   0  0  0  0  0  0  0  0  0  0  0  0
   -9.6235   55.0459    9.8331 C   0  0  0  0  0  0  0  0  0  0  0  0
  -10.5965   57.3692   13.2769 H   0  0  0  0  0  0  0  0  0  0  0  0
   -6.9899   53.6377   12.7028 C   0  0  0  0  0  0  0  0  0  0  0  0
   -5.6576   53.6213   12.2823 C   0  0  0  0  0  0  0  0  0  0  0  0
   -7.3451   53.0719   13.9403 C   0  0  0  0  0  0  0  0  0  0  0  0
   -6.3280   52.5683   14.7468 C   0  0  0  0  0  0  0  0  0  0  0  0
   -4.9938   52.5718   14.3804 C   0  0  0  0  0  0  0  0  0  0  0  0
   -4.6802   53.1132   13.1326 C   0  0  0  0  0  0  0  0  0  0  0  0
   -3.2875   53.1224   12.6767 C   0  0  0  0  0  0  0  0  0  0  0  0
   -2.2410   53.3417   13.4594 N   0  0  0  0  0  0  0  0  0  0  0  0
   -1.1186   53.2467   12.7084 N   0  0  0  0  0  0  0  0  0  0  0  0
   -1.4777   52.9999   11.4248 N   0  0  0  0  0  0  0  0  0  0  0  0
   -2.8674   52.8871   11.4216 N   0  0  0  0  0  0  0  0  0  0  0  0
   -2.2740   53.5399   14.4231 H   0  0  0  0  0  0  0  0  0  0  0  0
  9  8  2  0  0  0
  9 10  1  0  0  0
  8  7  1  0  0  0
 10 11  2  0  0  0
 10  6  1  0  0  0
  7  6  1  0  0  0
 11 12  1  0  0  0
  6  5  2  0  0  0
 12 13  2  0  0  0
  5 13  1  0  0  0
  5  2  1  0  0  0
 25 24  1  0  0  0
 25 21  2  0  0  0
 24 23  2  0  0  0
  3  2  1  0  0  0
  3 15  1  0  0  0
 16 15  2  0  0  0
 16 20  1  0  0  0
  2  1  2  0  0  0
 21 20  1  0  0  0
 21 22  1  0  0  0
 15 17  1  0  0  0
 23 22  1  0  0  0
 20 19  2  0  0  0
 17 18  2  0  0  0
 19 18  1  0  0  0
  7 14  1  0  0  0
  3  4  1  0  0  0
 22 26  1  0  0  0
M  END
> <minimizedAffinity>
-8.12153

$$$$
4DE0_0JB_A_300


 26 29  0  0  0  0  0  0  0  0999 V2000
   -7.7723   55.9401   11.2669 O   0  0  0  0  0  0  0  0  0  0  0  0
   -7.9175   54.9645   10.5244 C   0  0  0  0  0  0  0  0  0  0  0  0
   -7.5569   53.7282   10.8541 N   0  0  0  0  0  0  0  0  0  0  0  0
   -7.7327   53.0210   10.1921 H   0  0  0  0  0  0  0  0  0  0  0  0
   -8.4833   55.1536    9.1588 C   0  0  0  0  0  0  0  0  0  0  0  0
   -7.6710   55.2045    8.0267 C   0  0  0  0  0  0  0  0  0  0  0  0
   -6.3172   55.0384    7.8194 N   0  0  0  0  0  0  0  0  0  0  0  0
   -6.1051   55.1833    6.5024 C   0  0  0  0  0  0  0  0  0  0  0  0
   -7.2724   55.3545    5.8420 N   0  0  0  0  0  0  0  0  0  0  0  0
   -8.2736   55.4094    6.7618 C   0  0  0  0  0  0  0  0  0  0  0  0
   -9.6525   55.5970    6.6436 C   0  0  0  0  0  0  0  0  0  0  0  0
  -10.4238   55.5529    7.8047 C   0  0  0  0  0  0  0  0  0  0  0  0
   -9.8424   55.3453    9.0314 C   0  0  0  0  0  0  0  0  0  0  0  0
   -5.6373   54.8497    8.5060 H   0  0  0  0  0  0  0  0  0  0  0  0
   -6.9464   53.3342   12.0627 C   0  0  0  0  0  0  0  0  0  0  0  0
   -5.5604   53.1578   12.0751 C   0  0  0  0  0  0  0  0  0  0  0  0
   -7.6978   53.0923   13.2265 C   0  0  0  0  0  0  0  0  0  0  0  0
   -7.0133   52.7460   14.3884 C   0  0  0  0  0  0  0  0  0  0  0  0
   -5.6386   52.6015   14.4476 C   0  0  0  0  0  0  0  0  0  0  0  0
   -4.9266   52.8191   13.2668 C   0  0  0  0  0  0  0  0  0  0  0  0
   -3.4702   52.6565   13.2591 C   0  0  0  0  0  0  0  0  0  0  0  0
   -2.6038   53.6218   13.5295 N   0  0  0  0  0  0  0  0  0  0  0  0
   -1.3539   53.1069   13.4561 N   0  0  0  0  0  0  0  0  0  0  0  0
   -1.4446   51.8032   13.0962 N   0  0  0  0  0  0  0  0  0  0  0  0
   -2.8059   51.5153   13.0069 N   0  0  0  0  0  0  0  0  0  0  0  0
   -2.8305   54.5549   13.7469 H   0  0  0  0  0  0  0  0  0  0  0  0
  9  8  2  0  0  0
  9 10  1  0  0  0
  8  7  1  0  0  0
 10 11  2  0  0  0
 10  6  1  0  0  0
  7  6  1  0  0  0
 11 12  1  0  0  0
  6  5  2  0  0  0
 12 13  2  0  0  0
  5 13  1  0  0  0
  5  2  1  0  0  0
 25 24  1  0  0  0
 25 21  2  0  0  0
 24 23  2  0  0  0
  3  2  1  0  0  0
  3 15  1  0  0  0
 16 15  2  0  0  0
 16 20  1  0  0  0
  2  1  2  0  0  0
 21 20  1  0  0  0
 21 22  1  0  0  0
 15 17  1  0  0  0
 23 22  1  0  0  0
 20 19  2  0  0  0
 17 18  2  0  0  0
 19 18  1  0  0  0
  7 14  1  0  0  0
  3  4  1  0  0  0
 22 26  1  0  0  0
M  END
> <minimizedAffinity>
-7.83283

$$$$
4DE0_0JB_A_300


 26 29  0  0  0  0  0  0  0  0999 V2000
   -2.3069   53.0950   13.1888 O   0  0  0  0  0  0  0  0  0  0  0  0
   -2.6660   52.2490   12.3645 C   0  0  0  0  0  0  0  0  0  0  0  0
   -3.9372   51.9279   12.1451 N   0  0  0  0  0  0  0  0  0  0  0  0
   -4.1127   51.2502   11.4529 H   0  0  0  0  0  0  0  0  0  0  0  0
   -1.6427   51.4945   11.5871 C   0  0  0  0  0  0  0  0  0  0  0  0
   -0.7588   52.1347   10.7194 C   0  0  0  0  0  0  0  0  0  0  0  0
   -0.5202   53.4580   10.4106 N   0  0  0  0  0  0  0  0  0  0  0  0
    0.4733   53.4736    9.5090 C   0  0  0  0  0  0  0  0  0  0  0  0
    0.9401   52.2248    9.2841 N   0  0  0  0  0  0  0  0  0  0  0  0
    0.1736   51.3534    9.9946 C   0  0  0  0  0  0  0  0  0  0  0  0
    0.1904   49.9618   10.1103 C   0  0  0  0  0  0  0  0  0  0  0  0
   -0.7220   49.3634   10.9791 C   0  0  0  0  0  0  0  0  0  0  0  0
   -1.6211   50.1201   11.6898 C   0  0  0  0  0  0  0  0  0  0  0  0
   -0.9890   54.2406   10.7808 H   0  0  0  0  0  0  0  0  0  0  0  0
   -5.0579   52.4665   12.8103 C   0  0  0  0  0  0  0  0  0  0  0  0
   -5.8862   53.3429   12.1045 C   0  0  0  0  0  0  0  0  0  0  0  0
   -5.3350   52.1649   14.1556 C   0  0  0  0  0  0  0  0  0  0  0  0
   -6.4841   52.7064   14.7255 C   0  0  0  0  0  0  0  0  0  0  0  0
   -7.3485   53.5454   14.0449 C   0  0  0  0  0  0  0  0  0  0  0  0
   -7.0269   53.8483   12.7208 C   0  0  0  0  0  0  0  0  0  0  0  0
   -7.8897   54.7520   11.9548 C   0  0  0  0  0  0  0  0  0  0  0  0
   -7.5149   55.9338   11.4872 N   0  0  0  0  0  0  0  0  0  0  0  0
   -8.5543   56.4739   10.8086 N   0  0  0  0  0  0  0  0  0  0  0  0
   -9.6089   55.6260   10.8879 N   0  0  0  0  0  0  0  0  0  0  0  0
   -9.1619   54.5100   11.5942 N   0  0  0  0  0  0  0  0  0  0  0  0
   -6.6308   56.3486   11.6122 H   0  0  0  0  0  0  0  0  0  0  0  0
  9  8  2  0  0  0
  9 10  1  0  0  0
  8  7  1  0  0  0
 10 11  2  0  0  0
 10  6  1  0  0  0
  7  6  1  0  0  0
 11 12  1  0  0  0
  6  5  2  0  0  0
 12 13  2  0  0  0
  5 13  1  0  0  0
  5  2  1  0  0  0
 25 24  1  0  0  0
 25 21  2  0  0  0
 24 23  2  0  0  0
  3  2  1  0  0  0
  3 15  1  0  0  0
 16 15  2  0  0  0
 16 20  1  0  0  0
  2  1  2  0  0  0
 21 20  1  0  0  0
 21 22  1  0  0  0
 15 17  1  0  0  0
 23 22  1  0  0  0
 20 19  2  0  0  0
 17 18  2  0  0  0
 19 18  1  0  0  0
  7 14  1  0  0  0
  3  4  1  0  0  0
 22 26  1  0  0  0
M  END
> <minimizedAffinity>
-7.69856

$$$$
4DE0_0JB_A_300


 26 29  0  0  0  0  0  0  0  0999 V2000
   -3.0598   52.2751   10.8847 O   0  0  0  0  0  0  0  0  0  0  0  0
   -3.8645   51.4177   10.5086 C   0  0  0  0  0  0  0  0  0  0  0  0
   -5.0439   51.2113   11.0861 N   0  0  0  0  0  0  0  0  0  0  0  0
   -5.6153   50.5112   10.6953 H   0  0  0  0  0  0  0  0  0  0  0  0
   -3.5082   50.5166    9.3765 C   0  0  0  0  0  0  0  0  0  0  0  0
   -2.7435   50.9583    8.2975 C   0  0  0  0  0  0  0  0  0  0  0  0
   -2.1003   52.1445    8.0101 N   0  0  0  0  0  0  0  0  0  0  0  0
   -1.4995   51.9826    6.8213 C   0  0  0  0  0  0  0  0  0  0  0  0
   -1.6594   50.7188    6.3683 N   0  0  0  0  0  0  0  0  0  0  0  0
   -2.4611   50.0547    7.2445 C   0  0  0  0  0  0  0  0  0  0  0  0
   -2.9674   48.7531    7.2580 C   0  0  0  0  0  0  0  0  0  0  0  0
   -3.7398   48.3596    8.3505 C   0  0  0  0  0  0  0  0  0  0  0  0
   -4.0073   49.2316    9.3771 C   0  0  0  0  0  0  0  0  0  0  0  0
   -2.0850   52.9542    8.5698 H   0  0  0  0  0  0  0  0  0  0  0  0
   -5.5539   51.9004   12.2058 C   0  0  0  0  0  0  0  0  0  0  0  0
   -6.5550   52.8522   11.9953 C   0  0  0  0  0  0  0  0  0  0  0  0
   -5.0612   51.6712   13.5028 C   0  0  0  0  0  0  0  0  0  0  0  0
   -5.6474   52.3642   14.5586 C   0  0  0  0  0  0  0  0  0  0  0  0
   -6.6675   53.2840   14.3922 C   0  0  0  0  0  0  0  0  0  0  0  0
   -7.1115   53.5096   13.0882 C   0  0  0  0  0  0  0  0  0  0  0  0
   -8.1722   54.4911   12.8442 C   0  0  0  0  0  0  0  0  0  0  0  0
   -8.8295   54.6200   11.7010 N   0  0  0  0  0  0  0  0  0  0  0  0
   -9.7512   55.6009   11.8465 N   0  0  0  0  0  0  0  0  0  0  0  0
   -9.6387   56.1172   13.0948 N   0  0  0  0  0  0  0  0  0  0  0  0
   -8.6483   55.3757   13.7375 N   0  0  0  0  0  0  0  0  0  0  0  0
   -8.6741   54.0922   10.8846 H   0  0  0  0  0  0  0  0  0  0  0  0
  9  8  2  0  0  0
  9 10  1  0  0  0
  8  7  1  0  0  0
 10 11  2  0  0  0
 10  6  1  0  0  0
  7  6  1  0  0  0
 11 12  1  0  0  0
  6  5  2  0  0  0
 12 13  2  0  0  0
  5 13  1  0  0  0
  5  2  1  0  0  0
 25 24  1  0  0  0
 25 21  2  0  0  0
 24 23  2  0  0  0
  3  2  1  0  0  0
  3 15  1  0  0  0
 16 15  2  0  0  0
 16 20  1  0  0  0
  2  1  2  0  0  0
 21 20  1  0  0  0
 21 22  1  0  0  0
 15 17  1  0  0  0
 23 22  1  0  0  0
 20 19  2  0  0  0
 17 18  2  0  0  0
 19 18  1  0  0  0
  7 14  1  0  0  0
  3  4  1  0  0  0
 22 26  1  0  0  0
M  END
> <minimizedAffinity>
-7.60790

$$$$
4DE0_0JB_A_300


 26 29  0  0  0  0  0  0  0  0999 V2000
   -5.1919   50.5127   10.5622 O   0  0  0  0  0  0  0  0  0  0  0  0
   -4.3510   51.4082   10.4396 C   0  0  0  0  0  0  0  0  0  0  0  0
   -4.2768   52.4636   11.2444 N   0  0  0  0  0  0  0  0  0  0  0  0
   -3.5567   53.1107   11.0657 H   0  0  0  0  0  0  0  0  0  0  0  0
   -3.3786   51.3586    9.3115 C   0  0  0  0  0  0  0  0  0  0  0  0
   -2.0011   51.3763    9.5264 C   0  0  0  0  0  0  0  0  0  0  0  0
   -1.2153   51.3601   10.6602 N   0  0  0  0  0  0  0  0  0  0  0  0
    0.0616   51.3717   10.2483 C   0  0  0  0  0  0  0  0  0  0  0  0
    0.1336   51.3126    8.8994 N   0  0  0  0  0  0  0  0  0  0  0  0
   -1.1343   51.3497    8.4070 C   0  0  0  0  0  0  0  0  0  0  0  0
   -1.6401   51.3448    7.1052 C   0  0  0  0  0  0  0  0  0  0  0  0
   -3.0247   51.3425    6.9380 C   0  0  0  0  0  0  0  0  0  0  0  0
   -3.8671   51.3592    8.0224 C   0  0  0  0  0  0  0  0  0  0  0  0
   -1.5309   51.3432   11.5927 H   0  0  0  0  0  0  0  0  0  0  0  0
   -5.1323   52.7438   12.3298 C   0  0  0  0  0  0  0  0  0  0  0  0
   -6.1952   53.6266   12.1217 C   0  0  0  0  0  0  0  0  0  0  0  0
   -4.9211   52.1830   13.6020 C   0  0  0  0  0  0  0  0  0  0  0  0
   -5.8358   52.4793   14.6090 C   0  0  0  0  0  0  0  0  0  0  0  0
   -6.9221   53.3169   14.4282 C   0  0  0  0  0  0  0  0  0  0  0  0
   -7.0844   53.8806   13.1616 C   0  0  0  0  0  0  0  0  0  0  0  0
   -8.2014   54.7965   12.9145 C   0  0  0  0  0  0  0  0  0  0  0  0
   -8.7088   55.0590   11.7189 N   0  0  0  0  0  0  0  0  0  0  0  0
   -9.7413   55.9209   11.8730 N   0  0  0  0  0  0  0  0  0  0  0  0
   -9.8539   56.2290   13.1883 N   0  0  0  0  0  0  0  0  0  0  0  0
   -8.8854   55.4762   13.8511 N   0  0  0  0  0  0  0  0  0  0  0  0
   -8.3893   54.6900   10.8640 H   0  0  0  0  0  0  0  0  0  0  0  0
  9  8  2  0  0  0
  9 10  1  0  0  0
  8  7  1  0  0  0
 10 11  2  0  0  0
 10  6  1  0  0  0
  7  6  1  0  0  0
 11 12  1  0  0  0
  6  5  2  0  0  0
 12 13  2  0  0  0
  5 13  1  0  0  0
  5  2  1  0  0  0
 25 24  1  0  0  0
 25 21  2  0  0  0
 24 23  2  0  0  0
  3  2  1  0  0  0
  3 15  1  0  0  0
 16 15  2  0  0  0
 16 20  1  0  0  0
  2  1  2  0  0  0
 21 20  1  0  0  0
 21 22  1  0  0  0
 15 17  1  0  0  0
 23 22  1  0  0  0
 20 19  2  0  0  0
 17 18  2  0  0  0
 19 18  1  0  0  0
  7 14  1  0  0  0
  3  4  1  0  0  0
 22 26  1  0  0  0
M  END
> <minimizedAffinity>
-7.57709

$$$$
4DE0_0JB_A_300


 26 29  0  0  0  0  0  0  0  0999 V2000
   -9.6719   55.9927   12.2268 O   0  0  0  0  0  0  0  0  0  0  0  0
  -10.1164   55.5631   11.1581 C   0  0  0  0  0  0  0  0  0  0  0  0
   -9.7483   54.4046   10.6201 N   0  0  0  0  0  0  0  0  0  0  0  0
  -10.1778   54.1507    9.7714 H   0  0  0  0  0  0  0  0  0  0  0  0
  -11.0869   56.3829   10.3793 C   0  0  0  0  0  0  0  0  0  0  0  0
  -11.4450   57.6712   10.7743 C   0  0  0  0  0  0  0  0  0  0  0  0
  -11.0275   58.5045   11.7915 N   0  0  0  0  0  0  0  0  0  0  0  0
  -11.7203   59.6469   11.6670 C   0  0  0  0  0  0  0  0  0  0  0  0
  -12.5060   59.6169   10.5671 N   0  0  0  0  0  0  0  0  0  0  0  0
  -12.3906   58.3857    9.9994 C   0  0  0  0  0  0  0  0  0  0  0  0
  -12.9892   57.8048    8.8792 C   0  0  0  0  0  0  0  0  0  0  0  0
  -12.6114   56.5085    8.5301 C   0  0  0  0  0  0  0  0  0  0  0  0
  -11.6877   55.8172    9.2751 C   0  0  0  0  0  0  0  0  0  0  0  0
  -10.3512   58.3002   12.4771 H   0  0  0  0  0  0  0  0  0  0  0  0
   -8.8006   53.5050   11.1505 C   0  0  0  0  0  0  0  0  0  0  0  0
   -7.5220   53.9882   11.4404 C   0  0  0  0  0  0  0  0  0  0  0  0
   -9.1058   52.1485   11.3617 C   0  0  0  0  0  0  0  0  0  0  0  0
   -8.1260   51.3366   11.9267 C   0  0  0  0  0  0  0  0  0  0  0  0
   -6.8629   51.7899   12.2635 C   0  0  0  0  0  0  0  0  0  0  0  0
   -6.5837   53.1342   12.0121 C   0  0  0  0  0  0  0  0  0  0  0  0
   -5.2549   53.6682   12.3234 C   0  0  0  0  0  0  0  0  0  0  0  0
   -5.0323   54.7762   13.0150 N   0  0  0  0  0  0  0  0  0  0  0  0
   -3.6942   54.9453   13.1318 N   0  0  0  0  0  0  0  0  0  0  0  0
   -3.0725   53.9409   12.4668 N   0  0  0  0  0  0  0  0  0  0  0  0
   -4.0810   53.1088   11.9825 N   0  0  0  0  0  0  0  0  0  0  0  0
   -5.7226   55.3748   13.3817 H   0  0  0  0  0  0  0  0  0  0  0  0
  9  8  2  0  0  0
  9 10  1  0  0  0
  8  7  1  0  0  0
 10 11  2  0  0  0
 10  6  1  0  0  0
  7  6  1  0  0  0
 11 12  1  0  0  0
  6  5  2  0  0  0
 12 13  2  0  0  0
  5 13  1  0  0  0
  5  2  1  0  0  0
 25 24  1  0  0  0
 25 21  2  0  0  0
 24 23  2  0  0  0
  3  2  1  0  0  0
  3 15  1  0  0  0
 16 15  2  0  0  0
 16 20  1  0  0  0
  2  1  2  0  0  0
 21 20  1  0  0  0
 21 22  1  0  0  0
 15 17  1  0  0  0
 23 22  1  0  0  0
 20 19  2  0  0  0
 17 18  2  0  0  0
 19 18  1  0  0  0
  7 14  1  0  0  0
  3  4  1  0  0  0
 22 26  1  0  0  0
M  END
> <minimizedAffinity>
-7.50298

$$$$
4DE0_0JB_A_300


 26 29  0  0  0  0  0  0  0  0999 V2000
   -9.6445   55.5985    9.2171 O   0  0  0  0  0  0  0  0  0  0  0  0
  -10.0027   56.0358   10.3147 C   0  0  0  0  0  0  0  0  0  0  0  0
   -9.6158   55.5169   11.4758 N   0  0  0  0  0  0  0  0  0  0  0  0
   -9.9493   55.9538   12.2926 H   0  0  0  0  0  0  0  0  0  0  0  0
  -10.9567   57.1788   10.3786 C   0  0  0  0  0  0  0  0  0  0  0  0
  -11.9588   57.3546    9.4252 C   0  0  0  0  0  0  0  0  0  0  0  0
  -12.3829   56.6112    8.3431 N   0  0  0  0  0  0  0  0  0  0  0  0
  -13.4139   57.2736    7.7967 C   0  0  0  0  0  0  0  0  0  0  0  0
  -13.7248   58.3686    8.5265 N   0  0  0  0  0  0  0  0  0  0  0  0
  -12.8167   58.4759    9.5341 C   0  0  0  0  0  0  0  0  0  0  0  0
  -12.6462   59.4161   10.5526 C   0  0  0  0  0  0  0  0  0  0  0  0
  -11.6213   59.2073   11.4752 C   0  0  0  0  0  0  0  0  0  0  0  0
  -10.7939   58.1156   11.3766 C   0  0  0  0  0  0  0  0  0  0  0  0
  -12.0021   55.7584    8.0317 H   0  0  0  0  0  0  0  0  0  0  0  0
   -8.7728   54.3996   11.6479 C   0  0  0  0  0  0  0  0  0  0  0  0
   -7.4121   54.6274   11.8691 C   0  0  0  0  0  0  0  0  0  0  0  0
   -9.2639   53.0840   11.5735 C   0  0  0  0  0  0  0  0  0  0  0  0
   -8.3721   52.0380   11.7953 C   0  0  0  0  0  0  0  0  0  0  0  0
   -7.0267   52.2272   12.0567 C   0  0  0  0  0  0  0  0  0  0  0  0
   -6.5670   53.5447   12.0931 C   0  0  0  0  0  0  0  0  0  0  0  0
   -5.1469   53.8094   12.3401 C   0  0  0  0  0  0  0  0  0  0  0  0
   -4.6854   54.7980   13.0919 N   0  0  0  0  0  0  0  0  0  0  0  0
   -3.3341   54.7199   13.1180 N   0  0  0  0  0  0  0  0  0  0  0  0
   -2.9465   53.6829   12.3357 N   0  0  0  0  0  0  0  0  0  0  0  0
   -4.1167   53.0846   11.8703 N   0  0  0  0  0  0  0  0  0  0  0  0
   -5.2322   55.4744   13.5531 H   0  0  0  0  0  0  0  0  0  0  0  0
  9  8  2  0  0  0
  9 10  1  0  0  0
  8  7  1  0  0  0
 10 11  2  0  0  0
 10  6  1  0  0  0
  7  6  1  0  0  0
 11 12  1  0  0  0
  6  5  2  0  0  0
 12 13  2  0  0  0
  5 13  1  0  0  0
  5  2  1  0  0  0
 25 24  1  0  0  0
 25 21  2  0  0  0
 24 23  2  0  0  0
  3  2  1  0  0  0
  3 15  1  0  0  0
 16 15  2  0  0  0
 16 20  1  0  0  0
  2  1  2  0  0  0
 21 20  1  0  0  0
 21 22  1  0  0  0
 15 17  1  0  0  0
 23 22  1  0  0  0
 20 19  2  0  0  0
 17 18  2  0  0  0
 19 18  1  0  0  0
  7 14  1  0  0  0
  3  4  1  0  0  0
 22 26  1  0  0  0
M  END
> <minimizedAffinity>
-7.40624

$$$$
4DE0_0JB_A_300


 26 29  0  0  0  0  0  0  0  0999 V2000
   -7.8889   54.3091    9.6531 O   0  0  0  0  0  0  0  0  0  0  0  0
   -8.4243   54.4871   10.7512 C   0  0  0  0  0  0  0  0  0  0  0  0
   -8.1077   53.8007   11.8446 N   0  0  0  0  0  0  0  0  0  0  0  0
   -8.5867   54.0348   12.6722 H   0  0  0  0  0  0  0  0  0  0  0  0
   -9.5213   55.4869   10.8843 C   0  0  0  0  0  0  0  0  0  0  0  0
  -10.4154   55.7407    9.8449 C   0  0  0  0  0  0  0  0  0  0  0  0
  -10.6041   55.1856    8.5961 N   0  0  0  0  0  0  0  0  0  0  0  0
  -11.6399   55.8297    8.0371 C   0  0  0  0  0  0  0  0  0  0  0  0
  -12.1780   56.7192    8.9016 N   0  0  0  0  0  0  0  0  0  0  0  0
  -11.4203   56.7206   10.0318 C   0  0  0  0  0  0  0  0  0  0  0  0
  -11.4993   57.4533   11.2182 C   0  0  0  0  0  0  0  0  0  0  0  0
  -10.5746   57.1759   12.2248 C   0  0  0  0  0  0  0  0  0  0  0  0
   -9.6049   56.2195   12.0490 C   0  0  0  0  0  0  0  0  0  0  0  0
  -10.0796   54.4567    8.1926 H   0  0  0  0  0  0  0  0  0  0  0  0
   -7.1503   52.7689   11.9309 C   0  0  0  0  0  0  0  0  0  0  0  0
   -5.8545   53.1028   12.3330 C   0  0  0  0  0  0  0  0  0  0  0  0
   -7.4639   51.4391   11.5977 C   0  0  0  0  0  0  0  0  0  0  0  0
   -6.4719   50.4740   11.7493 C   0  0  0  0  0  0  0  0  0  0  0  0
   -5.1900   50.7618   12.1832 C   0  0  0  0  0  0  0  0  0  0  0  0
   -4.9041   52.0963   12.4759 C   0  0  0  0  0  0  0  0  0  0  0  0
   -3.5566   52.4685   12.9156 C   0  0  0  0  0  0  0  0  0  0  0  0
   -3.2438   53.6212   13.4893 N   0  0  0  0  0  0  0  0  0  0  0  0
   -1.9229   53.6066   13.7851 N   0  0  0  0  0  0  0  0  0  0  0  0
   -1.3965   52.4347   13.3524 N   0  0  0  0  0  0  0  0  0  0  0  0
   -2.4583   51.6982   12.8287 N   0  0  0  0  0  0  0  0  0  0  0  0
   -3.8663   54.3623   13.6697 H   0  0  0  0  0  0  0  0  0  0  0  0
  9  8  2  0  0  0
  9 10  1  0  0  0
  8  7  1  0  0  0
 10 11  2  0  0  0
 10  6  1  0  0  0
  7  6  1  0  0  0
 11 12  1  0  0  0
  6  5  2  0  0  0
 12 13  2  0  0  0
  5 13  1  0  0  0
  5  2  1  0  0  0
 25 24  1  0  0  0
 25 21  2  0  0  0
 24 23  2  0  0  0
  3  2  1  0  0  0
  3 15  1  0  0  0
 16 15  2  0  0  0
 16 20  1  0  0  0
  2  1  2  0  0  0
 21 20  1  0  0  0
 21 22  1  0  0  0
 15 17  1  0  0  0
 23 22  1  0  0  0
 20 19  2  0  0  0
 17 18  2  0  0  0
 19 18  1  0  0  0
  7 14  1  0  0  0
  3  4  1  0  0  0
 22 26  1  0  0  0
M  END
> <minimizedAffinity>
-7.38325

$$$$
4DE0_0JB_A_300


 26 29  0  0  0  0  0  0  0  0999 V2000
   -8.8698   55.4955   13.4048 O   0  0  0  0  0  0  0  0  0  0  0  0
   -8.7722   54.8805   12.3388 C   0  0  0  0  0  0  0  0  0  0  0  0
   -9.2607   55.3249   11.1851 N   0  0  0  0  0  0  0  0  0  0  0  0
   -9.1130   54.7610   10.3917 H   0  0  0  0  0  0  0  0  0  0  0  0
   -8.1167   53.5424   12.3156 C   0  0  0  0  0  0  0  0  0  0  0  0
   -7.0009   53.2564   13.1011 C   0  0  0  0  0  0  0  0  0  0  0  0
   -6.3056   53.9646   14.0594 N   0  0  0  0  0  0  0  0  0  0  0  0
   -5.3192   53.1655   14.4938 C   0  0  0  0  0  0  0  0  0  0  0  0
   -5.3977   51.9452   13.9168 N   0  0  0  0  0  0  0  0  0  0  0  0
   -6.4142   51.9706   13.0126 C   0  0  0  0  0  0  0  0  0  0  0  0
   -6.9132   51.0113   12.1288 C   0  0  0  0  0  0  0  0  0  0  0  0
   -8.0218   51.3467   11.3519 C   0  0  0  0  0  0  0  0  0  0  0  0
   -8.5978   52.5901   11.4428 C   0  0  0  0  0  0  0  0  0  0  0  0
   -6.4966   54.8806   14.3657 H   0  0  0  0  0  0  0  0  0  0  0  0
   -9.9706   56.5277   10.9905 C   0  0  0  0  0  0  0  0  0  0  0  0
  -11.2185   56.6643   11.6039 C   0  0  0  0  0  0  0  0  0  0  0  0
   -9.4664   57.5615   10.1814 C   0  0  0  0  0  0  0  0  0  0  0  0
  -10.2115   58.7328   10.0743 C   0  0  0  0  0  0  0  0  0  0  0  0
  -11.4317   58.9185   10.6997 C   0  0  0  0  0  0  0  0  0  0  0  0
  -11.9169   57.8606   11.4703 C   0  0  0  0  0  0  0  0  0  0  0  0
  -13.2158   57.9867   12.1370 C   0  0  0  0  0  0  0  0  0  0  0  0
  -13.5870   59.0251   12.8715 N   0  0  0  0  0  0  0  0  0  0  0  0
  -14.8524   58.8127   13.3030 N   0  0  0  0  0  0  0  0  0  0  0  0
  -15.2625   57.5999   12.8576 N   0  0  0  0  0  0  0  0  0  0  0  0
  -14.2198   57.0943   12.0823 N   0  0  0  0  0  0  0  0  0  0  0  0
  -13.0361   59.8166   13.0698 H   0  0  0  0  0  0  0  0  0  0  0  0
  9  8  2  0  0  0
  9 10  1  0  0  0
  8  7  1  0  0  0
 10 11  2  0  0  0
 10  6  1  0  0  0
  7  6  1  0  0  0
 11 12  1  0  0  0
  6  5  2  0  0  0
 12 13  2  0  0  0
  5 13  1  0  0  0
  5  2  1  0  0  0
 25 24  1  0  0  0
 25 21  2  0  0  0
 24 23  2  0  0  0
  3  2  1  0  0  0
  3 15  1  0  0  0
 16 15  2  0  0  0
 16 20  1  0  0  0
  2  1  2  0  0  0
 21 20  1  0  0  0
 21 22  1  0  0  0
 15 17  1  0  0  0
 23 22  1  0  0  0
 20 19  2  0  0  0
 17 18  2  0  0  0
 19 18  1  0  0  0
  7 14  1  0  0  0
  3  4  1  0  0  0
 22 26  1  0  0  0
M  END
> <minimizedAffinity>
-7.23918

$$$$
