1D4H_BEH_B_501


 50 54  0  0  0  0  0  0  0  0999 V2000
   13.7147   22.9642    5.1621 C   0  0  0  0  0  0  0  0  0  0  0  0
   14.0524   22.5905    3.7891 O   0  0  0  0  0  0  0  0  0  0  0  0
   14.7697   23.1583    3.4667 H   0  0  0  0  0  0  0  0  0  0  0  0
   13.2114   24.3849    5.1782 C   0  0  0  0  0  0  0  0  0  0  0  0
   14.2384   25.1949    4.5421 O   0  0  0  0  0  0  0  0  0  0  0  0
   14.3662   24.8958    3.6282 H   0  0  0  0  0  0  0  0  0  0  0  0
   11.8618   24.5761    4.4831 C   0  0  0  0  0  0  0  0  0  0  0  0
   10.7874   24.5785    5.5540 C   0  0  0  0  0  0  0  0  0  0  0  0
   10.5892   23.5895    6.2766 O   0  0  0  0  0  0  0  0  0  0  0  0
    9.9821   25.6900    5.6716 N   0  0  0  0  0  0  0  0  0  0  0  0
   10.1233   26.4577    5.0717 H   0  0  0  0  0  0  0  0  0  0  0  0
    8.9297   25.7442    6.6667 C   0  0  0  0  0  0  0  0  0  0  0  0
    9.1047   26.5327    7.8529 C   0  0  0  0  0  0  0  0  0  0  0  0
    8.1197   27.5395    8.2044 C   0  0  0  0  0  0  0  0  0  0  0  0
    8.2961   28.3245    9.3993 C   0  0  0  0  0  0  0  0  0  0  0  0
    9.4438   28.1103   10.2395 C   0  0  0  0  0  0  0  0  0  0  0  0
   10.4249   27.1129    9.8943 C   0  0  0  0  0  0  0  0  0  0  0  0
   10.2580   26.3242    8.7031 C   0  0  0  0  0  0  0  0  0  0  0  0
   11.5783   23.5273    3.5128 O   0  0  0  0  0  0  0  0  0  0  0  0
   10.9859   24.0401    2.2932 C   0  0  0  0  0  0  0  0  0  0  0  0
    9.4635   24.0826    2.2911 C   0  0  0  0  0  0  0  0  0  0  0  0
    8.7711   25.2262    1.7391 C   0  0  0  0  0  0  0  0  0  0  0  0
    7.3324   25.3003    1.7939 C   0  0  0  0  0  0  0  0  0  0  0  0
    6.5814   24.2319    2.3941 C   0  0  0  0  0  0  0  0  0  0  0  0
    7.2603   23.0842    2.9407 C   0  0  0  0  0  0  0  0  0  0  0  0
    8.6970   23.0025    2.8907 C   0  0  0  0  0  0  0  0  0  0  0  0
   14.8861   22.7183    6.0811 C   0  0  0  0  0  0  0  0  0  0  0  0
   15.0946   21.2451    5.9439 C   0  0  0  0  0  0  0  0  0  0  0  0
   14.2121   20.4572    6.2972 O   0  0  0  0  0  0  0  0  0  0  0  0
   16.2932   20.8009    5.4214 N   0  0  0  0  0  0  0  0  0  0  0  0
   16.9773   21.4597    5.1621 H   0  0  0  0  0  0  0  0  0  0  0  0
   16.5687   19.3921    5.2457 C   0  0  0  0  0  0  0  0  0  0  0  0
   16.4105   18.9410    3.8136 C   0  0  0  0  0  0  0  0  0  0  0  0
   15.4761   19.3769    2.8099 C   0  0  0  0  0  0  0  0  0  0  0  0
   15.5243   18.7941    1.4888 C   0  0  0  0  0  0  0  0  0  0  0  0
   16.5074   17.7863    1.1826 C   0  0  0  0  0  0  0  0  0  0  0  0
   17.4503   17.3487    2.1768 C   0  0  0  0  0  0  0  0  0  0  0  0
   17.3894   17.9374    3.4866 C   0  0  0  0  0  0  0  0  0  0  0  0
   18.2577   17.6608    4.6661 C   0  0  0  0  0  0  0  0  0  0  0  0
   18.0028   18.9172    5.5363 C   0  0  0  0  0  0  0  0  0  0  0  0
   18.9066   19.9633    5.1789 O   0  0  0  0  0  0  0  0  0  0  0  0
   18.7883   20.1869    4.2424 H   0  0  0  0  0  0  0  0  0  0  0  0
   14.5634   23.0527    7.4586 O   0  0  0  0  0  0  0  0  0  0  0  0
   15.7463   23.2382    8.2781 C   0  0  0  0  0  0  0  0  0  0  0  0
   16.2534   21.9566    8.9240 C   0  0  0  0  0  0  0  0  0  0  0  0
   15.3390   21.1084    9.6744 C   0  0  0  0  0  0  0  0  0  0  0  0
   15.7882   19.8367   10.1781 C   0  0  0  0  0  0  0  0  0  0  0  0
   17.1425   19.4132    9.9494 C   0  0  0  0  0  0  0  0  0  0  0  0
   18.0576   20.2549    9.2202 C   0  0  0  0  0  0  0  0  0  0  0  0
   17.6201   21.5235    8.7086 C   0  0  0  0  0  0  0  0  0  0  0  0
  1  2  1  0  0  0
  1 27  1  0  0  0
  1  4  1  0  0  0
 27 43  1  0  0  0
 27 28  1  0  0  0
 43 44  1  0  0  0
 44 45  1  0  0  0
 45 46  2  0  0  0
 45 50  1  0  0  0
 46 47  1  0  0  0
 47 48  2  0  0  0
 48 49  1  0  0  0
 49 50  2  0  0  0
 28 29  2  0  0  0
 28 30  1  0  0  0
 30 32  1  0  0  0
 32 33  1  0  0  0
 32 40  1  0  0  0
 33 34  2  0  0  0
 33 38  1  0  0  0
 34 35  1  0  0  0
 35 36  2  0  0  0
 36 37  1  0  0  0
 37 38  2  0  0  0
 38 39  1  0  0  0
 39 40  1  0  0  0
 40 41  1  0  0  0
  4  5  1  0  0  0
  4  7  1  0  0  0
  7 19  1  0  0  0
  7  8  1  0  0  0
 19 20  1  0  0  0
 20 21  1  0  0  0
 21 22  2  0  0  0
 21 26  1  0  0  0
 22 23  1  0  0  0
 23 24  2  0  0  0
 24 25  1  0  0  0
 25 26  2  0  0  0
  8  9  2  0  0  0
  8 10  1  0  0  0
 10 12  1  0  0  0
 12 13  1  0  0  0
 13 14  2  0  0  0
 13 18  1  0  0  0
 14 15  1  0  0  0
 15 16  2  0  0  0
 16 17  1  0  0  0
 17 18  2  0  0  0
  2  3  1  0  0  0
 30 31  1  0  0  0
 41 42  1  0  0  0
  5  6  1  0  0  0
 10 11  1  0  0  0
M  END
> <minimizedAffinity>
-12.50845

$$$$
1D4H_BEH_B_501


 50 54  0  0  0  0  0  0  0  0999 V2000
   12.9469   23.9325    5.7227 C   0  0  0  0  0  0  0  0  0  0  0  0
   13.1712   24.9720    6.7265 O   0  0  0  0  0  0  0  0  0  0  0  0
   13.5857   25.7423    6.3072 H   0  0  0  0  0  0  0  0  0  0  0  0
   14.2754   23.4869    5.1671 C   0  0  0  0  0  0  0  0  0  0  0  0
   14.9391   24.6830    4.6726 O   0  0  0  0  0  0  0  0  0  0  0  0
   15.0745   25.3040    5.4054 H   0  0  0  0  0  0  0  0  0  0  0  0
   15.1599   22.7543    6.1780 C   0  0  0  0  0  0  0  0  0  0  0  0
   15.1192   21.2758    5.8406 C   0  0  0  0  0  0  0  0  0  0  0  0
   14.0866   20.6043    5.9901 O   0  0  0  0  0  0  0  0  0  0  0  0
   16.2810   20.6680    5.4182 N   0  0  0  0  0  0  0  0  0  0  0  0
   17.1050   21.2003    5.3346 H   0  0  0  0  0  0  0  0  0  0  0  0
   16.3066   19.2553    5.0953 C   0  0  0  0  0  0  0  0  0  0  0  0
   16.2517   18.8320    3.7251 C   0  0  0  0  0  0  0  0  0  0  0  0
   17.3032   17.9890    3.1856 C   0  0  0  0  0  0  0  0  0  0  0  0
   17.2411   17.5614    1.8115 C   0  0  0  0  0  0  0  0  0  0  0  0
   16.1411   17.9688    0.9788 C   0  0  0  0  0  0  0  0  0  0  0  0
   15.0955   18.8065    1.5095 C   0  0  0  0  0  0  0  0  0  0  0  0
   15.1487   19.2391    2.8802 C   0  0  0  0  0  0  0  0  0  0  0  0
   14.7203   22.9512    7.5527 O   0  0  0  0  0  0  0  0  0  0  0  0
   15.8266   23.0509    8.4839 C   0  0  0  0  0  0  0  0  0  0  0  0
   16.3239   21.7191    9.0303 C   0  0  0  0  0  0  0  0  0  0  0  0
   17.7058   21.3321    8.8496 C   0  0  0  0  0  0  0  0  0  0  0  0
   18.1655   20.0447    9.3072 C   0  0  0  0  0  0  0  0  0  0  0  0
   17.2495   19.1431    9.9505 C   0  0  0  0  0  0  0  0  0  0  0  0
   15.8721   19.5209   10.1425 C   0  0  0  0  0  0  0  0  0  0  0  0
   15.4046   20.8047    9.6879 C   0  0  0  0  0  0  0  0  0  0  0  0
   11.9730   24.4105    4.6739 C   0  0  0  0  0  0  0  0  0  0  0  0
   10.7136   24.5757    5.4608 C   0  0  0  0  0  0  0  0  0  0  0  0
   10.2637   23.6327    6.1186 O   0  0  0  0  0  0  0  0  0  0  0  0
   10.0757   25.7999    5.4230 N   0  0  0  0  0  0  0  0  0  0  0  0
   10.4589   26.5242    4.8773 H   0  0  0  0  0  0  0  0  0  0  0  0
    8.8587   26.0446    6.1652 C   0  0  0  0  0  0  0  0  0  0  0  0
    9.1133   26.6867    7.5076 C   0  0  0  0  0  0  0  0  0  0  0  0
   10.2060   26.4984    8.4248 C   0  0  0  0  0  0  0  0  0  0  0  0
   10.2343   27.2418    9.6633 C   0  0  0  0  0  0  0  0  0  0  0  0
    9.1746   28.1683    9.9706 C   0  0  0  0  0  0  0  0  0  0  0  0
    8.0815   28.3688    9.0574 C   0  0  0  0  0  0  0  0  0  0  0  0
    8.0670   27.6215    7.8296 C   0  0  0  0  0  0  0  0  0  0  0  0
    7.0600   27.6661    6.7317 C   0  0  0  0  0  0  0  0  0  0  0  0
    7.8570   27.0422    5.5586 C   0  0  0  0  0  0  0  0  0  0  0  0
    8.5891   28.0503    4.8609 O   0  0  0  0  0  0  0  0  0  0  0  0
    9.2009   28.4878    5.4733 H   0  0  0  0  0  0  0  0  0  0  0  0
   11.7842   23.4179    3.6286 O   0  0  0  0  0  0  0  0  0  0  0  0
   11.3212   24.0018    2.3835 C   0  0  0  0  0  0  0  0  0  0  0  0
    9.8054   24.0637    2.2604 C   0  0  0  0  0  0  0  0  0  0  0  0
    8.9971   22.9119    2.6333 C   0  0  0  0  0  0  0  0  0  0  0  0
    7.5609   23.0126    2.6357 C   0  0  0  0  0  0  0  0  0  0  0  0
    6.9283   24.2466    2.2579 C   0  0  0  0  0  0  0  0  0  0  0  0
    7.7223   25.3863    1.8730 C   0  0  0  0  0  0  0  0  0  0  0  0
    9.1558   25.2999    1.8710 C   0  0  0  0  0  0  0  0  0  0  0  0
  1  2  1  0  0  0
  1 27  1  0  0  0
  1  4  1  0  0  0
 27 43  1  0  0  0
 27 28  1  0  0  0
 43 44  1  0  0  0
 44 45  1  0  0  0
 45 46  2  0  0  0
 45 50  1  0  0  0
 46 47  1  0  0  0
 47 48  2  0  0  0
 48 49  1  0  0  0
 49 50  2  0  0  0
 28 29  2  0  0  0
 28 30  1  0  0  0
 30 32  1  0  0  0
 32 33  1  0  0  0
 32 40  1  0  0  0
 33 34  2  0  0  0
 33 38  1  0  0  0
 34 35  1  0  0  0
 35 36  2  0  0  0
 36 37  1  0  0  0
 37 38  2  0  0  0
 38 39  1  0  0  0
 39 40  1  0  0  0
 40 41  1  0  0  0
  4  5  1  0  0  0
  4  7  1  0  0  0
  7 19  1  0  0  0
  7  8  1  0  0  0
 19 20  1  0  0  0
 20 21  1  0  0  0
 21 22  2  0  0  0
 21 26  1  0  0  0
 22 23  1  0  0  0
 23 24  2  0  0  0
 24 25  1  0  0  0
 25 26  2  0  0  0
  8  9  2  0  0  0
  8 10  1  0  0  0
 10 12  1  0  0  0
 12 13  1  0  0  0
 13 14  2  0  0  0
 13 18  1  0  0  0
 14 15  1  0  0  0
 15 16  2  0  0  0
 16 17  1  0  0  0
 17 18  2  0  0  0
  2  3  1  0  0  0
 30 31  1  0  0  0
 41 42  1  0  0  0
  5  6  1  0  0  0
 10 11  1  0  0  0
M  END
> <minimizedAffinity>
-12.46212

$$$$
1D4H_BEH_B_501


 50 54  0  0  0  0  0  0  0  0999 V2000
   13.3699   22.9766    4.9100 C   0  0  0  0  0  0  0  0  0  0  0  0
   13.4981   22.5687    3.5116 O   0  0  0  0  0  0  0  0  0  0  0  0
   14.1115   23.1659    3.0555 H   0  0  0  0  0  0  0  0  0  0  0  0
   12.7815   24.3631    4.9686 C   0  0  0  0  0  0  0  0  0  0  0  0
   12.6002   24.7941    3.5914 O   0  0  0  0  0  0  0  0  0  0  0  0
   11.9888   24.1903    3.1414 H   0  0  0  0  0  0  0  0  0  0  0  0
   11.4641   24.4491    5.7419 C   0  0  0  0  0  0  0  0  0  0  0  0
   10.3318   24.3311    4.7392 C   0  0  0  0  0  0  0  0  0  0  0  0
   10.0264   23.2413    4.2307 O   0  0  0  0  0  0  0  0  0  0  0  0
    9.6791   25.4800    4.3497 N   0  0  0  0  0  0  0  0  0  0  0  0
    9.9499   26.3458    4.7322 H   0  0  0  0  0  0  0  0  0  0  0  0
    8.5992   25.4312    3.3843 C   0  0  0  0  0  0  0  0  0  0  0  0
    7.2473   25.6584    3.8089 C   0  0  0  0  0  0  0  0  0  0  0  0
    6.9722   26.6128    4.8677 C   0  0  0  0  0  0  0  0  0  0  0  0
    5.6132   26.8423    5.2866 C   0  0  0  0  0  0  0  0  0  0  0  0
    4.5346   26.1283    4.6574 C   0  0  0  0  0  0  0  0  0  0  0  0
    4.8027   25.1791    3.6067 C   0  0  0  0  0  0  0  0  0  0  0  0
    6.1563   24.9426    3.1816 C   0  0  0  0  0  0  0  0  0  0  0  0
   11.3297   25.6967    6.4818 O   0  0  0  0  0  0  0  0  0  0  0  0
   11.1316   25.4851    7.9021 C   0  0  0  0  0  0  0  0  0  0  0  0
   10.0780   26.3804    8.5407 C   0  0  0  0  0  0  0  0  0  0  0  0
    8.7548   26.4679    7.9634 C   0  0  0  0  0  0  0  0  0  0  0  0
    7.7747   27.3633    8.5256 C   0  0  0  0  0  0  0  0  0  0  0  0
    8.1105   28.1689    9.6674 C   0  0  0  0  0  0  0  0  0  0  0  0
    9.4235   28.0846   10.2555 C   0  0  0  0  0  0  0  0  0  0  0  0
   10.4086   27.1934    9.6998 C   0  0  0  0  0  0  0  0  0  0  0  0
   14.6922   22.8410    5.6245 C   0  0  0  0  0  0  0  0  0  0  0  0
   14.9192   21.3645    5.5962 C   0  0  0  0  0  0  0  0  0  0  0  0
   14.0089   20.5898    5.9053 O   0  0  0  0  0  0  0  0  0  0  0  0
   16.1662   20.9024    5.2238 N   0  0  0  0  0  0  0  0  0  0  0  0
   16.8702   21.5517    4.9959 H   0  0  0  0  0  0  0  0  0  0  0  0
   16.4636   19.4885    5.1602 C   0  0  0  0  0  0  0  0  0  0  0  0
   16.3899   18.9396    3.7557 C   0  0  0  0  0  0  0  0  0  0  0  0
   15.5093   19.2946    2.6745 C   0  0  0  0  0  0  0  0  0  0  0  0
   15.6366   18.6243    1.4010 C   0  0  0  0  0  0  0  0  0  0  0  0
   16.6443   17.6107    1.2191 C   0  0  0  0  0  0  0  0  0  0  0  0
   17.5339   17.2534    2.2915 C   0  0  0  0  0  0  0  0  0  0  0  0
   17.3944   17.9286    3.5527 C   0  0  0  0  0  0  0  0  0  0  0  0
   18.1977   17.7436    4.7945 C   0  0  0  0  0  0  0  0  0  0  0  0
   17.8833   19.0527    5.5614 C   0  0  0  0  0  0  0  0  0  0  0  0
   18.7963   20.0836    5.1839 O   0  0  0  0  0  0  0  0  0  0  0  0
   18.7288   20.2417    4.2293 H   0  0  0  0  0  0  0  0  0  0  0  0
   14.6071   23.3089    6.9983 O   0  0  0  0  0  0  0  0  0  0  0  0
   15.9074   23.4048    7.6351 C   0  0  0  0  0  0  0  0  0  0  0  0
   16.2120   22.2559    8.5859 C   0  0  0  0  0  0  0  0  0  0  0  0
   15.1793   21.7616    9.4848 C   0  0  0  0  0  0  0  0  0  0  0  0
   15.4279   20.5966   10.2933 C   0  0  0  0  0  0  0  0  0  0  0  0
   16.7000   19.9316   10.2201 C   0  0  0  0  0  0  0  0  0  0  0  0
   17.7324   20.4247    9.3434 C   0  0  0  0  0  0  0  0  0  0  0  0
   17.4949   21.5831    8.5285 C   0  0  0  0  0  0  0  0  0  0  0  0
  1  2  1  0  0  0
  1 27  1  0  0  0
  1  4  1  0  0  0
 27 43  1  0  0  0
 27 28  1  0  0  0
 43 44  1  0  0  0
 44 45  1  0  0  0
 45 46  2  0  0  0
 45 50  1  0  0  0
 46 47  1  0  0  0
 47 48  2  0  0  0
 48 49  1  0  0  0
 49 50  2  0  0  0
 28 29  2  0  0  0
 28 30  1  0  0  0
 30 32  1  0  0  0
 32 33  1  0  0  0
 32 40  1  0  0  0
 33 34  2  0  0  0
 33 38  1  0  0  0
 34 35  1  0  0  0
 35 36  2  0  0  0
 36 37  1  0  0  0
 37 38  2  0  0  0
 38 39  1  0  0  0
 39 40  1  0  0  0
 40 41  1  0  0  0
  4  5  1  0  0  0
  4  7  1  0  0  0
  7 19  1  0  0  0
  7  8  1  0  0  0
 19 20  1  0  0  0
 20 21  1  0  0  0
 21 22  2  0  0  0
 21 26  1  0  0  0
 22 23  1  0  0  0
 23 24  2  0  0  0
 24 25  1  0  0  0
 25 26  2  0  0  0
  8  9  2  0  0  0
  8 10  1  0  0  0
 10 12  1  0  0  0
 12 13  1  0  0  0
 13 14  2  0  0  0
 13 18  1  0  0  0
 14 15  1  0  0  0
 15 16  2  0  0  0
 16 17  1  0  0  0
 17 18  2  0  0  0
  2  3  1  0  0  0
 30 31  1  0  0  0
 41 42  1  0  0  0
  5  6  1  0  0  0
 10 11  1  0  0  0
M  END
> <minimizedAffinity>
-12.14633

$$$$
1D4H_BEH_B_501


 50 54  0  0  0  0  0  0  0  0999 V2000
   14.1238   22.0578    5.1161 C   0  0  0  0  0  0  0  0  0  0  0  0
   15.0798   22.9970    5.7014 O   0  0  0  0  0  0  0  0  0  0  0  0
   14.8026   23.2202    6.6038 H   0  0  0  0  0  0  0  0  0  0  0  0
   12.7727   22.7200    5.0254 C   0  0  0  0  0  0  0  0  0  0  0  0
   11.9932   22.2253    6.1493 O   0  0  0  0  0  0  0  0  0  0  0  0
   12.4308   22.4710    6.9794 H   0  0  0  0  0  0  0  0  0  0  0  0
   12.8260   24.2491    5.0333 C   0  0  0  0  0  0  0  0  0  0  0  0
   12.5132   24.7145    6.4428 C   0  0  0  0  0  0  0  0  0  0  0  0
   13.3717   24.6939    7.3385 O   0  0  0  0  0  0  0  0  0  0  0  0
   11.2250   25.1076    6.7323 N   0  0  0  0  0  0  0  0  0  0  0  0
   10.5409   25.0889    6.0246 H   0  0  0  0  0  0  0  0  0  0  0  0
   10.8635   25.5485    8.0648 C   0  0  0  0  0  0  0  0  0  0  0  0
    9.8486   26.5482    8.2384 C   0  0  0  0  0  0  0  0  0  0  0  0
    8.9284   26.8409    7.1544 C   0  0  0  0  0  0  0  0  0  0  0  0
    7.9073   27.8408    7.3350 C   0  0  0  0  0  0  0  0  0  0  0  0
    7.8012   28.5451    8.5847 C   0  0  0  0  0  0  0  0  0  0  0  0
    8.7130   28.2589    9.6633 C   0  0  0  0  0  0  0  0  0  0  0  0
    9.7362   27.2626    9.4927 C   0  0  0  0  0  0  0  0  0  0  0  0
   11.8782   24.8471    4.1027 O   0  0  0  0  0  0  0  0  0  0  0  0
   11.4743   23.9331    3.0526 C   0  0  0  0  0  0  0  0  0  0  0  0
    9.9898   23.9652    2.7136 C   0  0  0  0  0  0  0  0  0  0  0  0
    9.4071   25.1492    2.1215 C   0  0  0  0  0  0  0  0  0  0  0  0
    7.9908   25.2084    1.8592 C   0  0  0  0  0  0  0  0  0  0  0  0
    7.1540   24.0852    2.1817 C   0  0  0  0  0  0  0  0  0  0  0  0
    7.7248   22.8975    2.7652 C   0  0  0  0  0  0  0  0  0  0  0  0
    9.1384   22.8304    3.0310 C   0  0  0  0  0  0  0  0  0  0  0  0
   14.1196   20.7589    5.8842 C   0  0  0  0  0  0  0  0  0  0  0  0
   14.7870   21.1440    7.1644 C   0  0  0  0  0  0  0  0  0  0  0  0
   14.1308   21.6506    8.0793 O   0  0  0  0  0  0  0  0  0  0  0  0
   16.1447   20.9227    7.2854 N   0  0  0  0  0  0  0  0  0  0  0  0
   16.6359   20.5276    6.5292 H   0  0  0  0  0  0  0  0  0  0  0  0
   16.8631   21.2568    8.4954 C   0  0  0  0  0  0  0  0  0  0  0  0
   17.0286   20.0753    9.4206 C   0  0  0  0  0  0  0  0  0  0  0  0
   16.1348   18.9778    9.6798 C   0  0  0  0  0  0  0  0  0  0  0  0
   16.5222   17.9477   10.6157 C   0  0  0  0  0  0  0  0  0  0  0  0
   17.7991   18.0216   11.2790 C   0  0  0  0  0  0  0  0  0  0  0  0
   18.7026   19.1109   11.0216 C   0  0  0  0  0  0  0  0  0  0  0  0
   18.3027   20.1284   10.0884 C   0  0  0  0  0  0  0  0  0  0  0  0
   19.0633   21.3338    9.6524 C   0  0  0  0  0  0  0  0  0  0  0  0
   18.3270   21.7033    8.3402 C   0  0  0  0  0  0  0  0  0  0  0  0
   18.8980   21.0041    7.2339 O   0  0  0  0  0  0  0  0  0  0  0  0
   18.8314   20.0485    7.3861 H   0  0  0  0  0  0  0  0  0  0  0  0
   14.8941   19.7338    5.2038 O   0  0  0  0  0  0  0  0  0  0  0  0
   15.1269   20.0477    3.8064 C   0  0  0  0  0  0  0  0  0  0  0  0
   15.8043   18.9277    3.0298 C   0  0  0  0  0  0  0  0  0  0  0  0
   15.4320   18.6727    1.6459 C   0  0  0  0  0  0  0  0  0  0  0  0
   16.1584   17.6982    0.8742 C   0  0  0  0  0  0  0  0  0  0  0  0
   17.2418   16.9705    1.4761 C   0  0  0  0  0  0  0  0  0  0  0  0
   17.6061   17.2071    2.8505 C   0  0  0  0  0  0  0  0  0  0  0  0
   16.8922   18.1798    3.6293 C   0  0  0  0  0  0  0  0  0  0  0  0
  1  2  1  0  0  0
  1 27  1  0  0  0
  1  4  1  0  0  0
 27 43  1  0  0  0
 27 28  1  0  0  0
 43 44  1  0  0  0
 44 45  1  0  0  0
 45 46  2  0  0  0
 45 50  1  0  0  0
 46 47  1  0  0  0
 47 48  2  0  0  0
 48 49  1  0  0  0
 49 50  2  0  0  0
 28 29  2  0  0  0
 28 30  1  0  0  0
 30 32  1  0  0  0
 32 33  1  0  0  0
 32 40  1  0  0  0
 33 34  2  0  0  0
 33 38  1  0  0  0
 34 35  1  0  0  0
 35 36  2  0  0  0
 36 37  1  0  0  0
 37 38  2  0  0  0
 38 39  1  0  0  0
 39 40  1  0  0  0
 40 41  1  0  0  0
  4  5  1  0  0  0
  4  7  1  0  0  0
  7 19  1  0  0  0
  7  8  1  0  0  0
 19 20  1  0  0  0
 20 21  1  0  0  0
 21 22  2  0  0  0
 21 26  1  0  0  0
 22 23  1  0  0  0
 23 24  2  0  0  0
 24 25  1  0  0  0
 25 26  2  0  0  0
  8  9  2  0  0  0
  8 10  1  0  0  0
 10 12  1  0  0  0
 12 13  1  0  0  0
 13 14  2  0  0  0
 13 18  1  0  0  0
 14 15  1  0  0  0
 15 16  2  0  0  0
 16 17  1  0  0  0
 17 18  2  0  0  0
  2  3  1  0  0  0
 30 31  1  0  0  0
 41 42  1  0  0  0
  5  6  1  0  0  0
 10 11  1  0  0  0
M  END
> <minimizedAffinity>
-11.26038

$$$$
1D4H_BEH_B_501


 50 54  0  0  0  0  0  0  0  0999 V2000
   12.4548   24.1457    4.8971 C   0  0  0  0  0  0  0  0  0  0  0  0
   12.3253   24.8776    3.6377 O   0  0  0  0  0  0  0  0  0  0  0  0
   12.1789   24.2501    2.9126 H   0  0  0  0  0  0  0  0  0  0  0  0
   13.6624   23.2464    4.8242 C   0  0  0  0  0  0  0  0  0  0  0  0
   14.8179   24.0813    5.1128 O   0  0  0  0  0  0  0  0  0  0  0  0
   14.7325   24.4547    6.0040 H   0  0  0  0  0  0  0  0  0  0  0  0
   13.6066   22.0494    5.7756 C   0  0  0  0  0  0  0  0  0  0  0  0
   14.5715   22.3199    6.9146 C   0  0  0  0  0  0  0  0  0  0  0  0
   14.3159   23.1535    7.7974 O   0  0  0  0  0  0  0  0  0  0  0  0
   15.7810   21.6605    6.9191 N   0  0  0  0  0  0  0  0  0  0  0  0
   15.9908   21.0257    6.1965 H   0  0  0  0  0  0  0  0  0  0  0  0
   16.7488   21.8890    7.9735 C   0  0  0  0  0  0  0  0  0  0  0  0
   17.0212   20.8567    8.9326 C   0  0  0  0  0  0  0  0  0  0  0  0
   15.9562   19.9682    9.3614 C   0  0  0  0  0  0  0  0  0  0  0  0
   16.2353   18.9295   10.3196 C   0  0  0  0  0  0  0  0  0  0  0  0
   17.5642   18.7745   10.8481 C   0  0  0  0  0  0  0  0  0  0  0  0
   18.6244   19.6546   10.4263 C   0  0  0  0  0  0  0  0  0  0  0  0
   18.3557   20.6952    9.4704 C   0  0  0  0  0  0  0  0  0  0  0  0
   13.9649   20.7978    5.1222 O   0  0  0  0  0  0  0  0  0  0  0  0
   14.3321   20.9790    3.7316 C   0  0  0  0  0  0  0  0  0  0  0  0
   15.2028   19.8723    3.1513 C   0  0  0  0  0  0  0  0  0  0  0  0
   16.3696   19.4144    3.8730 C   0  0  0  0  0  0  0  0  0  0  0  0
   17.2331   18.4135    3.2978 C   0  0  0  0  0  0  0  0  0  0  0  0
   16.9317   17.8635    2.0046 C   0  0  0  0  0  0  0  0  0  0  0  0
   15.7678   18.3069    1.2796 C   0  0  0  0  0  0  0  0  0  0  0  0
   14.9004   19.3067    1.8466 C   0  0  0  0  0  0  0  0  0  0  0  0
   11.1711   23.4230    5.2240 C   0  0  0  0  0  0  0  0  0  0  0  0
   10.4855   23.3761    3.8972 C   0  0  0  0  0  0  0  0  0  0  0  0
   10.7429   22.4722    3.0965 O   0  0  0  0  0  0  0  0  0  0  0  0
    9.5716   24.3675    3.5988 N   0  0  0  0  0  0  0  0  0  0  0  0
    9.4020   25.0783    4.2586 H   0  0  0  0  0  0  0  0  0  0  0  0
    8.8575   24.3876    2.3413 C   0  0  0  0  0  0  0  0  0  0  0  0
    7.3871   24.0845    2.5007 C   0  0  0  0  0  0  0  0  0  0  0  0
    6.7260   23.1910    3.4147 C   0  0  0  0  0  0  0  0  0  0  0  0
    5.2864   23.0737    3.3823 C   0  0  0  0  0  0  0  0  0  0  0  0
    4.5222   23.8526    2.4415 C   0  0  0  0  0  0  0  0  0  0  0  0
    5.1729   24.7537    1.5284 C   0  0  0  0  0  0  0  0  0  0  0  0
    6.6058   24.8590    1.5724 C   0  0  0  0  0  0  0  0  0  0  0  0
    7.4953   25.7233    0.7458 C   0  0  0  0  0  0  0  0  0  0  0  0
    8.7912   25.7312    1.5950 C   0  0  0  0  0  0  0  0  0  0  0  0
    8.7490   26.7828    2.5599 O   0  0  0  0  0  0  0  0  0  0  0  0
    7.9811   26.6592    3.1396 H   0  0  0  0  0  0  0  0  0  0  0  0
   10.3664   24.1689    6.1778 O   0  0  0  0  0  0  0  0  0  0  0  0
   11.1730   24.8577    7.1679 C   0  0  0  0  0  0  0  0  0  0  0  0
   10.4417   25.9888    7.8769 C   0  0  0  0  0  0  0  0  0  0  0  0
    9.3999   26.7306    7.1818 C   0  0  0  0  0  0  0  0  0  0  0  0
    8.6238   27.7146    7.8905 C   0  0  0  0  0  0  0  0  0  0  0  0
    8.8880   27.9709    9.2799 C   0  0  0  0  0  0  0  0  0  0  0  0
    9.9282   27.2507    9.9704 C   0  0  0  0  0  0  0  0  0  0  0  0
   10.7061   26.2634    9.2757 C   0  0  0  0  0  0  0  0  0  0  0  0
  1  2  1  0  0  0
  1 27  1  0  0  0
  1  4  1  0  0  0
 27 43  1  0  0  0
 27 28  1  0  0  0
 43 44  1  0  0  0
 44 45  1  0  0  0
 45 46  2  0  0  0
 45 50  1  0  0  0
 46 47  1  0  0  0
 47 48  2  0  0  0
 48 49  1  0  0  0
 49 50  2  0  0  0
 28 29  2  0  0  0
 28 30  1  0  0  0
 30 32  1  0  0  0
 32 33  1  0  0  0
 32 40  1  0  0  0
 33 34  2  0  0  0
 33 38  1  0  0  0
 34 35  1  0  0  0
 35 36  2  0  0  0
 36 37  1  0  0  0
 37 38  2  0  0  0
 38 39  1  0  0  0
 39 40  1  0  0  0
 40 41  1  0  0  0
  4  5  1  0  0  0
  4  7  1  0  0  0
  7 19  1  0  0  0
  7  8  1  0  0  0
 19 20  1  0  0  0
 20 21  1  0  0  0
 21 22  2  0  0  0
 21 26  1  0  0  0
 22 23  1  0  0  0
 23 24  2  0  0  0
 24 25  1  0  0  0
 25 26  2  0  0  0
  8  9  2  0  0  0
  8 10  1  0  0  0
 10 12  1  0  0  0
 12 13  1  0  0  0
 13 14  2  0  0  0
 13 18  1  0  0  0
 14 15  1  0  0  0
 15 16  2  0  0  0
 16 17  1  0  0  0
 17 18  2  0  0  0
  2  3  1  0  0  0
 30 31  1  0  0  0
 41 42  1  0  0  0
  5  6  1  0  0  0
 10 11  1  0  0  0
M  END
> <minimizedAffinity>
-11.07605

$$$$
1D4H_BEH_B_501


 50 54  0  0  0  0  0  0  0  0999 V2000
   12.0659   24.1893    5.8790 C   0  0  0  0  0  0  0  0  0  0  0  0
   12.3607   24.4642    4.4733 O   0  0  0  0  0  0  0  0  0  0  0  0
   12.2543   23.6509    3.9556 H   0  0  0  0  0  0  0  0  0  0  0  0
   13.0578   23.1835    6.4046 C   0  0  0  0  0  0  0  0  0  0  0  0
   12.3274   21.9393    6.5887 O   0  0  0  0  0  0  0  0  0  0  0  0
   11.9718   21.6439    5.7359 H   0  0  0  0  0  0  0  0  0  0  0  0
   14.2710   22.9712    5.4968 C   0  0  0  0  0  0  0  0  0  0  0  0
   14.1042   21.6289    4.8100 C   0  0  0  0  0  0  0  0  0  0  0  0
   13.4584   21.5147    3.7567 O   0  0  0  0  0  0  0  0  0  0  0  0
   14.6365   20.5122    5.4162 N   0  0  0  0  0  0  0  0  0  0  0  0
   15.1185   20.6060    6.2695 H   0  0  0  0  0  0  0  0  0  0  0  0
   14.4965   19.2011    4.8144 C   0  0  0  0  0  0  0  0  0  0  0  0
   15.4241   18.7719    3.8071 C   0  0  0  0  0  0  0  0  0  0  0  0
   16.7751   18.3947    4.1811 C   0  0  0  0  0  0  0  0  0  0  0  0
   17.7012   17.9586    3.1675 C   0  0  0  0  0  0  0  0  0  0  0  0
   17.2873   17.8976    1.7912 C   0  0  0  0  0  0  0  0  0  0  0  0
   15.9476   18.2721    1.4148 C   0  0  0  0  0  0  0  0  0  0  0  0
   15.0157   18.7092    2.4194 C   0  0  0  0  0  0  0  0  0  0  0  0
   15.5292   22.9885    6.2306 O   0  0  0  0  0  0  0  0  0  0  0  0
   15.3405   23.1474    7.6590 C   0  0  0  0  0  0  0  0  0  0  0  0
   15.9618   22.0489    8.5117 C   0  0  0  0  0  0  0  0  0  0  0  0
   17.3928   21.8399    8.4944 C   0  0  0  0  0  0  0  0  0  0  0  0
   17.9784   20.7601    9.2489 C   0  0  0  0  0  0  0  0  0  0  0  0
   17.1389   19.8903   10.0262 C   0  0  0  0  0  0  0  0  0  0  0  0
   15.7125   20.0935   10.0567 C   0  0  0  0  0  0  0  0  0  0  0  0
   15.1193   21.1693    9.3055 C   0  0  0  0  0  0  0  0  0  0  0  0
   10.6247   23.7743    6.0464 C   0  0  0  0  0  0  0  0  0  0  0  0
   10.1695   23.6272    4.6309 C   0  0  0  0  0  0  0  0  0  0  0  0
   10.4502   22.6096    3.9905 O   0  0  0  0  0  0  0  0  0  0  0  0
    9.4394   24.6561    4.0693 N   0  0  0  0  0  0  0  0  0  0  0  0
    9.2457   25.4569    4.6082 H   0  0  0  0  0  0  0  0  0  0  0  0
    8.9523   24.5866    2.7093 C   0  0  0  0  0  0  0  0  0  0  0  0
    7.4831   24.2476    2.6326 C   0  0  0  0  0  0  0  0  0  0  0  0
    6.6932   23.3850    3.4707 C   0  0  0  0  0  0  0  0  0  0  0  0
    5.2835   23.2221    3.1997 C   0  0  0  0  0  0  0  0  0  0  0  0
    4.6767   23.9255    2.0984 C   0  0  0  0  0  0  0  0  0  0  0  0
    5.4561   24.7955    1.2589 C   0  0  0  0  0  0  0  0  0  0  0  0
    6.8574   24.9467    1.5408 C   0  0  0  0  0  0  0  0  0  0  0  0
    7.8578   25.7920    0.8293 C   0  0  0  0  0  0  0  0  0  0  0  0
    8.9876   25.8852    1.8854 C   0  0  0  0  0  0  0  0  0  0  0  0
    8.7579   26.9856    2.7659 O   0  0  0  0  0  0  0  0  0  0  0  0
    7.9044   26.8700    3.2121 H   0  0  0  0  0  0  0  0  0  0  0  0
    9.8475   24.8028    6.7185 O   0  0  0  0  0  0  0  0  0  0  0  0
   10.6215   25.5270    7.7093 C   0  0  0  0  0  0  0  0  0  0  0  0
    9.8338   26.6102    8.4325 C   0  0  0  0  0  0  0  0  0  0  0  0
    8.5164   26.9975    7.9496 C   0  0  0  0  0  0  0  0  0  0  0  0
    7.7203   27.9303    8.7038 C   0  0  0  0  0  0  0  0  0  0  0  0
    8.2336   28.4865    9.9257 C   0  0  0  0  0  0  0  0  0  0  0  0
    9.5435   28.1189   10.4018 C   0  0  0  0  0  0  0  0  0  0  0  0
   10.3453   27.1859    9.6609 C   0  0  0  0  0  0  0  0  0  0  0  0
  1  2  1  0  0  0
  1 27  1  0  0  0
  1  4  1  0  0  0
 27 43  1  0  0  0
 27 28  1  0  0  0
 43 44  1  0  0  0
 44 45  1  0  0  0
 45 46  2  0  0  0
 45 50  1  0  0  0
 46 47  1  0  0  0
 47 48  2  0  0  0
 48 49  1  0  0  0
 49 50  2  0  0  0
 28 29  2  0  0  0
 28 30  1  0  0  0
 30 32  1  0  0  0
 32 33  1  0  0  0
 32 40  1  0  0  0
 33 34  2  0  0  0
 33 38  1  0  0  0
 34 35  1  0  0  0
 35 36  2  0  0  0
 36 37  1  0  0  0
 37 38  2  0  0  0
 38 39  1  0  0  0
 39 40  1  0  0  0
 40 41  1  0  0  0
  4  5  1  0  0  0
  4  7  1  0  0  0
  7 19  1  0  0  0
  7  8  1  0  0  0
 19 20  1  0  0  0
 20 21  1  0  0  0
 21 22  2  0  0  0
 21 26  1  0  0  0
 22 23  1  0  0  0
 23 24  2  0  0  0
 24 25  1  0  0  0
 25 26  2  0  0  0
  8  9  2  0  0  0
  8 10  1  0  0  0
 10 12  1  0  0  0
 12 13  1  0  0  0
 13 14  2  0  0  0
 13 18  1  0  0  0
 14 15  1  0  0  0
 15 16  2  0  0  0
 16 17  1  0  0  0
 17 18  2  0  0  0
  2  3  1  0  0  0
 30 31  1  0  0  0
 41 42  1  0  0  0
  5  6  1  0  0  0
 10 11  1  0  0  0
M  END
> <minimizedAffinity>
-10.94916

$$$$
1D4H_BEH_B_501


 50 54  0  0  0  0  0  0  0  0999 V2000
   12.8630   23.8935    4.4697 C   0  0  0  0  0  0  0  0  0  0  0  0
   14.2260   23.4203    4.7075 O   0  0  0  0  0  0  0  0  0  0  0  0
   14.2728   22.9929    5.5771 H   0  0  0  0  0  0  0  0  0  0  0  0
   12.5124   24.9314    5.5051 C   0  0  0  0  0  0  0  0  0  0  0  0
   11.1691   25.3922    5.1906 O   0  0  0  0  0  0  0  0  0  0  0  0
   10.5511   24.6464    5.2423 H   0  0  0  0  0  0  0  0  0  0  0  0
   12.5885   24.4245    6.9467 C   0  0  0  0  0  0  0  0  0  0  0  0
   12.0257   25.5078    7.8472 C   0  0  0  0  0  0  0  0  0  0  0  0
   12.7371   26.4295    8.2761 O   0  0  0  0  0  0  0  0  0  0  0  0
   10.7076   25.4163    8.2372 N   0  0  0  0  0  0  0  0  0  0  0  0
   10.1585   24.6632    7.9201 H   0  0  0  0  0  0  0  0  0  0  0  0
   10.1186   26.4139    9.1082 C   0  0  0  0  0  0  0  0  0  0  0  0
    8.8522   27.0001    8.7732 C   0  0  0  0  0  0  0  0  0  0  0  0
    7.9015   26.2566    7.9665 C   0  0  0  0  0  0  0  0  0  0  0  0
    6.6290   26.8463    7.6378 C   0  0  0  0  0  0  0  0  0  0  0  0
    6.3034   28.1663    8.1077 C   0  0  0  0  0  0  0  0  0  0  0  0
    7.2442   28.9087    8.9079 C   0  0  0  0  0  0  0  0  0  0  0  0
    8.5176   28.3287    9.2411 C   0  0  0  0  0  0  0  0  0  0  0  0
   13.9498   24.1093    7.3582 O   0  0  0  0  0  0  0  0  0  0  0  0
   13.9958   23.2189    8.5011 C   0  0  0  0  0  0  0  0  0  0  0  0
   15.2499   22.3596    8.5915 C   0  0  0  0  0  0  0  0  0  0  0  0
   15.1573   20.9870    9.0380 C   0  0  0  0  0  0  0  0  0  0  0  0
   16.3491   20.1897    9.1876 C   0  0  0  0  0  0  0  0  0  0  0  0
   17.6346   20.7580    8.8871 C   0  0  0  0  0  0  0  0  0  0  0  0
   17.7383   22.1222    8.4345 C   0  0  0  0  0  0  0  0  0  0  0  0
   16.5530   22.9257    8.2830 C   0  0  0  0  0  0  0  0  0  0  0  0
   11.9010   22.7321    4.4157 C   0  0  0  0  0  0  0  0  0  0  0  0
   12.7276   21.6091    4.9524 C   0  0  0  0  0  0  0  0  0  0  0  0
   12.5881   21.2388    6.1220 O   0  0  0  0  0  0  0  0  0  0  0  0
   13.6440   21.0118    4.1096 N   0  0  0  0  0  0  0  0  0  0  0  0
   13.7346   21.3430    3.1869 H   0  0  0  0  0  0  0  0  0  0  0  0
   14.4741   19.9117    4.5485 C   0  0  0  0  0  0  0  0  0  0  0  0
   15.2208   19.2550    3.4125 C   0  0  0  0  0  0  0  0  0  0  0  0
   14.8146   19.0365    2.0495 C   0  0  0  0  0  0  0  0  0  0  0  0
   15.7185   18.3828    1.1315 C   0  0  0  0  0  0  0  0  0  0  0  0
   17.0195   17.9587    1.5825 C   0  0  0  0  0  0  0  0  0  0  0  0
   17.4377   18.1785    2.9411 C   0  0  0  0  0  0  0  0  0  0  0  0
   16.5270   18.8296    3.8426 C   0  0  0  0  0  0  0  0  0  0  0  0
   16.7354   19.1760    5.2773 C   0  0  0  0  0  0  0  0  0  0  0  0
   15.6380   20.2475    5.4968 C   0  0  0  0  0  0  0  0  0  0  0  0
   16.1332   21.5446    5.1632 O   0  0  0  0  0  0  0  0  0  0  0  0
   16.4158   21.5539    4.2354 H   0  0  0  0  0  0  0  0  0  0  0  0
   11.4886   22.4435    3.0518 O   0  0  0  0  0  0  0  0  0  0  0  0
   10.0929   22.0568    2.9624 C   0  0  0  0  0  0  0  0  0  0  0  0
    9.1546   23.2121    2.6436 C   0  0  0  0  0  0  0  0  0  0  0  0
    9.6865   24.4529    2.0992 C   0  0  0  0  0  0  0  0  0  0  0  0
    8.7881   25.4976    1.6815 C   0  0  0  0  0  0  0  0  0  0  0  0
    7.3684   25.3176    1.8146 C   0  0  0  0  0  0  0  0  0  0  0  0
    6.8355   24.0975    2.3669 C   0  0  0  0  0  0  0  0  0  0  0  0
    7.7211   23.0462    2.7829 C   0  0  0  0  0  0  0  0  0  0  0  0
  1  2  1  0  0  0
  1 27  1  0  0  0
  1  4  1  0  0  0
 27 43  1  0  0  0
 27 28  1  0  0  0
 43 44  1  0  0  0
 44 45  1  0  0  0
 45 46  2  0  0  0
 45 50  1  0  0  0
 46 47  1  0  0  0
 47 48  2  0  0  0
 48 49  1  0  0  0
 49 50  2  0  0  0
 28 29  2  0  0  0
 28 30  1  0  0  0
 30 32  1  0  0  0
 32 33  1  0  0  0
 32 40  1  0  0  0
 33 34  2  0  0  0
 33 38  1  0  0  0
 34 35  1  0  0  0
 35 36  2  0  0  0
 36 37  1  0  0  0
 37 38  2  0  0  0
 38 39  1  0  0  0
 39 40  1  0  0  0
 40 41  1  0  0  0
  4  5  1  0  0  0
  4  7  1  0  0  0
  7 19  1  0  0  0
  7  8  1  0  0  0
 19 20  1  0  0  0
 20 21  1  0  0  0
 21 22  2  0  0  0
 21 26  1  0  0  0
 22 23  1  0  0  0
 23 24  2  0  0  0
 24 25  1  0  0  0
 25 26  2  0  0  0
  8  9  2  0  0  0
  8 10  1  0  0  0
 10 12  1  0  0  0
 12 13  1  0  0  0
 13 14  2  0  0  0
 13 18  1  0  0  0
 14 15  1  0  0  0
 15 16  2  0  0  0
 16 17  1  0  0  0
 17 18  2  0  0  0
  2  3  1  0  0  0
 30 31  1  0  0  0
 41 42  1  0  0  0
  5  6  1  0  0  0
 10 11  1  0  0  0
M  END
> <minimizedAffinity>
-10.79528

$$$$
1D4H_BEH_B_501


 50 54  0  0  0  0  0  0  0  0999 V2000
   13.8377   21.6720    6.5338 C   0  0  0  0  0  0  0  0  0  0  0  0
   13.5667   21.8510    7.9596 O   0  0  0  0  0  0  0  0  0  0  0  0
   13.2518   21.0145    8.3364 H   0  0  0  0  0  0  0  0  0  0  0  0
   12.5554   21.3108    5.8285 C   0  0  0  0  0  0  0  0  0  0  0  0
   11.5578   21.1007    6.8658 O   0  0  0  0  0  0  0  0  0  0  0  0
   11.4412   21.9194    7.3729 H   0  0  0  0  0  0  0  0  0  0  0  0
   12.0796   22.3612    4.8229 C   0  0  0  0  0  0  0  0  0  0  0  0
   12.0484   23.7006    5.5346 C   0  0  0  0  0  0  0  0  0  0  0  0
   12.9454   24.5424    5.3728 O   0  0  0  0  0  0  0  0  0  0  0  0
   11.0256   23.9461    6.4242 N   0  0  0  0  0  0  0  0  0  0  0  0
   10.3359   23.2594    6.5729 H   0  0  0  0  0  0  0  0  0  0  0  0
   10.9513   25.2018    7.1442 C   0  0  0  0  0  0  0  0  0  0  0  0
    9.8179   26.0641    6.9663 C   0  0  0  0  0  0  0  0  0  0  0  0
    9.3848   26.9233    8.0533 C   0  0  0  0  0  0  0  0  0  0  0  0
    8.2506   27.7917    7.8684 C   0  0  0  0  0  0  0  0  0  0  0  0
    7.5513   27.8064    6.6114 C   0  0  0  0  0  0  0  0  0  0  0  0
    7.9767   26.9545    5.5298 C   0  0  0  0  0  0  0  0  0  0  0  0
    9.1079   26.0835    5.7047 C   0  0  0  0  0  0  0  0  0  0  0  0
   10.7580   22.0649    4.2869 O   0  0  0  0  0  0  0  0  0  0  0  0
   10.5994   22.5072    2.9157 C   0  0  0  0  0  0  0  0  0  0  0  0
    9.4192   23.4399    2.6776 C   0  0  0  0  0  0  0  0  0  0  0  0
    8.0685   22.9687    2.8911 C   0  0  0  0  0  0  0  0  0  0  0  0
    6.9460   23.8267    2.6046 C   0  0  0  0  0  0  0  0  0  0  0  0
    7.1683   25.1577    2.1099 C   0  0  0  0  0  0  0  0  0  0  0  0
    8.5100   25.6404    1.9003 C   0  0  0  0  0  0  0  0  0  0  0  0
    9.6367   24.7897    2.1833 C   0  0  0  0  0  0  0  0  0  0  0  0
   14.9524   20.6760    6.3276 C   0  0  0  0  0  0  0  0  0  0  0  0
   15.7910   20.8799    7.5473 C   0  0  0  0  0  0  0  0  0  0  0  0
   16.3831   21.9490    7.7226 O   0  0  0  0  0  0  0  0  0  0  0  0
   15.8849   19.8443    8.4560 N   0  0  0  0  0  0  0  0  0  0  0  0
   15.4076   19.0024    8.2752 H   0  0  0  0  0  0  0  0  0  0  0  0
   16.6668   19.9656    9.6666 C   0  0  0  0  0  0  0  0  0  0  0  0
   16.8056   18.6561   10.4049 C   0  0  0  0  0  0  0  0  0  0  0  0
   15.8657   17.5756   10.5461 C   0  0  0  0  0  0  0  0  0  0  0  0
   16.2344   16.4038   11.3064 C   0  0  0  0  0  0  0  0  0  0  0  0
   17.5384   16.3210   11.9133 C   0  0  0  0  0  0  0  0  0  0  0  0
   18.4876   17.3925   11.7724 C   0  0  0  0  0  0  0  0  0  0  0  0
   18.1060   18.5520   11.0136 C   0  0  0  0  0  0  0  0  0  0  0  0
   18.9117   19.7710   10.7193 C   0  0  0  0  0  0  0  0  0  0  0  0
   18.1451   20.3608    9.5089 C   0  0  0  0  0  0  0  0  0  0  0  0
   18.6345   19.8033    8.2887 O   0  0  0  0  0  0  0  0  0  0  0  0
   18.5233   18.8399    8.3059 H   0  0  0  0  0  0  0  0  0  0  0  0
   15.7238   20.9778    5.1328 O   0  0  0  0  0  0  0  0  0  0  0  0
   15.1282   20.4242    3.9311 C   0  0  0  0  0  0  0  0  0  0  0  0
   15.9867   19.3674    3.2507 C   0  0  0  0  0  0  0  0  0  0  0  0
   17.1066   18.7699    3.9633 C   0  0  0  0  0  0  0  0  0  0  0  0
   17.8401   17.6838    3.3674 C   0  0  0  0  0  0  0  0  0  0  0  0
   17.4726   17.2002    2.0648 C   0  0  0  0  0  0  0  0  0  0  0  0
   16.3744   17.7973    1.3472 C   0  0  0  0  0  0  0  0  0  0  0  0
   15.6320   18.8782    1.9328 C   0  0  0  0  0  0  0  0  0  0  0  0
  1  2  1  0  0  0
  1 27  1  0  0  0
  1  4  1  0  0  0
 27 43  1  0  0  0
 27 28  1  0  0  0
 43 44  1  0  0  0
 44 45  1  0  0  0
 45 46  2  0  0  0
 45 50  1  0  0  0
 46 47  1  0  0  0
 47 48  2  0  0  0
 48 49  1  0  0  0
 49 50  2  0  0  0
 28 29  2  0  0  0
 28 30  1  0  0  0
 30 32  1  0  0  0
 32 33  1  0  0  0
 32 40  1  0  0  0
 33 34  2  0  0  0
 33 38  1  0  0  0
 34 35  1  0  0  0
 35 36  2  0  0  0
 36 37  1  0  0  0
 37 38  2  0  0  0
 38 39  1  0  0  0
 39 40  1  0  0  0
 40 41  1  0  0  0
  4  5  1  0  0  0
  4  7  1  0  0  0
  7 19  1  0  0  0
  7  8  1  0  0  0
 19 20  1  0  0  0
 20 21  1  0  0  0
 21 22  2  0  0  0
 21 26  1  0  0  0
 22 23  1  0  0  0
 23 24  2  0  0  0
 24 25  1  0  0  0
 25 26  2  0  0  0
  8  9  2  0  0  0
  8 10  1  0  0  0
 10 12  1  0  0  0
 12 13  1  0  0  0
 13 14  2  0  0  0
 13 18  1  0  0  0
 14 15  1  0  0  0
 15 16  2  0  0  0
 16 17  1  0  0  0
 17 18  2  0  0  0
  2  3  1  0  0  0
 30 31  1  0  0  0
 41 42  1  0  0  0
  5  6  1  0  0  0
 10 11  1  0  0  0
M  END
> <minimizedAffinity>
-10.51811

$$$$
1D4H_BEH_B_501


 50 54  0  0  0  0  0  0  0  0999 V2000
   13.8206   22.4119    4.8220 C   0  0  0  0  0  0  0  0  0  0  0  0
   15.2638   22.5254    4.6157 O   0  0  0  0  0  0  0  0  0  0  0  0
   15.6796   21.6604    4.7563 H   0  0  0  0  0  0  0  0  0  0  0  0
   13.5557   22.0077    6.2498 C   0  0  0  0  0  0  0  0  0  0  0  0
   14.4955   20.9416    6.5591 O   0  0  0  0  0  0  0  0  0  0  0  0
   15.4024   21.2737    6.4685 H   0  0  0  0  0  0  0  0  0  0  0  0
   13.6840   23.1530    7.2561 C   0  0  0  0  0  0  0  0  0  0  0  0
   12.7497   24.2632    6.8135 C   0  0  0  0  0  0  0  0  0  0  0  0
   13.1768   25.2895    6.2623 O   0  0  0  0  0  0  0  0  0  0  0  0
   11.4065   24.1396    7.0933 N   0  0  0  0  0  0  0  0  0  0  0  0
   11.0798   23.3376    7.5615 H   0  0  0  0  0  0  0  0  0  0  0  0
   10.4680   25.1745    6.7077 C   0  0  0  0  0  0  0  0  0  0  0  0
   10.0325   26.1431    7.6729 C   0  0  0  0  0  0  0  0  0  0  0  0
   10.5904   26.1305    9.0131 C   0  0  0  0  0  0  0  0  0  0  0  0
   10.1549   27.1084    9.9770 C   0  0  0  0  0  0  0  0  0  0  0  0
    9.1715   28.0925    9.6115 C   0  0  0  0  0  0  0  0  0  0  0  0
    8.6139   28.1084    8.2828 C   0  0  0  0  0  0  0  0  0  0  0  0
    9.0419   27.1359    7.3133 C   0  0  0  0  0  0  0  0  0  0  0  0
   15.0432   23.6691    7.3465 O   0  0  0  0  0  0  0  0  0  0  0  0
   15.6030   23.5379    8.6772 C   0  0  0  0  0  0  0  0  0  0  0  0
   16.1468   22.1543    9.0081 C   0  0  0  0  0  0  0  0  0  0  0  0
   17.4156   21.7247    8.4625 C   0  0  0  0  0  0  0  0  0  0  0  0
   17.9032   20.3926    8.7197 C   0  0  0  0  0  0  0  0  0  0  0  0
   17.1293   19.4886    9.5256 C   0  0  0  0  0  0  0  0  0  0  0  0
   15.8673   19.9083   10.0805 C   0  0  0  0  0  0  0  0  0  0  0  0
   15.3726   21.2368    9.8280 C   0  0  0  0  0  0  0  0  0  0  0  0
   13.2107   21.4850    3.7992 C   0  0  0  0  0  0  0  0  0  0  0  0
   14.4150   20.9603    3.0872 C   0  0  0  0  0  0  0  0  0  0  0  0
   14.7733   21.4637    2.0183 O   0  0  0  0  0  0  0  0  0  0  0  0
   15.1004   19.9041    3.6543 N   0  0  0  0  0  0  0  0  0  0  0  0
   14.7769   19.5216    4.5018 H   0  0  0  0  0  0  0  0  0  0  0  0
   16.2818   19.3457    3.0343 C   0  0  0  0  0  0  0  0  0  0  0  0
   17.1298   18.5552    4.0013 C   0  0  0  0  0  0  0  0  0  0  0  0
   17.3818   18.7801    5.4001 C   0  0  0  0  0  0  0  0  0  0  0  0
   18.2355   17.8690    6.1269 C   0  0  0  0  0  0  0  0  0  0  0  0
   18.8244   16.7410    5.4511 C   0  0  0  0  0  0  0  0  0  0  0  0
   18.5732   16.5035    4.0548 C   0  0  0  0  0  0  0  0  0  0  0  0
   17.7223   17.4191    3.3452 C   0  0  0  0  0  0  0  0  0  0  0  0
   17.3079   17.3765    1.9141 C   0  0  0  0  0  0  0  0  0  0  0  0
   16.0640   18.3001    1.9271 C   0  0  0  0  0  0  0  0  0  0  0  0
   14.8891   17.5505    2.2380 O   0  0  0  0  0  0  0  0  0  0  0  0
   14.9929   17.1325    3.1071 H   0  0  0  0  0  0  0  0  0  0  0  0
   12.3534   22.2040    2.8710 O   0  0  0  0  0  0  0  0  0  0  0  0
   11.6766   23.3263    3.4937 C   0  0  0  0  0  0  0  0  0  0  0  0
   10.2871   23.5937    2.9329 C   0  0  0  0  0  0  0  0  0  0  0  0
    9.2875   22.5356    2.9292 C   0  0  0  0  0  0  0  0  0  0  0  0
    7.9388   22.8227    2.5152 C   0  0  0  0  0  0  0  0  0  0  0  0
    7.5856   24.1509    2.0948 C   0  0  0  0  0  0  0  0  0  0  0  0
    8.5741   25.1999    2.0816 C   0  0  0  0  0  0  0  0  0  0  0  0
    9.9216   24.9271    2.4966 C   0  0  0  0  0  0  0  0  0  0  0  0
  1  2  1  0  0  0
  1 27  1  0  0  0
  1  4  1  0  0  0
 27 43  1  0  0  0
 27 28  1  0  0  0
 43 44  1  0  0  0
 44 45  1  0  0  0
 45 46  2  0  0  0
 45 50  1  0  0  0
 46 47  1  0  0  0
 47 48  2  0  0  0
 48 49  1  0  0  0
 49 50  2  0  0  0
 28 29  2  0  0  0
 28 30  1  0  0  0
 30 32  1  0  0  0
 32 33  1  0  0  0
 32 40  1  0  0  0
 33 34  2  0  0  0
 33 38  1  0  0  0
 34 35  1  0  0  0
 35 36  2  0  0  0
 36 37  1  0  0  0
 37 38  2  0  0  0
 38 39  1  0  0  0
 39 40  1  0  0  0
 40 41  1  0  0  0
  4  5  1  0  0  0
  4  7  1  0  0  0
  7 19  1  0  0  0
  7  8  1  0  0  0
 19 20  1  0  0  0
 20 21  1  0  0  0
 21 22  2  0  0  0
 21 26  1  0  0  0
 22 23  1  0  0  0
 23 24  2  0  0  0
 24 25  1  0  0  0
 25 26  2  0  0  0
  8  9  2  0  0  0
  8 10  1  0  0  0
 10 12  1  0  0  0
 12 13  1  0  0  0
 13 14  2  0  0  0
 13 18  1  0  0  0
 14 15  1  0  0  0
 15 16  2  0  0  0
 16 17  1  0  0  0
 17 18  2  0  0  0
  2  3  1  0  0  0
 30 31  1  0  0  0
 41 42  1  0  0  0
  5  6  1  0  0  0
 10 11  1  0  0  0
M  END
> <minimizedAffinity>
-10.28351

$$$$
1D4H_BEH_B_501


 50 54  0  0  0  0  0  0  0  0999 V2000
   11.7373   23.9980    4.0031 C   0  0  0  0  0  0  0  0  0  0  0  0
   12.4347   24.0975    2.7215 O   0  0  0  0  0  0  0  0  0  0  0  0
   13.0994   23.3938    2.6597 H   0  0  0  0  0  0  0  0  0  0  0  0
   12.7260   24.2079    5.1214 C   0  0  0  0  0  0  0  0  0  0  0  0
   13.8627   24.9070    4.5429 O   0  0  0  0  0  0  0  0  0  0  0  0
   13.5709   25.7620    4.1898 H   0  0  0  0  0  0  0  0  0  0  0  0
   12.1626   24.9826    6.3144 C   0  0  0  0  0  0  0  0  0  0  0  0
   13.1831   24.9114    7.4345 C   0  0  0  0  0  0  0  0  0  0  0  0
   13.2911   25.8198    8.2728 O   0  0  0  0  0  0  0  0  0  0  0  0
   14.0428   23.8355    7.4702 N   0  0  0  0  0  0  0  0  0  0  0  0
   13.9734   23.1354    6.7815 H   0  0  0  0  0  0  0  0  0  0  0  0
   15.0479   23.7205    8.5080 C   0  0  0  0  0  0  0  0  0  0  0  0
   15.7513   22.4830    8.6907 C   0  0  0  0  0  0  0  0  0  0  0  0
   17.1732   22.4103    8.4072 C   0  0  0  0  0  0  0  0  0  0  0  0
   17.8766   21.1677    8.5978 C   0  0  0  0  0  0  0  0  0  0  0  0
   17.1717   20.0050    9.0672 C   0  0  0  0  0  0  0  0  0  0  0  0
   15.7600   20.0719    9.3489 C   0  0  0  0  0  0  0  0  0  0  0  0
   15.0486   21.3078    9.1613 C   0  0  0  0  0  0  0  0  0  0  0  0
   10.8912   24.4457    6.7807 O   0  0  0  0  0  0  0  0  0  0  0  0
    9.7793   25.3391    6.5225 C   0  0  0  0  0  0  0  0  0  0  0  0
    9.5077   26.3558    7.6234 C   0  0  0  0  0  0  0  0  0  0  0  0
   10.0519   26.1527    8.9480 C   0  0  0  0  0  0  0  0  0  0  0  0
    9.7437   27.0778   10.0097 C   0  0  0  0  0  0  0  0  0  0  0  0
    8.8968   28.2100    9.7514 C   0  0  0  0  0  0  0  0  0  0  0  0
    8.3549   28.4264    8.4337 C   0  0  0  0  0  0  0  0  0  0  0  0
    8.6572   27.5069    7.3677 C   0  0  0  0  0  0  0  0  0  0  0  0
   10.9772   22.6975    4.0928 C   0  0  0  0  0  0  0  0  0  0  0  0
   11.9603   21.8005    4.7722 C   0  0  0  0  0  0  0  0  0  0  0  0
   11.7617   21.4263    5.9318 O   0  0  0  0  0  0  0  0  0  0  0  0
   13.0856   21.4147    4.0709 N   0  0  0  0  0  0  0  0  0  0  0  0
   13.2147   21.7436    3.1520 H   0  0  0  0  0  0  0  0  0  0  0  0
   14.0792   20.5395    4.6527 C   0  0  0  0  0  0  0  0  0  0  0  0
   14.8683   19.7805    3.6132 C   0  0  0  0  0  0  0  0  0  0  0  0
   14.4464   19.2516    2.3432 C   0  0  0  0  0  0  0  0  0  0  0  0
   15.3989   18.5584    1.5068 C   0  0  0  0  0  0  0  0  0  0  0  0
   16.7628   18.4048    1.9448 C   0  0  0  0  0  0  0  0  0  0  0  0
   17.1963   18.9358    3.2095 C   0  0  0  0  0  0  0  0  0  0  0  0
   16.2369   19.6224    4.0306 C   0  0  0  0  0  0  0  0  0  0  0  0
   16.4477   20.2634    5.3596 C   0  0  0  0  0  0  0  0  0  0  0  0
   15.2184   21.2025    5.4458 C   0  0  0  0  0  0  0  0  0  0  0  0
   15.5118   22.4648    4.8462 O   0  0  0  0  0  0  0  0  0  0  0  0
   15.7552   22.3323    3.9166 H   0  0  0  0  0  0  0  0  0  0  0  0
   10.6517   22.1773    2.7748 O   0  0  0  0  0  0  0  0  0  0  0  0
    9.2463   21.8425    2.6400 C   0  0  0  0  0  0  0  0  0  0  0  0
    8.3320   23.0558    2.5468 C   0  0  0  0  0  0  0  0  0  0  0  0
    8.7681   24.2422    1.8250 C   0  0  0  0  0  0  0  0  0  0  0  0
    7.8573   25.3401    1.6303 C   0  0  0  0  0  0  0  0  0  0  0  0
    6.5232   25.2670    2.1601 C   0  0  0  0  0  0  0  0  0  0  0  0
    6.0896   24.1015    2.8889 C   0  0  0  0  0  0  0  0  0  0  0  0
    6.9873   22.9979    3.0857 C   0  0  0  0  0  0  0  0  0  0  0  0
  1  2  1  0  0  0
  1 27  1  0  0  0
  1  4  1  0  0  0
 27 43  1  0  0  0
 27 28  1  0  0  0
 43 44  1  0  0  0
 44 45  1  0  0  0
 45 46  2  0  0  0
 45 50  1  0  0  0
 46 47  1  0  0  0
 47 48  2  0  0  0
 48 49  1  0  0  0
 49 50  2  0  0  0
 28 29  2  0  0  0
 28 30  1  0  0  0
 30 32  1  0  0  0
 32 33  1  0  0  0
 32 40  1  0  0  0
 33 34  2  0  0  0
 33 38  1  0  0  0
 34 35  1  0  0  0
 35 36  2  0  0  0
 36 37  1  0  0  0
 37 38  2  0  0  0
 38 39  1  0  0  0
 39 40  1  0  0  0
 40 41  1  0  0  0
  4  5  1  0  0  0
  4  7  1  0  0  0
  7 19  1  0  0  0
  7  8  1  0  0  0
 19 20  1  0  0  0
 20 21  1  0  0  0
 21 22  2  0  0  0
 21 26  1  0  0  0
 22 23  1  0  0  0
 23 24  2  0  0  0
 24 25  1  0  0  0
 25 26  2  0  0  0
  8  9  2  0  0  0
  8 10  1  0  0  0
 10 12  1  0  0  0
 12 13  1  0  0  0
 13 14  2  0  0  0
 13 18  1  0  0  0
 14 15  1  0  0  0
 15 16  2  0  0  0
 16 17  1  0  0  0
 17 18  2  0  0  0
  2  3  1  0  0  0
 30 31  1  0  0  0
 41 42  1  0  0  0
  5  6  1  0  0  0
 10 11  1  0  0  0
M  END
> <minimizedAffinity>
-10.27435

$$$$
