4TTE_36Z_A_1204


 20 21  0  0  0  0  0  0  0  0999 V2000
  -13.4778   22.5499    9.6660 C   0  0  0  0  0  0  0  0  0  0  0  0
  -14.4753   23.5258    9.5573 C   0  0  0  0  0  0  0  0  0  0  0  0
  -13.0033   22.2039   10.9409 C   0  0  0  0  0  0  0  0  0  0  0  0
  -13.4877   22.8468   12.0800 C   0  0  0  0  0  0  0  0  0  0  0  0
  -13.0178   22.5185   13.2752 N   0  0  0  0  0  0  0  0  0  0  0  0
  -14.4657   23.8297   11.9651 C   0  0  0  0  0  0  0  0  0  0  0  0
  -14.9662   24.1768   10.6990 C   0  0  0  0  0  0  0  0  0  0  0  0
  -13.3591   22.9717   14.0798 H   0  0  0  0  0  0  0  0  0  0  0  0
  -12.3276   21.8213   13.3583 H   0  0  0  0  0  0  0  0  0  0  0  0
  -14.9525   20.2515    8.0773 C   0  0  0  0  0  0  0  0  0  0  0  0
  -13.5950   20.9373    7.8618 C   0  0  0  0  0  0  0  0  0  0  0  0
  -12.7266   20.6364    6.8148 O   0  0  0  0  0  0  0  0  0  0  0  0
  -11.7743   21.3429    6.9078 N   0  0  0  0  0  0  0  0  0  0  0  0
  -11.8860   22.1332    7.9629 C   0  0  0  0  0  0  0  0  0  0  0  0
  -10.8154   23.1679    8.3697 C   0  0  0  0  0  0  0  0  0  0  0  0
  -13.0241   21.8876    8.5887 C   0  0  0  0  0  0  0  0  0  0  0  0
  -15.9668   25.1537   10.5909 C   0  0  0  0  0  0  0  0  0  0  0  0
  -16.0192   26.0736   11.4145 O   0  0  0  0  0  0  0  0  0  0  0  0
  -16.9004   24.9366    9.6028 O   0  0  0  0  0  0  0  0  0  0  0  0
  -18.2220   25.4326    9.8574 C   0  0  0  0  0  0  0  0  0  0  0  0
 18 17  2  0  0  0
 19 20  1  0  0  0
 19 17  1  0  0  0
 17  7  1  0  0  0
  6  7  2  0  0  0
  6  4  1  0  0  0
  7  2  1  0  0  0
  5  4  1  0  0  0
  4  3  2  0  0  0
  2  1  2  0  0  0
 15 14  1  0  0  0
  3  1  1  0  0  0
  1 16  1  0  0  0
 14 16  1  0  0  0
 14 13  2  0  0  0
 16 11  2  0  0  0
 13 12  1  0  0  0
 11 10  1  0  0  0
 11 12  1  0  0  0
  5  8  1  0  0  0
  5  9  1  0  0  0
M  END
> <minimizedAffinity>
-6.20618

$$$$
4TTE_36Z_A_1204


 20 21  0  0  0  0  0  0  0  0999 V2000
  -13.2001   22.6907   10.0328 C   0  0  0  0  0  0  0  0  0  0  0  0
  -13.5562   21.3381   10.0877 C   0  0  0  0  0  0  0  0  0  0  0  0
  -12.1381   23.0794    9.2014 C   0  0  0  0  0  0  0  0  0  0  0  0
  -11.4222   22.1317    8.4700 C   0  0  0  0  0  0  0  0  0  0  0  0
  -10.4124   22.5141    7.7013 N   0  0  0  0  0  0  0  0  0  0  0  0
  -11.7680   20.7859    8.5426 C   0  0  0  0  0  0  0  0  0  0  0  0
  -12.8399   20.3798    9.3552 C   0  0  0  0  0  0  0  0  0  0  0  0
   -9.9065   21.8459    7.1847 H   0  0  0  0  0  0  0  0  0  0  0  0
  -10.1682   23.4663    7.6469 H   0  0  0  0  0  0  0  0  0  0  0  0
  -15.7669   24.2295    9.0206 C   0  0  0  0  0  0  0  0  0  0  0  0
  -14.9917   24.2913   10.3452 C   0  0  0  0  0  0  0  0  0  0  0  0
  -15.3490   25.1011   11.4210 O   0  0  0  0  0  0  0  0  0  0  0  0
  -14.5708   24.9141   12.3008 N   0  0  0  0  0  0  0  0  0  0  0  0
  -13.6604   24.0277   11.9324 C   0  0  0  0  0  0  0  0  0  0  0  0
  -12.5028   23.5663   12.8431 C   0  0  0  0  0  0  0  0  0  0  0  0
  -13.8990   23.6274   10.6954 C   0  0  0  0  0  0  0  0  0  0  0  0
  -13.1971   19.0245    9.4085 C   0  0  0  0  0  0  0  0  0  0  0  0
  -12.6516   18.2769   10.2275 O   0  0  0  0  0  0  0  0  0  0  0  0
  -14.0804   18.6076    8.4385 O   0  0  0  0  0  0  0  0  0  0  0  0
  -13.6843   17.4649    7.6674 C   0  0  0  0  0  0  0  0  0  0  0  0
 18 17  2  0  0  0
 19 20  1  0  0  0
 19 17  1  0  0  0
 17  7  1  0  0  0
  6  7  2  0  0  0
  6  4  1  0  0  0
  7  2  1  0  0  0
  5  4  1  0  0  0
  4  3  2  0  0  0
  2  1  2  0  0  0
 15 14  1  0  0  0
  3  1  1  0  0  0
  1 16  1  0  0  0
 14 16  1  0  0  0
 14 13  2  0  0  0
 16 11  2  0  0  0
 13 12  1  0  0  0
 11 10  1  0  0  0
 11 12  1  0  0  0
  5  8  1  0  0  0
  5  9  1  0  0  0
M  END
> <minimizedAffinity>
-6.18861

$$$$
4TTE_36Z_A_1204


 20 21  0  0  0  0  0  0  0  0999 V2000
  -13.3405   22.8142    9.8067 C   0  0  0  0  0  0  0  0  0  0  0  0
  -14.4120   23.7135    9.7571 C   0  0  0  0  0  0  0  0  0  0  0  0
  -12.8349   22.4297   11.0584 C   0  0  0  0  0  0  0  0  0  0  0  0
  -13.3634   22.9621   12.2343 C   0  0  0  0  0  0  0  0  0  0  0  0
  -12.8641   22.5996   13.4075 N   0  0  0  0  0  0  0  0  0  0  0  0
  -14.4160   23.8703   12.1790 C   0  0  0  0  0  0  0  0  0  0  0  0
  -14.9476   24.2533   10.9361 C   0  0  0  0  0  0  0  0  0  0  0  0
  -13.2365   22.9749   14.2380 H   0  0  0  0  0  0  0  0  0  0  0  0
  -12.1210   21.9551   13.4483 H   0  0  0  0  0  0  0  0  0  0  0  0
  -10.6033   23.5046    8.3883 C   0  0  0  0  0  0  0  0  0  0  0  0
  -11.6966   22.4771    8.0594 C   0  0  0  0  0  0  0  0  0  0  0  0
  -11.6338   21.5867    6.9897 O   0  0  0  0  0  0  0  0  0  0  0  0
  -12.6136   20.9127    7.0099 N   0  0  0  0  0  0  0  0  0  0  0  0
  -13.3942   21.2616    8.0194 C   0  0  0  0  0  0  0  0  0  0  0  0
  -14.7475   20.5845    8.3236 C   0  0  0  0  0  0  0  0  0  0  0  0
  -12.8408   22.2564    8.6913 C   0  0  0  0  0  0  0  0  0  0  0  0
  -16.0222   25.1533   10.8872 C   0  0  0  0  0  0  0  0  0  0  0  0
  -16.2694   25.8690   11.8640 O   0  0  0  0  0  0  0  0  0  0  0  0
  -16.8002   25.0838    9.7537 O   0  0  0  0  0  0  0  0  0  0  0  0
  -18.1463   25.5636    9.8766 C   0  0  0  0  0  0  0  0  0  0  0  0
 18 17  2  0  0  0
 19 20  1  0  0  0
 19 17  1  0  0  0
 17  7  1  0  0  0
  6  7  2  0  0  0
  6  4  1  0  0  0
  7  2  1  0  0  0
  5  4  1  0  0  0
  4  3  2  0  0  0
  2  1  2  0  0  0
 15 14  1  0  0  0
  3  1  1  0  0  0
  1 16  1  0  0  0
 14 16  1  0  0  0
 14 13  2  0  0  0
 16 11  2  0  0  0
 13 12  1  0  0  0
 11 10  1  0  0  0
 11 12  1  0  0  0
  5  8  1  0  0  0
  5  9  1  0  0  0
M  END
> <minimizedAffinity>
-6.15449

$$$$
4TTE_36Z_A_1204


 20 21  0  0  0  0  0  0  0  0999 V2000
  -13.1066   22.6078   10.0867 C   0  0  0  0  0  0  0  0  0  0  0  0
  -13.4710   21.2571   10.1329 C   0  0  0  0  0  0  0  0  0  0  0  0
  -12.0954   23.0076    9.1990 C   0  0  0  0  0  0  0  0  0  0  0  0
  -11.4357   22.0717    8.4025 C   0  0  0  0  0  0  0  0  0  0  0  0
  -10.4727   22.4642    7.5806 N   0  0  0  0  0  0  0  0  0  0  0  0
  -11.7887   20.7274    8.4659 C   0  0  0  0  0  0  0  0  0  0  0  0
  -12.8110   20.3107    9.3349 C   0  0  0  0  0  0  0  0  0  0  0  0
  -10.0065   21.8044    7.0179 H   0  0  0  0  0  0  0  0  0  0  0  0
  -10.2236   23.4155    7.5327 H   0  0  0  0  0  0  0  0  0  0  0  0
  -12.3011   23.7016   12.9390 C   0  0  0  0  0  0  0  0  0  0  0  0
  -13.4615   24.0553   11.9967 C   0  0  0  0  0  0  0  0  0  0  0  0
  -14.4223   25.0257   12.2725 O   0  0  0  0  0  0  0  0  0  0  0  0
  -15.1711   25.0792   11.3500 N   0  0  0  0  0  0  0  0  0  0  0  0
  -14.8257   24.2016   10.4223 C   0  0  0  0  0  0  0  0  0  0  0  0
  -15.5963   24.0132    9.0983 C   0  0  0  0  0  0  0  0  0  0  0  0
  -13.7538   23.5342   10.8133 C   0  0  0  0  0  0  0  0  0  0  0  0
  -13.1767   18.9574    9.3797 C   0  0  0  0  0  0  0  0  0  0  0  0
  -12.6171   18.1955   10.1758 O   0  0  0  0  0  0  0  0  0  0  0  0
  -14.0859   18.5590    8.4260 O   0  0  0  0  0  0  0  0  0  0  0  0
  -13.6679   17.5012    7.5522 C   0  0  0  0  0  0  0  0  0  0  0  0
 18 17  2  0  0  0
 19 20  1  0  0  0
 19 17  1  0  0  0
 17  7  1  0  0  0
  6  7  2  0  0  0
  6  4  1  0  0  0
  7  2  1  0  0  0
  5  4  1  0  0  0
  4  3  2  0  0  0
  2  1  2  0  0  0
 15 14  1  0  0  0
  3  1  1  0  0  0
  1 16  1  0  0  0
 14 16  1  0  0  0
 14 13  2  0  0  0
 16 11  2  0  0  0
 13 12  1  0  0  0
 11 10  1  0  0  0
 11 12  1  0  0  0
  5  8  1  0  0  0
  5  9  1  0  0  0
M  END
> <minimizedAffinity>
-6.08971

$$$$
4TTE_36Z_A_1204


 20 21  0  0  0  0  0  0  0  0999 V2000
  -12.7766   21.1288    9.4532 C   0  0  0  0  0  0  0  0  0  0  0  0
  -13.3454   21.6428   10.6243 C   0  0  0  0  0  0  0  0  0  0  0  0
  -11.9231   21.9478    8.6975 C   0  0  0  0  0  0  0  0  0  0  0  0
  -11.6739   23.2649    9.0830 C   0  0  0  0  0  0  0  0  0  0  0  0
  -10.8772   24.0294    8.3497 N   0  0  0  0  0  0  0  0  0  0  0  0
  -12.2568   23.7772   10.2379 C   0  0  0  0  0  0  0  0  0  0  0  0
  -13.0994   22.9669   11.0173 C   0  0  0  0  0  0  0  0  0  0  0  0
  -10.7007   24.9592    8.6210 H   0  0  0  0  0  0  0  0  0  0  0  0
  -10.4620   23.6675    7.5337 H   0  0  0  0  0  0  0  0  0  0  0  0
  -10.9378   18.6493   10.1252 C   0  0  0  0  0  0  0  0  0  0  0  0
  -12.2573   18.7648    9.3474 C   0  0  0  0  0  0  0  0  0  0  0  0
  -12.9253   17.6822    8.7793 O   0  0  0  0  0  0  0  0  0  0  0  0
  -13.9181   18.0873    8.2647 N   0  0  0  0  0  0  0  0  0  0  0  0
  -14.0126   19.3988    8.4103 C   0  0  0  0  0  0  0  0  0  0  0  0
  -15.1832   20.2360    7.8526 C   0  0  0  0  0  0  0  0  0  0  0  0
  -12.9683   19.8518    9.0822 C   0  0  0  0  0  0  0  0  0  0  0  0
  -13.6679   23.4821   12.1914 C   0  0  0  0  0  0  0  0  0  0  0  0
  -13.7705   22.7632   13.1914 O   0  0  0  0  0  0  0  0  0  0  0  0
  -14.1759   24.7577   12.0917 O   0  0  0  0  0  0  0  0  0  0  0  0
  -15.5092   24.8720   11.5755 C   0  0  0  0  0  0  0  0  0  0  0  0
 18 17  2  0  0  0
 19 20  1  0  0  0
 19 17  1  0  0  0
 17  7  1  0  0  0
  6  7  2  0  0  0
  6  4  1  0  0  0
  7  2  1  0  0  0
  5  4  1  0  0  0
  4  3  2  0  0  0
  2  1  2  0  0  0
 15 14  1  0  0  0
  3  1  1  0  0  0
  1 16  1  0  0  0
 14 16  1  0  0  0
 14 13  2  0  0  0
 16 11  2  0  0  0
 13 12  1  0  0  0
 11 10  1  0  0  0
 11 12  1  0  0  0
  5  8  1  0  0  0
  5  9  1  0  0  0
M  END
> <minimizedAffinity>
-5.67398

$$$$
4TTE_36Z_A_1204


 20 21  0  0  0  0  0  0  0  0999 V2000
  -11.9537   24.0677   11.2810 C   0  0  0  0  0  0  0  0  0  0  0  0
  -13.1706   24.6035   11.7184 C   0  0  0  0  0  0  0  0  0  0  0  0
  -11.9443   23.2455   10.1433 C   0  0  0  0  0  0  0  0  0  0  0  0
  -13.1309   22.9343    9.4795 C   0  0  0  0  0  0  0  0  0  0  0  0
  -13.1061   22.1442    8.4155 N   0  0  0  0  0  0  0  0  0  0  0  0
  -14.3405   23.4542    9.9295 C   0  0  0  0  0  0  0  0  0  0  0  0
  -14.3677   24.2938   11.0557 C   0  0  0  0  0  0  0  0  0  0  0  0
  -13.9431   21.9239    7.9463 H   0  0  0  0  0  0  0  0  0  0  0  0
  -12.2506   21.7776    8.0944 H   0  0  0  0  0  0  0  0  0  0  0  0
   -9.8637   26.2482   10.3545 C   0  0  0  0  0  0  0  0  0  0  0  0
   -9.8861   25.2987   11.5617 C   0  0  0  0  0  0  0  0  0  0  0  0
   -8.8997   25.2638   12.5450 O   0  0  0  0  0  0  0  0  0  0  0  0
   -9.2068   24.4435   13.3497 N   0  0  0  0  0  0  0  0  0  0  0  0
  -10.3491   23.8684   13.0111 C   0  0  0  0  0  0  0  0  0  0  0  0
  -11.0223   22.7558   13.8427 C   0  0  0  0  0  0  0  0  0  0  0  0
  -10.7927   24.3847   11.8781 C   0  0  0  0  0  0  0  0  0  0  0  0
  -15.5871   24.8317   11.4925 C   0  0  0  0  0  0  0  0  0  0  0  0
  -15.6211   25.5294   12.5120 O   0  0  0  0  0  0  0  0  0  0  0  0
  -16.6968   24.4348   10.7809 O   0  0  0  0  0  0  0  0  0  0  0  0
  -17.5500   25.4819   10.2984 C   0  0  0  0  0  0  0  0  0  0  0  0
 18 17  2  0  0  0
 19 20  1  0  0  0
 19 17  1  0  0  0
 17  7  1  0  0  0
  6  7  2  0  0  0
  6  4  1  0  0  0
  7  2  1  0  0  0
  5  4  1  0  0  0
  4  3  2  0  0  0
  2  1  2  0  0  0
 15 14  1  0  0  0
  3  1  1  0  0  0
  1 16  1  0  0  0
 14 16  1  0  0  0
 14 13  2  0  0  0
 16 11  2  0  0  0
 13 12  1  0  0  0
 11 10  1  0  0  0
 11 12  1  0  0  0
  5  8  1  0  0  0
  5  9  1  0  0  0
M  END
> <minimizedAffinity>
-5.61836

$$$$
4TTE_36Z_A_1204


 20 21  0  0  0  0  0  0  0  0999 V2000
  -13.7208   23.1569    9.7170 C   0  0  0  0  0  0  0  0  0  0  0  0
  -12.3899   23.4019    9.3594 C   0  0  0  0  0  0  0  0  0  0  0  0
  -14.4141   22.1162    9.0793 C   0  0  0  0  0  0  0  0  0  0  0  0
  -13.8027   21.3616    8.0782 C   0  0  0  0  0  0  0  0  0  0  0  0
  -14.4768   20.3922    7.4756 N   0  0  0  0  0  0  0  0  0  0  0  0
  -12.4855   21.6214    7.7131 C   0  0  0  0  0  0  0  0  0  0  0  0
  -11.7694   22.6469    8.3529 C   0  0  0  0  0  0  0  0  0  0  0  0
  -14.0461   19.8590    6.7689 H   0  0  0  0  0  0  0  0  0  0  0  0
  -15.4080   20.2055    7.7347 H   0  0  0  0  0  0  0  0  0  0  0  0
  -12.8200   23.3237   12.7406 C   0  0  0  0  0  0  0  0  0  0  0  0
  -13.9847   23.9768   11.9814 C   0  0  0  0  0  0  0  0  0  0  0  0
  -14.9035   24.8481   12.5624 O   0  0  0  0  0  0  0  0  0  0  0  0
  -15.6677   25.1971   11.7204 N   0  0  0  0  0  0  0  0  0  0  0  0
  -15.3730   24.6272   10.5634 C   0  0  0  0  0  0  0  0  0  0  0  0
  -16.1758   24.8661    9.2669 C   0  0  0  0  0  0  0  0  0  0  0  0
  -14.3191   23.8422   10.7057 C   0  0  0  0  0  0  0  0  0  0  0  0
  -10.4354   22.8909    7.9951 C   0  0  0  0  0  0  0  0  0  0  0  0
   -9.8551   22.1195    7.2234 O   0  0  0  0  0  0  0  0  0  0  0  0
   -9.8344   23.9481    8.6402 O   0  0  0  0  0  0  0  0  0  0  0  0
   -9.3527   25.0107    7.8059 C   0  0  0  0  0  0  0  0  0  0  0  0
 18 17  2  0  0  0
 19 20  1  0  0  0
 19 17  1  0  0  0
 17  7  1  0  0  0
  6  7  2  0  0  0
  6  4  1  0  0  0
  7  2  1  0  0  0
  5  4  1  0  0  0
  4  3  2  0  0  0
  2  1  2  0  0  0
 15 14  1  0  0  0
  3  1  1  0  0  0
  1 16  1  0  0  0
 14 16  1  0  0  0
 14 13  2  0  0  0
 16 11  2  0  0  0
 13 12  1  0  0  0
 11 10  1  0  0  0
 11 12  1  0  0  0
  5  8  1  0  0  0
  5  9  1  0  0  0
M  END
> <minimizedAffinity>
-5.50459

$$$$
4TTE_36Z_A_1204


 20 21  0  0  0  0  0  0  0  0999 V2000
  -12.8273   21.7637    9.7610 C   0  0  0  0  0  0  0  0  0  0  0  0
  -12.0634   20.5909    9.7754 C   0  0  0  0  0  0  0  0  0  0  0  0
  -14.0550   21.7653    9.0804 C   0  0  0  0  0  0  0  0  0  0  0  0
  -14.4918   20.6309    8.3965 C   0  0  0  0  0  0  0  0  0  0  0  0
  -15.6468   20.6543    7.7463 N   0  0  0  0  0  0  0  0  0  0  0  0
  -13.7199   19.4734    8.3980 C   0  0  0  0  0  0  0  0  0  0  0  0
  -12.4968   19.4467    9.0889 C   0  0  0  0  0  0  0  0  0  0  0  0
  -15.9560   19.8541    7.2632 H   0  0  0  0  0  0  0  0  0  0  0  0
  -16.1953   21.4718    7.7465 H   0  0  0  0  0  0  0  0  0  0  0  0
  -13.6588   22.5561   12.7041 C   0  0  0  0  0  0  0  0  0  0  0  0
  -12.7357   23.2366   11.6823 C   0  0  0  0  0  0  0  0  0  0  0  0
  -12.0354   24.4157   11.9277 O   0  0  0  0  0  0  0  0  0  0  0  0
  -11.3987   24.6779   10.9578 N   0  0  0  0  0  0  0  0  0  0  0  0
  -11.5980   23.7717   10.0148 C   0  0  0  0  0  0  0  0  0  0  0  0
  -10.9226   23.8225    8.6278 C   0  0  0  0  0  0  0  0  0  0  0  0
  -12.4485   22.8560   10.4453 C   0  0  0  0  0  0  0  0  0  0  0  0
  -11.7325   18.2708    9.1043 C   0  0  0  0  0  0  0  0  0  0  0  0
  -12.2416   17.2023    8.7487 O   0  0  0  0  0  0  0  0  0  0  0  0
  -10.4674   18.3950    9.6326 O   0  0  0  0  0  0  0  0  0  0  0  0
   -9.3767   18.1504    8.7337 C   0  0  0  0  0  0  0  0  0  0  0  0
 18 17  2  0  0  0
 19 20  1  0  0  0
 19 17  1  0  0  0
 17  7  1  0  0  0
  6  7  2  0  0  0
  6  4  1  0  0  0
  7  2  1  0  0  0
  5  4  1  0  0  0
  4  3  2  0  0  0
  2  1  2  0  0  0
 15 14  1  0  0  0
  3  1  1  0  0  0
  1 16  1  0  0  0
 14 16  1  0  0  0
 14 13  2  0  0  0
 16 11  2  0  0  0
 13 12  1  0  0  0
 11 10  1  0  0  0
 11 12  1  0  0  0
  5  8  1  0  0  0
  5  9  1  0  0  0
M  END
> <minimizedAffinity>
-5.49489

$$$$
4TTE_36Z_A_1204


 20 21  0  0  0  0  0  0  0  0999 V2000
  -12.7350   21.7118    9.0749 C   0  0  0  0  0  0  0  0  0  0  0  0
  -12.5352   21.9083   10.4463 C   0  0  0  0  0  0  0  0  0  0  0  0
  -13.7043   22.4821    8.4134 C   0  0  0  0  0  0  0  0  0  0  0  0
  -14.4840   23.4016    9.1148 C   0  0  0  0  0  0  0  0  0  0  0  0
  -15.4053   24.1101    8.4774 N   0  0  0  0  0  0  0  0  0  0  0  0
  -14.2945   23.5796   10.4817 C   0  0  0  0  0  0  0  0  0  0  0  0
  -13.3165   22.8310   11.1578 C   0  0  0  0  0  0  0  0  0  0  0  0
  -15.9561   24.7593    8.9717 H   0  0  0  0  0  0  0  0  0  0  0  0
  -15.5387   23.9870    7.5098 H   0  0  0  0  0  0  0  0  0  0  0  0
  -10.0013   22.3565    7.6284 C   0  0  0  0  0  0  0  0  0  0  0  0
  -10.8078   21.0561    7.7614 C   0  0  0  0  0  0  0  0  0  0  0  0
  -10.4077   19.8322    7.2295 O   0  0  0  0  0  0  0  0  0  0  0  0
  -11.2274   19.0184    7.5133 N   0  0  0  0  0  0  0  0  0  0  0  0
  -12.2072   19.5719    8.2089 C   0  0  0  0  0  0  0  0  0  0  0  0
  -13.4317   18.7887    8.7279 C   0  0  0  0  0  0  0  0  0  0  0  0
  -11.9699   20.8623    8.3692 C   0  0  0  0  0  0  0  0  0  0  0  0
  -13.1158   23.0294   12.5317 C   0  0  0  0  0  0  0  0  0  0  0  0
  -13.8461   22.4576   13.3484 O   0  0  0  0  0  0  0  0  0  0  0  0
  -12.1553   23.9592   12.8604 O   0  0  0  0  0  0  0  0  0  0  0  0
  -11.0067   23.4648   13.5629 C   0  0  0  0  0  0  0  0  0  0  0  0
 18 17  2  0  0  0
 19 20  1  0  0  0
 19 17  1  0  0  0
 17  7  1  0  0  0
  6  7  2  0  0  0
  6  4  1  0  0  0
  7  2  1  0  0  0
  5  4  1  0  0  0
  4  3  2  0  0  0
  2  1  2  0  0  0
 15 14  1  0  0  0
  3  1  1  0  0  0
  1 16  1  0  0  0
 14 16  1  0  0  0
 14 13  2  0  0  0
 16 11  2  0  0  0
 13 12  1  0  0  0
 11 10  1  0  0  0
 11 12  1  0  0  0
  5  8  1  0  0  0
  5  9  1  0  0  0
M  END
> <minimizedAffinity>
-5.42253

$$$$
4TTE_36Z_A_1204


 20 21  0  0  0  0  0  0  0  0999 V2000
  -13.1690   22.7787    9.9682 C   0  0  0  0  0  0  0  0  0  0  0  0
  -12.0585   23.1699    9.2113 C   0  0  0  0  0  0  0  0  0  0  0  0
  -13.4846   21.4136   10.0541 C   0  0  0  0  0  0  0  0  0  0  0  0
  -12.7295   20.4633    9.3668 C   0  0  0  0  0  0  0  0  0  0  0  0
  -13.0504   19.1797    9.4467 N   0  0  0  0  0  0  0  0  0  0  0  0
  -11.6379   20.8592    8.6004 C   0  0  0  0  0  0  0  0  0  0  0  0
  -11.2954   22.2192    8.5171 C   0  0  0  0  0  0  0  0  0  0  0  0
  -12.5181   18.5081    8.9620 H   0  0  0  0  0  0  0  0  0  0  0  0
  -13.8210   18.8978    9.9907 H   0  0  0  0  0  0  0  0  0  0  0  0
  -15.7930   24.2737    9.0407 C   0  0  0  0  0  0  0  0  0  0  0  0
  -15.0038   24.3119   10.3579 C   0  0  0  0  0  0  0  0  0  0  0  0
  -15.3721   25.0717   11.4661 O   0  0  0  0  0  0  0  0  0  0  0  0
  -14.5778   24.8773   12.3299 N   0  0  0  0  0  0  0  0  0  0  0  0
  -13.6458   24.0327   11.9197 C   0  0  0  0  0  0  0  0  0  0  0  0
  -12.4638   23.5745   12.8002 C   0  0  0  0  0  0  0  0  0  0  0  0
  -13.8875   23.6696   10.6718 C   0  0  0  0  0  0  0  0  0  0  0  0
  -10.1816   22.6105    7.7597 C   0  0  0  0  0  0  0  0  0  0  0  0
   -9.8551   21.9560    6.7636 O   0  0  0  0  0  0  0  0  0  0  0  0
   -9.4610   23.6664    8.2705 O   0  0  0  0  0  0  0  0  0  0  0  0
   -9.1128   24.7049    7.3445 C   0  0  0  0  0  0  0  0  0  0  0  0
 18 17  2  0  0  0
 19 20  1  0  0  0
 19 17  1  0  0  0
 17  7  1  0  0  0
  6  7  2  0  0  0
  6  4  1  0  0  0
  7  2  1  0  0  0
  5  4  1  0  0  0
  4  3  2  0  0  0
  2  1  2  0  0  0
 15 14  1  0  0  0
  3  1  1  0  0  0
  1 16  1  0  0  0
 14 16  1  0  0  0
 14 13  2  0  0  0
 16 11  2  0  0  0
 13 12  1  0  0  0
 11 10  1  0  0  0
 11 12  1  0  0  0
  5  8  1  0  0  0
  5  9  1  0  0  0
M  END
> <minimizedAffinity>
-5.38766

$$$$
