6E9A_J0S_B_201
  RCSB PDB11101803473D
Coordinates from PDB:6E9A:B:201 Model:1 without hydrogens
 40 43  0  0  0  0            999 V2000
   21.7930   28.8720   14.7660   O 0  0  0  0  0  0  0  0  0  0  0  0
   23.1520   28.9030   15.1660   C 0  0  0  0  0  0  0  0  0  0  0  0
   21.1920   27.6690   14.9770   C 0  0  0  0  0  0  0  0  0  0  0  0
   19.8130   27.6380   14.7090   C 0  0  0  0  0  0  0  0  0  0  0  0
   19.0610   26.5070   15.0270   C 0  0  0  0  0  0  0  0  0  0  0  0
   19.6620   25.3940   15.6060   C 0  0  0  0  0  0  0  0  0  0  0  0
   21.0240   25.4330   15.8480   C 0  0  0  0  0  0  0  0  0  0  0  0
   21.8120   26.5520   15.5140   C 0  0  0  0  0  0  0  0  0  0  0  0
   18.6710   24.0240   16.0770   S 0  0  0  0  0  0  0  0  0  0  0  0
   17.5790   23.8470   15.0920   O 0  0  0  0  0  0  0  0  0  0  0  0
   19.5800   22.8810   16.3180   O 0  0  0  0  0  0  0  0  0  0  0  0
   17.9820   24.3920   17.5230   N 0  0  0  0  0  0  0  0  0  0  0  0
   18.9060   24.6960   18.6070   C 0  0  0  0  0  0  0  0  0  0  0  0
   18.5760   24.0170   19.9500   C 0  0  0  0  0  0  0  0  0  0  0  0
   18.6790   22.5000   19.8720   C 0  0  0  0  0  0  0  0  0  0  0  0
   19.5050   24.5980   21.0400   C 0  0  0  0  0  0  0  0  0  0  0  0
   16.6890   25.0220   17.5130   C 0  0  0  0  0  0  0  0  0  0  0  0
   15.6270   24.0920   18.1250   C 0  0  0  0  0  0  0  0  0  0  0  0
   14.4800   24.8960   18.4410   O 0  0  0  0  0  0  0  0  0  0  0  0
   15.2340   22.9460   17.1900   C 0  0  0  0  0  0  0  0  0  0  0  0
   14.4150   21.9680   17.9660   N 0  0  0  0  0  0  0  0  0  0  0  0
   14.8920   20.8390   18.4740   C 0  0  0  0  0  0  0  0  0  0  0  0
   16.0450   20.4350   18.3620   O 0  0  0  0  0  0  0  0  0  0  0  0
   13.9720   20.0950   19.1680   O 0  0  0  0  0  0  0  0  0  0  0  0
   14.4740   18.8260   19.6030   C 0  0  0  0  0  0  0  0  0  0  0  0
   13.4170   18.2640   20.5450   C 0  0  0  0  0  0  0  0  0  0  0  0
   12.3600   17.6350   19.6400   C 0  0  0  0  0  0  0  0  0  0  0  0
   11.3280   18.5910   19.4240   O 0  0  0  0  0  0  0  0  0  0  0  0
   11.2950   19.0180   18.1530   C 0  0  0  0  0  0  0  0  0  0  0  0
   10.4530   19.8820   17.7830   O 0  0  0  0  0  0  0  0  0  0  0  0
   12.2190   18.3560   17.4690   N 0  0  0  0  0  0  0  0  0  0  0  0
   13.0100   17.4560   18.2790   C 0  0  0  0  0  0  0  0  0  0  0  0
   14.4590   17.8650   18.4420   C 0  0  0  0  0  0  0  0  0  0  0  0
   14.4290   23.4110   15.9600   C 0  0  0  0  0  0  0  0  0  0  0  0
   12.8730   21.5330   15.1060   C 0  0  0  0  0  0  0  0  0  0  0  0
   12.6340   20.4050   14.3250   C 0  0  0  0  0  0  0  0  0  0  0  0
   13.6090   19.9480   13.4420   C 0  0  0  0  0  0  0  0  0  0  0  0
   14.8410   20.6010   13.3410   C 0  0  0  0  0  0  0  0  0  0  0  0
   15.0850   21.7150   14.1560   C 0  0  0  0  0  0  0  0  0  0  0  0
   14.1080   22.1950   15.0500   C 0  0  0  0  0  0  0  0  0  0  0  0
 38 37  2  0  0  0  0
 38 39  1  0  0  0  0
 37 36  1  0  0  0  0
 39 40  2  0  0  0  0
 36 35  2  0  0  0  0
  4  3  2  0  0  0  0
  4  5  1  0  0  0  0
  1  3  1  0  0  0  0
  1  2  1  0  0  0  0
  3  8  1  0  0  0  0
  5  6  2  0  0  0  0
 40 35  1  0  0  0  0
 40 34  1  0  0  0  0
 10  9  2  0  0  0  0
  8  7  2  0  0  0  0
  6  7  1  0  0  0  0
  6  9  1  0  0  0  0
 34 20  1  0  0  0  0
  9 11  2  0  0  0  0
  9 12  1  0  0  0  0
 20 21  1  0  0  0  0
 20 18  1  0  0  0  0
 31 29  1  0  0  0  0
 31 32  1  0  0  0  0
 17 12  1  0  0  0  0
 17 18  1  0  0  0  0
 12 13  1  0  0  0  0
 30 29  2  0  0  0  0
 21 22  1  0  0  0  0
 18 19  1  0  0  0  0
 29 28  1  0  0  0  0
 32 33  1  0  0  0  0
 32 27  1  0  0  0  0
 23 22  2  0  0  0  0
 33 25  1  0  0  0  0
 22 24  1  0  0  0  0
 13 14  1  0  0  0  0
 24 25  1  0  0  0  0
 28 27  1  0  0  0  0
 25 26  1  0  0  0  0
 27 26  1  0  0  0  0
 15 14  1  0  0  0  0
 14 16  1  0  0  0  0
A    1
O39
A    2
C40
A    3
C2
A    4
C3
A    5
C4
A    6
C5
A    7
C6
A    8
C7
A    9
S8
A   10
O9
A   11
O10
A   12
N11
A   13
C12
A   14
C13
A   15
C14
A   16
C15
A   17
C16
A   18
C17
A   19
O18
A   20
C19
A   21
N20
A   22
C21
A   23
O22
A   24
O23
A   25
C24
A   26
C25
A   27
C26
A   28
O27
A   29
C28
A   30
O41
A   31
N29
A   32
C30
A   33
C31
A   34
C32
A   35
C33
A   36
C34
A   37
C35
A   38
C36
A   39
C37
A   40
C38
M  END
>  <InstanceId>
6E9A_J0S_B_201

>  <ChemCompId>
J0S

>  <PdbId>
6E9A

>  <ChainId>
B

>  <ResidueNumber>
201

>  <InsertionCode>


>  <Model>
1

>  <AltIds>


>  <MissingHeavyAtoms>
0

>  <ObservedFormula>
C28 N3 O8 S

>  <Name>
(3aS,5R,6aR)-2-oxohexahydro-2H-cyclopenta[d][1,3]oxazol-5-yl [(2S,3R)-3-hydroxy-4-{[(4-methoxyphenyl)sulfonyl](2-methylpropyl)amino}-1-phenylbutan-2-yl]carbamate

>  <SystematicName>
[(3~{a}~{S},5~{R},6~{a}~{R})-2-oxidanylidene-3,3~{a},4,5,6,6~{a}-hexahydrocyclopenta[d][1,3]oxazol-5-yl] ~{N}-[(2~{S},3~{R})-4-[(4-methoxyphenyl)sulfonyl-(2-methylpropyl)amino]-3-oxidanyl-1-phenyl-butan-2-yl]carbamate

>  <Synonyms>


>  <Type>
NON-POLYMER

>  <Formula>
C28 H37 N3 O8 S

>  <MolecularWeight>
575.674

>  <ModifiedDate>
2018-11-02

>  <Parent>


>  <OneLetterCode>


>  <SubcomponentList>


>  <AmbiguousFlag>
N

>  <InChI>
InChI=1S/C28H37N3O8S/c1-18(2)16-31(40(35,36)22-11-9-20(37-3)10-12-22)17-25(32)23(13-19-7-5-4-6-8-19)29-27(33)38-21-14-24-26(15-21)39-28(34)30-24/h4-12,18,21,23-26,32H,13-17H2,1-3H3,(H,29,33)(H,30,34)/t21-,23+,24+,25-,26-/m1/s1

>  <InChIKey>
SUKOCHXFOBSBBB-MMXJFWRNSA-N

>  <SMILES>
CC(C)CN(C[C@H]([C@H](Cc1ccccc1)NC(=O)O[C@@H]2C[C@H]3[C@@H](C2)OC(=O)N3)O)S(=O)(=O)c4ccc(cc4)OC

$$$$
