6E9A_J0S_B_201


 43 46  0  0  0  0  0  0  0  0999 V2000
   14.8555   22.5875   17.2215 C   0  0  0  0  0  0  0  0  0  0  0  0
   14.0467   21.6739   18.0821 N   0  0  0  0  0  0  0  0  0  0  0  0
   14.5694   20.7893   18.9214 C   0  0  0  0  0  0  0  0  0  0  0  0
   15.7672   20.5845   19.0905 O   0  0  0  0  0  0  0  0  0  0  0  0
   13.0657   21.7315   18.0231 H   0  0  0  0  0  0  0  0  0  0  0  0
   13.6457   20.0639   19.6300 O   0  0  0  0  0  0  0  0  0  0  0  0
   14.1383   18.7970   20.0817 C   0  0  0  0  0  0  0  0  0  0  0  0
   12.9739   18.1356   20.8079 C   0  0  0  0  0  0  0  0  0  0  0  0
   12.1144   17.5102   19.7115 C   0  0  0  0  0  0  0  0  0  0  0  0
   11.0810   18.4284   19.3730 O   0  0  0  0  0  0  0  0  0  0  0  0
   11.2326   18.9235   18.1358 C   0  0  0  0  0  0  0  0  0  0  0  0
   10.4165   19.7672   17.6727 O   0  0  0  0  0  0  0  0  0  0  0  0
   12.2904   18.3435   17.5838 N   0  0  0  0  0  0  0  0  0  0  0  0
   12.9864   17.4371   18.4701 C   0  0  0  0  0  0  0  0  0  0  0  0
   14.3650   17.9023   18.8901 C   0  0  0  0  0  0  0  0  0  0  0  0
   12.5751   18.5143   16.6569 H   0  0  0  0  0  0  0  0  0  0  0  0
   15.4032   23.7148   18.0997 C   0  0  0  0  0  0  0  0  0  0  0  0
   14.3352   24.5622   18.5503 O   0  0  0  0  0  0  0  0  0  0  0  0
   13.9108   24.9818   17.7857 H   0  0  0  0  0  0  0  0  0  0  0  0
   16.4190   24.6041   17.3618 C   0  0  0  0  0  0  0  0  0  0  0  0
   17.7423   24.0481   17.4546 N   0  0  0  0  0  0  0  0  0  0  0  0
   18.4291   23.4604   16.0819 S   0  0  0  0  0  0  0  0  0  0  0  0
   17.3342   23.0455   15.1747 O   0  0  0  0  0  0  0  0  0  0  0  0
   19.4083   22.4333   16.5028 O   0  0  0  0  0  0  0  0  0  0  0  0
   20.7584   26.9594   14.2979 C   0  0  0  0  0  0  0  0  0  0  0  0
   19.3627   27.0231   14.4472 C   0  0  0  0  0  0  0  0  0  0  0  0
   18.6619   25.9360   14.9696 C   0  0  0  0  0  0  0  0  0  0  0  0
   19.3292   24.7741   15.3436 C   0  0  0  0  0  0  0  0  0  0  0  0
   20.7016   24.7200   15.1745 C   0  0  0  0  0  0  0  0  0  0  0  0
   21.4312   25.7932   14.6262 C   0  0  0  0  0  0  0  0  0  0  0  0
   21.3514   28.1257   13.9224 O   0  0  0  0  0  0  0  0  0  0  0  0
   22.4985   28.4492   14.6888 C   0  0  0  0  0  0  0  0  0  0  0  0
   18.6645   24.5844   18.4460 C   0  0  0  0  0  0  0  0  0  0  0  0
   18.5052   24.0004   19.8628 C   0  0  0  0  0  0  0  0  0  0  0  0
   18.5557   22.4787   19.8702 C   0  0  0  0  0  0  0  0  0  0  0  0
   19.5913   24.6131   20.7759 C   0  0  0  0  0  0  0  0  0  0  0  0
   13.9767   23.0917   16.0594 C   0  0  0  0  0  0  0  0  0  0  0  0
   14.5012   21.1829   14.3984 C   0  0  0  0  0  0  0  0  0  0  0  0
   14.0954   20.1589   13.5463 C   0  0  0  0  0  0  0  0  0  0  0  0
   12.7509   19.8040   13.4722 C   0  0  0  0  0  0  0  0  0  0  0  0
   11.7930   20.4790   14.2345 C   0  0  0  0  0  0  0  0  0  0  0  0
   12.2066   21.5310   15.0634 C   0  0  0  0  0  0  0  0  0  0  0  0
   13.5631   21.8992   15.1558 C   0  0  0  0  0  0  0  0  0  0  0  0
 41 40  2  0  0  0
 41 42  1  0  0  0
 40 39  1  0  0  0
 42 43  2  0  0  0
 39 38  2  0  0  0
 26 25  2  0  0  0
 26 27  1  0  0  0
 31 25  1  0  0  0
 31 32  1  0  0  0
 25 30  1  0  0  0
 27 28  2  0  0  0
 43 38  1  0  0  0
 43 37  1  0  0  0
 23 22  2  0  0  0
 30 29  2  0  0  0
 28 29  1  0  0  0
 28 22  1  0  0  0
 37  1  1  0  0  0
 22 24  2  0  0  0
 22 21  1  0  0  0
  1  2  1  0  0  0
  1 17  1  0  0  0
 13 11  1  0  0  0
 13 14  1  0  0  0
 20 21  1  0  0  0
 20 17  1  0  0  0
 21 33  1  0  0  0
 12 11  2  0  0  0
  2  3  1  0  0  0
 17 18  1  0  0  0
 11 10  1  0  0  0
 14 15  1  0  0  0
 14  9  1  0  0  0
  4  3  2  0  0  0
 15  7  1  0  0  0
  3  6  1  0  0  0
 33 34  1  0  0  0
  6  7  1  0  0  0
 10  9  1  0  0  0
  7  8  1  0  0  0
  9  8  1  0  0  0
 35 34  1  0  0  0
 34 36  1  0  0  0
 18 19  1  0  0  0
  2  5  1  0  0  0
 13 16  1  0  0  0
M  END
> <minimizedAffinity>
-10.65965

$$$$
6E9A_J0S_B_201


 43 46  0  0  0  0  0  0  0  0999 V2000
   15.0562   22.5956   17.0854 C   0  0  0  0  0  0  0  0  0  0  0  0
   14.2005   21.7156   17.9355 N   0  0  0  0  0  0  0  0  0  0  0  0
   14.6761   20.7973   18.7667 C   0  0  0  0  0  0  0  0  0  0  0  0
   15.8616   20.5303   18.9353 O   0  0  0  0  0  0  0  0  0  0  0  0
   13.2237   21.8234   17.8758 H   0  0  0  0  0  0  0  0  0  0  0  0
   13.7155   20.1125   19.4666 O   0  0  0  0  0  0  0  0  0  0  0  0
   14.1790   18.8698   20.0074 C   0  0  0  0  0  0  0  0  0  0  0  0
   13.0130   18.3077   20.8104 C   0  0  0  0  0  0  0  0  0  0  0  0
   12.1070   17.6260   19.7875 C   0  0  0  0  0  0  0  0  0  0  0  0
   11.0949   18.5484   19.3996 O   0  0  0  0  0  0  0  0  0  0  0  0
   11.2309   18.9380   18.1235 C   0  0  0  0  0  0  0  0  0  0  0  0
   10.4304   19.7690   17.6125 O   0  0  0  0  0  0  0  0  0  0  0  0
   12.2556   18.2810   17.5962 N   0  0  0  0  0  0  0  0  0  0  0  0
   12.9448   17.4252   18.5367 C   0  0  0  0  0  0  0  0  0  0  0  0
   14.3475   17.8761   18.8868 C   0  0  0  0  0  0  0  0  0  0  0  0
   12.5223   18.3678   16.6525 H   0  0  0  0  0  0  0  0  0  0  0  0
   15.6665   23.6789   17.9775 C   0  0  0  0  0  0  0  0  0  0  0  0
   14.6439   24.5621   18.4634 O   0  0  0  0  0  0  0  0  0  0  0  0
   14.2263   25.0160   17.7148 H   0  0  0  0  0  0  0  0  0  0  0  0
   16.7086   24.5388   17.2414 C   0  0  0  0  0  0  0  0  0  0  0  0
   18.0125   24.3652   17.8232 N   0  0  0  0  0  0  0  0  0  0  0  0
   19.3175   24.8433   16.9460 S   0  0  0  0  0  0  0  0  0  0  0  0
   18.8589   25.8723   15.9843 O   0  0  0  0  0  0  0  0  0  0  0  0
   19.9383   23.6141   16.4034 O   0  0  0  0  0  0  0  0  0  0  0  0
   22.4162   26.6891   19.7465 C   0  0  0  0  0  0  0  0  0  0  0  0
   22.3325   25.2963   19.5807 C   0  0  0  0  0  0  0  0  0  0  0  0
   21.3634   24.7459   18.7417 C   0  0  0  0  0  0  0  0  0  0  0  0
   20.4641   25.5623   18.0637 C   0  0  0  0  0  0  0  0  0  0  0  0
   20.5480   26.9310   18.2506 C   0  0  0  0  0  0  0  0  0  0  0  0
   21.5001   27.5121   19.1110 C   0  0  0  0  0  0  0  0  0  0  0  0
   23.4889   27.1203   20.4650 O   0  0  0  0  0  0  0  0  0  0  0  0
   24.0230   26.1338   21.3308 C   0  0  0  0  0  0  0  0  0  0  0  0
   18.1556   24.4484   19.2702 C   0  0  0  0  0  0  0  0  0  0  0  0
   18.2969   23.0920   19.9869 C   0  0  0  0  0  0  0  0  0  0  0  0
   18.8571   22.0105   19.0734 C   0  0  0  0  0  0  0  0  0  0  0  0
   19.1715   23.2862   21.2463 C   0  0  0  0  0  0  0  0  0  0  0  0
   14.2038   23.1632   15.9328 C   0  0  0  0  0  0  0  0  0  0  0  0
   12.2931   21.6804   15.0228 C   0  0  0  0  0  0  0  0  0  0  0  0
   11.8377   20.5929   14.2817 C   0  0  0  0  0  0  0  0  0  0  0  0
   12.7329   19.8368   13.5293 C   0  0  0  0  0  0  0  0  0  0  0  0
   14.0962   20.1466   13.5218 C   0  0  0  0  0  0  0  0  0  0  0  0
   14.5499   21.2220   14.2979 C   0  0  0  0  0  0  0  0  0  0  0  0
   13.6577   22.0016   15.0598 C   0  0  0  0  0  0  0  0  0  0  0  0
 41 40  2  0  0  0
 41 42  1  0  0  0
 40 39  1  0  0  0
 42 43  2  0  0  0
 39 38  2  0  0  0
 26 25  2  0  0  0
 26 27  1  0  0  0
 31 25  1  0  0  0
 31 32  1  0  0  0
 25 30  1  0  0  0
 27 28  2  0  0  0
 43 38  1  0  0  0
 43 37  1  0  0  0
 23 22  2  0  0  0
 30 29  2  0  0  0
 28 29  1  0  0  0
 28 22  1  0  0  0
 37  1  1  0  0  0
 22 24  2  0  0  0
 22 21  1  0  0  0
  1  2  1  0  0  0
  1 17  1  0  0  0
 13 11  1  0  0  0
 13 14  1  0  0  0
 20 21  1  0  0  0
 20 17  1  0  0  0
 21 33  1  0  0  0
 12 11  2  0  0  0
  2  3  1  0  0  0
 17 18  1  0  0  0
 11 10  1  0  0  0
 14 15  1  0  0  0
 14  9  1  0  0  0
  4  3  2  0  0  0
 15  7  1  0  0  0
  3  6  1  0  0  0
 33 34  1  0  0  0
  6  7  1  0  0  0
 10  9  1  0  0  0
  7  8  1  0  0  0
  9  8  1  0  0  0
 35 34  1  0  0  0
 34 36  1  0  0  0
 18 19  1  0  0  0
  2  5  1  0  0  0
 13 16  1  0  0  0
M  END
> <minimizedAffinity>
-9.89113

$$$$
6E9A_J0S_B_201


 43 46  0  0  0  0  0  0  0  0999 V2000
   15.0384   22.6056   16.9843 C   0  0  0  0  0  0  0  0  0  0  0  0
   14.2091   21.7498   17.8840 N   0  0  0  0  0  0  0  0  0  0  0  0
   14.7112   20.8781   18.7490 C   0  0  0  0  0  0  0  0  0  0  0  0
   15.9033   20.6397   18.9141 O   0  0  0  0  0  0  0  0  0  0  0  0
   13.2299   21.8377   17.8321 H   0  0  0  0  0  0  0  0  0  0  0  0
   13.7717   20.2087   19.4912 O   0  0  0  0  0  0  0  0  0  0  0  0
   14.2515   18.9781   20.0451 C   0  0  0  0  0  0  0  0  0  0  0  0
   13.1120   18.4370   20.8991 C   0  0  0  0  0  0  0  0  0  0  0  0
   12.1719   17.7335   19.9228 C   0  0  0  0  0  0  0  0  0  0  0  0
   11.1486   18.6485   19.5472 O   0  0  0  0  0  0  0  0  0  0  0  0
   11.2427   19.0082   18.2585 C   0  0  0  0  0  0  0  0  0  0  0  0
   10.4268   19.8286   17.7551 O   0  0  0  0  0  0  0  0  0  0  0  0
   12.2488   18.3371   17.7132 N   0  0  0  0  0  0  0  0  0  0  0  0
   12.9676   17.5021   18.6500 C   0  0  0  0  0  0  0  0  0  0  0  0
   14.3817   17.9583   18.9430 C   0  0  0  0  0  0  0  0  0  0  0  0
   12.4841   18.4015   16.7594 H   0  0  0  0  0  0  0  0  0  0  0  0
   15.6862   23.7045   17.8298 C   0  0  0  0  0  0  0  0  0  0  0  0
   14.6792   24.5385   18.4234 O   0  0  0  0  0  0  0  0  0  0  0  0
   14.1735   24.9821   17.7245 H   0  0  0  0  0  0  0  0  0  0  0  0
   16.6167   24.6154   17.0102 C   0  0  0  0  0  0  0  0  0  0  0  0
   17.8165   24.9100   17.7467 N   0  0  0  0  0  0  0  0  0  0  0  0
   18.3375   23.8040   18.8450 S   0  0  0  0  0  0  0  0  0  0  0  0
   18.6527   22.5568   18.1107 O   0  0  0  0  0  0  0  0  0  0  0  0
   17.3084   23.7425   19.9072 O   0  0  0  0  0  0  0  0  0  0  0  0
   22.1573   25.5675   20.6200 C   0  0  0  0  0  0  0  0  0  0  0  0
   22.1968   24.7935   19.4479 C   0  0  0  0  0  0  0  0  0  0  0  0
   21.0250   24.2396   18.9323 C   0  0  0  0  0  0  0  0  0  0  0  0
   19.8048   24.4380   19.5702 C   0  0  0  0  0  0  0  0  0  0  0  0
   19.7846   25.1881   20.7330 C   0  0  0  0  0  0  0  0  0  0  0  0
   20.9561   25.7381   21.2896 C   0  0  0  0  0  0  0  0  0  0  0  0
   23.3286   26.1798   20.9458 O   0  0  0  0  0  0  0  0  0  0  0  0
   23.7380   25.9428   22.2815 C   0  0  0  0  0  0  0  0  0  0  0  0
   18.8540   25.7118   17.1127 C   0  0  0  0  0  0  0  0  0  0  0  0
   19.0333   25.4638   15.6027 C   0  0  0  0  0  0  0  0  0  0  0  0
   19.3396   26.7445   14.8385 C   0  0  0  0  0  0  0  0  0  0  0  0
   20.1373   24.4008   15.4032 C   0  0  0  0  0  0  0  0  0  0  0  0
   14.1481   23.1529   15.8507 C   0  0  0  0  0  0  0  0  0  0  0  0
   12.2312   21.6634   14.9652 C   0  0  0  0  0  0  0  0  0  0  0  0
   11.7713   20.5642   14.2443 C   0  0  0  0  0  0  0  0  0  0  0  0
   12.6640   19.7888   13.5087 C   0  0  0  0  0  0  0  0  0  0  0  0
   14.0290   20.0907   13.4984 C   0  0  0  0  0  0  0  0  0  0  0  0
   14.4870   21.1785   14.2545 C   0  0  0  0  0  0  0  0  0  0  0  0
   13.5975   21.9776   14.9991 C   0  0  0  0  0  0  0  0  0  0  0  0
 41 40  2  0  0  0
 41 42  1  0  0  0
 40 39  1  0  0  0
 42 43  2  0  0  0
 39 38  2  0  0  0
 26 25  2  0  0  0
 26 27  1  0  0  0
 31 25  1  0  0  0
 31 32  1  0  0  0
 25 30  1  0  0  0
 27 28  2  0  0  0
 43 38  1  0  0  0
 43 37  1  0  0  0
 23 22  2  0  0  0
 30 29  2  0  0  0
 28 29  1  0  0  0
 28 22  1  0  0  0
 37  1  1  0  0  0
 22 24  2  0  0  0
 22 21  1  0  0  0
  1  2  1  0  0  0
  1 17  1  0  0  0
 13 11  1  0  0  0
 13 14  1  0  0  0
 20 21  1  0  0  0
 20 17  1  0  0  0
 21 33  1  0  0  0
 12 11  2  0  0  0
  2  3  1  0  0  0
 17 18  1  0  0  0
 11 10  1  0  0  0
 14 15  1  0  0  0
 14  9  1  0  0  0
  4  3  2  0  0  0
 15  7  1  0  0  0
  3  6  1  0  0  0
 33 34  1  0  0  0
  6  7  1  0  0  0
 10  9  1  0  0  0
  7  8  1  0  0  0
  9  8  1  0  0  0
 35 34  1  0  0  0
 34 36  1  0  0  0
 18 19  1  0  0  0
  2  5  1  0  0  0
 13 16  1  0  0  0
M  END
> <minimizedAffinity>
-9.86329

$$$$
6E9A_J0S_B_201


 43 46  0  0  0  0  0  0  0  0999 V2000
   19.2392   25.3238   15.8742 C   0  0  0  0  0  0  0  0  0  0  0  0
   19.7154   25.2038   17.2842 N   0  0  0  0  0  0  0  0  0  0  0  0
   20.1349   26.2283   18.0154 C   0  0  0  0  0  0  0  0  0  0  0  0
   20.2108   27.3931   17.6378 O   0  0  0  0  0  0  0  0  0  0  0  0
   19.7182   24.3098   17.6966 H   0  0  0  0  0  0  0  0  0  0  0  0
   20.5106   25.8985   19.2928 O   0  0  0  0  0  0  0  0  0  0  0  0
   21.7290   25.1481   19.3546 C   0  0  0  0  0  0  0  0  0  0  0  0
   22.8467   26.1532   19.1079 C   0  0  0  0  0  0  0  0  0  0  0  0
   23.0905   26.8280   20.4559 C   0  0  0  0  0  0  0  0  0  0  0  0
   22.3314   28.0311   20.4990 O   0  0  0  0  0  0  0  0  0  0  0  0
   21.3333   27.9651   21.3925 C   0  0  0  0  0  0  0  0  0  0  0  0
   20.5449   28.9371   21.5540 O   0  0  0  0  0  0  0  0  0  0  0  0
   21.4060   26.7931   22.0097 N   0  0  0  0  0  0  0  0  0  0  0  0
   22.4548   25.9338   21.5061 C   0  0  0  0  0  0  0  0  0  0  0  0
   21.9624   24.7021   20.7753 C   0  0  0  0  0  0  0  0  0  0  0  0
   20.8023   26.5324   22.7424 H   0  0  0  0  0  0  0  0  0  0  0  0
   18.0192   24.4163   15.7004 C   0  0  0  0  0  0  0  0  0  0  0  0
   16.8136   25.1349   16.0036 O   0  0  0  0  0  0  0  0  0  0  0  0
   16.8278   25.4127   16.9329 H   0  0  0  0  0  0  0  0  0  0  0  0
   18.0625   23.1794   16.6143 C   0  0  0  0  0  0  0  0  0  0  0  0
   16.7918   22.9790   17.2579 N   0  0  0  0  0  0  0  0  0  0  0  0
   15.6514   22.1077   16.4571 S   0  0  0  0  0  0  0  0  0  0  0  0
   16.3024   21.4954   15.2758 O   0  0  0  0  0  0  0  0  0  0  0  0
   14.5070   23.0173   16.2249 O   0  0  0  0  0  0  0  0  0  0  0  0
   14.1211   18.7669   19.1679 C   0  0  0  0  0  0  0  0  0  0  0  0
   13.3959   19.9606   19.0143 C   0  0  0  0  0  0  0  0  0  0  0  0
   13.8893   20.9826   18.2032 C   0  0  0  0  0  0  0  0  0  0  0  0
   15.1045   20.8403   17.5412 C   0  0  0  0  0  0  0  0  0  0  0  0
   15.8154   19.6659   17.7161 C   0  0  0  0  0  0  0  0  0  0  0  0
   15.3532   18.6279   18.5489 C   0  0  0  0  0  0  0  0  0  0  0  0
   13.4765   17.7858   19.8570 O   0  0  0  0  0  0  0  0  0  0  0  0
   12.3699   18.2553   20.6072 C   0  0  0  0  0  0  0  0  0  0  0  0
   16.7417   22.9051   18.7116 C   0  0  0  0  0  0  0  0  0  0  0  0
   18.1148   22.8085   19.4037 C   0  0  0  0  0  0  0  0  0  0  0  0
   18.2352   23.7607   20.5855 C   0  0  0  0  0  0  0  0  0  0  0  0
   18.3547   21.3409   19.8250 C   0  0  0  0  0  0  0  0  0  0  0  0
   20.3996   24.9752   14.9208 C   0  0  0  0  0  0  0  0  0  0  0  0
   22.6352   26.1586   15.4491 C   0  0  0  0  0  0  0  0  0  0  0  0
   23.4691   27.2729   15.4004 C   0  0  0  0  0  0  0  0  0  0  0  0
   23.0813   28.4043   14.6872 C   0  0  0  0  0  0  0  0  0  0  0  0
   21.8486   28.4436   14.0289 C   0  0  0  0  0  0  0  0  0  0  0  0
   21.0014   27.3300   14.1122 C   0  0  0  0  0  0  0  0  0  0  0  0
   21.3801   26.1748   14.8236 C   0  0  0  0  0  0  0  0  0  0  0  0
 41 40  2  0  0  0
 41 42  1  0  0  0
 40 39  1  0  0  0
 42 43  2  0  0  0
 39 38  2  0  0  0
 26 25  2  0  0  0
 26 27  1  0  0  0
 31 25  1  0  0  0
 31 32  1  0  0  0
 25 30  1  0  0  0
 27 28  2  0  0  0
 43 38  1  0  0  0
 43 37  1  0  0  0
 23 22  2  0  0  0
 30 29  2  0  0  0
 28 29  1  0  0  0
 28 22  1  0  0  0
 37  1  1  0  0  0
 22 24  2  0  0  0
 22 21  1  0  0  0
  1  2  1  0  0  0
  1 17  1  0  0  0
 13 11  1  0  0  0
 13 14  1  0  0  0
 20 21  1  0  0  0
 20 17  1  0  0  0
 21 33  1  0  0  0
 12 11  2  0  0  0
  2  3  1  0  0  0
 17 18  1  0  0  0
 11 10  1  0  0  0
 14 15  1  0  0  0
 14  9  1  0  0  0
  4  3  2  0  0  0
 15  7  1  0  0  0
  3  6  1  0  0  0
 33 34  1  0  0  0
  6  7  1  0  0  0
 10  9  1  0  0  0
  7  8  1  0  0  0
  9  8  1  0  0  0
 35 34  1  0  0  0
 34 36  1  0  0  0
 18 19  1  0  0  0
  2  5  1  0  0  0
 13 16  1  0  0  0
M  END
> <minimizedAffinity>
-9.68068

$$$$
6E9A_J0S_B_201


 43 46  0  0  0  0  0  0  0  0999 V2000
   17.2878   21.7504   18.4002 C   0  0  0  0  0  0  0  0  0  0  0  0
   16.1629   20.7790   18.5434 N   0  0  0  0  0  0  0  0  0  0  0  0
   14.9658   21.0952   19.0201 C   0  0  0  0  0  0  0  0  0  0  0  0
   14.6261   22.2029   19.4236 O   0  0  0  0  0  0  0  0  0  0  0  0
   16.3190   19.8470   18.2673 H   0  0  0  0  0  0  0  0  0  0  0  0
   14.0726   20.0546   19.0483 O   0  0  0  0  0  0  0  0  0  0  0  0
   14.5294   18.9295   19.8081 C   0  0  0  0  0  0  0  0  0  0  0  0
   13.4724   18.6979   20.8803 C   0  0  0  0  0  0  0  0  0  0  0  0
   12.3671   17.8980   20.1944 C   0  0  0  0  0  0  0  0  0  0  0  0
   11.3727   18.8078   19.7371 O   0  0  0  0  0  0  0  0  0  0  0  0
   11.3271   18.8729   18.3983 C   0  0  0  0  0  0  0  0  0  0  0  0
   10.5147   19.6430   17.8158 O   0  0  0  0  0  0  0  0  0  0  0  0
   12.2043   18.0053   17.9108 N   0  0  0  0  0  0  0  0  0  0  0  0
   12.9751   17.3231   18.9268 C   0  0  0  0  0  0  0  0  0  0  0  0
   14.4441   17.6902   18.9547 C   0  0  0  0  0  0  0  0  0  0  0  0
   12.3200   17.8411   16.9470 H   0  0  0  0  0  0  0  0  0  0  0  0
   17.7651   21.7215   16.9465 C   0  0  0  0  0  0  0  0  0  0  0  0
   18.3835   20.4604   16.6477 O   0  0  0  0  0  0  0  0  0  0  0  0
   19.1694   20.3457   17.2045 H   0  0  0  0  0  0  0  0  0  0  0  0
   18.7912   22.8248   16.6349 C   0  0  0  0  0  0  0  0  0  0  0  0
   18.2557   23.7624   15.6846 N   0  0  0  0  0  0  0  0  0  0  0  0
   16.7696   24.3979   15.9828 S   0  0  0  0  0  0  0  0  0  0  0  0
   16.6641   25.6663   15.2252 O   0  0  0  0  0  0  0  0  0  0  0  0
   16.6188   24.4539   17.4541 O   0  0  0  0  0  0  0  0  0  0  0  0
   13.7610   21.3131   14.4715 C   0  0  0  0  0  0  0  0  0  0  0  0
   15.0144   21.4614   13.8538 C   0  0  0  0  0  0  0  0  0  0  0  0
   15.9126   22.4260   14.3103 C   0  0  0  0  0  0  0  0  0  0  0  0
   15.5816   23.2575   15.3753 C   0  0  0  0  0  0  0  0  0  0  0  0
   14.3369   23.1111   15.9622 C   0  0  0  0  0  0  0  0  0  0  0  0
   13.4008   22.1625   15.5055 C   0  0  0  0  0  0  0  0  0  0  0  0
   13.0308   20.2466   14.0444 O   0  0  0  0  0  0  0  0  0  0  0  0
   11.7237   20.2016   14.5897 C   0  0  0  0  0  0  0  0  0  0  0  0
   19.1733   24.6157   14.9423 C   0  0  0  0  0  0  0  0  0  0  0  0
   20.4250   25.0570   15.7246 C   0  0  0  0  0  0  0  0  0  0  0  0
   21.5816   25.4254   14.8056 C   0  0  0  0  0  0  0  0  0  0  0  0
   20.0393   26.2284   16.6561 C   0  0  0  0  0  0  0  0  0  0  0  0
   18.3936   21.3911   19.4127 C   0  0  0  0  0  0  0  0  0  0  0  0
   18.5135   23.4413   20.9810 C   0  0  0  0  0  0  0  0  0  0  0  0
   19.1046   24.6343   21.3895 C   0  0  0  0  0  0  0  0  0  0  0  0
   20.2853   25.0686   20.7922 C   0  0  0  0  0  0  0  0  0  0  0  0
   20.8803   24.3263   19.7679 C   0  0  0  0  0  0  0  0  0  0  0  0
   20.2595   23.1446   19.3403 C   0  0  0  0  0  0  0  0  0  0  0  0
   19.0686   22.6868   19.9374 C   0  0  0  0  0  0  0  0  0  0  0  0
 41 40  2  0  0  0
 41 42  1  0  0  0
 40 39  1  0  0  0
 42 43  2  0  0  0
 39 38  2  0  0  0
 26 25  2  0  0  0
 26 27  1  0  0  0
 31 25  1  0  0  0
 31 32  1  0  0  0
 25 30  1  0  0  0
 27 28  2  0  0  0
 43 38  1  0  0  0
 43 37  1  0  0  0
 23 22  2  0  0  0
 30 29  2  0  0  0
 28 29  1  0  0  0
 28 22  1  0  0  0
 37  1  1  0  0  0
 22 24  2  0  0  0
 22 21  1  0  0  0
  1  2  1  0  0  0
  1 17  1  0  0  0
 13 11  1  0  0  0
 13 14  1  0  0  0
 20 21  1  0  0  0
 20 17  1  0  0  0
 21 33  1  0  0  0
 12 11  2  0  0  0
  2  3  1  0  0  0
 17 18  1  0  0  0
 11 10  1  0  0  0
 14 15  1  0  0  0
 14  9  1  0  0  0
  4  3  2  0  0  0
 15  7  1  0  0  0
  3  6  1  0  0  0
 33 34  1  0  0  0
  6  7  1  0  0  0
 10  9  1  0  0  0
  7  8  1  0  0  0
  9  8  1  0  0  0
 35 34  1  0  0  0
 34 36  1  0  0  0
 18 19  1  0  0  0
  2  5  1  0  0  0
 13 16  1  0  0  0
M  END
> <minimizedAffinity>
-9.48355

$$$$
6E9A_J0S_B_201


 43 46  0  0  0  0  0  0  0  0999 V2000
   17.1078   24.9246   16.2122 C   0  0  0  0  0  0  0  0  0  0  0  0
   18.3074   25.7995   16.0543 N   0  0  0  0  0  0  0  0  0  0  0  0
   18.6122   26.4460   14.9366 C   0  0  0  0  0  0  0  0  0  0  0  0
   17.9772   26.4005   13.8878 O   0  0  0  0  0  0  0  0  0  0  0  0
   18.9089   25.9030   16.8268 H   0  0  0  0  0  0  0  0  0  0  0  0
   19.7488   27.2100   15.0141 O   0  0  0  0  0  0  0  0  0  0  0  0
   20.7334   26.8715   14.0304 C   0  0  0  0  0  0  0  0  0  0  0  0
   21.7641   27.9923   14.0742 C   0  0  0  0  0  0  0  0  0  0  0  0
   22.6859   27.6505   15.2427 C   0  0  0  0  0  0  0  0  0  0  0  0
   22.2232   28.3433   16.3966 O   0  0  0  0  0  0  0  0  0  0  0  0
   21.7327   27.5068   17.3233 C   0  0  0  0  0  0  0  0  0  0  0  0
   21.2612   27.9479   18.4075 O   0  0  0  0  0  0  0  0  0  0  0  0
   21.8906   26.2645   16.8857 N   0  0  0  0  0  0  0  0  0  0  0  0
   22.4561   26.1825   15.5571 C   0  0  0  0  0  0  0  0  0  0  0  0
   21.5046   25.6643   14.4990 C   0  0  0  0  0  0  0  0  0  0  0  0
   21.6455   25.4721   17.4160 H   0  0  0  0  0  0  0  0  0  0  0  0
   16.9584   24.5773   17.6951 C   0  0  0  0  0  0  0  0  0  0  0  0
   16.1816   25.5800   18.3682 O   0  0  0  0  0  0  0  0  0  0  0  0
   16.6442   26.4314   18.3236 H   0  0  0  0  0  0  0  0  0  0  0  0
   18.3108   24.4752   18.4217 C   0  0  0  0  0  0  0  0  0  0  0  0
   18.2865   23.4146   19.3929 N   0  0  0  0  0  0  0  0  0  0  0  0
   18.3751   21.8672   18.8464 S   0  0  0  0  0  0  0  0  0  0  0  0
   19.0812   21.0681   19.8745 O   0  0  0  0  0  0  0  0  0  0  0  0
   18.9643   21.9287   17.4899 O   0  0  0  0  0  0  0  0  0  0  0  0
   14.0722   20.4402   18.2986 C   0  0  0  0  0  0  0  0  0  0  0  0
   14.3563   21.6209   19.0054 C   0  0  0  0  0  0  0  0  0  0  0  0
   15.6775   22.0301   19.1869 C   0  0  0  0  0  0  0  0  0  0  0  0
   16.7308   21.2764   18.6793 C   0  0  0  0  0  0  0  0  0  0  0  0
   16.4358   20.1071   18.0005 C   0  0  0  0  0  0  0  0  0  0  0  0
   15.1125   19.6571   17.8243 C   0  0  0  0  0  0  0  0  0  0  0  0
   12.7516   20.2191   18.0534 O   0  0  0  0  0  0  0  0  0  0  0  0
   12.1776   19.2338   18.8946 C   0  0  0  0  0  0  0  0  0  0  0  0
   18.8526   23.6545   20.7132 C   0  0  0  0  0  0  0  0  0  0  0  0
   20.3020   24.1771   20.7121 C   0  0  0  0  0  0  0  0  0  0  0  0
   20.9875   23.9785   19.3672 C   0  0  0  0  0  0  0  0  0  0  0  0
   20.2927   25.6635   21.1353 C   0  0  0  0  0  0  0  0  0  0  0  0
   17.2674   23.6855   15.3086 C   0  0  0  0  0  0  0  0  0  0  0  0
   14.7024   23.5580   15.5951 C   0  0  0  0  0  0  0  0  0  0  0  0
   13.4922   22.8792   15.4776 C   0  0  0  0  0  0  0  0  0  0  0  0
   13.4467   21.6370   14.8499 C   0  0  0  0  0  0  0  0  0  0  0  0
   14.6116   21.0495   14.3478 C   0  0  0  0  0  0  0  0  0  0  0  0
   15.8302   21.7249   14.5013 C   0  0  0  0  0  0  0  0  0  0  0  0
   15.8940   22.9850   15.1276 C   0  0  0  0  0  0  0  0  0  0  0  0
 41 40  2  0  0  0
 41 42  1  0  0  0
 40 39  1  0  0  0
 42 43  2  0  0  0
 39 38  2  0  0  0
 26 25  2  0  0  0
 26 27  1  0  0  0
 31 25  1  0  0  0
 31 32  1  0  0  0
 25 30  1  0  0  0
 27 28  2  0  0  0
 43 38  1  0  0  0
 43 37  1  0  0  0
 23 22  2  0  0  0
 30 29  2  0  0  0
 28 29  1  0  0  0
 28 22  1  0  0  0
 37  1  1  0  0  0
 22 24  2  0  0  0
 22 21  1  0  0  0
  1  2  1  0  0  0
  1 17  1  0  0  0
 13 11  1  0  0  0
 13 14  1  0  0  0
 20 21  1  0  0  0
 20 17  1  0  0  0
 21 33  1  0  0  0
 12 11  2  0  0  0
  2  3  1  0  0  0
 17 18  1  0  0  0
 11 10  1  0  0  0
 14 15  1  0  0  0
 14  9  1  0  0  0
  4  3  2  0  0  0
 15  7  1  0  0  0
  3  6  1  0  0  0
 33 34  1  0  0  0
  6  7  1  0  0  0
 10  9  1  0  0  0
  7  8  1  0  0  0
  9  8  1  0  0  0
 35 34  1  0  0  0
 34 36  1  0  0  0
 18 19  1  0  0  0
  2  5  1  0  0  0
 13 16  1  0  0  0
M  END
> <minimizedAffinity>
-9.45650

$$$$
6E9A_J0S_B_201


 43 46  0  0  0  0  0  0  0  0999 V2000
   17.1715   25.0860   16.0097 C   0  0  0  0  0  0  0  0  0  0  0  0
   18.3453   25.9955   15.8532 N   0  0  0  0  0  0  0  0  0  0  0  0
   18.6354   26.6464   14.7341 C   0  0  0  0  0  0  0  0  0  0  0  0
   18.0064   26.5780   13.6830 O   0  0  0  0  0  0  0  0  0  0  0  0
   18.9402   26.1198   16.6277 H   0  0  0  0  0  0  0  0  0  0  0  0
   19.7486   27.4441   14.8131 O   0  0  0  0  0  0  0  0  0  0  0  0
   20.8037   27.0420   13.9319 C   0  0  0  0  0  0  0  0  0  0  0  0
   21.8962   28.0920   14.0889 C   0  0  0  0  0  0  0  0  0  0  0  0
   22.6697   27.6885   15.3423 C   0  0  0  0  0  0  0  0  0  0  0  0
   22.1385   28.4092   16.4486 O   0  0  0  0  0  0  0  0  0  0  0  0
   21.5022   27.6062   17.3141 C   0  0  0  0  0  0  0  0  0  0  0  0
   20.9528   28.0764   18.3482 O   0  0  0  0  0  0  0  0  0  0  0  0
   21.6216   26.3566   16.8851 N   0  0  0  0  0  0  0  0  0  0  0  0
   22.3129   26.2386   15.6202 C   0  0  0  0  0  0  0  0  0  0  0  0
   21.4419   25.7858   14.4669 C   0  0  0  0  0  0  0  0  0  0  0  0
   21.2721   25.5816   17.3815 H   0  0  0  0  0  0  0  0  0  0  0  0
   16.9637   24.8227   17.5028 C   0  0  0  0  0  0  0  0  0  0  0  0
   16.2794   25.9266   18.1153 O   0  0  0  0  0  0  0  0  0  0  0  0
   16.8251   26.7253   18.0434 H   0  0  0  0  0  0  0  0  0  0  0  0
   18.2869   24.6208   18.2615 C   0  0  0  0  0  0  0  0  0  0  0  0
   18.1744   23.5351   19.1983 N   0  0  0  0  0  0  0  0  0  0  0  0
   18.7911   23.7516   20.7062 S   0  0  0  0  0  0  0  0  0  0  0  0
   19.0599   22.4117   21.2775 O   0  0  0  0  0  0  0  0  0  0  0  0
   17.8495   24.6372   21.4273 O   0  0  0  0  0  0  0  0  0  0  0  0
   22.7734   25.9646   20.3967 C   0  0  0  0  0  0  0  0  0  0  0  0
   21.7365   26.4552   21.2082 C   0  0  0  0  0  0  0  0  0  0  0  0
   20.5164   25.7822   21.2722 C   0  0  0  0  0  0  0  0  0  0  0  0
   20.3046   24.6234   20.5322 C   0  0  0  0  0  0  0  0  0  0  0  0
   21.3292   24.1621   19.7244 C   0  0  0  0  0  0  0  0  0  0  0  0
   22.5623   24.8355   19.6214 C   0  0  0  0  0  0  0  0  0  0  0  0
   23.9632   26.6128   20.5275 O   0  0  0  0  0  0  0  0  0  0  0  0
   24.5728   26.9311   19.2886 C   0  0  0  0  0  0  0  0  0  0  0  0
   17.0316   22.6373   19.1031 C   0  0  0  0  0  0  0  0  0  0  0  0
   17.3757   21.1897   18.7036 C   0  0  0  0  0  0  0  0  0  0  0  0
   16.1357   20.3169   18.5671 C   0  0  0  0  0  0  0  0  0  0  0  0
   18.2008   21.2194   17.3971 C   0  0  0  0  0  0  0  0  0  0  0  0
   17.4184   23.8021   15.1925 C   0  0  0  0  0  0  0  0  0  0  0  0
   15.0078   23.2115   15.9117 C   0  0  0  0  0  0  0  0  0  0  0  0
   13.8541   22.4394   15.8007 C   0  0  0  0  0  0  0  0  0  0  0  0
   13.7492   21.4817   14.7951 C   0  0  0  0  0  0  0  0  0  0  0  0
   14.8018   21.2711   13.8995 C   0  0  0  0  0  0  0  0  0  0  0  0
   15.9722   22.0293   14.0406 C   0  0  0  0  0  0  0  0  0  0  0  0
   16.0932   23.0067   15.0477 C   0  0  0  0  0  0  0  0  0  0  0  0
 41 40  2  0  0  0
 41 42  1  0  0  0
 40 39  1  0  0  0
 42 43  2  0  0  0
 39 38  2  0  0  0
 26 25  2  0  0  0
 26 27  1  0  0  0
 31 25  1  0  0  0
 31 32  1  0  0  0
 25 30  1  0  0  0
 27 28  2  0  0  0
 43 38  1  0  0  0
 43 37  1  0  0  0
 23 22  2  0  0  0
 30 29  2  0  0  0
 28 29  1  0  0  0
 28 22  1  0  0  0
 37  1  1  0  0  0
 22 24  2  0  0  0
 22 21  1  0  0  0
  1  2  1  0  0  0
  1 17  1  0  0  0
 13 11  1  0  0  0
 13 14  1  0  0  0
 20 21  1  0  0  0
 20 17  1  0  0  0
 21 33  1  0  0  0
 12 11  2  0  0  0
  2  3  1  0  0  0
 17 18  1  0  0  0
 11 10  1  0  0  0
 14 15  1  0  0  0
 14  9  1  0  0  0
  4  3  2  0  0  0
 15  7  1  0  0  0
  3  6  1  0  0  0
 33 34  1  0  0  0
  6  7  1  0  0  0
 10  9  1  0  0  0
  7  8  1  0  0  0
  9  8  1  0  0  0
 35 34  1  0  0  0
 34 36  1  0  0  0
 18 19  1  0  0  0
  2  5  1  0  0  0
 13 16  1  0  0  0
M  END
> <minimizedAffinity>
-9.39850

$$$$
6E9A_J0S_B_201


 43 46  0  0  0  0  0  0  0  0999 V2000
   19.3014   24.9105   16.1871 C   0  0  0  0  0  0  0  0  0  0  0  0
   19.8469   24.8855   17.5767 N   0  0  0  0  0  0  0  0  0  0  0  0
   20.1587   25.9722   18.2710 C   0  0  0  0  0  0  0  0  0  0  0  0
   20.0661   27.1281   17.8704 O   0  0  0  0  0  0  0  0  0  0  0  0
   19.9836   24.0091   18.0039 H   0  0  0  0  0  0  0  0  0  0  0  0
   20.6267   25.7232   19.5362 O   0  0  0  0  0  0  0  0  0  0  0  0
   21.9217   25.1115   19.5566 C   0  0  0  0  0  0  0  0  0  0  0  0
   22.9040   26.2098   19.1702 C   0  0  0  0  0  0  0  0  0  0  0  0
   23.1582   26.9970   20.4538 C   0  0  0  0  0  0  0  0  0  0  0  0
   22.2757   28.1134   20.4775 O   0  0  0  0  0  0  0  0  0  0  0  0
   21.3504   28.0036   21.4422 C   0  0  0  0  0  0  0  0  0  0  0  0
   20.4719   28.8956   21.5999 O   0  0  0  0  0  0  0  0  0  0  0  0
   21.5911   26.8906   22.1228 N   0  0  0  0  0  0  0  0  0  0  0  0
   22.6934   26.1144   21.5991 C   0  0  0  0  0  0  0  0  0  0  0  0
   22.2935   24.7907   20.9816 C   0  0  0  0  0  0  0  0  0  0  0  0
   21.0680   26.6183   22.9112 H   0  0  0  0  0  0  0  0  0  0  0  0
   18.1990   23.8539   16.0848 C   0  0  0  0  0  0  0  0  0  0  0  0
   17.6323   23.8478   14.7655 O   0  0  0  0  0  0  0  0  0  0  0  0
   17.2169   24.7062   14.5880 H   0  0  0  0  0  0  0  0  0  0  0  0
   17.0505   24.0938   17.0802 C   0  0  0  0  0  0  0  0  0  0  0  0
   16.3497   22.8674   17.3519 N   0  0  0  0  0  0  0  0  0  0  0  0
   16.8732   21.9424   18.6055 S   0  0  0  0  0  0  0  0  0  0  0  0
   16.8525   22.7848   19.8237 O   0  0  0  0  0  0  0  0  0  0  0  0
   18.1668   21.3556   18.1896 O   0  0  0  0  0  0  0  0  0  0  0  0
   14.0072   18.4367   19.1952 C   0  0  0  0  0  0  0  0  0  0  0  0
   15.1491   18.3070   18.3868 C   0  0  0  0  0  0  0  0  0  0  0  0
   16.0012   19.3946   18.1952 C   0  0  0  0  0  0  0  0  0  0  0  0
   15.7325   20.6216   18.7931 C   0  0  0  0  0  0  0  0  0  0  0  0
   14.5949   20.7387   19.5723 C   0  0  0  0  0  0  0  0  0  0  0  0
   13.7038   19.6642   19.7624 C   0  0  0  0  0  0  0  0  0  0  0  0
   13.3345   17.2774   19.4325 O   0  0  0  0  0  0  0  0  0  0  0  0
   12.7279   17.2273   20.7121 C   0  0  0  0  0  0  0  0  0  0  0  0
   14.9257   22.7888   17.0568 C   0  0  0  0  0  0  0  0  0  0  0  0
   14.5847   22.3911   15.6079 C   0  0  0  0  0  0  0  0  0  0  0  0
   14.0559   20.9669   15.5081 C   0  0  0  0  0  0  0  0  0  0  0  0
   13.5787   23.4161   15.0369 C   0  0  0  0  0  0  0  0  0  0  0  0
   20.4558   24.6860   15.1901 C   0  0  0  0  0  0  0  0  0  0  0  0
   20.6268   27.0386   14.1350 C   0  0  0  0  0  0  0  0  0  0  0  0
   21.3350   28.2057   13.8599 C   0  0  0  0  0  0  0  0  0  0  0  0
   22.6003   28.4000   14.4079 C   0  0  0  0  0  0  0  0  0  0  0  0
   23.1813   27.4238   15.2227 C   0  0  0  0  0  0  0  0  0  0  0  0
   22.4750   26.2377   15.4659 C   0  0  0  0  0  0  0  0  0  0  0  0
   21.1915   26.0270   14.9253 C   0  0  0  0  0  0  0  0  0  0  0  0
 41 40  2  0  0  0
 41 42  1  0  0  0
 40 39  1  0  0  0
 42 43  2  0  0  0
 39 38  2  0  0  0
 26 25  2  0  0  0
 26 27  1  0  0  0
 31 25  1  0  0  0
 31 32  1  0  0  0
 25 30  1  0  0  0
 27 28  2  0  0  0
 43 38  1  0  0  0
 43 37  1  0  0  0
 23 22  2  0  0  0
 30 29  2  0  0  0
 28 29  1  0  0  0
 28 22  1  0  0  0
 37  1  1  0  0  0
 22 24  2  0  0  0
 22 21  1  0  0  0
  1  2  1  0  0  0
  1 17  1  0  0  0
 13 11  1  0  0  0
 13 14  1  0  0  0
 20 21  1  0  0  0
 20 17  1  0  0  0
 21 33  1  0  0  0
 12 11  2  0  0  0
  2  3  1  0  0  0
 17 18  1  0  0  0
 11 10  1  0  0  0
 14 15  1  0  0  0
 14  9  1  0  0  0
  4  3  2  0  0  0
 15  7  1  0  0  0
  3  6  1  0  0  0
 33 34  1  0  0  0
  6  7  1  0  0  0
 10  9  1  0  0  0
  7  8  1  0  0  0
  9  8  1  0  0  0
 35 34  1  0  0  0
 34 36  1  0  0  0
 18 19  1  0  0  0
  2  5  1  0  0  0
 13 16  1  0  0  0
M  END
> <minimizedAffinity>
-9.28956

$$$$
6E9A_J0S_B_201


 43 46  0  0  0  0  0  0  0  0999 V2000
   14.2776   21.6248   18.3113 C   0  0  0  0  0  0  0  0  0  0  0  0
   13.9441   20.9482   17.0228 N   0  0  0  0  0  0  0  0  0  0  0  0
   12.7744   20.3772   16.7657 C   0  0  0  0  0  0  0  0  0  0  0  0
   11.8272   20.3057   17.5421 O   0  0  0  0  0  0  0  0  0  0  0  0
   14.6343   20.9242   16.3211 H   0  0  0  0  0  0  0  0  0  0  0  0
   12.6730   19.8293   15.5122 O   0  0  0  0  0  0  0  0  0  0  0  0
   12.6978   20.8008   14.4600 C   0  0  0  0  0  0  0  0  0  0  0  0
   12.5065   20.0163   13.1683 C   0  0  0  0  0  0  0  0  0  0  0  0
   11.0005   19.7941   13.0476 C   0  0  0  0  0  0  0  0  0  0  0  0
   10.6899   18.5185   13.5973 O   0  0  0  0  0  0  0  0  0  0  0  0
    9.9759   18.6179   14.7283 C   0  0  0  0  0  0  0  0  0  0  0  0
    9.6248   17.5858   15.3639 O   0  0  0  0  0  0  0  0  0  0  0  0
    9.7295   19.9021   14.9518 N   0  0  0  0  0  0  0  0  0  0  0  0
   10.3420   20.7890   13.9874 C   0  0  0  0  0  0  0  0  0  0  0  0
   11.4560   21.6509   14.5438 C   0  0  0  0  0  0  0  0  0  0  0  0
    9.1808   20.2217   15.7041 H   0  0  0  0  0  0  0  0  0  0  0  0
   14.9554   22.9592   17.9917 C   0  0  0  0  0  0  0  0  0  0  0  0
   14.1814   23.6969   17.0333 O   0  0  0  0  0  0  0  0  0  0  0  0
   14.1351   23.1984   16.2025 H   0  0  0  0  0  0  0  0  0  0  0  0
   16.3684   22.7844   17.4085 C   0  0  0  0  0  0  0  0  0  0  0  0
   17.3195   23.5828   18.1342 N   0  0  0  0  0  0  0  0  0  0  0  0
   18.2116   22.8468   19.3020 S   0  0  0  0  0  0  0  0  0  0  0  0
   18.7294   21.5787   18.7383 O   0  0  0  0  0  0  0  0  0  0  0  0
   17.3554   22.7720   20.5070 O   0  0  0  0  0  0  0  0  0  0  0  0
   21.7538   25.5104   20.4019 C   0  0  0  0  0  0  0  0  0  0  0  0
   20.5708   25.5336   21.1599 C   0  0  0  0  0  0  0  0  0  0  0  0
   19.4877   24.7334   20.7960 C   0  0  0  0  0  0  0  0  0  0  0  0
   19.5581   23.9080   19.6784 C   0  0  0  0  0  0  0  0  0  0  0  0
   20.7234   23.9090   18.9321 C   0  0  0  0  0  0  0  0  0  0  0  0
   21.8231   24.7255   19.2620 C   0  0  0  0  0  0  0  0  0  0  0  0
   22.7920   26.2128   20.9327 O   0  0  0  0  0  0  0  0  0  0  0  0
   22.4838   26.8280   22.1714 C   0  0  0  0  0  0  0  0  0  0  0  0
   17.9588   24.7044   17.4598 C   0  0  0  0  0  0  0  0  0  0  0  0
   18.1993   24.5024   15.9515 C   0  0  0  0  0  0  0  0  0  0  0  0
   17.9536   25.7741   15.1512 C   0  0  0  0  0  0  0  0  0  0  0  0
   19.6341   23.9659   15.7464 C   0  0  0  0  0  0  0  0  0  0  0  0
   15.1545   20.6833   19.1608 C   0  0  0  0  0  0  0  0  0  0  0  0
   14.5918   18.1956   18.7458 C   0  0  0  0  0  0  0  0  0  0  0  0
   13.8348   17.0550   19.0017 C   0  0  0  0  0  0  0  0  0  0  0  0
   12.8825   17.0626   20.0176 C   0  0  0  0  0  0  0  0  0  0  0  0
   12.6619   18.2145   20.7786 C   0  0  0  0  0  0  0  0  0  0  0  0
   13.4047   19.3679   20.4909 C   0  0  0  0  0  0  0  0  0  0  0  0
   14.3766   19.3763   19.4713 C   0  0  0  0  0  0  0  0  0  0  0  0
 41 40  2  0  0  0
 41 42  1  0  0  0
 40 39  1  0  0  0
 42 43  2  0  0  0
 39 38  2  0  0  0
 26 25  2  0  0  0
 26 27  1  0  0  0
 31 25  1  0  0  0
 31 32  1  0  0  0
 25 30  1  0  0  0
 27 28  2  0  0  0
 43 38  1  0  0  0
 43 37  1  0  0  0
 23 22  2  0  0  0
 30 29  2  0  0  0
 28 29  1  0  0  0
 28 22  1  0  0  0
 37  1  1  0  0  0
 22 24  2  0  0  0
 22 21  1  0  0  0
  1  2  1  0  0  0
  1 17  1  0  0  0
 13 11  1  0  0  0
 13 14  1  0  0  0
 20 21  1  0  0  0
 20 17  1  0  0  0
 21 33  1  0  0  0
 12 11  2  0  0  0
  2  3  1  0  0  0
 17 18  1  0  0  0
 11 10  1  0  0  0
 14 15  1  0  0  0
 14  9  1  0  0  0
  4  3  2  0  0  0
 15  7  1  0  0  0
  3  6  1  0  0  0
 33 34  1  0  0  0
  6  7  1  0  0  0
 10  9  1  0  0  0
  7  8  1  0  0  0
  9  8  1  0  0  0
 35 34  1  0  0  0
 34 36  1  0  0  0
 18 19  1  0  0  0
  2  5  1  0  0  0
 13 16  1  0  0  0
M  END
> <minimizedAffinity>
-9.22381

$$$$
6E9A_J0S_B_201


 43 46  0  0  0  0  0  0  0  0999 V2000
   18.2071   23.4678   18.2165 C   0  0  0  0  0  0  0  0  0  0  0  0
   18.5305   24.7449   17.5138 N   0  0  0  0  0  0  0  0  0  0  0  0
   18.6926   24.8490   16.2011 C   0  0  0  0  0  0  0  0  0  0  0  0
   18.6232   23.9256   15.3963 O   0  0  0  0  0  0  0  0  0  0  0  0
   18.6296   25.5595   18.0578 H   0  0  0  0  0  0  0  0  0  0  0  0
   18.9666   26.1191   15.7615 O   0  0  0  0  0  0  0  0  0  0  0  0
   19.5523   26.1579   14.4549 C   0  0  0  0  0  0  0  0  0  0  0  0
   19.8089   27.6303   14.1604 C   0  0  0  0  0  0  0  0  0  0  0  0
   21.1269   27.9599   14.8575 C   0  0  0  0  0  0  0  0  0  0  0  0
   20.8325   28.5054   16.1387 O   0  0  0  0  0  0  0  0  0  0  0  0
   21.2069   27.6865   17.1328 C   0  0  0  0  0  0  0  0  0  0  0  0
   21.0075   28.0005   18.3386 O   0  0  0  0  0  0  0  0  0  0  0  0
   21.7998   26.6277   16.5969 N   0  0  0  0  0  0  0  0  0  0  0  0
   21.8028   26.6317   15.1506 C   0  0  0  0  0  0  0  0  0  0  0  0
   20.9361   25.5638   14.5166 C   0  0  0  0  0  0  0  0  0  0  0  0
   22.2005   25.9063   17.1337 H   0  0  0  0  0  0  0  0  0  0  0  0
   16.7534   23.1038   17.9062 C   0  0  0  0  0  0  0  0  0  0  0  0
   15.9609   23.1437   19.1029 O   0  0  0  0  0  0  0  0  0  0  0  0
   16.2894   22.4810   19.7305 H   0  0  0  0  0  0  0  0  0  0  0  0
   16.6082   21.6960   17.3024 C   0  0  0  0  0  0  0  0  0  0  0  0
   15.2907   21.5115   16.7556 N   0  0  0  0  0  0  0  0  0  0  0  0
   14.9768   22.1441   15.2716 S   0  0  0  0  0  0  0  0  0  0  0  0
   16.1839   21.9479   14.4359 O   0  0  0  0  0  0  0  0  0  0  0  0
   14.5029   23.5290   15.4916 O   0  0  0  0  0  0  0  0  0  0  0  0
   11.4733   19.8984   13.3918 C   0  0  0  0  0  0  0  0  0  0  0  0
   11.2541   20.9327   14.3173 C   0  0  0  0  0  0  0  0  0  0  0  0
   12.3350   21.5919   14.9028 C   0  0  0  0  0  0  0  0  0  0  0  0
   13.6415   21.2338   14.5867 C   0  0  0  0  0  0  0  0  0  0  0  0
   13.8414   20.2017   13.6867 C   0  0  0  0  0  0  0  0  0  0  0  0
   12.7687   19.5021   13.0995 C   0  0  0  0  0  0  0  0  0  0  0  0
   10.3539   19.4313   12.7740 O   0  0  0  0  0  0  0  0  0  0  0  0
   10.6030   18.8829   11.4914 C   0  0  0  0  0  0  0  0  0  0  0  0
   14.5448   20.3100   17.1038 C   0  0  0  0  0  0  0  0  0  0  0  0
   13.5713   20.4712   18.2870 C   0  0  0  0  0  0  0  0  0  0  0  0
   12.2362   19.7840   18.0354 C   0  0  0  0  0  0  0  0  0  0  0  0
   14.2555   19.9403   19.5671 C   0  0  0  0  0  0  0  0  0  0  0  0
   18.4846   23.6394   19.7234 C   0  0  0  0  0  0  0  0  0  0  0  0
   20.9639   24.0307   19.1092 C   0  0  0  0  0  0  0  0  0  0  0  0
   22.2079   24.6057   19.3568 C   0  0  0  0  0  0  0  0  0  0  0  0
   22.3618   25.5135   20.4016 C   0  0  0  0  0  0  0  0  0  0  0  0
   21.2800   25.8445   21.2228 C   0  0  0  0  0  0  0  0  0  0  0  0
   20.0402   25.2346   20.9870 C   0  0  0  0  0  0  0  0  0  0  0  0
   19.8647   24.3192   19.9309 C   0  0  0  0  0  0  0  0  0  0  0  0
 41 40  2  0  0  0
 41 42  1  0  0  0
 40 39  1  0  0  0
 42 43  2  0  0  0
 39 38  2  0  0  0
 26 25  2  0  0  0
 26 27  1  0  0  0
 31 25  1  0  0  0
 31 32  1  0  0  0
 25 30  1  0  0  0
 27 28  2  0  0  0
 43 38  1  0  0  0
 43 37  1  0  0  0
 23 22  2  0  0  0
 30 29  2  0  0  0
 28 29  1  0  0  0
 28 22  1  0  0  0
 37  1  1  0  0  0
 22 24  2  0  0  0
 22 21  1  0  0  0
  1  2  1  0  0  0
  1 17  1  0  0  0
 13 11  1  0  0  0
 13 14  1  0  0  0
 20 21  1  0  0  0
 20 17  1  0  0  0
 21 33  1  0  0  0
 12 11  2  0  0  0
  2  3  1  0  0  0
 17 18  1  0  0  0
 11 10  1  0  0  0
 14 15  1  0  0  0
 14  9  1  0  0  0
  4  3  2  0  0  0
 15  7  1  0  0  0
  3  6  1  0  0  0
 33 34  1  0  0  0
  6  7  1  0  0  0
 10  9  1  0  0  0
  7  8  1  0  0  0
  9  8  1  0  0  0
 35 34  1  0  0  0
 34 36  1  0  0  0
 18 19  1  0  0  0
  2  5  1  0  0  0
 13 16  1  0  0  0
M  END
> <minimizedAffinity>
-9.21114

$$$$
