3ARP_DEQ_A_606
  RCSB PDB12061707553D
Coordinates from PDB:3ARP:A:606 Model:1 without hydrogens
 34 37  0  0  0  0            999 V2000
    9.0850   -8.0530   30.0430   C 0  0  0  0  0  0  0  0  0  0  0  0
    8.4490   -9.0840   30.6940   C 0  0  0  0  0  0  0  0  0  0  0  0
    7.7220   -8.7950   31.8640   C 0  0  0  0  0  0  0  0  0  0  0  0
    7.6750   -7.4440   32.4090   C 0  0  0  0  0  0  0  0  0  0  0  0
    9.0630   -6.7670   30.5360   C 0  0  0  0  0  0  0  0  0  0  0  0
    8.4020   -6.4350   31.7420   C 0  0  0  0  0  0  0  0  0  0  0  0
    8.3690   -5.1060   32.1870   C 0  0  0  0  0  0  0  0  0  0  0  0
    9.0400   -4.1070   31.5050   C 0  0  0  0  0  0  0  0  0  0  0  0
    9.7420   -4.4320   30.3440   C 0  0  0  0  0  0  0  0  0  0  0  0
    9.7700   -5.7550   29.8520   N 0  3  0  0  0  0  0  0  0  0  0  0
   20.2190  -10.0840   21.7800   C 0  0  0  0  0  0  0  0  0  0  0  0
   18.9390   -9.6710   22.2570   C 0  0  0  0  0  0  0  0  0  0  0  0
   17.7780   -9.9610   21.5400   N 0  3  0  0  0  0  0  0  0  0  0  0
   17.8440  -10.5580   20.2500   C 0  0  0  0  0  0  0  0  0  0  0  0
   19.1010  -10.9110   19.8030   C 0  0  0  0  0  0  0  0  0  0  0  0
   20.2700  -10.6490   20.5210   C 0  0  0  0  0  0  0  0  0  0  0  0
   21.3490   -9.8090   22.4880   C 0  0  0  0  0  0  0  0  0  0  0  0
   21.2610   -9.1750   23.7020   C 0  0  0  0  0  0  0  0  0  0  0  0
   20.0370   -8.7800   24.1710   C 0  0  0  0  0  0  0  0  0  0  0  0
   18.8710   -9.0140   23.5180   C 0  0  0  0  0  0  0  0  0  0  0  0
   16.3950   -9.6810   21.9960   C 0  0  0  0  0  0  0  0  0  0  0  0
   15.9590   -8.2140   21.8590   C 0  0  0  0  0  0  0  0  0  0  0  0
   15.1700   -7.9340   23.1560   C 0  0  0  0  0  0  0  0  0  0  0  0
   13.8110   -8.5140   22.9920   C 0  0  0  0  0  0  0  0  0  0  0  0
   12.9850   -8.0970   24.2650   C 0  0  0  0  0  0  0  0  0  0  0  0
   11.8670   -7.0420   23.8940   C 0  0  0  0  0  0  0  0  0  0  0  0
   10.7280   -6.8330   24.9630   C 0  0  0  0  0  0  0  0  0  0  0  0
   11.2760   -6.7360   26.4720   C 0  0  0  0  0  0  0  0  0  0  0  0
   10.0350   -6.4500   27.4320   C 0  0  0  0  0  0  0  0  0  0  0  0
   10.6970   -6.0380   28.6690   C 0  0  0  0  0  0  0  0  0  0  0  0
   10.4820   -3.3100   29.5890   C 0  0  0  0  0  0  0  0  0  0  0  0
   16.5700  -10.9650   19.4130   C 0  0  0  0  0  0  0  0  0  0  0  0
    7.6460   -4.7930   33.3160   N 0  0  0  0  0  0  0  0  0  0  0  0
   21.3930  -11.0450   19.9050   N 0  0  0  0  0  0  0  0  0  0  0  0
  1  2  2  0  0  0  0
  1  5  1  0  0  0  0
  2  3  1  0  0  0  0
  3  4  2  0  0  0  0
  4  6  1  0  0  0  0
  5  6  2  0  0  0  0
  5 10  1  0  0  0  0
  6  7  1  0  0  0  0
  7  8  2  0  0  0  0
  7 33  1  0  0  0  0
  8  9  1  0  0  0  0
  9 10  2  0  0  0  0
  9 31  1  0  0  0  0
 10 30  1  0  0  0  0
 11 12  2  0  0  0  0
 11 16  1  0  0  0  0
 11 17  1  0  0  0  0
 12 13  1  0  0  0  0
 12 20  1  0  0  0  0
 13 14  2  0  0  0  0
 13 21  1  0  0  0  0
 14 15  1  0  0  0  0
 14 32  1  0  0  0  0
 15 16  2  0  0  0  0
 16 34  1  0  0  0  0
 17 18  2  0  0  0  0
 18 19  1  0  0  0  0
 19 20  2  0  0  0  0
 21 22  1  0  0  0  0
 22 23  1  0  0  0  0
 23 24  1  0  0  0  0
 24 25  1  0  0  0  0
 25 26  1  0  0  0  0
 26 27  1  0  0  0  0
 27 28  1  0  0  0  0
 28 29  1  0  0  0  0
 29 30  1  0  0  0  0
M  CHG  2  10   1  13   1
A    1
C1
A    2
C2
A    3
C3
A    4
C4
A    5
C5
A    6
C6
A    7
C7
A    8
C8
A    9
C9
A   10
N1
A   11
C10
A   12
C11
A   13
N2
A   14
C12
A   15
C13
A   16
C14
A   17
C15
A   18
C16
A   19
C17
A   20
C18
A   21
C19
A   22
C20
A   23
C21
A   24
C22
A   25
C23
A   26
C24
A   27
C25
A   28
C26
A   29
C27
A   30
C28
A   31
C30
A   32
C29
A   33
N4
A   34
N3
M  END
>  <InstanceId>
3ARP_DEQ_A_606

>  <ChemCompId>
DEQ

>  <PdbId>
3ARP

>  <ChainId>
A

>  <ResidueNumber>
606

>  <InsertionCode>


>  <Model>
1

>  <AltIds>


>  <MissingHeavyAtoms>
0

>  <ObservedFormula>
C30 N4

>  <Name>
DEQUALINIUM

>  <SystematicName>
1-[10-(4-amino-2-methyl-quinolin-1-ium-1-yl)decyl]-2-methyl-quinolin-1-ium-4-amine

>  <Synonyms>
DEQUADIN

>  <Type>
NON-POLYMER

>  <Formula>
C30 H40 N4

>  <MolecularWeight>
456.665

>  <ModifiedDate>
2011-06-04

>  <Parent>


>  <OneLetterCode>


>  <SubcomponentList>


>  <AmbiguousFlag>
N

>  <InChI>
InChI=1S/C30H38N4/c1-23-21-27(31)25-15-9-11-17-29(25)33(23)19-13-7-5-3-4-6-8-14-20-34-24(2)22-28(32)26-16-10-12-18-30(26)34/h9-12,15-18,21-22,31-32H,3-8,13-14,19-20H2,1-2H3/p+2

>  <InChIKey>
PCSWXVJAIHCTMO-UHFFFAOYSA-P

>  <SMILES>
Cc1cc(c2ccccc2[n+]1CCCCCCCCCC[n+]3c(cc(c4c3cccc4)N)C)N

$$$$
