3GI5_K62_A_200


 48 52  0  0  0  0  0  0  0  0999 V2000
   21.8995   29.9644   12.8527 C   0  0  0  0  0  0  0  0  0  0  0  0
   22.0460   31.8989   14.3815 C   0  0  0  0  0  0  0  0  0  0  0  0
   22.2493   32.7115   13.4886 O   0  0  0  0  0  0  0  0  0  0  0  0
   21.8157   30.5870   14.1814 N   0  0  0  0  0  0  0  0  0  0  0  0
   21.5824   30.0238   14.9545 H   0  0  0  0  0  0  0  0  0  0  0  0
   20.7582   34.0590   16.8044 N   0  0  0  0  0  0  0  0  0  0  0  0
   21.9910   34.5506   16.6652 C   0  0  0  0  0  0  0  0  0  0  0  0
   22.4555   35.6033   17.0722 O   0  0  0  0  0  0  0  0  0  0  0  0
   22.8282   33.6194   15.9472 O   0  0  0  0  0  0  0  0  0  0  0  0
   20.6108   32.7453   16.1888 C   0  0  0  0  0  0  0  0  0  0  0  0
   22.0715   32.4127   15.7910 C   0  0  0  0  0  0  0  0  0  0  0  0
   17.3373   34.8924   18.0239 C   0  0  0  0  0  0  0  0  0  0  0  0
   17.5987   35.9792   18.8545 C   0  0  0  0  0  0  0  0  0  0  0  0
   18.9022   36.4331   18.9960 C   0  0  0  0  0  0  0  0  0  0  0  0
   19.9458   35.7975   18.3324 C   0  0  0  0  0  0  0  0  0  0  0  0
   18.3840   34.2524   17.3533 C   0  0  0  0  0  0  0  0  0  0  0  0
   19.7054   34.7009   17.4922 C   0  0  0  0  0  0  0  0  0  0  0  0
   15.2011   34.3555   18.8390 O   0  0  0  0  0  0  0  0  0  0  0  0
   15.9282   34.3919   17.8561 C   0  0  0  0  0  0  0  0  0  0  0  0
   15.4434   33.9521   16.5033 C   0  0  0  0  0  0  0  0  0  0  0  0
   20.6210   30.0958   12.0223 C   0  0  0  0  0  0  0  0  0  0  0  0
   20.3942   31.4540   11.5650 O   0  0  0  0  0  0  0  0  0  0  0  0
   20.2815   32.0385   12.3309 H   0  0  0  0  0  0  0  0  0  0  0  0
   19.4147   29.6138   12.8481 C   0  0  0  0  0  0  0  0  0  0  0  0
   18.1294   29.8826   12.1499 N   0  0  0  0  0  0  0  0  0  0  0  0
   17.3192   28.5502   11.6678 S   0  0  0  0  0  0  0  0  0  0  0  0
   17.1396   27.7597   12.8471 O   0  0  0  0  0  0  0  0  0  0  0  0
   16.0526   28.9677   11.1080 O   0  0  0  0  0  0  0  0  0  0  0  0
   18.1915   27.7103   10.5851 C   0  0  0  0  0  0  0  0  0  0  0  0
   18.4163   28.2583    9.3210 C   0  0  0  0  0  0  0  0  0  0  0  0
   19.1959   27.5844    8.3676 C   0  0  0  0  0  0  0  0  0  0  0  0
   18.7632   26.4554   10.8942 C   0  0  0  0  0  0  0  0  0  0  0  0
   19.5394   25.7980    9.9384 C   0  0  0  0  0  0  0  0  0  0  0  0
   20.1922   24.5902    9.9955 O   0  0  0  0  0  0  0  0  0  0  0  0
   19.7478   26.3599    8.6993 C   0  0  0  0  0  0  0  0  0  0  0  0
   20.5365   25.5439    7.9456 O   0  0  0  0  0  0  0  0  0  0  0  0
   20.9060   24.4111    8.7614 C   0  0  0  0  0  0  0  0  0  0  0  0
   17.2903   30.8862   12.8534 C   0  0  0  0  0  0  0  0  0  0  0  0
   18.0327   31.4654   14.0712 C   0  0  0  0  0  0  0  0  0  0  0  0
   17.3241   31.0620   15.3569 C   0  0  0  0  0  0  0  0  0  0  0  0
   18.1419   32.9927   13.9923 C   0  0  0  0  0  0  0  0  0  0  0  0
   22.2864   28.5129   13.1979 C   0  0  0  0  0  0  0  0  0  0  0  0
   23.0946   27.9058   12.0531 C   0  0  0  0  0  0  0  0  0  0  0  0
   22.4982   27.5751   10.8358 C   0  0  0  0  0  0  0  0  0  0  0  0
   23.2630   27.0366    9.7864 C   0  0  0  0  0  0  0  0  0  0  0  0
   24.6239   26.8360    9.9359 C   0  0  0  0  0  0  0  0  0  0  0  0
   25.2197   27.1593   11.1488 C   0  0  0  0  0  0  0  0  0  0  0  0
   24.4645   27.6919   12.1949 C   0  0  0  0  0  0  0  0  0  0  0  0
 18 19  2  0  0  0
 19 20  1  0  0  0
 19 12  1  0  0  0
 12 13  2  0  0  0
 12 16  1  0  0  0
 13 14  1  0  0  0
 14 15  2  0  0  0
 15 17  1  0  0  0
 16 17  2  0  0  0
 17  6  1  0  0  0
  6  7  1  0  0  0
  6 10  1  0  0  0
  7  8  2  0  0  0
  7  9  1  0  0  0
  9 11  1  0  0  0
 10 11  1  0  0  0
 11  2  1  0  0  0
  2  3  2  0  0  0
  2  4  1  0  0  0
  4  1  1  0  0  0
  1 42  1  0  0  0
  1 21  1  0  0  0
 42 43  1  0  0  0
 43 44  2  0  0  0
 43 48  1  0  0  0
 44 45  1  0  0  0
 45 46  2  0  0  0
 46 47  1  0  0  0
 47 48  2  0  0  0
 21 22  1  0  0  0
 21 24  1  0  0  0
 24 25  1  0  0  0
 25 38  1  0  0  0
 25 26  1  0  0  0
 38 39  1  0  0  0
 39 40  1  0  0  0
 39 41  1  0  0  0
 26 27  2  0  0  0
 26 28  2  0  0  0
 26 29  1  0  0  0
 29 30  2  0  0  0
 29 32  1  0  0  0
 30 31  1  0  0  0
 31 35  2  0  0  0
 32 33  2  0  0  0
 33 34  1  0  0  0
 33 35  1  0  0  0
 34 37  1  0  0  0
 35 36  1  0  0  0
 36 37  1  0  0  0
  4  5  1  0  0  0
 22 23  1  0  0  0
M  END
> <minimizedAffinity>
-10.01993

$$$$
3GI5_K62_A_200


 48 52  0  0  0  0  0  0  0  0999 V2000
   17.4123   32.3563   15.2563 C   0  0  0  0  0  0  0  0  0  0  0  0
   17.8223   30.9326   13.2800 C   0  0  0  0  0  0  0  0  0  0  0  0
   18.5418   31.7501   12.7206 O   0  0  0  0  0  0  0  0  0  0  0  0
   17.2827   31.1013   14.5025 N   0  0  0  0  0  0  0  0  0  0  0  0
   16.7826   30.3556   14.9065 H   0  0  0  0  0  0  0  0  0  0  0  0
   18.9741   28.1545   11.5050 N   0  0  0  0  0  0  0  0  0  0  0  0
   18.3200   28.8085   10.5431 C   0  0  0  0  0  0  0  0  0  0  0  0
   18.3328   28.6268    9.3363 O   0  0  0  0  0  0  0  0  0  0  0  0
   17.4795   29.8352   11.1117 O   0  0  0  0  0  0  0  0  0  0  0  0
   18.6646   28.6665   12.8349 C   0  0  0  0  0  0  0  0  0  0  0  0
   17.5191   29.6665   12.5340 C   0  0  0  0  0  0  0  0  0  0  0  0
   22.1026   26.1511   11.2176 C   0  0  0  0  0  0  0  0  0  0  0  0
   21.5981   24.9030   10.8612 C   0  0  0  0  0  0  0  0  0  0  0  0
   20.2289   24.7375   10.7092 C   0  0  0  0  0  0  0  0  0  0  0  0
   19.3614   25.8013   10.9308 C   0  0  0  0  0  0  0  0  0  0  0  0
   21.2333   27.2236   11.4390 C   0  0  0  0  0  0  0  0  0  0  0  0
   19.8477   27.0661   11.2915 C   0  0  0  0  0  0  0  0  0  0  0  0
   24.3267   25.3981   11.1685 O   0  0  0  0  0  0  0  0  0  0  0  0
   23.5855   26.3475   11.3812 C   0  0  0  0  0  0  0  0  0  0  0  0
   24.1244   27.6876   11.7963 C   0  0  0  0  0  0  0  0  0  0  0  0
   18.5929   32.3785   16.2296 C   0  0  0  0  0  0  0  0  0  0  0  0
   18.1760   32.5989   17.6018 O   0  0  0  0  0  0  0  0  0  0  0  0
   17.7482   33.4664   17.6744 H   0  0  0  0  0  0  0  0  0  0  0  0
   19.5937   33.4685   15.8056 C   0  0  0  0  0  0  0  0  0  0  0  0
   20.9601   32.9138   15.6135 N   0  0  0  0  0  0  0  0  0  0  0  0
   22.0839   33.4845   16.6506 S   0  0  0  0  0  0  0  0  0  0  0  0
   22.3301   32.4215   17.5764 O   0  0  0  0  0  0  0  0  0  0  0  0
   23.2707   33.8181   15.8943 O   0  0  0  0  0  0  0  0  0  0  0  0
   21.5171   34.7772   17.4544 C   0  0  0  0  0  0  0  0  0  0  0  0
   21.2326   34.6601   18.8162 C   0  0  0  0  0  0  0  0  0  0  0  0
   20.7771   35.7612   19.5582 C   0  0  0  0  0  0  0  0  0  0  0  0
   21.3369   36.0306   16.8270 C   0  0  0  0  0  0  0  0  0  0  0  0
   20.8871   37.1181   17.5775 C   0  0  0  0  0  0  0  0  0  0  0  0
   20.6372   38.4172   17.2058 O   0  0  0  0  0  0  0  0  0  0  0  0
   20.6150   36.9776   18.9194 C   0  0  0  0  0  0  0  0  0  0  0  0
   20.2001   38.1678   19.4367 O   0  0  0  0  0  0  0  0  0  0  0  0
   20.2574   39.1515   18.3810 C   0  0  0  0  0  0  0  0  0  0  0  0
   20.9661   31.4365   15.4592 C   0  0  0  0  0  0  0  0  0  0  0  0
   21.9347   31.0054   14.3431 C   0  0  0  0  0  0  0  0  0  0  0  0
   21.5925   31.7250   13.0459 C   0  0  0  0  0  0  0  0  0  0  0  0
   21.9032   29.4884   14.1226 C   0  0  0  0  0  0  0  0  0  0  0  0
   16.0312   32.4745   15.9304 C   0  0  0  0  0  0  0  0  0  0  0  0
   15.8472   33.8831   16.4910 C   0  0  0  0  0  0  0  0  0  0  0  0
   15.1887   34.1052   17.7010 C   0  0  0  0  0  0  0  0  0  0  0  0
   15.0475   35.4075   18.2111 C   0  0  0  0  0  0  0  0  0  0  0  0
   15.5697   36.4927   17.5297 C   0  0  0  0  0  0  0  0  0  0  0  0
   16.2213   36.2754   16.3218 C   0  0  0  0  0  0  0  0  0  0  0  0
   16.3621   34.9846   15.8096 C   0  0  0  0  0  0  0  0  0  0  0  0
 18 19  2  0  0  0
 19 20  1  0  0  0
 19 12  1  0  0  0
 12 13  2  0  0  0
 12 16  1  0  0  0
 13 14  1  0  0  0
 14 15  2  0  0  0
 15 17  1  0  0  0
 16 17  2  0  0  0
 17  6  1  0  0  0
  6  7  1  0  0  0
  6 10  1  0  0  0
  7  8  2  0  0  0
  7  9  1  0  0  0
  9 11  1  0  0  0
 10 11  1  0  0  0
 11  2  1  0  0  0
  2  3  2  0  0  0
  2  4  1  0  0  0
  4  1  1  0  0  0
  1 42  1  0  0  0
  1 21  1  0  0  0
 42 43  1  0  0  0
 43 44  2  0  0  0
 43 48  1  0  0  0
 44 45  1  0  0  0
 45 46  2  0  0  0
 46 47  1  0  0  0
 47 48  2  0  0  0
 21 22  1  0  0  0
 21 24  1  0  0  0
 24 25  1  0  0  0
 25 38  1  0  0  0
 25 26  1  0  0  0
 38 39  1  0  0  0
 39 40  1  0  0  0
 39 41  1  0  0  0
 26 27  2  0  0  0
 26 28  2  0  0  0
 26 29  1  0  0  0
 29 30  2  0  0  0
 29 32  1  0  0  0
 30 31  1  0  0  0
 31 35  2  0  0  0
 32 33  2  0  0  0
 33 34  1  0  0  0
 33 35  1  0  0  0
 34 37  1  0  0  0
 35 36  1  0  0  0
 36 37  1  0  0  0
  4  5  1  0  0  0
 22 23  1  0  0  0
M  END
> <minimizedAffinity>
-9.97150

$$$$
3GI5_K62_A_200


 48 52  0  0  0  0  0  0  0  0999 V2000
   17.7249   32.4946   14.9324 C   0  0  0  0  0  0  0  0  0  0  0  0
   17.7548   30.5775   13.3753 C   0  0  0  0  0  0  0  0  0  0  0  0
   17.8847   29.7391   14.2580 O   0  0  0  0  0  0  0  0  0  0  0  0
   17.6170   31.8995   13.5929 N   0  0  0  0  0  0  0  0  0  0  0  0
   17.4371   32.4895   12.8256 H   0  0  0  0  0  0  0  0  0  0  0  0
   18.1789   27.9396   11.1265 N   0  0  0  0  0  0  0  0  0  0  0  0
   19.2204   28.7090   10.8041 C   0  0  0  0  0  0  0  0  0  0  0  0
   20.1877   28.4505   10.1061 O   0  0  0  0  0  0  0  0  0  0  0  0
   19.0755   30.0238   11.3822 O   0  0  0  0  0  0  0  0  0  0  0  0
   17.2130   28.6357   11.9686 C   0  0  0  0  0  0  0  0  0  0  0  0
   17.7649   30.0841   11.9583 C   0  0  0  0  0  0  0  0  0  0  0  0
   17.4526   25.0232    8.9239 C   0  0  0  0  0  0  0  0  0  0  0  0
   17.6078   23.9622    9.8125 C   0  0  0  0  0  0  0  0  0  0  0  0
   17.9411   24.2211   11.1343 C   0  0  0  0  0  0  0  0  0  0  0  0
   18.1409   25.5270   11.5680 C   0  0  0  0  0  0  0  0  0  0  0  0
   17.6505   26.3377    9.3573 C   0  0  0  0  0  0  0  0  0  0  0  0
   17.9910   26.6101   10.6901 C   0  0  0  0  0  0  0  0  0  0  0  0
   16.2042   23.9451    7.2521 O   0  0  0  0  0  0  0  0  0  0  0  0
   17.0862   24.7588    7.4887 C   0  0  0  0  0  0  0  0  0  0  0  0
   17.7985   25.4886    6.3848 C   0  0  0  0  0  0  0  0  0  0  0  0
   18.7635   31.8200   15.8311 C   0  0  0  0  0  0  0  0  0  0  0  0
   18.1556   31.0708   16.9149 O   0  0  0  0  0  0  0  0  0  0  0  0
   17.6551   31.6753   17.4850 H   0  0  0  0  0  0  0  0  0  0  0  0
   19.7221   32.8805   16.4019 C   0  0  0  0  0  0  0  0  0  0  0  0
   21.0979   32.7253   15.8588 N   0  0  0  0  0  0  0  0  0  0  0  0
   22.2696   33.4345   16.7466 S   0  0  0  0  0  0  0  0  0  0  0  0
   22.6808   32.4499   17.7002 O   0  0  0  0  0  0  0  0  0  0  0  0
   23.3512   33.8014   15.8592 O   0  0  0  0  0  0  0  0  0  0  0  0
   21.6873   34.7324   17.5308 C   0  0  0  0  0  0  0  0  0  0  0  0
   21.5374   34.6781   18.9177 C   0  0  0  0  0  0  0  0  0  0  0  0
   21.0737   35.7889   19.6401 C   0  0  0  0  0  0  0  0  0  0  0  0
   21.3612   35.9313   16.8575 C   0  0  0  0  0  0  0  0  0  0  0  0
   20.9051   37.0295   17.5885 C   0  0  0  0  0  0  0  0  0  0  0  0
   20.5298   38.2846   17.1736 O   0  0  0  0  0  0  0  0  0  0  0  0
   20.7672   36.9515   18.9558 C   0  0  0  0  0  0  0  0  0  0  0  0
   20.3171   38.1403   19.4461 O   0  0  0  0  0  0  0  0  0  0  0  0
   20.2071   39.0609   18.3389 C   0  0  0  0  0  0  0  0  0  0  0  0
   21.4020   31.3302   15.4494 C   0  0  0  0  0  0  0  0  0  0  0  0
   21.9674   31.2892   14.0182 C   0  0  0  0  0  0  0  0  0  0  0  0
   21.1936   32.2462   13.1220 C   0  0  0  0  0  0  0  0  0  0  0  0
   21.9211   29.8729   13.4329 C   0  0  0  0  0  0  0  0  0  0  0  0
   16.2765   32.3949   15.4499 C   0  0  0  0  0  0  0  0  0  0  0  0
   15.9087   33.6679   16.2092 C   0  0  0  0  0  0  0  0  0  0  0  0
   15.0810   33.6329   17.3319 C   0  0  0  0  0  0  0  0  0  0  0  0
   14.7707   34.8129   18.0301 C   0  0  0  0  0  0  0  0  0  0  0  0
   15.2902   36.0298   17.6250 C   0  0  0  0  0  0  0  0  0  0  0  0
   16.1104   36.0687   16.5041 C   0  0  0  0  0  0  0  0  0  0  0  0
   16.4196   34.9003   15.8058 C   0  0  0  0  0  0  0  0  0  0  0  0
 18 19  2  0  0  0
 19 20  1  0  0  0
 19 12  1  0  0  0
 12 13  2  0  0  0
 12 16  1  0  0  0
 13 14  1  0  0  0
 14 15  2  0  0  0
 15 17  1  0  0  0
 16 17  2  0  0  0
 17  6  1  0  0  0
  6  7  1  0  0  0
  6 10  1  0  0  0
  7  8  2  0  0  0
  7  9  1  0  0  0
  9 11  1  0  0  0
 10 11  1  0  0  0
 11  2  1  0  0  0
  2  3  2  0  0  0
  2  4  1  0  0  0
  4  1  1  0  0  0
  1 42  1  0  0  0
  1 21  1  0  0  0
 42 43  1  0  0  0
 43 44  2  0  0  0
 43 48  1  0  0  0
 44 45  1  0  0  0
 45 46  2  0  0  0
 46 47  1  0  0  0
 47 48  2  0  0  0
 21 22  1  0  0  0
 21 24  1  0  0  0
 24 25  1  0  0  0
 25 38  1  0  0  0
 25 26  1  0  0  0
 38 39  1  0  0  0
 39 40  1  0  0  0
 39 41  1  0  0  0
 26 27  2  0  0  0
 26 28  2  0  0  0
 26 29  1  0  0  0
 29 30  2  0  0  0
 29 32  1  0  0  0
 30 31  1  0  0  0
 31 35  2  0  0  0
 32 33  2  0  0  0
 33 34  1  0  0  0
 33 35  1  0  0  0
 34 37  1  0  0  0
 35 36  1  0  0  0
 36 37  1  0  0  0
  4  5  1  0  0  0
 22 23  1  0  0  0
M  END
> <minimizedAffinity>
-9.84349

$$$$
3GI5_K62_A_200


 48 52  0  0  0  0  0  0  0  0999 V2000
   20.6403   33.9643   16.0209 C   0  0  0  0  0  0  0  0  0  0  0  0
   21.6199   32.6078   14.2041 C   0  0  0  0  0  0  0  0  0  0  0  0
   22.3393   33.5077   13.7898 O   0  0  0  0  0  0  0  0  0  0  0  0
   20.8202   32.7058   15.2834 N   0  0  0  0  0  0  0  0  0  0  0  0
   20.3379   31.9041   15.5898 H   0  0  0  0  0  0  0  0  0  0  0  0
   19.8492   30.0886   12.5569 N   0  0  0  0  0  0  0  0  0  0  0  0
   20.3382   29.4083   13.5955 C   0  0  0  0  0  0  0  0  0  0  0  0
   20.0460   28.2938   13.9982 O   0  0  0  0  0  0  0  0  0  0  0  0
   21.3765   30.1661   14.2523 O   0  0  0  0  0  0  0  0  0  0  0  0
   20.4878   31.3894   12.3939 C   0  0  0  0  0  0  0  0  0  0  0  0
   21.6310   31.3175   13.4382 C   0  0  0  0  0  0  0  0  0  0  0  0
   18.2089   28.4272    9.6528 C   0  0  0  0  0  0  0  0  0  0  0  0
   16.8642   28.6718    9.9196 C   0  0  0  0  0  0  0  0  0  0  0  0
   16.5123   29.3925   11.0519 C   0  0  0  0  0  0  0  0  0  0  0  0
   17.4901   29.8507   11.9279 C   0  0  0  0  0  0  0  0  0  0  0  0
   19.1949   28.8885   10.5303 C   0  0  0  0  0  0  0  0  0  0  0  0
   18.8498   29.6148   11.6792 C   0  0  0  0  0  0  0  0  0  0  0  0
   18.6476   28.2377    7.3533 O   0  0  0  0  0  0  0  0  0  0  0  0
   18.6065   27.6517    8.4262 C   0  0  0  0  0  0  0  0  0  0  0  0
   18.9428   26.1912    8.5372 C   0  0  0  0  0  0  0  0  0  0  0  0
   21.9195   34.4902   16.6755 C   0  0  0  0  0  0  0  0  0  0  0  0
   22.9739   33.4941   16.7110 O   0  0  0  0  0  0  0  0  0  0  0  0
   22.6864   32.7378   17.2461 H   0  0  0  0  0  0  0  0  0  0  0  0
   21.6097   34.9748   18.1033 C   0  0  0  0  0  0  0  0  0  0  0  0
   21.2130   36.4079   18.1222 N   0  0  0  0  0  0  0  0  0  0  0  0
   20.1610   36.8127   19.3027 S   0  0  0  0  0  0  0  0  0  0  0  0
   20.3705   35.8602   20.3499 O   0  0  0  0  0  0  0  0  0  0  0  0
   20.4638   38.1584   19.7378 O   0  0  0  0  0  0  0  0  0  0  0  0
   18.6308   36.6982   18.7698 C   0  0  0  0  0  0  0  0  0  0  0  0
   18.1367   37.6769   17.9055 C   0  0  0  0  0  0  0  0  0  0  0  0
   16.8331   37.5973   17.3907 C   0  0  0  0  0  0  0  0  0  0  0  0
   17.7925   35.6171   19.1239 C   0  0  0  0  0  0  0  0  0  0  0  0
   16.4998   35.5481   18.6017 C   0  0  0  0  0  0  0  0  0  0  0  0
   15.5093   34.6146   18.7903 O   0  0  0  0  0  0  0  0  0  0  0  0
   16.0362   36.5250   17.7500 C   0  0  0  0  0  0  0  0  0  0  0  0
   14.7596   36.2412   17.3682 O   0  0  0  0  0  0  0  0  0  0  0  0
   14.3913   34.9785   17.9643 C   0  0  0  0  0  0  0  0  0  0  0  0
   22.3719   37.3285   17.9952 C   0  0  0  0  0  0  0  0  0  0  0  0
   21.9188   38.7171   17.5091 C   0  0  0  0  0  0  0  0  0  0  0  0
   21.3194   38.6134   16.1135 C   0  0  0  0  0  0  0  0  0  0  0  0
   23.0781   39.7205   17.5062 C   0  0  0  0  0  0  0  0  0  0  0  0
   19.5208   33.6005   17.0161 C   0  0  0  0  0  0  0  0  0  0  0  0
   18.1866   33.4979   16.2802 C   0  0  0  0  0  0  0  0  0  0  0  0
   17.3032   32.4441   16.5174 C   0  0  0  0  0  0  0  0  0  0  0  0
   16.0702   32.3781   15.8455 C   0  0  0  0  0  0  0  0  0  0  0  0
   15.7033   33.3633   14.9457 C   0  0  0  0  0  0  0  0  0  0  0  0
   16.5831   34.4110   14.7034 C   0  0  0  0  0  0  0  0  0  0  0  0
   17.8098   34.4801   15.3659 C   0  0  0  0  0  0  0  0  0  0  0  0
 18 19  2  0  0  0
 19 20  1  0  0  0
 19 12  1  0  0  0
 12 13  2  0  0  0
 12 16  1  0  0  0
 13 14  1  0  0  0
 14 15  2  0  0  0
 15 17  1  0  0  0
 16 17  2  0  0  0
 17  6  1  0  0  0
  6  7  1  0  0  0
  6 10  1  0  0  0
  7  8  2  0  0  0
  7  9  1  0  0  0
  9 11  1  0  0  0
 10 11  1  0  0  0
 11  2  1  0  0  0
  2  3  2  0  0  0
  2  4  1  0  0  0
  4  1  1  0  0  0
  1 42  1  0  0  0
  1 21  1  0  0  0
 42 43  1  0  0  0
 43 44  2  0  0  0
 43 48  1  0  0  0
 44 45  1  0  0  0
 45 46  2  0  0  0
 46 47  1  0  0  0
 47 48  2  0  0  0
 21 22  1  0  0  0
 21 24  1  0  0  0
 24 25  1  0  0  0
 25 38  1  0  0  0
 25 26  1  0  0  0
 38 39  1  0  0  0
 39 40  1  0  0  0
 39 41  1  0  0  0
 26 27  2  0  0  0
 26 28  2  0  0  0
 26 29  1  0  0  0
 29 30  2  0  0  0
 29 32  1  0  0  0
 30 31  1  0  0  0
 31 35  2  0  0  0
 32 33  2  0  0  0
 33 34  1  0  0  0
 33 35  1  0  0  0
 34 37  1  0  0  0
 35 36  1  0  0  0
 36 37  1  0  0  0
  4  5  1  0  0  0
 22 23  1  0  0  0
M  END
> <minimizedAffinity>
-9.73087

$$$$
3GI5_K62_A_200


 48 52  0  0  0  0  0  0  0  0999 V2000
   19.6353   28.9525   13.6734 C   0  0  0  0  0  0  0  0  0  0  0  0
   21.5564   28.0722   12.3946 C   0  0  0  0  0  0  0  0  0  0  0  0
   22.1120   29.1587   12.2962 O   0  0  0  0  0  0  0  0  0  0  0  0
   20.4106   27.8594   13.0698 N   0  0  0  0  0  0  0  0  0  0  0  0
   20.0799   26.9368   13.1626 H   0  0  0  0  0  0  0  0  0  0  0  0
   21.8056   26.0395    9.5659 N   0  0  0  0  0  0  0  0  0  0  0  0
   21.3300   25.1667   10.4563 C   0  0  0  0  0  0  0  0  0  0  0  0
   20.8712   24.0500   10.2773 O   0  0  0  0  0  0  0  0  0  0  0  0
   21.4482   25.6949   11.7945 O   0  0  0  0  0  0  0  0  0  0  0  0
   22.2903   27.2641   10.1920 C   0  0  0  0  0  0  0  0  0  0  0  0
   22.2014   26.9100   11.6984 C   0  0  0  0  0  0  0  0  0  0  0  0
   23.1475   25.1919    6.1947 C   0  0  0  0  0  0  0  0  0  0  0  0
   22.0216   25.3766    5.3962 C   0  0  0  0  0  0  0  0  0  0  0  0
   20.8315   25.7896    5.9780 C   0  0  0  0  0  0  0  0  0  0  0  0
   20.7531   25.9979    7.3506 C   0  0  0  0  0  0  0  0  0  0  0  0
   23.0727   25.4028    7.5748 C   0  0  0  0  0  0  0  0  0  0  0  0
   21.8740   25.8167    8.1734 C   0  0  0  0  0  0  0  0  0  0  0  0
   25.3185   24.3035    6.3103 O   0  0  0  0  0  0  0  0  0  0  0  0
   24.4465   24.7494    5.5776 C   0  0  0  0  0  0  0  0  0  0  0  0
   24.6488   24.8599    4.0925 C   0  0  0  0  0  0  0  0  0  0  0  0
   20.0377   29.2796   15.1130 C   0  0  0  0  0  0  0  0  0  0  0  0
   19.9861   28.1178   15.9806 O   0  0  0  0  0  0  0  0  0  0  0  0
   19.0757   27.7854   16.0222 H   0  0  0  0  0  0  0  0  0  0  0  0
   19.1240   30.3874   15.6676 C   0  0  0  0  0  0  0  0  0  0  0  0
   19.4942   31.7238   15.1305 N   0  0  0  0  0  0  0  0  0  0  0  0
   18.2576   32.5686   14.4814 S   0  0  0  0  0  0  0  0  0  0  0  0
   18.8641   33.6198   13.7232 O   0  0  0  0  0  0  0  0  0  0  0  0
   17.4925   31.6765   13.6384 O   0  0  0  0  0  0  0  0  0  0  0  0
   17.3300   33.2135   15.6485 C   0  0  0  0  0  0  0  0  0  0  0  0
   16.1784   32.5364   16.0538 C   0  0  0  0  0  0  0  0  0  0  0  0
   15.3682   33.0380   17.0846 C   0  0  0  0  0  0  0  0  0  0  0  0
   17.6713   34.4229   16.2950 C   0  0  0  0  0  0  0  0  0  0  0  0
   16.8590   34.9084   17.3211 C   0  0  0  0  0  0  0  0  0  0  0  0
   16.9742   36.0405   18.0912 O   0  0  0  0  0  0  0  0  0  0  0  0
   15.7293   34.2214   17.7037 C   0  0  0  0  0  0  0  0  0  0  0  0
   15.1067   34.8802   18.7208 O   0  0  0  0  0  0  0  0  0  0  0  0
   15.9078   36.0345   19.0543 C   0  0  0  0  0  0  0  0  0  0  0  0
   20.3434   32.5057   16.0654 C   0  0  0  0  0  0  0  0  0  0  0  0
   21.8352   32.3312   15.7281 C   0  0  0  0  0  0  0  0  0  0  0  0
   22.6529   33.4355   16.3834 C   0  0  0  0  0  0  0  0  0  0  0  0
   22.0758   32.3318   14.2138 C   0  0  0  0  0  0  0  0  0  0  0  0
   18.1871   28.4482   13.5176 C   0  0  0  0  0  0  0  0  0  0  0  0
   17.9361   28.0325   12.0697 C   0  0  0  0  0  0  0  0  0  0  0  0
   17.9446   26.6913   11.6851 C   0  0  0  0  0  0  0  0  0  0  0  0
   17.6906   26.3270   10.3514 C   0  0  0  0  0  0  0  0  0  0  0  0
   17.4147   27.2903    9.3971 C   0  0  0  0  0  0  0  0  0  0  0  0
   17.4107   28.6272    9.7759 C   0  0  0  0  0  0  0  0  0  0  0  0
   17.6648   28.9945   11.0983 C   0  0  0  0  0  0  0  0  0  0  0  0
 18 19  2  0  0  0
 19 20  1  0  0  0
 19 12  1  0  0  0
 12 13  2  0  0  0
 12 16  1  0  0  0
 13 14  1  0  0  0
 14 15  2  0  0  0
 15 17  1  0  0  0
 16 17  2  0  0  0
 17  6  1  0  0  0
  6  7  1  0  0  0
  6 10  1  0  0  0
  7  8  2  0  0  0
  7  9  1  0  0  0
  9 11  1  0  0  0
 10 11  1  0  0  0
 11  2  1  0  0  0
  2  3  2  0  0  0
  2  4  1  0  0  0
  4  1  1  0  0  0
  1 42  1  0  0  0
  1 21  1  0  0  0
 42 43  1  0  0  0
 43 44  2  0  0  0
 43 48  1  0  0  0
 44 45  1  0  0  0
 45 46  2  0  0  0
 46 47  1  0  0  0
 47 48  2  0  0  0
 21 22  1  0  0  0
 21 24  1  0  0  0
 24 25  1  0  0  0
 25 38  1  0  0  0
 25 26  1  0  0  0
 38 39  1  0  0  0
 39 40  1  0  0  0
 39 41  1  0  0  0
 26 27  2  0  0  0
 26 28  2  0  0  0
 26 29  1  0  0  0
 29 30  2  0  0  0
 29 32  1  0  0  0
 30 31  1  0  0  0
 31 35  2  0  0  0
 32 33  2  0  0  0
 33 34  1  0  0  0
 33 35  1  0  0  0
 34 37  1  0  0  0
 35 36  1  0  0  0
 36 37  1  0  0  0
  4  5  1  0  0  0
 22 23  1  0  0  0
M  END
> <minimizedAffinity>
-9.71313

$$$$
3GI5_K62_A_200


 48 52  0  0  0  0  0  0  0  0999 V2000
   19.6336   28.9623   13.6763 C   0  0  0  0  0  0  0  0  0  0  0  0
   21.5380   28.0479   12.3965 C   0  0  0  0  0  0  0  0  0  0  0  0
   22.0253   29.1443   12.1532 O   0  0  0  0  0  0  0  0  0  0  0  0
   20.4400   27.8513   13.1515 N   0  0  0  0  0  0  0  0  0  0  0  0
   20.1674   26.9285   13.3597 H   0  0  0  0  0  0  0  0  0  0  0  0
   22.0852   25.9994    9.6218 N   0  0  0  0  0  0  0  0  0  0  0  0
   21.4399   25.1550   10.4288 C   0  0  0  0  0  0  0  0  0  0  0  0
   20.9529   24.0642   10.1788 O   0  0  0  0  0  0  0  0  0  0  0  0
   21.3911   25.6786   11.7731 O   0  0  0  0  0  0  0  0  0  0  0  0
   22.5388   27.1974   10.3186 C   0  0  0  0  0  0  0  0  0  0  0  0
   22.2141   26.8514   11.7942 C   0  0  0  0  0  0  0  0  0  0  0  0
   21.5616   25.6383    5.9503 C   0  0  0  0  0  0  0  0  0  0  0  0
   22.8448   25.3094    5.5206 C   0  0  0  0  0  0  0  0  0  0  0  0
   23.8695   25.2000    6.4498 C   0  0  0  0  0  0  0  0  0  0  0  0
   23.6265   25.4370    7.7982 C   0  0  0  0  0  0  0  0  0  0  0  0
   21.3133   25.8751    7.3057 C   0  0  0  0  0  0  0  0  0  0  0  0
   22.3425   25.7706    8.2525 C   0  0  0  0  0  0  0  0  0  0  0  0
   19.5865   26.6139    5.1361 O   0  0  0  0  0  0  0  0  0  0  0  0
   20.4390   25.7556    4.9553 C   0  0  0  0  0  0  0  0  0  0  0  0
   20.3842   24.8307    3.7721 C   0  0  0  0  0  0  0  0  0  0  0  0
   19.9868   29.3648   15.1097 C   0  0  0  0  0  0  0  0  0  0  0  0
   19.9495   28.2406   16.0263 O   0  0  0  0  0  0  0  0  0  0  0  0
   19.0495   27.8802   16.0596 H   0  0  0  0  0  0  0  0  0  0  0  0
   19.0236   30.4645   15.5916 C   0  0  0  0  0  0  0  0  0  0  0  0
   19.3810   31.7929   15.0266 N   0  0  0  0  0  0  0  0  0  0  0  0
   18.1242   32.6427   14.4247 S   0  0  0  0  0  0  0  0  0  0  0  0
   18.7058   33.6922   13.6450 O   0  0  0  0  0  0  0  0  0  0  0  0
   17.3247   31.7541   13.6104 O   0  0  0  0  0  0  0  0  0  0  0  0
   17.2433   33.2903   15.6261 C   0  0  0  0  0  0  0  0  0  0  0  0
   16.1165   32.6072   16.0874 C   0  0  0  0  0  0  0  0  0  0  0  0
   15.3482   33.1112   17.1487 C   0  0  0  0  0  0  0  0  0  0  0  0
   17.6022   34.5082   16.2466 C   0  0  0  0  0  0  0  0  0  0  0  0
   16.8317   34.9959   17.3034 C   0  0  0  0  0  0  0  0  0  0  0  0
   16.9708   36.1358   18.0580 O   0  0  0  0  0  0  0  0  0  0  0  0
   15.7259   34.3030   17.7412 C   0  0  0  0  0  0  0  0  0  0  0  0
   15.1430   34.9656   18.7791 O   0  0  0  0  0  0  0  0  0  0  0  0
   15.9480   36.1294   19.0672 C   0  0  0  0  0  0  0  0  0  0  0  0
   20.2770   32.5755   15.9161 C   0  0  0  0  0  0  0  0  0  0  0  0
   21.7513   32.3815   15.5180 C   0  0  0  0  0  0  0  0  0  0  0  0
   22.6151   33.4520   16.1705 C   0  0  0  0  0  0  0  0  0  0  0  0
   21.9350   32.4182   13.9963 C   0  0  0  0  0  0  0  0  0  0  0  0
   18.1969   28.4320   13.5012 C   0  0  0  0  0  0  0  0  0  0  0  0
   17.9624   28.0426   12.0433 C   0  0  0  0  0  0  0  0  0  0  0  0
   17.9413   26.7068   11.6405 C   0  0  0  0  0  0  0  0  0  0  0  0
   17.7030   26.3674   10.2973 C   0  0  0  0  0  0  0  0  0  0  0  0
   17.4723   27.3506    9.3513 C   0  0  0  0  0  0  0  0  0  0  0  0
   17.4980   28.6819    9.7483 C   0  0  0  0  0  0  0  0  0  0  0  0
   17.7366   29.0245   11.0802 C   0  0  0  0  0  0  0  0  0  0  0  0
 18 19  2  0  0  0
 19 20  1  0  0  0
 19 12  1  0  0  0
 12 13  2  0  0  0
 12 16  1  0  0  0
 13 14  1  0  0  0
 14 15  2  0  0  0
 15 17  1  0  0  0
 16 17  2  0  0  0
 17  6  1  0  0  0
  6  7  1  0  0  0
  6 10  1  0  0  0
  7  8  2  0  0  0
  7  9  1  0  0  0
  9 11  1  0  0  0
 10 11  1  0  0  0
 11  2  1  0  0  0
  2  3  2  0  0  0
  2  4  1  0  0  0
  4  1  1  0  0  0
  1 42  1  0  0  0
  1 21  1  0  0  0
 42 43  1  0  0  0
 43 44  2  0  0  0
 43 48  1  0  0  0
 44 45  1  0  0  0
 45 46  2  0  0  0
 46 47  1  0  0  0
 47 48  2  0  0  0
 21 22  1  0  0  0
 21 24  1  0  0  0
 24 25  1  0  0  0
 25 38  1  0  0  0
 25 26  1  0  0  0
 38 39  1  0  0  0
 39 40  1  0  0  0
 39 41  1  0  0  0
 26 27  2  0  0  0
 26 28  2  0  0  0
 26 29  1  0  0  0
 29 30  2  0  0  0
 29 32  1  0  0  0
 30 31  1  0  0  0
 31 35  2  0  0  0
 32 33  2  0  0  0
 33 34  1  0  0  0
 33 35  1  0  0  0
 34 37  1  0  0  0
 35 36  1  0  0  0
 36 37  1  0  0  0
  4  5  1  0  0  0
 22 23  1  0  0  0
M  END
> <minimizedAffinity>
-9.63853

$$$$
3GI5_K62_A_200


 48 52  0  0  0  0  0  0  0  0999 V2000
   19.6591   29.3433   13.9319 C   0  0  0  0  0  0  0  0  0  0  0  0
   21.2146   29.2664   12.0148 C   0  0  0  0  0  0  0  0  0  0  0  0
   21.1672   30.4716   11.8044 O   0  0  0  0  0  0  0  0  0  0  0  0
   20.5813   28.6429   13.0269 N   0  0  0  0  0  0  0  0  0  0  0  0
   20.7423   27.6816   13.1657 H   0  0  0  0  0  0  0  0  0  0  0  0
   21.4173   26.5495    9.8303 N   0  0  0  0  0  0  0  0  0  0  0  0
   22.2513   26.1543   10.7941 C   0  0  0  0  0  0  0  0  0  0  0  0
   22.7455   25.0553   10.9883 O   0  0  0  0  0  0  0  0  0  0  0  0
   22.5837   27.2606   11.6597 O   0  0  0  0  0  0  0  0  0  0  0  0
   21.0770   27.9636    9.9348 C   0  0  0  0  0  0  0  0  0  0  0  0
   22.0275   28.4388   11.0632 C   0  0  0  0  0  0  0  0  0  0  0  0
   19.1256   24.4202    7.8058 C   0  0  0  0  0  0  0  0  0  0  0  0
   19.9487   24.0671    6.7394 C   0  0  0  0  0  0  0  0  0  0  0  0
   21.2571   24.5278    6.7044 C   0  0  0  0  0  0  0  0  0  0  0  0
   21.7408   25.3536    7.7131 C   0  0  0  0  0  0  0  0  0  0  0  0
   19.6095   25.2485    8.8230 C   0  0  0  0  0  0  0  0  0  0  0  0
   20.9290   25.7224    8.7954 C   0  0  0  0  0  0  0  0  0  0  0  0
   17.4609   22.9296    8.5289 O   0  0  0  0  0  0  0  0  0  0  0  0
   17.7060   23.9242    7.8604 C   0  0  0  0  0  0  0  0  0  0  0  0
   16.6276   24.6485    7.1049 C   0  0  0  0  0  0  0  0  0  0  0  0
   20.2256   29.5848   15.3327 C   0  0  0  0  0  0  0  0  0  0  0  0
   19.8340   28.5527   16.2745 O   0  0  0  0  0  0  0  0  0  0  0  0
   18.8686   28.5505   16.3688 H   0  0  0  0  0  0  0  0  0  0  0  0
   19.7685   30.9620   15.8463 C   0  0  0  0  0  0  0  0  0  0  0  0
   19.0365   31.7228   14.7990 N   0  0  0  0  0  0  0  0  0  0  0  0
   17.4429   31.9266   15.0871 S   0  0  0  0  0  0  0  0  0  0  0  0
   16.8066   31.8522   13.8075 O   0  0  0  0  0  0  0  0  0  0  0  0
   17.0015   30.8647   15.9643 O   0  0  0  0  0  0  0  0  0  0  0  0
   17.1618   33.3856   15.7434 C   0  0  0  0  0  0  0  0  0  0  0  0
   16.6883   34.4170   14.9304 C   0  0  0  0  0  0  0  0  0  0  0  0
   16.3959   35.6827   15.4628 C   0  0  0  0  0  0  0  0  0  0  0  0
   17.3461   33.6358   17.1219 C   0  0  0  0  0  0  0  0  0  0  0  0
   17.0478   34.8976   17.6388 C   0  0  0  0  0  0  0  0  0  0  0  0
   17.1403   35.3817   18.9215 O   0  0  0  0  0  0  0  0  0  0  0  0
   16.5806   35.8979   16.8169 C   0  0  0  0  0  0  0  0  0  0  0  0
   16.3549   37.0285   17.5426 O   0  0  0  0  0  0  0  0  0  0  0  0
   16.6414   36.7291   18.9260 C   0  0  0  0  0  0  0  0  0  0  0  0
   19.7451   32.9607   14.3844 C   0  0  0  0  0  0  0  0  0  0  0  0
   20.9854   33.2033   15.2633 C   0  0  0  0  0  0  0  0  0  0  0  0
   20.8587   34.5341   15.9920 C   0  0  0  0  0  0  0  0  0  0  0  0
   22.2766   33.1816   14.4366 C   0  0  0  0  0  0  0  0  0  0  0  0
   18.4161   28.4326   13.8978 C   0  0  0  0  0  0  0  0  0  0  0  0
   17.9266   28.2775   12.4595 C   0  0  0  0  0  0  0  0  0  0  0  0
   17.4931   29.3754   11.7153 C   0  0  0  0  0  0  0  0  0  0  0  0
   17.0658   29.2157   10.3857 C   0  0  0  0  0  0  0  0  0  0  0  0
   17.0789   27.9691    9.7852 C   0  0  0  0  0  0  0  0  0  0  0  0
   17.5050   26.8731   10.5253 C   0  0  0  0  0  0  0  0  0  0  0  0
   17.9279   27.0256   11.8468 C   0  0  0  0  0  0  0  0  0  0  0  0
 18 19  2  0  0  0
 19 20  1  0  0  0
 19 12  1  0  0  0
 12 13  2  0  0  0
 12 16  1  0  0  0
 13 14  1  0  0  0
 14 15  2  0  0  0
 15 17  1  0  0  0
 16 17  2  0  0  0
 17  6  1  0  0  0
  6  7  1  0  0  0
  6 10  1  0  0  0
  7  8  2  0  0  0
  7  9  1  0  0  0
  9 11  1  0  0  0
 10 11  1  0  0  0
 11  2  1  0  0  0
  2  3  2  0  0  0
  2  4  1  0  0  0
  4  1  1  0  0  0
  1 42  1  0  0  0
  1 21  1  0  0  0
 42 43  1  0  0  0
 43 44  2  0  0  0
 43 48  1  0  0  0
 44 45  1  0  0  0
 45 46  2  0  0  0
 46 47  1  0  0  0
 47 48  2  0  0  0
 21 22  1  0  0  0
 21 24  1  0  0  0
 24 25  1  0  0  0
 25 38  1  0  0  0
 25 26  1  0  0  0
 38 39  1  0  0  0
 39 40  1  0  0  0
 39 41  1  0  0  0
 26 27  2  0  0  0
 26 28  2  0  0  0
 26 29  1  0  0  0
 29 30  2  0  0  0
 29 32  1  0  0  0
 30 31  1  0  0  0
 31 35  2  0  0  0
 32 33  2  0  0  0
 33 34  1  0  0  0
 33 35  1  0  0  0
 34 37  1  0  0  0
 35 36  1  0  0  0
 36 37  1  0  0  0
  4  5  1  0  0  0
 22 23  1  0  0  0
M  END
> <minimizedAffinity>
-9.62742

$$$$
3GI5_K62_A_200


 48 52  0  0  0  0  0  0  0  0999 V2000
   19.3196   28.5857   10.8677 C   0  0  0  0  0  0  0  0  0  0  0  0
   17.9031   29.4935   12.6761 C   0  0  0  0  0  0  0  0  0  0  0  0
   17.1157   30.0412   11.9153 O   0  0  0  0  0  0  0  0  0  0  0  0
   18.9462   28.7384   12.2810 N   0  0  0  0  0  0  0  0  0  0  0  0
   19.4785   28.2712   12.9647 H   0  0  0  0  0  0  0  0  0  0  0  0
   18.3762   31.4511   15.5291 N   0  0  0  0  0  0  0  0  0  0  0  0
   19.0994   30.3750   15.8451 C   0  0  0  0  0  0  0  0  0  0  0  0
   19.9022   30.2202   16.7512 O   0  0  0  0  0  0  0  0  0  0  0  0
   18.7951   29.2819   14.9528 O   0  0  0  0  0  0  0  0  0  0  0  0
   17.5071   31.2194   14.3812 C   0  0  0  0  0  0  0  0  0  0  0  0
   17.6858   29.6977   14.1467 C   0  0  0  0  0  0  0  0  0  0  0  0
   17.2579   34.4194   17.4842 C   0  0  0  0  0  0  0  0  0  0  0  0
   18.4507   35.1254   17.6186 C   0  0  0  0  0  0  0  0  0  0  0  0
   19.6120   34.6189   17.0529 C   0  0  0  0  0  0  0  0  0  0  0  0
   19.5943   33.4053   16.3744 C   0  0  0  0  0  0  0  0  0  0  0  0
   17.2360   33.1999   16.8007 C   0  0  0  0  0  0  0  0  0  0  0  0
   18.4047   32.6774   16.2283 C   0  0  0  0  0  0  0  0  0  0  0  0
   15.2804   34.1977   18.7318 O   0  0  0  0  0  0  0  0  0  0  0  0
   15.9892   34.9585   18.0877 C   0  0  0  0  0  0  0  0  0  0  0  0
   15.6191   36.4020   17.8931 C   0  0  0  0  0  0  0  0  0  0  0  0
   18.8663   27.2642   10.2437 C   0  0  0  0  0  0  0  0  0  0  0  0
   19.0532   26.1363   11.1372 O   0  0  0  0  0  0  0  0  0  0  0  0
   19.9973   26.0333   11.3348 H   0  0  0  0  0  0  0  0  0  0  0  0
   19.6304   27.0224    8.9295 C   0  0  0  0  0  0  0  0  0  0  0  0
   19.2788   25.7105    8.3238 N   0  0  0  0  0  0  0  0  0  0  0  0
   20.3474   24.5119    8.6159 S   0  0  0  0  0  0  0  0  0  0  0  0
   19.8379   23.8092    9.7537 O   0  0  0  0  0  0  0  0  0  0  0  0
   20.4060   23.6621    7.4471 O   0  0  0  0  0  0  0  0  0  0  0  0
   21.8097   25.1228    8.9718 C   0  0  0  0  0  0  0  0  0  0  0  0
   22.6486   25.5283    7.9321 C   0  0  0  0  0  0  0  0  0  0  0  0
   23.9050   26.0966    8.1950 C   0  0  0  0  0  0  0  0  0  0  0  0
   22.2475   25.2923   10.3048 C   0  0  0  0  0  0  0  0  0  0  0  0
   23.4974   25.8624   10.5520 C   0  0  0  0  0  0  0  0  0  0  0  0
   24.1382   26.1290   11.7379 O   0  0  0  0  0  0  0  0  0  0  0  0
   24.3056   26.2556    9.5096 C   0  0  0  0  0  0  0  0  0  0  0  0
   25.4633   26.7863    9.9936 O   0  0  0  0  0  0  0  0  0  0  0  0
   25.3794   26.7868   11.4353 C   0  0  0  0  0  0  0  0  0  0  0  0
   17.8603   25.3325    8.5509 C   0  0  0  0  0  0  0  0  0  0  0  0
   17.0338   25.5050    7.2637 C   0  0  0  0  0  0  0  0  0  0  0  0
   16.2532   24.2317    6.9681 C   0  0  0  0  0  0  0  0  0  0  0  0
   17.9216   25.8630    6.0660 C   0  0  0  0  0  0  0  0  0  0  0  0
   20.8486   28.7751   10.9134 C   0  0  0  0  0  0  0  0  0  0  0  0
   21.2122   29.7975   11.9879 C   0  0  0  0  0  0  0  0  0  0  0  0
   20.7849   31.1233   11.9062 C   0  0  0  0  0  0  0  0  0  0  0  0
   21.1122   32.0449   12.9160 C   0  0  0  0  0  0  0  0  0  0  0  0
   21.8536   31.6522   14.0163 C   0  0  0  0  0  0  0  0  0  0  0  0
   22.2853   30.3340   14.0979 C   0  0  0  0  0  0  0  0  0  0  0  0
   21.9652   29.4155   13.0969 C   0  0  0  0  0  0  0  0  0  0  0  0
 18 19  2  0  0  0
 19 20  1  0  0  0
 19 12  1  0  0  0
 12 13  2  0  0  0
 12 16  1  0  0  0
 13 14  1  0  0  0
 14 15  2  0  0  0
 15 17  1  0  0  0
 16 17  2  0  0  0
 17  6  1  0  0  0
  6  7  1  0  0  0
  6 10  1  0  0  0
  7  8  2  0  0  0
  7  9  1  0  0  0
  9 11  1  0  0  0
 10 11  1  0  0  0
 11  2  1  0  0  0
  2  3  2  0  0  0
  2  4  1  0  0  0
  4  1  1  0  0  0
  1 42  1  0  0  0
  1 21  1  0  0  0
 42 43  1  0  0  0
 43 44  2  0  0  0
 43 48  1  0  0  0
 44 45  1  0  0  0
 45 46  2  0  0  0
 46 47  1  0  0  0
 47 48  2  0  0  0
 21 22  1  0  0  0
 21 24  1  0  0  0
 24 25  1  0  0  0
 25 38  1  0  0  0
 25 26  1  0  0  0
 38 39  1  0  0  0
 39 40  1  0  0  0
 39 41  1  0  0  0
 26 27  2  0  0  0
 26 28  2  0  0  0
 26 29  1  0  0  0
 29 30  2  0  0  0
 29 32  1  0  0  0
 30 31  1  0  0  0
 31 35  2  0  0  0
 32 33  2  0  0  0
 33 34  1  0  0  0
 33 35  1  0  0  0
 34 37  1  0  0  0
 35 36  1  0  0  0
 36 37  1  0  0  0
  4  5  1  0  0  0
 22 23  1  0  0  0
M  END
> <minimizedAffinity>
-9.53066

$$$$
3GI5_K62_A_200


 48 52  0  0  0  0  0  0  0  0999 V2000
   20.1926   28.0991   10.7062 C   0  0  0  0  0  0  0  0  0  0  0  0
   19.8680   29.9585   12.2992 C   0  0  0  0  0  0  0  0  0  0  0  0
   20.7687   30.6435   11.8319 O   0  0  0  0  0  0  0  0  0  0  0  0
   19.4824   28.7657   11.8068 N   0  0  0  0  0  0  0  0  0  0  0  0
   18.6950   28.3236   12.1989 H   0  0  0  0  0  0  0  0  0  0  0  0
   19.9916   31.7914   15.2691 N   0  0  0  0  0  0  0  0  0  0  0  0
   19.7572   30.5666   15.7442 C   0  0  0  0  0  0  0  0  0  0  0  0
   19.8219   30.1555   16.8915 O   0  0  0  0  0  0  0  0  0  0  0  0
   19.3429   29.6829   14.6808 O   0  0  0  0  0  0  0  0  0  0  0  0
   19.7760   31.8801   13.8296 C   0  0  0  0  0  0  0  0  0  0  0  0
   19.1636   30.4921   13.5119 C   0  0  0  0  0  0  0  0  0  0  0  0
   19.7936   34.7286   17.5534 C   0  0  0  0  0  0  0  0  0  0  0  0
   21.1282   35.1222   17.6115 C   0  0  0  0  0  0  0  0  0  0  0  0
   22.0800   34.4193   16.8868 C   0  0  0  0  0  0  0  0  0  0  0  0
   21.7123   33.3164   16.1241 C   0  0  0  0  0  0  0  0  0  0  0  0
   19.4200   33.6215   16.7855 C   0  0  0  0  0  0  0  0  0  0  0  0
   20.3746   32.9020   16.0523 C   0  0  0  0  0  0  0  0  0  0  0  0
   18.1003   34.8820   19.1736 O   0  0  0  0  0  0  0  0  0  0  0  0
   18.7490   35.4841   18.3295 C   0  0  0  0  0  0  0  0  0  0  0  0
   18.5234   36.9452   18.0598 C   0  0  0  0  0  0  0  0  0  0  0  0
   19.3399   27.8872    9.4534 C   0  0  0  0  0  0  0  0  0  0  0  0
   18.1077   28.6527    9.4855 O   0  0  0  0  0  0  0  0  0  0  0  0
   17.5655   28.3615   10.2352 H   0  0  0  0  0  0  0  0  0  0  0  0
   19.0212   26.3901    9.2904 C   0  0  0  0  0  0  0  0  0  0  0  0
   19.4052   25.8910    7.9432 N   0  0  0  0  0  0  0  0  0  0  0  0
   20.0331   24.3845    7.9233 S   0  0  0  0  0  0  0  0  0  0  0  0
   20.0282   23.9461    9.2855 O   0  0  0  0  0  0  0  0  0  0  0  0
   19.1900   23.5530    7.0928 O   0  0  0  0  0  0  0  0  0  0  0  0
   21.5606   24.4083    7.3716 C   0  0  0  0  0  0  0  0  0  0  0  0
   22.2154   25.6337    7.2352 C   0  0  0  0  0  0  0  0  0  0  0  0
   23.5479   25.6983    6.7982 C   0  0  0  0  0  0  0  0  0  0  0  0
   22.2636   23.2228    7.0591 C   0  0  0  0  0  0  0  0  0  0  0  0
   23.5893   23.3011    6.6295 C   0  0  0  0  0  0  0  0  0  0  0  0
   24.4718   22.3106    6.2715 O   0  0  0  0  0  0  0  0  0  0  0  0
   24.2135   24.5215    6.5046 C   0  0  0  0  0  0  0  0  0  0  0  0
   25.4961   24.3464    6.0800 O   0  0  0  0  0  0  0  0  0  0  0  0
   25.7357   22.9262    5.9743 C   0  0  0  0  0  0  0  0  0  0  0  0
   18.3551   26.1283    6.9197 C   0  0  0  0  0  0  0  0  0  0  0  0
   18.9386   26.8515    5.6925 C   0  0  0  0  0  0  0  0  0  0  0  0
   18.4549   28.2946    5.6561 C   0  0  0  0  0  0  0  0  0  0  0  0
   18.5622   26.1416    4.3866 C   0  0  0  0  0  0  0  0  0  0  0  0
   20.6761   26.7964   11.3732 C   0  0  0  0  0  0  0  0  0  0  0  0
   22.1999   26.7170   11.3112 C   0  0  0  0  0  0  0  0  0  0  0  0
   22.8484   25.6891   10.6258 C   0  0  0  0  0  0  0  0  0  0  0  0
   24.2520   25.6447   10.5622 C   0  0  0  0  0  0  0  0  0  0  0  0
   25.0171   26.6263   11.1671 C   0  0  0  0  0  0  0  0  0  0  0  0
   24.3744   27.6483   11.8549 C   0  0  0  0  0  0  0  0  0  0  0  0
   22.9811   27.6957   11.9233 C   0  0  0  0  0  0  0  0  0  0  0  0
 18 19  2  0  0  0
 19 20  1  0  0  0
 19 12  1  0  0  0
 12 13  2  0  0  0
 12 16  1  0  0  0
 13 14  1  0  0  0
 14 15  2  0  0  0
 15 17  1  0  0  0
 16 17  2  0  0  0
 17  6  1  0  0  0
  6  7  1  0  0  0
  6 10  1  0  0  0
  7  8  2  0  0  0
  7  9  1  0  0  0
  9 11  1  0  0  0
 10 11  1  0  0  0
 11  2  1  0  0  0
  2  3  2  0  0  0
  2  4  1  0  0  0
  4  1  1  0  0  0
  1 42  1  0  0  0
  1 21  1  0  0  0
 42 43  1  0  0  0
 43 44  2  0  0  0
 43 48  1  0  0  0
 44 45  1  0  0  0
 45 46  2  0  0  0
 46 47  1  0  0  0
 47 48  2  0  0  0
 21 22  1  0  0  0
 21 24  1  0  0  0
 24 25  1  0  0  0
 25 38  1  0  0  0
 25 26  1  0  0  0
 38 39  1  0  0  0
 39 40  1  0  0  0
 39 41  1  0  0  0
 26 27  2  0  0  0
 26 28  2  0  0  0
 26 29  1  0  0  0
 29 30  2  0  0  0
 29 32  1  0  0  0
 30 31  1  0  0  0
 31 35  2  0  0  0
 32 33  2  0  0  0
 33 34  1  0  0  0
 33 35  1  0  0  0
 34 37  1  0  0  0
 35 36  1  0  0  0
 36 37  1  0  0  0
  4  5  1  0  0  0
 22 23  1  0  0  0
M  END
> <minimizedAffinity>
-9.46221

$$$$
3GI5_K62_A_200


 48 52  0  0  0  0  0  0  0  0999 V2000
   20.2949   28.1054   10.9842 C   0  0  0  0  0  0  0  0  0  0  0  0
   20.4418   29.5830   12.9580 C   0  0  0  0  0  0  0  0  0  0  0  0
   21.4654   30.1410   12.5840 O   0  0  0  0  0  0  0  0  0  0  0  0
   19.7814   28.6460   12.2507 N   0  0  0  0  0  0  0  0  0  0  0  0
   18.9223   28.3107   12.5952 H   0  0  0  0  0  0  0  0  0  0  0  0
   19.0434   32.0159   15.0365 N   0  0  0  0  0  0  0  0  0  0  0  0
   20.2288   31.8408   15.6238 C   0  0  0  0  0  0  0  0  0  0  0  0
   20.7742   32.5140   16.4834 O   0  0  0  0  0  0  0  0  0  0  0  0
   20.8647   30.6423   15.1311 O   0  0  0  0  0  0  0  0  0  0  0  0
   18.7412   30.9664   14.0702 C   0  0  0  0  0  0  0  0  0  0  0  0
   19.9058   29.9708   14.3047 C   0  0  0  0  0  0  0  0  0  0  0  0
   17.0811   34.5587   16.9254 C   0  0  0  0  0  0  0  0  0  0  0  0
   16.3610   35.1673   15.9005 C   0  0  0  0  0  0  0  0  0  0  0  0
   16.5230   34.7247   14.5955 C   0  0  0  0  0  0  0  0  0  0  0  0
   17.4125   33.6961   14.3053 C   0  0  0  0  0  0  0  0  0  0  0  0
   17.9746   33.5225   16.6375 C   0  0  0  0  0  0  0  0  0  0  0  0
   18.1485   33.0702   15.3216 C   0  0  0  0  0  0  0  0  0  0  0  0
   15.8459   34.8120   18.9069 O   0  0  0  0  0  0  0  0  0  0  0  0
   16.9122   35.0240   18.3464 C   0  0  0  0  0  0  0  0  0  0  0  0
   18.0400   35.7305   19.0445 C   0  0  0  0  0  0  0  0  0  0  0  0
   19.2337   27.9690    9.8902 C   0  0  0  0  0  0  0  0  0  0  0  0
   18.0024   28.6608   10.2230 O   0  0  0  0  0  0  0  0  0  0  0  0
   17.6184   28.2703   11.0237 H   0  0  0  0  0  0  0  0  0  0  0  0
   18.9434   26.4795    9.6323 C   0  0  0  0  0  0  0  0  0  0  0  0
   19.4066   26.0558    8.2842 N   0  0  0  0  0  0  0  0  0  0  0  0
   20.0033   24.5384    8.2097 S   0  0  0  0  0  0  0  0  0  0  0  0
   20.0513   24.0755    9.5629 O   0  0  0  0  0  0  0  0  0  0  0  0
   19.1075   23.7381    7.4042 O   0  0  0  0  0  0  0  0  0  0  0  0
   21.5046   24.5435    7.5896 C   0  0  0  0  0  0  0  0  0  0  0  0
   22.1744   25.7592    7.4399 C   0  0  0  0  0  0  0  0  0  0  0  0
   23.4867   25.8068    6.9437 C   0  0  0  0  0  0  0  0  0  0  0  0
   22.1714   23.3505    7.2299 C   0  0  0  0  0  0  0  0  0  0  0  0
   23.4776   23.4119    6.7416 C   0  0  0  0  0  0  0  0  0  0  0  0
   24.3251   22.4114    6.3309 O   0  0  0  0  0  0  0  0  0  0  0  0
   24.1172   24.6230    6.6047 C   0  0  0  0  0  0  0  0  0  0  0  0
   25.3760   24.4317    6.1201 O   0  0  0  0  0  0  0  0  0  0  0  0
   25.5851   23.0092    5.9849 C   0  0  0  0  0  0  0  0  0  0  0  0
   18.4326   26.3821    7.2112 C   0  0  0  0  0  0  0  0  0  0  0  0
   19.1198   27.1331    6.0564 C   0  0  0  0  0  0  0  0  0  0  0  0
   18.2844   28.3374    5.6445 C   0  0  0  0  0  0  0  0  0  0  0  0
   19.3508   26.2196    4.8468 C   0  0  0  0  0  0  0  0  0  0  0  0
   20.9214   26.7700   11.4312 C   0  0  0  0  0  0  0  0  0  0  0  0
   22.3852   26.7140   10.9991 C   0  0  0  0  0  0  0  0  0  0  0  0
   23.0609   25.5000   10.8709 C   0  0  0  0  0  0  0  0  0  0  0  0
   24.4022   25.4676   10.4517 C   0  0  0  0  0  0  0  0  0  0  0  0
   25.0744   26.6378   10.1459 C   0  0  0  0  0  0  0  0  0  0  0  0
   24.4059   27.8488   10.2777 C   0  0  0  0  0  0  0  0  0  0  0  0
   23.0747   27.8868   10.6960 C   0  0  0  0  0  0  0  0  0  0  0  0
 18 19  2  0  0  0
 19 20  1  0  0  0
 19 12  1  0  0  0
 12 13  2  0  0  0
 12 16  1  0  0  0
 13 14  1  0  0  0
 14 15  2  0  0  0
 15 17  1  0  0  0
 16 17  2  0  0  0
 17  6  1  0  0  0
  6  7  1  0  0  0
  6 10  1  0  0  0
  7  8  2  0  0  0
  7  9  1  0  0  0
  9 11  1  0  0  0
 10 11  1  0  0  0
 11  2  1  0  0  0
  2  3  2  0  0  0
  2  4  1  0  0  0
  4  1  1  0  0  0
  1 42  1  0  0  0
  1 21  1  0  0  0
 42 43  1  0  0  0
 43 44  2  0  0  0
 43 48  1  0  0  0
 44 45  1  0  0  0
 45 46  2  0  0  0
 46 47  1  0  0  0
 47 48  2  0  0  0
 21 22  1  0  0  0
 21 24  1  0  0  0
 24 25  1  0  0  0
 25 38  1  0  0  0
 25 26  1  0  0  0
 38 39  1  0  0  0
 39 40  1  0  0  0
 39 41  1  0  0  0
 26 27  2  0  0  0
 26 28  2  0  0  0
 26 29  1  0  0  0
 29 30  2  0  0  0
 29 32  1  0  0  0
 30 31  1  0  0  0
 31 35  2  0  0  0
 32 33  2  0  0  0
 33 34  1  0  0  0
 33 35  1  0  0  0
 34 37  1  0  0  0
 35 36  1  0  0  0
 36 37  1  0  0  0
  4  5  1  0  0  0
 22 23  1  0  0  0
M  END
> <minimizedAffinity>
-9.43196

$$$$
