3GI5_K62_A_200
  RCSB PDB12061708453D
Coordinates from PDB:3GI5:A:200 Model:1 without hydrogens
 46 50  0  0  0  0            999 V2000
   18.4850   27.6690    5.8500   O 0  0  0  0  0  0  0  0  0  0  0  0
   18.7280   26.4910    5.6280   C 0  0  0  0  0  0  0  0  0  0  0  0
   18.1280   25.7730    4.4520   C 0  0  0  0  0  0  0  0  0  0  0  0
   19.6520   25.7600    6.5640   C 0  0  0  0  0  0  0  0  0  0  0  0
   20.1720   24.5190    6.2050   C 0  0  0  0  0  0  0  0  0  0  0  0
   21.0190   23.8540    7.0800   C 0  0  0  0  0  0  0  0  0  0  0  0
   21.3660   24.4280    8.2980   C 0  0  0  0  0  0  0  0  0  0  0  0
   19.9970   26.3390    7.7890   C 0  0  0  0  0  0  0  0  0  0  0  0
   20.8550   25.6770    8.6790   C 0  0  0  0  0  0  0  0  0  0  0  0
   21.1920   26.2600    9.9200   N 0  0  0  0  0  0  0  0  0  0  0  0
   21.5290   25.5790   11.0170   C 0  0  0  0  0  0  0  0  0  0  0  0
   21.6120   24.3730   11.1850   O 0  0  0  0  0  0  0  0  0  0  0  0
   21.8560   26.4840   12.0930   O 0  0  0  0  0  0  0  0  0  0  0  0
   21.2390   27.7030   10.1250   C 0  0  0  0  0  0  0  0  0  0  0  0
   21.8680   27.8050   11.5380   C 0  0  0  0  0  0  0  0  0  0  0  0
   21.0530   28.7920   12.3210   C 0  0  0  0  0  0  0  0  0  0  0  0
   21.0730   29.9560   11.9420   O 0  0  0  0  0  0  0  0  0  0  0  0
   20.3450   28.3450   13.3760   N 0  0  0  0  0  0  0  0  0  0  0  0
   19.4170   29.2040   14.1250   C 0  0  0  0  0  0  0  0  0  0  0  0
   18.0930   28.4220   14.0190   C 0  0  0  0  0  0  0  0  0  0  0  0
   17.7860   28.1190   12.5540   C 0  0  0  0  0  0  0  0  0  0  0  0
   17.3940   29.1240   11.6690   C 0  0  0  0  0  0  0  0  0  0  0  0
   17.1360   28.8290   10.3190   C 0  0  0  0  0  0  0  0  0  0  0  0
   17.2780   27.5390    9.8390   C 0  0  0  0  0  0  0  0  0  0  0  0
   17.6630   26.5350   10.7190   C 0  0  0  0  0  0  0  0  0  0  0  0
   17.9180   26.8220   12.0610   C 0  0  0  0  0  0  0  0  0  0  0  0
   19.8620   29.4990   15.5590   C 0  0  0  0  0  0  0  0  0  0  0  0
   19.7690   28.3340   16.4190   O 0  0  0  0  0  0  0  0  0  0  0  0
   19.0150   30.6460   16.1390   C 0  0  0  0  0  0  0  0  0  0  0  0
   19.2680   31.9280   15.4290   N 0  0  0  0  0  0  0  0  0  0  0  0
   20.0530   32.8920   16.2420   C 0  0  0  0  0  0  0  0  0  0  0  0
   21.5350   32.4800   16.3020   C 0  0  0  0  0  0  0  0  0  0  0  0
   22.3090   33.4380   17.1970   C 0  0  0  0  0  0  0  0  0  0  0  0
   22.1680   32.4430   14.9060   C 0  0  0  0  0  0  0  0  0  0  0  0
   17.9610   32.5760   14.6970   S 0  0  0  0  0  0  0  0  0  0  0  0
   18.4770   33.4800   13.7150   O 0  0  0  0  0  0  0  0  0  0  0  0
   17.2040   31.5040   14.0890   O 0  0  0  0  0  0  0  0  0  0  0  0
   17.0570   33.4010   15.7650   C 0  0  0  0  0  0  0  0  0  0  0  0
   16.0660   32.7270   16.4810   C 0  0  0  0  0  0  0  0  0  0  0  0
   15.2870   33.3920   17.4410   C 0  0  0  0  0  0  0  0  0  0  0  0
   17.2660   34.7750   16.0210   C 0  0  0  0  0  0  0  0  0  0  0  0
   16.4870   35.4230   16.9810   C 0  0  0  0  0  0  0  0  0  0  0  0
   16.4970   36.7300   17.4050   O 0  0  0  0  0  0  0  0  0  0  0  0
   15.5170   34.7360   17.6750   C 0  0  0  0  0  0  0  0  0  0  0  0
   14.8970   35.5700   18.5560   O 0  0  0  0  0  0  0  0  0  0  0  0
   15.5380   36.8610   18.4670   C 0  0  0  0  0  0  0  0  0  0  0  0
  1  2  2  0  0  0  0
  2  3  1  0  0  0  0
  2  4  1  0  0  0  0
  4  5  2  0  0  0  0
  4  8  1  0  0  0  0
  5  6  1  0  0  0  0
  6  7  2  0  0  0  0
  7  9  1  0  0  0  0
  8  9  2  0  0  0  0
  9 10  1  0  0  0  0
 10 11  1  0  0  0  0
 10 14  1  0  0  0  0
 11 12  2  0  0  0  0
 11 13  1  0  0  0  0
 13 15  1  0  0  0  0
 14 15  1  0  0  0  0
 15 16  1  0  0  0  0
 16 17  2  0  0  0  0
 16 18  1  0  0  0  0
 18 19  1  0  0  0  0
 19 20  1  0  0  0  0
 19 27  1  0  0  0  0
 20 21  1  0  0  0  0
 21 22  2  0  0  0  0
 21 26  1  0  0  0  0
 22 23  1  0  0  0  0
 23 24  2  0  0  0  0
 24 25  1  0  0  0  0
 25 26  2  0  0  0  0
 27 28  1  0  0  0  0
 27 29  1  0  0  0  0
 29 30  1  0  0  0  0
 30 31  1  0  0  0  0
 30 35  1  0  0  0  0
 31 32  1  0  0  0  0
 32 33  1  0  0  0  0
 32 34  1  0  0  0  0
 35 36  2  0  0  0  0
 35 37  2  0  0  0  0
 35 38  1  0  0  0  0
 38 39  2  0  0  0  0
 38 41  1  0  0  0  0
 39 40  1  0  0  0  0
 40 44  2  0  0  0  0
 41 42  2  0  0  0  0
 42 43  1  0  0  0  0
 42 44  1  0  0  0  0
 43 46  1  0  0  0  0
 44 45  1  0  0  0  0
 45 46  1  0  0  0  0
A    1
O45
A    2
C46
A    3
C47
A    4
C41
A    5
C40
A    6
C45
A    7
C44
A    8
C42
A    9
C43
A   10
N24
A   11
C26
A   12
O27
A   13
O28
A   14
C25
A   15
C29
A   16
C21
A   17
O22
A   18
N20
A   19
C19
A   20
C32
A   21
C38
A   22
C37
A   23
C36
A   24
C35
A   25
C34
A   26
C33
A   27
C17
A   28
O18
A   29
C16
A   30
N11
A   31
C12
A   32
C13
A   33
C15
A   34
C14
A   35
S8
A   36
O9
A   37
O10
A   38
C5
A   39
C6
A   40
C7
A   41
C4
A   42
C3
A   43
O29
A   44
C2
A   45
O19
A   46
C18
M  END
>  <InstanceId>
3GI5_K62_A_200

>  <ChemCompId>
K62

>  <PdbId>
3GI5

>  <ChainId>
A

>  <ResidueNumber>
200

>  <InsertionCode>


>  <Model>
1

>  <AltIds>


>  <MissingHeavyAtoms>
0

>  <ObservedFormula>
C33 N3 O9 S

>  <Name>
(5S)-3-(3-Acetylphenyl)-N-[(1S,2R)-3-[(1,3-benzodioxol-5-ylsulfonyl)(2-methylpropyl)amino]-2-hydroxy-1-(phenylmethyl)propyl]-2-oxo-5-oxazolidinecarboxamide

>  <SystematicName>
(5S)-N-[(2S,3R)-4-(1,3-benzodioxol-5-ylsulfonyl-(2-methylpropyl)amino)-3-hydroxy-1-phenyl-butan-2-yl]-3-(3-ethanoylphenyl)-2-oxo-1,3-oxazolidine-5-carboxamide

>  <Synonyms>
(5S)-3-(3-acetylphenyl)-N-{(1S,2R)-3-[(1,3-benzodioxol-5-ylsulfonyl)(2-methylpropyl)amino]-1-benzyl-2-hydroxypropyl}-2-oxo-1,3-oxazolidine-5-carboxamide

>  <Type>
NON-POLYMER

>  <Formula>
C33 H37 N3 O9 S

>  <MolecularWeight>
651.727

>  <ModifiedDate>
2011-06-04

>  <Parent>


>  <OneLetterCode>


>  <SubcomponentList>


>  <AmbiguousFlag>
N

>  <InChI>
InChI=1S/C33H37N3O9S/c1-21(2)17-35(46(41,42)26-12-13-29-30(16-26)44-20-43-29)18-28(38)27(14-23-8-5-4-6-9-23)34-32(39)31-19-36(33(40)45-31)25-11-7-10-24(15-25)22(3)37/h4-13,15-16,21,27-28,31,38H,14,17-20H2,1-3H3,(H,34,39)/t27-,28+,31-/m0/s1

>  <InChIKey>
GNJDFMNCMAQPGN-QXIHQKPUSA-N

>  <SMILES>
CC(C)C[N@@](C[C@H]([C@H](Cc1ccccc1)NC(=O)[C@@H]2CN(C(=O)O2)c3cccc(c3)C(=O)C)O)S(=O)(=O)c4ccc5c(c4)OCO5

$$$$
