4NUE_NUE_A_201


 32 34  0  0  0  0  0  0  0  0999 V2000
  -15.0212   11.0579   -8.0329 C   0  0  0  0  0  0  0  0  0  0  0  0
  -14.5903   11.8211   -6.9036 C   0  0  0  0  0  0  0  0  0  0  0  0
  -15.3348    9.6303   -7.9236 C   0  0  0  0  0  0  0  0  0  0  0  0
  -14.5309   11.1198   -5.6661 C   0  0  0  0  0  0  0  0  0  0  0  0
  -15.2239    9.0324   -6.6978 C   0  0  0  0  0  0  0  0  0  0  0  0
  -14.8386    9.7589   -5.5837 C   0  0  0  0  0  0  0  0  0  0  0  0
  -14.1958   13.4612   -7.0368 S   0  0  0  0  0  0  0  0  0  0  0  0
  -15.3050   13.8332   -7.9514 O   0  0  0  0  0  0  0  0  0  0  0  0
  -14.1537   13.8789   -5.6570 O   0  0  0  0  0  0  0  0  0  0  0  0
  -12.6280   13.6250   -7.5478 N   0  0  0  0  0  0  0  0  0  0  0  0
  -11.9565   13.9398   -6.9002 H   0  0  0  0  0  0  0  0  0  0  0  0
  -11.3715   12.8888  -11.3893 C   0  0  0  0  0  0  0  0  0  0  0  0
  -11.5831   11.7910  -10.5483 C   0  0  0  0  0  0  0  0  0  0  0  0
  -11.6002   14.1962  -10.9019 C   0  0  0  0  0  0  0  0  0  0  0  0
  -12.0253   12.0224   -9.2577 C   0  0  0  0  0  0  0  0  0  0  0  0
  -12.0001   14.4089   -9.6504 N   0  0  0  0  0  0  0  0  0  0  0  0
  -12.2227   13.3485   -8.8093 C   0  0  0  0  0  0  0  0  0  0  0  0
  -15.4283    7.6594   -6.5359 N   0  0  0  0  0  0  0  0  0  0  0  0
  -16.0570    7.0140   -7.4329 N   0  0  0  0  0  0  0  0  0  0  0  0
  -16.1682    5.6190   -7.3043 C   0  0  0  0  0  0  0  0  0  0  0  0
  -15.3919    4.8584   -6.3762 C   0  0  0  0  0  0  0  0  0  0  0  0
  -17.1386    4.9254   -8.0507 C   0  0  0  0  0  0  0  0  0  0  0  0
  -15.5087    3.5117   -6.3401 C   0  0  0  0  0  0  0  0  0  0  0  0
  -17.3140    3.5702   -7.9517 C   0  0  0  0  0  0  0  0  0  0  0  0
  -16.5178    2.8493   -7.1079 C   0  0  0  0  0  0  0  0  0  0  0  0
  -17.9470    5.6509   -8.8943 N   0  0  0  0  0  0  0  0  0  0  0  0
  -18.3687    2.8245   -8.7212 C   0  0  0  0  0  0  0  0  0  0  0  0
  -16.6060    1.5439   -7.0752 O   0  0  0  0  0  0  0  0  0  0  0  0
  -14.6281    2.7208   -5.4167 C   0  0  0  0  0  0  0  0  0  0  0  0
  -17.8287    6.6251   -8.9723 H   0  0  0  0  0  0  0  0  0  0  0  0
  -18.6440    5.1959   -9.4201 H   0  0  0  0  0  0  0  0  0  0  0  0
  -16.0587    1.0517   -6.4954 H   0  0  0  0  0  0  0  0  0  0  0  0
 12 13  2  0  0  0
 12 14  1  0  0  0
 13 15  1  0  0  0
 14 16  2  0  0  0
 15 17  2  0  0  0
 16 17  1  0  0  0
 17 10  1  0  0  0
 10  7  1  0  0  0
  7  2  1  0  0  0
  7  8  2  0  0  0
  7  9  2  0  0  0
  1  2  2  0  0  0
  1  3  1  0  0  0
  2  4  1  0  0  0
  3  5  2  0  0  0
  4  6  2  0  0  0
  5  6  1  0  0  0
  5 18  1  0  0  0
 18 19  2  0  0  0
 19 20  1  0  0  0
 20 21  2  0  0  0
 20 22  1  0  0  0
 21 23  1  0  0  0
 22 24  2  0  0  0
 22 26  1  0  0  0
 23 25  2  0  0  0
 23 29  1  0  0  0
 24 25  1  0  0  0
 24 27  1  0  0  0
 25 28  1  0  0  0
 10 11  1  0  0  0
 26 30  1  0  0  0
 26 31  1  0  0  0
 28 32  1  0  0  0
M  END
> <minimizedAffinity>
-8.80007

$$$$
4NUE_NUE_A_201


 32 34  0  0  0  0  0  0  0  0999 V2000
  -14.8318   10.9217   -7.5519 C   0  0  0  0  0  0  0  0  0  0  0  0
  -14.5574   11.9704   -6.6201 C   0  0  0  0  0  0  0  0  0  0  0  0
  -15.2282    9.5819   -7.1090 C   0  0  0  0  0  0  0  0  0  0  0  0
  -14.7379   11.6437   -5.2462 C   0  0  0  0  0  0  0  0  0  0  0  0
  -15.3510    9.3510   -5.7659 C   0  0  0  0  0  0  0  0  0  0  0  0
  -15.1208   10.3603   -4.8462 C   0  0  0  0  0  0  0  0  0  0  0  0
  -14.0671   13.5075   -7.1302 S   0  0  0  0  0  0  0  0  0  0  0  0
  -15.1537   13.7171   -8.1203 O   0  0  0  0  0  0  0  0  0  0  0  0
  -13.9983   14.2352   -5.8869 O   0  0  0  0  0  0  0  0  0  0  0  0
  -12.4931   13.4557   -7.6459 N   0  0  0  0  0  0  0  0  0  0  0  0
  -11.7803   13.6189   -6.9867 H   0  0  0  0  0  0  0  0  0  0  0  0
  -11.3811   12.7839  -11.5434 C   0  0  0  0  0  0  0  0  0  0  0  0
  -11.6102   11.6710  -10.7271 C   0  0  0  0  0  0  0  0  0  0  0  0
  -11.5441   14.0844  -11.0130 C   0  0  0  0  0  0  0  0  0  0  0  0
  -12.0045   11.8816   -9.4176 C   0  0  0  0  0  0  0  0  0  0  0  0
  -11.8980   14.2758   -9.7443 N   0  0  0  0  0  0  0  0  0  0  0  0
  -12.1366   13.2006   -8.9266 C   0  0  0  0  0  0  0  0  0  0  0  0
  -15.6459    8.0784   -5.2695 N   0  0  0  0  0  0  0  0  0  0  0  0
  -16.5691    7.3960   -5.8158 N   0  0  0  0  0  0  0  0  0  0  0  0
  -16.7869    6.0812   -5.3702 C   0  0  0  0  0  0  0  0  0  0  0  0
  -17.9269    5.6999   -4.5972 C   0  0  0  0  0  0  0  0  0  0  0  0
  -15.9028    5.0579   -5.7590 C   0  0  0  0  0  0  0  0  0  0  0  0
  -18.0497    4.4282   -4.1543 C   0  0  0  0  0  0  0  0  0  0  0  0
  -16.0742    3.7527   -5.3792 C   0  0  0  0  0  0  0  0  0  0  0  0
  -17.1334    3.4175   -4.5849 C   0  0  0  0  0  0  0  0  0  0  0  0
  -14.8405    5.3922   -6.5661 N   0  0  0  0  0  0  0  0  0  0  0  0
  -15.1529    2.6473   -5.8151 C   0  0  0  0  0  0  0  0  0  0  0  0
  -17.2559    2.1952   -4.1330 O   0  0  0  0  0  0  0  0  0  0  0  0
  -19.2112    4.0633   -3.2760 C   0  0  0  0  0  0  0  0  0  0  0  0
  -14.7089    6.3274   -6.8443 H   0  0  0  0  0  0  0  0  0  0  0  0
  -14.2118    4.6964   -6.8656 H   0  0  0  0  0  0  0  0  0  0  0  0
  -17.9835    1.9678   -3.5882 H   0  0  0  0  0  0  0  0  0  0  0  0
 12 13  2  0  0  0
 12 14  1  0  0  0
 13 15  1  0  0  0
 14 16  2  0  0  0
 15 17  2  0  0  0
 16 17  1  0  0  0
 17 10  1  0  0  0
 10  7  1  0  0  0
  7  2  1  0  0  0
  7  8  2  0  0  0
  7  9  2  0  0  0
  1  2  2  0  0  0
  1  3  1  0  0  0
  2  4  1  0  0  0
  3  5  2  0  0  0
  4  6  2  0  0  0
  5  6  1  0  0  0
  5 18  1  0  0  0
 18 19  2  0  0  0
 19 20  1  0  0  0
 20 21  2  0  0  0
 20 22  1  0  0  0
 21 23  1  0  0  0
 22 24  2  0  0  0
 22 26  1  0  0  0
 23 25  2  0  0  0
 23 29  1  0  0  0
 24 25  1  0  0  0
 24 27  1  0  0  0
 25 28  1  0  0  0
 10 11  1  0  0  0
 26 30  1  0  0  0
 26 31  1  0  0  0
 28 32  1  0  0  0
M  END
> <minimizedAffinity>
-8.64848

$$$$
4NUE_NUE_A_201


 32 34  0  0  0  0  0  0  0  0999 V2000
  -15.3014   10.8312   -7.8881 C   0  0  0  0  0  0  0  0  0  0  0  0
  -15.0448   11.2055   -6.5325 C   0  0  0  0  0  0  0  0  0  0  0  0
  -15.5147    9.4334   -8.2742 C   0  0  0  0  0  0  0  0  0  0  0  0
  -15.0560   10.1452   -5.5826 C   0  0  0  0  0  0  0  0  0  0  0  0
  -15.4815    8.4767   -7.2964 C   0  0  0  0  0  0  0  0  0  0  0  0
  -15.2658    8.8193   -5.9722 C   0  0  0  0  0  0  0  0  0  0  0  0
  -14.7651   12.8151   -6.0921 S   0  0  0  0  0  0  0  0  0  0  0  0
  -15.8667   13.4083   -6.8919 O   0  0  0  0  0  0  0  0  0  0  0  0
  -14.7996   12.7489   -4.6518 O   0  0  0  0  0  0  0  0  0  0  0  0
  -13.1968   13.2289   -6.4316 N   0  0  0  0  0  0  0  0  0  0  0  0
  -12.5686   13.3335   -5.6808 H   0  0  0  0  0  0  0  0  0  0  0  0
  -11.7996   13.9467  -10.2279 C   0  0  0  0  0  0  0  0  0  0  0  0
  -11.6701   12.6507   -9.7170 C   0  0  0  0  0  0  0  0  0  0  0  0
  -12.4044   14.9514   -9.4380 C   0  0  0  0  0  0  0  0  0  0  0  0
  -12.1540   12.3892   -8.4473 C   0  0  0  0  0  0  0  0  0  0  0  0
  -12.8425   14.6954   -8.2076 N   0  0  0  0  0  0  0  0  0  0  0  0
  -12.7346   13.4306   -7.6879 C   0  0  0  0  0  0  0  0  0  0  0  0
  -15.5958    7.1179   -7.6027 N   0  0  0  0  0  0  0  0  0  0  0  0
  -16.6548    6.4939   -7.2779 N   0  0  0  0  0  0  0  0  0  0  0  0
  -16.7963    5.1548   -7.6799 C   0  0  0  0  0  0  0  0  0  0  0  0
  -17.7278    4.7364   -8.6798 C   0  0  0  0  0  0  0  0  0  0  0  0
  -15.9372    4.1738   -7.1513 C   0  0  0  0  0  0  0  0  0  0  0  0
  -17.8519    3.4244   -8.9824 C   0  0  0  0  0  0  0  0  0  0  0  0
  -16.0074    2.8565   -7.5213 C   0  0  0  0  0  0  0  0  0  0  0  0
  -16.9483    2.4628   -8.4296 C   0  0  0  0  0  0  0  0  0  0  0  0
  -14.9833    4.5700   -6.2432 N   0  0  0  0  0  0  0  0  0  0  0  0
  -15.0737    1.8067   -6.9860 C   0  0  0  0  0  0  0  0  0  0  0  0
  -17.0932    1.1946   -8.7190 O   0  0  0  0  0  0  0  0  0  0  0  0
  -18.8912    2.9931   -9.9761 C   0  0  0  0  0  0  0  0  0  0  0  0
  -14.9249    5.5143   -5.9710 H   0  0  0  0  0  0  0  0  0  0  0  0
  -14.3589    3.9093   -5.8652 H   0  0  0  0  0  0  0  0  0  0  0  0
  -17.7395    0.9272   -9.3425 H   0  0  0  0  0  0  0  0  0  0  0  0
 12 13  2  0  0  0
 12 14  1  0  0  0
 13 15  1  0  0  0
 14 16  2  0  0  0
 15 17  2  0  0  0
 16 17  1  0  0  0
 17 10  1  0  0  0
 10  7  1  0  0  0
  7  2  1  0  0  0
  7  8  2  0  0  0
  7  9  2  0  0  0
  1  2  2  0  0  0
  1  3  1  0  0  0
  2  4  1  0  0  0
  3  5  2  0  0  0
  4  6  2  0  0  0
  5  6  1  0  0  0
  5 18  1  0  0  0
 18 19  2  0  0  0
 19 20  1  0  0  0
 20 21  2  0  0  0
 20 22  1  0  0  0
 21 23  1  0  0  0
 22 24  2  0  0  0
 22 26  1  0  0  0
 23 25  2  0  0  0
 23 29  1  0  0  0
 24 25  1  0  0  0
 24 27  1  0  0  0
 25 28  1  0  0  0
 10 11  1  0  0  0
 26 30  1  0  0  0
 26 31  1  0  0  0
 28 32  1  0  0  0
M  END
> <minimizedAffinity>
-8.50059

$$$$
4NUE_NUE_A_201


 32 34  0  0  0  0  0  0  0  0999 V2000
  -15.6754    6.0726   -6.5455 C   0  0  0  0  0  0  0  0  0  0  0  0
  -16.4958    5.4273   -7.5221 C   0  0  0  0  0  0  0  0  0  0  0  0
  -15.3292    7.4932   -6.6474 C   0  0  0  0  0  0  0  0  0  0  0  0
  -16.9889    6.2592   -8.5669 C   0  0  0  0  0  0  0  0  0  0  0  0
  -15.8273    8.2096   -7.7015 C   0  0  0  0  0  0  0  0  0  0  0  0
  -16.6496    7.6131   -8.6424 C   0  0  0  0  0  0  0  0  0  0  0  0
  -16.8676    3.7795   -7.4227 S   0  0  0  0  0  0  0  0  0  0  0  0
  -17.6634    3.8559   -6.1712 O   0  0  0  0  0  0  0  0  0  0  0  0
  -17.4664    3.5226   -8.7094 O   0  0  0  0  0  0  0  0  0  0  0  0
  -15.4737    2.8837   -7.4490 N   0  0  0  0  0  0  0  0  0  0  0  0
  -14.8945    2.9449   -8.2428 H   0  0  0  0  0  0  0  0  0  0  0  0
  -14.3070    0.3386   -4.4424 C   0  0  0  0  0  0  0  0  0  0  0  0
  -14.2273    1.7147   -4.2027 C   0  0  0  0  0  0  0  0  0  0  0  0
  -14.7861   -0.1265   -5.6887 C   0  0  0  0  0  0  0  0  0  0  0  0
  -14.6354    2.5840   -5.1989 C   0  0  0  0  0  0  0  0  0  0  0  0
  -15.1511    0.7188   -6.6498 N   0  0  0  0  0  0  0  0  0  0  0  0
  -15.0901    2.0722   -6.4358 C   0  0  0  0  0  0  0  0  0  0  0  0
  -15.4733    9.5460   -7.9060 N   0  0  0  0  0  0  0  0  0  0  0  0
  -14.5025   10.0399   -7.2502 N   0  0  0  0  0  0  0  0  0  0  0  0
  -14.0957   11.3537   -7.5383 C   0  0  0  0  0  0  0  0  0  0  0  0
  -12.9634   11.6565   -8.3561 C   0  0  0  0  0  0  0  0  0  0  0  0
  -14.8683   12.4382   -7.0835 C   0  0  0  0  0  0  0  0  0  0  0  0
  -12.5936   12.9425   -8.5505 C   0  0  0  0  0  0  0  0  0  0  0  0
  -14.5395   13.7408   -7.3523 C   0  0  0  0  0  0  0  0  0  0  0  0
  -13.4164   14.0140   -8.0799 C   0  0  0  0  0  0  0  0  0  0  0  0
  -16.0044   12.1646   -6.3582 N   0  0  0  0  0  0  0  0  0  0  0  0
  -15.3754   14.9049   -6.8977 C   0  0  0  0  0  0  0  0  0  0  0  0
  -13.0351   15.2530   -8.2610 O   0  0  0  0  0  0  0  0  0  0  0  0
  -11.3551   13.2405   -9.3450 C   0  0  0  0  0  0  0  0  0  0  0  0
  -16.2491   11.2319   -6.1600 H   0  0  0  0  0  0  0  0  0  0  0  0
  -16.5728   12.9016   -6.0372 H   0  0  0  0  0  0  0  0  0  0  0  0
  -12.2642   15.4377   -8.7605 H   0  0  0  0  0  0  0  0  0  0  0  0
 12 13  2  0  0  0
 12 14  1  0  0  0
 13 15  1  0  0  0
 14 16  2  0  0  0
 15 17  2  0  0  0
 16 17  1  0  0  0
 17 10  1  0  0  0
 10  7  1  0  0  0
  7  2  1  0  0  0
  7  8  2  0  0  0
  7  9  2  0  0  0
  1  2  2  0  0  0
  1  3  1  0  0  0
  2  4  1  0  0  0
  3  5  2  0  0  0
  4  6  2  0  0  0
  5  6  1  0  0  0
  5 18  1  0  0  0
 18 19  2  0  0  0
 19 20  1  0  0  0
 20 21  2  0  0  0
 20 22  1  0  0  0
 21 23  1  0  0  0
 22 24  2  0  0  0
 22 26  1  0  0  0
 23 25  2  0  0  0
 23 29  1  0  0  0
 24 25  1  0  0  0
 24 27  1  0  0  0
 25 28  1  0  0  0
 10 11  1  0  0  0
 26 30  1  0  0  0
 26 31  1  0  0  0
 28 32  1  0  0  0
M  END
> <minimizedAffinity>
-8.46836

$$$$
4NUE_NUE_A_201


 32 34  0  0  0  0  0  0  0  0999 V2000
  -15.4225    5.9253   -6.4047 C   0  0  0  0  0  0  0  0  0  0  0  0
  -16.3886    5.2879   -7.2436 C   0  0  0  0  0  0  0  0  0  0  0  0
  -15.0868    7.3440   -6.5565 C   0  0  0  0  0  0  0  0  0  0  0  0
  -17.0320    6.1260   -8.1978 C   0  0  0  0  0  0  0  0  0  0  0  0
  -15.7374    8.0665   -7.5194 C   0  0  0  0  0  0  0  0  0  0  0  0
  -16.6996    7.4778   -8.3227 C   0  0  0  0  0  0  0  0  0  0  0  0
  -16.7515    3.6423   -7.0907 S   0  0  0  0  0  0  0  0  0  0  0  0
  -17.2035    3.4330   -8.4897 O   0  0  0  0  0  0  0  0  0  0  0  0
  -15.5136    3.1016   -6.5854 O   0  0  0  0  0  0  0  0  0  0  0  0
  -17.8207    3.4133   -5.8456 N   0  0  0  0  0  0  0  0  0  0  0  0
  -18.5227    2.7315   -5.9526 H   0  0  0  0  0  0  0  0  0  0  0  0
  -17.6024    5.4934   -2.3094 C   0  0  0  0  0  0  0  0  0  0  0  0
  -18.4993    5.9484   -3.2821 C   0  0  0  0  0  0  0  0  0  0  0  0
  -16.8171    4.3459   -2.5659 C   0  0  0  0  0  0  0  0  0  0  0  0
  -18.5980    5.2464   -4.4703 C   0  0  0  0  0  0  0  0  0  0  0  0
  -16.9008    3.6936   -3.7230 N   0  0  0  0  0  0  0  0  0  0  0  0
  -17.7788    4.1152   -4.6888 C   0  0  0  0  0  0  0  0  0  0  0  0
  -15.4105    9.4012   -7.7739 N   0  0  0  0  0  0  0  0  0  0  0  0
  -14.5873    9.9968   -7.0097 N   0  0  0  0  0  0  0  0  0  0  0  0
  -14.1932   11.3057   -7.3355 C   0  0  0  0  0  0  0  0  0  0  0  0
  -13.0716   11.5954   -8.1726 C   0  0  0  0  0  0  0  0  0  0  0  0
  -14.9691   12.3960   -6.9007 C   0  0  0  0  0  0  0  0  0  0  0  0
  -12.7133   12.8786   -8.4038 C   0  0  0  0  0  0  0  0  0  0  0  0
  -14.6526   13.6935   -7.2061 C   0  0  0  0  0  0  0  0  0  0  0  0
  -13.5391   13.9560   -7.9522 C   0  0  0  0  0  0  0  0  0  0  0  0
  -16.0955   12.1330   -6.1567 N   0  0  0  0  0  0  0  0  0  0  0  0
  -15.4924   14.8630   -6.7728 C   0  0  0  0  0  0  0  0  0  0  0  0
  -13.1689   15.1925   -8.1689 O   0  0  0  0  0  0  0  0  0  0  0  0
  -11.4854   13.1648   -9.2187 C   0  0  0  0  0  0  0  0  0  0  0  0
  -16.3313   11.2039   -5.9321 H   0  0  0  0  0  0  0  0  0  0  0  0
  -16.6661   12.8739   -5.8488 H   0  0  0  0  0  0  0  0  0  0  0  0
  -12.4046   15.3698   -8.6812 H   0  0  0  0  0  0  0  0  0  0  0  0
 12 13  2  0  0  0
 12 14  1  0  0  0
 13 15  1  0  0  0
 14 16  2  0  0  0
 15 17  2  0  0  0
 16 17  1  0  0  0
 17 10  1  0  0  0
 10  7  1  0  0  0
  7  2  1  0  0  0
  7  8  2  0  0  0
  7  9  2  0  0  0
  1  2  2  0  0  0
  1  3  1  0  0  0
  2  4  1  0  0  0
  3  5  2  0  0  0
  4  6  2  0  0  0
  5  6  1  0  0  0
  5 18  1  0  0  0
 18 19  2  0  0  0
 19 20  1  0  0  0
 20 21  2  0  0  0
 20 22  1  0  0  0
 21 23  1  0  0  0
 22 24  2  0  0  0
 22 26  1  0  0  0
 23 25  2  0  0  0
 23 29  1  0  0  0
 24 25  1  0  0  0
 24 27  1  0  0  0
 25 28  1  0  0  0
 10 11  1  0  0  0
 26 30  1  0  0  0
 26 31  1  0  0  0
 28 32  1  0  0  0
M  END
> <minimizedAffinity>
-8.25747

$$$$
4NUE_NUE_A_201


 32 34  0  0  0  0  0  0  0  0999 V2000
  -15.5338    6.0839   -6.1947 C   0  0  0  0  0  0  0  0  0  0  0  0
  -16.3394    5.3762   -7.1401 C   0  0  0  0  0  0  0  0  0  0  0  0
  -15.2190    7.5055   -6.3623 C   0  0  0  0  0  0  0  0  0  0  0  0
  -16.8502    6.1481   -8.2219 C   0  0  0  0  0  0  0  0  0  0  0  0
  -15.7322    8.1614   -7.4480 C   0  0  0  0  0  0  0  0  0  0  0  0
  -16.5408    7.5041   -8.3600 C   0  0  0  0  0  0  0  0  0  0  0  0
  -16.6748    3.7270   -6.9645 S   0  0  0  0  0  0  0  0  0  0  0  0
  -15.3588    3.2301   -7.4404 O   0  0  0  0  0  0  0  0  0  0  0  0
  -17.0837    3.6431   -5.5840 O   0  0  0  0  0  0  0  0  0  0  0  0
  -18.0469    3.3371   -7.8079 N   0  0  0  0  0  0  0  0  0  0  0  0
  -18.9126    3.3921   -7.3422 H   0  0  0  0  0  0  0  0  0  0  0  0
  -18.0656    2.2472  -11.7691 C   0  0  0  0  0  0  0  0  0  0  0  0
  -17.3147    1.4705  -10.8801 C   0  0  0  0  0  0  0  0  0  0  0  0
  -18.7895    3.3607  -11.2837 C   0  0  0  0  0  0  0  0  0  0  0  0
  -17.3147    1.8138   -9.5397 C   0  0  0  0  0  0  0  0  0  0  0  0
  -18.7612    3.6977   -9.9964 N   0  0  0  0  0  0  0  0  0  0  0  0
  -18.0393    2.9468   -9.1041 C   0  0  0  0  0  0  0  0  0  0  0  0
  -15.4078    9.4944   -7.7142 N   0  0  0  0  0  0  0  0  0  0  0  0
  -14.5615   10.0884   -6.9743 N   0  0  0  0  0  0  0  0  0  0  0  0
  -14.1719   11.3952   -7.3136 C   0  0  0  0  0  0  0  0  0  0  0  0
  -13.0391   11.6809   -8.1368 C   0  0  0  0  0  0  0  0  0  0  0  0
  -14.9628   12.4860   -6.9079 C   0  0  0  0  0  0  0  0  0  0  0  0
  -12.6866   12.9632   -8.3817 C   0  0  0  0  0  0  0  0  0  0  0  0
  -14.6510   13.7812   -7.2279 C   0  0  0  0  0  0  0  0  0  0  0  0
  -13.5276   14.0408   -7.9598 C   0  0  0  0  0  0  0  0  0  0  0  0
  -16.0992   12.2257   -6.1782 N   0  0  0  0  0  0  0  0  0  0  0  0
  -15.5064   14.9506   -6.8259 C   0  0  0  0  0  0  0  0  0  0  0  0
  -13.1631   15.2768   -8.1893 O   0  0  0  0  0  0  0  0  0  0  0  0
  -11.4477   13.2464   -9.1808 C   0  0  0  0  0  0  0  0  0  0  0  0
  -16.3317   11.2983   -5.9434 H   0  0  0  0  0  0  0  0  0  0  0  0
  -16.6801   12.9667   -5.8908 H   0  0  0  0  0  0  0  0  0  0  0  0
  -12.3919   15.4522   -8.6918 H   0  0  0  0  0  0  0  0  0  0  0  0
 12 13  2  0  0  0
 12 14  1  0  0  0
 13 15  1  0  0  0
 14 16  2  0  0  0
 15 17  2  0  0  0
 16 17  1  0  0  0
 17 10  1  0  0  0
 10  7  1  0  0  0
  7  2  1  0  0  0
  7  8  2  0  0  0
  7  9  2  0  0  0
  1  2  2  0  0  0
  1  3  1  0  0  0
  2  4  1  0  0  0
  3  5  2  0  0  0
  4  6  2  0  0  0
  5  6  1  0  0  0
  5 18  1  0  0  0
 18 19  2  0  0  0
 19 20  1  0  0  0
 20 21  2  0  0  0
 20 22  1  0  0  0
 21 23  1  0  0  0
 22 24  2  0  0  0
 22 26  1  0  0  0
 23 25  2  0  0  0
 23 29  1  0  0  0
 24 25  1  0  0  0
 24 27  1  0  0  0
 25 28  1  0  0  0
 10 11  1  0  0  0
 26 30  1  0  0  0
 26 31  1  0  0  0
 28 32  1  0  0  0
M  END
> <minimizedAffinity>
-8.17103

$$$$
4NUE_NUE_A_201


 32 34  0  0  0  0  0  0  0  0999 V2000
  -15.7405   10.0844   -4.9011 C   0  0  0  0  0  0  0  0  0  0  0  0
  -15.4854   10.7787   -6.1244 C   0  0  0  0  0  0  0  0  0  0  0  0
  -15.7288    8.6205   -4.8293 C   0  0  0  0  0  0  0  0  0  0  0  0
  -15.1761    9.9625   -7.2490 C   0  0  0  0  0  0  0  0  0  0  0  0
  -15.4473    7.9160   -5.9681 C   0  0  0  0  0  0  0  0  0  0  0  0
  -15.1663    8.5678   -7.1572 C   0  0  0  0  0  0  0  0  0  0  0  0
  -15.5322   12.4677   -6.2147 S   0  0  0  0  0  0  0  0  0  0  0  0
  -16.3610   12.5534   -7.4439 O   0  0  0  0  0  0  0  0  0  0  0  0
  -16.0348   12.8301   -4.9123 O   0  0  0  0  0  0  0  0  0  0  0  0
  -13.9905   13.0753   -6.2269 N   0  0  0  0  0  0  0  0  0  0  0  0
  -13.5574   13.2666   -5.3638 H   0  0  0  0  0  0  0  0  0  0  0  0
  -11.8912   13.9298   -9.6534 C   0  0  0  0  0  0  0  0  0  0  0  0
  -11.8594   12.6147   -9.1773 C   0  0  0  0  0  0  0  0  0  0  0  0
  -12.6388   14.9069   -8.9566 C   0  0  0  0  0  0  0  0  0  0  0  0
  -12.5778   12.3075   -8.0353 C   0  0  0  0  0  0  0  0  0  0  0  0
  -13.3047   14.6065   -7.8440 N   0  0  0  0  0  0  0  0  0  0  0  0
  -13.2959   13.3223   -7.3622 C   0  0  0  0  0  0  0  0  0  0  0  0
  -15.4983    6.5197   -5.9922 N   0  0  0  0  0  0  0  0  0  0  0  0
  -16.0524    5.9342   -6.9754 N   0  0  0  0  0  0  0  0  0  0  0  0
  -16.0084    4.5309   -7.0341 C   0  0  0  0  0  0  0  0  0  0  0  0
  -15.2125    3.7392   -6.1496 C   0  0  0  0  0  0  0  0  0  0  0  0
  -16.8391    3.8447   -7.9390 C   0  0  0  0  0  0  0  0  0  0  0  0
  -15.1735    2.3953   -6.2940 C   0  0  0  0  0  0  0  0  0  0  0  0
  -16.8615    2.4776   -8.0271 C   0  0  0  0  0  0  0  0  0  0  0  0
  -16.0448    1.7387   -7.2193 C   0  0  0  0  0  0  0  0  0  0  0  0
  -17.6685    4.5868   -8.7470 N   0  0  0  0  0  0  0  0  0  0  0  0
  -17.7681    1.7343   -8.9683 C   0  0  0  0  0  0  0  0  0  0  0  0
  -15.9821    0.4389   -7.3595 O   0  0  0  0  0  0  0  0  0  0  0  0
  -14.2703    1.5856   -5.4095 C   0  0  0  0  0  0  0  0  0  0  0  0
  -17.6597    5.5697   -8.6911 H   0  0  0  0  0  0  0  0  0  0  0  0
  -18.2709    4.1352   -9.3813 H   0  0  0  0  0  0  0  0  0  0  0  0
  -15.4210   -0.0658   -6.8041 H   0  0  0  0  0  0  0  0  0  0  0  0
 12 13  2  0  0  0
 12 14  1  0  0  0
 13 15  1  0  0  0
 14 16  2  0  0  0
 15 17  2  0  0  0
 16 17  1  0  0  0
 17 10  1  0  0  0
 10  7  1  0  0  0
  7  2  1  0  0  0
  7  8  2  0  0  0
  7  9  2  0  0  0
  1  2  2  0  0  0
  1  3  1  0  0  0
  2  4  1  0  0  0
  3  5  2  0  0  0
  4  6  2  0  0  0
  5  6  1  0  0  0
  5 18  1  0  0  0
 18 19  2  0  0  0
 19 20  1  0  0  0
 20 21  2  0  0  0
 20 22  1  0  0  0
 21 23  1  0  0  0
 22 24  2  0  0  0
 22 26  1  0  0  0
 23 25  2  0  0  0
 23 29  1  0  0  0
 24 25  1  0  0  0
 24 27  1  0  0  0
 25 28  1  0  0  0
 10 11  1  0  0  0
 26 30  1  0  0  0
 26 31  1  0  0  0
 28 32  1  0  0  0
M  END
> <minimizedAffinity>
-8.06291

$$$$
4NUE_NUE_A_201


 32 34  0  0  0  0  0  0  0  0999 V2000
  -14.8945   12.0043   -7.2937 C   0  0  0  0  0  0  0  0  0  0  0  0
  -14.9625   12.3881   -5.9184 C   0  0  0  0  0  0  0  0  0  0  0  0
  -14.9949   10.6020   -7.7080 C   0  0  0  0  0  0  0  0  0  0  0  0
  -15.1790   11.3319   -4.9887 C   0  0  0  0  0  0  0  0  0  0  0  0
  -15.1760    9.6501   -6.7418 C   0  0  0  0  0  0  0  0  0  0  0  0
  -15.2762   10.0015   -5.4062 C   0  0  0  0  0  0  0  0  0  0  0  0
  -14.8127   14.0035   -5.4375 S   0  0  0  0  0  0  0  0  0  0  0  0
  -13.4724   14.2386   -6.0321 O   0  0  0  0  0  0  0  0  0  0  0  0
  -16.0144   14.5949   -5.9727 O   0  0  0  0  0  0  0  0  0  0  0  0
  -15.0092   14.1245   -3.7965 N   0  0  0  0  0  0  0  0  0  0  0  0
  -14.2206   13.9963   -3.2213 H   0  0  0  0  0  0  0  0  0  0  0  0
  -18.5972   15.0367   -2.0151 C   0  0  0  0  0  0  0  0  0  0  0  0
  -18.3937   13.7194   -2.4402 C   0  0  0  0  0  0  0  0  0  0  0  0
  -17.5756   15.9962   -2.2015 C   0  0  0  0  0  0  0  0  0  0  0  0
  -17.1825   13.3927   -3.0240 C   0  0  0  0  0  0  0  0  0  0  0  0
  -16.4243   15.6773   -2.7884 N   0  0  0  0  0  0  0  0  0  0  0  0
  -16.1978   14.3906   -3.2059 C   0  0  0  0  0  0  0  0  0  0  0  0
  -15.1990    8.2885   -7.0560 N   0  0  0  0  0  0  0  0  0  0  0  0
  -16.0349    7.5293   -6.4718 N   0  0  0  0  0  0  0  0  0  0  0  0
  -16.1134    6.1837   -6.8693 C   0  0  0  0  0  0  0  0  0  0  0  0
  -15.3500    5.1442   -6.2537 C   0  0  0  0  0  0  0  0  0  0  0  0
  -17.0386    5.8020   -7.8584 C   0  0  0  0  0  0  0  0  0  0  0  0
  -15.4322    3.8775   -6.7196 C   0  0  0  0  0  0  0  0  0  0  0  0
  -17.1814    4.5034   -8.2714 C   0  0  0  0  0  0  0  0  0  0  0  0
  -16.3962    3.5322   -7.7187 C   0  0  0  0  0  0  0  0  0  0  0  0
  -17.8362    6.7773   -8.4098 N   0  0  0  0  0  0  0  0  0  0  0  0
  -18.1885    4.0808   -9.3047 C   0  0  0  0  0  0  0  0  0  0  0  0
  -16.4508    2.3054   -8.1715 O   0  0  0  0  0  0  0  0  0  0  0  0
  -14.5635    2.8127   -6.1151 C   0  0  0  0  0  0  0  0  0  0  0  0
  -17.7411    7.7133   -8.1195 H   0  0  0  0  0  0  0  0  0  0  0  0
  -18.5022    6.5396   -9.0947 H   0  0  0  0  0  0  0  0  0  0  0  0
  -15.9111    1.6409   -7.7905 H   0  0  0  0  0  0  0  0  0  0  0  0
 12 13  2  0  0  0
 12 14  1  0  0  0
 13 15  1  0  0  0
 14 16  2  0  0  0
 15 17  2  0  0  0
 16 17  1  0  0  0
 17 10  1  0  0  0
 10  7  1  0  0  0
  7  2  1  0  0  0
  7  8  2  0  0  0
  7  9  2  0  0  0
  1  2  2  0  0  0
  1  3  1  0  0  0
  2  4  1  0  0  0
  3  5  2  0  0  0
  4  6  2  0  0  0
  5  6  1  0  0  0
  5 18  1  0  0  0
 18 19  2  0  0  0
 19 20  1  0  0  0
 20 21  2  0  0  0
 20 22  1  0  0  0
 21 23  1  0  0  0
 22 24  2  0  0  0
 22 26  1  0  0  0
 23 25  2  0  0  0
 23 29  1  0  0  0
 24 25  1  0  0  0
 24 27  1  0  0  0
 25 28  1  0  0  0
 10 11  1  0  0  0
 26 30  1  0  0  0
 26 31  1  0  0  0
 28 32  1  0  0  0
M  END
> <minimizedAffinity>
-7.90949

$$$$
4NUE_NUE_A_201


 32 34  0  0  0  0  0  0  0  0999 V2000
  -17.1164    5.3901   -8.0267 C   0  0  0  0  0  0  0  0  0  0  0  0
  -16.2916    4.4726   -7.3045 C   0  0  0  0  0  0  0  0  0  0  0  0
  -16.9822    6.8404   -7.8624 C   0  0  0  0  0  0  0  0  0  0  0  0
  -15.3078    5.0563   -6.4570 C   0  0  0  0  0  0  0  0  0  0  0  0
  -16.0257    7.3117   -7.0048 C   0  0  0  0  0  0  0  0  0  0  0  0
  -15.1944    6.4425   -6.3185 C   0  0  0  0  0  0  0  0  0  0  0  0
  -16.4693    2.7980   -7.4688 S   0  0  0  0  0  0  0  0  0  0  0  0
  -17.2063    2.5757   -6.1989 O   0  0  0  0  0  0  0  0  0  0  0  0
  -17.0977    2.6822   -8.7618 O   0  0  0  0  0  0  0  0  0  0  0  0
  -14.9861    2.0914   -7.6851 N   0  0  0  0  0  0  0  0  0  0  0  0
  -14.5638    2.1547   -8.5721 H   0  0  0  0  0  0  0  0  0  0  0  0
  -12.9116    0.0510   -4.7847 C   0  0  0  0  0  0  0  0  0  0  0  0
  -13.8179    1.0337   -4.3722 C   0  0  0  0  0  0  0  0  0  0  0  0
  -12.7458   -0.2111   -6.1642 C   0  0  0  0  0  0  0  0  0  0  0  0
  -14.5383    1.7155   -5.3369 C   0  0  0  0  0  0  0  0  0  0  0  0
  -13.4245    0.4692   -7.0851 N   0  0  0  0  0  0  0  0  0  0  0  0
  -14.3250    1.4316   -6.7052 C   0  0  0  0  0  0  0  0  0  0  0  0
  -15.8957    8.6773   -6.7380 N   0  0  0  0  0  0  0  0  0  0  0  0
  -15.0091    9.0689   -5.9152 N   0  0  0  0  0  0  0  0  0  0  0  0
  -14.8244   10.4499   -5.7324 C   0  0  0  0  0  0  0  0  0  0  0  0
  -15.0266   11.1030   -4.4774 C   0  0  0  0  0  0  0  0  0  0  0  0
  -14.3380   11.2346   -6.7942 C   0  0  0  0  0  0  0  0  0  0  0  0
  -14.8835   12.4442   -4.3816 C   0  0  0  0  0  0  0  0  0  0  0  0
  -14.1127   12.5806   -6.6722 C   0  0  0  0  0  0  0  0  0  0  0  0
  -14.3745   13.2009   -5.4839 C   0  0  0  0  0  0  0  0  0  0  0  0
  -14.0654   10.6101   -7.9888 N   0  0  0  0  0  0  0  0  0  0  0  0
  -13.5635   13.4216   -7.7910 C   0  0  0  0  0  0  0  0  0  0  0  0
  -14.2587   14.5005   -5.3808 O   0  0  0  0  0  0  0  0  0  0  0  0
  -15.1781   13.1249   -3.0764 C   0  0  0  0  0  0  0  0  0  0  0  0
  -14.2240    9.6433   -8.0862 H   0  0  0  0  0  0  0  0  0  0  0  0
  -13.7117   11.1297   -8.7465 H   0  0  0  0  0  0  0  0  0  0  0  0
  -14.4389   14.9236   -4.5644 H   0  0  0  0  0  0  0  0  0  0  0  0
 12 13  2  0  0  0
 12 14  1  0  0  0
 13 15  1  0  0  0
 14 16  2  0  0  0
 15 17  2  0  0  0
 16 17  1  0  0  0
 17 10  1  0  0  0
 10  7  1  0  0  0
  7  2  1  0  0  0
  7  8  2  0  0  0
  7  9  2  0  0  0
  1  2  2  0  0  0
  1  3  1  0  0  0
  2  4  1  0  0  0
  3  5  2  0  0  0
  4  6  2  0  0  0
  5  6  1  0  0  0
  5 18  1  0  0  0
 18 19  2  0  0  0
 19 20  1  0  0  0
 20 21  2  0  0  0
 20 22  1  0  0  0
 21 23  1  0  0  0
 22 24  2  0  0  0
 22 26  1  0  0  0
 23 25  2  0  0  0
 23 29  1  0  0  0
 24 25  1  0  0  0
 24 27  1  0  0  0
 25 28  1  0  0  0
 10 11  1  0  0  0
 26 30  1  0  0  0
 26 31  1  0  0  0
 28 32  1  0  0  0
M  END
> <minimizedAffinity>
-7.85901

$$$$
4NUE_NUE_A_201


 32 34  0  0  0  0  0  0  0  0999 V2000
  -16.6350    7.4450   -4.6779 C   0  0  0  0  0  0  0  0  0  0  0  0
  -15.8537    8.6030   -4.9815 C   0  0  0  0  0  0  0  0  0  0  0  0
  -16.8767    6.3963   -5.6729 C   0  0  0  0  0  0  0  0  0  0  0  0
  -15.2918    8.6480   -6.2888 C   0  0  0  0  0  0  0  0  0  0  0  0
  -16.3181    6.5366   -6.9142 C   0  0  0  0  0  0  0  0  0  0  0  0
  -15.5318    7.6345   -7.2209 C   0  0  0  0  0  0  0  0  0  0  0  0
  -15.6027    9.8299   -3.8435 S   0  0  0  0  0  0  0  0  0  0  0  0
  -16.1287    9.0883   -2.6693 O   0  0  0  0  0  0  0  0  0  0  0  0
  -14.2007   10.1224   -4.0129 O   0  0  0  0  0  0  0  0  0  0  0  0
  -16.3592   11.2197   -4.3356 N   0  0  0  0  0  0  0  0  0  0  0  0
  -17.2688   11.3985   -4.0042 H   0  0  0  0  0  0  0  0  0  0  0  0
  -14.5707   13.9892   -6.7872 C   0  0  0  0  0  0  0  0  0  0  0  0
  -15.3660   13.0044   -7.3831 C   0  0  0  0  0  0  0  0  0  0  0  0
  -14.4157   14.0056   -5.3819 C   0  0  0  0  0  0  0  0  0  0  0  0
  -15.9907   12.0767   -6.5684 C   0  0  0  0  0  0  0  0  0  0  0  0
  -14.9998   13.0923   -4.6097 N   0  0  0  0  0  0  0  0  0  0  0  0
  -15.7911   12.1220   -5.1696 C   0  0  0  0  0  0  0  0  0  0  0  0
  -16.5727    5.6176   -7.9357 N   0  0  0  0  0  0  0  0  0  0  0  0
  -17.7196    5.0742   -8.0121 N   0  0  0  0  0  0  0  0  0  0  0  0
  -17.9919    4.2288   -9.1010 C   0  0  0  0  0  0  0  0  0  0  0  0
  -18.8267    4.6133  -10.1955 C   0  0  0  0  0  0  0  0  0  0  0  0
  -17.3606    2.9741   -9.1844 C   0  0  0  0  0  0  0  0  0  0  0  0
  -19.0919    3.7324  -11.1865 C   0  0  0  0  0  0  0  0  0  0  0  0
  -17.5644    2.1151  -10.2322 C   0  0  0  0  0  0  0  0  0  0  0  0
  -18.4176    2.4717  -11.2373 C   0  0  0  0  0  0  0  0  0  0  0  0
  -16.4943    2.6171   -8.1775 N   0  0  0  0  0  0  0  0  0  0  0  0
  -16.8705    0.7861  -10.3460 C   0  0  0  0  0  0  0  0  0  0  0  0
  -18.6987    1.6233  -12.1935 O   0  0  0  0  0  0  0  0  0  0  0  0
  -20.0351    4.1239  -12.2868 C   0  0  0  0  0  0  0  0  0  0  0  0
  -16.3413    3.2275   -7.4204 H   0  0  0  0  0  0  0  0  0  0  0  0
  -16.0273    1.7512   -8.2139 H   0  0  0  0  0  0  0  0  0  0  0  0
  -19.2843    1.8704  -12.8819 H   0  0  0  0  0  0  0  0  0  0  0  0
 12 13  2  0  0  0
 12 14  1  0  0  0
 13 15  1  0  0  0
 14 16  2  0  0  0
 15 17  2  0  0  0
 16 17  1  0  0  0
 17 10  1  0  0  0
 10  7  1  0  0  0
  7  2  1  0  0  0
  7  8  2  0  0  0
  7  9  2  0  0  0
  1  2  2  0  0  0
  1  3  1  0  0  0
  2  4  1  0  0  0
  3  5  2  0  0  0
  4  6  2  0  0  0
  5  6  1  0  0  0
  5 18  1  0  0  0
 18 19  2  0  0  0
 19 20  1  0  0  0
 20 21  2  0  0  0
 20 22  1  0  0  0
 21 23  1  0  0  0
 22 24  2  0  0  0
 22 26  1  0  0  0
 23 25  2  0  0  0
 23 29  1  0  0  0
 24 25  1  0  0  0
 24 27  1  0  0  0
 25 28  1  0  0  0
 10 11  1  0  0  0
 26 30  1  0  0  0
 26 31  1  0  0  0
 28 32  1  0  0  0
M  END
> <minimizedAffinity>
-7.62043

$$$$
