4Q9O_2ZW_A_301
  RCSB PDB12061714223D
Coordinates from PDB:4Q9O:A:301 Model:1 without hydrogens
 25 27  0  0  0  0            999 V2000
   21.5460  -11.4100    6.4150   C 0  0  0  0  0  0  0  0  0  0  0  0
   21.1370  -12.5750    5.5180   C 0  0  0  0  0  0  0  0  0  0  0  0
   19.6160  -12.6600    5.4140   C 0  0  0  0  0  0  0  0  0  0  0  0
   21.7820  -13.8770    5.9710   C 0  0  0  0  0  0  0  0  0  0  0  0
   21.2170  -14.6560    6.9740   C 0  0  0  0  0  0  0  0  0  0  0  0
   21.8250  -15.8230    7.4030   C 0  0  0  0  0  0  0  0  0  0  0  0
   22.9820  -14.2970    5.4110   C 0  0  0  0  0  0  0  0  0  0  0  0
   23.6000  -15.4620    5.8330   C 0  0  0  0  0  0  0  0  0  0  0  0
   23.0220  -16.2410    6.8300   C 0  0  0  0  0  0  0  0  0  0  0  0
   23.5420  -17.4910    7.2510   N 0  0  0  0  0  0  0  0  0  0  0  0
   24.8480  -17.9260    7.2780   C 0  0  0  0  0  0  0  0  0  0  0  0
   25.8030  -17.2460    6.9030   O 0  0  0  0  0  0  0  0  0  0  0  0
   25.0660  -19.2950    7.7940   C 0  0  0  0  0  0  0  0  0  0  0  0
   26.2840  -19.8180    8.1500   C 0  0  0  0  0  0  0  0  0  0  0  0
   27.6880  -19.3430    8.0850   C 0  0  0  0  0  0  0  0  0  0  0  0
   26.1230  -21.1060    8.5030   O 0  0  0  0  0  0  0  0  0  0  0  0
   24.7590  -21.4600    8.3340   N 0  0  0  0  0  0  0  0  0  0  0  0
   24.1390  -20.3780    7.9040   C 0  0  0  0  0  0  0  0  0  0  0  0
   22.6880  -20.5570    7.7970   C 0  0  0  0  0  0  0  0  0  0  0  0
   22.1390  -20.8630    6.5470   C 0  0  0  0  0  0  0  0  0  0  0  0
   23.1440  -20.9390    5.1300  Cl 0  0  0  0  0  0  0  0  0  0  0  0
   20.7680  -21.0040    6.3760   C 0  0  0  0  0  0  0  0  0  0  0  0
   19.9220  -20.7800    7.4490   C 0  0  0  0  0  0  0  0  0  0  0  0
   20.4420  -20.4130    8.6770   C 0  0  0  0  0  0  0  0  0  0  0  0
   21.8130  -20.2980    8.8510   C 0  0  0  0  0  0  0  0  0  0  0  0
 21 20  1  0  0  0  0
  5  6  2  0  0  0  0
  5  4  1  0  0  0  0
  2  3  1  0  0  0  0
  2  4  1  0  0  0  0
  2  1  1  0  0  0  0
  6  9  1  0  0  0  0
  4  7  2  0  0  0  0
 22 20  2  0  0  0  0
 22 23  1  0  0  0  0
 12 11  2  0  0  0  0
 20 19  1  0  0  0  0
  9 10  1  0  0  0  0
  9  8  2  0  0  0  0
  7  8  1  0  0  0  0
 11 10  1  0  0  0  0
 11 13  1  0  0  0  0
 13 14  2  0  0  0  0
 13 18  1  0  0  0  0
 15 14  1  0  0  0  0
 23 24  2  0  0  0  0
 14 16  1  0  0  0  0
 19 18  1  0  0  0  0
 19 25  2  0  0  0  0
 18 17  2  0  0  0  0
 16 17  1  0  0  0  0
 24 25  1  0  0  0  0
A    1
CP3
A    2
CP1
A    3
CP2
A    4
C44
A    5
C45
A    6
C46
A    7
C43
A    8
C42
A    9
C41
A   10
N3
A   11
C3
A   12
O3
A   13
C25
A   14
C24
A   15
CM
A   16
O23
A   17
N22
A   18
C21
A   19
C11
A   20
C12
A   21
CL
A   22
C13
A   23
C14
A   24
C15
A   25
C16
M  END
>  <InstanceId>
4Q9O_2ZW_A_301

>  <ChemCompId>
2ZW

>  <PdbId>
4Q9O

>  <ChainId>
A

>  <ResidueNumber>
301

>  <InsertionCode>


>  <Model>
1

>  <AltIds>


>  <MissingHeavyAtoms>
0

>  <ObservedFormula>
C20 N2 O2 Cl

>  <Name>
3-(2-chlorophenyl)-5-methyl-N-[4-(propan-2-yl)phenyl]-1,2-oxazole-4-carboxamide

>  <SystematicName>
3-(2-chlorophenyl)-5-methyl-N-(4-propan-2-ylphenyl)-1,2-oxazole-4-carboxamide

>  <Synonyms>


>  <Type>
NON-POLYMER

>  <Formula>
C20 H19 Cl N2 O2

>  <MolecularWeight>
354.83

>  <ModifiedDate>
2014-10-10

>  <Parent>


>  <OneLetterCode>


>  <SubcomponentList>


>  <AmbiguousFlag>
N

>  <InChI>
InChI=1S/C20H19ClN2O2/c1-12(2)14-8-10-15(11-9-14)22-20(24)18-13(3)25-23-19(18)16-6-4-5-7-17(16)21/h4-12H,1-3H3,(H,22,24)

>  <InChIKey>
WRQYTVUHKWFTAU-UHFFFAOYSA-N

>  <SMILES>
Cc1c(c(no1)c2ccccc2Cl)C(=O)Nc3ccc(cc3)C(C)C

$$$$
