4X8O_AP5_A_301
  RCSB PDB12061716103D
Coordinates from PDB:4X8O:A:301 Model:1 without hydrogens
 57 62  0  0  0  0            999 V2000
  -18.7680   13.6850  -33.5920   P 0  0  0  0  0  0  0  0  0  0  0  0
  -17.4400   13.6230  -32.9040   O 0  0  0  0  0  0  0  0  0  0  0  0
  -19.6640   14.6560  -32.8870   O 0  0  0  0  0  0  0  0  0  0  0  0
  -18.6030   14.0720  -35.1050   O 0  0  0  0  0  0  0  0  0  0  0  0
  -18.2660   15.5500  -35.6940   P 0  0  0  0  0  0  0  0  0  0  0  0
  -17.4230   15.3670  -36.9470   O 0  0  0  0  0  0  0  0  0  0  0  0
  -17.5180   16.3750  -34.6700   O 0  0  0  0  0  0  0  0  0  0  0  0
  -19.6100   16.2360  -36.0480   O 0  0  0  0  0  0  0  0  0  0  0  0
  -19.8050   17.8210  -36.2100   P 0  0  0  0  0  0  0  0  0  0  0  0
  -18.4750   18.4750  -36.6270   O 0  0  0  0  0  0  0  0  0  0  0  0
  -20.2800   18.4160  -34.8680   O 0  0  0  0  0  0  0  0  0  0  0  0
  -20.8950   18.0480  -37.3960   O 0  0  0  0  0  0  0  0  0  0  0  0
  -22.2250   18.9490  -37.2750   P 0  0  0  0  0  0  0  0  0  0  0  0
  -23.3620   18.0590  -36.8900   O 0  0  0  0  0  0  0  0  0  0  0  0
  -22.5040   19.5830  -38.6270   O 0  0  0  0  0  0  0  0  0  0  0  0
  -22.0600   20.0310  -36.1570   O 0  0  0  0  0  0  0  0  0  0  0  0
  -21.3000   21.4220  -36.2420   P 0  0  0  0  0  0  0  0  0  0  0  0
  -19.9280   21.2600  -36.8590   O 0  0  0  0  0  0  0  0  0  0  0  0
  -21.1570   21.9730  -34.8380   O 0  0  0  0  0  0  0  0  0  0  0  0
  -19.4300   12.2110  -33.6000   O 0  0  0  0  0  0  0  0  0  0  0  0
  -20.7450   12.0490  -34.1020   C 0  0  0  0  0  0  0  0  0  0  0  0
  -21.4820   10.9800  -33.2530   C 0  0  0  0  0  0  0  0  0  0  0  0
  -21.0160    9.8080  -33.5200   O 0  0  0  0  0  0  0  0  0  0  0  0
  -21.2180   11.2210  -31.7600   C 0  0  0  0  0  0  0  0  0  0  0  0
  -22.3360   10.9430  -31.0250   O 0  0  0  0  0  0  0  0  0  0  0  0
  -20.0610   10.2600  -31.4050   C 0  0  0  0  0  0  0  0  0  0  0  0
  -20.1790    9.8060  -29.9960   O 0  0  0  0  0  0  0  0  0  0  0  0
  -20.1730    9.2810  -32.2300   C 0  0  0  0  0  0  0  0  0  0  0  0
  -18.9080    8.8280  -32.6840   N 0  0  0  0  0  0  0  0  0  0  0  0
  -17.7780    9.5640  -32.8350   C 0  0  0  0  0  0  0  0  0  0  0  0
  -16.8010    8.7420  -33.2990   N 0  0  0  0  0  0  0  0  0  0  0  0
  -17.3310    7.4910  -33.4400   C 0  0  0  0  0  0  0  0  0  0  0  0
  -16.7870    6.2990  -33.8690   C 0  0  0  0  0  0  0  0  0  0  0  0
  -15.4250    5.9650  -34.3270   N 0  0  0  0  0  0  0  0  0  0  0  0
  -17.5550    5.1800  -33.9130   N 0  0  0  0  0  0  0  0  0  0  0  0
  -18.8650    5.2260  -33.5360   C 0  0  0  0  0  0  0  0  0  0  0  0
  -19.4050    6.3990  -33.1130   N 0  0  0  0  0  0  0  0  0  0  0  0
  -18.6280    7.5410  -33.0660   C 0  0  0  0  0  0  0  0  0  0  0  0
  -22.1620   22.4500  -37.0960   O 0  0  0  0  0  0  0  0  0  0  0  0
  -23.4150   22.8580  -36.5540   C 0  0  0  0  0  0  0  0  0  0  0  0
  -23.8050   24.2660  -37.1510   C 0  0  0  0  0  0  0  0  0  0  0  0
  -23.0130   25.1890  -36.6990   O 0  0  0  0  0  0  0  0  0  0  0  0
  -23.5920   24.2640  -38.6710   C 0  0  0  0  0  0  0  0  0  0  0  0
  -24.6920   23.8130  -39.2900   O 0  0  0  0  0  0  0  0  0  0  0  0
  -23.3490   25.7540  -38.9590   C 0  0  0  0  0  0  0  0  0  0  0  0
  -24.6830   26.4620  -39.0520   O 0  0  0  0  0  0  0  0  0  0  0  0
  -22.6980   26.2010  -37.9230   C 0  0  0  0  0  0  0  0  0  0  0  0
  -21.3050   26.2200  -38.1100   N 0  0  0  0  0  0  0  0  0  0  0  0
  -20.3890   25.5940  -37.3550   C 0  0  0  0  0  0  0  0  0  0  0  0
  -19.1500   25.8700  -37.8650   N 0  0  0  0  0  0  0  0  0  0  0  0
  -19.3160   26.6750  -38.9460   C 0  0  0  0  0  0  0  0  0  0  0  0
  -18.4040   27.2440  -39.8140   C 0  0  0  0  0  0  0  0  0  0  0  0
  -16.9770   27.2470  -39.9790   N 0  0  0  0  0  0  0  0  0  0  0  0
  -18.8360   28.0280  -40.8340   N 0  0  0  0  0  0  0  0  0  0  0  0
  -20.1660   28.2540  -40.9960   C 0  0  0  0  0  0  0  0  0  0  0  0
  -21.0690   27.6920  -40.1320   N 0  0  0  0  0  0  0  0  0  0  0  0
  -20.6430   26.9020  -39.1070   C 0  0  0  0  0  0  0  0  0  0  0  0
  1  2  2  0  0  0  0
  1  3  1  0  0  0  0
  1  4  1  0  0  0  0
  1 20  1  0  0  0  0
  4  5  1  0  0  0  0
  5  6  2  0  0  0  0
  5  7  1  0  0  0  0
  5  8  1  0  0  0  0
  8  9  1  0  0  0  0
  9 10  2  0  0  0  0
  9 11  1  0  0  0  0
  9 12  1  0  0  0  0
 12 13  1  0  0  0  0
 13 14  2  0  0  0  0
 13 15  1  0  0  0  0
 13 16  1  0  0  0  0
 16 17  1  0  0  0  0
 17 18  2  0  0  0  0
 17 19  1  0  0  0  0
 17 39  1  0  0  0  0
 20 21  1  0  0  0  0
 21 22  1  0  0  0  0
 22 23  1  0  0  0  0
 22 24  1  0  0  0  0
 23 28  1  0  0  0  0
 24 25  1  0  0  0  0
 24 26  1  0  0  0  0
 26 27  1  0  0  0  0
 26 28  1  0  0  0  0
 28 29  1  0  0  0  0
 29 30  1  0  0  0  0
 29 38  1  0  0  0  0
 30 31  2  0  0  0  0
 31 32  1  0  0  0  0
 32 33  1  0  0  0  0
 32 38  2  0  0  0  0
 33 34  1  0  0  0  0
 33 35  2  0  0  0  0
 35 36  1  0  0  0  0
 36 37  2  0  0  0  0
 37 38  1  0  0  0  0
 39 40  1  0  0  0  0
 40 41  1  0  0  0  0
 41 42  1  0  0  0  0
 41 43  1  0  0  0  0
 42 47  1  0  0  0  0
 43 44  1  0  0  0  0
 43 45  1  0  0  0  0
 45 46  1  0  0  0  0
 45 47  1  0  0  0  0
 47 48  1  0  0  0  0
 48 49  1  0  0  0  0
 48 57  1  0  0  0  0
 49 50  2  0  0  0  0
 50 51  1  0  0  0  0
 51 52  1  0  0  0  0
 51 57  2  0  0  0  0
 52 53  1  0  0  0  0
 52 54  2  0  0  0  0
 54 55  1  0  0  0  0
 55 56  2  0  0  0  0
 56 57  1  0  0  0  0
A    1
PA
A    2
O1A
A    3
O2A
A    4
O3A
A    5
PB
A    6
O1B
A    7
O2B
A    8
O3B
A    9
PG
A   10
O1G
A   11
O2G
A   12
O3G
A   13
PD
A   14
O1D
A   15
O2D
A   16
O3D
A   17
PE
A   18
O1E
A   19
O2E
A   20
O5F
A   21
C5F
A   22
C4F
A   23
O4F
A   24
C3F
A   25
O3F
A   26
C2F
A   27
O2F
A   28
C1F
A   29
N9A
A   30
C8A
A   31
N7A
A   32
C5A
A   33
C6A
A   34
N6A
A   35
N1A
A   36
C2A
A   37
N3A
A   38
C4A
A   39
O5J
A   40
C5J
A   41
C4J
A   42
O4J
A   43
C3J
A   44
O3J
A   45
C2J
A   46
O2J
A   47
C1J
A   48
N9B
A   49
C8B
A   50
N7B
A   51
C5B
A   52
C6B
A   53
N6B
A   54
N1B
A   55
C2B
A   56
N3B
A   57
C4B
M  END
>  <InstanceId>
4X8O_AP5_A_301

>  <ChemCompId>
AP5

>  <PdbId>
4X8O

>  <ChainId>
A

>  <ResidueNumber>
301

>  <InsertionCode>


>  <Model>
1

>  <AltIds>


>  <MissingHeavyAtoms>
0

>  <ObservedFormula>
C20 N10 O22 P5

>  <Name>
BIS(ADENOSINE)-5'-PENTAPHOSPHATE

>  <SystematicName>
[[[[[(2R,3S,4R,5R)-5-(6-aminopurin-9-yl)-3,4-dihydroxy-oxolan-2-yl]methoxy-hydroxy-phosphoryl]oxy-hydroxy-phosphoryl]oxy-hydroxy-phosphoryl]oxy-hydroxy-phosphoryl] [(2R,3S,4R,5R)-5-(6-aminopurin-9-yl)-3,4-dihydroxy-oxolan-2-yl]methyl hydrogen phosphate

>  <Synonyms>


>  <Type>
NON-POLYMER

>  <Formula>
C20 H29 N10 O22 P5

>  <MolecularWeight>
916.367

>  <ModifiedDate>
2011-06-04

>  <Parent>


>  <OneLetterCode>


>  <SubcomponentList>


>  <AmbiguousFlag>
N

>  <InChI>
InChI=1S/C20H29N10O22P5/c21-15-9-17(25-3-23-15)29(5-27-9)19-13(33)11(31)7(47-19)1-45-53(35,36)49-55(39,40)51-57(43,44)52-56(41,42)50-54(37,38)46-2-8-12(32)14(34)20(48-8)30-6-28-10-16(22)24-4-26-18(10)30/h3-8,11-14,19-20,31-34H,1-2H2,(H,35,36)(H,37,38)(H,39,40)(H,41,42)(H,43,44)(H2,21,23,25)(H2,22,24,26)/t7-,8-,11-,12-,13-,14-,19-,20-/m1/s1

>  <InChIKey>
OIMACDRJUANHTJ-XPWFQUROSA-N

>  <SMILES>
c1nc(c2c(n1)n(cn2)[C@H]3[C@@H]([C@@H]([C@H](O3)CO[P@](=O)(O)O[P@](=O)(O)OP(=O)(O)O[P@@](=O)(O)O[P@@](=O)(O)OC[C@@H]4[C@H]([C@H]([C@@H](O4)n5cnc6c5ncnc6N)O)O)O)O)N

$$$$
