3K37_BCZ_A_468
  RCSB PDB12061709223D
Coordinates from PDB:3K37:A:468 Model:1 without hydrogens
 23 23  0  0  0  0            999 V2000
  -14.0380  -27.0410   11.9390   C 0  0  0  0  0  0  0  0  0  0  0  0
  -13.3540  -26.4240   13.0940   N 0  0  0  0  0  0  0  0  0  0  0  0
  -12.0020  -26.0370   13.0860   C 0  0  0  0  0  0  0  0  0  0  0  0
  -11.2820  -25.8830   11.9320   N 0  0  0  0  0  0  0  0  0  0  0  0
  -11.2960  -25.7790   14.2490   N 0  0  0  0  0  0  0  0  0  0  0  0
  -14.9510  -28.2260   12.2410   C 0  0  0  0  0  0  0  0  0  0  0  0
  -14.2210  -29.5470   12.5420   C 0  0  0  0  0  0  0  0  0  0  0  0
  -15.1400  -30.7300   12.8280   C 0  0  0  0  0  0  0  0  0  0  0  0
  -15.9060  -30.5490   14.1310   C 0  0  0  0  0  0  0  0  0  0  0  0
  -17.3050  -31.0910   13.9850   C 0  0  0  0  0  0  0  0  0  0  0  0
  -14.3500  -32.0320   12.8270   C 0  0  0  0  0  0  0  0  0  0  0  0
  -13.8930  -32.4140   11.4200   C 0  0  0  0  0  0  0  0  0  0  0  0
  -13.2250  -29.4690   13.5860   N 0  0  0  0  0  0  0  0  0  0  0  0
  -11.8700  -29.4200   13.3160   C 0  0  0  0  0  0  0  0  0  0  0  0
  -11.0740  -29.1140   14.5440   C 0  0  0  0  0  0  0  0  0  0  0  0
  -11.3270  -29.6100   12.2360   O 0  0  0  0  0  0  0  0  0  0  0  0
  -15.8330  -28.2950   11.0000   C 0  0  0  0  0  0  0  0  0  0  0  0
  -15.2320  -29.2020   10.0550   O 0  0  0  0  0  0  0  0  0  0  0  0
  -15.8280  -26.9350   10.3100   C 0  0  0  0  0  0  0  0  0  0  0  0
  -17.2640  -26.3890   10.4000   C 0  0  0  0  0  0  0  0  0  0  0  0
  -17.3950  -25.1450   10.2050   O 0  0  0  0  0  0  0  0  0  0  0  0
  -18.1910  -27.2160   10.6380   O 0  0  0  0  0  0  0  0  0  0  0  0
  -14.9610  -26.0620   11.2090   C 0  0  0  0  0  0  0  0  0  0  0  0
  1  2  1  0  0  0  0
  1  6  1  0  0  0  0
  1 23  1  0  0  0  0
  2  3  1  0  0  0  0
  3  4  2  0  0  0  0
  3  5  1  0  0  0  0
  6  7  1  0  0  0  0
  6 17  1  0  0  0  0
  7  8  1  0  0  0  0
  7 13  1  0  0  0  0
  8  9  1  0  0  0  0
  8 11  1  0  0  0  0
  9 10  1  0  0  0  0
 11 12  1  0  0  0  0
 13 14  1  0  0  0  0
 14 15  1  0  0  0  0
 14 16  2  0  0  0  0
 17 18  1  0  0  0  0
 17 19  1  0  0  0  0
 19 20  1  0  0  0  0
 19 23  1  0  0  0  0
 20 21  2  0  0  0  0
 20 22  1  0  0  0  0
A    1
C2
A    2
N25
A    3
C26
A    4
N30
A    5
N27
A    6
C3
A    7
C10
A    8
C24
A    9
C37
A   10
C38
A   11
C36
A   12
C39
A   13
N11
A   14
C13
A   15
C15
A   16
O14
A   17
C4
A   18
O9
A   19
C5
A   20
C6
A   21
O8
A   22
O7
A   23
C1
M  END
>  <InstanceId>
3K37_BCZ_A_468

>  <ChemCompId>
BCZ

>  <PdbId>
3K37

>  <ChainId>
A

>  <ResidueNumber>
468

>  <InsertionCode>


>  <Model>
1

>  <AltIds>


>  <MissingHeavyAtoms>
0

>  <ObservedFormula>
C15 N4 O4

>  <Name>
3-(1-ACETYLAMINO-2-ETHYL-BUTYL)-4-GUANIDINO-2-HYDROXY-CYCLOPENTANECARBOXYLIC ACID

>  <SystematicName>
(1S,2S,3R,4R)-3-[(1S)-1-acetamido-2-ethyl-butyl]-4-carbamimidamido-2-hydroxy-cyclopentane-1-carboxylic acid

>  <Synonyms>
BCX-1812

>  <Type>
NON-POLYMER

>  <Formula>
C15 H28 N4 O4

>  <MolecularWeight>
328.407

>  <ModifiedDate>
2011-06-04

>  <Parent>


>  <OneLetterCode>


>  <SubcomponentList>


>  <AmbiguousFlag>
N

>  <InChI>
InChI=1S/C15H28N4O4/c1-4-8(5-2)12(18-7(3)20)11-10(19-15(16)17)6-9(13(11)21)14(22)23/h8-13,21H,4-6H2,1-3H3,(H,18,20)(H,22,23)(H4,16,17,19)/t9-,10+,11+,12-,13+/m0/s1

>  <InChIKey>
XRQDFNLINLXZLB-CKIKVBCHSA-N

>  <SMILES>
CCC(CC)[C@@H]([C@H]1[C@@H](C[C@@H]([C@H]1O)C(=O)O)NC(=N)N)NC(=O)C

$$$$
