3K37_BCZ_A_468


 30 30  0  0  0  0  0  0  0  0999 V2000
  -14.5645  -27.6685   12.1220 C   0  0  0  0  0  0  0  0  0  0  0  0
  -13.4189  -28.6192   12.4575 C   0  0  0  0  0  0  0  0  0  0  0  0
  -12.7282  -27.9157   13.6197 C   0  0  0  0  0  0  0  0  0  0  0  0
  -13.2864  -28.4057   14.8547 O   0  0  0  0  0  0  0  0  0  0  0  0
  -13.0783  -26.4319   13.5818 C   0  0  0  0  0  0  0  0  0  0  0  0
  -13.9489  -26.2840   12.3399 C   0  0  0  0  0  0  0  0  0  0  0  0
  -14.2403  -28.2305   14.8704 H   0  0  0  0  0  0  0  0  0  0  0  0
  -11.7667  -25.6757   13.3059 C   0  0  0  0  0  0  0  0  0  0  0  0
  -11.4243  -25.5893   12.0902 O   0  0  0  0  0  0  0  0  0  0  0  0
  -11.1519  -25.1886   14.2982 O   0  0  0  0  0  0  0  0  0  0  0  0
  -11.4898  -25.3088   15.1638 H   0  0  0  0  0  0  0  0  0  0  0  0
  -15.1738  -27.8157   10.7842 N   0  0  0  0  0  0  0  0  0  0  0  0
  -14.5806  -27.7906    9.9988 H   0  0  0  0  0  0  0  0  0  0  0  0
  -16.5525  -27.9896   10.5684 C   0  0  0  0  0  0  0  0  0  0  0  0
  -17.1535  -29.2195   10.5695 N   0  0  0  0  0  0  0  0  0  0  0  0
  -17.4090  -26.9256   10.3406 N   0  0  0  0  0  0  0  0  0  0  0  0
  -16.6162  -30.0298   10.7240 H   0  0  0  0  0  0  0  0  0  0  0  0
  -17.0580  -26.0060   10.3236 H   0  0  0  0  0  0  0  0  0  0  0  0
  -18.3691  -27.0888   10.1957 H   0  0  0  0  0  0  0  0  0  0  0  0
  -13.8472  -30.0601   12.7873 C   0  0  0  0  0  0  0  0  0  0  0  0
  -15.2650  -30.2411   12.9999 N   0  0  0  0  0  0  0  0  0  0  0  0
  -15.8063  -30.4466   14.2553 C   0  0  0  0  0  0  0  0  0  0  0  0
  -17.2995  -30.3754   14.2302 C   0  0  0  0  0  0  0  0  0  0  0  0
  -15.1971  -30.6785   15.2909 O   0  0  0  0  0  0  0  0  0  0  0  0
  -15.8678  -30.2172   12.2219 H   0  0  0  0  0  0  0  0  0  0  0  0
  -13.3620  -31.1105   11.7937 C   0  0  0  0  0  0  0  0  0  0  0  0
  -14.4929  -31.6181   10.9101 C   0  0  0  0  0  0  0  0  0  0  0  0
  -13.9881  -31.8451    9.5079 C   0  0  0  0  0  0  0  0  0  0  0  0
  -12.6725  -32.2562   12.5224 C   0  0  0  0  0  0  0  0  0  0  0  0
  -13.6347  -33.4105   12.7980 C   0  0  0  0  0  0  0  0  0  0  0  0
  1 12  1  0  0  0
  1  2  1  0  0  0
  1  6  1  0  0  0
 12 14  1  0  0  0
 14 15  2  0  0  0
 14 16  1  0  0  0
  2 20  1  0  0  0
  2  3  1  0  0  0
 20 26  1  0  0  0
 20 21  1  0  0  0
 26 27  1  0  0  0
 26 29  1  0  0  0
 27 28  1  0  0  0
 29 30  1  0  0  0
 21 22  1  0  0  0
 22 23  1  0  0  0
 22 24  2  0  0  0
  3  4  1  0  0  0
  3  5  1  0  0  0
  5  8  1  0  0  0
  5  6  1  0  0  0
  8  9  2  0  0  0
  8 10  1  0  0  0
 12 13  1  0  0  0
 15 17  1  0  0  0
 16 18  1  0  0  0
 16 19  1  0  0  0
 21 25  1  0  0  0
  4  7  1  0  0  0
 10 11  1  0  0  0
M  END
> <minimizedAffinity>
-7.68467

$$$$
3K37_BCZ_A_468


 30 30  0  0  0  0  0  0  0  0999 V2000
  -14.0206  -26.9643   12.0034 C   0  0  0  0  0  0  0  0  0  0  0  0
  -14.9100  -28.1576   12.3411 C   0  0  0  0  0  0  0  0  0  0  0  0
  -15.7616  -28.3074   11.0860 C   0  0  0  0  0  0  0  0  0  0  0  0
  -15.1165  -29.2412   10.1979 O   0  0  0  0  0  0  0  0  0  0  0  0
  -15.7752  -26.9812   10.3331 C   0  0  0  0  0  0  0  0  0  0  0  0
  -14.9512  -26.0449   11.2085 C   0  0  0  0  0  0  0  0  0  0  0  0
  -14.2322  -28.9135    9.9710 H   0  0  0  0  0  0  0  0  0  0  0  0
  -17.2262  -26.4696   10.3664 C   0  0  0  0  0  0  0  0  0  0  0  0
  -17.3804  -25.2319   10.1492 O   0  0  0  0  0  0  0  0  0  0  0  0
  -18.1406  -27.3158   10.5846 O   0  0  0  0  0  0  0  0  0  0  0  0
  -17.9213  -28.2143   10.7349 H   0  0  0  0  0  0  0  0  0  0  0  0
  -13.3789  -26.2766   13.1426 N   0  0  0  0  0  0  0  0  0  0  0  0
  -13.9024  -26.1582   13.9679 H   0  0  0  0  0  0  0  0  0  0  0  0
  -12.0629  -25.7814   13.1156 C   0  0  0  0  0  0  0  0  0  0  0  0
  -11.3760  -25.5655   11.9513 N   0  0  0  0  0  0  0  0  0  0  0  0
  -11.3618  -25.4712   14.2687 N   0  0  0  0  0  0  0  0  0  0  0  0
  -11.8018  -25.7602   11.0853 H   0  0  0  0  0  0  0  0  0  0  0  0
  -11.7828  -25.5971   15.1497 H   0  0  0  0  0  0  0  0  0  0  0  0
  -10.4423  -25.1247   14.2076 H   0  0  0  0  0  0  0  0  0  0  0  0
  -14.1539  -29.4436   12.7195 C   0  0  0  0  0  0  0  0  0  0  0  0
  -13.1949  -29.2943   13.7901 N   0  0  0  0  0  0  0  0  0  0  0  0
  -11.8313  -29.3882   13.5825 C   0  0  0  0  0  0  0  0  0  0  0  0
  -11.0595  -28.9724   14.7936 C   0  0  0  0  0  0  0  0  0  0  0  0
  -11.2656  -29.7711   12.5672 O   0  0  0  0  0  0  0  0  0  0  0  0
  -13.5248  -29.1192   14.7010 H   0  0  0  0  0  0  0  0  0  0  0  0
  -15.0487  -30.6400   13.0256 C   0  0  0  0  0  0  0  0  0  0  0  0
  -15.8740  -30.4213   14.2859 C   0  0  0  0  0  0  0  0  0  0  0  0
  -17.3227  -30.7364   14.0134 C   0  0  0  0  0  0  0  0  0  0  0  0
  -14.2210  -31.9149   13.1207 C   0  0  0  0  0  0  0  0  0  0  0  0
  -13.6529  -32.3219   11.7620 C   0  0  0  0  0  0  0  0  0  0  0  0
  1 12  1  0  0  0
  1  2  1  0  0  0
  1  6  1  0  0  0
 12 14  1  0  0  0
 14 15  2  0  0  0
 14 16  1  0  0  0
  2 20  1  0  0  0
  2  3  1  0  0  0
 20 26  1  0  0  0
 20 21  1  0  0  0
 26 27  1  0  0  0
 26 29  1  0  0  0
 27 28  1  0  0  0
 29 30  1  0  0  0
 21 22  1  0  0  0
 22 23  1  0  0  0
 22 24  2  0  0  0
  3  4  1  0  0  0
  3  5  1  0  0  0
  5  8  1  0  0  0
  5  6  1  0  0  0
  8  9  2  0  0  0
  8 10  1  0  0  0
 12 13  1  0  0  0
 15 17  1  0  0  0
 16 18  1  0  0  0
 16 19  1  0  0  0
 21 25  1  0  0  0
  4  7  1  0  0  0
 10 11  1  0  0  0
M  END
> <minimizedAffinity>
-7.61134

$$$$
3K37_BCZ_A_468


 30 30  0  0  0  0  0  0  0  0999 V2000
  -14.1152  -27.0799   12.1438 C   0  0  0  0  0  0  0  0  0  0  0  0
  -15.1400  -28.1372   12.5448 C   0  0  0  0  0  0  0  0  0  0  0  0
  -15.9521  -28.3189   11.2680 C   0  0  0  0  0  0  0  0  0  0  0  0
  -15.3758  -29.3953   10.5023 O   0  0  0  0  0  0  0  0  0  0  0  0
  -15.7937  -27.0772   10.3969 C   0  0  0  0  0  0  0  0  0  0  0  0
  -14.9097  -26.1505   11.2227 C   0  0  0  0  0  0  0  0  0  0  0  0
  -14.4532  -29.1837   10.2906 H   0  0  0  0  0  0  0  0  0  0  0  0
  -17.1818  -26.4182   10.3110 C   0  0  0  0  0  0  0  0  0  0  0  0
  -18.1702  -27.1860   10.5014 O   0  0  0  0  0  0  0  0  0  0  0  0
  -17.2266  -25.1754   10.0805 O   0  0  0  0  0  0  0  0  0  0  0  0
  -16.4332  -24.6936    9.9528 H   0  0  0  0  0  0  0  0  0  0  0  0
  -13.4494  -26.3551   13.2456 N   0  0  0  0  0  0  0  0  0  0  0  0
  -13.9485  -26.2254   14.0842 H   0  0  0  0  0  0  0  0  0  0  0  0
  -12.1433  -25.8399   13.1651 C   0  0  0  0  0  0  0  0  0  0  0  0
  -11.5049  -25.6216   11.9741 N   0  0  0  0  0  0  0  0  0  0  0  0
  -11.4036  -25.5111   14.2886 N   0  0  0  0  0  0  0  0  0  0  0  0
  -11.9603  -25.8288   11.1262 H   0  0  0  0  0  0  0  0  0  0  0  0
  -11.7887  -25.6374   15.1858 H   0  0  0  0  0  0  0  0  0  0  0  0
  -10.4926  -25.1510   14.1901 H   0  0  0  0  0  0  0  0  0  0  0  0
  -14.5416  -29.4516   13.0766 C   0  0  0  0  0  0  0  0  0  0  0  0
  -15.3867  -30.6133   12.9209 N   0  0  0  0  0  0  0  0  0  0  0  0
  -16.4468  -30.8780   13.7680 C   0  0  0  0  0  0  0  0  0  0  0  0
  -17.2912  -32.0021   13.2595 C   0  0  0  0  0  0  0  0  0  0  0  0
  -16.7063  -30.3126   14.8217 O   0  0  0  0  0  0  0  0  0  0  0  0
  -15.2007  -31.2395   12.1843 H   0  0  0  0  0  0  0  0  0  0  0  0
  -13.1522  -29.7801   12.5402 C   0  0  0  0  0  0  0  0  0  0  0  0
  -13.1509  -31.0637   11.7219 C   0  0  0  0  0  0  0  0  0  0  0  0
  -12.7153  -32.2222   12.5825 C   0  0  0  0  0  0  0  0  0  0  0  0
  -12.1431  -29.8489   13.6787 C   0  0  0  0  0  0  0  0  0  0  0  0
  -10.8805  -29.0485   13.3631 C   0  0  0  0  0  0  0  0  0  0  0  0
  1 12  1  0  0  0
  1  2  1  0  0  0
  1  6  1  0  0  0
 12 14  1  0  0  0
 14 15  2  0  0  0
 14 16  1  0  0  0
  2 20  1  0  0  0
  2  3  1  0  0  0
 20 26  1  0  0  0
 20 21  1  0  0  0
 26 27  1  0  0  0
 26 29  1  0  0  0
 27 28  1  0  0  0
 29 30  1  0  0  0
 21 22  1  0  0  0
 22 23  1  0  0  0
 22 24  2  0  0  0
  3  4  1  0  0  0
  3  5  1  0  0  0
  5  8  1  0  0  0
  5  6  1  0  0  0
  8  9  2  0  0  0
  8 10  1  0  0  0
 12 13  1  0  0  0
 15 17  1  0  0  0
 16 18  1  0  0  0
 16 19  1  0  0  0
 21 25  1  0  0  0
  4  7  1  0  0  0
 10 11  1  0  0  0
M  END
> <minimizedAffinity>
-7.15494

$$$$
3K37_BCZ_A_468


 30 30  0  0  0  0  0  0  0  0999 V2000
  -13.8521  -29.2801   14.5009 C   0  0  0  0  0  0  0  0  0  0  0  0
  -14.3484  -28.7772   13.1482 C   0  0  0  0  0  0  0  0  0  0  0  0
  -13.0549  -28.4052   12.4332 C   0  0  0  0  0  0  0  0  0  0  0  0
  -12.6059  -29.5410   11.6682 O   0  0  0  0  0  0  0  0  0  0  0  0
  -11.9643  -28.1640   13.4715 C   0  0  0  0  0  0  0  0  0  0  0  0
  -12.6703  -28.3569   14.8081 C   0  0  0  0  0  0  0  0  0  0  0  0
  -12.4609  -30.2940   12.2623 H   0  0  0  0  0  0  0  0  0  0  0  0
  -11.5826  -26.6764   13.3735 C   0  0  0  0  0  0  0  0  0  0  0  0
  -11.5045  -26.2024   12.2022 O   0  0  0  0  0  0  0  0  0  0  0  0
  -11.3992  -26.0465   14.4549 O   0  0  0  0  0  0  0  0  0  0  0  0
  -11.4808  -26.4911   15.2757 H   0  0  0  0  0  0  0  0  0  0  0  0
  -14.8439  -29.3175   15.5952 N   0  0  0  0  0  0  0  0  0  0  0  0
  -15.7975  -29.3676   15.3557 H   0  0  0  0  0  0  0  0  0  0  0  0
  -14.5037  -29.2855   16.9594 C   0  0  0  0  0  0  0  0  0  0  0  0
  -13.6084  -28.3899   17.4792 N   0  0  0  0  0  0  0  0  0  0  0  0
  -15.0531  -30.1590   17.8829 N   0  0  0  0  0  0  0  0  0  0  0  0
  -13.1712  -27.7330   16.8906 H   0  0  0  0  0  0  0  0  0  0  0  0
  -15.7064  -30.8357   17.5923 H   0  0  0  0  0  0  0  0  0  0  0  0
  -14.7903  -30.1033   18.8300 H   0  0  0  0  0  0  0  0  0  0  0  0
  -15.2117  -29.7789   12.3608 C   0  0  0  0  0  0  0  0  0  0  0  0
  -15.3839  -29.4665   10.9605 N   0  0  0  0  0  0  0  0  0  0  0  0
  -16.3498  -28.5855   10.5107 C   0  0  0  0  0  0  0  0  0  0  0  0
  -16.1708  -28.2643    9.0615 C   0  0  0  0  0  0  0  0  0  0  0  0
  -17.2697  -28.1068   11.1602 O   0  0  0  0  0  0  0  0  0  0  0  0
  -14.7915  -29.8969   10.3025 H   0  0  0  0  0  0  0  0  0  0  0  0
  -14.7727  -31.2339   12.4885 C   0  0  0  0  0  0  0  0  0  0  0  0
  -14.6963  -31.9226   11.1331 C   0  0  0  0  0  0  0  0  0  0  0  0
  -13.5001  -32.8387   11.0882 C   0  0  0  0  0  0  0  0  0  0  0  0
  -15.6921  -31.9871   13.4407 C   0  0  0  0  0  0  0  0  0  0  0  0
  -17.1397  -31.5132   13.3208 C   0  0  0  0  0  0  0  0  0  0  0  0
  1 12  1  0  0  0
  1  2  1  0  0  0
  1  6  1  0  0  0
 12 14  1  0  0  0
 14 15  2  0  0  0
 14 16  1  0  0  0
  2 20  1  0  0  0
  2  3  1  0  0  0
 20 26  1  0  0  0
 20 21  1  0  0  0
 26 27  1  0  0  0
 26 29  1  0  0  0
 27 28  1  0  0  0
 29 30  1  0  0  0
 21 22  1  0  0  0
 22 23  1  0  0  0
 22 24  2  0  0  0
  3  4  1  0  0  0
  3  5  1  0  0  0
  5  8  1  0  0  0
  5  6  1  0  0  0
  8  9  2  0  0  0
  8 10  1  0  0  0
 12 13  1  0  0  0
 15 17  1  0  0  0
 16 18  1  0  0  0
 16 19  1  0  0  0
 21 25  1  0  0  0
  4  7  1  0  0  0
 10 11  1  0  0  0
M  END
> <minimizedAffinity>
-6.65064

$$$$
3K37_BCZ_A_468


 30 30  0  0  0  0  0  0  0  0999 V2000
  -14.9515  -27.1328   11.5854 C   0  0  0  0  0  0  0  0  0  0  0  0
  -14.0710  -28.3288   11.9363 C   0  0  0  0  0  0  0  0  0  0  0  0
  -13.4163  -27.8922   13.2415 C   0  0  0  0  0  0  0  0  0  0  0  0
  -14.2196  -28.3619   14.3419 O   0  0  0  0  0  0  0  0  0  0  0  0
  -13.4586  -26.3706   13.3344 C   0  0  0  0  0  0  0  0  0  0  0  0
  -14.1095  -25.9334   12.0279 C   0  0  0  0  0  0  0  0  0  0  0  0
  -15.1136  -27.9925   14.2704 H   0  0  0  0  0  0  0  0  0  0  0  0
  -11.9987  -25.8852   13.2957 C   0  0  0  0  0  0  0  0  0  0  0  0
  -11.4966  -25.7366   12.1431 O   0  0  0  0  0  0  0  0  0  0  0  0
  -11.4283  -25.6561   14.4012 O   0  0  0  0  0  0  0  0  0  0  0  0
  -11.8891  -25.7988   15.2045 H   0  0  0  0  0  0  0  0  0  0  0  0
  -15.3941  -27.0292   10.1797 N   0  0  0  0  0  0  0  0  0  0  0  0
  -14.7288  -27.1856    9.4710 H   0  0  0  0  0  0  0  0  0  0  0  0
  -16.7113  -26.7201    9.7960 C   0  0  0  0  0  0  0  0  0  0  0  0
  -17.0715  -25.4947    9.3035 N   0  0  0  0  0  0  0  0  0  0  0  0
  -17.7457  -27.6363    9.8853 N   0  0  0  0  0  0  0  0  0  0  0  0
  -16.3961  -24.7849    9.2073 H   0  0  0  0  0  0  0  0  0  0  0  0
  -17.5725  -28.5423   10.2295 H   0  0  0  0  0  0  0  0  0  0  0  0
  -18.6544  -27.3818    9.6046 H   0  0  0  0  0  0  0  0  0  0  0  0
  -14.8153  -29.6712   12.0491 C   0  0  0  0  0  0  0  0  0  0  0  0
  -14.9414  -30.4043   10.8102 N   0  0  0  0  0  0  0  0  0  0  0  0
  -16.1646  -30.6473   10.2136 C   0  0  0  0  0  0  0  0  0  0  0  0
  -16.0047  -31.2185    8.8412 C   0  0  0  0  0  0  0  0  0  0  0  0
  -17.2716  -30.4570   10.6992 O   0  0  0  0  0  0  0  0  0  0  0  0
  -14.1260  -30.7433   10.3750 H   0  0  0  0  0  0  0  0  0  0  0  0
  -14.2734  -30.6100   13.1218 C   0  0  0  0  0  0  0  0  0  0  0  0
  -13.1104  -31.4462   12.6066 C   0  0  0  0  0  0  0  0  0  0  0  0
  -13.4159  -32.9125   12.7764 C   0  0  0  0  0  0  0  0  0  0  0  0
  -15.3871  -31.4911   13.6720 C   0  0  0  0  0  0  0  0  0  0  0  0
  -16.6290  -30.6751   14.0277 C   0  0  0  0  0  0  0  0  0  0  0  0
  1 12  1  0  0  0
  1  2  1  0  0  0
  1  6  1  0  0  0
 12 14  1  0  0  0
 14 15  2  0  0  0
 14 16  1  0  0  0
  2 20  1  0  0  0
  2  3  1  0  0  0
 20 26  1  0  0  0
 20 21  1  0  0  0
 26 27  1  0  0  0
 26 29  1  0  0  0
 27 28  1  0  0  0
 29 30  1  0  0  0
 21 22  1  0  0  0
 22 23  1  0  0  0
 22 24  2  0  0  0
  3  4  1  0  0  0
  3  5  1  0  0  0
  5  8  1  0  0  0
  5  6  1  0  0  0
  8  9  2  0  0  0
  8 10  1  0  0  0
 12 13  1  0  0  0
 15 17  1  0  0  0
 16 18  1  0  0  0
 16 19  1  0  0  0
 21 25  1  0  0  0
  4  7  1  0  0  0
 10 11  1  0  0  0
M  END
> <minimizedAffinity>
-6.57397

$$$$
3K37_BCZ_A_468


 30 30  0  0  0  0  0  0  0  0999 V2000
  -14.0423  -28.9432   13.7685 C   0  0  0  0  0  0  0  0  0  0  0  0
  -13.7707  -28.7506   12.2791 C   0  0  0  0  0  0  0  0  0  0  0  0
  -12.3227  -28.2756   12.2606 C   0  0  0  0  0  0  0  0  0  0  0  0
  -11.4618  -29.4212   12.1078 O   0  0  0  0  0  0  0  0  0  0  0  0
  -11.9737  -27.6904   13.6250 C   0  0  0  0  0  0  0  0  0  0  0  0
  -13.2702  -27.7926   14.4192 C   0  0  0  0  0  0  0  0  0  0  0  0
  -11.6081  -30.0360   12.8437 H   0  0  0  0  0  0  0  0  0  0  0  0
  -11.6963  -26.1927   13.4051 C   0  0  0  0  0  0  0  0  0  0  0  0
  -11.6092  -25.8185   12.1988 O   0  0  0  0  0  0  0  0  0  0  0  0
  -11.5984  -25.4587   14.4305 O   0  0  0  0  0  0  0  0  0  0  0  0
  -11.6781  -25.8346   15.2851 H   0  0  0  0  0  0  0  0  0  0  0  0
  -15.4604  -28.9814   14.1810 N   0  0  0  0  0  0  0  0  0  0  0  0
  -15.9625  -28.1347   14.1953 H   0  0  0  0  0  0  0  0  0  0  0  0
  -16.1340  -30.1580   14.5543 C   0  0  0  0  0  0  0  0  0  0  0  0
  -15.5333  -31.3881   14.5534 N   0  0  0  0  0  0  0  0  0  0  0  0
  -17.4595  -30.1601   14.9551 N   0  0  0  0  0  0  0  0  0  0  0  0
  -14.5911  -31.4755   14.2816 H   0  0  0  0  0  0  0  0  0  0  0  0
  -17.9663  -29.3166   14.9844 H   0  0  0  0  0  0  0  0  0  0  0  0
  -17.8952  -31.0052   15.2108 H   0  0  0  0  0  0  0  0  0  0  0  0
  -14.0127  -29.9969   11.4092 C   0  0  0  0  0  0  0  0  0  0  0  0
  -13.9689  -31.2543   12.1199 N   0  0  0  0  0  0  0  0  0  0  0  0
  -13.2432  -32.3390   11.6638 C   0  0  0  0  0  0  0  0  0  0  0  0
  -13.1785  -33.4280   12.6861 C   0  0  0  0  0  0  0  0  0  0  0  0
  -12.7113  -32.4611   10.5686 O   0  0  0  0  0  0  0  0  0  0  0  0
  -14.4746  -31.3417   12.9601 H   0  0  0  0  0  0  0  0  0  0  0  0
  -15.2870  -29.9503   10.5726 C   0  0  0  0  0  0  0  0  0  0  0  0
  -15.9392  -28.5753   10.6117 C   0  0  0  0  0  0  0  0  0  0  0  0
  -17.0822  -28.5199    9.6305 C   0  0  0  0  0  0  0  0  0  0  0  0
  -16.2578  -31.0359   11.0179 C   0  0  0  0  0  0  0  0  0  0  0  0
  -16.5252  -32.0459    9.9031 C   0  0  0  0  0  0  0  0  0  0  0  0
  1 12  1  0  0  0
  1  2  1  0  0  0
  1  6  1  0  0  0
 12 14  1  0  0  0
 14 15  2  0  0  0
 14 16  1  0  0  0
  2 20  1  0  0  0
  2  3  1  0  0  0
 20 26  1  0  0  0
 20 21  1  0  0  0
 26 27  1  0  0  0
 26 29  1  0  0  0
 27 28  1  0  0  0
 29 30  1  0  0  0
 21 22  1  0  0  0
 22 23  1  0  0  0
 22 24  2  0  0  0
  3  4  1  0  0  0
  3  5  1  0  0  0
  5  8  1  0  0  0
  5  6  1  0  0  0
  8  9  2  0  0  0
  8 10  1  0  0  0
 12 13  1  0  0  0
 15 17  1  0  0  0
 16 18  1  0  0  0
 16 19  1  0  0  0
 21 25  1  0  0  0
  4  7  1  0  0  0
 10 11  1  0  0  0
M  END
> <minimizedAffinity>
-6.45749

$$$$
3K37_BCZ_A_468


 30 30  0  0  0  0  0  0  0  0999 V2000
  -15.1431  -30.3200   10.5699 C   0  0  0  0  0  0  0  0  0  0  0  0
  -14.7390  -29.1996   11.5239 C   0  0  0  0  0  0  0  0  0  0  0  0
  -16.0725  -28.5357   11.8460 C   0  0  0  0  0  0  0  0  0  0  0  0
  -16.6143  -29.1396   13.0370 O   0  0  0  0  0  0  0  0  0  0  0  0
  -17.0707  -28.8626   10.7404 C   0  0  0  0  0  0  0  0  0  0  0  0
  -16.2686  -29.6913    9.7445 C   0  0  0  0  0  0  0  0  0  0  0  0
  -16.7353  -30.0908   12.8909 H   0  0  0  0  0  0  0  0  0  0  0  0
  -17.4134  -27.5319   10.0474 C   0  0  0  0  0  0  0  0  0  0  0  0
  -18.2545  -26.7986   10.6452 O   0  0  0  0  0  0  0  0  0  0  0  0
  -16.8219  -27.2684    8.9608 O   0  0  0  0  0  0  0  0  0  0  0  0
  -16.2130  -27.8813    8.5982 H   0  0  0  0  0  0  0  0  0  0  0  0
  -14.0704  -30.8889    9.7283 N   0  0  0  0  0  0  0  0  0  0  0  0
  -13.4139  -30.2711    9.3327 H   0  0  0  0  0  0  0  0  0  0  0  0
  -13.9333  -32.2626    9.4600 C   0  0  0  0  0  0  0  0  0  0  0  0
  -12.7188  -32.8931    9.4237 N   0  0  0  0  0  0  0  0  0  0  0  0
  -15.0208  -33.0840    9.2145 N   0  0  0  0  0  0  0  0  0  0  0  0
  -11.8936  -32.3817    9.5876 H   0  0  0  0  0  0  0  0  0  0  0  0
  -15.9316  -32.7102    9.2218 H   0  0  0  0  0  0  0  0  0  0  0  0
  -14.8832  -34.0417    9.0325 H   0  0  0  0  0  0  0  0  0  0  0  0
  -13.9708  -29.6592   12.7758 C   0  0  0  0  0  0  0  0  0  0  0  0
  -13.5194  -31.0315   12.7444 N   0  0  0  0  0  0  0  0  0  0  0  0
  -14.2754  -32.0726   13.2502 C   0  0  0  0  0  0  0  0  0  0  0  0
  -13.6922  -33.4019   12.8923 C   0  0  0  0  0  0  0  0  0  0  0  0
  -15.2919  -31.9842   13.9256 O   0  0  0  0  0  0  0  0  0  0  0  0
  -12.6408  -31.2325   12.3482 H   0  0  0  0  0  0  0  0  0  0  0  0
  -12.7980  -28.7656   13.1655 C   0  0  0  0  0  0  0  0  0  0  0  0
  -11.5168  -29.5652   13.3563 C   0  0  0  0  0  0  0  0  0  0  0  0
  -10.5438  -28.7839   14.2021 C   0  0  0  0  0  0  0  0  0  0  0  0
  -13.1350  -27.9553   14.4102 C   0  0  0  0  0  0  0  0  0  0  0  0
  -13.9434  -28.7742   15.4153 C   0  0  0  0  0  0  0  0  0  0  0  0
  1 12  1  0  0  0
  1  2  1  0  0  0
  1  6  1  0  0  0
 12 14  1  0  0  0
 14 15  2  0  0  0
 14 16  1  0  0  0
  2 20  1  0  0  0
  2  3  1  0  0  0
 20 26  1  0  0  0
 20 21  1  0  0  0
 26 27  1  0  0  0
 26 29  1  0  0  0
 27 28  1  0  0  0
 29 30  1  0  0  0
 21 22  1  0  0  0
 22 23  1  0  0  0
 22 24  2  0  0  0
  3  4  1  0  0  0
  3  5  1  0  0  0
  5  8  1  0  0  0
  5  6  1  0  0  0
  8  9  2  0  0  0
  8 10  1  0  0  0
 12 13  1  0  0  0
 15 17  1  0  0  0
 16 18  1  0  0  0
 16 19  1  0  0  0
 21 25  1  0  0  0
  4  7  1  0  0  0
 10 11  1  0  0  0
M  END
> <minimizedAffinity>
-6.22350

$$$$
3K37_BCZ_A_468


 30 30  0  0  0  0  0  0  0  0999 V2000
  -13.6064  -27.8069   13.0914 C   0  0  0  0  0  0  0  0  0  0  0  0
  -13.7614  -29.3231   13.1697 C   0  0  0  0  0  0  0  0  0  0  0  0
  -14.5807  -29.5116   14.4409 C   0  0  0  0  0  0  0  0  0  0  0  0
  -15.9780  -29.5456   14.0901 O   0  0  0  0  0  0  0  0  0  0  0  0
  -14.4185  -28.2792   15.3244 C   0  0  0  0  0  0  0  0  0  0  0  0
  -13.4455  -27.3930   14.5564 C   0  0  0  0  0  0  0  0  0  0  0  0
  -16.2210  -28.7163   13.6494 H   0  0  0  0  0  0  0  0  0  0  0  0
  -13.6948  -28.7431   16.6009 C   0  0  0  0  0  0  0  0  0  0  0  0
  -14.4167  -29.3203   17.4661 O   0  0  0  0  0  0  0  0  0  0  0  0
  -12.4498  -28.5335   16.6771 O   0  0  0  0  0  0  0  0  0  0  0  0
  -12.0049  -28.0951   15.9786 H   0  0  0  0  0  0  0  0  0  0  0  0
  -12.5161  -27.2986   12.2339 N   0  0  0  0  0  0  0  0  0  0  0  0
  -12.6788  -27.2354   11.2650 H   0  0  0  0  0  0  0  0  0  0  0  0
  -11.2591  -26.8998   12.7224 C   0  0  0  0  0  0  0  0  0  0  0  0
  -10.8389  -25.5970   12.7114 N   0  0  0  0  0  0  0  0  0  0  0  0
  -10.3500  -27.7980   13.2557 N   0  0  0  0  0  0  0  0  0  0  0  0
  -11.4250  -24.8938   12.3490 H   0  0  0  0  0  0  0  0  0  0  0  0
  -10.5733  -28.7557   13.3014 H   0  0  0  0  0  0  0  0  0  0  0  0
   -9.4805  -27.4788   13.5893 H   0  0  0  0  0  0  0  0  0  0  0  0
  -14.4025  -29.9743   11.9313 C   0  0  0  0  0  0  0  0  0  0  0  0
  -14.8258  -29.0484   10.9059 N   0  0  0  0  0  0  0  0  0  0  0  0
  -16.0484  -28.4043   10.9473 C   0  0  0  0  0  0  0  0  0  0  0  0
  -16.1460  -27.3393    9.9025 C   0  0  0  0  0  0  0  0  0  0  0  0
  -16.9793  -28.6394   11.7059 O   0  0  0  0  0  0  0  0  0  0  0  0
  -14.2212  -28.8697   10.1498 H   0  0  0  0  0  0  0  0  0  0  0  0
  -13.5643  -31.0724   11.2852 C   0  0  0  0  0  0  0  0  0  0  0  0
  -14.4121  -31.9981   10.4240 C   0  0  0  0  0  0  0  0  0  0  0  0
  -13.6615  -32.3641    9.1690 C   0  0  0  0  0  0  0  0  0  0  0  0
  -12.7970  -31.8516   12.3451 C   0  0  0  0  0  0  0  0  0  0  0  0
  -13.5714  -33.0833   12.8116 C   0  0  0  0  0  0  0  0  0  0  0  0
  1 12  1  0  0  0
  1  2  1  0  0  0
  1  6  1  0  0  0
 12 14  1  0  0  0
 14 15  2  0  0  0
 14 16  1  0  0  0
  2 20  1  0  0  0
  2  3  1  0  0  0
 20 26  1  0  0  0
 20 21  1  0  0  0
 26 27  1  0  0  0
 26 29  1  0  0  0
 27 28  1  0  0  0
 29 30  1  0  0  0
 21 22  1  0  0  0
 22 23  1  0  0  0
 22 24  2  0  0  0
  3  4  1  0  0  0
  3  5  1  0  0  0
  5  8  1  0  0  0
  5  6  1  0  0  0
  8  9  2  0  0  0
  8 10  1  0  0  0
 12 13  1  0  0  0
 15 17  1  0  0  0
 16 18  1  0  0  0
 16 19  1  0  0  0
 21 25  1  0  0  0
  4  7  1  0  0  0
 10 11  1  0  0  0
M  END
> <minimizedAffinity>
-6.18864

$$$$
3K37_BCZ_A_468


 30 30  0  0  0  0  0  0  0  0999 V2000
  -16.0634  -28.8471   11.2645 C   0  0  0  0  0  0  0  0  0  0  0  0
  -15.7817  -30.2998   10.8912 C   0  0  0  0  0  0  0  0  0  0  0  0
  -16.4515  -31.0726   12.0212 C   0  0  0  0  0  0  0  0  0  0  0  0
  -17.7984  -31.3976   11.6247 O   0  0  0  0  0  0  0  0  0  0  0  0
  -16.5993  -30.1562   13.2312 C   0  0  0  0  0  0  0  0  0  0  0  0
  -15.9537  -28.8479   12.7913 C   0  0  0  0  0  0  0  0  0  0  0  0
  -18.2861  -30.5805   11.4365 H   0  0  0  0  0  0  0  0  0  0  0  0
  -15.7127  -30.7457   14.3423 C   0  0  0  0  0  0  0  0  0  0  0  0
  -15.2455  -31.9014   14.1213 O   0  0  0  0  0  0  0  0  0  0  0  0
  -15.5055  -30.0325   15.3663 O   0  0  0  0  0  0  0  0  0  0  0  0
  -15.9001  -29.1854   15.4348 H   0  0  0  0  0  0  0  0  0  0  0  0
  -15.2034  -27.8251   10.6332 N   0  0  0  0  0  0  0  0  0  0  0  0
  -14.4156  -28.1295   10.1274 H   0  0  0  0  0  0  0  0  0  0  0  0
  -15.4458  -26.4421   10.7134 C   0  0  0  0  0  0  0  0  0  0  0  0
  -16.5324  -25.8453   10.1329 N   0  0  0  0  0  0  0  0  0  0  0  0
  -14.6020  -25.5778   11.3905 N   0  0  0  0  0  0  0  0  0  0  0  0
  -17.1831  -26.3882    9.6318 H   0  0  0  0  0  0  0  0  0  0  0  0
  -13.7964  -25.9254   11.8370 H   0  0  0  0  0  0  0  0  0  0  0  0
  -14.8077  -24.6156   11.4253 H   0  0  0  0  0  0  0  0  0  0  0  0
  -16.2737  -30.7175    9.4941 C   0  0  0  0  0  0  0  0  0  0  0  0
  -17.0226  -29.7062    8.7838 N   0  0  0  0  0  0  0  0  0  0  0  0
  -18.3978  -29.7577    8.6518 C   0  0  0  0  0  0  0  0  0  0  0  0
  -18.9444  -28.4895    8.0791 C   0  0  0  0  0  0  0  0  0  0  0  0
  -19.1299  -30.6970    8.9332 O   0  0  0  0  0  0  0  0  0  0  0  0
  -16.5354  -28.9525    8.3790 H   0  0  0  0  0  0  0  0  0  0  0  0
  -15.1858  -31.2598    8.5731 C   0  0  0  0  0  0  0  0  0  0  0  0
  -15.7295  -32.3066    7.6108 C   0  0  0  0  0  0  0  0  0  0  0  0
  -16.5621  -33.3136    8.3625 C   0  0  0  0  0  0  0  0  0  0  0  0
  -14.0218  -31.8086    9.3875 C   0  0  0  0  0  0  0  0  0  0  0  0
  -12.8702  -32.2622    8.4916 C   0  0  0  0  0  0  0  0  0  0  0  0
  1 12  1  0  0  0
  1  2  1  0  0  0
  1  6  1  0  0  0
 12 14  1  0  0  0
 14 15  2  0  0  0
 14 16  1  0  0  0
  2 20  1  0  0  0
  2  3  1  0  0  0
 20 26  1  0  0  0
 20 21  1  0  0  0
 26 27  1  0  0  0
 26 29  1  0  0  0
 27 28  1  0  0  0
 29 30  1  0  0  0
 21 22  1  0  0  0
 22 23  1  0  0  0
 22 24  2  0  0  0
  3  4  1  0  0  0
  3  5  1  0  0  0
  5  8  1  0  0  0
  5  6  1  0  0  0
  8  9  2  0  0  0
  8 10  1  0  0  0
 12 13  1  0  0  0
 15 17  1  0  0  0
 16 18  1  0  0  0
 16 19  1  0  0  0
 21 25  1  0  0  0
  4  7  1  0  0  0
 10 11  1  0  0  0
M  END
> <minimizedAffinity>
-5.94325

$$$$
3K37_BCZ_A_468


 30 30  0  0  0  0  0  0  0  0999 V2000
  -13.5471  -28.9567   14.3026 C   0  0  0  0  0  0  0  0  0  0  0  0
  -13.9208  -28.6507   12.8550 C   0  0  0  0  0  0  0  0  0  0  0  0
  -12.6003  -28.1756   12.2606 C   0  0  0  0  0  0  0  0  0  0  0  0
  -11.9209  -29.3062   11.6799 O   0  0  0  0  0  0  0  0  0  0  0  0
  -11.6913  -27.6966   13.3875 C   0  0  0  0  0  0  0  0  0  0  0  0
  -12.5363  -27.8593   14.6452 C   0  0  0  0  0  0  0  0  0  0  0  0
  -11.7639  -29.9755   12.3642 H   0  0  0  0  0  0  0  0  0  0  0  0
  -11.4839  -26.1865   13.1757 C   0  0  0  0  0  0  0  0  0  0  0  0
  -11.6410  -25.4585   14.1995 O   0  0  0  0  0  0  0  0  0  0  0  0
  -11.1574  -25.7971   12.0174 O   0  0  0  0  0  0  0  0  0  0  0  0
  -11.0664  -26.4189   11.3224 H   0  0  0  0  0  0  0  0  0  0  0  0
  -14.6607  -29.0264   15.2709 N   0  0  0  0  0  0  0  0  0  0  0  0
  -15.5802  -28.9554   14.9265 H   0  0  0  0  0  0  0  0  0  0  0  0
  -14.4824  -29.1884   16.6564 C   0  0  0  0  0  0  0  0  0  0  0  0
  -13.6346  -28.4040   17.3912 N   0  0  0  0  0  0  0  0  0  0  0  0
  -15.1556  -30.1550   17.3843 N   0  0  0  0  0  0  0  0  0  0  0  0
  -13.1168  -27.6919   16.9508 H   0  0  0  0  0  0  0  0  0  0  0  0
  -15.7852  -30.7621   16.9323 H   0  0  0  0  0  0  0  0  0  0  0  0
  -15.0047  -30.2352   18.3539 H   0  0  0  0  0  0  0  0  0  0  0  0
  -14.5462  -29.8268   12.0841 C   0  0  0  0  0  0  0  0  0  0  0  0
  -14.2953  -31.1310   12.6532 N   0  0  0  0  0  0  0  0  0  0  0  0
  -13.5158  -32.0799   12.0180 C   0  0  0  0  0  0  0  0  0  0  0  0
  -13.2275  -33.2439   12.9108 C   0  0  0  0  0  0  0  0  0  0  0  0
  -13.0973  -32.0396   10.8688 O   0  0  0  0  0  0  0  0  0  0  0  0
  -14.6942  -31.3522   13.5257 H   0  0  0  0  0  0  0  0  0  0  0  0
  -16.0410  -29.6877   11.8159 C   0  0  0  0  0  0  0  0  0  0  0  0
  -16.7791  -31.0012   12.0332 C   0  0  0  0  0  0  0  0  0  0  0  0
  -17.1115  -31.6306   10.7044 C   0  0  0  0  0  0  0  0  0  0  0  0
  -16.2835  -29.1421   10.4149 C   0  0  0  0  0  0  0  0  0  0  0  0
  -16.3959  -27.6183   10.4141 C   0  0  0  0  0  0  0  0  0  0  0  0
  1 12  1  0  0  0
  1  2  1  0  0  0
  1  6  1  0  0  0
 12 14  1  0  0  0
 14 15  2  0  0  0
 14 16  1  0  0  0
  2 20  1  0  0  0
  2  3  1  0  0  0
 20 26  1  0  0  0
 20 21  1  0  0  0
 26 27  1  0  0  0
 26 29  1  0  0  0
 27 28  1  0  0  0
 29 30  1  0  0  0
 21 22  1  0  0  0
 22 23  1  0  0  0
 22 24  2  0  0  0
  3  4  1  0  0  0
  3  5  1  0  0  0
  5  8  1  0  0  0
  5  6  1  0  0  0
  8  9  2  0  0  0
  8 10  1  0  0  0
 12 13  1  0  0  0
 15 17  1  0  0  0
 16 18  1  0  0  0
 16 19  1  0  0  0
 21 25  1  0  0  0
  4  7  1  0  0  0
 10 11  1  0  0  0
M  END
> <minimizedAffinity>
-5.94206

$$$$
