4A6C_QG9_B_1200


 58 63  0  0  0  0  0  0  0  0999 V2000
   15.7313   23.9827    6.7460 C   0  0  0  0  0  0  0  0  0  0  0  0
   14.6305   24.2018    5.7476 C   0  0  0  0  0  0  0  0  0  0  0  0
   13.2045   23.9758    6.3191 C   0  0  0  0  0  0  0  0  0  0  0  0
   10.7248   24.1522    6.1992 C   0  0  0  0  0  0  0  0  0  0  0  0
   10.4980   23.1734    6.9278 O   0  0  0  0  0  0  0  0  0  0  0  0
   11.9689   25.7930    4.9929 C   0  0  0  0  0  0  0  0  0  0  0  0
   10.5225   26.1347    5.1057 C   0  0  0  0  0  0  0  0  0  0  0  0
    9.9169   25.1996    6.0229 N   0  0  0  0  0  0  0  0  0  0  0  0
   12.5783   26.6737    5.9020 O   0  0  0  0  0  0  0  0  0  0  0  0
   12.0181   24.2673    5.3552 C   0  0  0  0  0  0  0  0  0  0  0  0
   12.1479   26.5938    6.7675 H   0  0  0  0  0  0  0  0  0  0  0  0
    8.6014   25.4337    6.6533 C   0  0  0  0  0  0  0  0  0  0  0  0
    8.4334   26.7136    7.4553 C   0  0  0  0  0  0  0  0  0  0  0  0
    7.0780   27.1358    7.3916 C   0  0  0  0  0  0  0  0  0  0  0  0
    6.2621   26.1891    6.5571 C   0  0  0  0  0  0  0  0  0  0  0  0
    7.3342   25.4648    5.7130 C   0  0  0  0  0  0  0  0  0  0  0  0
    7.4862   26.2580    4.5320 O   0  0  0  0  0  0  0  0  0  0  0  0
    6.6278   28.3340    8.0603 C   0  0  0  0  0  0  0  0  0  0  0  0
    7.6001   29.1111    8.8183 C   0  0  0  0  0  0  0  0  0  0  0  0
    8.9966   28.6843    8.8900 C   0  0  0  0  0  0  0  0  0  0  0  0
    9.4278   27.4756    8.2098 C   0  0  0  0  0  0  0  0  0  0  0  0
    7.6823   27.1747    4.7812 H   0  0  0  0  0  0  0  0  0  0  0  0
   12.0658   23.2378    4.0691 C   0  0  0  0  0  0  0  0  0  0  0  0
   10.9075   23.5139    2.9941 C   0  0  0  0  0  0  0  0  0  0  0  0
   10.6582   24.5532    1.9987 C   0  0  0  0  0  0  0  0  0  0  0  0
    9.4920   24.5215    1.1528 C   0  0  0  0  0  0  0  0  0  0  0  0
    8.5392   23.4417    1.2838 C   0  0  0  0  0  0  0  0  0  0  0  0
    8.7631   22.3940    2.2657 C   0  0  0  0  0  0  0  0  0  0  0  0
    9.9328   22.4213    3.1167 C   0  0  0  0  0  0  0  0  0  0  0  0
   15.9398   22.6108    7.1712 N   0  0  0  0  0  0  0  0  0  0  0  0
   16.3435   21.8155    6.0918 N   0  0  0  0  0  0  0  0  0  0  0  0
   15.6116   20.8153    5.5676 C   0  0  0  0  0  0  0  0  0  0  0  0
   14.4897   20.4867    5.9825 O   0  0  0  0  0  0  0  0  0  0  0  0
   17.2226   22.0006    5.6890 H   0  0  0  0  0  0  0  0  0  0  0  0
   16.3513   20.1233    4.4210 C   0  0  0  0  0  0  0  0  0  0  0  0
   17.0720   19.0544    5.1589 N   0  0  0  0  0  0  0  0  0  0  0  0
   18.4052   19.1617    5.5593 C   0  0  0  0  0  0  0  0  0  0  0  0
   19.1239   20.1447    5.3365 O   0  0  0  0  0  0  0  0  0  0  0  0
   16.5843   18.2275    5.3769 H   0  0  0  0  0  0  0  0  0  0  0  0
   18.7726   18.0414    6.2217 O   0  0  0  0  0  0  0  0  0  0  0  0
   20.1528   17.8086    6.5171 C   0  0  0  0  0  0  0  0  0  0  0  0
   15.5502   19.5521    3.1771 C   0  0  0  0  0  0  0  0  0  0  0  0
   14.5430   20.5576    2.5684 C   0  0  0  0  0  0  0  0  0  0  0  0
   16.5431   19.0939    2.0829 C   0  0  0  0  0  0  0  0  0  0  0  0
   14.7346   18.2935    3.5951 C   0  0  0  0  0  0  0  0  0  0  0  0
   16.9589   22.5761    8.2461 C   0  0  0  0  0  0  0  0  0  0  0  0
   17.4865   18.6890   10.1597 C   0  0  0  0  0  0  0  0  0  0  0  0
   18.6342   19.3964    9.5710 C   0  0  0  0  0  0  0  0  0  0  0  0
   18.4924   20.6879    8.9290 C   0  0  0  0  0  0  0  0  0  0  0  0
   17.2020   21.3241    8.8519 C   0  0  0  0  0  0  0  0  0  0  0  0
   16.0379   20.6640    9.4216 C   0  0  0  0  0  0  0  0  0  0  0  0
   16.1769   19.3636   10.0668 C   0  0  0  0  0  0  0  0  0  0  0  0
   17.6550   17.3279   10.8336 C   0  0  0  0  0  0  0  0  0  0  0  0
   17.8750   16.2085    9.9913 C   0  0  0  0  0  0  0  0  0  0  0  0
   18.0392   14.9342   10.5309 C   0  0  0  0  0  0  0  0  0  0  0  0
   17.9907   14.6980   11.9534 N   0  0  0  0  0  0  0  0  0  0  0  0
   17.7655   15.8261   12.8424 C   0  0  0  0  0  0  0  0  0  0  0  0
   17.5933   17.1466   12.2878 C   0  0  0  0  0  0  0  0  0  0  0  0
  4  5  2  0  0  0
  4  8  1  0  0  0
  4 10  1  0  0  0
  6  7  1  0  0  0
  6  9  1  0  0  0
  6 10  1  0  0  0
  7  8  1  0  0  0
  8 12  1  0  0  0
 12 13  1  0  0  0
 12 16  1  0  0  0
 13 14  1  0  0  0
 13 21  2  0  0  0
 14 15  1  0  0  0
 14 18  2  0  0  0
 15 16  1  0  0  0
 16 17  1  0  0  0
 18 19  1  0  0  0
 19 20  2  0  0  0
 20 21  1  0  0  0
  2  1  1  0  0  0
  2  3  1  0  0  0
  1 30  1  0  0  0
 23 24  1  0  0  0
 23 10  1  0  0  0
 24 29  2  0  0  0
 24 25  1  0  0  0
 29 28  1  0  0  0
 28 27  2  0  0  0
 27 26  1  0  0  0
 26 25  2  0  0  0
 53 47  1  0  0  0
 53 58  1  0  0  0
 53 54  2  0  0  0
 47 48  1  0  0  0
 47 52  2  0  0  0
 48 49  2  0  0  0
 49 50  1  0  0  0
 50 51  2  0  0  0
 50 46  1  0  0  0
 51 52  1  0  0  0
 46 30  1  0  0  0
 30 31  1  0  0  0
 31 32  1  0  0  0
 32 35  1  0  0  0
 32 33  2  0  0  0
 35 36  1  0  0  0
 35 42  1  0  0  0
 36 37  1  0  0  0
 37 40  1  0  0  0
 37 38  2  0  0  0
 40 41  1  0  0  0
 42 43  1  0  0  0
 42 44  1  0  0  0
 42 45  1  0  0  0
 58 57  2  0  0  0
 57 56  1  0  0  0
 56 55  2  0  0  0
 55 54  1  0  0  0
 10  3  1  0  0  0
 17 22  1  0  0  0
  9 11  1  0  0  0
 31 34  1  0  0  0
 36 39  1  0  0  0
M  END
> <minimizedAffinity>
-11.16241

$$$$
4A6C_QG9_B_1200


 58 63  0  0  0  0  0  0  0  0999 V2000
   15.5832   23.8495    6.9234 C   0  0  0  0  0  0  0  0  0  0  0  0
   14.2008   24.3865    7.1630 C   0  0  0  0  0  0  0  0  0  0  0  0
   13.3377   24.5064    5.8778 C   0  0  0  0  0  0  0  0  0  0  0  0
   11.1847   24.9668    4.7171 C   0  0  0  0  0  0  0  0  0  0  0  0
   11.6018   25.9395    4.0688 O   0  0  0  0  0  0  0  0  0  0  0  0
   11.2074   23.1177    6.2256 C   0  0  0  0  0  0  0  0  0  0  0  0
    9.9878   23.1478    5.3692 C   0  0  0  0  0  0  0  0  0  0  0  0
   10.1775   24.1657    4.3642 N   0  0  0  0  0  0  0  0  0  0  0  0
   11.9648   22.0741    5.6684 O   0  0  0  0  0  0  0  0  0  0  0  0
   11.7961   24.5649    6.0820 C   0  0  0  0  0  0  0  0  0  0  0  0
   12.0694   22.2234    4.7157 H   0  0  0  0  0  0  0  0  0  0  0  0
    9.3557   24.2448    3.1390 C   0  0  0  0  0  0  0  0  0  0  0  0
    8.6155   25.5470    2.8820 C   0  0  0  0  0  0  0  0  0  0  0  0
    8.4819   25.7452    1.4811 C   0  0  0  0  0  0  0  0  0  0  0  0
    9.1131   24.6143    0.7190 C   0  0  0  0  0  0  0  0  0  0  0  0
   10.0761   23.9964    1.7569 C   0  0  0  0  0  0  0  0  0  0  0  0
   11.3117   24.6989    1.5927 O   0  0  0  0  0  0  0  0  0  0  0  0
    7.8220   26.9115    0.9428 C   0  0  0  0  0  0  0  0  0  0  0  0
    7.2815   27.8934    1.8743 C   0  0  0  0  0  0  0  0  0  0  0  0
    7.4137   27.6978    3.3171 C   0  0  0  0  0  0  0  0  0  0  0  0
    8.0813   26.5173    3.8370 C   0  0  0  0  0  0  0  0  0  0  0  0
   11.1536   25.6530    1.6675 H   0  0  0  0  0  0  0  0  0  0  0  0
   11.4251   25.6025    7.3075 C   0  0  0  0  0  0  0  0  0  0  0  0
    9.8585   25.9344    7.4033 C   0  0  0  0  0  0  0  0  0  0  0  0
    8.6587   25.1496    7.6824 C   0  0  0  0  0  0  0  0  0  0  0  0
    7.3508   25.7543    7.7010 C   0  0  0  0  0  0  0  0  0  0  0  0
    7.2102   27.1692    7.4378 C   0  0  0  0  0  0  0  0  0  0  0  0
    8.3876   27.9738    7.1580 C   0  0  0  0  0  0  0  0  0  0  0  0
    9.7027   27.3713    7.1389 C   0  0  0  0  0  0  0  0  0  0  0  0
   15.7963   22.4598    7.2833 N   0  0  0  0  0  0  0  0  0  0  0  0
   16.2351   21.7247    6.1753 N   0  0  0  0  0  0  0  0  0  0  0  0
   15.4960   20.8014    5.5334 C   0  0  0  0  0  0  0  0  0  0  0  0
   14.3357   20.4992    5.8514 O   0  0  0  0  0  0  0  0  0  0  0  0
   17.1462   21.8949    5.8434 H   0  0  0  0  0  0  0  0  0  0  0  0
   16.2788   20.1576    4.3872 C   0  0  0  0  0  0  0  0  0  0  0  0
   17.0201   19.0972    5.1168 N   0  0  0  0  0  0  0  0  0  0  0  0
   18.3399   19.2407    5.5489 C   0  0  0  0  0  0  0  0  0  0  0  0
   19.0287   20.2525    5.3641 O   0  0  0  0  0  0  0  0  0  0  0  0
   16.5568   18.2493    5.3055 H   0  0  0  0  0  0  0  0  0  0  0  0
   18.7317   18.1186    6.1941 O   0  0  0  0  0  0  0  0  0  0  0  0
   20.1249   17.8571    6.3869 C   0  0  0  0  0  0  0  0  0  0  0  0
   15.5196   19.5870    3.1170 C   0  0  0  0  0  0  0  0  0  0  0  0
   14.5552   20.6029    2.4579 C   0  0  0  0  0  0  0  0  0  0  0  0
   16.5484   19.1014    2.0688 C   0  0  0  0  0  0  0  0  0  0  0  0
   14.6664   18.3464    3.5132 C   0  0  0  0  0  0  0  0  0  0  0  0
   16.7891   22.3802    8.3802 C   0  0  0  0  0  0  0  0  0  0  0  0
   17.4683   18.5168   10.2941 C   0  0  0  0  0  0  0  0  0  0  0  0
   16.1303   19.1281   10.2941 C   0  0  0  0  0  0  0  0  0  0  0  0
   15.8719   20.4090    9.6674 C   0  0  0  0  0  0  0  0  0  0  0  0
   16.9367   21.1275    9.0149 C   0  0  0  0  0  0  0  0  0  0  0  0
   18.2765   20.5622    8.9874 C   0  0  0  0  0  0  0  0  0  0  0  0
   18.5401   19.2742    9.6186 C   0  0  0  0  0  0  0  0  0  0  0  0
   17.7222   17.1647   10.9592 C   0  0  0  0  0  0  0  0  0  0  0  0
   16.6515   16.5883   11.6890 C   0  0  0  0  0  0  0  0  0  0  0  0
   16.8049   15.3567   12.3229 C   0  0  0  0  0  0  0  0  0  0  0  0
   18.0457   14.6223   12.2686 N   0  0  0  0  0  0  0  0  0  0  0  0
   19.1618   15.1883   11.5287 C   0  0  0  0  0  0  0  0  0  0  0  0
   19.0076   16.4637   10.8726 C   0  0  0  0  0  0  0  0  0  0  0  0
  4  5  2  0  0  0
  4  8  1  0  0  0
  4 10  1  0  0  0
  6  7  1  0  0  0
  6  9  1  0  0  0
  6 10  1  0  0  0
  7  8  1  0  0  0
  8 12  1  0  0  0
 12 13  1  0  0  0
 12 16  1  0  0  0
 13 14  1  0  0  0
 13 21  2  0  0  0
 14 15  1  0  0  0
 14 18  2  0  0  0
 15 16  1  0  0  0
 16 17  1  0  0  0
 18 19  1  0  0  0
 19 20  2  0  0  0
 20 21  1  0  0  0
  2  1  1  0  0  0
  2  3  1  0  0  0
  1 30  1  0  0  0
 23 24  1  0  0  0
 23 10  1  0  0  0
 24 29  2  0  0  0
 24 25  1  0  0  0
 29 28  1  0  0  0
 28 27  2  0  0  0
 27 26  1  0  0  0
 26 25  2  0  0  0
 53 47  1  0  0  0
 53 58  1  0  0  0
 53 54  2  0  0  0
 47 48  1  0  0  0
 47 52  2  0  0  0
 48 49  2  0  0  0
 49 50  1  0  0  0
 50 51  2  0  0  0
 50 46  1  0  0  0
 51 52  1  0  0  0
 46 30  1  0  0  0
 30 31  1  0  0  0
 31 32  1  0  0  0
 32 35  1  0  0  0
 32 33  2  0  0  0
 35 36  1  0  0  0
 35 42  1  0  0  0
 36 37  1  0  0  0
 37 40  1  0  0  0
 37 38  2  0  0  0
 40 41  1  0  0  0
 42 43  1  0  0  0
 42 44  1  0  0  0
 42 45  1  0  0  0
 58 57  2  0  0  0
 57 56  1  0  0  0
 56 55  2  0  0  0
 55 54  1  0  0  0
 10  3  1  0  0  0
 17 22  1  0  0  0
  9 11  1  0  0  0
 31 34  1  0  0  0
 36 39  1  0  0  0
M  END
> <minimizedAffinity>
-10.51779

$$$$
4A6C_QG9_B_1200


 58 63  0  0  0  0  0  0  0  0999 V2000
   10.2705   23.4267    6.9851 C   0  0  0  0  0  0  0  0  0  0  0  0
   10.9786   23.0114    5.7270 C   0  0  0  0  0  0  0  0  0  0  0  0
   12.0837   21.9429    5.9469 C   0  0  0  0  0  0  0  0  0  0  0  0
   14.3469   21.1108    5.3308 C   0  0  0  0  0  0  0  0  0  0  0  0
   14.3035   20.0984    6.0474 O   0  0  0  0  0  0  0  0  0  0  0  0
   13.6385   23.1392    4.2920 C   0  0  0  0  0  0  0  0  0  0  0  0
   14.8617   22.5658    3.6620 C   0  0  0  0  0  0  0  0  0  0  0  0
   15.0724   21.2517    4.2195 N   0  0  0  0  0  0  0  0  0  0  0  0
   12.6313   22.8534    3.3554 O   0  0  0  0  0  0  0  0  0  0  0  0
   13.5471   22.3930    5.6691 C   0  0  0  0  0  0  0  0  0  0  0  0
   12.6454   21.9067    3.1443 H   0  0  0  0  0  0  0  0  0  0  0  0
   15.9600   20.2493    3.5949 C   0  0  0  0  0  0  0  0  0  0  0  0
   17.1086   19.7182    4.4364 C   0  0  0  0  0  0  0  0  0  0  0  0
   17.4017   18.3836    4.0461 C   0  0  0  0  0  0  0  0  0  0  0  0
   16.4865   17.9370    2.9410 C   0  0  0  0  0  0  0  0  0  0  0  0
   15.3001   18.9192    3.0601 C   0  0  0  0  0  0  0  0  0  0  0  0
   14.3849   18.2994    3.9687 O   0  0  0  0  0  0  0  0  0  0  0  0
   18.4499   17.6227    4.6846 C   0  0  0  0  0  0  0  0  0  0  0  0
   19.2180   18.2583    5.7477 C   0  0  0  0  0  0  0  0  0  0  0  0
   18.9240   19.6311    6.1557 C   0  0  0  0  0  0  0  0  0  0  0  0
   17.8652   20.3782    5.4998 C   0  0  0  0  0  0  0  0  0  0  0  0
   14.8462   18.0805    4.7934 H   0  0  0  0  0  0  0  0  0  0  0  0
   14.1405   23.2241    6.9627 C   0  0  0  0  0  0  0  0  0  0  0  0
   15.1928   22.3786    7.8295 C   0  0  0  0  0  0  0  0  0  0  0  0
   15.1145   21.1672    8.6417 C   0  0  0  0  0  0  0  0  0  0  0  0
   16.2722   20.6366    9.3161 C   0  0  0  0  0  0  0  0  0  0  0  0
   17.5457   21.3106    9.1943 C   0  0  0  0  0  0  0  0  0  0  0  0
   17.6520   22.5174    8.3917 C   0  0  0  0  0  0  0  0  0  0  0  0
   16.4926   23.0535    7.7123 C   0  0  0  0  0  0  0  0  0  0  0  0
    9.6628   24.7445    6.9667 N   0  0  0  0  0  0  0  0  0  0  0  0
    9.2783   25.0927    5.6661 N   0  0  0  0  0  0  0  0  0  0  0  0
    9.9226   25.9889    4.8963 C   0  0  0  0  0  0  0  0  0  0  0  0
   10.9367   26.6074    5.2537 O   0  0  0  0  0  0  0  0  0  0  0  0
    8.4827   24.6520    5.2894 H   0  0  0  0  0  0  0  0  0  0  0  0
    9.2287   26.1647    3.5440 C   0  0  0  0  0  0  0  0  0  0  0  0
    8.9041   24.7539    3.2116 N   0  0  0  0  0  0  0  0  0  0  0  0
    9.1484   24.1831    1.9611 C   0  0  0  0  0  0  0  0  0  0  0  0
    9.6480   24.7880    1.0035 O   0  0  0  0  0  0  0  0  0  0  0  0
    8.4954   24.1922    3.9092 H   0  0  0  0  0  0  0  0  0  0  0  0
    8.7634   22.8868    1.9698 O   0  0  0  0  0  0  0  0  0  0  0  0
    8.5109   22.2269    3.2136 C   0  0  0  0  0  0  0  0  0  0  0  0
    7.9662   27.1147    3.4066 C   0  0  0  0  0  0  0  0  0  0  0  0
    7.8871   28.2094    4.4982 C   0  0  0  0  0  0  0  0  0  0  0  0
    7.9641   27.7809    2.0104 C   0  0  0  0  0  0  0  0  0  0  0  0
    6.6541   26.2825    3.5061 C   0  0  0  0  0  0  0  0  0  0  0  0
    8.4901   24.7604    7.8721 C   0  0  0  0  0  0  0  0  0  0  0  0
    5.8787   28.2429    7.5506 C   0  0  0  0  0  0  0  0  0  0  0  0
    5.4714   26.9462    6.9876 C   0  0  0  0  0  0  0  0  0  0  0  0
    6.3151   25.7714    7.0780 C   0  0  0  0  0  0  0  0  0  0  0  0
    7.5952   25.8440    7.7350 C   0  0  0  0  0  0  0  0  0  0  0  0
    8.0404   27.1041    8.3088 C   0  0  0  0  0  0  0  0  0  0  0  0
    7.1944   28.2886    8.2181 C   0  0  0  0  0  0  0  0  0  0  0  0
    4.9756   29.4711    7.4468 C   0  0  0  0  0  0  0  0  0  0  0  0
    3.7962   29.3465    6.6693 C   0  0  0  0  0  0  0  0  0  0  0  0
    2.9212   30.4220    6.5277 C   0  0  0  0  0  0  0  0  0  0  0  0
    3.1738   31.6963    7.1554 N   0  0  0  0  0  0  0  0  0  0  0  0
    4.3756   31.8547    7.9580 C   0  0  0  0  0  0  0  0  0  0  0  0
    5.2847   30.7445    8.1058 C   0  0  0  0  0  0  0  0  0  0  0  0
  4  5  2  0  0  0
  4  8  1  0  0  0
  4 10  1  0  0  0
  6  7  1  0  0  0
  6  9  1  0  0  0
  6 10  1  0  0  0
  7  8  1  0  0  0
  8 12  1  0  0  0
 12 13  1  0  0  0
 12 16  1  0  0  0
 13 14  1  0  0  0
 13 21  2  0  0  0
 14 15  1  0  0  0
 14 18  2  0  0  0
 15 16  1  0  0  0
 16 17  1  0  0  0
 18 19  1  0  0  0
 19 20  2  0  0  0
 20 21  1  0  0  0
  2  1  1  0  0  0
  2  3  1  0  0  0
  1 30  1  0  0  0
 23 24  1  0  0  0
 23 10  1  0  0  0
 24 29  2  0  0  0
 24 25  1  0  0  0
 29 28  1  0  0  0
 28 27  2  0  0  0
 27 26  1  0  0  0
 26 25  2  0  0  0
 53 47  1  0  0  0
 53 58  1  0  0  0
 53 54  2  0  0  0
 47 48  1  0  0  0
 47 52  2  0  0  0
 48 49  2  0  0  0
 49 50  1  0  0  0
 50 51  2  0  0  0
 50 46  1  0  0  0
 51 52  1  0  0  0
 46 30  1  0  0  0
 30 31  1  0  0  0
 31 32  1  0  0  0
 32 35  1  0  0  0
 32 33  2  0  0  0
 35 36  1  0  0  0
 35 42  1  0  0  0
 36 37  1  0  0  0
 37 40  1  0  0  0
 37 38  2  0  0  0
 40 41  1  0  0  0
 42 43  1  0  0  0
 42 44  1  0  0  0
 42 45  1  0  0  0
 58 57  2  0  0  0
 57 56  1  0  0  0
 56 55  2  0  0  0
 55 54  1  0  0  0
 10  3  1  0  0  0
 17 22  1  0  0  0
  9 11  1  0  0  0
 31 34  1  0  0  0
 36 39  1  0  0  0
M  END
> <minimizedAffinity>
-10.19878

$$$$
4A6C_QG9_B_1200


 58 63  0  0  0  0  0  0  0  0999 V2000
   12.7429   22.2744    5.6297 C   0  0  0  0  0  0  0  0  0  0  0  0
   12.5356   23.7081    6.0276 C   0  0  0  0  0  0  0  0  0  0  0  0
   11.0460   24.1012    6.2217 C   0  0  0  0  0  0  0  0  0  0  0  0
    9.0104   25.3641    5.5464 C   0  0  0  0  0  0  0  0  0  0  0  0
    8.3305   24.3621    5.2742 O   0  0  0  0  0  0  0  0  0  0  0  0
   10.8803   26.6622    6.2633 C   0  0  0  0  0  0  0  0  0  0  0  0
    9.6289   27.4648    6.1556 C   0  0  0  0  0  0  0  0  0  0  0  0
    8.5353   26.5515    5.9275 N   0  0  0  0  0  0  0  0  0  0  0  0
   11.0457   26.5105    7.6500 O   0  0  0  0  0  0  0  0  0  0  0  0
   10.5560   25.3605    5.4497 C   0  0  0  0  0  0  0  0  0  0  0  0
   10.2302   26.1542    8.0358 H   0  0  0  0  0  0  0  0  0  0  0  0
    7.1207   26.9311    6.1216 C   0  0  0  0  0  0  0  0  0  0  0  0
    6.8230   27.9872    7.1730 C   0  0  0  0  0  0  0  0  0  0  0  0
    5.6650   28.7181    6.7930 C   0  0  0  0  0  0  0  0  0  0  0  0
    5.1203   28.2143    5.4862 C   0  0  0  0  0  0  0  0  0  0  0  0
    6.3317   27.4802    4.8698 C   0  0  0  0  0  0  0  0  0  0  0  0
    7.0304   28.4722    4.1116 O   0  0  0  0  0  0  0  0  0  0  0  0
    5.1507   29.7949    7.6063 C   0  0  0  0  0  0  0  0  0  0  0  0
    5.8459   30.1201    8.8453 C   0  0  0  0  0  0  0  0  0  0  0  0
    7.0377   29.3735    9.2447 C   0  0  0  0  0  0  0  0  0  0  0  0
    7.5377   28.2940    8.4115 C   0  0  0  0  0  0  0  0  0  0  0  0
    7.2319   29.2316    4.6806 H   0  0  0  0  0  0  0  0  0  0  0  0
   11.1248   25.3348    3.9031 C   0  0  0  0  0  0  0  0  0  0  0  0
   10.3510   24.2918    2.9614 C   0  0  0  0  0  0  0  0  0  0  0  0
   10.2558   22.8354    2.9050 C   0  0  0  0  0  0  0  0  0  0  0  0
    9.4503   22.1713    1.9117 C   0  0  0  0  0  0  0  0  0  0  0  0
    8.7158   22.9539    0.9425 C   0  0  0  0  0  0  0  0  0  0  0  0
    8.7921   24.4047    0.9764 C   0  0  0  0  0  0  0  0  0  0  0  0
    9.5989   25.0759    1.9722 C   0  0  0  0  0  0  0  0  0  0  0  0
   13.6345   21.5028    6.4758 N   0  0  0  0  0  0  0  0  0  0  0  0
   14.5446   20.7749    5.6995 N   0  0  0  0  0  0  0  0  0  0  0  0
   15.3632   21.3162    4.7787 C   0  0  0  0  0  0  0  0  0  0  0  0
   15.4054   22.5278    4.5159 O   0  0  0  0  0  0  0  0  0  0  0  0
   14.5887   19.8010    5.8367 H   0  0  0  0  0  0  0  0  0  0  0  0
   16.2073   20.2461    4.0837 C   0  0  0  0  0  0  0  0  0  0  0  0
   16.7569   19.5191    5.2567 N   0  0  0  0  0  0  0  0  0  0  0  0
   18.0980   19.5808    5.6399 C   0  0  0  0  0  0  0  0  0  0  0  0
   18.9647   20.2336    5.0441 O   0  0  0  0  0  0  0  0  0  0  0  0
   16.1436   18.9650    5.7916 H   0  0  0  0  0  0  0  0  0  0  0  0
   18.2891   18.8308    6.7489 O   0  0  0  0  0  0  0  0  0  0  0  0
   19.0790   17.6404    6.6766 C   0  0  0  0  0  0  0  0  0  0  0  0
   15.5477   19.2624    3.0289 C   0  0  0  0  0  0  0  0  0  0  0  0
   14.4092   19.9070    2.2015 C   0  0  0  0  0  0  0  0  0  0  0  0
   16.6345   18.7196    2.0711 C   0  0  0  0  0  0  0  0  0  0  0  0
   14.9355   18.0284    3.7544 C   0  0  0  0  0  0  0  0  0  0  0  0
   14.3551   22.4142    7.3951 C   0  0  0  0  0  0  0  0  0  0  0  0
   18.0678   21.0293    9.2248 C   0  0  0  0  0  0  0  0  0  0  0  0
   16.8241   20.2585    9.3774 C   0  0  0  0  0  0  0  0  0  0  0  0
   15.5755   20.6910    8.7824 C   0  0  0  0  0  0  0  0  0  0  0  0
   15.5200   21.9064    8.0107 C   0  0  0  0  0  0  0  0  0  0  0  0
   16.7245   22.7013    7.8305 C   0  0  0  0  0  0  0  0  0  0  0  0
   17.9823   22.2697    8.4294 C   0  0  0  0  0  0  0  0  0  0  0  0
   19.3757   20.5574    9.8587 C   0  0  0  0  0  0  0  0  0  0  0  0
   20.3762   21.5357   10.0888 C   0  0  0  0  0  0  0  0  0  0  0  0
   21.5957   21.1837   10.6644 C   0  0  0  0  0  0  0  0  0  0  0  0
   21.8932   19.8241   11.0450 N   0  0  0  0  0  0  0  0  0  0  0  0
   20.8873   18.7988   10.8205 C   0  0  0  0  0  0  0  0  0  0  0  0
   19.6244   19.1587   10.2234 C   0  0  0  0  0  0  0  0  0  0  0  0
  4  5  2  0  0  0
  4  8  1  0  0  0
  4 10  1  0  0  0
  6  7  1  0  0  0
  6  9  1  0  0  0
  6 10  1  0  0  0
  7  8  1  0  0  0
  8 12  1  0  0  0
 12 13  1  0  0  0
 12 16  1  0  0  0
 13 14  1  0  0  0
 13 21  2  0  0  0
 14 15  1  0  0  0
 14 18  2  0  0  0
 15 16  1  0  0  0
 16 17  1  0  0  0
 18 19  1  0  0  0
 19 20  2  0  0  0
 20 21  1  0  0  0
  2  1  1  0  0  0
  2  3  1  0  0  0
  1 30  1  0  0  0
 23 24  1  0  0  0
 23 10  1  0  0  0
 24 29  2  0  0  0
 24 25  1  0  0  0
 29 28  1  0  0  0
 28 27  2  0  0  0
 27 26  1  0  0  0
 26 25  2  0  0  0
 53 47  1  0  0  0
 53 58  1  0  0  0
 53 54  2  0  0  0
 47 48  1  0  0  0
 47 52  2  0  0  0
 48 49  2  0  0  0
 49 50  1  0  0  0
 50 51  2  0  0  0
 50 46  1  0  0  0
 51 52  1  0  0  0
 46 30  1  0  0  0
 30 31  1  0  0  0
 31 32  1  0  0  0
 32 35  1  0  0  0
 32 33  2  0  0  0
 35 36  1  0  0  0
 35 42  1  0  0  0
 36 37  1  0  0  0
 37 40  1  0  0  0
 37 38  2  0  0  0
 40 41  1  0  0  0
 42 43  1  0  0  0
 42 44  1  0  0  0
 42 45  1  0  0  0
 58 57  2  0  0  0
 57 56  1  0  0  0
 56 55  2  0  0  0
 55 54  1  0  0  0
 10  3  1  0  0  0
 17 22  1  0  0  0
  9 11  1  0  0  0
 31 34  1  0  0  0
 36 39  1  0  0  0
M  END
> <minimizedAffinity>
-10.11909

$$$$
4A6C_QG9_B_1200


 58 63  0  0  0  0  0  0  0  0999 V2000
   12.8021   22.1782    5.8399 C   0  0  0  0  0  0  0  0  0  0  0  0
   12.6108   23.6061    6.2656 C   0  0  0  0  0  0  0  0  0  0  0  0
   11.1238   24.0426    6.3642 C   0  0  0  0  0  0  0  0  0  0  0  0
    9.1352   25.2158    5.4352 C   0  0  0  0  0  0  0  0  0  0  0  0
    8.4764   24.1863    5.2198 O   0  0  0  0  0  0  0  0  0  0  0  0
   10.9515   26.5936    6.1408 C   0  0  0  0  0  0  0  0  0  0  0  0
    9.7087   27.3715    5.8724 C   0  0  0  0  0  0  0  0  0  0  0  0
    8.6340   26.4311    5.6648 N   0  0  0  0  0  0  0  0  0  0  0  0
   11.0253   26.5811    7.5436 O   0  0  0  0  0  0  0  0  0  0  0  0
   10.6838   25.2153    5.4408 C   0  0  0  0  0  0  0  0  0  0  0  0
   10.1867   26.2580    7.9086 H   0  0  0  0  0  0  0  0  0  0  0  0
    7.2091   26.8165    5.7272 C   0  0  0  0  0  0  0  0  0  0  0  0
    6.2964   26.2814    4.6363 C   0  0  0  0  0  0  0  0  0  0  0  0
    4.9834   26.1216    5.1558 C   0  0  0  0  0  0  0  0  0  0  0  0
    4.9279   26.5274    6.6017 C   0  0  0  0  0  0  0  0  0  0  0  0
    6.4082   26.4498    7.0367 C   0  0  0  0  0  0  0  0  0  0  0  0
    6.5980   25.1084    7.4969 O   0  0  0  0  0  0  0  0  0  0  0  0
    3.9036   25.6197    4.3388 C   0  0  0  0  0  0  0  0  0  0  0  0
    4.1858   25.2808    2.9497 C   0  0  0  0  0  0  0  0  0  0  0  0
    5.5333   25.4423    2.4062 C   0  0  0  0  0  0  0  0  0  0  0  0
    6.6047   25.9489    3.2458 C   0  0  0  0  0  0  0  0  0  0  0  0
    6.3199   24.4871    6.8059 H   0  0  0  0  0  0  0  0  0  0  0  0
   11.3534   25.0417    3.9450 C   0  0  0  0  0  0  0  0  0  0  0  0
   10.4844   24.1139    2.9664 C   0  0  0  0  0  0  0  0  0  0  0  0
   10.1912   22.6847    2.8999 C   0  0  0  0  0  0  0  0  0  0  0  0
    9.3455   22.1365    1.8699 C   0  0  0  0  0  0  0  0  0  0  0  0
    8.7693   23.0113    0.8730 C   0  0  0  0  0  0  0  0  0  0  0  0
    9.0441   24.4377    0.9161 C   0  0  0  0  0  0  0  0  0  0  0  0
    9.8919   24.9926    1.9487 C   0  0  0  0  0  0  0  0  0  0  0  0
   13.7253   21.3949    6.6401 N   0  0  0  0  0  0  0  0  0  0  0  0
   14.6215   20.6987    5.8199 N   0  0  0  0  0  0  0  0  0  0  0  0
   15.4197   21.2757    4.9030 C   0  0  0  0  0  0  0  0  0  0  0  0
   15.4532   22.4961    4.6832 O   0  0  0  0  0  0  0  0  0  0  0  0
   14.6711   19.7206    5.9210 H   0  0  0  0  0  0  0  0  0  0  0  0
   16.2526   20.2343    4.1529 C   0  0  0  0  0  0  0  0  0  0  0  0
   16.8229   19.4636    5.2874 N   0  0  0  0  0  0  0  0  0  0  0  0
   18.1616   19.5441    5.6755 C   0  0  0  0  0  0  0  0  0  0  0  0
   19.0091   20.2519    5.1158 O   0  0  0  0  0  0  0  0  0  0  0  0
   16.2259   18.8650    5.7919 H   0  0  0  0  0  0  0  0  0  0  0  0
   18.3742   18.7433    6.7443 O   0  0  0  0  0  0  0  0  0  0  0  0
   19.0431   17.4903    6.5741 C   0  0  0  0  0  0  0  0  0  0  0  0
   15.5757   19.2910    3.0725 C   0  0  0  0  0  0  0  0  0  0  0  0
   16.5662   18.7365    2.0201 C   0  0  0  0  0  0  0  0  0  0  0  0
   14.8657   18.1128    3.7802 C   0  0  0  0  0  0  0  0  0  0  0  0
   14.4770   20.0702    2.2917 C   0  0  0  0  0  0  0  0  0  0  0  0
   14.4610   22.2900    7.5636 C   0  0  0  0  0  0  0  0  0  0  0  0
   18.1701   20.8544    9.3613 C   0  0  0  0  0  0  0  0  0  0  0  0
   16.9305   20.0703    9.4735 C   0  0  0  0  0  0  0  0  0  0  0  0
   15.6831   20.5190    8.8878 C   0  0  0  0  0  0  0  0  0  0  0  0
   15.6249   21.7646    8.1662 C   0  0  0  0  0  0  0  0  0  0  0  0
   16.8255   22.5738    8.0271 C   0  0  0  0  0  0  0  0  0  0  0  0
   18.0819   22.1258    8.6167 C   0  0  0  0  0  0  0  0  0  0  0  0
   19.4767   20.3652    9.9845 C   0  0  0  0  0  0  0  0  0  0  0  0
   20.4781   21.3362   10.2406 C   0  0  0  0  0  0  0  0  0  0  0  0
   21.6964   20.9683   10.8085 C   0  0  0  0  0  0  0  0  0  0  0  0
   21.9920   19.5992   11.1549 N   0  0  0  0  0  0  0  0  0  0  0  0
   20.9852   18.5810   10.9032 C   0  0  0  0  0  0  0  0  0  0  0  0
   19.7235   18.9574   10.3139 C   0  0  0  0  0  0  0  0  0  0  0  0
  4  5  2  0  0  0
  4  8  1  0  0  0
  4 10  1  0  0  0
  6  7  1  0  0  0
  6  9  1  0  0  0
  6 10  1  0  0  0
  7  8  1  0  0  0
  8 12  1  0  0  0
 12 13  1  0  0  0
 12 16  1  0  0  0
 13 14  1  0  0  0
 13 21  2  0  0  0
 14 15  1  0  0  0
 14 18  2  0  0  0
 15 16  1  0  0  0
 16 17  1  0  0  0
 18 19  1  0  0  0
 19 20  2  0  0  0
 20 21  1  0  0  0
  2  1  1  0  0  0
  2  3  1  0  0  0
  1 30  1  0  0  0
 23 24  1  0  0  0
 23 10  1  0  0  0
 24 29  2  0  0  0
 24 25  1  0  0  0
 29 28  1  0  0  0
 28 27  2  0  0  0
 27 26  1  0  0  0
 26 25  2  0  0  0
 53 47  1  0  0  0
 53 58  1  0  0  0
 53 54  2  0  0  0
 47 48  1  0  0  0
 47 52  2  0  0  0
 48 49  2  0  0  0
 49 50  1  0  0  0
 50 51  2  0  0  0
 50 46  1  0  0  0
 51 52  1  0  0  0
 46 30  1  0  0  0
 30 31  1  0  0  0
 31 32  1  0  0  0
 32 35  1  0  0  0
 32 33  2  0  0  0
 35 36  1  0  0  0
 35 42  1  0  0  0
 36 37  1  0  0  0
 37 40  1  0  0  0
 37 38  2  0  0  0
 40 41  1  0  0  0
 42 43  1  0  0  0
 42 44  1  0  0  0
 42 45  1  0  0  0
 58 57  2  0  0  0
 57 56  1  0  0  0
 56 55  2  0  0  0
 55 54  1  0  0  0
 10  3  1  0  0  0
 17 22  1  0  0  0
  9 11  1  0  0  0
 31 34  1  0  0  0
 36 39  1  0  0  0
M  END
> <minimizedAffinity>
-9.98500

$$$$
4A6C_QG9_B_1200


 58 63  0  0  0  0  0  0  0  0999 V2000
   11.2821   24.3193    6.0896 C   0  0  0  0  0  0  0  0  0  0  0  0
   12.6903   24.7636    5.8135 C   0  0  0  0  0  0  0  0  0  0  0  0
   13.7303   24.2449    6.8433 C   0  0  0  0  0  0  0  0  0  0  0  0
   15.9634   23.2389    7.2854 C   0  0  0  0  0  0  0  0  0  0  0  0
   16.5197   24.3063    7.5880 O   0  0  0  0  0  0  0  0  0  0  0  0
   14.2305   21.7369    6.6249 C   0  0  0  0  0  0  0  0  0  0  0  0
   15.4377   21.0321    7.1422 C   0  0  0  0  0  0  0  0  0  0  0  0
   16.3225   22.0238    7.7043 N   0  0  0  0  0  0  0  0  0  0  0  0
   13.3069   21.6040    7.6750 O   0  0  0  0  0  0  0  0  0  0  0  0
   14.7484   23.1875    6.3266 C   0  0  0  0  0  0  0  0  0  0  0  0
   13.7091   21.9159    8.5007 H   0  0  0  0  0  0  0  0  0  0  0  0
   17.4331   21.6815    8.6165 C   0  0  0  0  0  0  0  0  0  0  0  0
   17.3281   20.3701    9.3771 C   0  0  0  0  0  0  0  0  0  0  0  0
   18.6319   19.8578    9.6166 C   0  0  0  0  0  0  0  0  0  0  0  0
   19.6783   20.7705    9.0419 C   0  0  0  0  0  0  0  0  0  0  0  0
   18.8839   21.5912    8.0018 C   0  0  0  0  0  0  0  0  0  0  0  0
   18.9711   20.8455    6.7839 O   0  0  0  0  0  0  0  0  0  0  0  0
   18.8371   18.6123   10.3181 C   0  0  0  0  0  0  0  0  0  0  0  0
   17.6673   17.8818   10.7893 C   0  0  0  0  0  0  0  0  0  0  0  0
   16.3222   18.4012   10.5481 C   0  0  0  0  0  0  0  0  0  0  0  0
   16.1387   19.6561    9.8403 C   0  0  0  0  0  0  0  0  0  0  0  0
   18.6669   19.9374    6.9383 H   0  0  0  0  0  0  0  0  0  0  0  0
   15.1311   23.4904    4.7524 C   0  0  0  0  0  0  0  0  0  0  0  0
   14.5217   22.4112    3.7340 C   0  0  0  0  0  0  0  0  0  0  0  0
   13.3357   22.3587    2.8833 C   0  0  0  0  0  0  0  0  0  0  0  0
   13.0548   21.2153    2.0524 C   0  0  0  0  0  0  0  0  0  0  0  0
   13.9599   20.0876    2.0532 C   0  0  0  0  0  0  0  0  0  0  0  0
   15.1480   20.1137    2.8897 C   0  0  0  0  0  0  0  0  0  0  0  0
   15.4344   21.2597    3.7250 C   0  0  0  0  0  0  0  0  0  0  0  0
   10.2771   25.3662    6.1054 N   0  0  0  0  0  0  0  0  0  0  0  0
    9.5480   25.3686    4.9100 N   0  0  0  0  0  0  0  0  0  0  0  0
    9.0991   24.2618    4.2901 C   0  0  0  0  0  0  0  0  0  0  0  0
    9.2792   23.1095    4.7128 O   0  0  0  0  0  0  0  0  0  0  0  0
    9.3504   26.2391    4.4948 H   0  0  0  0  0  0  0  0  0  0  0  0
    8.3685   24.6066    2.9908 C   0  0  0  0  0  0  0  0  0  0  0  0
    7.9010   25.9842    3.2909 N   0  0  0  0  0  0  0  0  0  0  0  0
    6.5710   26.2997    3.5754 C   0  0  0  0  0  0  0  0  0  0  0  0
    5.6479   25.4752    3.5988 O   0  0  0  0  0  0  0  0  0  0  0  0
    8.5633   26.7126    3.2892 H   0  0  0  0  0  0  0  0  0  0  0  0
    6.4607   27.6247    3.8221 O   0  0  0  0  0  0  0  0  0  0  0  0
    7.6073   28.3689    4.2437 C   0  0  0  0  0  0  0  0  0  0  0  0
    9.1234   24.5240    1.5985 C   0  0  0  0  0  0  0  0  0  0  0  0
    8.7183   25.6371    0.6019 C   0  0  0  0  0  0  0  0  0  0  0  0
   10.6521   24.5737    1.8301 C   0  0  0  0  0  0  0  0  0  0  0  0
    8.8213   23.1640    0.9032 C   0  0  0  0  0  0  0  0  0  0  0  0
    9.3715   25.1644    7.2606 C   0  0  0  0  0  0  0  0  0  0  0  0
    6.1390   28.0691    7.6656 C   0  0  0  0  0  0  0  0  0  0  0  0
    5.8568   26.6874    7.2467 C   0  0  0  0  0  0  0  0  0  0  0  0
    6.9073   25.6994    7.1031 C   0  0  0  0  0  0  0  0  0  0  0  0
    8.2780   26.0505    7.3741 C   0  0  0  0  0  0  0  0  0  0  0  0
    8.6060   27.4041    7.7930 C   0  0  0  0  0  0  0  0  0  0  0  0
    7.5514   28.4012    7.9369 C   0  0  0  0  0  0  0  0  0  0  0  0
    5.0184   29.0975    7.8126 C   0  0  0  0  0  0  0  0  0  0  0  0
    5.3982   30.4562    7.9569 C   0  0  0  0  0  0  0  0  0  0  0  0
    4.4341   31.4530    8.0949 C   0  0  0  0  0  0  0  0  0  0  0  0
    3.0231   31.1515    8.1002 N   0  0  0  0  0  0  0  0  0  0  0  0
    2.6030   29.7672    7.9551 C   0  0  0  0  0  0  0  0  0  0  0  0
    3.5979   28.7322    7.8137 C   0  0  0  0  0  0  0  0  0  0  0  0
  4  5  2  0  0  0
  4  8  1  0  0  0
  4 10  1  0  0  0
  6  7  1  0  0  0
  6  9  1  0  0  0
  6 10  1  0  0  0
  7  8  1  0  0  0
  8 12  1  0  0  0
 12 13  1  0  0  0
 12 16  1  0  0  0
 13 14  1  0  0  0
 13 21  2  0  0  0
 14 15  1  0  0  0
 14 18  2  0  0  0
 15 16  1  0  0  0
 16 17  1  0  0  0
 18 19  1  0  0  0
 19 20  2  0  0  0
 20 21  1  0  0  0
  2  1  1  0  0  0
  2  3  1  0  0  0
  1 30  1  0  0  0
 23 24  1  0  0  0
 23 10  1  0  0  0
 24 29  2  0  0  0
 24 25  1  0  0  0
 29 28  1  0  0  0
 28 27  2  0  0  0
 27 26  1  0  0  0
 26 25  2  0  0  0
 53 47  1  0  0  0
 53 58  1  0  0  0
 53 54  2  0  0  0
 47 48  1  0  0  0
 47 52  2  0  0  0
 48 49  2  0  0  0
 49 50  1  0  0  0
 50 51  2  0  0  0
 50 46  1  0  0  0
 51 52  1  0  0  0
 46 30  1  0  0  0
 30 31  1  0  0  0
 31 32  1  0  0  0
 32 35  1  0  0  0
 32 33  2  0  0  0
 35 36  1  0  0  0
 35 42  1  0  0  0
 36 37  1  0  0  0
 37 40  1  0  0  0
 37 38  2  0  0  0
 40 41  1  0  0  0
 42 43  1  0  0  0
 42 44  1  0  0  0
 42 45  1  0  0  0
 58 57  2  0  0  0
 57 56  1  0  0  0
 56 55  2  0  0  0
 55 54  1  0  0  0
 10  3  1  0  0  0
 17 22  1  0  0  0
  9 11  1  0  0  0
 31 34  1  0  0  0
 36 39  1  0  0  0
M  END
> <minimizedAffinity>
-9.69204

$$$$
4A6C_QG9_B_1200


 58 63  0  0  0  0  0  0  0  0999 V2000
   16.5948   20.2119    9.1003 C   0  0  0  0  0  0  0  0  0  0  0  0
   16.4708   21.6078    8.5593 C   0  0  0  0  0  0  0  0  0  0  0  0
   15.0363   21.9816    8.0969 C   0  0  0  0  0  0  0  0  0  0  0  0
   13.3881   22.1056    6.2362 C   0  0  0  0  0  0  0  0  0  0  0  0
   12.8253   21.0315    6.5006 O   0  0  0  0  0  0  0  0  0  0  0  0
   14.9178   23.9274    6.4274 C   0  0  0  0  0  0  0  0  0  0  0  0
   13.7982   24.2114    5.4852 C   0  0  0  0  0  0  0  0  0  0  0  0
   12.8340   23.1450    5.6089 N   0  0  0  0  0  0  0  0  0  0  0  0
   14.5878   24.6932    7.5578 O   0  0  0  0  0  0  0  0  0  0  0  0
   14.8705   22.3686    6.5988 C   0  0  0  0  0  0  0  0  0  0  0  0
   13.6821   24.4854    7.8360 H   0  0  0  0  0  0  0  0  0  0  0  0
   11.4481   23.2561    5.1092 C   0  0  0  0  0  0  0  0  0  0  0  0
   10.7244   24.5696    5.3551 C   0  0  0  0  0  0  0  0  0  0  0  0
    9.7913   24.7975    4.3077 C   0  0  0  0  0  0  0  0  0  0  0  0
    9.8273   23.6769    3.3071 C   0  0  0  0  0  0  0  0  0  0  0  0
   11.2059   23.0297    3.5662 C   0  0  0  0  0  0  0  0  0  0  0  0
   12.1177   23.7247    2.7103 O   0  0  0  0  0  0  0  0  0  0  0  0
    8.9631   25.9801    4.2778 C   0  0  0  0  0  0  0  0  0  0  0  0
    9.0976   26.9474    5.3596 C   0  0  0  0  0  0  0  0  0  0  0  0
   10.0543   26.7214    6.4417 C   0  0  0  0  0  0  0  0  0  0  0  0
   10.8775   25.5248    6.4519 C   0  0  0  0  0  0  0  0  0  0  0  0
   12.0528   24.6784    2.8750 H   0  0  0  0  0  0  0  0  0  0  0  0
   15.9408   21.5240    5.6728 C   0  0  0  0  0  0  0  0  0  0  0  0
   15.2547   20.7921    4.4210 C   0  0  0  0  0  0  0  0  0  0  0  0
   14.6424   21.2473    3.1756 C   0  0  0  0  0  0  0  0  0  0  0  0
   14.0999   20.3163    2.2188 C   0  0  0  0  0  0  0  0  0  0  0  0
   14.1561   18.8965    2.4872 C   0  0  0  0  0  0  0  0  0  0  0  0
   14.7606   18.4161    3.7184 C   0  0  0  0  0  0  0  0  0  0  0  0
   15.3071   19.3470    4.6816 C   0  0  0  0  0  0  0  0  0  0  0  0
   17.8287   19.5157    8.7857 N   0  0  0  0  0  0  0  0  0  0  0  0
   17.8634   18.2646    9.4134 N   0  0  0  0  0  0  0  0  0  0  0  0
   18.5207   18.0058   10.5588 C   0  0  0  0  0  0  0  0  0  0  0  0
   19.1699   18.8524   11.1916 O   0  0  0  0  0  0  0  0  0  0  0  0
   17.3738   17.5240    8.9880 H   0  0  0  0  0  0  0  0  0  0  0  0
   18.3872   16.5352   10.9594 C   0  0  0  0  0  0  0  0  0  0  0  0
   16.9270   16.3291   10.7815 N   0  0  0  0  0  0  0  0  0  0  0  0
   16.0868   15.8667   11.7961 C   0  0  0  0  0  0  0  0  0  0  0  0
   16.4666   15.5737   12.9373 O   0  0  0  0  0  0  0  0  0  0  0  0
   16.5311   16.5290    9.9025 H   0  0  0  0  0  0  0  0  0  0  0  0
   14.8160   15.7989   11.3387 O   0  0  0  0  0  0  0  0  0  0  0  0
   13.7492   15.4931   12.2413 C   0  0  0  0  0  0  0  0  0  0  0  0
   19.2403   15.4209   10.2207 C   0  0  0  0  0  0  0  0  0  0  0  0
   18.7152   15.0671    8.8081 C   0  0  0  0  0  0  0  0  0  0  0  0
   20.7161   15.8740   10.1212 C   0  0  0  0  0  0  0  0  0  0  0  0
   19.2332   14.1020   11.0481 C   0  0  0  0  0  0  0  0  0  0  0  0
   17.9465   19.3585    7.3171 C   0  0  0  0  0  0  0  0  0  0  0  0
   20.5627   16.2407    5.7406 C   0  0  0  0  0  0  0  0  0  0  0  0
   21.0559   17.1957    6.7451 C   0  0  0  0  0  0  0  0  0  0  0  0
   20.2127   18.2417    7.2883 C   0  0  0  0  0  0  0  0  0  0  0  0
   18.8457   18.3737    6.8529 C   0  0  0  0  0  0  0  0  0  0  0  0
   18.3125   17.4515    5.8626 C   0  0  0  0  0  0  0  0  0  0  0  0
   19.1589   16.3988    5.3128 C   0  0  0  0  0  0  0  0  0  0  0  0
   21.4659   15.1433    5.1794 C   0  0  0  0  0  0  0  0  0  0  0  0
   22.4418   15.5294    4.2257 C   0  0  0  0  0  0  0  0  0  0  0  0
   23.3036   14.5864    3.6688 C   0  0  0  0  0  0  0  0  0  0  0  0
   23.2413   13.1911    4.0306 N   0  0  0  0  0  0  0  0  0  0  0  0
   22.2503   12.7648    5.0052 C   0  0  0  0  0  0  0  0  0  0  0  0
   21.3552   13.7375    5.5828 C   0  0  0  0  0  0  0  0  0  0  0  0
  4  5  2  0  0  0
  4  8  1  0  0  0
  4 10  1  0  0  0
  6  7  1  0  0  0
  6  9  1  0  0  0
  6 10  1  0  0  0
  7  8  1  0  0  0
  8 12  1  0  0  0
 12 13  1  0  0  0
 12 16  1  0  0  0
 13 14  1  0  0  0
 13 21  2  0  0  0
 14 15  1  0  0  0
 14 18  2  0  0  0
 15 16  1  0  0  0
 16 17  1  0  0  0
 18 19  1  0  0  0
 19 20  2  0  0  0
 20 21  1  0  0  0
  2  1  1  0  0  0
  2  3  1  0  0  0
  1 30  1  0  0  0
 23 24  1  0  0  0
 23 10  1  0  0  0
 24 29  2  0  0  0
 24 25  1  0  0  0
 29 28  1  0  0  0
 28 27  2  0  0  0
 27 26  1  0  0  0
 26 25  2  0  0  0
 53 47  1  0  0  0
 53 58  1  0  0  0
 53 54  2  0  0  0
 47 48  1  0  0  0
 47 52  2  0  0  0
 48 49  2  0  0  0
 49 50  1  0  0  0
 50 51  2  0  0  0
 50 46  1  0  0  0
 51 52  1  0  0  0
 46 30  1  0  0  0
 30 31  1  0  0  0
 31 32  1  0  0  0
 32 35  1  0  0  0
 32 33  2  0  0  0
 35 36  1  0  0  0
 35 42  1  0  0  0
 36 37  1  0  0  0
 37 40  1  0  0  0
 37 38  2  0  0  0
 40 41  1  0  0  0
 42 43  1  0  0  0
 42 44  1  0  0  0
 42 45  1  0  0  0
 58 57  2  0  0  0
 57 56  1  0  0  0
 56 55  2  0  0  0
 55 54  1  0  0  0
 10  3  1  0  0  0
 17 22  1  0  0  0
  9 11  1  0  0  0
 31 34  1  0  0  0
 36 39  1  0  0  0
M  END
> <minimizedAffinity>
-9.53749

$$$$
4A6C_QG9_B_1200


 58 63  0  0  0  0  0  0  0  0999 V2000
   11.1827   24.6005    6.2346 C   0  0  0  0  0  0  0  0  0  0  0  0
   12.6106   24.8786    5.8600 C   0  0  0  0  0  0  0  0  0  0  0  0
   13.6485   24.3424    6.8830 C   0  0  0  0  0  0  0  0  0  0  0  0
   15.8840   23.3322    7.3031 C   0  0  0  0  0  0  0  0  0  0  0  0
   16.4433   24.3974    7.6080 O   0  0  0  0  0  0  0  0  0  0  0  0
   14.1452   21.8354    6.6461 C   0  0  0  0  0  0  0  0  0  0  0  0
   15.3555   21.1267    7.1506 C   0  0  0  0  0  0  0  0  0  0  0  0
   16.2451   22.1144    7.7123 N   0  0  0  0  0  0  0  0  0  0  0  0
   13.2291   21.6970    7.7020 O   0  0  0  0  0  0  0  0  0  0  0  0
   14.6621   23.2874    6.3527 C   0  0  0  0  0  0  0  0  0  0  0  0
   13.6374   22.0036    8.5267 H   0  0  0  0  0  0  0  0  0  0  0  0
   17.3620   21.7659    8.6144 C   0  0  0  0  0  0  0  0  0  0  0  0
   17.2672   20.4442    9.3585 C   0  0  0  0  0  0  0  0  0  0  0  0
   18.5747   19.9354    9.5848 C   0  0  0  0  0  0  0  0  0  0  0  0
   19.6137   20.8606    9.0168 C   0  0  0  0  0  0  0  0  0  0  0  0
   18.8101   21.6907    7.9914 C   0  0  0  0  0  0  0  0  0  0  0  0
   18.8948   20.9611    6.7635 O   0  0  0  0  0  0  0  0  0  0  0  0
   18.7895   18.6820   10.2692 C   0  0  0  0  0  0  0  0  0  0  0  0
   17.6257   17.9397   10.7367 C   0  0  0  0  0  0  0  0  0  0  0  0
   16.2768   18.4555   10.5090 C   0  0  0  0  0  0  0  0  0  0  0  0
   16.0837   19.7185    9.8183 C   0  0  0  0  0  0  0  0  0  0  0  0
   18.5958   20.0497    6.9076 H   0  0  0  0  0  0  0  0  0  0  0  0
   15.0338   23.5994    4.7777 C   0  0  0  0  0  0  0  0  0  0  0  0
   14.4160   22.5267    3.7572 C   0  0  0  0  0  0  0  0  0  0  0  0
   13.2038   22.4632    2.9450 C   0  0  0  0  0  0  0  0  0  0  0  0
   12.9221   21.3305    2.0998 C   0  0  0  0  0  0  0  0  0  0  0  0
   13.8528   20.2250    2.0472 C   0  0  0  0  0  0  0  0  0  0  0  0
   15.0671   20.2626    2.8446 C   0  0  0  0  0  0  0  0  0  0  0  0
   15.3545   21.3979    3.6940 C   0  0  0  0  0  0  0  0  0  0  0  0
   10.3469   25.7651    6.4613 N   0  0  0  0  0  0  0  0  0  0  0  0
    9.7598   26.1920    5.2640 N   0  0  0  0  0  0  0  0  0  0  0  0
    8.9770   25.4241    4.4840 C   0  0  0  0  0  0  0  0  0  0  0  0
    8.6838   24.2467    4.7419 O   0  0  0  0  0  0  0  0  0  0  0  0
    9.9313   27.1168    4.9730 H   0  0  0  0  0  0  0  0  0  0  0  0
    8.5235   26.1786    3.2326 C   0  0  0  0  0  0  0  0  0  0  0  0
    8.6700   25.1204    2.2006 N   0  0  0  0  0  0  0  0  0  0  0  0
    9.9044   24.6937    1.7070 C   0  0  0  0  0  0  0  0  0  0  0  0
   10.9962   25.1532    2.0664 O   0  0  0  0  0  0  0  0  0  0  0  0
    7.8544   24.6980    1.8462 H   0  0  0  0  0  0  0  0  0  0  0  0
    9.7153   23.7127    0.7957 O   0  0  0  0  0  0  0  0  0  0  0  0
    8.5784   22.8510    0.9019 C   0  0  0  0  0  0  0  0  0  0  0  0
    7.0950   26.8657    3.1825 C   0  0  0  0  0  0  0  0  0  0  0  0
    6.6780   27.3360    1.7678 C   0  0  0  0  0  0  0  0  0  0  0  0
    6.0278   25.8916    3.7350 C   0  0  0  0  0  0  0  0  0  0  0  0
    7.0706   28.1224    4.1012 C   0  0  0  0  0  0  0  0  0  0  0  0
    9.3019   25.4366    7.4589 C   0  0  0  0  0  0  0  0  0  0  0  0
    6.0249   28.3070    7.7265 C   0  0  0  0  0  0  0  0  0  0  0  0
    5.7622   26.8990    7.3910 C   0  0  0  0  0  0  0  0  0  0  0  0
    6.8278   25.9215    7.2946 C   0  0  0  0  0  0  0  0  0  0  0  0
    8.1948   26.3099    7.5316 C   0  0  0  0  0  0  0  0  0  0  0  0
    8.5037   27.6907    7.8683 C   0  0  0  0  0  0  0  0  0  0  0  0
    7.4338   28.6772    7.9645 C   0  0  0  0  0  0  0  0  0  0  0  0
    4.8885   29.3239    7.8247 C   0  0  0  0  0  0  0  0  0  0  0  0
    5.2470   30.6823    8.0178 C   0  0  0  0  0  0  0  0  0  0  0  0
    4.2677   31.6690    8.1159 C   0  0  0  0  0  0  0  0  0  0  0  0
    2.8617   31.3569    8.0294 N   0  0  0  0  0  0  0  0  0  0  0  0
    2.4633   29.9727    7.8325 C   0  0  0  0  0  0  0  0  0  0  0  0
    3.4738   28.9481    7.7322 C   0  0  0  0  0  0  0  0  0  0  0  0
  4  5  2  0  0  0
  4  8  1  0  0  0
  4 10  1  0  0  0
  6  7  1  0  0  0
  6  9  1  0  0  0
  6 10  1  0  0  0
  7  8  1  0  0  0
  8 12  1  0  0  0
 12 13  1  0  0  0
 12 16  1  0  0  0
 13 14  1  0  0  0
 13 21  2  0  0  0
 14 15  1  0  0  0
 14 18  2  0  0  0
 15 16  1  0  0  0
 16 17  1  0  0  0
 18 19  1  0  0  0
 19 20  2  0  0  0
 20 21  1  0  0  0
  2  1  1  0  0  0
  2  3  1  0  0  0
  1 30  1  0  0  0
 23 24  1  0  0  0
 23 10  1  0  0  0
 24 29  2  0  0  0
 24 25  1  0  0  0
 29 28  1  0  0  0
 28 27  2  0  0  0
 27 26  1  0  0  0
 26 25  2  0  0  0
 53 47  1  0  0  0
 53 58  1  0  0  0
 53 54  2  0  0  0
 47 48  1  0  0  0
 47 52  2  0  0  0
 48 49  2  0  0  0
 49 50  1  0  0  0
 50 51  2  0  0  0
 50 46  1  0  0  0
 51 52  1  0  0  0
 46 30  1  0  0  0
 30 31  1  0  0  0
 31 32  1  0  0  0
 32 35  1  0  0  0
 32 33  2  0  0  0
 35 36  1  0  0  0
 35 42  1  0  0  0
 36 37  1  0  0  0
 37 40  1  0  0  0
 37 38  2  0  0  0
 40 41  1  0  0  0
 42 43  1  0  0  0
 42 44  1  0  0  0
 42 45  1  0  0  0
 58 57  2  0  0  0
 57 56  1  0  0  0
 56 55  2  0  0  0
 55 54  1  0  0  0
 10  3  1  0  0  0
 17 22  1  0  0  0
  9 11  1  0  0  0
 31 34  1  0  0  0
 36 39  1  0  0  0
M  END
> <minimizedAffinity>
-9.39822

$$$$
4A6C_QG9_B_1200


 58 63  0  0  0  0  0  0  0  0999 V2000
   13.9685   21.5133    7.1242 C   0  0  0  0  0  0  0  0  0  0  0  0
   14.0156   22.6557    6.1497 C   0  0  0  0  0  0  0  0  0  0  0  0
   13.0925   23.8463    6.5263 C   0  0  0  0  0  0  0  0  0  0  0  0
   10.6448   24.1179    6.1668 C   0  0  0  0  0  0  0  0  0  0  0  0
   10.3166   23.0940    6.7868 O   0  0  0  0  0  0  0  0  0  0  0  0
   12.0522   25.8029    5.2313 C   0  0  0  0  0  0  0  0  0  0  0  0
   10.6115   26.1850    5.2221 C   0  0  0  0  0  0  0  0  0  0  0  0
    9.8881   25.2034    5.9936 N   0  0  0  0  0  0  0  0  0  0  0  0
   12.5857   26.5886    6.2664 O   0  0  0  0  0  0  0  0  0  0  0  0
   12.0223   24.2529    5.4723 C   0  0  0  0  0  0  0  0  0  0  0  0
   12.0646   26.4568    7.0739 H   0  0  0  0  0  0  0  0  0  0  0  0
    8.5202   25.4336    6.5023 C   0  0  0  0  0  0  0  0  0  0  0  0
    8.3069   26.6416    7.3994 C   0  0  0  0  0  0  0  0  0  0  0  0
    6.9803   27.1234    7.2345 C   0  0  0  0  0  0  0  0  0  0  0  0
    6.2299   26.2905    6.2338 C   0  0  0  0  0  0  0  0  0  0  0  0
    7.3635   25.6018    5.4418 C   0  0  0  0  0  0  0  0  0  0  0  0
    7.6669   26.4916    4.3632 O   0  0  0  0  0  0  0  0  0  0  0  0
    6.4984   28.2739    7.9624 C   0  0  0  0  0  0  0  0  0  0  0  0
    7.4072   28.9384    8.8878 C   0  0  0  0  0  0  0  0  0  0  0  0
    8.7737   28.4496    9.0645 C   0  0  0  0  0  0  0  0  0  0  0  0
    9.2376   27.2906    8.3221 C   0  0  0  0  0  0  0  0  0  0  0  0
    7.8636   27.3732    4.7169 H   0  0  0  0  0  0  0  0  0  0  0  0
   12.1776   23.3252    4.1190 C   0  0  0  0  0  0  0  0  0  0  0  0
   11.0009   23.5579    3.0537 C   0  0  0  0  0  0  0  0  0  0  0  0
   10.7093   24.5825    2.0546 C   0  0  0  0  0  0  0  0  0  0  0  0
    9.5367   24.5087    1.2203 C   0  0  0  0  0  0  0  0  0  0  0  0
    8.6197   23.4002    1.3671 C   0  0  0  0  0  0  0  0  0  0  0  0
    8.8862   22.3663    2.3531 C   0  0  0  0  0  0  0  0  0  0  0  0
   10.0624   22.4358    3.1924 C   0  0  0  0  0  0  0  0  0  0  0  0
   15.1945   20.7503    7.2684 N   0  0  0  0  0  0  0  0  0  0  0  0
   15.5118   20.0951    6.0723 N   0  0  0  0  0  0  0  0  0  0  0  0
   16.3187   20.5979    5.1200 C   0  0  0  0  0  0  0  0  0  0  0  0
   16.8774   21.7028    5.1975 O   0  0  0  0  0  0  0  0  0  0  0  0
   15.1178   19.2063    5.9175 H   0  0  0  0  0  0  0  0  0  0  0  0
   16.4325   19.6484    3.9257 C   0  0  0  0  0  0  0  0  0  0  0  0
   16.7436   18.3698    4.6147 N   0  0  0  0  0  0  0  0  0  0  0  0
   17.7858   17.5237    4.2311 C   0  0  0  0  0  0  0  0  0  0  0  0
   18.5480   17.7421    3.2804 O   0  0  0  0  0  0  0  0  0  0  0  0
   16.1859   18.1052    5.3817 H   0  0  0  0  0  0  0  0  0  0  0  0
   17.8286   16.4523    5.0551 O   0  0  0  0  0  0  0  0  0  0  0  0
   18.7423   16.4359    6.1557 C   0  0  0  0  0  0  0  0  0  0  0  0
   15.2300   19.4965    2.9028 C   0  0  0  0  0  0  0  0  0  0  0  0
   14.3488   18.2494    3.1563 C   0  0  0  0  0  0  0  0  0  0  0  0
   14.3469   20.7660    2.9435 C   0  0  0  0  0  0  0  0  0  0  0  0
   15.7733   19.3772    1.4486 C   0  0  0  0  0  0  0  0  0  0  0  0
   16.2966   21.6568    7.6671 C   0  0  0  0  0  0  0  0  0  0  0  0
   19.6411   20.1043   10.0024 C   0  0  0  0  0  0  0  0  0  0  0  0
   18.4525   19.2743    9.7526 C   0  0  0  0  0  0  0  0  0  0  0  0
   17.3259   19.7602    8.9812 C   0  0  0  0  0  0  0  0  0  0  0  0
   17.3426   21.0902    8.4277 C   0  0  0  0  0  0  0  0  0  0  0  0
   18.4971   21.9474    8.6465 C   0  0  0  0  0  0  0  0  0  0  0  0
   19.6318   21.4621    9.4237 C   0  0  0  0  0  0  0  0  0  0  0  0
   20.8204   19.5751   10.8175 C   0  0  0  0  0  0  0  0  0  0  0  0
   21.4990   20.4982   11.6532 C   0  0  0  0  0  0  0  0  0  0  0  0
   22.5835   20.0914   12.4282 C   0  0  0  0  0  0  0  0  0  0  0  0
   23.0613   18.7300   12.4136 N   0  0  0  0  0  0  0  0  0  0  0  0
   22.3863   17.7609   11.5656 C   0  0  0  0  0  0  0  0  0  0  0  0
   21.2644   18.1783   10.7606 C   0  0  0  0  0  0  0  0  0  0  0  0
  4  5  2  0  0  0
  4  8  1  0  0  0
  4 10  1  0  0  0
  6  7  1  0  0  0
  6  9  1  0  0  0
  6 10  1  0  0  0
  7  8  1  0  0  0
  8 12  1  0  0  0
 12 13  1  0  0  0
 12 16  1  0  0  0
 13 14  1  0  0  0
 13 21  2  0  0  0
 14 15  1  0  0  0
 14 18  2  0  0  0
 15 16  1  0  0  0
 16 17  1  0  0  0
 18 19  1  0  0  0
 19 20  2  0  0  0
 20 21  1  0  0  0
  2  1  1  0  0  0
  2  3  1  0  0  0
  1 30  1  0  0  0
 23 24  1  0  0  0
 23 10  1  0  0  0
 24 29  2  0  0  0
 24 25  1  0  0  0
 29 28  1  0  0  0
 28 27  2  0  0  0
 27 26  1  0  0  0
 26 25  2  0  0  0
 53 47  1  0  0  0
 53 58  1  0  0  0
 53 54  2  0  0  0
 47 48  1  0  0  0
 47 52  2  0  0  0
 48 49  2  0  0  0
 49 50  1  0  0  0
 50 51  2  0  0  0
 50 46  1  0  0  0
 51 52  1  0  0  0
 46 30  1  0  0  0
 30 31  1  0  0  0
 31 32  1  0  0  0
 32 35  1  0  0  0
 32 33  2  0  0  0
 35 36  1  0  0  0
 35 42  1  0  0  0
 36 37  1  0  0  0
 37 40  1  0  0  0
 37 38  2  0  0  0
 40 41  1  0  0  0
 42 43  1  0  0  0
 42 44  1  0  0  0
 42 45  1  0  0  0
 58 57  2  0  0  0
 57 56  1  0  0  0
 56 55  2  0  0  0
 55 54  1  0  0  0
 10  3  1  0  0  0
 17 22  1  0  0  0
  9 11  1  0  0  0
 31 34  1  0  0  0
 36 39  1  0  0  0
M  END
> <minimizedAffinity>
-9.38372

$$$$
4A6C_QG9_B_1200


 58 63  0  0  0  0  0  0  0  0999 V2000
   18.6594   20.6217    8.2789 C   0  0  0  0  0  0  0  0  0  0  0  0
   18.4887   19.5623    9.3302 C   0  0  0  0  0  0  0  0  0  0  0  0
   19.7329   19.3670   10.2386 C   0  0  0  0  0  0  0  0  0  0  0  0
   18.5771   17.5311   11.4584 C   0  0  0  0  0  0  0  0  0  0  0  0
   17.9494   18.2740   12.2295 O   0  0  0  0  0  0  0  0  0  0  0  0
   20.0479   16.8781    9.6961 C   0  0  0  0  0  0  0  0  0  0  0  0
   19.1896   15.7577   10.1752 C   0  0  0  0  0  0  0  0  0  0  0  0
   18.2057   16.3076   11.0763 N   0  0  0  0  0  0  0  0  0  0  0  0
   19.4714   17.2183    8.4611 O   0  0  0  0  0  0  0  0  0  0  0  0
   19.9349   17.9460   10.8400 C   0  0  0  0  0  0  0  0  0  0  0  0
   18.5221   17.3781    8.5804 H   0  0  0  0  0  0  0  0  0  0  0  0
   16.9806   15.5796   11.4658 C   0  0  0  0  0  0  0  0  0  0  0  0
   16.7186   15.4064   12.9527 C   0  0  0  0  0  0  0  0  0  0  0  0
   15.3171   15.3581   13.1825 C   0  0  0  0  0  0  0  0  0  0  0  0
   14.5592   15.4959   11.8922 C   0  0  0  0  0  0  0  0  0  0  0  0
   15.5992   16.1430   10.9509 C   0  0  0  0  0  0  0  0  0  0  0  0
   15.4317   17.5546   11.1144 O   0  0  0  0  0  0  0  0  0  0  0  0
   14.7743   15.2051   14.5119 C   0  0  0  0  0  0  0  0  0  0  0  0
   15.7021   15.0928   15.6302 C   0  0  0  0  0  0  0  0  0  0  0  0
   17.1457   15.1409   15.4036 C   0  0  0  0  0  0  0  0  0  0  0  0
   17.6700   15.2953   14.0579 C   0  0  0  0  0  0  0  0  0  0  0  0
   15.5028   17.7818   12.0547 H   0  0  0  0  0  0  0  0  0  0  0  0
   21.1803   17.9584   11.9194 C   0  0  0  0  0  0  0  0  0  0  0  0
   21.4283   19.3978   12.5829 C   0  0  0  0  0  0  0  0  0  0  0  0
   22.1409   20.6060   12.1760 C   0  0  0  0  0  0  0  0  0  0  0  0
   22.1807   21.7759   13.0165 C   0  0  0  0  0  0  0  0  0  0  0  0
   21.5045   21.7650   14.2947 C   0  0  0  0  0  0  0  0  0  0  0  0
   20.7873   20.5761   14.7239 C   0  0  0  0  0  0  0  0  0  0  0  0
   20.7440   19.3995   13.8831 C   0  0  0  0  0  0  0  0  0  0  0  0
   17.5481   20.7906    7.3609 N   0  0  0  0  0  0  0  0  0  0  0  0
   17.5192   19.7504    6.4241 N   0  0  0  0  0  0  0  0  0  0  0  0
   18.4104   19.5988    5.4273 C   0  0  0  0  0  0  0  0  0  0  0  0
   19.3644   20.3663    5.2281 O   0  0  0  0  0  0  0  0  0  0  0  0
   16.7979   19.0846    6.4998 H   0  0  0  0  0  0  0  0  0  0  0  0
   18.0784   18.3820    4.5613 C   0  0  0  0  0  0  0  0  0  0  0  0
   18.0736   17.3048    5.5841 N   0  0  0  0  0  0  0  0  0  0  0  0
   18.6964   16.0687    5.4013 C   0  0  0  0  0  0  0  0  0  0  0  0
   19.3048   15.7387    4.3749 O   0  0  0  0  0  0  0  0  0  0  0  0
   17.6071   17.4711    6.4349 H   0  0  0  0  0  0  0  0  0  0  0  0
   18.5345   15.3097    6.5088 O   0  0  0  0  0  0  0  0  0  0  0  0
   19.3410   14.1434    6.6975 C   0  0  0  0  0  0  0  0  0  0  0  0
   16.7660   18.3637    3.6710 C   0  0  0  0  0  0  0  0  0  0  0  0
   15.5954   17.5708    4.3012 C   0  0  0  0  0  0  0  0  0  0  0  0
   16.3089   19.8138    3.3856 C   0  0  0  0  0  0  0  0  0  0  0  0
   17.0626   17.7092    2.2899 C   0  0  0  0  0  0  0  0  0  0  0  0
   16.2788   20.8319    8.1240 C   0  0  0  0  0  0  0  0  0  0  0  0
   13.0905   23.3907    6.5949 C   0  0  0  0  0  0  0  0  0  0  0  0
   14.2123   23.9641    7.3546 C   0  0  0  0  0  0  0  0  0  0  0  0
   15.2861   23.1420    7.8753 C   0  0  0  0  0  0  0  0  0  0  0  0
   15.2839   21.7180    7.6563 C   0  0  0  0  0  0  0  0  0  0  0  0
   14.1967   21.1055    6.9091 C   0  0  0  0  0  0  0  0  0  0  0  0
   13.1136   21.9298    6.3852 C   0  0  0  0  0  0  0  0  0  0  0  0
   11.9671   24.2731    6.0525 C   0  0  0  0  0  0  0  0  0  0  0  0
   11.0482   23.6754    5.1529 C   0  0  0  0  0  0  0  0  0  0  0  0
    9.9958   24.4147    4.6161 C   0  0  0  0  0  0  0  0  0  0  0  0
    9.7973   25.8055    4.9449 N   0  0  0  0  0  0  0  0  0  0  0  0
   10.7240   26.4461    5.8638 C   0  0  0  0  0  0  0  0  0  0  0  0
   11.8157   25.6849    6.4203 C   0  0  0  0  0  0  0  0  0  0  0  0
  4  5  2  0  0  0
  4  8  1  0  0  0
  4 10  1  0  0  0
  6  7  1  0  0  0
  6  9  1  0  0  0
  6 10  1  0  0  0
  7  8  1  0  0  0
  8 12  1  0  0  0
 12 13  1  0  0  0
 12 16  1  0  0  0
 13 14  1  0  0  0
 13 21  2  0  0  0
 14 15  1  0  0  0
 14 18  2  0  0  0
 15 16  1  0  0  0
 16 17  1  0  0  0
 18 19  1  0  0  0
 19 20  2  0  0  0
 20 21  1  0  0  0
  2  1  1  0  0  0
  2  3  1  0  0  0
  1 30  1  0  0  0
 23 24  1  0  0  0
 23 10  1  0  0  0
 24 29  2  0  0  0
 24 25  1  0  0  0
 29 28  1  0  0  0
 28 27  2  0  0  0
 27 26  1  0  0  0
 26 25  2  0  0  0
 53 47  1  0  0  0
 53 58  1  0  0  0
 53 54  2  0  0  0
 47 48  1  0  0  0
 47 52  2  0  0  0
 48 49  2  0  0  0
 49 50  1  0  0  0
 50 51  2  0  0  0
 50 46  1  0  0  0
 51 52  1  0  0  0
 46 30  1  0  0  0
 30 31  1  0  0  0
 31 32  1  0  0  0
 32 35  1  0  0  0
 32 33  2  0  0  0
 35 36  1  0  0  0
 35 42  1  0  0  0
 36 37  1  0  0  0
 37 40  1  0  0  0
 37 38  2  0  0  0
 40 41  1  0  0  0
 42 43  1  0  0  0
 42 44  1  0  0  0
 42 45  1  0  0  0
 58 57  2  0  0  0
 57 56  1  0  0  0
 56 55  2  0  0  0
 55 54  1  0  0  0
 10  3  1  0  0  0
 17 22  1  0  0  0
  9 11  1  0  0  0
 31 34  1  0  0  0
 36 39  1  0  0  0
M  END
> <minimizedAffinity>
-9.25117

$$$$
