5H8E_5Y3_A_421


 36 39  0  0  0  0  0  0  0  0999 V2000
   18.1521   67.4898   32.6866 N   0  0  0  0  0  0  0  0  0  0  0  0
   17.9437   67.7976   31.7749 H   0  0  0  0  0  0  0  0  0  0  0  0
   22.4150   69.9948   35.0156 N   0  0  0  0  0  0  0  0  0  0  0  0
   19.2206   68.1481   33.2711 C   0  0  0  0  0  0  0  0  0  0  0  0
   20.0208   68.9181   32.4218 C   0  0  0  0  0  0  0  0  0  0  0  0
   21.1509   69.5812   32.9062 C   0  0  0  0  0  0  0  0  0  0  0  0
   20.5895   68.6038   35.0425 C   0  0  0  0  0  0  0  0  0  0  0  0
   21.0952   68.6529   36.3369 C   0  0  0  0  0  0  0  0  0  0  0  0
   22.2671   69.4200   36.2356 C   0  0  0  0  0  0  0  0  0  0  0  0
   21.4042   69.4241   34.2698 N   0  0  0  0  0  0  0  0  0  0  0  0
   19.4806   68.0012   34.5815 N   0  0  0  0  0  0  0  0  0  0  0  0
   20.1554   67.4882   38.4170 N   0  0  0  0  0  0  0  0  0  0  0  0
   20.5725   67.9937   37.4862 C   0  0  0  0  0  0  0  0  0  0  0  0
   22.0352   70.2962   32.0910 N   0  0  0  0  0  0  0  0  0  0  0  0
   22.7918   70.7609   32.5161 H   0  0  0  0  0  0  0  0  0  0  0  0
   22.7497   71.3318   29.9028 C   0  0  0  0  0  0  0  0  0  0  0  0
   21.3016   71.6108   30.0696 C   0  0  0  0  0  0  0  0  0  0  0  0
   21.8909   70.3871   30.6403 C   0  0  0  0  0  0  0  0  0  0  0  0
   16.4010   65.0688   34.9188 C   0  0  0  0  0  0  0  0  0  0  0  0
   17.2798   66.0600   34.4885 C   0  0  0  0  0  0  0  0  0  0  0  0
   15.6308   64.3858   33.9636 C   0  0  0  0  0  0  0  0  0  0  0  0
   17.3035   66.4583   33.1520 C   0  0  0  0  0  0  0  0  0  0  0  0
   16.5653   65.7502   32.2110 C   0  0  0  0  0  0  0  0  0  0  0  0
   15.6963   64.7521   32.6166 C   0  0  0  0  0  0  0  0  0  0  0  0
   16.3034   65.4248   37.4472 C   0  0  0  0  0  0  0  0  0  0  0  0
   16.1739   64.7303   36.2850 N   0  0  0  0  0  0  0  0  0  0  0  0
   16.4182   64.8787   38.5372 O   0  0  0  0  0  0  0  0  0  0  0  0
   16.0764   66.9059   37.3343 C   0  0  0  0  0  0  0  0  0  0  0  0
   15.8594   63.8063   36.4132 H   0  0  0  0  0  0  0  0  0  0  0  0
   13.4014   63.4237   34.6046 C   0  0  0  0  0  0  0  0  0  0  0  0
   14.8204   63.2259   34.3846 N   0  0  0  0  0  0  0  0  0  0  0  0
   15.2086   61.8775   33.7773 C   0  0  0  0  0  0  0  0  0  0  0  0
   14.5527   60.7058   34.4908 C   0  0  0  0  0  0  0  0  0  0  0  0
   15.5455   59.8323   35.1529 N   0  0  0  0  0  0  0  0  0  0  0  0
   16.1766   59.4430   34.4524 H   0  0  0  0  0  0  0  0  0  0  0  0
   15.0631   59.0738   35.6349 H   0  0  0  0  0  0  0  0  0  0  0  0
 16 17  1  0  0  0
 16 18  1  0  0  0
 17 18  1  0  0  0
 18 14  1  0  0  0
 14  6  1  0  0  0
 23 24  2  0  0  0
 23 22  1  0  0  0
  5  6  2  0  0  0
  5  4  1  0  0  0
  1 22  1  0  0  0
  1  4  1  0  0  0
 24 21  1  0  0  0
  6 10  1  0  0  0
 22 20  2  0  0  0
  4 11  2  0  0  0
 32 33  1  0  0  0
 32 31  1  0  0  0
 33 34  1  0  0  0
 21 31  1  0  0  0
 21 19  2  0  0  0
 10  7  1  0  0  0
 10  3  1  0  0  0
 31 30  1  0  0  0
 20 19  1  0  0  0
 11  7  1  0  0  0
 19 26  1  0  0  0
  7  8  2  0  0  0
  3  9  2  0  0  0
 26 25  1  0  0  0
  9  8  1  0  0  0
  8 13  1  0  0  0
 28 25  1  0  0  0
 25 27  2  0  0  0
 13 12  3  0  0  0
 14 15  1  0  0  0
  1  2  1  0  0  0
 34 35  1  0  0  0
 34 36  1  0  0  0
 26 29  1  0  0  0
M  END
> <minimizedAffinity>
-9.58526

$$$$
5H8E_5Y3_A_421


 36 39  0  0  0  0  0  0  0  0999 V2000
   17.7786   67.8591   32.8925 N   0  0  0  0  0  0  0  0  0  0  0  0
   17.2193   68.5565   32.4801 H   0  0  0  0  0  0  0  0  0  0  0  0
   22.4711   69.6375   35.0581 N   0  0  0  0  0  0  0  0  0  0  0  0
   18.9594   68.3350   33.4366 C   0  0  0  0  0  0  0  0  0  0  0  0
   19.8297   68.9934   32.5626 C   0  0  0  0  0  0  0  0  0  0  0  0
   21.0677   69.4668   33.0039 C   0  0  0  0  0  0  0  0  0  0  0  0
   20.4580   68.5389   35.1490 C   0  0  0  0  0  0  0  0  0  0  0  0
   21.0213   68.4823   36.4190 C   0  0  0  0  0  0  0  0  0  0  0  0
   22.2908   69.0650   36.2749 C   0  0  0  0  0  0  0  0  0  0  0  0
   21.3535   69.2431   34.3517 N   0  0  0  0  0  0  0  0  0  0  0  0
   19.2511   68.1215   34.7311 N   0  0  0  0  0  0  0  0  0  0  0  0
   19.9862   67.4256   38.5115 N   0  0  0  0  0  0  0  0  0  0  0  0
   20.4550   67.8848   37.5814 C   0  0  0  0  0  0  0  0  0  0  0  0
   22.0141   70.0573   32.1593 N   0  0  0  0  0  0  0  0  0  0  0  0
   22.8888   70.3050   32.5372 H   0  0  0  0  0  0  0  0  0  0  0  0
   22.6830   71.2316   30.0275 C   0  0  0  0  0  0  0  0  0  0  0  0
   21.3024   71.6666   30.3550 C   0  0  0  0  0  0  0  0  0  0  0  0
   21.7683   70.3244   30.7445 C   0  0  0  0  0  0  0  0  0  0  0  0
   15.7270   64.9302   31.8331 C   0  0  0  0  0  0  0  0  0  0  0  0
   16.2200   66.2306   31.9070 C   0  0  0  0  0  0  0  0  0  0  0  0
   16.1636   63.9860   32.7766 C   0  0  0  0  0  0  0  0  0  0  0  0
   17.2242   66.5600   32.8174 C   0  0  0  0  0  0  0  0  0  0  0  0
   17.6206   65.6284   33.7697 C   0  0  0  0  0  0  0  0  0  0  0  0
   17.1319   64.3343   33.7221 C   0  0  0  0  0  0  0  0  0  0  0  0
   15.0025   64.2183   29.4885 C   0  0  0  0  0  0  0  0  0  0  0  0
   14.8441   64.4591   30.8176 N   0  0  0  0  0  0  0  0  0  0  0  0
   14.0618   64.1699   28.7061 O   0  0  0  0  0  0  0  0  0  0  0  0
   16.3850   63.7976   29.0765 C   0  0  0  0  0  0  0  0  0  0  0  0
   13.9351   64.2697   31.1449 H   0  0  0  0  0  0  0  0  0  0  0  0
   16.2752   61.5235   32.2970 C   0  0  0  0  0  0  0  0  0  0  0  0
   15.5285   62.6539   32.8125 N   0  0  0  0  0  0  0  0  0  0  0  0
   14.6490   62.3599   34.0280 C   0  0  0  0  0  0  0  0  0  0  0  0
   13.6955   63.5005   34.3477 C   0  0  0  0  0  0  0  0  0  0  0  0
   13.6771   63.8212   35.7912 N   0  0  0  0  0  0  0  0  0  0  0  0
   13.3589   63.0068   36.3165 H   0  0  0  0  0  0  0  0  0  0  0  0
   13.0428   64.6024   35.9579 H   0  0  0  0  0  0  0  0  0  0  0  0
 16 17  1  0  0  0
 16 18  1  0  0  0
 17 18  1  0  0  0
 18 14  1  0  0  0
 14  6  1  0  0  0
 23 24  2  0  0  0
 23 22  1  0  0  0
  5  6  2  0  0  0
  5  4  1  0  0  0
  1 22  1  0  0  0
  1  4  1  0  0  0
 24 21  1  0  0  0
  6 10  1  0  0  0
 22 20  2  0  0  0
  4 11  2  0  0  0
 32 33  1  0  0  0
 32 31  1  0  0  0
 33 34  1  0  0  0
 21 31  1  0  0  0
 21 19  2  0  0  0
 10  7  1  0  0  0
 10  3  1  0  0  0
 31 30  1  0  0  0
 20 19  1  0  0  0
 11  7  1  0  0  0
 19 26  1  0  0  0
  7  8  2  0  0  0
  3  9  2  0  0  0
 26 25  1  0  0  0
  9  8  1  0  0  0
  8 13  1  0  0  0
 28 25  1  0  0  0
 25 27  2  0  0  0
 13 12  3  0  0  0
 14 15  1  0  0  0
  1  2  1  0  0  0
 34 35  1  0  0  0
 34 36  1  0  0  0
 26 29  1  0  0  0
M  END
> <minimizedAffinity>
-9.09384

$$$$
5H8E_5Y3_A_421


 36 39  0  0  0  0  0  0  0  0999 V2000
   17.9069   67.7101   32.5326 N   0  0  0  0  0  0  0  0  0  0  0  0
   17.3241   68.3851   32.1156 H   0  0  0  0  0  0  0  0  0  0  0  0
   22.3584   69.7030   34.9992 N   0  0  0  0  0  0  0  0  0  0  0  0
   19.0255   68.2399   33.1528 C   0  0  0  0  0  0  0  0  0  0  0  0
   19.9061   68.9629   32.3426 C   0  0  0  0  0  0  0  0  0  0  0  0
   21.0877   69.4955   32.8636 C   0  0  0  0  0  0  0  0  0  0  0  0
   20.4089   68.4926   34.9534 C   0  0  0  0  0  0  0  0  0  0  0  0
   20.9003   68.4421   36.2532 C   0  0  0  0  0  0  0  0  0  0  0  0
   22.1410   69.0972   36.1935 C   0  0  0  0  0  0  0  0  0  0  0  0
   21.3076   69.2612   34.2218 N   0  0  0  0  0  0  0  0  0  0  0  0
   19.2537   68.0172   34.4585 N   0  0  0  0  0  0  0  0  0  0  0  0
   19.8032   67.2731   38.2523 N   0  0  0  0  0  0  0  0  0  0  0  0
   20.3027   67.7911   37.3702 C   0  0  0  0  0  0  0  0  0  0  0  0
   22.0463   70.1544   32.0858 N   0  0  0  0  0  0  0  0  0  0  0  0
   22.8606   70.4862   32.5286 H   0  0  0  0  0  0  0  0  0  0  0  0
   22.7849   71.3497   29.9891 C   0  0  0  0  0  0  0  0  0  0  0  0
   21.3480   71.6613   30.1902 C   0  0  0  0  0  0  0  0  0  0  0  0
   21.8983   70.3742   30.6495 C   0  0  0  0  0  0  0  0  0  0  0  0
   15.8095   64.6348   32.7656 C   0  0  0  0  0  0  0  0  0  0  0  0
   16.2559   65.9387   32.9670 C   0  0  0  0  0  0  0  0  0  0  0  0
   16.6375   63.7349   32.0752 C   0  0  0  0  0  0  0  0  0  0  0  0
   17.4435   66.3819   32.3849 C   0  0  0  0  0  0  0  0  0  0  0  0
   18.2716   65.4731   31.7365 C   0  0  0  0  0  0  0  0  0  0  0  0
   17.8525   64.1690   31.5383 C   0  0  0  0  0  0  0  0  0  0  0  0
   14.0296   63.6982   34.3415 C   0  0  0  0  0  0  0  0  0  0  0  0
   14.5274   64.1516   33.1599 N   0  0  0  0  0  0  0  0  0  0  0  0
   13.0334   62.9897   34.4136 O   0  0  0  0  0  0  0  0  0  0  0  0
   14.6509   64.3018   35.5694 C   0  0  0  0  0  0  0  0  0  0  0  0
   13.8688   64.1448   32.4282 H   0  0  0  0  0  0  0  0  0  0  0  0
   16.1992   61.6851   30.6920 C   0  0  0  0  0  0  0  0  0  0  0  0
   16.2516   62.3120   31.9979 N   0  0  0  0  0  0  0  0  0  0  0  0
   16.7453   61.4180   33.1356 C   0  0  0  0  0  0  0  0  0  0  0  0
   15.6689   60.4711   33.6426 C   0  0  0  0  0  0  0  0  0  0  0  0
   15.8497   60.1387   35.0722 N   0  0  0  0  0  0  0  0  0  0  0  0
   16.7470   59.6713   35.2017 H   0  0  0  0  0  0  0  0  0  0  0  0
   15.0973   59.5203   35.3753 H   0  0  0  0  0  0  0  0  0  0  0  0
 16 17  1  0  0  0
 16 18  1  0  0  0
 17 18  1  0  0  0
 18 14  1  0  0  0
 14  6  1  0  0  0
 23 24  2  0  0  0
 23 22  1  0  0  0
  5  6  2  0  0  0
  5  4  1  0  0  0
  1 22  1  0  0  0
  1  4  1  0  0  0
 24 21  1  0  0  0
  6 10  1  0  0  0
 22 20  2  0  0  0
  4 11  2  0  0  0
 32 33  1  0  0  0
 32 31  1  0  0  0
 33 34  1  0  0  0
 21 31  1  0  0  0
 21 19  2  0  0  0
 10  7  1  0  0  0
 10  3  1  0  0  0
 31 30  1  0  0  0
 20 19  1  0  0  0
 11  7  1  0  0  0
 19 26  1  0  0  0
  7  8  2  0  0  0
  3  9  2  0  0  0
 26 25  1  0  0  0
  9  8  1  0  0  0
  8 13  1  0  0  0
 28 25  1  0  0  0
 25 27  2  0  0  0
 13 12  3  0  0  0
 14 15  1  0  0  0
  1  2  1  0  0  0
 34 35  1  0  0  0
 34 36  1  0  0  0
 26 29  1  0  0  0
M  END
> <minimizedAffinity>
-9.00250

$$$$
5H8E_5Y3_A_421


 36 39  0  0  0  0  0  0  0  0999 V2000
   17.8636   67.9890   32.7824 N   0  0  0  0  0  0  0  0  0  0  0  0
   17.0459   68.3614   33.1846 H   0  0  0  0  0  0  0  0  0  0  0  0
   22.5155   69.7125   35.0763 N   0  0  0  0  0  0  0  0  0  0  0  0
   19.0341   68.4510   33.3597 C   0  0  0  0  0  0  0  0  0  0  0  0
   19.9148   69.1409   32.5212 C   0  0  0  0  0  0  0  0  0  0  0  0
   21.1440   69.6041   32.9965 C   0  0  0  0  0  0  0  0  0  0  0  0
   20.5058   68.6041   35.1005 C   0  0  0  0  0  0  0  0  0  0  0  0
   21.0501   68.5079   36.3764 C   0  0  0  0  0  0  0  0  0  0  0  0
   22.3192   69.0997   36.2707 C   0  0  0  0  0  0  0  0  0  0  0  0
   21.4103   69.3373   34.3404 N   0  0  0  0  0  0  0  0  0  0  0  0
   19.3071   68.1963   34.6508 N   0  0  0  0  0  0  0  0  0  0  0  0
   19.9961   67.3432   38.4011 N   0  0  0  0  0  0  0  0  0  0  0  0
   20.4689   67.8705   37.5098 C   0  0  0  0  0  0  0  0  0  0  0  0
   22.1005   70.2255   32.1861 N   0  0  0  0  0  0  0  0  0  0  0  0
   22.9287   70.5523   32.6063 H   0  0  0  0  0  0  0  0  0  0  0  0
   22.7769   71.4059   30.0601 C   0  0  0  0  0  0  0  0  0  0  0  0
   21.3321   71.6718   30.2705 C   0  0  0  0  0  0  0  0  0  0  0  0
   21.9309   70.4131   30.7476 C   0  0  0  0  0  0  0  0  0  0  0  0
   18.2612   65.9878   29.6603 C   0  0  0  0  0  0  0  0  0  0  0  0
   18.5132   66.9200   30.6640 C   0  0  0  0  0  0  0  0  0  0  0  0
   17.0333   65.3064   29.6620 C   0  0  0  0  0  0  0  0  0  0  0  0
   17.6211   67.0827   31.7239 C   0  0  0  0  0  0  0  0  0  0  0  0
   16.3936   66.4313   31.6948 C   0  0  0  0  0  0  0  0  0  0  0  0
   16.1181   65.5112   30.6980 C   0  0  0  0  0  0  0  0  0  0  0  0
   20.3045   64.8334   28.6499 C   0  0  0  0  0  0  0  0  0  0  0  0
   19.1956   65.6207   28.6480 N   0  0  0  0  0  0  0  0  0  0  0  0
   21.1818   64.9207   27.8000 O   0  0  0  0  0  0  0  0  0  0  0  0
   20.2803   63.6993   29.6355 C   0  0  0  0  0  0  0  0  0  0  0  0
   18.9979   66.0177   27.7690 H   0  0  0  0  0  0  0  0  0  0  0  0
   16.5085   63.0224   28.7593 C   0  0  0  0  0  0  0  0  0  0  0  0
   16.6861   64.4407   28.5178 N   0  0  0  0  0  0  0  0  0  0  0  0
   15.7525   65.0500   27.4716 C   0  0  0  0  0  0  0  0  0  0  0  0
   16.4961   65.5298   26.2350 C   0  0  0  0  0  0  0  0  0  0  0  0
   17.0374   66.8952   26.4071 N   0  0  0  0  0  0  0  0  0  0  0  0
   16.2700   67.5474   26.5688 H   0  0  0  0  0  0  0  0  0  0  0  0
   17.5443   67.1686   25.5653 H   0  0  0  0  0  0  0  0  0  0  0  0
 16 17  1  0  0  0
 16 18  1  0  0  0
 17 18  1  0  0  0
 18 14  1  0  0  0
 14  6  1  0  0  0
 23 24  2  0  0  0
 23 22  1  0  0  0
  5  6  2  0  0  0
  5  4  1  0  0  0
  1 22  1  0  0  0
  1  4  1  0  0  0
 24 21  1  0  0  0
  6 10  1  0  0  0
 22 20  2  0  0  0
  4 11  2  0  0  0
 32 33  1  0  0  0
 32 31  1  0  0  0
 33 34  1  0  0  0
 21 31  1  0  0  0
 21 19  2  0  0  0
 10  7  1  0  0  0
 10  3  1  0  0  0
 31 30  1  0  0  0
 20 19  1  0  0  0
 11  7  1  0  0  0
 19 26  1  0  0  0
  7  8  2  0  0  0
  3  9  2  0  0  0
 26 25  1  0  0  0
  9  8  1  0  0  0
  8 13  1  0  0  0
 28 25  1  0  0  0
 25 27  2  0  0  0
 13 12  3  0  0  0
 14 15  1  0  0  0
  1  2  1  0  0  0
 34 35  1  0  0  0
 34 36  1  0  0  0
 26 29  1  0  0  0
M  END
> <minimizedAffinity>
-8.48713

$$$$
5H8E_5Y3_A_421


 36 39  0  0  0  0  0  0  0  0999 V2000
   17.6977   67.5617   33.1821 N   0  0  0  0  0  0  0  0  0  0  0  0
   16.8732   67.9751   33.5263 H   0  0  0  0  0  0  0  0  0  0  0  0
   22.3197   69.6324   35.2368 N   0  0  0  0  0  0  0  0  0  0  0  0
   18.8591   68.1110   33.6979 C   0  0  0  0  0  0  0  0  0  0  0  0
   19.6748   68.8056   32.7995 C   0  0  0  0  0  0  0  0  0  0  0  0
   20.8916   69.3543   33.2115 C   0  0  0  0  0  0  0  0  0  0  0  0
   20.3742   68.4230   35.3792 C   0  0  0  0  0  0  0  0  0  0  0  0
   20.9626   68.4157   36.6391 C   0  0  0  0  0  0  0  0  0  0  0  0
   22.1941   69.0674   36.4638 C   0  0  0  0  0  0  0  0  0  0  0  0
   21.2138   69.1657   34.5564 N   0  0  0  0  0  0  0  0  0  0  0  0
   19.1857   67.9322   34.9894 N   0  0  0  0  0  0  0  0  0  0  0  0
   20.0527   67.3325   38.7758 N   0  0  0  0  0  0  0  0  0  0  0  0
   20.4522   67.8032   37.8193 C   0  0  0  0  0  0  0  0  0  0  0  0
   21.7875   69.9858   32.3418 N   0  0  0  0  0  0  0  0  0  0  0  0
   22.6273   70.3416   32.7125 H   0  0  0  0  0  0  0  0  0  0  0  0
   22.5456   70.8406   30.0912 C   0  0  0  0  0  0  0  0  0  0  0  0
   21.2469   71.4916   30.3945 C   0  0  0  0  0  0  0  0  0  0  0  0
   21.5383   70.1430   30.9113 C   0  0  0  0  0  0  0  0  0  0  0  0
   17.4325   64.1752   31.6421 C   0  0  0  0  0  0  0  0  0  0  0  0
   17.7054   65.1795   32.5677 C   0  0  0  0  0  0  0  0  0  0  0  0
   17.0419   64.5395   30.3433 C   0  0  0  0  0  0  0  0  0  0  0  0
   17.4722   66.5185   32.2539 C   0  0  0  0  0  0  0  0  0  0  0  0
   17.1224   66.8688   30.9552 C   0  0  0  0  0  0  0  0  0  0  0  0
   16.8603   65.8860   30.0164 C   0  0  0  0  0  0  0  0  0  0  0  0
   16.6476   61.9681   32.6626 C   0  0  0  0  0  0  0  0  0  0  0  0
   17.4601   62.7800   31.9346 N   0  0  0  0  0  0  0  0  0  0  0  0
   17.0143   60.8870   33.1057 O   0  0  0  0  0  0  0  0  0  0  0  0
   15.2033   62.3810   32.7033 C   0  0  0  0  0  0  0  0  0  0  0  0
   18.2222   62.3087   31.5266 H   0  0  0  0  0  0  0  0  0  0  0  0
   15.5901   62.9582   29.0401 C   0  0  0  0  0  0  0  0  0  0  0  0
   16.9096   63.4945   29.3090 N   0  0  0  0  0  0  0  0  0  0  0  0
   17.8219   63.6344   28.0902 C   0  0  0  0  0  0  0  0  0  0  0  0
   19.2607   63.9459   28.4711 C   0  0  0  0  0  0  0  0  0  0  0  0
   20.2256   63.3946   27.4953 N   0  0  0  0  0  0  0  0  0  0  0  0
   20.1355   62.3791   27.4647 H   0  0  0  0  0  0  0  0  0  0  0  0
   21.1738   63.6436   27.7769 H   0  0  0  0  0  0  0  0  0  0  0  0
 16 17  1  0  0  0
 16 18  1  0  0  0
 17 18  1  0  0  0
 18 14  1  0  0  0
 14  6  1  0  0  0
 23 24  2  0  0  0
 23 22  1  0  0  0
  5  6  2  0  0  0
  5  4  1  0  0  0
  1 22  1  0  0  0
  1  4  1  0  0  0
 24 21  1  0  0  0
  6 10  1  0  0  0
 22 20  2  0  0  0
  4 11  2  0  0  0
 32 33  1  0  0  0
 32 31  1  0  0  0
 33 34  1  0  0  0
 21 31  1  0  0  0
 21 19  2  0  0  0
 10  7  1  0  0  0
 10  3  1  0  0  0
 31 30  1  0  0  0
 20 19  1  0  0  0
 11  7  1  0  0  0
 19 26  1  0  0  0
  7  8  2  0  0  0
  3  9  2  0  0  0
 26 25  1  0  0  0
  9  8  1  0  0  0
  8 13  1  0  0  0
 28 25  1  0  0  0
 25 27  2  0  0  0
 13 12  3  0  0  0
 14 15  1  0  0  0
  1  2  1  0  0  0
 34 35  1  0  0  0
 34 36  1  0  0  0
 26 29  1  0  0  0
M  END
> <minimizedAffinity>
-8.39745

$$$$
5H8E_5Y3_A_421


 36 39  0  0  0  0  0  0  0  0999 V2000
   17.0184   67.1183   31.0869 N   0  0  0  0  0  0  0  0  0  0  0  0
   16.4644   67.6012   30.4318 H   0  0  0  0  0  0  0  0  0  0  0  0
   21.2450   70.0783   32.8887 N   0  0  0  0  0  0  0  0  0  0  0  0
   18.1013   67.8454   31.5510 C   0  0  0  0  0  0  0  0  0  0  0  0
   18.3223   67.8255   32.9314 C   0  0  0  0  0  0  0  0  0  0  0  0
   19.3594   68.5665   33.5030 C   0  0  0  0  0  0  0  0  0  0  0  0
   19.8306   69.3084   31.2532 C   0  0  0  0  0  0  0  0  0  0  0  0
   20.7768   70.1204   30.6376 C   0  0  0  0  0  0  0  0  0  0  0  0
   21.5374   70.6489   31.6931 C   0  0  0  0  0  0  0  0  0  0  0  0
   20.1402   69.3007   32.6089 N   0  0  0  0  0  0  0  0  0  0  0  0
   18.8582   68.5623   30.7027 N   0  0  0  0  0  0  0  0  0  0  0  0
   20.9475   70.6498   28.1361 N   0  0  0  0  0  0  0  0  0  0  0  0
   20.8836   70.4081   29.2467 C   0  0  0  0  0  0  0  0  0  0  0  0
   19.5775   68.6526   34.8825 N   0  0  0  0  0  0  0  0  0  0  0  0
   19.0025   69.2523   35.4106 H   0  0  0  0  0  0  0  0  0  0  0  0
   20.6505   67.9336   37.0510 C   0  0  0  0  0  0  0  0  0  0  0  0
   21.6877   68.6418   36.2604 C   0  0  0  0  0  0  0  0  0  0  0  0
   20.6160   67.8964   35.5775 C   0  0  0  0  0  0  0  0  0  0  0  0
   15.1140   64.2705   32.5612 C   0  0  0  0  0  0  0  0  0  0  0  0
   15.5725   65.5656   32.3322 C   0  0  0  0  0  0  0  0  0  0  0  0
   15.7496   63.2019   31.9084 C   0  0  0  0  0  0  0  0  0  0  0  0
   16.5579   65.8126   31.3763 C   0  0  0  0  0  0  0  0  0  0  0  0
   17.2048   64.7451   30.7650 C   0  0  0  0  0  0  0  0  0  0  0  0
   16.7734   63.4493   30.9899 C   0  0  0  0  0  0  0  0  0  0  0  0
   13.8458   63.6973   34.7041 C   0  0  0  0  0  0  0  0  0  0  0  0
   13.9890   63.9456   33.3747 N   0  0  0  0  0  0  0  0  0  0  0  0
   12.8916   63.0839   35.1655 O   0  0  0  0  0  0  0  0  0  0  0  0
   14.8207   64.4132   35.5957 C   0  0  0  0  0  0  0  0  0  0  0  0
   13.1445   63.8896   32.8719 H   0  0  0  0  0  0  0  0  0  0  0  0
   15.1398   60.8732   31.1930 C   0  0  0  0  0  0  0  0  0  0  0  0
   15.3842   61.8170   32.2657 N   0  0  0  0  0  0  0  0  0  0  0  0
   16.0674   61.2390   33.5053 C   0  0  0  0  0  0  0  0  0  0  0  0
   15.3419   60.0221   34.0574 C   0  0  0  0  0  0  0  0  0  0  0  0
   15.8324   59.6448   35.4005 N   0  0  0  0  0  0  0  0  0  0  0  0
   16.8225   59.4059   35.3462 H   0  0  0  0  0  0  0  0  0  0  0  0
   15.3065   58.8398   35.7408 H   0  0  0  0  0  0  0  0  0  0  0  0
 16 17  1  0  0  0
 16 18  1  0  0  0
 17 18  1  0  0  0
 18 14  1  0  0  0
 14  6  1  0  0  0
 23 24  2  0  0  0
 23 22  1  0  0  0
  5  6  2  0  0  0
  5  4  1  0  0  0
  1 22  1  0  0  0
  1  4  1  0  0  0
 24 21  1  0  0  0
  6 10  1  0  0  0
 22 20  2  0  0  0
  4 11  2  0  0  0
 32 33  1  0  0  0
 32 31  1  0  0  0
 33 34  1  0  0  0
 21 31  1  0  0  0
 21 19  2  0  0  0
 10  7  1  0  0  0
 10  3  1  0  0  0
 31 30  1  0  0  0
 20 19  1  0  0  0
 11  7  1  0  0  0
 19 26  1  0  0  0
  7  8  2  0  0  0
  3  9  2  0  0  0
 26 25  1  0  0  0
  9  8  1  0  0  0
  8 13  1  0  0  0
 28 25  1  0  0  0
 25 27  2  0  0  0
 13 12  3  0  0  0
 14 15  1  0  0  0
  1  2  1  0  0  0
 34 35  1  0  0  0
 34 36  1  0  0  0
 26 29  1  0  0  0
M  END
> <minimizedAffinity>
-8.29395

$$$$
5H8E_5Y3_A_421


 36 39  0  0  0  0  0  0  0  0999 V2000
   19.2301   68.2860   33.5125 N   0  0  0  0  0  0  0  0  0  0  0  0
   19.6246   68.7464   34.2881 H   0  0  0  0  0  0  0  0  0  0  0  0
   16.1624   63.9615   34.8393 N   0  0  0  0  0  0  0  0  0  0  0  0
   18.4310   67.2060   33.8471 C   0  0  0  0  0  0  0  0  0  0  0  0
   17.7705   67.2746   35.0775 C   0  0  0  0  0  0  0  0  0  0  0  0
   16.9801   66.2145   35.5278 C   0  0  0  0  0  0  0  0  0  0  0  0
   17.6219   65.1008   33.4828 C   0  0  0  0  0  0  0  0  0  0  0  0
   17.3357   63.8895   32.8627 C   0  0  0  0  0  0  0  0  0  0  0  0
   16.5366   63.1943   33.7847 C   0  0  0  0  0  0  0  0  0  0  0  0
   16.8986   65.1162   34.6703 N   0  0  0  0  0  0  0  0  0  0  0  0
   18.3479   66.1387   33.0346 N   0  0  0  0  0  0  0  0  0  0  0  0
   18.2293   63.0575   30.6097 N   0  0  0  0  0  0  0  0  0  0  0  0
   17.8237   63.4353   31.6040 C   0  0  0  0  0  0  0  0  0  0  0  0
   16.3639   66.1902   36.7838 N   0  0  0  0  0  0  0  0  0  0  0  0
   15.4540   65.8202   36.8516 H   0  0  0  0  0  0  0  0  0  0  0  0
   18.3296   66.1561   38.3667 C   0  0  0  0  0  0  0  0  0  0  0  0
   17.1277   65.7741   39.1492 C   0  0  0  0  0  0  0  0  0  0  0  0
   17.0039   66.6866   37.9992 C   0  0  0  0  0  0  0  0  0  0  0  0
   19.3349   69.0667   29.8670 C   0  0  0  0  0  0  0  0  0  0  0  0
   18.9880   68.4571   31.0703 C   0  0  0  0  0  0  0  0  0  0  0  0
   20.3889   69.9946   29.8573 C   0  0  0  0  0  0  0  0  0  0  0  0
   19.5867   68.8526   32.2665 C   0  0  0  0  0  0  0  0  0  0  0  0
   20.6533   69.7433   32.2392 C   0  0  0  0  0  0  0  0  0  0  0  0
   21.0228   70.3496   31.0511 C   0  0  0  0  0  0  0  0  0  0  0  0
   18.8688   68.0379   27.5750 C   0  0  0  0  0  0  0  0  0  0  0  0
   18.6497   68.8635   28.6333 N   0  0  0  0  0  0  0  0  0  0  0  0
   18.4062   68.2499   26.4612 O   0  0  0  0  0  0  0  0  0  0  0  0
   19.5330   66.7325   27.9108 C   0  0  0  0  0  0  0  0  0  0  0  0
   17.8570   69.4373   28.5257 H   0  0  0  0  0  0  0  0  0  0  0  0
   20.3933   71.8197   28.1323 C   0  0  0  0  0  0  0  0  0  0  0  0
   20.8741   70.5232   28.5672 N   0  0  0  0  0  0  0  0  0  0  0  0
   22.3292   70.2116   28.2165 C   0  0  0  0  0  0  0  0  0  0  0  0
   23.1175   71.4556   27.8380 C   0  0  0  0  0  0  0  0  0  0  0  0
   24.1784   71.7617   28.8217 N   0  0  0  0  0  0  0  0  0  0  0  0
   23.7561   71.9387   29.7332 H   0  0  0  0  0  0  0  0  0  0  0  0
   24.6940   72.5883   28.5196 H   0  0  0  0  0  0  0  0  0  0  0  0
 16 17  1  0  0  0
 16 18  1  0  0  0
 17 18  1  0  0  0
 18 14  1  0  0  0
 14  6  1  0  0  0
 23 24  2  0  0  0
 23 22  1  0  0  0
  5  6  2  0  0  0
  5  4  1  0  0  0
  1 22  1  0  0  0
  1  4  1  0  0  0
 24 21  1  0  0  0
  6 10  1  0  0  0
 22 20  2  0  0  0
  4 11  2  0  0  0
 32 33  1  0  0  0
 32 31  1  0  0  0
 33 34  1  0  0  0
 21 31  1  0  0  0
 21 19  2  0  0  0
 10  7  1  0  0  0
 10  3  1  0  0  0
 31 30  1  0  0  0
 20 19  1  0  0  0
 11  7  1  0  0  0
 19 26  1  0  0  0
  7  8  2  0  0  0
  3  9  2  0  0  0
 26 25  1  0  0  0
  9  8  1  0  0  0
  8 13  1  0  0  0
 28 25  1  0  0  0
 25 27  2  0  0  0
 13 12  3  0  0  0
 14 15  1  0  0  0
  1  2  1  0  0  0
 34 35  1  0  0  0
 34 36  1  0  0  0
 26 29  1  0  0  0
M  END
> <minimizedAffinity>
-8.01340

$$$$
5H8E_5Y3_A_421


 36 39  0  0  0  0  0  0  0  0999 V2000
   15.4074   64.4711   32.9235 N   0  0  0  0  0  0  0  0  0  0  0  0
   14.9392   64.9191   32.1824 H   0  0  0  0  0  0  0  0  0  0  0  0
   19.0173   67.7225   35.4274 N   0  0  0  0  0  0  0  0  0  0  0  0
   16.3324   65.2731   33.5699 C   0  0  0  0  0  0  0  0  0  0  0  0
   16.2194   65.3617   34.9606 C   0  0  0  0  0  0  0  0  0  0  0  0
   17.0741   66.1834   35.6993 C   0  0  0  0  0  0  0  0  0  0  0  0
   18.0498   66.7799   33.5718 C   0  0  0  0  0  0  0  0  0  0  0  0
   19.0967   67.5832   33.1333 C   0  0  0  0  0  0  0  0  0  0  0  0
   19.5726   68.2169   34.2925 C   0  0  0  0  0  0  0  0  0  0  0  0
   18.0284   66.8824   34.9583 N   0  0  0  0  0  0  0  0  0  0  0  0
   17.2530   65.9572   32.8692 N   0  0  0  0  0  0  0  0  0  0  0  0
   19.8898   67.9254   30.7207 N   0  0  0  0  0  0  0  0  0  0  0  0
   19.5245   67.7741   31.7882 C   0  0  0  0  0  0  0  0  0  0  0  0
   16.9561   66.3775   37.0800 N   0  0  0  0  0  0  0  0  0  0  0  0
   16.3469   67.0799   37.4035 H   0  0  0  0  0  0  0  0  0  0  0  0
   17.2888   65.6722   39.4806 C   0  0  0  0  0  0  0  0  0  0  0  0
   18.5556   66.2974   39.0260 C   0  0  0  0  0  0  0  0  0  0  0  0
   17.6923   65.5893   38.0649 C   0  0  0  0  0  0  0  0  0  0  0  0
   15.0753   60.7730   32.5709 C   0  0  0  0  0  0  0  0  0  0  0  0
   15.4568   62.0879   32.3151 C   0  0  0  0  0  0  0  0  0  0  0  0
   14.1292   60.5266   33.5790 C   0  0  0  0  0  0  0  0  0  0  0  0
   15.0081   63.1295   33.1271 C   0  0  0  0  0  0  0  0  0  0  0  0
   14.0441   62.8785   34.0963 C   0  0  0  0  0  0  0  0  0  0  0  0
   13.6412   61.5802   34.3566 C   0  0  0  0  0  0  0  0  0  0  0  0
   15.2730   58.9394   30.8024 C   0  0  0  0  0  0  0  0  0  0  0  0
   15.6270   59.6319   31.9181 N   0  0  0  0  0  0  0  0  0  0  0  0
   15.6311   57.7869   30.5953 O   0  0  0  0  0  0  0  0  0  0  0  0
   14.5956   59.7519   29.7352 C   0  0  0  0  0  0  0  0  0  0  0  0
   16.4266   59.2722   32.3658 H   0  0  0  0  0  0  0  0  0  0  0  0
   13.7651   58.5132   35.0352 C   0  0  0  0  0  0  0  0  0  0  0  0
   13.5947   59.1611   33.7498 N   0  0  0  0  0  0  0  0  0  0  0  0
   12.2794   58.8585   33.0316 C   0  0  0  0  0  0  0  0  0  0  0  0
   11.4400   57.8229   33.7633 C   0  0  0  0  0  0  0  0  0  0  0  0
   10.4613   57.1683   32.8686 N   0  0  0  0  0  0  0  0  0  0  0  0
    9.8191   57.8683   32.4970 H   0  0  0  0  0  0  0  0  0  0  0  0
    9.9357   56.4690   33.3931 H   0  0  0  0  0  0  0  0  0  0  0  0
 16 17  1  0  0  0
 16 18  1  0  0  0
 17 18  1  0  0  0
 18 14  1  0  0  0
 14  6  1  0  0  0
 23 24  2  0  0  0
 23 22  1  0  0  0
  5  6  2  0  0  0
  5  4  1  0  0  0
  1 22  1  0  0  0
  1  4  1  0  0  0
 24 21  1  0  0  0
  6 10  1  0  0  0
 22 20  2  0  0  0
  4 11  2  0  0  0
 32 33  1  0  0  0
 32 31  1  0  0  0
 33 34  1  0  0  0
 21 31  1  0  0  0
 21 19  2  0  0  0
 10  7  1  0  0  0
 10  3  1  0  0  0
 31 30  1  0  0  0
 20 19  1  0  0  0
 11  7  1  0  0  0
 19 26  1  0  0  0
  7  8  2  0  0  0
  3  9  2  0  0  0
 26 25  1  0  0  0
  9  8  1  0  0  0
  8 13  1  0  0  0
 28 25  1  0  0  0
 25 27  2  0  0  0
 13 12  3  0  0  0
 14 15  1  0  0  0
  1  2  1  0  0  0
 34 35  1  0  0  0
 34 36  1  0  0  0
 26 29  1  0  0  0
M  END
> <minimizedAffinity>
-8.01122

$$$$
5H8E_5Y3_A_421


 36 39  0  0  0  0  0  0  0  0999 V2000
   16.7733   66.5102   33.7929 N   0  0  0  0  0  0  0  0  0  0  0  0
   16.1790   67.1668   33.3628 H   0  0  0  0  0  0  0  0  0  0  0  0
   20.8676   68.6569   36.7083 N   0  0  0  0  0  0  0  0  0  0  0  0
   17.8001   67.0785   34.5273 C   0  0  0  0  0  0  0  0  0  0  0  0
   18.6893   67.8995   33.8273 C   0  0  0  0  0  0  0  0  0  0  0  0
   19.7864   68.4799   34.4682 C   0  0  0  0  0  0  0  0  0  0  0  0
   19.0166   67.3256   36.4453 C   0  0  0  0  0  0  0  0  0  0  0  0
   19.4066   67.2386   37.7772 C   0  0  0  0  0  0  0  0  0  0  0  0
   20.5996   67.9758   37.8507 C   0  0  0  0  0  0  0  0  0  0  0  0
   19.9145   68.1890   35.8273 N   0  0  0  0  0  0  0  0  0  0  0  0
   17.9398   66.8025   35.8353 N   0  0  0  0  0  0  0  0  0  0  0  0
   18.2418   65.8904   39.6189 N   0  0  0  0  0  0  0  0  0  0  0  0
   18.7697   66.4917   38.8092 C   0  0  0  0  0  0  0  0  0  0  0  0
   20.7551   69.2404   33.8039 N   0  0  0  0  0  0  0  0  0  0  0  0
   21.6462   69.3246   34.2139 H   0  0  0  0  0  0  0  0  0  0  0  0
   21.2171   69.4375   31.3304 C   0  0  0  0  0  0  0  0  0  0  0  0
   21.5892   70.7327   31.9521 C   0  0  0  0  0  0  0  0  0  0  0  0
   20.5093   69.9155   32.5322 C   0  0  0  0  0  0  0  0  0  0  0  0
   15.4292   63.4363   32.1634 C   0  0  0  0  0  0  0  0  0  0  0  0
   15.7269   64.7770   32.3952 C   0  0  0  0  0  0  0  0  0  0  0  0
   15.7193   62.4955   33.1648 C   0  0  0  0  0  0  0  0  0  0  0  0
   16.4169   65.1642   33.5439 C   0  0  0  0  0  0  0  0  0  0  0  0
   16.6647   64.2309   34.5437 C   0  0  0  0  0  0  0  0  0  0  0  0
   16.3637   62.8956   34.3386 C   0  0  0  0  0  0  0  0  0  0  0  0
   15.3491   62.9411   29.6580 C   0  0  0  0  0  0  0  0  0  0  0  0
   14.8994   62.9276   30.9414 N   0  0  0  0  0  0  0  0  0  0  0  0
   14.6097   62.7869   28.6942 O   0  0  0  0  0  0  0  0  0  0  0  0
   16.8440   62.9379   29.5056 C   0  0  0  0  0  0  0  0  0  0  0  0
   14.0319   62.4747   31.0484 H   0  0  0  0  0  0  0  0  0  0  0  0
   16.1729   60.0331   33.3584 C   0  0  0  0  0  0  0  0  0  0  0  0
   15.2611   61.1018   33.0012 N   0  0  0  0  0  0  0  0  0  0  0  0
   13.7872   60.8372   33.3094 C   0  0  0  0  0  0  0  0  0  0  0  0
   13.5631   60.3849   34.7438 C   0  0  0  0  0  0  0  0  0  0  0  0
   13.0572   61.4802   35.5990 N   0  0  0  0  0  0  0  0  0  0  0  0
   13.7424   62.2353   35.6252 H   0  0  0  0  0  0  0  0  0  0  0  0
   12.9016   61.1294   36.5441 H   0  0  0  0  0  0  0  0  0  0  0  0
 16 17  1  0  0  0
 16 18  1  0  0  0
 17 18  1  0  0  0
 18 14  1  0  0  0
 14  6  1  0  0  0
 23 24  2  0  0  0
 23 22  1  0  0  0
  5  6  2  0  0  0
  5  4  1  0  0  0
  1 22  1  0  0  0
  1  4  1  0  0  0
 24 21  1  0  0  0
  6 10  1  0  0  0
 22 20  2  0  0  0
  4 11  2  0  0  0
 32 33  1  0  0  0
 32 31  1  0  0  0
 33 34  1  0  0  0
 21 31  1  0  0  0
 21 19  2  0  0  0
 10  7  1  0  0  0
 10  3  1  0  0  0
 31 30  1  0  0  0
 20 19  1  0  0  0
 11  7  1  0  0  0
 19 26  1  0  0  0
  7  8  2  0  0  0
  3  9  2  0  0  0
 26 25  1  0  0  0
  9  8  1  0  0  0
  8 13  1  0  0  0
 28 25  1  0  0  0
 25 27  2  0  0  0
 13 12  3  0  0  0
 14 15  1  0  0  0
  1  2  1  0  0  0
 34 35  1  0  0  0
 34 36  1  0  0  0
 26 29  1  0  0  0
M  END
> <minimizedAffinity>
-7.99893

$$$$
5H8E_5Y3_A_421


 36 39  0  0  0  0  0  0  0  0999 V2000
   16.8390   67.3869   32.0002 N   0  0  0  0  0  0  0  0  0  0  0  0
   16.1008   67.9904   31.7553 H   0  0  0  0  0  0  0  0  0  0  0  0
   21.6838   69.9127   32.1407 N   0  0  0  0  0  0  0  0  0  0  0  0
   18.0778   68.0036   32.0437 C   0  0  0  0  0  0  0  0  0  0  0  0
   18.6690   68.1304   33.3042 C   0  0  0  0  0  0  0  0  0  0  0  0
   19.8952   68.7814   33.4596 C   0  0  0  0  0  0  0  0  0  0  0  0
   19.7997   69.1505   31.0745 C   0  0  0  0  0  0  0  0  0  0  0  0
   20.6176   69.7309   30.1113 C   0  0  0  0  0  0  0  0  0  0  0  0
   21.6915   70.2758   30.8335 C   0  0  0  0  0  0  0  0  0  0  0  0
   20.4699   69.2733   32.2866 N   0  0  0  0  0  0  0  0  0  0  0  0
   18.6405   68.4880   30.9234 N   0  0  0  0  0  0  0  0  0  0  0  0
   20.1687   69.8642   27.5919 N   0  0  0  0  0  0  0  0  0  0  0  0
   20.3645   69.8180   28.7124 C   0  0  0  0  0  0  0  0  0  0  0  0
   20.4945   69.0125   34.7027 N   0  0  0  0  0  0  0  0  0  0  0  0
   20.7593   69.9329   34.9307 H   0  0  0  0  0  0  0  0  0  0  0  0
   20.0834   68.0347   36.9931 C   0  0  0  0  0  0  0  0  0  0  0  0
   21.5420   68.2814   36.8753 C   0  0  0  0  0  0  0  0  0  0  0  0
   20.7467   67.9555   35.6787 C   0  0  0  0  0  0  0  0  0  0  0  0
   15.3429   63.9977   31.5700 C   0  0  0  0  0  0  0  0  0  0  0  0
   15.6884   65.3228   31.3161 C   0  0  0  0  0  0  0  0  0  0  0  0
   15.6445   63.4483   32.8267 C   0  0  0  0  0  0  0  0  0  0  0  0
   16.4340   66.0532   32.2414 C   0  0  0  0  0  0  0  0  0  0  0  0
   16.6935   65.5121   33.4950 C   0  0  0  0  0  0  0  0  0  0  0  0
   16.3458   64.2013   33.7722 C   0  0  0  0  0  0  0  0  0  0  0  0
   15.0976   62.7557   29.3505 C   0  0  0  0  0  0  0  0  0  0  0  0
   14.7510   63.1214   30.6137 N   0  0  0  0  0  0  0  0  0  0  0  0
   14.2959   62.2888   28.5513 O   0  0  0  0  0  0  0  0  0  0  0  0
   16.5735   62.7560   29.0683 C   0  0  0  0  0  0  0  0  0  0  0  0
   13.9232   62.6943   30.9325 H   0  0  0  0  0  0  0  0  0  0  0  0
   16.1033   61.0400   33.3713 C   0  0  0  0  0  0  0  0  0  0  0  0
   15.1396   62.1034   33.1671 N   0  0  0  0  0  0  0  0  0  0  0  0
   13.9083   62.0558   34.0720 C   0  0  0  0  0  0  0  0  0  0  0  0
   13.5357   60.6380   34.4761 C   0  0  0  0  0  0  0  0  0  0  0  0
   13.1111   60.5568   35.8903 N   0  0  0  0  0  0  0  0  0  0  0  0
   13.8799   60.8494   36.4934 H   0  0  0  0  0  0  0  0  0  0  0  0
   12.8513   59.5958   36.1127 H   0  0  0  0  0  0  0  0  0  0  0  0
 16 17  1  0  0  0
 16 18  1  0  0  0
 17 18  1  0  0  0
 18 14  1  0  0  0
 14  6  1  0  0  0
 23 24  2  0  0  0
 23 22  1  0  0  0
  5  6  2  0  0  0
  5  4  1  0  0  0
  1 22  1  0  0  0
  1  4  1  0  0  0
 24 21  1  0  0  0
  6 10  1  0  0  0
 22 20  2  0  0  0
  4 11  2  0  0  0
 32 33  1  0  0  0
 32 31  1  0  0  0
 33 34  1  0  0  0
 21 31  1  0  0  0
 21 19  2  0  0  0
 10  7  1  0  0  0
 10  3  1  0  0  0
 31 30  1  0  0  0
 20 19  1  0  0  0
 11  7  1  0  0  0
 19 26  1  0  0  0
  7  8  2  0  0  0
  3  9  2  0  0  0
 26 25  1  0  0  0
  9  8  1  0  0  0
  8 13  1  0  0  0
 28 25  1  0  0  0
 25 27  2  0  0  0
 13 12  3  0  0  0
 14 15  1  0  0  0
  1  2  1  0  0  0
 34 35  1  0  0  0
 34 36  1  0  0  0
 26 29  1  0  0  0
M  END
> <minimizedAffinity>
-7.77199

$$$$
