2PQC_RC1_A_601
  RCSB PDB12061706403D
Coordinates from PDB:2PQC:A:601 Model:1 without hydrogens
 25 25  0  0  0  0            999 V2000
 -127.4420   32.1270  127.3300   C 0  0  0  0  0  0  0  0  0  0  0  0
 -127.1060   32.5990  125.9920   C 0  0  0  0  0  0  0  0  0  0  0  0
 -128.1620   32.5360  124.8600   C 0  0  0  0  0  0  0  0  0  0  0  0
 -129.5960   32.5890  125.4260   C 0  0  0  0  0  0  0  0  0  0  0  0
 -129.7950   31.4570  126.4680   C 0  0  0  0  0  0  0  0  0  0  0  0
 -128.7560   31.5780  127.6310   C 0  0  0  0  0  0  0  0  0  0  0  0
 -126.3830   32.2050  128.4020   C 0  0  0  0  0  0  0  0  0  0  0  0
 -127.9790   31.3100  124.0410   O 0  0  0  0  0  0  0  0  0  0  0  0
 -130.5180   32.4700  124.3250   O 0  0  0  0  0  0  0  0  0  0  0  0
 -131.1530   31.4620  127.0060   O 0  0  0  0  0  0  0  0  0  0  0  0
 -125.2190   32.1160  128.0350   O 0  0  0  0  0  0  0  0  0  0  0  0
 -126.7150   32.2950  129.5800   O 0  0  0  0  0  0  0  0  0  0  0  0
 -127.1220   31.2190  122.7270   P 0  0  0  0  0  0  0  0  0  0  0  0
 -125.6880   31.1760  123.1160   O 0  0  0  0  0  0  0  0  0  0  0  0
 -127.4050   32.4290  121.9230   O 0  0  0  0  0  0  0  0  0  0  0  0
 -127.4670   29.9840  121.9820   O 0  0  0  0  0  0  0  0  0  0  0  0
 -131.7990   30.1520  126.6990   C 0  0  0  0  0  0  0  0  0  0  0  0
 -132.0900   29.8260  125.2230   C 0  0  0  0  0  0  0  0  0  0  0  0
 -130.9950   28.9580  127.3080   C 0  0  0  0  0  0  0  0  0  0  0  0
 -130.6980   27.9760  126.5770   O 0  0  0  0  0  0  0  0  0  0  0  0
 -130.6680   29.0240  128.4990   O 0  0  0  0  0  0  0  0  0  0  0  0
 -133.3300   30.3460  127.6500   P 0  0  0  0  0  0  0  0  0  0  0  0
 -134.4510   30.8250  126.7170   O 0  0  0  0  0  0  0  0  0  0  0  0
 -133.1450   31.3290  128.7990   O 0  0  0  0  0  0  0  0  0  0  0  0
 -133.6140   28.9120  128.1030   O 0  0  0  0  0  0  0  0  0  0  0  0
  1  2  2  0  0  0  0
  1  6  1  0  0  0  0
  1  7  1  0  0  0  0
  2  3  1  0  0  0  0
  3  4  1  0  0  0  0
  3  8  1  0  0  0  0
  4  5  1  0  0  0  0
  4  9  1  0  0  0  0
  5  6  1  0  0  0  0
  5 10  1  0  0  0  0
  7 11  2  0  0  0  0
  7 12  1  0  0  0  0
  8 13  1  0  0  0  0
 10 17  1  0  0  0  0
 13 14  2  0  0  0  0
 13 15  1  0  0  0  0
 13 16  1  0  0  0  0
 17 18  1  0  0  0  0
 17 19  1  0  0  0  0
 17 22  1  0  0  0  0
 19 20  2  0  0  0  0
 19 21  1  0  0  0  0
 22 23  1  0  0  0  0
 22 24  2  0  0  0  0
 22 25  1  0  0  0  0
A    1
C1
A    2
C2
A    3
C3
A    4
C4
A    5
C5
A    6
C6
A    7
C7
A    8
O1
A    9
O2
A   10
O3
A   11
O4
A   12
O5
A   13
P1
A   14
O6
A   15
O7
A   16
O8
A   17
C8
A   18
C9
A   19
C10
A   20
O9
A   21
O10
A   22
P2
A   23
O11
A   24
O12
A   25
O13
M  END
>  <InstanceId>
2PQC_RC1_A_601

>  <ChemCompId>
RC1

>  <PdbId>
2PQC

>  <ChainId>
A

>  <ResidueNumber>
601

>  <InsertionCode>


>  <Model>
1

>  <AltIds>


>  <MissingHeavyAtoms>
0

>  <ObservedFormula>
C10 O13 P2

>  <Name>
[3R-[3A,4A,5B(R*)]]-5-(1-CARBOXY-1-PHOSPHONOETHOXY)-4-HYDROXY-3-(PHOSPHONOOXY)-1-CYCLOHEXENE-1-CARBOXYLIC ACID

>  <SystematicName>
(3R,4S,5R)-4-hydroxy-5-[(2R)-1-hydroxy-1-oxo-2-phosphono-propan-2-yl]oxy-3-phosphonooxy-cyclohexene-1-carboxylic acid

>  <Synonyms>


>  <Type>
NON-POLYMER

>  <Formula>
C10 H16 O13 P2

>  <MolecularWeight>
406.174

>  <ModifiedDate>
2011-06-04

>  <Parent>


>  <OneLetterCode>


>  <SubcomponentList>


>  <AmbiguousFlag>
N

>  <InChI>
InChI=1S/C10H16O13P2/c1-10(9(14)15,24(16,17)18)22-5-2-4(8(12)13)3-6(7(5)11)23-25(19,20)21/h3,5-7,11H,2H2,1H3,(H,12,13)(H,14,15)(H2,16,17,18)(H2,19,20,21)/t5-,6-,7+,10-/m1/s1

>  <InChIKey>
HUOJJMMXOWLGJU-QGOVLLJGSA-N

>  <SMILES>
C[C@@](C(=O)O)(O[C@@H]1CC(=C[C@H]([C@H]1O)OP(=O)(O)O)C(=O)O)P(=O)(O)O

$$$$
