5E2O_5JM_A_301


 40 43  0  0  0  0  0  0  0  0999 V2000
   40.2486  -20.4225   28.7347 C   0  0  0  0  0  0  0  0  0  0  0  0
   39.0162  -18.4572   28.0194 N   0  0  0  0  0  0  0  0  0  0  0  0
   39.6200  -19.0761   29.0621 C   0  0  0  0  0  0  0  0  0  0  0  0
   39.6230  -18.6640   30.2182 O   0  0  0  0  0  0  0  0  0  0  0  0
   39.0801  -18.9239   27.1549 H   0  0  0  0  0  0  0  0  0  0  0  0
   36.9580  -14.7748   27.8586 C   0  0  0  0  0  0  0  0  0  0  0  0
   36.4147  -15.8451   28.5631 C   0  0  0  0  0  0  0  0  0  0  0  0
   37.0668  -17.0648   28.6166 C   0  0  0  0  0  0  0  0  0  0  0  0
   38.3039  -17.2288   27.9996 C   0  0  0  0  0  0  0  0  0  0  0  0
   38.2022  -14.9418   27.2514 C   0  0  0  0  0  0  0  0  0  0  0  0
   38.8704  -16.1535   27.3226 C   0  0  0  0  0  0  0  0  0  0  0  0
   36.2309  -13.4692   27.7969 C   0  0  0  0  0  0  0  0  0  0  0  0
   35.3050  -13.2100   28.5680 O   0  0  0  0  0  0  0  0  0  0  0  0
   36.7332  -12.5922   26.9746 O   0  0  0  0  0  0  0  0  0  0  0  0
   37.4374  -12.8332   26.4054 H   0  0  0  0  0  0  0  0  0  0  0  0
   42.0113  -20.6775   27.0848 C   0  0  0  0  0  0  0  0  0  0  0  0
   41.6280  -20.2695   28.3118 N   0  0  0  0  0  0  0  0  0  0  0  0
   41.1819  -21.1800   26.3184 O   0  0  0  0  0  0  0  0  0  0  0  0
   42.2865  -19.8665   28.9226 H   0  0  0  0  0  0  0  0  0  0  0  0
   43.4682  -20.8468   26.8827 C   0  0  0  0  0  0  0  0  0  0  0  0
   44.1714  -21.6529   27.6580 C   0  0  0  0  0  0  0  0  0  0  0  0
   45.6279  -21.8841   27.6357 C   0  0  0  0  0  0  0  0  0  0  0  0
   46.3174  -21.7698   28.8543 C   0  0  0  0  0  0  0  0  0  0  0  0
   47.7458  -21.8963   26.4742 C   0  0  0  0  0  0  0  0  0  0  0  0
   47.7111  -21.6594   28.8563 C   0  0  0  0  0  0  0  0  0  0  0  0
   48.4285  -21.7300   27.6673 C   0  0  0  0  0  0  0  0  0  0  0  0
   46.3609  -21.9867   26.4404 C   0  0  0  0  0  0  0  0  0  0  0  0
   48.6450  -21.9438   24.9784 Cl  0  0  0  0  0  0  0  0  0  0  0  0
   45.6325  -21.8588   30.1029 N   0  0  0  0  0  0  0  0  0  0  0  0
   44.9872  -20.9711   30.8845 C   0  0  0  0  0  0  0  0  0  0  0  0
   44.5340  -21.5478   31.9617 N   0  0  0  0  0  0  0  0  0  0  0  0
   44.9150  -22.8428   31.8646 N   0  0  0  0  0  0  0  0  0  0  0  0
   45.5634  -23.0470   30.7636 N   0  0  0  0  0  0  0  0  0  0  0  0
   40.1003  -21.3633   29.9430 C   0  0  0  0  0  0  0  0  0  0  0  0
   40.6036  -24.6990   28.1973 C   0  0  0  0  0  0  0  0  0  0  0  0
   40.0190  -23.5132   28.6254 C   0  0  0  0  0  0  0  0  0  0  0  0
   40.5979  -22.7607   29.6402 C   0  0  0  0  0  0  0  0  0  0  0  0
   41.7514  -23.2487   30.2437 C   0  0  0  0  0  0  0  0  0  0  0  0
   42.3399  -24.4254   29.8102 C   0  0  0  0  0  0  0  0  0  0  0  0
   41.7692  -25.1503   28.7860 C   0  0  0  0  0  0  0  0  0  0  0  0
 31 30  2  0  0  0
 31 32  1  0  0  0
 30 29  1  0  0  0
 32 33  2  0  0  0
 29 33  1  0  0  0
 29 23  1  0  0  0
 25 23  2  0  0  0
 25 26  1  0  0  0
 23 22  1  0  0  0
 36 35  2  0  0  0
 36 37  1  0  0  0
  4  3  2  0  0  0
 26 24  2  0  0  0
 34 37  1  0  0  0
 34  1  1  0  0  0
 22 21  1  0  0  0
 22 27  2  0  0  0
 35 40  1  0  0  0
 21 20  2  0  0  0
 37 38  2  0  0  0
 17  1  1  0  0  0
 17 16  1  0  0  0
 24 27  1  0  0  0
 24 28  1  0  0  0
  3  1  1  0  0  0
  3  2  1  0  0  0
  8  7  2  0  0  0
  8  9  1  0  0  0
 40 39  2  0  0  0
  7  6  1  0  0  0
 20 16  1  0  0  0
 16 18  2  0  0  0
 38 39  1  0  0  0
  2  9  1  0  0  0
  9 11  2  0  0  0
 13 12  2  0  0  0
  6 12  1  0  0  0
  6 10  2  0  0  0
 12 14  1  0  0  0
 11 10  1  0  0  0
  2  5  1  0  0  0
 17 19  1  0  0  0
 14 15  1  0  0  0
M  END
> <minimizedAffinity>
-8.96314

$$$$
5E2O_5JM_A_301


 40 43  0  0  0  0  0  0  0  0999 V2000
   40.2889  -20.5733   28.0970 C   0  0  0  0  0  0  0  0  0  0  0  0
   42.2109  -20.9297   29.5365 N   0  0  0  0  0  0  0  0  0  0  0  0
   41.7973  -20.6657   28.2738 C   0  0  0  0  0  0  0  0  0  0  0  0
   42.5350  -20.5749   27.2971 O   0  0  0  0  0  0  0  0  0  0  0  0
   41.4968  -20.9963   30.2110 H   0  0  0  0  0  0  0  0  0  0  0  0
   46.1099  -21.6247   30.9983 C   0  0  0  0  0  0  0  0  0  0  0  0
   45.8579  -20.5238   30.1848 C   0  0  0  0  0  0  0  0  0  0  0  0
   44.5898  -20.2858   29.6840 C   0  0  0  0  0  0  0  0  0  0  0  0
   43.5309  -21.1237   30.0227 C   0  0  0  0  0  0  0  0  0  0  0  0
   45.0434  -22.4544   31.3427 C   0  0  0  0  0  0  0  0  0  0  0  0
   43.7671  -22.2066   30.8636 C   0  0  0  0  0  0  0  0  0  0  0  0
   47.4903  -21.8760   31.5162 C   0  0  0  0  0  0  0  0  0  0  0  0
   48.4588  -21.2313   31.1093 O   0  0  0  0  0  0  0  0  0  0  0  0
   47.5663  -22.7151   32.5100 O   0  0  0  0  0  0  0  0  0  0  0  0
   46.8038  -23.1844   32.7862 H   0  0  0  0  0  0  0  0  0  0  0  0
   39.5434  -18.6104   29.3157 C   0  0  0  0  0  0  0  0  0  0  0  0
   39.8386  -19.1946   28.1367 N   0  0  0  0  0  0  0  0  0  0  0  0
   39.6609  -19.2527   30.3652 O   0  0  0  0  0  0  0  0  0  0  0  0
   39.7483  -18.6838   27.2999 H   0  0  0  0  0  0  0  0  0  0  0  0
   38.7374  -17.3706   29.2421 C   0  0  0  0  0  0  0  0  0  0  0  0
   37.7656  -17.2449   28.3560 C   0  0  0  0  0  0  0  0  0  0  0  0
   36.9180  -16.0640   28.1063 C   0  0  0  0  0  0  0  0  0  0  0  0
   37.3993  -15.1052   27.1993 C   0  0  0  0  0  0  0  0  0  0  0  0
   35.2174  -14.4994   28.8099 C   0  0  0  0  0  0  0  0  0  0  0  0
   36.8169  -13.8350   27.1569 C   0  0  0  0  0  0  0  0  0  0  0  0
   35.7202  -13.5320   27.9564 C   0  0  0  0  0  0  0  0  0  0  0  0
   35.7896  -15.7618   28.8887 C   0  0  0  0  0  0  0  0  0  0  0  0
   33.8663  -14.1044   29.8426 Cl  0  0  0  0  0  0  0  0  0  0  0  0
   38.4130  -15.4294   26.2490 N   0  0  0  0  0  0  0  0  0  0  0  0
   38.4183  -15.6427   24.9186 C   0  0  0  0  0  0  0  0  0  0  0  0
   39.6185  -15.9335   24.5022 N   0  0  0  0  0  0  0  0  0  0  0  0
   40.3981  -15.9147   25.6082 N   0  0  0  0  0  0  0  0  0  0  0  0
   39.6997  -15.6110   26.6544 N   0  0  0  0  0  0  0  0  0  0  0  0
   39.8813  -21.2925   26.7994 C   0  0  0  0  0  0  0  0  0  0  0  0
   38.0983  -19.2692   24.1246 C   0  0  0  0  0  0  0  0  0  0  0  0
   39.1036  -19.7760   24.9394 C   0  0  0  0  0  0  0  0  0  0  0  0
   38.7949  -20.5474   26.0533 C   0  0  0  0  0  0  0  0  0  0  0  0
   37.4545  -20.7605   26.3539 C   0  0  0  0  0  0  0  0  0  0  0  0
   36.4526  -20.2640   25.5362 C   0  0  0  0  0  0  0  0  0  0  0  0
   36.7723  -19.5207   24.4203 C   0  0  0  0  0  0  0  0  0  0  0  0
 31 30  2  0  0  0
 31 32  1  0  0  0
 30 29  1  0  0  0
 32 33  2  0  0  0
 29 33  1  0  0  0
 29 23  1  0  0  0
 25 23  2  0  0  0
 25 26  1  0  0  0
 23 22  1  0  0  0
 36 35  2  0  0  0
 36 37  1  0  0  0
  4  3  2  0  0  0
 26 24  2  0  0  0
 34 37  1  0  0  0
 34  1  1  0  0  0
 22 21  1  0  0  0
 22 27  2  0  0  0
 35 40  1  0  0  0
 21 20  2  0  0  0
 37 38  2  0  0  0
 17  1  1  0  0  0
 17 16  1  0  0  0
 24 27  1  0  0  0
 24 28  1  0  0  0
  3  1  1  0  0  0
  3  2  1  0  0  0
  8  7  2  0  0  0
  8  9  1  0  0  0
 40 39  2  0  0  0
  7  6  1  0  0  0
 20 16  1  0  0  0
 16 18  2  0  0  0
 38 39  1  0  0  0
  2  9  1  0  0  0
  9 11  2  0  0  0
 13 12  2  0  0  0
  6 12  1  0  0  0
  6 10  2  0  0  0
 12 14  1  0  0  0
 11 10  1  0  0  0
  2  5  1  0  0  0
 17 19  1  0  0  0
 14 15  1  0  0  0
M  END
> <minimizedAffinity>
-8.95263

$$$$
5E2O_5JM_A_301


 40 43  0  0  0  0  0  0  0  0999 V2000
   40.1405  -20.6256   28.3621 C   0  0  0  0  0  0  0  0  0  0  0  0
   38.9393  -18.6062   27.7524 N   0  0  0  0  0  0  0  0  0  0  0  0
   39.6081  -19.2508   28.7383 C   0  0  0  0  0  0  0  0  0  0  0  0
   39.7377  -18.8373   29.8866 O   0  0  0  0  0  0  0  0  0  0  0  0
   38.9008  -19.0769   26.8885 H   0  0  0  0  0  0  0  0  0  0  0  0
   37.0588  -14.8265   27.7686 C   0  0  0  0  0  0  0  0  0  0  0  0
   36.4573  -15.9055   28.4096 C   0  0  0  0  0  0  0  0  0  0  0  0
   37.0505  -17.1560   28.4042 C   0  0  0  0  0  0  0  0  0  0  0  0
   38.2859  -17.3459   27.7913 C   0  0  0  0  0  0  0  0  0  0  0  0
   38.3011  -15.0203   27.1654 C   0  0  0  0  0  0  0  0  0  0  0  0
   38.9106  -16.2645   27.1782 C   0  0  0  0  0  0  0  0  0  0  0  0
   36.3948  -13.4863   27.7697 C   0  0  0  0  0  0  0  0  0  0  0  0
   35.4146  -13.2532   28.4795 O   0  0  0  0  0  0  0  0  0  0  0  0
   37.0051  -12.5637   27.0814 O   0  0  0  0  0  0  0  0  0  0  0  0
   37.7473  -12.7861   26.5545 H   0  0  0  0  0  0  0  0  0  0  0  0
   39.4215  -22.6258   27.1890 C   0  0  0  0  0  0  0  0  0  0  0  0
   39.2134  -21.3292   27.4958 N   0  0  0  0  0  0  0  0  0  0  0  0
   40.4043  -23.2157   27.6515 O   0  0  0  0  0  0  0  0  0  0  0  0
   38.4296  -20.8584   27.1306 H   0  0  0  0  0  0  0  0  0  0  0  0
   38.6752  -23.1442   26.0199 C   0  0  0  0  0  0  0  0  0  0  0  0
   37.5650  -22.5574   25.6094 C   0  0  0  0  0  0  0  0  0  0  0  0
   36.6722  -22.9796   24.5140 C   0  0  0  0  0  0  0  0  0  0  0  0
   36.1436  -21.9729   23.6890 C   0  0  0  0  0  0  0  0  0  0  0  0
   35.1052  -24.5467   23.5529 C   0  0  0  0  0  0  0  0  0  0  0  0
   35.0611  -22.2580   22.8515 C   0  0  0  0  0  0  0  0  0  0  0  0
   34.5447  -23.5469   22.7760 C   0  0  0  0  0  0  0  0  0  0  0  0
   36.1663  -24.2872   24.4096 C   0  0  0  0  0  0  0  0  0  0  0  0
   34.4295  -26.1552   23.4875 Cl  0  0  0  0  0  0  0  0  0  0  0  0
   36.7491  -20.6830   23.6156 N   0  0  0  0  0  0  0  0  0  0  0  0
   37.7627  -20.1617   22.8970 C   0  0  0  0  0  0  0  0  0  0  0  0
   37.9539  -18.9107   23.2081 N   0  0  0  0  0  0  0  0  0  0  0  0
   37.0375  -18.6330   24.1645 N   0  0  0  0  0  0  0  0  0  0  0  0
   36.3090  -19.6728   24.4148 N   0  0  0  0  0  0  0  0  0  0  0  0
   41.5392  -20.4790   27.7382 C   0  0  0  0  0  0  0  0  0  0  0  0
   44.9055  -20.6227   29.4917 C   0  0  0  0  0  0  0  0  0  0  0  0
   43.9420  -20.4452   28.5061 C   0  0  0  0  0  0  0  0  0  0  0  0
   42.6365  -20.8793   28.7014 C   0  0  0  0  0  0  0  0  0  0  0  0
   42.3326  -21.5338   29.8897 C   0  0  0  0  0  0  0  0  0  0  0  0
   43.2902  -21.7018   30.8764 C   0  0  0  0  0  0  0  0  0  0  0  0
   44.5759  -21.2449   30.6805 C   0  0  0  0  0  0  0  0  0  0  0  0
 31 30  2  0  0  0
 31 32  1  0  0  0
 30 29  1  0  0  0
 32 33  2  0  0  0
 29 33  1  0  0  0
 29 23  1  0  0  0
 25 23  2  0  0  0
 25 26  1  0  0  0
 23 22  1  0  0  0
 36 35  2  0  0  0
 36 37  1  0  0  0
  4  3  2  0  0  0
 26 24  2  0  0  0
 34 37  1  0  0  0
 34  1  1  0  0  0
 22 21  1  0  0  0
 22 27  2  0  0  0
 35 40  1  0  0  0
 21 20  2  0  0  0
 37 38  2  0  0  0
 17  1  1  0  0  0
 17 16  1  0  0  0
 24 27  1  0  0  0
 24 28  1  0  0  0
  3  1  1  0  0  0
  3  2  1  0  0  0
  8  7  2  0  0  0
  8  9  1  0  0  0
 40 39  2  0  0  0
  7  6  1  0  0  0
 20 16  1  0  0  0
 16 18  2  0  0  0
 38 39  1  0  0  0
  2  9  1  0  0  0
  9 11  2  0  0  0
 13 12  2  0  0  0
  6 12  1  0  0  0
  6 10  2  0  0  0
 12 14  1  0  0  0
 11 10  1  0  0  0
  2  5  1  0  0  0
 17 19  1  0  0  0
 14 15  1  0  0  0
M  END
> <minimizedAffinity>
-8.85775

$$$$
5E2O_5JM_A_301


 40 43  0  0  0  0  0  0  0  0999 V2000
   38.4871  -18.2763   26.7892 C   0  0  0  0  0  0  0  0  0  0  0  0
   37.0277  -19.9939   25.8874 N   0  0  0  0  0  0  0  0  0  0  0  0
   37.9330  -19.0311   25.5899 C   0  0  0  0  0  0  0  0  0  0  0  0
   38.2597  -18.7003   24.4541 O   0  0  0  0  0  0  0  0  0  0  0  0
   36.8525  -20.1288   26.8468 H   0  0  0  0  0  0  0  0  0  0  0  0
   34.8530  -22.5828   23.3596 C   0  0  0  0  0  0  0  0  0  0  0  0
   34.8097  -21.2076   23.1500 C   0  0  0  0  0  0  0  0  0  0  0  0
   35.5044  -20.3408   23.9758 C   0  0  0  0  0  0  0  0  0  0  0  0
   36.2962  -20.8357   25.0082 C   0  0  0  0  0  0  0  0  0  0  0  0
   35.6561  -23.0733   24.3886 C   0  0  0  0  0  0  0  0  0  0  0  0
   36.3727  -22.2111   25.2029 C   0  0  0  0  0  0  0  0  0  0  0  0
   34.0819  -23.5034   22.4679 C   0  0  0  0  0  0  0  0  0  0  0  0
   34.5399  -24.5917   22.1143 O   0  0  0  0  0  0  0  0  0  0  0  0
   32.8585  -23.1345   22.2135 O   0  0  0  0  0  0  0  0  0  0  0  0
   32.5521  -22.2972   22.5017 H   0  0  0  0  0  0  0  0  0  0  0  0
   39.7798  -19.9576   27.9708 C   0  0  0  0  0  0  0  0  0  0  0  0
   39.7536  -18.8357   27.2230 N   0  0  0  0  0  0  0  0  0  0  0  0
   38.7200  -20.5114   28.2836 O   0  0  0  0  0  0  0  0  0  0  0  0
   40.5968  -18.3947   26.9704 H   0  0  0  0  0  0  0  0  0  0  0  0
   41.0478  -20.2330   28.6838 C   0  0  0  0  0  0  0  0  0  0  0  0
   41.7042  -21.3628   28.4887 C   0  0  0  0  0  0  0  0  0  0  0  0
   42.9348  -21.8201   29.1607 C   0  0  0  0  0  0  0  0  0  0  0  0
   42.8788  -23.0467   29.8433 C   0  0  0  0  0  0  0  0  0  0  0  0
   45.0551  -21.3612   30.2231 C   0  0  0  0  0  0  0  0  0  0  0  0
   43.8860  -23.3822   30.7530 C   0  0  0  0  0  0  0  0  0  0  0  0
   44.9798  -22.5440   30.9391 C   0  0  0  0  0  0  0  0  0  0  0  0
   44.0586  -20.9924   29.3297 C   0  0  0  0  0  0  0  0  0  0  0  0
   46.4085  -20.2905   30.4881 Cl  0  0  0  0  0  0  0  0  0  0  0  0
   41.8613  -24.0057   29.5588 N   0  0  0  0  0  0  0  0  0  0  0  0
   40.7136  -24.3644   30.1667 C   0  0  0  0  0  0  0  0  0  0  0  0
   40.1263  -25.3272   29.5136 N   0  0  0  0  0  0  0  0  0  0  0  0
   40.9352  -25.5952   28.4623 N   0  0  0  0  0  0  0  0  0  0  0  0
   41.9678  -24.8154   28.4698 N   0  0  0  0  0  0  0  0  0  0  0  0
   38.5861  -16.7790   26.4497 C   0  0  0  0  0  0  0  0  0  0  0  0
   35.8950  -15.6813   28.8952 C   0  0  0  0  0  0  0  0  0  0  0  0
   36.7616  -16.4880   28.1675 C   0  0  0  0  0  0  0  0  0  0  0  0
   37.4737  -15.9758   27.0897 C   0  0  0  0  0  0  0  0  0  0  0  0
   37.2622  -14.6488   26.7334 C   0  0  0  0  0  0  0  0  0  0  0  0
   36.4061  -13.8419   27.4648 C   0  0  0  0  0  0  0  0  0  0  0  0
   35.7239  -14.3553   28.5469 C   0  0  0  0  0  0  0  0  0  0  0  0
 31 30  2  0  0  0
 31 32  1  0  0  0
 30 29  1  0  0  0
 32 33  2  0  0  0
 29 33  1  0  0  0
 29 23  1  0  0  0
 25 23  2  0  0  0
 25 26  1  0  0  0
 23 22  1  0  0  0
 36 35  2  0  0  0
 36 37  1  0  0  0
  4  3  2  0  0  0
 26 24  2  0  0  0
 34 37  1  0  0  0
 34  1  1  0  0  0
 22 21  1  0  0  0
 22 27  2  0  0  0
 35 40  1  0  0  0
 21 20  2  0  0  0
 37 38  2  0  0  0
 17  1  1  0  0  0
 17 16  1  0  0  0
 24 27  1  0  0  0
 24 28  1  0  0  0
  3  1  1  0  0  0
  3  2  1  0  0  0
  8  7  2  0  0  0
  8  9  1  0  0  0
 40 39  2  0  0  0
  7  6  1  0  0  0
 20 16  1  0  0  0
 16 18  2  0  0  0
 38 39  1  0  0  0
  2  9  1  0  0  0
  9 11  2  0  0  0
 13 12  2  0  0  0
  6 12  1  0  0  0
  6 10  2  0  0  0
 12 14  1  0  0  0
 11 10  1  0  0  0
  2  5  1  0  0  0
 17 19  1  0  0  0
 14 15  1  0  0  0
M  END
> <minimizedAffinity>
-8.76318

$$$$
5E2O_5JM_A_301


 40 43  0  0  0  0  0  0  0  0999 V2000
   39.1271  -20.7205   27.0872 C   0  0  0  0  0  0  0  0  0  0  0  0
   38.5254  -18.4080   27.5153 N   0  0  0  0  0  0  0  0  0  0  0  0
   38.1294  -19.5787   26.9607 C   0  0  0  0  0  0  0  0  0  0  0  0
   37.0908  -19.7405   26.3271 O   0  0  0  0  0  0  0  0  0  0  0  0
   39.3969  -18.4292   27.9727 H   0  0  0  0  0  0  0  0  0  0  0  0
   36.5275  -14.6925   27.6758 C   0  0  0  0  0  0  0  0  0  0  0  0
   37.3911  -14.9729   26.6210 C   0  0  0  0  0  0  0  0  0  0  0  0
   38.0662  -16.1795   26.5570 C   0  0  0  0  0  0  0  0  0  0  0  0
   37.8585  -17.1543   27.5288 C   0  0  0  0  0  0  0  0  0  0  0  0
   36.3153  -15.6767   28.6406 C   0  0  0  0  0  0  0  0  0  0  0  0
   36.9703  -16.8956   28.5679 C   0  0  0  0  0  0  0  0  0  0  0  0
   35.8197  -13.3764   27.7379 C   0  0  0  0  0  0  0  0  0  0  0  0
   35.1240  -13.0637   28.7061 O   0  0  0  0  0  0  0  0  0  0  0  0
   36.1023  -12.5478   26.7730 O   0  0  0  0  0  0  0  0  0  0  0  0
   36.6356  -12.8286   26.0555 H   0  0  0  0  0  0  0  0  0  0  0  0
   39.0872  -23.0004   26.2539 C   0  0  0  0  0  0  0  0  0  0  0  0
   38.9677  -21.6794   26.0101 N   0  0  0  0  0  0  0  0  0  0  0  0
   39.3299  -23.3932   27.4004 O   0  0  0  0  0  0  0  0  0  0  0  0
   38.7716  -21.3647   25.0981 H   0  0  0  0  0  0  0  0  0  0  0  0
   39.2989  -23.8627   25.0690 C   0  0  0  0  0  0  0  0  0  0  0  0
   38.3663  -24.7097   24.6714 C   0  0  0  0  0  0  0  0  0  0  0  0
   38.4403  -25.6792   23.5623 C   0  0  0  0  0  0  0  0  0  0  0  0
   37.2320  -26.2356   23.1109 C   0  0  0  0  0  0  0  0  0  0  0  0
   39.6454  -27.3386   22.2859 C   0  0  0  0  0  0  0  0  0  0  0  0
   37.2515  -27.3749   22.3008 C   0  0  0  0  0  0  0  0  0  0  0  0
   38.4579  -27.9241   21.8805 C   0  0  0  0  0  0  0  0  0  0  0  0
   39.6560  -26.2201   23.1081 C   0  0  0  0  0  0  0  0  0  0  0  0
   41.1593  -28.0534   21.7909 Cl  0  0  0  0  0  0  0  0  0  0  0  0
   35.9806  -25.6069   23.3838 N   0  0  0  0  0  0  0  0  0  0  0  0
   35.3440  -24.5286   22.8863 C   0  0  0  0  0  0  0  0  0  0  0  0
   34.2040  -24.3456   23.4906 N   0  0  0  0  0  0  0  0  0  0  0  0
   34.1205  -25.3352   24.4099 N   0  0  0  0  0  0  0  0  0  0  0  0
   35.1646  -26.0978   24.3565 N   0  0  0  0  0  0  0  0  0  0  0  0
   40.5529  -20.1473   27.1638 C   0  0  0  0  0  0  0  0  0  0  0  0
   41.2119  -21.6398   30.5939 C   0  0  0  0  0  0  0  0  0  0  0  0
   40.5599  -21.0391   29.5237 C   0  0  0  0  0  0  0  0  0  0  0  0
   41.2734  -20.5813   28.4226 C   0  0  0  0  0  0  0  0  0  0  0  0
   42.6583  -20.7009   28.4411 C   0  0  0  0  0  0  0  0  0  0  0  0
   43.3075  -21.3087   29.5032 C   0  0  0  0  0  0  0  0  0  0  0  0
   42.5862  -21.7808   30.5788 C   0  0  0  0  0  0  0  0  0  0  0  0
 31 30  2  0  0  0
 31 32  1  0  0  0
 30 29  1  0  0  0
 32 33  2  0  0  0
 29 33  1  0  0  0
 29 23  1  0  0  0
 25 23  2  0  0  0
 25 26  1  0  0  0
 23 22  1  0  0  0
 36 35  2  0  0  0
 36 37  1  0  0  0
  4  3  2  0  0  0
 26 24  2  0  0  0
 34 37  1  0  0  0
 34  1  1  0  0  0
 22 21  1  0  0  0
 22 27  2  0  0  0
 35 40  1  0  0  0
 21 20  2  0  0  0
 37 38  2  0  0  0
 17  1  1  0  0  0
 17 16  1  0  0  0
 24 27  1  0  0  0
 24 28  1  0  0  0
  3  1  1  0  0  0
  3  2  1  0  0  0
  8  7  2  0  0  0
  8  9  1  0  0  0
 40 39  2  0  0  0
  7  6  1  0  0  0
 20 16  1  0  0  0
 16 18  2  0  0  0
 38 39  1  0  0  0
  2  9  1  0  0  0
  9 11  2  0  0  0
 13 12  2  0  0  0
  6 12  1  0  0  0
  6 10  2  0  0  0
 12 14  1  0  0  0
 11 10  1  0  0  0
  2  5  1  0  0  0
 17 19  1  0  0  0
 14 15  1  0  0  0
M  END
> <minimizedAffinity>
-8.65934

$$$$
5E2O_5JM_A_301


 40 43  0  0  0  0  0  0  0  0999 V2000
   40.6605  -20.7717   28.3891 C   0  0  0  0  0  0  0  0  0  0  0  0
   39.5718  -18.7593   27.5780 N   0  0  0  0  0  0  0  0  0  0  0  0
   39.9770  -19.4428   28.6751 C   0  0  0  0  0  0  0  0  0  0  0  0
   39.7665  -19.0996   29.8346 O   0  0  0  0  0  0  0  0  0  0  0  0
   39.7948  -19.1746   26.7137 H   0  0  0  0  0  0  0  0  0  0  0  0
   37.4172  -15.1313   27.4435 C   0  0  0  0  0  0  0  0  0  0  0  0
   38.6931  -15.2035   26.8922 C   0  0  0  0  0  0  0  0  0  0  0  0
   39.4215  -16.3795   26.9381 C   0  0  0  0  0  0  0  0  0  0  0  0
   38.8700  -17.5271   27.5010 C   0  0  0  0  0  0  0  0  0  0  0  0
   36.8659  -16.2867   27.9965 C   0  0  0  0  0  0  0  0  0  0  0  0
   37.5817  -17.4728   28.0232 C   0  0  0  0  0  0  0  0  0  0  0  0
   36.6514  -13.8473   27.4003 C   0  0  0  0  0  0  0  0  0  0  0  0
   35.4621  -13.7951   27.7193 O   0  0  0  0  0  0  0  0  0  0  0  0
   37.3609  -12.7863   27.1387 O   0  0  0  0  0  0  0  0  0  0  0  0
   38.2628  -12.8729   26.9000 H   0  0  0  0  0  0  0  0  0  0  0  0
   39.7778  -22.9280   27.7069 C   0  0  0  0  0  0  0  0  0  0  0  0
   39.8571  -21.5967   27.5065 N   0  0  0  0  0  0  0  0  0  0  0  0
   40.3899  -23.4442   28.6484 O   0  0  0  0  0  0  0  0  0  0  0  0
   39.3680  -21.1832   26.7588 H   0  0  0  0  0  0  0  0  0  0  0  0
   39.2765  -23.7274   26.5660 C   0  0  0  0  0  0  0  0  0  0  0  0
   39.1978  -25.0439   26.6429 C   0  0  0  0  0  0  0  0  0  0  0  0
   38.7876  -25.9875   25.5861 C   0  0  0  0  0  0  0  0  0  0  0  0
   39.7708  -26.3958   24.6694 C   0  0  0  0  0  0  0  0  0  0  0  0
   37.0967  -26.9457   24.1516 C   0  0  0  0  0  0  0  0  0  0  0  0
   39.3927  -27.0202   23.4771 C   0  0  0  0  0  0  0  0  0  0  0  0
   38.0559  -27.3032   23.2193 C   0  0  0  0  0  0  0  0  0  0  0  0
   37.4414  -26.3049   25.3339 C   0  0  0  0  0  0  0  0  0  0  0  0
   35.4150  -27.2649   23.8081 Cl  0  0  0  0  0  0  0  0  0  0  0  0
   41.1600  -26.2723   24.9709 N   0  0  0  0  0  0  0  0  0  0  0  0
   42.0147  -26.9582   25.7546 C   0  0  0  0  0  0  0  0  0  0  0  0
   43.2063  -26.4326   25.7093 N   0  0  0  0  0  0  0  0  0  0  0  0
   43.1004  -25.3706   24.8771 N   0  0  0  0  0  0  0  0  0  0  0  0
   41.8929  -25.2638   24.4242 N   0  0  0  0  0  0  0  0  0  0  0  0
   42.0720  -20.5117   27.8348 C   0  0  0  0  0  0  0  0  0  0  0  0
   45.3729  -20.4705   29.7135 C   0  0  0  0  0  0  0  0  0  0  0  0
   44.4400  -20.3528   28.6903 C   0  0  0  0  0  0  0  0  0  0  0  0
   43.1499  -20.8459   28.8440 C   0  0  0  0  0  0  0  0  0  0  0  0
   42.8327  -21.4978   30.0302 C   0  0  0  0  0  0  0  0  0  0  0  0
   43.7594  -21.6063   31.0542 C   0  0  0  0  0  0  0  0  0  0  0  0
   45.0285  -21.0913   30.8988 C   0  0  0  0  0  0  0  0  0  0  0  0
 31 30  2  0  0  0
 31 32  1  0  0  0
 30 29  1  0  0  0
 32 33  2  0  0  0
 29 33  1  0  0  0
 29 23  1  0  0  0
 25 23  2  0  0  0
 25 26  1  0  0  0
 23 22  1  0  0  0
 36 35  2  0  0  0
 36 37  1  0  0  0
  4  3  2  0  0  0
 26 24  2  0  0  0
 34 37  1  0  0  0
 34  1  1  0  0  0
 22 21  1  0  0  0
 22 27  2  0  0  0
 35 40  1  0  0  0
 21 20  2  0  0  0
 37 38  2  0  0  0
 17  1  1  0  0  0
 17 16  1  0  0  0
 24 27  1  0  0  0
 24 28  1  0  0  0
  3  1  1  0  0  0
  3  2  1  0  0  0
  8  7  2  0  0  0
  8  9  1  0  0  0
 40 39  2  0  0  0
  7  6  1  0  0  0
 20 16  1  0  0  0
 16 18  2  0  0  0
 38 39  1  0  0  0
  2  9  1  0  0  0
  9 11  2  0  0  0
 13 12  2  0  0  0
  6 12  1  0  0  0
  6 10  2  0  0  0
 12 14  1  0  0  0
 11 10  1  0  0  0
  2  5  1  0  0  0
 17 19  1  0  0  0
 14 15  1  0  0  0
M  END
> <minimizedAffinity>
-8.63108

$$$$
5E2O_5JM_A_301


 40 43  0  0  0  0  0  0  0  0999 V2000
   39.4713  -20.7605   27.6964 C   0  0  0  0  0  0  0  0  0  0  0  0
   38.9225  -18.4019   27.8666 N   0  0  0  0  0  0  0  0  0  0  0  0
   38.4318  -19.6496   27.6726 C   0  0  0  0  0  0  0  0  0  0  0  0
   37.2605  -19.9125   27.4172 O   0  0  0  0  0  0  0  0  0  0  0  0
   39.8903  -18.3493   28.0393 H   0  0  0  0  0  0  0  0  0  0  0  0
   36.8578  -14.7227   27.7147 C   0  0  0  0  0  0  0  0  0  0  0  0
   36.9916  -15.3958   28.9255 C   0  0  0  0  0  0  0  0  0  0  0  0
   37.6527  -16.6099   28.9943 C   0  0  0  0  0  0  0  0  0  0  0  0
   38.2352  -17.1593   27.8555 C   0  0  0  0  0  0  0  0  0  0  0  0
   37.4523  -15.2727   26.5794 C   0  0  0  0  0  0  0  0  0  0  0  0
   38.1362  -16.4758   26.6478 C   0  0  0  0  0  0  0  0  0  0  0  0
   36.1249  -13.4203   27.6559 C   0  0  0  0  0  0  0  0  0  0  0  0
   35.3870  -13.0540   28.5726 O   0  0  0  0  0  0  0  0  0  0  0  0
   36.4298  -12.6567   26.6452 O   0  0  0  0  0  0  0  0  0  0  0  0
   36.9952  -12.9767   25.9700 H   0  0  0  0  0  0  0  0  0  0  0  0
   39.2100  -21.6199   25.4410 C   0  0  0  0  0  0  0  0  0  0  0  0
   39.1256  -21.8235   26.7714 N   0  0  0  0  0  0  0  0  0  0  0  0
   39.5867  -20.5242   25.0106 O   0  0  0  0  0  0  0  0  0  0  0  0
   38.8285  -22.6965   27.1162 H   0  0  0  0  0  0  0  0  0  0  0  0
   38.4842  -22.5889   24.5886 C   0  0  0  0  0  0  0  0  0  0  0  0
   37.2851  -23.0266   24.9290 C   0  0  0  0  0  0  0  0  0  0  0  0
   36.4602  -24.0329   24.2347 C   0  0  0  0  0  0  0  0  0  0  0  0
   35.4053  -23.5615   23.4356 C   0  0  0  0  0  0  0  0  0  0  0  0
   35.5500  -26.2641   24.0656 C   0  0  0  0  0  0  0  0  0  0  0  0
   34.4049  -24.4429   23.0148 C   0  0  0  0  0  0  0  0  0  0  0  0
   34.4792  -25.7969   23.3224 C   0  0  0  0  0  0  0  0  0  0  0  0
   36.5460  -25.4079   24.5153 C   0  0  0  0  0  0  0  0  0  0  0  0
   35.6206  -27.9572   24.4856 Cl  0  0  0  0  0  0  0  0  0  0  0  0
   35.3804  -22.2158   22.9619 N   0  0  0  0  0  0  0  0  0  0  0  0
   34.9643  -21.0451   23.4832 C   0  0  0  0  0  0  0  0  0  0  0  0
   35.1393  -20.0728   22.6333 N   0  0  0  0  0  0  0  0  0  0  0  0
   35.6743  -20.6489   21.5318 N   0  0  0  0  0  0  0  0  0  0  0  0
   35.8303  -21.9209   21.7115 N   0  0  0  0  0  0  0  0  0  0  0  0
   40.8627  -20.1646   27.4209 C   0  0  0  0  0  0  0  0  0  0  0  0
   42.4170  -21.8484   30.4501 C   0  0  0  0  0  0  0  0  0  0  0  0
   41.4870  -21.2393   29.6162 C   0  0  0  0  0  0  0  0  0  0  0  0
   41.8869  -20.6162   28.4402 C   0  0  0  0  0  0  0  0  0  0  0  0
   43.2448  -20.5811   28.1442 C   0  0  0  0  0  0  0  0  0  0  0  0
   44.1709  -21.1969   28.9701 C   0  0  0  0  0  0  0  0  0  0  0  0
   43.7589  -21.8329   30.1215 C   0  0  0  0  0  0  0  0  0  0  0  0
 31 30  2  0  0  0
 31 32  1  0  0  0
 30 29  1  0  0  0
 32 33  2  0  0  0
 29 33  1  0  0  0
 29 23  1  0  0  0
 25 23  2  0  0  0
 25 26  1  0  0  0
 23 22  1  0  0  0
 36 35  2  0  0  0
 36 37  1  0  0  0
  4  3  2  0  0  0
 26 24  2  0  0  0
 34 37  1  0  0  0
 34  1  1  0  0  0
 22 21  1  0  0  0
 22 27  2  0  0  0
 35 40  1  0  0  0
 21 20  2  0  0  0
 37 38  2  0  0  0
 17  1  1  0  0  0
 17 16  1  0  0  0
 24 27  1  0  0  0
 24 28  1  0  0  0
  3  1  1  0  0  0
  3  2  1  0  0  0
  8  7  2  0  0  0
  8  9  1  0  0  0
 40 39  2  0  0  0
  7  6  1  0  0  0
 20 16  1  0  0  0
 16 18  2  0  0  0
 38 39  1  0  0  0
  2  9  1  0  0  0
  9 11  2  0  0  0
 13 12  2  0  0  0
  6 12  1  0  0  0
  6 10  2  0  0  0
 12 14  1  0  0  0
 11 10  1  0  0  0
  2  5  1  0  0  0
 17 19  1  0  0  0
 14 15  1  0  0  0
M  END
> <minimizedAffinity>
-8.36989

$$$$
5E2O_5JM_A_301


 40 43  0  0  0  0  0  0  0  0999 V2000
   40.3057  -20.7495   28.5075 C   0  0  0  0  0  0  0  0  0  0  0  0
   39.5582  -18.4407   28.4478 N   0  0  0  0  0  0  0  0  0  0  0  0
   39.2223  -19.7283   28.1941 C   0  0  0  0  0  0  0  0  0  0  0  0
   38.1687  -20.0916   27.6799 O   0  0  0  0  0  0  0  0  0  0  0  0
   40.4502  -18.3053   28.8420 H   0  0  0  0  0  0  0  0  0  0  0  0
   37.2941  -14.9193   27.9041 C   0  0  0  0  0  0  0  0  0  0  0  0
   38.2147  -15.3107   26.9365 C   0  0  0  0  0  0  0  0  0  0  0  0
   38.9767  -16.4543   27.1020 C   0  0  0  0  0  0  0  0  0  0  0  0
   38.8029  -17.2590   28.2245 C   0  0  0  0  0  0  0  0  0  0  0  0
   37.1169  -15.7349   29.0213 C   0  0  0  0  0  0  0  0  0  0  0  0
   37.8599  -16.8936   29.1799 C   0  0  0  0  0  0  0  0  0  0  0  0
   36.4917  -13.6711   27.7167 C   0  0  0  0  0  0  0  0  0  0  0  0
   35.3893  -13.5275   28.2488 O   0  0  0  0  0  0  0  0  0  0  0  0
   37.0976  -12.7127   27.0748 O   0  0  0  0  0  0  0  0  0  0  0  0
   37.9358  -12.8665   26.6853 H   0  0  0  0  0  0  0  0  0  0  0  0
   39.8214  -23.1284   28.4861 C   0  0  0  0  0  0  0  0  0  0  0  0
   40.0743  -21.9951   27.8003 N   0  0  0  0  0  0  0  0  0  0  0  0
   39.7837  -23.1027   29.7212 O   0  0  0  0  0  0  0  0  0  0  0  0
   40.1020  -22.0129   26.8164 H   0  0  0  0  0  0  0  0  0  0  0  0
   39.9853  -24.3929   27.7334 C   0  0  0  0  0  0  0  0  0  0  0  0
   41.0558  -24.6052   26.9890 C   0  0  0  0  0  0  0  0  0  0  0  0
   41.3427  -25.7700   26.1309 C   0  0  0  0  0  0  0  0  0  0  0  0
   42.6010  -26.3791   26.2704 C   0  0  0  0  0  0  0  0  0  0  0  0
   40.9873  -27.0394   24.1067 C   0  0  0  0  0  0  0  0  0  0  0  0
   43.0566  -27.2650   25.2896 C   0  0  0  0  0  0  0  0  0  0  0  0
   42.2479  -27.6028   24.2100 C   0  0  0  0  0  0  0  0  0  0  0  0
   40.5178  -26.1399   25.0542 C   0  0  0  0  0  0  0  0  0  0  0  0
   39.9892  -27.4330   22.7294 Cl  0  0  0  0  0  0  0  0  0  0  0  0
   43.3901  -26.1861   27.4433 N   0  0  0  0  0  0  0  0  0  0  0  0
   44.3811  -25.3369   27.7783 C   0  0  0  0  0  0  0  0  0  0  0  0
   44.8036  -25.5742   28.9881 N   0  0  0  0  0  0  0  0  0  0  0  0
   44.0626  -26.6166   29.4306 N   0  0  0  0  0  0  0  0  0  0  0  0
   43.2134  -26.9893   28.5281 N   0  0  0  0  0  0  0  0  0  0  0  0
   41.6854  -20.1417   28.2008 C   0  0  0  0  0  0  0  0  0  0  0  0
   45.1213  -21.6672   28.7434 C   0  0  0  0  0  0  0  0  0  0  0  0
   44.0136  -21.1095   28.1164 C   0  0  0  0  0  0  0  0  0  0  0  0
   42.8120  -20.9579   28.7979 C   0  0  0  0  0  0  0  0  0  0  0  0
   42.7366  -21.4190   30.1072 C   0  0  0  0  0  0  0  0  0  0  0  0
   43.8435  -21.9657   30.7356 C   0  0  0  0  0  0  0  0  0  0  0  0
   45.0368  -22.0883   30.0566 C   0  0  0  0  0  0  0  0  0  0  0  0
 31 30  2  0  0  0
 31 32  1  0  0  0
 30 29  1  0  0  0
 32 33  2  0  0  0
 29 33  1  0  0  0
 29 23  1  0  0  0
 25 23  2  0  0  0
 25 26  1  0  0  0
 23 22  1  0  0  0
 36 35  2  0  0  0
 36 37  1  0  0  0
  4  3  2  0  0  0
 26 24  2  0  0  0
 34 37  1  0  0  0
 34  1  1  0  0  0
 22 21  1  0  0  0
 22 27  2  0  0  0
 35 40  1  0  0  0
 21 20  2  0  0  0
 37 38  2  0  0  0
 17  1  1  0  0  0
 17 16  1  0  0  0
 24 27  1  0  0  0
 24 28  1  0  0  0
  3  1  1  0  0  0
  3  2  1  0  0  0
  8  7  2  0  0  0
  8  9  1  0  0  0
 40 39  2  0  0  0
  7  6  1  0  0  0
 20 16  1  0  0  0
 16 18  2  0  0  0
 38 39  1  0  0  0
  2  9  1  0  0  0
  9 11  2  0  0  0
 13 12  2  0  0  0
  6 12  1  0  0  0
  6 10  2  0  0  0
 12 14  1  0  0  0
 11 10  1  0  0  0
  2  5  1  0  0  0
 17 19  1  0  0  0
 14 15  1  0  0  0
M  END
> <minimizedAffinity>
-8.28201

$$$$
5E2O_5JM_A_301


 40 43  0  0  0  0  0  0  0  0999 V2000
   37.9993  -20.9496   24.9687 C   0  0  0  0  0  0  0  0  0  0  0  0
   37.9665  -18.7927   26.0822 N   0  0  0  0  0  0  0  0  0  0  0  0
   37.2907  -19.6362   25.2656 C   0  0  0  0  0  0  0  0  0  0  0  0
   36.2223  -19.3798   24.7189 O   0  0  0  0  0  0  0  0  0  0  0  0
   38.8241  -19.1323   26.4262 H   0  0  0  0  0  0  0  0  0  0  0  0
   36.9019  -14.8750   27.2402 C   0  0  0  0  0  0  0  0  0  0  0  0
   36.6761  -15.9417   28.1053 C   0  0  0  0  0  0  0  0  0  0  0  0
   37.0053  -17.2353   27.7393 C   0  0  0  0  0  0  0  0  0  0  0  0
   37.6102  -17.4866   26.5109 C   0  0  0  0  0  0  0  0  0  0  0  0
   37.5177  -15.1314   26.0156 C   0  0  0  0  0  0  0  0  0  0  0  0
   37.8712  -16.4216   25.6546 C   0  0  0  0  0  0  0  0  0  0  0  0
   36.5238  -13.4859   27.6455 C   0  0  0  0  0  0  0  0  0  0  0  0
   35.6481  -13.2757   28.4869 O   0  0  0  0  0  0  0  0  0  0  0  0
   37.2728  -12.5405   27.1528 O   0  0  0  0  0  0  0  0  0  0  0  0
   37.9272  -12.7459   26.5144 H   0  0  0  0  0  0  0  0  0  0  0  0
   40.3540  -21.5030   24.7612 C   0  0  0  0  0  0  0  0  0  0  0  0
   39.3587  -20.9396   25.4758 N   0  0  0  0  0  0  0  0  0  0  0  0
   40.1054  -22.0259   23.6692 O   0  0  0  0  0  0  0  0  0  0  0  0
   39.5552  -20.5201   26.3445 H   0  0  0  0  0  0  0  0  0  0  0  0
   41.6016  -21.7944   25.5035 C   0  0  0  0  0  0  0  0  0  0  0  0
   42.1193  -20.9074   26.3344 C   0  0  0  0  0  0  0  0  0  0  0  0
   43.3788  -21.0099   27.0950 C   0  0  0  0  0  0  0  0  0  0  0  0
   43.3071  -20.8358   28.4872 C   0  0  0  0  0  0  0  0  0  0  0  0
   45.7844  -20.8358   27.2284 C   0  0  0  0  0  0  0  0  0  0  0  0
   44.4752  -20.6034   29.2194 C   0  0  0  0  0  0  0  0  0  0  0  0
   45.7166  -20.6105   28.5929 C   0  0  0  0  0  0  0  0  0  0  0  0
   44.6391  -21.0474   26.4729 C   0  0  0  0  0  0  0  0  0  0  0  0
   47.3401  -20.8038   26.4367 Cl  0  0  0  0  0  0  0  0  0  0  0  0
   42.0736  -20.9848   29.1886 N   0  0  0  0  0  0  0  0  0  0  0  0
   41.5233  -21.9741   29.9193 C   0  0  0  0  0  0  0  0  0  0  0  0
   40.3414  -21.6298   30.3471 N   0  0  0  0  0  0  0  0  0  0  0  0
   40.1310  -20.3843   29.8615 N   0  0  0  0  0  0  0  0  0  0  0  0
   41.1524  -19.9827   29.1759 N   0  0  0  0  0  0  0  0  0  0  0  0
   37.1673  -22.1170   25.5273 C   0  0  0  0  0  0  0  0  0  0  0  0
   34.7365  -24.4388   23.7588 C   0  0  0  0  0  0  0  0  0  0  0  0
   35.5396  -23.8784   24.7448 C   0  0  0  0  0  0  0  0  0  0  0  0
   36.4660  -22.8911   24.4315 C   0  0  0  0  0  0  0  0  0  0  0  0
   36.5974  -22.5122   23.1004 C   0  0  0  0  0  0  0  0  0  0  0  0
   35.7901  -23.0634   22.1189 C   0  0  0  0  0  0  0  0  0  0  0  0
   34.8578  -24.0246   22.4463 C   0  0  0  0  0  0  0  0  0  0  0  0
 31 30  2  0  0  0
 31 32  1  0  0  0
 30 29  1  0  0  0
 32 33  2  0  0  0
 29 33  1  0  0  0
 29 23  1  0  0  0
 25 23  2  0  0  0
 25 26  1  0  0  0
 23 22  1  0  0  0
 36 35  2  0  0  0
 36 37  1  0  0  0
  4  3  2  0  0  0
 26 24  2  0  0  0
 34 37  1  0  0  0
 34  1  1  0  0  0
 22 21  1  0  0  0
 22 27  2  0  0  0
 35 40  1  0  0  0
 21 20  2  0  0  0
 37 38  2  0  0  0
 17  1  1  0  0  0
 17 16  1  0  0  0
 24 27  1  0  0  0
 24 28  1  0  0  0
  3  1  1  0  0  0
  3  2  1  0  0  0
  8  7  2  0  0  0
  8  9  1  0  0  0
 40 39  2  0  0  0
  7  6  1  0  0  0
 20 16  1  0  0  0
 16 18  2  0  0  0
 38 39  1  0  0  0
  2  9  1  0  0  0
  9 11  2  0  0  0
 13 12  2  0  0  0
  6 12  1  0  0  0
  6 10  2  0  0  0
 12 14  1  0  0  0
 11 10  1  0  0  0
  2  5  1  0  0  0
 17 19  1  0  0  0
 14 15  1  0  0  0
M  END
> <minimizedAffinity>
-8.05007

$$$$
5E2O_5JM_A_301


 40 43  0  0  0  0  0  0  0  0999 V2000
   38.5290  -18.1854   26.7279 C   0  0  0  0  0  0  0  0  0  0  0  0
   37.0080  -19.8140   25.7649 N   0  0  0  0  0  0  0  0  0  0  0  0
   37.9850  -18.9118   25.5066 C   0  0  0  0  0  0  0  0  0  0  0  0
   38.3842  -18.6095   24.3862 O   0  0  0  0  0  0  0  0  0  0  0  0
   36.7802  -19.9314   26.7155 H   0  0  0  0  0  0  0  0  0  0  0  0
   34.8034  -22.2820   23.1437 C   0  0  0  0  0  0  0  0  0  0  0  0
   34.7730  -20.8993   22.9877 C   0  0  0  0  0  0  0  0  0  0  0  0
   35.4776  -20.0719   23.8449 C   0  0  0  0  0  0  0  0  0  0  0  0
   36.2667  -20.6140   24.8554 C   0  0  0  0  0  0  0  0  0  0  0  0
   35.6039  -22.8197   24.1510 C   0  0  0  0  0  0  0  0  0  0  0  0
   36.3303  -21.9966   24.9964 C   0  0  0  0  0  0  0  0  0  0  0  0
   34.0218  -23.1599   22.2189 C   0  0  0  0  0  0  0  0  0  0  0  0
   32.7898  -23.1860   22.2424 O   0  0  0  0  0  0  0  0  0  0  0  0
   34.7251  -23.7768   21.3120 O   0  0  0  0  0  0  0  0  0  0  0  0
   35.6607  -23.7298   21.3325 H   0  0  0  0  0  0  0  0  0  0  0  0
   39.8023  -19.8576   27.9429 C   0  0  0  0  0  0  0  0  0  0  0  0
   39.7893  -18.7582   27.1620 N   0  0  0  0  0  0  0  0  0  0  0  0
   38.7355  -20.3793   28.2858 O   0  0  0  0  0  0  0  0  0  0  0  0
   40.6380  -18.3429   26.8855 H   0  0  0  0  0  0  0  0  0  0  0  0
   41.0738  -20.1384   28.6476 C   0  0  0  0  0  0  0  0  0  0  0  0
   41.9954  -20.9116   28.1016 C   0  0  0  0  0  0  0  0  0  0  0  0
   43.2771  -21.3428   28.6903 C   0  0  0  0  0  0  0  0  0  0  0  0
   44.1253  -22.1231   27.8871 C   0  0  0  0  0  0  0  0  0  0  0  0
   44.6428  -21.8873   30.6070 C   0  0  0  0  0  0  0  0  0  0  0  0
   45.1854  -22.8229   28.4711 C   0  0  0  0  0  0  0  0  0  0  0  0
   45.4509  -22.7004   29.8305 C   0  0  0  0  0  0  0  0  0  0  0  0
   43.5699  -21.1982   30.0578 C   0  0  0  0  0  0  0  0  0  0  0  0
   44.9524  -21.7667   32.3210 Cl  0  0  0  0  0  0  0  0  0  0  0  0
   43.9866  -22.1438   26.4672 N   0  0  0  0  0  0  0  0  0  0  0  0
   44.3702  -21.3172   25.4747 C   0  0  0  0  0  0  0  0  0  0  0  0
   43.9830  -21.7741   24.3173 N   0  0  0  0  0  0  0  0  0  0  0  0
   43.3218  -22.9237   24.5866 N   0  0  0  0  0  0  0  0  0  0  0  0
   43.3193  -23.1622   25.8584 N   0  0  0  0  0  0  0  0  0  0  0  0
   38.6360  -16.6812   26.4224 C   0  0  0  0  0  0  0  0  0  0  0  0
   36.3753  -13.8518   27.5675 C   0  0  0  0  0  0  0  0  0  0  0  0
   37.4029  -14.5407   26.9346 C   0  0  0  0  0  0  0  0  0  0  0  0
   37.6848  -15.8603   27.2670 C   0  0  0  0  0  0  0  0  0  0  0  0
   36.9407  -16.4562   28.2789 C   0  0  0  0  0  0  0  0  0  0  0  0
   35.9097  -15.7730   28.9028 C   0  0  0  0  0  0  0  0  0  0  0  0
   35.6240  -14.4723   28.5470 C   0  0  0  0  0  0  0  0  0  0  0  0
 31 30  2  0  0  0
 31 32  1  0  0  0
 30 29  1  0  0  0
 32 33  2  0  0  0
 29 33  1  0  0  0
 29 23  1  0  0  0
 25 23  2  0  0  0
 25 26  1  0  0  0
 23 22  1  0  0  0
 36 35  2  0  0  0
 36 37  1  0  0  0
  4  3  2  0  0  0
 26 24  2  0  0  0
 34 37  1  0  0  0
 34  1  1  0  0  0
 22 21  1  0  0  0
 22 27  2  0  0  0
 35 40  1  0  0  0
 21 20  2  0  0  0
 37 38  2  0  0  0
 17  1  1  0  0  0
 17 16  1  0  0  0
 24 27  1  0  0  0
 24 28  1  0  0  0
  3  1  1  0  0  0
  3  2  1  0  0  0
  8  7  2  0  0  0
  8  9  1  0  0  0
 40 39  2  0  0  0
  7  6  1  0  0  0
 20 16  1  0  0  0
 16 18  2  0  0  0
 38 39  1  0  0  0
  2  9  1  0  0  0
  9 11  2  0  0  0
 13 12  2  0  0  0
  6 12  1  0  0  0
  6 10  2  0  0  0
 12 14  1  0  0  0
 11 10  1  0  0  0
  2  5  1  0  0  0
 17 19  1  0  0  0
 14 15  1  0  0  0
M  END
> <minimizedAffinity>
-7.87902

$$$$
