5D45_57P_A_201


 30 34  0  0  0  0  0  0  0  0999 V2000
  -11.6115   -7.4275  -19.1054 C   0  0  0  0  0  0  0  0  0  0  0  0
   -9.4117   -7.7044  -20.7331 C   0  0  0  0  0  0  0  0  0  0  0  0
  -10.5039   -8.1561  -17.2274 N   0  0  0  0  0  0  0  0  0  0  0  0
  -11.7839   -7.8997  -16.8625 C   0  0  0  0  0  0  0  0  0  0  0  0
  -12.5517   -7.4206  -17.9930 C   0  0  0  0  0  0  0  0  0  0  0  0
  -10.3157   -7.9298  -18.5496 C   0  0  0  0  0  0  0  0  0  0  0  0
  -11.7619   -7.1502  -20.4394 C   0  0  0  0  0  0  0  0  0  0  0  0
  -10.6608   -7.2649  -21.2598 C   0  0  0  0  0  0  0  0  0  0  0  0
   -9.2072   -8.0337  -19.3887 C   0  0  0  0  0  0  0  0  0  0  0  0
  -15.4883   -5.0904  -18.2751 C   0  0  0  0  0  0  0  0  0  0  0  0
  -13.9874   -6.9935  -18.0558 C   0  0  0  0  0  0  0  0  0  0  0  0
  -15.0662   -7.8658  -17.8486 C   0  0  0  0  0  0  0  0  0  0  0  0
  -16.3670   -7.3663  -17.9404 C   0  0  0  0  0  0  0  0  0  0  0  0
  -16.5882   -5.9710  -18.1228 C   0  0  0  0  0  0  0  0  0  0  0  0
  -14.1564   -5.6079  -18.2328 C   0  0  0  0  0  0  0  0  0  0  0  0
  -12.3220   -8.0937  -15.4926 C   0  0  0  0  0  0  0  0  0  0  0  0
  -12.3585   -9.4439  -15.1171 C   0  0  0  0  0  0  0  0  0  0  0  0
  -12.8388   -9.8088  -13.8358 C   0  0  0  0  0  0  0  0  0  0  0  0
  -13.2231   -8.7889  -12.9434 C   0  0  0  0  0  0  0  0  0  0  0  0
  -13.2155   -7.4224  -13.3750 C   0  0  0  0  0  0  0  0  0  0  0  0
  -12.7264   -7.0717  -14.6561 C   0  0  0  0  0  0  0  0  0  0  0  0
  -10.9265   -6.8880  -22.7236 C   0  0  0  0  0  0  0  0  0  0  0  0
  -12.1104   -6.0818  -22.3638 C   0  0  0  0  0  0  0  0  0  0  0  0
  -12.3164   -7.3569  -23.1617 C   0  0  0  0  0  0  0  0  0  0  0  0
   -9.3539   -8.5166  -16.3477 C   0  0  0  0  0  0  0  0  0  0  0  0
   -8.6049   -7.1677  -16.2489 C   0  0  0  0  0  0  0  0  0  0  0  0
   -9.7251   -5.0584  -15.4950 O   0  0  0  0  0  0  0  0  0  0  0  0
   -9.1550   -6.1605  -15.2287 C   0  0  0  0  0  0  0  0  0  0  0  0
   -9.2408   -6.5354  -13.9964 O   0  0  0  0  0  0  0  0  0  0  0  0
   -8.8445   -7.3391  -13.7226 H   0  0  0  0  0  0  0  0  0  0  0  0
 24 23  1  0  0  0
 24 22  1  0  0  0
 23 22  1  0  0  0
 22  8  1  0  0  0
  8  2  2  0  0  0
  8  7  1  0  0  0
  2  9  1  0  0  0
  7  1  2  0  0  0
  9  6  2  0  0  0
  1  6  1  0  0  0
  1  5  1  0  0  0
 10 15  2  0  0  0
 10 14  1  0  0  0
 15 11  1  0  0  0
  6  3  1  0  0  0
 14 13  2  0  0  0
 11  5  1  0  0  0
 11 12  2  0  0  0
  5  4  2  0  0  0
 13 12  1  0  0  0
  3  4  1  0  0  0
  3 25  1  0  0  0
  4 16  1  0  0  0
 25 26  1  0  0  0
 26 28  1  0  0  0
 27 28  2  0  0  0
 28 29  1  0  0  0
 16 17  2  0  0  0
 16 21  1  0  0  0
 17 18  1  0  0  0
 21 20  2  0  0  0
 18 19  2  0  0  0
 20 19  1  0  0  0
 29 30  1  0  0  0
M  END
> <minimizedAffinity>
-10.49059

$$$$
5D45_57P_A_201


 30 34  0  0  0  0  0  0  0  0999 V2000
  -11.6032   -7.6979  -19.3011 C   0  0  0  0  0  0  0  0  0  0  0  0
   -9.6101   -8.2016  -21.1284 C   0  0  0  0  0  0  0  0  0  0  0  0
  -10.6025   -8.9326  -17.6402 N   0  0  0  0  0  0  0  0  0  0  0  0
  -11.7689   -8.4585  -17.1383 C   0  0  0  0  0  0  0  0  0  0  0  0
  -12.4602   -7.6538  -18.1242 C   0  0  0  0  0  0  0  0  0  0  0  0
  -10.4327   -8.5536  -18.9295 C   0  0  0  0  0  0  0  0  0  0  0  0
  -11.7512   -7.1930  -20.5669 C   0  0  0  0  0  0  0  0  0  0  0  0
  -10.7484   -7.4212  -21.4838 C   0  0  0  0  0  0  0  0  0  0  0  0
   -9.4210   -8.7702  -19.8641 C   0  0  0  0  0  0  0  0  0  0  0  0
  -16.1633   -7.1546  -17.7114 C   0  0  0  0  0  0  0  0  0  0  0  0
  -13.7597   -6.9153  -18.0081 C   0  0  0  0  0  0  0  0  0  0  0  0
  -13.8844   -5.5305  -18.1929 C   0  0  0  0  0  0  0  0  0  0  0  0
  -15.1418   -4.9399  -18.0511 C   0  0  0  0  0  0  0  0  0  0  0  0
  -16.2949   -5.7494  -17.8407 C   0  0  0  0  0  0  0  0  0  0  0  0
  -14.8698   -7.7558  -17.8050 C   0  0  0  0  0  0  0  0  0  0  0  0
  -12.2689   -8.7363  -15.7685 C   0  0  0  0  0  0  0  0  0  0  0  0
  -12.0212   -7.6785  -14.8825 C   0  0  0  0  0  0  0  0  0  0  0  0
  -12.4391   -7.7739  -13.5327 C   0  0  0  0  0  0  0  0  0  0  0  0
  -13.1468   -8.9216  -13.1249 C   0  0  0  0  0  0  0  0  0  0  0  0
  -13.3436  -10.0031  -14.0442 C   0  0  0  0  0  0  0  0  0  0  0  0
  -12.9266   -9.8911  -15.3921 C   0  0  0  0  0  0  0  0  0  0  0  0
  -10.9918   -6.7750  -22.8544 C   0  0  0  0  0  0  0  0  0  0  0  0
  -12.1931   -6.0639  -22.3727 C   0  0  0  0  0  0  0  0  0  0  0  0
  -12.3667   -7.1656  -23.4027 C   0  0  0  0  0  0  0  0  0  0  0  0
   -9.5248   -9.6691  -16.9173 C   0  0  0  0  0  0  0  0  0  0  0  0
   -9.6615  -11.0868  -17.5189 C   0  0  0  0  0  0  0  0  0  0  0  0
  -11.6772  -12.5588  -17.3124 O   0  0  0  0  0  0  0  0  0  0  0  0
  -10.6385  -12.0335  -16.8067 C   0  0  0  0  0  0  0  0  0  0  0  0
  -10.2870  -12.5133  -15.6610 O   0  0  0  0  0  0  0  0  0  0  0  0
   -9.5296  -12.1762  -15.2243 H   0  0  0  0  0  0  0  0  0  0  0  0
 24 23  1  0  0  0
 24 22  1  0  0  0
 23 22  1  0  0  0
 22  8  1  0  0  0
  8  2  2  0  0  0
  8  7  1  0  0  0
  2  9  1  0  0  0
  7  1  2  0  0  0
  9  6  2  0  0  0
  1  6  1  0  0  0
  1  5  1  0  0  0
 10 15  2  0  0  0
 10 14  1  0  0  0
 15 11  1  0  0  0
  6  3  1  0  0  0
 14 13  2  0  0  0
 11  5  1  0  0  0
 11 12  2  0  0  0
  5  4  2  0  0  0
 13 12  1  0  0  0
  3  4  1  0  0  0
  3 25  1  0  0  0
  4 16  1  0  0  0
 25 26  1  0  0  0
 26 28  1  0  0  0
 27 28  2  0  0  0
 28 29  1  0  0  0
 16 17  2  0  0  0
 16 21  1  0  0  0
 17 18  1  0  0  0
 21 20  2  0  0  0
 18 19  2  0  0  0
 20 19  1  0  0  0
 29 30  1  0  0  0
M  END
> <minimizedAffinity>
-9.59056

$$$$
5D45_57P_A_201


 30 34  0  0  0  0  0  0  0  0999 V2000
  -12.4264   -8.9407  -17.8520 C   0  0  0  0  0  0  0  0  0  0  0  0
  -11.7369  -11.0675  -16.2499 C   0  0  0  0  0  0  0  0  0  0  0  0
  -11.2353   -9.7181  -19.6578 N   0  0  0  0  0  0  0  0  0  0  0  0
  -11.7881   -8.5355  -20.0226 C   0  0  0  0  0  0  0  0  0  0  0  0
  -12.5712   -7.9810  -18.9379 C   0  0  0  0  0  0  0  0  0  0  0  0
  -11.5383  -10.0265  -18.3742 C   0  0  0  0  0  0  0  0  0  0  0  0
  -12.8709   -8.9373  -16.5552 C   0  0  0  0  0  0  0  0  0  0  0  0
  -12.5492  -10.0085  -15.7504 C   0  0  0  0  0  0  0  0  0  0  0  0
  -11.2269  -11.1087  -17.5521 C   0  0  0  0  0  0  0  0  0  0  0  0
  -15.5707   -5.7686  -18.4472 C   0  0  0  0  0  0  0  0  0  0  0  0
  -13.3738   -6.7155  -18.8939 C   0  0  0  0  0  0  0  0  0  0  0  0
  -12.8836   -5.4707  -19.3154 C   0  0  0  0  0  0  0  0  0  0  0  0
  -13.7124   -4.3507  -19.2220 C   0  0  0  0  0  0  0  0  0  0  0  0
  -15.0706   -4.4952  -18.8175 C   0  0  0  0  0  0  0  0  0  0  0  0
  -14.7088   -6.9081  -18.4932 C   0  0  0  0  0  0  0  0  0  0  0  0
  -11.6054   -7.8964  -21.3500 C   0  0  0  0  0  0  0  0  0  0  0  0
  -10.2791   -7.5035  -21.5778 C   0  0  0  0  0  0  0  0  0  0  0  0
   -9.9258   -6.8820  -22.8004 C   0  0  0  0  0  0  0  0  0  0  0  0
  -10.9183   -6.7203  -23.7869 C   0  0  0  0  0  0  0  0  0  0  0  0
  -12.2731   -7.0922  -23.5042 C   0  0  0  0  0  0  0  0  0  0  0  0
  -12.6105   -7.7186  -22.2806 C   0  0  0  0  0  0  0  0  0  0  0  0
  -13.1336   -9.9271  -14.3336 C   0  0  0  0  0  0  0  0  0  0  0  0
  -12.7014   -8.5244  -14.1711 C   0  0  0  0  0  0  0  0  0  0  0  0
  -12.0423   -9.5903  -13.3143 C   0  0  0  0  0  0  0  0  0  0  0  0
  -10.4886  -10.6848  -20.5148 C   0  0  0  0  0  0  0  0  0  0  0  0
   -9.1044  -10.7037  -19.8265 C   0  0  0  0  0  0  0  0  0  0  0  0
   -7.4545   -8.8604  -20.2171 O   0  0  0  0  0  0  0  0  0  0  0  0
   -7.9735   -9.9669  -20.5588 C   0  0  0  0  0  0  0  0  0  0  0  0
   -7.3407  -10.6028  -21.4870 O   0  0  0  0  0  0  0  0  0  0  0  0
   -7.6628  -11.4279  -21.7928 H   0  0  0  0  0  0  0  0  0  0  0  0
 24 23  1  0  0  0
 24 22  1  0  0  0
 23 22  1  0  0  0
 22  8  1  0  0  0
  8  2  2  0  0  0
  8  7  1  0  0  0
  2  9  1  0  0  0
  7  1  2  0  0  0
  9  6  2  0  0  0
  1  6  1  0  0  0
  1  5  1  0  0  0
 10 15  2  0  0  0
 10 14  1  0  0  0
 15 11  1  0  0  0
  6  3  1  0  0  0
 14 13  2  0  0  0
 11  5  1  0  0  0
 11 12  2  0  0  0
  5  4  2  0  0  0
 13 12  1  0  0  0
  3  4  1  0  0  0
  3 25  1  0  0  0
  4 16  1  0  0  0
 25 26  1  0  0  0
 26 28  1  0  0  0
 27 28  2  0  0  0
 28 29  1  0  0  0
 16 17  2  0  0  0
 16 21  1  0  0  0
 17 18  1  0  0  0
 21 20  2  0  0  0
 18 19  2  0  0  0
 20 19  1  0  0  0
 29 30  1  0  0  0
M  END
> <minimizedAffinity>
-9.25132

$$$$
5D45_57P_A_201


 30 34  0  0  0  0  0  0  0  0999 V2000
  -11.9409   -7.5222  -16.6940 C   0  0  0  0  0  0  0  0  0  0  0  0
  -10.0417   -7.9555  -14.7522 C   0  0  0  0  0  0  0  0  0  0  0  0
  -10.4419   -7.7366  -18.4235 N   0  0  0  0  0  0  0  0  0  0  0  0
  -11.6491   -7.4575  -18.9730 C   0  0  0  0  0  0  0  0  0  0  0  0
  -12.6592   -7.3186  -17.9445 C   0  0  0  0  0  0  0  0  0  0  0  0
  -10.5135   -7.7680  -17.0713 C   0  0  0  0  0  0  0  0  0  0  0  0
  -12.3346   -7.4445  -15.3832 C   0  0  0  0  0  0  0  0  0  0  0  0
  -11.3958   -7.6812  -14.4028 C   0  0  0  0  0  0  0  0  0  0  0  0
   -9.5750   -8.0139  -16.0699 C   0  0  0  0  0  0  0  0  0  0  0  0
  -15.8086   -5.2874  -18.2413 C   0  0  0  0  0  0  0  0  0  0  0  0
  -14.1254   -7.0378  -18.0826 C   0  0  0  0  0  0  0  0  0  0  0  0
  -15.1128   -8.0334  -18.0467 C   0  0  0  0  0  0  0  0  0  0  0  0
  -16.4512   -7.6641  -18.1957 C   0  0  0  0  0  0  0  0  0  0  0  0
  -16.8123   -6.2877  -18.2625 C   0  0  0  0  0  0  0  0  0  0  0  0
  -14.4339   -5.6662  -18.1406 C   0  0  0  0  0  0  0  0  0  0  0  0
  -11.8949   -7.3069  -20.4292 C   0  0  0  0  0  0  0  0  0  0  0  0
  -12.3908   -6.0382  -20.7609 C   0  0  0  0  0  0  0  0  0  0  0  0
  -12.6748   -5.7209  -22.1116 C   0  0  0  0  0  0  0  0  0  0  0  0
  -12.3993   -6.6828  -23.1032 C   0  0  0  0  0  0  0  0  0  0  0  0
  -11.9352   -7.9848  -22.7253 C   0  0  0  0  0  0  0  0  0  0  0  0
  -11.6490   -8.2858  -21.3722 C   0  0  0  0  0  0  0  0  0  0  0  0
  -11.9502   -7.6144  -12.9733 C   0  0  0  0  0  0  0  0  0  0  0  0
  -12.9019   -8.7148  -13.2268 C   0  0  0  0  0  0  0  0  0  0  0  0
  -13.4525   -7.3206  -12.9865 C   0  0  0  0  0  0  0  0  0  0  0  0
   -9.1771   -8.1025  -19.1254 C   0  0  0  0  0  0  0  0  0  0  0  0
   -9.2904   -9.6433  -19.1846 C   0  0  0  0  0  0  0  0  0  0  0  0
   -7.6641   -9.9459  -21.0650 O   0  0  0  0  0  0  0  0  0  0  0  0
   -8.6973  -10.3189  -20.4295 C   0  0  0  0  0  0  0  0  0  0  0  0
   -9.1493  -11.4827  -20.7578 O   0  0  0  0  0  0  0  0  0  0  0  0
   -9.9098  -11.8270  -20.3323 H   0  0  0  0  0  0  0  0  0  0  0  0
 24 23  1  0  0  0
 24 22  1  0  0  0
 23 22  1  0  0  0
 22  8  1  0  0  0
  8  2  2  0  0  0
  8  7  1  0  0  0
  2  9  1  0  0  0
  7  1  2  0  0  0
  9  6  2  0  0  0
  1  6  1  0  0  0
  1  5  1  0  0  0
 10 15  2  0  0  0
 10 14  1  0  0  0
 15 11  1  0  0  0
  6  3  1  0  0  0
 14 13  2  0  0  0
 11  5  1  0  0  0
 11 12  2  0  0  0
  5  4  2  0  0  0
 13 12  1  0  0  0
  3  4  1  0  0  0
  3 25  1  0  0  0
  4 16  1  0  0  0
 25 26  1  0  0  0
 26 28  1  0  0  0
 27 28  2  0  0  0
 28 29  1  0  0  0
 16 17  2  0  0  0
 16 21  1  0  0  0
 17 18  1  0  0  0
 21 20  2  0  0  0
 18 19  2  0  0  0
 20 19  1  0  0  0
 29 30  1  0  0  0
M  END
> <minimizedAffinity>
-9.10552

$$$$
5D45_57P_A_201


 30 34  0  0  0  0  0  0  0  0999 V2000
  -11.7706   -7.8235  -17.7687 C   0  0  0  0  0  0  0  0  0  0  0  0
  -13.0677   -7.1247  -15.4460 C   0  0  0  0  0  0  0  0  0  0  0  0
  -13.0778   -6.4678  -19.0868 N   0  0  0  0  0  0  0  0  0  0  0  0
  -12.2090   -7.1065  -19.9081 C   0  0  0  0  0  0  0  0  0  0  0  0
  -11.3346   -7.9770  -19.1499 C   0  0  0  0  0  0  0  0  0  0  0  0
  -12.9091   -6.8523  -17.7990 C   0  0  0  0  0  0  0  0  0  0  0  0
  -11.3801   -8.4369  -16.6066 C   0  0  0  0  0  0  0  0  0  0  0  0
  -12.0087   -8.0783  -15.4341 C   0  0  0  0  0  0  0  0  0  0  0  0
  -13.5314   -6.4919  -16.6045 C   0  0  0  0  0  0  0  0  0  0  0  0
   -7.8312   -8.9447  -20.1103 C   0  0  0  0  0  0  0  0  0  0  0  0
  -10.2148   -8.8516  -19.6280 C   0  0  0  0  0  0  0  0  0  0  0  0
  -10.4017  -10.1511  -20.1218 C   0  0  0  0  0  0  0  0  0  0  0  0
   -9.2870  -10.8854  -20.5322 C   0  0  0  0  0  0  0  0  0  0  0  0
   -7.9986  -10.2784  -20.5595 C   0  0  0  0  0  0  0  0  0  0  0  0
   -8.9633   -8.2085  -19.6414 C   0  0  0  0  0  0  0  0  0  0  0  0
  -12.1694   -6.9398  -21.3826 C   0  0  0  0  0  0  0  0  0  0  0  0
  -10.8603   -6.9016  -21.8829 C   0  0  0  0  0  0  0  0  0  0  0  0
  -10.6389   -6.7537  -23.2739 C   0  0  0  0  0  0  0  0  0  0  0  0
  -11.7541   -6.7003  -24.1329 C   0  0  0  0  0  0  0  0  0  0  0  0
  -13.0781   -6.6970  -23.5846 C   0  0  0  0  0  0  0  0  0  0  0  0
  -13.2845   -6.8522  -22.1929 C   0  0  0  0  0  0  0  0  0  0  0  0
  -11.4657   -8.7899  -14.1875 C   0  0  0  0  0  0  0  0  0  0  0  0
  -12.0406   -7.7737  -13.2833 C   0  0  0  0  0  0  0  0  0  0  0  0
  -10.5300   -7.8688  -13.4004 C   0  0  0  0  0  0  0  0  0  0  0  0
  -14.0378   -5.3798  -19.4346 C   0  0  0  0  0  0  0  0  0  0  0  0
  -15.3613   -6.1670  -19.5725 C   0  0  0  0  0  0  0  0  0  0  0  0
  -16.4835   -4.8293  -17.7770 O   0  0  0  0  0  0  0  0  0  0  0  0
  -16.4550   -5.8386  -18.5459 C   0  0  0  0  0  0  0  0  0  0  0  0
  -17.5497   -6.5213  -18.5909 O   0  0  0  0  0  0  0  0  0  0  0  0
  -17.6059   -7.2809  -19.1365 H   0  0  0  0  0  0  0  0  0  0  0  0
 24 23  1  0  0  0
 24 22  1  0  0  0
 23 22  1  0  0  0
 22  8  1  0  0  0
  8  2  2  0  0  0
  8  7  1  0  0  0
  2  9  1  0  0  0
  7  1  2  0  0  0
  9  6  2  0  0  0
  1  6  1  0  0  0
  1  5  1  0  0  0
 10 15  2  0  0  0
 10 14  1  0  0  0
 15 11  1  0  0  0
  6  3  1  0  0  0
 14 13  2  0  0  0
 11  5  1  0  0  0
 11 12  2  0  0  0
  5  4  2  0  0  0
 13 12  1  0  0  0
  3  4  1  0  0  0
  3 25  1  0  0  0
  4 16  1  0  0  0
 25 26  1  0  0  0
 26 28  1  0  0  0
 27 28  2  0  0  0
 28 29  1  0  0  0
 16 17  2  0  0  0
 16 21  1  0  0  0
 17 18  1  0  0  0
 21 20  2  0  0  0
 18 19  2  0  0  0
 20 19  1  0  0  0
 29 30  1  0  0  0
M  END
> <minimizedAffinity>
-9.06736

$$$$
5D45_57P_A_201


 30 34  0  0  0  0  0  0  0  0999 V2000
  -11.9147   -7.9929  -17.4055 C   0  0  0  0  0  0  0  0  0  0  0  0
  -10.8738   -9.5083  -15.3596 C   0  0  0  0  0  0  0  0  0  0  0  0
  -10.4704   -8.8463  -18.9770 N   0  0  0  0  0  0  0  0  0  0  0  0
  -11.2471   -7.9293  -19.6040 C   0  0  0  0  0  0  0  0  0  0  0  0
  -12.1998   -7.3491  -18.6804 C   0  0  0  0  0  0  0  0  0  0  0  0
  -10.7776   -8.9321  -17.6606 C   0  0  0  0  0  0  0  0  0  0  0  0
  -12.4293   -7.8124  -16.1478 C   0  0  0  0  0  0  0  0  0  0  0  0
  -11.9298   -8.5819  -15.1197 C   0  0  0  0  0  0  0  0  0  0  0  0
  -10.2867   -9.7108  -16.6134 C   0  0  0  0  0  0  0  0  0  0  0  0
  -15.6608   -5.9036  -18.9349 C   0  0  0  0  0  0  0  0  0  0  0  0
  -13.2635   -6.3227  -18.9305 C   0  0  0  0  0  0  0  0  0  0  0  0
  -13.0036   -5.0474  -19.4535 C   0  0  0  0  0  0  0  0  0  0  0  0
  -14.0678   -4.1623  -19.6380 C   0  0  0  0  0  0  0  0  0  0  0  0
  -15.4065   -4.5929  -19.4104 C   0  0  0  0  0  0  0  0  0  0  0  0
  -14.5684   -6.7942  -18.6965 C   0  0  0  0  0  0  0  0  0  0  0  0
  -11.1274   -7.5667  -21.0385 C   0  0  0  0  0  0  0  0  0  0  0  0
  -12.3520   -7.6482  -21.7161 C   0  0  0  0  0  0  0  0  0  0  0  0
  -12.4203   -7.3290  -23.0942 C   0  0  0  0  0  0  0  0  0  0  0  0
  -11.2518   -6.8830  -23.7424 C   0  0  0  0  0  0  0  0  0  0  0  0
  -10.0078   -6.8542  -23.0315 C   0  0  0  0  0  0  0  0  0  0  0  0
   -9.9557   -7.1694  -21.6526 C   0  0  0  0  0  0  0  0  0  0  0  0
  -12.6054   -8.3337  -13.7642 C   0  0  0  0  0  0  0  0  0  0  0  0
  -11.7317   -9.3097  -13.0824 C   0  0  0  0  0  0  0  0  0  0  0  0
  -13.2104   -9.6276  -13.2136 C   0  0  0  0  0  0  0  0  0  0  0  0
   -9.4763   -9.7771  -19.5868 C   0  0  0  0  0  0  0  0  0  0  0  0
  -10.3959  -10.7442  -20.3674 C   0  0  0  0  0  0  0  0  0  0  0  0
  -12.5267  -11.6038  -19.3709 O   0  0  0  0  0  0  0  0  0  0  0  0
  -11.2688  -11.6812  -19.5201 C   0  0  0  0  0  0  0  0  0  0  0  0
  -10.7325  -12.7680  -19.0755 O   0  0  0  0  0  0  0  0  0  0  0  0
   -9.8075  -12.8984  -19.1497 H   0  0  0  0  0  0  0  0  0  0  0  0
 24 23  1  0  0  0
 24 22  1  0  0  0
 23 22  1  0  0  0
 22  8  1  0  0  0
  8  2  2  0  0  0
  8  7  1  0  0  0
  2  9  1  0  0  0
  7  1  2  0  0  0
  9  6  2  0  0  0
  1  6  1  0  0  0
  1  5  1  0  0  0
 10 15  2  0  0  0
 10 14  1  0  0  0
 15 11  1  0  0  0
  6  3  1  0  0  0
 14 13  2  0  0  0
 11  5  1  0  0  0
 11 12  2  0  0  0
  5  4  2  0  0  0
 13 12  1  0  0  0
  3  4  1  0  0  0
  3 25  1  0  0  0
  4 16  1  0  0  0
 25 26  1  0  0  0
 26 28  1  0  0  0
 27 28  2  0  0  0
 28 29  1  0  0  0
 16 17  2  0  0  0
 16 21  1  0  0  0
 17 18  1  0  0  0
 21 20  2  0  0  0
 18 19  2  0  0  0
 20 19  1  0  0  0
 29 30  1  0  0  0
M  END
> <minimizedAffinity>
-9.04391

$$$$
5D45_57P_A_201


 30 34  0  0  0  0  0  0  0  0999 V2000
  -11.9776   -7.6153  -19.8606 C   0  0  0  0  0  0  0  0  0  0  0  0
  -12.5442   -5.8488  -21.8913 C   0  0  0  0  0  0  0  0  0  0  0  0
  -13.2521   -6.4859  -18.3164 N   0  0  0  0  0  0  0  0  0  0  0  0
  -12.6916   -7.5415  -17.6770 C   0  0  0  0  0  0  0  0  0  0  0  0
  -11.8772   -8.3179  -18.5887 C   0  0  0  0  0  0  0  0  0  0  0  0
  -12.8622   -6.4337  -19.6126 C   0  0  0  0  0  0  0  0  0  0  0  0
  -11.3778   -7.8215  -21.0759 C   0  0  0  0  0  0  0  0  0  0  0  0
  -11.6716   -6.9548  -22.1060 C   0  0  0  0  0  0  0  0  0  0  0  0
  -13.1579   -5.5689  -20.6655 C   0  0  0  0  0  0  0  0  0  0  0  0
  -10.9608  -11.9583  -18.7891 C   0  0  0  0  0  0  0  0  0  0  0  0
  -11.0952   -9.5714  -18.3342 C   0  0  0  0  0  0  0  0  0  0  0  0
  -10.0144   -9.6442  -17.4430 C   0  0  0  0  0  0  0  0  0  0  0  0
   -9.3468  -10.8608  -17.2877 C   0  0  0  0  0  0  0  0  0  0  0  0
   -9.8330  -12.0333  -17.9342 C   0  0  0  0  0  0  0  0  0  0  0  0
  -11.6145  -10.7030  -18.9896 C   0  0  0  0  0  0  0  0  0  0  0  0
  -12.8825   -7.8499  -16.2375 C   0  0  0  0  0  0  0  0  0  0  0  0
  -13.1605   -9.2053  -16.0118 C   0  0  0  0  0  0  0  0  0  0  0  0
  -13.3642   -9.6750  -14.6913 C   0  0  0  0  0  0  0  0  0  0  0  0
  -13.2292   -8.7664  -13.6234 C   0  0  0  0  0  0  0  0  0  0  0  0
  -12.9887   -7.3795  -13.8922 C   0  0  0  0  0  0  0  0  0  0  0  0
  -12.7804   -6.9253  -15.2165 C   0  0  0  0  0  0  0  0  0  0  0  0
  -10.9839   -7.3014  -23.4335 C   0  0  0  0  0  0  0  0  0  0  0  0
   -9.9602   -8.1237  -22.7576 C   0  0  0  0  0  0  0  0  0  0  0  0
   -9.5265   -6.8329  -23.4290 C   0  0  0  0  0  0  0  0  0  0  0  0
  -14.2710   -5.5308  -17.7911 C   0  0  0  0  0  0  0  0  0  0  0  0
  -15.5475   -6.0069  -18.5220 C   0  0  0  0  0  0  0  0  0  0  0  0
  -16.1948   -8.3456  -17.9027 O   0  0  0  0  0  0  0  0  0  0  0  0
  -16.3699   -7.0920  -17.8120 C   0  0  0  0  0  0  0  0  0  0  0  0
  -17.1824   -6.7206  -16.8802 O   0  0  0  0  0  0  0  0  0  0  0  0
  -17.3625   -5.8102  -16.7511 H   0  0  0  0  0  0  0  0  0  0  0  0
 24 23  1  0  0  0
 24 22  1  0  0  0
 23 22  1  0  0  0
 22  8  1  0  0  0
  8  2  2  0  0  0
  8  7  1  0  0  0
  2  9  1  0  0  0
  7  1  2  0  0  0
  9  6  2  0  0  0
  1  6  1  0  0  0
  1  5  1  0  0  0
 10 15  2  0  0  0
 10 14  1  0  0  0
 15 11  1  0  0  0
  6  3  1  0  0  0
 14 13  2  0  0  0
 11  5  1  0  0  0
 11 12  2  0  0  0
  5  4  2  0  0  0
 13 12  1  0  0  0
  3  4  1  0  0  0
  3 25  1  0  0  0
  4 16  1  0  0  0
 25 26  1  0  0  0
 26 28  1  0  0  0
 27 28  2  0  0  0
 28 29  1  0  0  0
 16 17  2  0  0  0
 16 21  1  0  0  0
 17 18  1  0  0  0
 21 20  2  0  0  0
 18 19  2  0  0  0
 20 19  1  0  0  0
 29 30  1  0  0  0
M  END
> <minimizedAffinity>
-8.92166

$$$$
5D45_57P_A_201


 30 34  0  0  0  0  0  0  0  0999 V2000
  -12.0177   -7.0354  -20.3665 C   0  0  0  0  0  0  0  0  0  0  0  0
  -14.1532   -5.9124  -21.6871 C   0  0  0  0  0  0  0  0  0  0  0  0
  -12.6786   -6.2474  -18.3107 N   0  0  0  0  0  0  0  0  0  0  0  0
  -11.5156   -6.9188  -18.1265 C   0  0  0  0  0  0  0  0  0  0  0  0
  -11.0347   -7.4617  -19.3800 C   0  0  0  0  0  0  0  0  0  0  0  0
  -13.0404   -6.2410  -19.6160 C   0  0  0  0  0  0  0  0  0  0  0  0
  -12.0759   -7.1772  -21.7287 C   0  0  0  0  0  0  0  0  0  0  0  0
  -13.1527   -6.6370  -22.3975 C   0  0  0  0  0  0  0  0  0  0  0  0
  -14.1292   -5.7064  -20.3034 C   0  0  0  0  0  0  0  0  0  0  0  0
   -9.0055  -10.5051  -20.2476 C   0  0  0  0  0  0  0  0  0  0  0  0
   -9.8139   -8.2880  -19.6531 C   0  0  0  0  0  0  0  0  0  0  0  0
   -8.5038   -7.8183  -19.4781 C   0  0  0  0  0  0  0  0  0  0  0  0
   -7.4357   -8.6684  -19.7721 C   0  0  0  0  0  0  0  0  0  0  0  0
   -7.6769  -10.0263  -20.1284 C   0  0  0  0  0  0  0  0  0  0  0  0
  -10.1011   -9.6219  -19.9969 C   0  0  0  0  0  0  0  0  0  0  0  0
  -10.8286   -7.0665  -16.8189 C   0  0  0  0  0  0  0  0  0  0  0  0
   -9.8706   -6.0665  -16.6006 C   0  0  0  0  0  0  0  0  0  0  0  0
   -9.1246   -6.0526  -15.3968 C   0  0  0  0  0  0  0  0  0  0  0  0
   -9.4052   -7.0256  -14.4177 C   0  0  0  0  0  0  0  0  0  0  0  0
  -10.3588   -8.0597  -14.6915 C   0  0  0  0  0  0  0  0  0  0  0  0
  -11.1020   -8.0571  -15.8961 C   0  0  0  0  0  0  0  0  0  0  0  0
  -13.1438   -6.8915  -23.9110 C   0  0  0  0  0  0  0  0  0  0  0  0
  -11.6679   -6.8955  -23.9623 C   0  0  0  0  0  0  0  0  0  0  0  0
  -12.4144   -5.7647  -24.6471 C   0  0  0  0  0  0  0  0  0  0  0  0
  -13.5796   -5.6710  -17.2704 C   0  0  0  0  0  0  0  0  0  0  0  0
  -14.5549   -6.8444  -17.0208 C   0  0  0  0  0  0  0  0  0  0  0  0
  -16.5540   -5.4720  -17.6472 O   0  0  0  0  0  0  0  0  0  0  0  0
  -16.0228   -6.5972  -17.3979 C   0  0  0  0  0  0  0  0  0  0  0  0
  -16.7511   -7.6216  -17.6921 O   0  0  0  0  0  0  0  0  0  0  0  0
  -16.4270   -8.4870  -17.5368 H   0  0  0  0  0  0  0  0  0  0  0  0
 24 23  1  0  0  0
 24 22  1  0  0  0
 23 22  1  0  0  0
 22  8  1  0  0  0
  8  2  2  0  0  0
  8  7  1  0  0  0
  2  9  1  0  0  0
  7  1  2  0  0  0
  9  6  2  0  0  0
  1  6  1  0  0  0
  1  5  1  0  0  0
 10 15  2  0  0  0
 10 14  1  0  0  0
 15 11  1  0  0  0
  6  3  1  0  0  0
 14 13  2  0  0  0
 11  5  1  0  0  0
 11 12  2  0  0  0
  5  4  2  0  0  0
 13 12  1  0  0  0
  3  4  1  0  0  0
  3 25  1  0  0  0
  4 16  1  0  0  0
 25 26  1  0  0  0
 26 28  1  0  0  0
 27 28  2  0  0  0
 28 29  1  0  0  0
 16 17  2  0  0  0
 16 21  1  0  0  0
 17 18  1  0  0  0
 21 20  2  0  0  0
 18 19  2  0  0  0
 20 19  1  0  0  0
 29 30  1  0  0  0
M  END
> <minimizedAffinity>
-8.78706

$$$$
5D45_57P_A_201


 30 34  0  0  0  0  0  0  0  0999 V2000
  -10.6441   -7.4501  -19.2647 C   0  0  0  0  0  0  0  0  0  0  0  0
   -8.5497   -8.2752  -17.6841 C   0  0  0  0  0  0  0  0  0  0  0  0
  -11.9244   -6.7732  -17.4796 N   0  0  0  0  0  0  0  0  0  0  0  0
  -12.6541   -6.5543  -18.6007 C   0  0  0  0  0  0  0  0  0  0  0  0
  -11.9094   -6.9450  -19.7797 C   0  0  0  0  0  0  0  0  0  0  0  0
  -10.7253   -7.3295  -17.7750 C   0  0  0  0  0  0  0  0  0  0  0  0
   -9.5631   -8.0248  -19.8813 C   0  0  0  0  0  0  0  0  0  0  0  0
   -8.4993   -8.4220  -19.1008 C   0  0  0  0  0  0  0  0  0  0  0  0
   -9.6388   -7.7278  -16.9973 C   0  0  0  0  0  0  0  0  0  0  0  0
  -11.4704   -6.7887  -23.5100 C   0  0  0  0  0  0  0  0  0  0  0  0
  -12.3021   -6.8617  -21.2242 C   0  0  0  0  0  0  0  0  0  0  0  0
  -13.6202   -6.6599  -21.6595 C   0  0  0  0  0  0  0  0  0  0  0  0
  -13.8790   -6.6083  -23.0308 C   0  0  0  0  0  0  0  0  0  0  0  0
  -12.8043   -6.6406  -23.9652 C   0  0  0  0  0  0  0  0  0  0  0  0
  -11.2083   -6.8934  -22.1087 C   0  0  0  0  0  0  0  0  0  0  0  0
  -14.0306   -5.9985  -18.6123 C   0  0  0  0  0  0  0  0  0  0  0  0
  -15.0032   -6.9698  -18.3366 C   0  0  0  0  0  0  0  0  0  0  0  0
  -16.3724   -6.6093  -18.3012 C   0  0  0  0  0  0  0  0  0  0  0  0
  -16.7197   -5.2580  -18.4953 C   0  0  0  0  0  0  0  0  0  0  0  0
  -15.7049   -4.2995  -18.8191 C   0  0  0  0  0  0  0  0  0  0  0  0
  -14.3398   -4.6725  -18.8443 C   0  0  0  0  0  0  0  0  0  0  0  0
   -7.3240   -9.0101  -19.8934 C   0  0  0  0  0  0  0  0  0  0  0  0
   -8.0933   -9.0045  -21.1540 C   0  0  0  0  0  0  0  0  0  0  0  0
   -7.7166  -10.3410  -20.5400 C   0  0  0  0  0  0  0  0  0  0  0  0
  -12.2517   -6.3739  -16.0796 C   0  0  0  0  0  0  0  0  0  0  0  0
  -12.6709   -7.7277  -15.4616 C   0  0  0  0  0  0  0  0  0  0  0  0
  -11.2074   -8.9993  -13.8761 O   0  0  0  0  0  0  0  0  0  0  0  0
  -12.0462   -8.0742  -14.1023 C   0  0  0  0  0  0  0  0  0  0  0  0
  -12.2155   -7.2417  -13.1304 O   0  0  0  0  0  0  0  0  0  0  0  0
  -12.8191   -6.5309  -13.2221 H   0  0  0  0  0  0  0  0  0  0  0  0
 24 23  1  0  0  0
 24 22  1  0  0  0
 23 22  1  0  0  0
 22  8  1  0  0  0
  8  2  2  0  0  0
  8  7  1  0  0  0
  2  9  1  0  0  0
  7  1  2  0  0  0
  9  6  2  0  0  0
  1  6  1  0  0  0
  1  5  1  0  0  0
 10 15  2  0  0  0
 10 14  1  0  0  0
 15 11  1  0  0  0
  6  3  1  0  0  0
 14 13  2  0  0  0
 11  5  1  0  0  0
 11 12  2  0  0  0
  5  4  2  0  0  0
 13 12  1  0  0  0
  3  4  1  0  0  0
  3 25  1  0  0  0
  4 16  1  0  0  0
 25 26  1  0  0  0
 26 28  1  0  0  0
 27 28  2  0  0  0
 28 29  1  0  0  0
 16 17  2  0  0  0
 16 21  1  0  0  0
 17 18  1  0  0  0
 21 20  2  0  0  0
 18 19  2  0  0  0
 20 19  1  0  0  0
 29 30  1  0  0  0
M  END
> <minimizedAffinity>
-8.31396

$$$$
5D45_57P_A_201


 30 34  0  0  0  0  0  0  0  0999 V2000
  -12.4169   -7.8302  -18.1760 C   0  0  0  0  0  0  0  0  0  0  0  0
  -12.3981   -6.6130  -20.6424 C   0  0  0  0  0  0  0  0  0  0  0  0
  -11.5234   -9.7942  -18.9688 N   0  0  0  0  0  0  0  0  0  0  0  0
  -11.7486   -9.9639  -17.6430 C   0  0  0  0  0  0  0  0  0  0  0  0
  -12.3034   -8.7597  -17.0604 C   0  0  0  0  0  0  0  0  0  0  0  0
  -11.9156   -8.5647  -19.3800 C   0  0  0  0  0  0  0  0  0  0  0  0
  -12.9341   -6.5643  -18.2702 C   0  0  0  0  0  0  0  0  0  0  0  0
  -12.9099   -5.9371  -19.4969 C   0  0  0  0  0  0  0  0  0  0  0  0
  -11.8891   -7.9159  -20.6138 C   0  0  0  0  0  0  0  0  0  0  0  0
  -13.4128   -6.7606  -14.0763 C   0  0  0  0  0  0  0  0  0  0  0  0
  -12.6840   -8.4790  -15.6378 C   0  0  0  0  0  0  0  0  0  0  0  0
  -12.5734   -9.4212  -14.6045 C   0  0  0  0  0  0  0  0  0  0  0  0
  -12.9662   -9.0592  -13.3143 C   0  0  0  0  0  0  0  0  0  0  0  0
  -13.3587   -7.7189  -13.0336 C   0  0  0  0  0  0  0  0  0  0  0  0
  -13.0603   -7.1428  -15.4078 C   0  0  0  0  0  0  0  0  0  0  0  0
  -11.4713  -11.2172  -16.8972 C   0  0  0  0  0  0  0  0  0  0  0  0
  -12.6285  -11.9773  -16.6770 C   0  0  0  0  0  0  0  0  0  0  0  0
  -12.5439  -13.2097  -15.9843 C   0  0  0  0  0  0  0  0  0  0  0  0
  -11.2763  -13.6686  -15.5758 C   0  0  0  0  0  0  0  0  0  0  0  0
  -10.1203  -12.8461  -15.7771 C   0  0  0  0  0  0  0  0  0  0  0  0
  -10.2186  -11.6197  -16.4770 C   0  0  0  0  0  0  0  0  0  0  0  0
  -13.4705   -4.5085  -19.4829 C   0  0  0  0  0  0  0  0  0  0  0  0
  -14.4423   -4.8361  -18.4203 C   0  0  0  0  0  0  0  0  0  0  0  0
  -14.9667   -4.5088  -19.8069 C   0  0  0  0  0  0  0  0  0  0  0  0
  -10.8265  -10.7219  -19.9069 C   0  0  0  0  0  0  0  0  0  0  0  0
   -9.3458  -10.3431  -19.6741 C   0  0  0  0  0  0  0  0  0  0  0  0
   -8.6851   -8.9654  -21.6586 O   0  0  0  0  0  0  0  0  0  0  0  0
   -8.5314   -9.9913  -20.9275 C   0  0  0  0  0  0  0  0  0  0  0  0
   -7.4614  -10.6739  -21.1633 O   0  0  0  0  0  0  0  0  0  0  0  0
   -7.2783  -11.4454  -20.6640 H   0  0  0  0  0  0  0  0  0  0  0  0
 24 23  1  0  0  0
 24 22  1  0  0  0
 23 22  1  0  0  0
 22  8  1  0  0  0
  8  2  2  0  0  0
  8  7  1  0  0  0
  2  9  1  0  0  0
  7  1  2  0  0  0
  9  6  2  0  0  0
  1  6  1  0  0  0
  1  5  1  0  0  0
 10 15  2  0  0  0
 10 14  1  0  0  0
 15 11  1  0  0  0
  6  3  1  0  0  0
 14 13  2  0  0  0
 11  5  1  0  0  0
 11 12  2  0  0  0
  5  4  2  0  0  0
 13 12  1  0  0  0
  3  4  1  0  0  0
  3 25  1  0  0  0
  4 16  1  0  0  0
 25 26  1  0  0  0
 26 28  1  0  0  0
 27 28  2  0  0  0
 28 29  1  0  0  0
 16 17  2  0  0  0
 16 21  1  0  0  0
 17 18  1  0  0  0
 21 20  2  0  0  0
 18 19  2  0  0  0
 20 19  1  0  0  0
 29 30  1  0  0  0
M  END
> <minimizedAffinity>
-8.07873

$$$$
