3EHY_TBL_A_1


 19 19  0  0  0  0  0  0  0  0999 V2000
   -2.1704   -6.8673   -8.8028 O   0  0  0  0  0  0  0  0  0  0  0  0
   -3.0415   -5.8126   -8.3898 S   0  0  0  0  0  0  0  0  0  0  0  0
   -2.9404   -4.6093   -9.1741 O   0  0  0  0  0  0  0  0  0  0  0  0
   -4.5547   -6.3547   -8.6501 C   0  0  0  0  0  0  0  0  0  0  0  0
   -5.4070   -6.5289   -7.5620 C   0  0  0  0  0  0  0  0  0  0  0  0
   -6.7105   -7.0242   -7.7455 C   0  0  0  0  0  0  0  0  0  0  0  0
   -7.1547   -7.4308   -9.0100 C   0  0  0  0  0  0  0  0  0  0  0  0
   -6.3374   -7.2707  -10.1143 C   0  0  0  0  0  0  0  0  0  0  0  0
   -5.0378   -6.7258   -9.9302 C   0  0  0  0  0  0  0  0  0  0  0  0
   -8.4491   -7.9115   -9.1237 O   0  0  0  0  0  0  0  0  0  0  0  0
   -9.3077   -8.2061   -8.0320 C   0  0  0  0  0  0  0  0  0  0  0  0
   -2.6907   -5.5347   -6.8416 N   0  0  0  0  0  0  0  0  0  0  0  0
   -3.5404   -5.7164   -6.3073 H   0  0  0  0  0  0  0  0  0  0  0  0
   -1.6087   -6.2960   -6.1978 C   0  0  0  0  0  0  0  0  0  0  0  0
   -2.0838   -6.8337   -4.8459 C   0  0  0  0  0  0  0  0  0  0  0  0
   -0.3894   -5.4342   -5.9983 C   0  0  0  0  0  0  0  0  0  0  0  0
    0.3633   -5.5761   -5.0549 O   0  0  0  0  0  0  0  0  0  0  0  0
   -0.1196   -4.4816   -6.8903 O   0  0  0  0  0  0  0  0  0  0  0  0
   -0.6861   -4.3543   -7.6256 H   0  0  0  0  0  0  0  0  0  0  0  0
  2  1  2  0  0  0
  4  2  1  0  0  0
  3  2  2  0  0  0
  2 12  1  0  0  0
 14 12  1  0  0  0
 16 14  1  0  0  0
 14 15  1  0  0  0
 17 16  2  0  0  0
 16 18  1  0  0  0
  9  4  2  0  0  0
  4  5  1  0  0  0
  6  5  2  0  0  0
  7  6  1  0  0  0
 10  7  1  0  0  0
  8  7  2  0  0  0
  8  9  1  0  0  0
 11 10  1  0  0  0
 12 13  1  0  0  0
 18 19  1  0  0  0
M  END
> <minimizedAffinity>
-7.93815

$$$$
3EHY_TBL_A_1


 19 19  0  0  0  0  0  0  0  0999 V2000
   -0.4666   -4.9001   -7.5665 O   0  0  0  0  0  0  0  0  0  0  0  0
   -1.4350   -5.0396   -6.5251 S   0  0  0  0  0  0  0  0  0  0  0  0
   -1.8695   -3.7979   -5.9398 O   0  0  0  0  0  0  0  0  0  0  0  0
   -2.7660   -5.6563   -7.2319 C   0  0  0  0  0  0  0  0  0  0  0  0
   -2.7605   -5.8767   -8.6075 C   0  0  0  0  0  0  0  0  0  0  0  0
   -3.9024   -6.3795   -9.2567 C   0  0  0  0  0  0  0  0  0  0  0  0
   -5.0950   -6.5924   -8.5538 C   0  0  0  0  0  0  0  0  0  0  0  0
   -5.1378   -6.3868   -7.1867 C   0  0  0  0  0  0  0  0  0  0  0  0
   -3.9670   -5.9234   -6.5276 C   0  0  0  0  0  0  0  0  0  0  0  0
   -6.1845   -7.0874   -9.2518 O   0  0  0  0  0  0  0  0  0  0  0  0
   -7.3198   -7.7022   -8.6609 C   0  0  0  0  0  0  0  0  0  0  0  0
   -0.7591   -6.0025   -5.4236 N   0  0  0  0  0  0  0  0  0  0  0  0
    0.2066   -5.6939   -5.3119 H   0  0  0  0  0  0  0  0  0  0  0  0
   -1.3430   -6.0795   -4.0753 C   0  0  0  0  0  0  0  0  0  0  0  0
   -0.2820   -5.7326   -3.0282 C   0  0  0  0  0  0  0  0  0  0  0  0
   -1.8894   -7.4569   -3.8035 C   0  0  0  0  0  0  0  0  0  0  0  0
   -2.0466   -8.2819   -4.6818 O   0  0  0  0  0  0  0  0  0  0  0  0
   -2.2096   -7.7889   -2.5533 O   0  0  0  0  0  0  0  0  0  0  0  0
   -2.0967   -7.1685   -1.8602 H   0  0  0  0  0  0  0  0  0  0  0  0
  2  1  2  0  0  0
  4  2  1  0  0  0
  3  2  2  0  0  0
  2 12  1  0  0  0
 14 12  1  0  0  0
 16 14  1  0  0  0
 14 15  1  0  0  0
 17 16  2  0  0  0
 16 18  1  0  0  0
  9  4  2  0  0  0
  4  5  1  0  0  0
  6  5  2  0  0  0
  7  6  1  0  0  0
 10  7  1  0  0  0
  8  7  2  0  0  0
  8  9  1  0  0  0
 11 10  1  0  0  0
 12 13  1  0  0  0
 18 19  1  0  0  0
M  END
> <minimizedAffinity>
-7.64467

$$$$
3EHY_TBL_A_1


 19 19  0  0  0  0  0  0  0  0999 V2000
   -4.7638   -5.5354   -5.2876 O   0  0  0  0  0  0  0  0  0  0  0  0
   -3.8294   -5.9255   -6.2958 S   0  0  0  0  0  0  0  0  0  0  0  0
   -3.0566   -7.0976   -5.9761 O   0  0  0  0  0  0  0  0  0  0  0  0
   -4.7205   -6.3531   -7.5899 C   0  0  0  0  0  0  0  0  0  0  0  0
   -6.0324   -6.7801   -7.3962 C   0  0  0  0  0  0  0  0  0  0  0  0
   -6.8217   -7.1861   -8.4872 C   0  0  0  0  0  0  0  0  0  0  0  0
   -6.2855   -7.2498   -9.7795 C   0  0  0  0  0  0  0  0  0  0  0  0
   -4.9875   -6.8317  -10.0108 C   0  0  0  0  0  0  0  0  0  0  0  0
   -4.2089   -6.3777   -8.9118 C   0  0  0  0  0  0  0  0  0  0  0  0
   -7.1148   -7.6596  -10.8108 O   0  0  0  0  0  0  0  0  0  0  0  0
   -8.3605   -8.3194  -10.6415 C   0  0  0  0  0  0  0  0  0  0  0  0
   -2.8809   -4.6446   -6.5342 N   0  0  0  0  0  0  0  0  0  0  0  0
   -3.4702   -3.8172   -6.4409 H   0  0  0  0  0  0  0  0  0  0  0  0
   -1.7124   -4.4386   -5.6642 C   0  0  0  0  0  0  0  0  0  0  0  0
   -1.6344   -2.9713   -5.2361 C   0  0  0  0  0  0  0  0  0  0  0  0
   -0.4401   -4.8267   -6.3713 C   0  0  0  0  0  0  0  0  0  0  0  0
   -0.3644   -4.9081   -7.5814 O   0  0  0  0  0  0  0  0  0  0  0  0
    0.6473   -5.0873   -5.6465 O   0  0  0  0  0  0  0  0  0  0  0  0
    0.6120   -5.0308   -4.7118 H   0  0  0  0  0  0  0  0  0  0  0  0
  2  1  2  0  0  0
  4  2  1  0  0  0
  3  2  2  0  0  0
  2 12  1  0  0  0
 14 12  1  0  0  0
 16 14  1  0  0  0
 14 15  1  0  0  0
 17 16  2  0  0  0
 16 18  1  0  0  0
  9  4  2  0  0  0
  4  5  1  0  0  0
  6  5  2  0  0  0
  7  6  1  0  0  0
 10  7  1  0  0  0
  8  7  2  0  0  0
  8  9  1  0  0  0
 11 10  1  0  0  0
 12 13  1  0  0  0
 18 19  1  0  0  0
M  END
> <minimizedAffinity>
-7.63007

$$$$
3EHY_TBL_A_1


 19 19  0  0  0  0  0  0  0  0999 V2000
   -1.1269   -6.4646   -5.6595 O   0  0  0  0  0  0  0  0  0  0  0  0
   -1.5397   -5.2790   -6.3419 S   0  0  0  0  0  0  0  0  0  0  0  0
   -0.5774   -4.7604   -7.2791 O   0  0  0  0  0  0  0  0  0  0  0  0
   -2.8192   -5.7096   -7.2525 C   0  0  0  0  0  0  0  0  0  0  0  0
   -4.0184   -6.0348   -6.6226 C   0  0  0  0  0  0  0  0  0  0  0  0
   -5.1353   -6.4407   -7.3749 C   0  0  0  0  0  0  0  0  0  0  0  0
   -5.0466   -6.6069   -8.7627 C   0  0  0  0  0  0  0  0  0  0  0  0
   -3.8730   -6.2915   -9.4232 C   0  0  0  0  0  0  0  0  0  0  0  0
   -2.7614   -5.8368   -8.6632 C   0  0  0  0  0  0  0  0  0  0  0  0
   -6.1824   -7.0107   -9.4457 O   0  0  0  0  0  0  0  0  0  0  0  0
   -7.1773   -7.8818   -8.9289 C   0  0  0  0  0  0  0  0  0  0  0  0
   -1.8744   -4.2034   -5.1894 N   0  0  0  0  0  0  0  0  0  0  0  0
   -2.2023   -4.7288   -4.3790 H   0  0  0  0  0  0  0  0  0  0  0  0
   -0.8148   -3.3000   -4.7142 C   0  0  0  0  0  0  0  0  0  0  0  0
   -0.4227   -3.6663   -3.2808 C   0  0  0  0  0  0  0  0  0  0  0  0
   -1.2699   -1.8647   -4.7622 C   0  0  0  0  0  0  0  0  0  0  0  0
   -2.0861   -1.4122   -3.9839 O   0  0  0  0  0  0  0  0  0  0  0  0
   -0.7572   -1.0559   -5.6888 O   0  0  0  0  0  0  0  0  0  0  0  0
   -0.1263   -1.3833   -6.2993 H   0  0  0  0  0  0  0  0  0  0  0  0
  2  1  2  0  0  0
  4  2  1  0  0  0
  3  2  2  0  0  0
  2 12  1  0  0  0
 14 12  1  0  0  0
 16 14  1  0  0  0
 14 15  1  0  0  0
 17 16  2  0  0  0
 16 18  1  0  0  0
  9  4  2  0  0  0
  4  5  1  0  0  0
  6  5  2  0  0  0
  7  6  1  0  0  0
 10  7  1  0  0  0
  8  7  2  0  0  0
  8  9  1  0  0  0
 11 10  1  0  0  0
 12 13  1  0  0  0
 18 19  1  0  0  0
M  END
> <minimizedAffinity>
-7.60116

$$$$
3EHY_TBL_A_1


 19 19  0  0  0  0  0  0  0  0999 V2000
   -0.0752   -6.9612   -5.0056 O   0  0  0  0  0  0  0  0  0  0  0  0
   -0.5248   -5.6832   -5.4600 S   0  0  0  0  0  0  0  0  0  0  0  0
    0.2933   -5.0894   -6.4853 O   0  0  0  0  0  0  0  0  0  0  0  0
   -1.9650   -5.9437   -6.1737 C   0  0  0  0  0  0  0  0  0  0  0  0
   -2.0097   -6.1503   -7.5507 C   0  0  0  0  0  0  0  0  0  0  0  0
   -3.2386   -6.3479   -8.2056 C   0  0  0  0  0  0  0  0  0  0  0  0
   -4.4491   -6.2604   -7.5067 C   0  0  0  0  0  0  0  0  0  0  0  0
   -4.4442   -6.0589   -6.1382 C   0  0  0  0  0  0  0  0  0  0  0  0
   -3.1972   -5.9066   -5.4737 C   0  0  0  0  0  0  0  0  0  0  0  0
   -5.6252   -6.4634   -8.2101 O   0  0  0  0  0  0  0  0  0  0  0  0
   -5.7042   -6.7705   -9.5941 C   0  0  0  0  0  0  0  0  0  0  0  0
   -0.5907   -4.7495   -4.1482 N   0  0  0  0  0  0  0  0  0  0  0  0
    0.1100   -5.1028   -3.4966 H   0  0  0  0  0  0  0  0  0  0  0  0
   -0.3626   -3.3018   -4.2792 C   0  0  0  0  0  0  0  0  0  0  0  0
    0.3298   -2.7683   -3.0229 C   0  0  0  0  0  0  0  0  0  0  0  0
   -1.6621   -2.5693   -4.4894 C   0  0  0  0  0  0  0  0  0  0  0  0
   -2.5710   -2.6077   -3.6837 O   0  0  0  0  0  0  0  0  0  0  0  0
   -1.8237   -1.8469   -5.5975 O   0  0  0  0  0  0  0  0  0  0  0  0
   -1.1361   -1.8030   -6.2325 H   0  0  0  0  0  0  0  0  0  0  0  0
  2  1  2  0  0  0
  4  2  1  0  0  0
  3  2  2  0  0  0
  2 12  1  0  0  0
 14 12  1  0  0  0
 16 14  1  0  0  0
 14 15  1  0  0  0
 17 16  2  0  0  0
 16 18  1  0  0  0
  9  4  2  0  0  0
  4  5  1  0  0  0
  6  5  2  0  0  0
  7  6  1  0  0  0
 10  7  1  0  0  0
  8  7  2  0  0  0
  8  9  1  0  0  0
 11 10  1  0  0  0
 12 13  1  0  0  0
 18 19  1  0  0  0
M  END
> <minimizedAffinity>
-7.31120

$$$$
3EHY_TBL_A_1


 19 19  0  0  0  0  0  0  0  0999 V2000
   -1.7893   -6.3936   -7.6774 O   0  0  0  0  0  0  0  0  0  0  0  0
   -2.7386   -5.3386   -7.8438 S   0  0  0  0  0  0  0  0  0  0  0  0
   -2.4870   -4.4774   -8.9699 O   0  0  0  0  0  0  0  0  0  0  0  0
   -4.1575   -6.0628   -8.1808 C   0  0  0  0  0  0  0  0  0  0  0  0
   -4.4580   -6.3784   -9.5041 C   0  0  0  0  0  0  0  0  0  0  0  0
   -5.6869   -6.9765   -9.8363 C   0  0  0  0  0  0  0  0  0  0  0  0
   -6.6687   -7.1935   -8.8614 C   0  0  0  0  0  0  0  0  0  0  0  0
   -6.4055   -6.8951   -7.5367 C   0  0  0  0  0  0  0  0  0  0  0  0
   -5.1439   -6.3342   -7.1994 C   0  0  0  0  0  0  0  0  0  0  0  0
   -7.8585   -7.7850   -9.2536 O   0  0  0  0  0  0  0  0  0  0  0  0
   -8.9090   -8.1623   -8.3762 C   0  0  0  0  0  0  0  0  0  0  0  0
   -2.7243   -4.5134   -6.4595 N   0  0  0  0  0  0  0  0  0  0  0  0
   -3.4799   -4.8855   -5.8841 H   0  0  0  0  0  0  0  0  0  0  0  0
   -1.5105   -4.5177   -5.6280 C   0  0  0  0  0  0  0  0  0  0  0  0
   -1.7101   -5.4371   -4.4208 C   0  0  0  0  0  0  0  0  0  0  0  0
   -1.1780   -3.1269   -5.1542 C   0  0  0  0  0  0  0  0  0  0  0  0
   -1.8977   -2.1728   -5.3741 O   0  0  0  0  0  0  0  0  0  0  0  0
   -0.0552   -2.9317   -4.4636 O   0  0  0  0  0  0  0  0  0  0  0  0
    0.5147   -3.6530   -4.2823 H   0  0  0  0  0  0  0  0  0  0  0  0
  2  1  2  0  0  0
  4  2  1  0  0  0
  3  2  2  0  0  0
  2 12  1  0  0  0
 14 12  1  0  0  0
 16 14  1  0  0  0
 14 15  1  0  0  0
 17 16  2  0  0  0
 16 18  1  0  0  0
  9  4  2  0  0  0
  4  5  1  0  0  0
  6  5  2  0  0  0
  7  6  1  0  0  0
 10  7  1  0  0  0
  8  7  2  0  0  0
  8  9  1  0  0  0
 11 10  1  0  0  0
 12 13  1  0  0  0
 18 19  1  0  0  0
M  END
> <minimizedAffinity>
-7.26931

$$$$
3EHY_TBL_A_1


 19 19  0  0  0  0  0  0  0  0999 V2000
   -2.0224   -5.0664   -4.2405 O   0  0  0  0  0  0  0  0  0  0  0  0
   -1.3200   -5.0108   -5.4837 S   0  0  0  0  0  0  0  0  0  0  0  0
   -0.1984   -5.9086   -5.5796 O   0  0  0  0  0  0  0  0  0  0  0  0
   -2.3698   -5.5319   -6.6141 C   0  0  0  0  0  0  0  0  0  0  0  0
   -1.9631   -5.5749   -7.9459 C   0  0  0  0  0  0  0  0  0  0  0  0
   -2.8526   -5.9904   -8.9531 C   0  0  0  0  0  0  0  0  0  0  0  0
   -4.1877   -6.2911   -8.6554 C   0  0  0  0  0  0  0  0  0  0  0  0
   -4.6271   -6.2617   -7.3442 C   0  0  0  0  0  0  0  0  0  0  0  0
   -3.7114   -5.8865   -6.3241 C   0  0  0  0  0  0  0  0  0  0  0  0
   -5.0133   -6.6927   -9.6928 O   0  0  0  0  0  0  0  0  0  0  0  0
   -6.4249   -6.8197   -9.6084 C   0  0  0  0  0  0  0  0  0  0  0  0
   -0.8596   -3.4764   -5.6592 N   0  0  0  0  0  0  0  0  0  0  0  0
   -1.3617   -3.1061   -6.4662 H   0  0  0  0  0  0  0  0  0  0  0  0
   -1.0674   -2.5284   -4.5534 C   0  0  0  0  0  0  0  0  0  0  0  0
   -1.2292   -1.1107   -5.1067 C   0  0  0  0  0  0  0  0  0  0  0  0
    0.0890   -2.5652   -3.5887 C   0  0  0  0  0  0  0  0  0  0  0  0
    0.0190   -3.1124   -2.5060 O   0  0  0  0  0  0  0  0  0  0  0  0
    1.2358   -1.9805   -3.9335 O   0  0  0  0  0  0  0  0  0  0  0  0
    1.3124   -1.5526   -4.7636 H   0  0  0  0  0  0  0  0  0  0  0  0
  2  1  2  0  0  0
  4  2  1  0  0  0
  3  2  2  0  0  0
  2 12  1  0  0  0
 14 12  1  0  0  0
 16 14  1  0  0  0
 14 15  1  0  0  0
 17 16  2  0  0  0
 16 18  1  0  0  0
  9  4  2  0  0  0
  4  5  1  0  0  0
  6  5  2  0  0  0
  7  6  1  0  0  0
 10  7  1  0  0  0
  8  7  2  0  0  0
  8  9  1  0  0  0
 11 10  1  0  0  0
 12 13  1  0  0  0
 18 19  1  0  0  0
M  END
> <minimizedAffinity>
-7.18490

$$$$
3EHY_TBL_A_1


 19 19  0  0  0  0  0  0  0  0999 V2000
   -0.0867   -5.4425   -6.4794 O   0  0  0  0  0  0  0  0  0  0  0  0
   -1.3102   -5.0218   -5.8728 S   0  0  0  0  0  0  0  0  0  0  0  0
   -1.4674   -3.5945   -5.7667 O   0  0  0  0  0  0  0  0  0  0  0  0
   -2.4964   -5.4987   -6.8812 C   0  0  0  0  0  0  0  0  0  0  0  0
   -3.7484   -5.8076   -6.3540 C   0  0  0  0  0  0  0  0  0  0  0  0
   -4.7878   -6.2521   -7.1908 C   0  0  0  0  0  0  0  0  0  0  0  0
   -4.5681   -6.4734   -8.5562 C   0  0  0  0  0  0  0  0  0  0  0  0
   -3.3386   -6.1757   -9.1158 C   0  0  0  0  0  0  0  0  0  0  0  0
   -2.3054   -5.6821   -8.2739 C   0  0  0  0  0  0  0  0  0  0  0  0
   -5.6328   -6.9132   -9.3258 O   0  0  0  0  0  0  0  0  0  0  0  0
   -6.7094   -7.7068   -8.8496 C   0  0  0  0  0  0  0  0  0  0  0  0
   -1.3455   -5.7251   -4.4231 N   0  0  0  0  0  0  0  0  0  0  0  0
   -2.3126   -5.9989   -4.2494 H   0  0  0  0  0  0  0  0  0  0  0  0
   -0.5129   -6.9126   -4.1754 C   0  0  0  0  0  0  0  0  0  0  0  0
   -1.2374   -8.1679   -4.6670 C   0  0  0  0  0  0  0  0  0  0  0  0
   -0.1984   -7.0527   -2.7088 C   0  0  0  0  0  0  0  0  0  0  0  0
   -0.4910   -6.2000   -1.8940 O   0  0  0  0  0  0  0  0  0  0  0  0
    0.4202   -8.1538   -2.2839 O   0  0  0  0  0  0  0  0  0  0  0  0
    0.6553   -8.8244   -2.8946 H   0  0  0  0  0  0  0  0  0  0  0  0
  2  1  2  0  0  0
  4  2  1  0  0  0
  3  2  2  0  0  0
  2 12  1  0  0  0
 14 12  1  0  0  0
 16 14  1  0  0  0
 14 15  1  0  0  0
 17 16  2  0  0  0
 16 18  1  0  0  0
  9  4  2  0  0  0
  4  5  1  0  0  0
  6  5  2  0  0  0
  7  6  1  0  0  0
 10  7  1  0  0  0
  8  7  2  0  0  0
  8  9  1  0  0  0
 11 10  1  0  0  0
 12 13  1  0  0  0
 18 19  1  0  0  0
M  END
> <minimizedAffinity>
-7.12749

$$$$
3EHY_TBL_A_1


 19 19  0  0  0  0  0  0  0  0999 V2000
   -2.6834   -4.5471   -9.1230 O   0  0  0  0  0  0  0  0  0  0  0  0
   -3.0353   -5.8120   -8.5590 S   0  0  0  0  0  0  0  0  0  0  0  0
   -2.6079   -6.9516   -9.3283 O   0  0  0  0  0  0  0  0  0  0  0  0
   -2.2123   -5.9215   -7.1582 C   0  0  0  0  0  0  0  0  0  0  0  0
   -2.8136   -6.5461   -6.0678 C   0  0  0  0  0  0  0  0  0  0  0  0
   -2.1449   -6.6321   -4.8335 C   0  0  0  0  0  0  0  0  0  0  0  0
   -0.8978   -6.0227   -4.6463 C   0  0  0  0  0  0  0  0  0  0  0  0
   -0.2688   -5.3955   -5.7066 C   0  0  0  0  0  0  0  0  0  0  0  0
   -0.9284   -5.3523   -6.9647 C   0  0  0  0  0  0  0  0  0  0  0  0
   -0.2923   -6.1425   -3.4060 O   0  0  0  0  0  0  0  0  0  0  0  0
   -0.0004   -7.3711   -2.7571 C   0  0  0  0  0  0  0  0  0  0  0  0
   -4.6377   -5.7862   -8.3896 N   0  0  0  0  0  0  0  0  0  0  0  0
   -4.9872   -5.0350   -8.9845 H   0  0  0  0  0  0  0  0  0  0  0  0
   -5.4185   -6.9898   -8.7162 C   0  0  0  0  0  0  0  0  0  0  0  0
   -5.8703   -6.9364  -10.1775 C   0  0  0  0  0  0  0  0  0  0  0  0
   -6.6229   -7.1096   -7.8192 C   0  0  0  0  0  0  0  0  0  0  0  0
   -7.5461   -7.8613   -8.0627 O   0  0  0  0  0  0  0  0  0  0  0  0
   -6.6802   -6.3682   -6.7134 O   0  0  0  0  0  0  0  0  0  0  0  0
   -5.9796   -5.7817   -6.5058 H   0  0  0  0  0  0  0  0  0  0  0  0
  2  1  2  0  0  0
  4  2  1  0  0  0
  3  2  2  0  0  0
  2 12  1  0  0  0
 14 12  1  0  0  0
 16 14  1  0  0  0
 14 15  1  0  0  0
 17 16  2  0  0  0
 16 18  1  0  0  0
  9  4  2  0  0  0
  4  5  1  0  0  0
  6  5  2  0  0  0
  7  6  1  0  0  0
 10  7  1  0  0  0
  8  7  2  0  0  0
  8  9  1  0  0  0
 11 10  1  0  0  0
 12 13  1  0  0  0
 18 19  1  0  0  0
M  END
> <minimizedAffinity>
-7.08958

$$$$
3EHY_TBL_A_1


 19 19  0  0  0  0  0  0  0  0999 V2000
   -6.3159   -5.7823  -10.4844 O   0  0  0  0  0  0  0  0  0  0  0  0
   -6.2304   -6.8513   -9.5401 S   0  0  0  0  0  0  0  0  0  0  0  0
   -5.8949   -8.1301  -10.1105 O   0  0  0  0  0  0  0  0  0  0  0  0
   -4.9780   -6.4875   -8.5651 C   0  0  0  0  0  0  0  0  0  0  0  0
   -5.1921   -6.4075   -7.1908 C   0  0  0  0  0  0  0  0  0  0  0  0
   -4.1409   -6.0658   -6.3211 C   0  0  0  0  0  0  0  0  0  0  0  0
   -2.8787   -5.7185   -6.8189 C   0  0  0  0  0  0  0  0  0  0  0  0
   -2.6281   -5.7885   -8.1773 C   0  0  0  0  0  0  0  0  0  0  0  0
   -3.6811   -6.1799   -9.0479 C   0  0  0  0  0  0  0  0  0  0  0  0
   -1.8863   -5.3900   -5.9097 O   0  0  0  0  0  0  0  0  0  0  0  0
   -0.4981   -5.3360   -6.2029 C   0  0  0  0  0  0  0  0  0  0  0  0
   -7.6604   -6.8969   -8.7985 N   0  0  0  0  0  0  0  0  0  0  0  0
   -8.2834   -6.2769   -9.3162 H   0  0  0  0  0  0  0  0  0  0  0  0
   -8.3592   -8.1837   -8.6544 C   0  0  0  0  0  0  0  0  0  0  0  0
   -9.4250   -8.3219   -9.7440 C   0  0  0  0  0  0  0  0  0  0  0  0
   -9.0057   -8.2960   -7.2984 C   0  0  0  0  0  0  0  0  0  0  0  0
   -9.4317   -9.3476   -6.8633 O   0  0  0  0  0  0  0  0  0  0  0  0
   -9.1126   -7.2040   -6.5421 O   0  0  0  0  0  0  0  0  0  0  0  0
   -8.7909   -6.3824   -6.8574 H   0  0  0  0  0  0  0  0  0  0  0  0
  2  1  2  0  0  0
  4  2  1  0  0  0
  3  2  2  0  0  0
  2 12  1  0  0  0
 14 12  1  0  0  0
 16 14  1  0  0  0
 14 15  1  0  0  0
 17 16  2  0  0  0
 16 18  1  0  0  0
  9  4  2  0  0  0
  4  5  1  0  0  0
  6  5  2  0  0  0
  7  6  1  0  0  0
 10  7  1  0  0  0
  8  7  2  0  0  0
  8  9  1  0  0  0
 11 10  1  0  0  0
 12 13  1  0  0  0
 18 19  1  0  0  0
M  END
> <minimizedAffinity>
-6.86085

$$$$
