2QBU_SAH_B_501
  RCSB PDB12061706463D
Coordinates from PDB:2QBU:B:501 Model:1 without hydrogens
 26 28  0  0  0  0            999 V2000
  -23.9480   37.0590    1.5440   N 0  0  0  0  0  0  0  0  0  0  0  0
  -24.1450   37.4690    0.1270   C 0  0  0  0  0  0  0  0  0  0  0  0
  -23.3240   36.5830   -0.8190   C 0  0  0  0  0  0  0  0  0  0  0  0
  -21.8440   36.9270   -0.9690   C 0  0  0  0  0  0  0  0  0  0  0  0
  -21.0200   35.7910   -2.1240   S 0  0  0  0  0  0  0  0  0  0  0  0
  -25.6320   37.3640   -0.2130   C 0  0  0  0  0  0  0  0  0  0  0  0
  -26.4350   36.9130    0.5730   O 0  0  0  0  0  0  0  0  0  0  0  0
  -26.0730   37.7170   -1.2930   O 0  0  0  0  0  0  0  0  0  0  0  0
  -20.6820   37.0290   -3.4100   C 0  0  0  0  0  0  0  0  0  0  0  0
  -21.5490   36.7020   -4.6100   C 0  0  0  0  0  0  0  0  0  0  0  0
  -22.8610   37.1320   -4.3130   O 0  0  0  0  0  0  0  0  0  0  0  0
  -21.1630   37.3380   -5.9390   C 0  0  0  0  0  0  0  0  0  0  0  0
  -20.2190   36.5700   -6.6580   O 0  0  0  0  0  0  0  0  0  0  0  0
  -22.5120   37.3730   -6.6410   C 0  0  0  0  0  0  0  0  0  0  0  0
  -22.8050   36.1490   -7.3200   O 0  0  0  0  0  0  0  0  0  0  0  0
  -23.5010   37.5790   -5.4900   C 0  0  0  0  0  0  0  0  0  0  0  0
  -23.9040   39.0040   -5.2880   N 0  0  0  0  0  0  0  0  0  0  0  0
  -23.7890   39.7480   -4.1380   C 0  0  0  0  0  0  0  0  0  0  0  0
  -24.2980   40.9890   -4.3490   N 0  0  0  0  0  0  0  0  0  0  0  0
  -24.7040   41.0510   -5.6240   C 0  0  0  0  0  0  0  0  0  0  0  0
  -25.2890   42.0690   -6.3540   C 0  0  0  0  0  0  0  0  0  0  0  0
  -25.5290   43.2510   -5.7810   N 0  0  0  0  0  0  0  0  0  0  0  0
  -25.6270   41.8140   -7.6600   N 0  0  0  0  0  0  0  0  0  0  0  0
  -25.3980   40.5970   -8.2590   C 0  0  0  0  0  0  0  0  0  0  0  0
  -24.8180   39.5900   -7.5310   N 0  0  0  0  0  0  0  0  0  0  0  0
  -24.4820   39.8150   -6.2270   C 0  0  0  0  0  0  0  0  0  0  0  0
  1  2  1  0  0  0  0
  2  3  1  0  0  0  0
  2  6  1  0  0  0  0
  3  4  1  0  0  0  0
  4  5  1  0  0  0  0
  5  9  1  0  0  0  0
  6  7  2  0  0  0  0
  6  8  1  0  0  0  0
  9 10  1  0  0  0  0
 10 11  1  0  0  0  0
 10 12  1  0  0  0  0
 11 16  1  0  0  0  0
 12 13  1  0  0  0  0
 12 14  1  0  0  0  0
 14 15  1  0  0  0  0
 14 16  1  0  0  0  0
 16 17  1  0  0  0  0
 17 18  1  0  0  0  0
 17 26  1  0  0  0  0
 18 19  2  0  0  0  0
 19 20  1  0  0  0  0
 20 21  1  0  0  0  0
 20 26  2  0  0  0  0
 21 22  1  0  0  0  0
 21 23  2  0  0  0  0
 23 24  1  0  0  0  0
 24 25  2  0  0  0  0
 25 26  1  0  0  0  0
A    1
N
A    2
CA
A    3
CB
A    4
CG
A    5
SD
A    6
C
A    7
O
A    8
OXT
A    9
C5'
A   10
C4'
A   11
O4'
A   12
C3'
A   13
O3'
A   14
C2'
A   15
O2'
A   16
C1'
A   17
N9
A   18
C8
A   19
N7
A   20
C5
A   21
C6
A   22
N6
A   23
N1
A   24
C2
A   25
N3
A   26
C4
M  END
>  <InstanceId>
2QBU_SAH_B_501

>  <ChemCompId>
SAH

>  <PdbId>
2QBU

>  <ChainId>
B

>  <ResidueNumber>
501

>  <InsertionCode>


>  <Model>
1

>  <AltIds>


>  <MissingHeavyAtoms>
0

>  <ObservedFormula>
C14 N6 O5 S

>  <Name>
S-ADENOSYL-L-HOMOCYSTEINE

>  <SystematicName>
(2S)-2-amino-4-[[(2S,3S,4R,5R)-5-(6-aminopurin-9-yl)-3,4-dihydroxy-oxolan-2-yl]methylsulfanyl]butanoic acid

>  <Synonyms>


>  <Type>
L-PEPTIDE LINKING

>  <Formula>
C14 H20 N6 O5 S

>  <MolecularWeight>
384.411

>  <ModifiedDate>
2011-06-04

>  <Parent>
CYS

>  <OneLetterCode>
C

>  <SubcomponentList>


>  <AmbiguousFlag>
N

>  <InChI>
InChI=1S/C14H20N6O5S/c15-6(14(23)24)1-2-26-3-7-9(21)10(22)13(25-7)20-5-19-8-11(16)17-4-18-12(8)20/h4-7,9-10,13,21-22H,1-3,15H2,(H,23,24)(H2,16,17,18)/t6-,7+,9+,10+,13+/m0/s1

>  <InChIKey>
ZJUKTBDSGOFHSH-WFMPWKQPSA-N

>  <SMILES>
c1nc(c2c(n1)n(cn2)[C@H]3[C@@H]([C@@H]([C@H](O3)CSCC[C@@H](C(=O)O)N)O)O)N

$$$$
