5HBS_RTL_A_201


 22 22  0  0  0  0  0  0  0  0999 V2000
   15.1066   -2.7274  -12.7229 C   0  0  0  0  0  0  0  0  0  0  0  0
   16.2581   -2.1343  -12.3453 C   0  0  0  0  0  0  0  0  0  0  0  0
   15.8795   -4.8728  -14.1301 C   0  0  0  0  0  0  0  0  0  0  0  0
   15.3636   -5.7834  -15.2285 C   0  0  0  0  0  0  0  0  0  0  0  0
   14.9315   -4.9832  -16.4284 C   0  0  0  0  0  0  0  0  0  0  0  0
   13.9238   -3.8371  -16.3209 C   0  0  0  0  0  0  0  0  0  0  0  0
   14.1190   -3.2231  -14.9256 C   0  0  0  0  0  0  0  0  0  0  0  0
   14.9643   -3.6290  -13.9721 C   0  0  0  0  0  0  0  0  0  0  0  0
   17.2887   -4.4500  -14.5654 C   0  0  0  0  0  0  0  0  0  0  0  0
   15.9160   -5.7240  -12.8744 C   0  0  0  0  0  0  0  0  0  0  0  0
   13.1937   -2.0231  -14.7204 C   0  0  0  0  0  0  0  0  0  0  0  0
   16.3271   -1.2504  -11.1096 C   0  0  0  0  0  0  0  0  0  0  0  0
   17.4147   -1.4313  -10.3499 C   0  0  0  0  0  0  0  0  0  0  0  0
   15.2649   -0.1972  -10.8186 C   0  0  0  0  0  0  0  0  0  0  0  0
   17.6688   -0.7198   -9.0363 C   0  0  0  0  0  0  0  0  0  0  0  0
   18.9380   -0.4531   -8.6984 C   0  0  0  0  0  0  0  0  0  0  0  0
   19.3105    0.0965   -7.3434 C   0  0  0  0  0  0  0  0  0  0  0  0
   20.4542   -0.3893   -6.8677 C   0  0  0  0  0  0  0  0  0  0  0  0
   18.3665    0.9919   -6.5916 C   0  0  0  0  0  0  0  0  0  0  0  0
   20.9800   -0.2111   -5.4736 C   0  0  0  0  0  0  0  0  0  0  0  0
   20.2716   -1.2625   -4.8218 O   0  0  0  0  0  0  0  0  0  0  0  0
   19.3189   -1.1450   -4.9608 H   0  0  0  0  0  0  0  0  0  0  0  0
  3  4  1  0  0  0
  3  8  1  0  0  0
  3  9  1  0  0  0
  3 10  1  0  0  0
  4  5  1  0  0  0
  5  6  1  0  0  0
  6  7  1  0  0  0
  7  8  2  0  0  0
  7 11  1  0  0  0
  8  1  1  0  0  0
  1  2  2  0  0  0
  2 12  1  0  0  0
 12 13  2  0  0  0
 12 14  1  0  0  0
 13 15  1  0  0  0
 15 16  2  0  0  0
 16 17  1  0  0  0
 17 18  2  0  0  0
 17 19  1  0  0  0
 18 20  1  0  0  0
 20 21  1  0  0  0
 21 22  1  0  0  0
M  END
> <minimizedAffinity>
-9.37890

$$$$
5HBS_RTL_A_201


 22 22  0  0  0  0  0  0  0  0999 V2000
   15.7659   -2.2363  -13.5500 C   0  0  0  0  0  0  0  0  0  0  0  0
   15.0806   -1.9995  -12.4121 C   0  0  0  0  0  0  0  0  0  0  0  0
   13.9710   -2.7811  -15.4636 C   0  0  0  0  0  0  0  0  0  0  0  0
   13.8424   -3.6115  -16.7269 C   0  0  0  0  0  0  0  0  0  0  0  0
   14.1967   -5.0503  -16.4602 C   0  0  0  0  0  0  0  0  0  0  0  0
   15.5266   -5.4548  -15.8215 C   0  0  0  0  0  0  0  0  0  0  0  0
   15.9203   -4.3033  -14.8830 C   0  0  0  0  0  0  0  0  0  0  0  0
   15.2638   -3.1542  -14.6897 C   0  0  0  0  0  0  0  0  0  0  0  0
   12.7297   -3.1057  -14.6221 C   0  0  0  0  0  0  0  0  0  0  0  0
   13.9712   -1.3344  -15.9214 C   0  0  0  0  0  0  0  0  0  0  0  0
   17.2196   -4.6201  -14.1415 C   0  0  0  0  0  0  0  0  0  0  0  0
   15.6370   -1.0928  -11.3252 C   0  0  0  0  0  0  0  0  0  0  0  0
   16.7851   -1.5113  -10.7781 C   0  0  0  0  0  0  0  0  0  0  0  0
   14.9605    0.2217  -10.9556 C   0  0  0  0  0  0  0  0  0  0  0  0
   17.4904   -0.8150   -9.6317 C   0  0  0  0  0  0  0  0  0  0  0  0
   18.2520    0.2511   -9.9138 C   0  0  0  0  0  0  0  0  0  0  0  0
   19.1268    0.9109   -8.8763 C   0  0  0  0  0  0  0  0  0  0  0  0
   19.4186    0.1215   -7.8458 C   0  0  0  0  0  0  0  0  0  0  0  0
   19.4803    2.3675   -8.9833 C   0  0  0  0  0  0  0  0  0  0  0  0
   20.0752    0.5445   -6.5645 C   0  0  0  0  0  0  0  0  0  0  0  0
   18.9171    0.9168   -5.8216 O   0  0  0  0  0  0  0  0  0  0  0  0
   18.4191    1.5881   -6.3139 H   0  0  0  0  0  0  0  0  0  0  0  0
  3  4  1  0  0  0
  3  8  1  0  0  0
  3  9  1  0  0  0
  3 10  1  0  0  0
  4  5  1  0  0  0
  5  6  1  0  0  0
  6  7  1  0  0  0
  7  8  2  0  0  0
  7 11  1  0  0  0
  8  1  1  0  0  0
  1  2  2  0  0  0
  2 12  1  0  0  0
 12 13  2  0  0  0
 12 14  1  0  0  0
 13 15  1  0  0  0
 15 16  2  0  0  0
 16 17  1  0  0  0
 17 18  2  0  0  0
 17 19  1  0  0  0
 18 20  1  0  0  0
 20 21  1  0  0  0
 21 22  1  0  0  0
M  END
> <minimizedAffinity>
-8.86298

$$$$
5HBS_RTL_A_201


 22 22  0  0  0  0  0  0  0  0999 V2000
   15.2827   -3.1127  -12.9864 C   0  0  0  0  0  0  0  0  0  0  0  0
   15.0014   -3.6484  -11.7805 C   0  0  0  0  0  0  0  0  0  0  0  0
   15.6960   -5.0070  -14.8361 C   0  0  0  0  0  0  0  0  0  0  0  0
   14.9695   -5.6801  -15.9854 C   0  0  0  0  0  0  0  0  0  0  0  0
   14.4383   -4.6581  -16.9549 C   0  0  0  0  0  0  0  0  0  0  0  0
   13.5422   -3.5018  -16.5071 C   0  0  0  0  0  0  0  0  0  0  0  0
   13.9704   -3.1575  -15.0718 C   0  0  0  0  0  0  0  0  0  0  0  0
   14.9054   -3.7683  -14.3360 C   0  0  0  0  0  0  0  0  0  0  0  0
   17.0602   -4.5825  -15.3955 C   0  0  0  0  0  0  0  0  0  0  0  0
   15.8402   -6.0698  -13.7627 C   0  0  0  0  0  0  0  0  0  0  0  0
   13.1730   -1.9698  -14.5317 C   0  0  0  0  0  0  0  0  0  0  0  0
   15.4103   -2.9556  -10.4899 C   0  0  0  0  0  0  0  0  0  0  0  0
   16.3492   -2.0117  -10.6323 C   0  0  0  0  0  0  0  0  0  0  0  0
   14.7374   -3.2771   -9.1609 C   0  0  0  0  0  0  0  0  0  0  0  0
   16.9657   -1.2379   -9.4844 C   0  0  0  0  0  0  0  0  0  0  0  0
   17.5984   -0.0902   -9.7650 C   0  0  0  0  0  0  0  0  0  0  0  0
   18.3877    0.6672   -8.7257 C   0  0  0  0  0  0  0  0  0  0  0  0
   19.2606    1.5281   -9.2428 C   0  0  0  0  0  0  0  0  0  0  0  0
   18.2577    0.3313   -7.2669 C   0  0  0  0  0  0  0  0  0  0  0  0
   20.3324    2.2613   -8.4910 C   0  0  0  0  0  0  0  0  0  0  0  0
   20.1673    3.5590   -9.0571 O   0  0  0  0  0  0  0  0  0  0  0  0
   20.2529    3.5042  -10.0218 H   0  0  0  0  0  0  0  0  0  0  0  0
  3  4  1  0  0  0
  3  8  1  0  0  0
  3  9  1  0  0  0
  3 10  1  0  0  0
  4  5  1  0  0  0
  5  6  1  0  0  0
  6  7  1  0  0  0
  7  8  2  0  0  0
  7 11  1  0  0  0
  8  1  1  0  0  0
  1  2  2  0  0  0
  2 12  1  0  0  0
 12 13  2  0  0  0
 12 14  1  0  0  0
 13 15  1  0  0  0
 15 16  2  0  0  0
 16 17  1  0  0  0
 17 18  2  0  0  0
 17 19  1  0  0  0
 18 20  1  0  0  0
 20 21  1  0  0  0
 21 22  1  0  0  0
M  END
> <minimizedAffinity>
-8.65181

$$$$
5HBS_RTL_A_201


 22 22  0  0  0  0  0  0  0  0999 V2000
   15.6217   -2.8884  -13.1147 C   0  0  0  0  0  0  0  0  0  0  0  0
   15.1165   -3.0933  -11.8805 C   0  0  0  0  0  0  0  0  0  0  0  0
   13.6258   -3.7043  -14.7056 C   0  0  0  0  0  0  0  0  0  0  0  0
   13.4008   -4.1784  -16.1291 C   0  0  0  0  0  0  0  0  0  0  0  0
   14.3170   -5.3258  -16.4623 C   0  0  0  0  0  0  0  0  0  0  0  0
   15.8333   -5.2339  -16.2816 C   0  0  0  0  0  0  0  0  0  0  0  0
   16.0678   -4.2872  -15.0939 C   0  0  0  0  0  0  0  0  0  0  0  0
   15.1425   -3.6339  -14.3828 C   0  0  0  0  0  0  0  0  0  0  0  0
   12.9337   -4.7373  -13.8068 C   0  0  0  0  0  0  0  0  0  0  0  0
   12.9540   -2.3468  -14.6139 C   0  0  0  0  0  0  0  0  0  0  0  0
   17.5592   -4.1577  -14.7821 C   0  0  0  0  0  0  0  0  0  0  0  0
   15.6407   -2.3326  -10.6724 C   0  0  0  0  0  0  0  0  0  0  0  0
   16.4149   -1.2798  -10.9643 C   0  0  0  0  0  0  0  0  0  0  0  0
   15.2430   -2.7144   -9.2518 C   0  0  0  0  0  0  0  0  0  0  0  0
   17.1082   -0.4149   -9.9311 C   0  0  0  0  0  0  0  0  0  0  0  0
   17.1577    0.9071  -10.1457 C   0  0  0  0  0  0  0  0  0  0  0  0
   17.9655    1.8336   -9.2706 C   0  0  0  0  0  0  0  0  0  0  0  0
   19.2720    1.5823   -9.2924 C   0  0  0  0  0  0  0  0  0  0  0  0
   17.2865    2.8295   -8.3733 C   0  0  0  0  0  0  0  0  0  0  0  0
   20.3029    2.1746   -8.3769 C   0  0  0  0  0  0  0  0  0  0  0  0
   20.5525    3.3964   -9.0673 O   0  0  0  0  0  0  0  0  0  0  0  0
   20.8199    3.2035   -9.9795 H   0  0  0  0  0  0  0  0  0  0  0  0
  3  4  1  0  0  0
  3  8  1  0  0  0
  3  9  1  0  0  0
  3 10  1  0  0  0
  4  5  1  0  0  0
  5  6  1  0  0  0
  6  7  1  0  0  0
  7  8  2  0  0  0
  7 11  1  0  0  0
  8  1  1  0  0  0
  1  2  2  0  0  0
  2 12  1  0  0  0
 12 13  2  0  0  0
 12 14  1  0  0  0
 13 15  1  0  0  0
 15 16  2  0  0  0
 16 17  1  0  0  0
 17 18  2  0  0  0
 17 19  1  0  0  0
 18 20  1  0  0  0
 20 21  1  0  0  0
 21 22  1  0  0  0
M  END
> <minimizedAffinity>
-8.06128

$$$$
5HBS_RTL_A_201


 22 22  0  0  0  0  0  0  0  0999 V2000
   15.5231   -3.4300  -12.6777 C   0  0  0  0  0  0  0  0  0  0  0  0
   15.1609   -2.2541  -12.1241 C   0  0  0  0  0  0  0  0  0  0  0  0
   15.5923   -3.3165  -15.3540 C   0  0  0  0  0  0  0  0  0  0  0  0
   15.2208   -4.1616  -16.5580 C   0  0  0  0  0  0  0  0  0  0  0  0
   13.7839   -4.6042  -16.4785 C   0  0  0  0  0  0  0  0  0  0  0  0
   13.2260   -5.3384  -15.2579 C   0  0  0  0  0  0  0  0  0  0  0  0
   14.0144   -4.8174  -14.0459 C   0  0  0  0  0  0  0  0  0  0  0  0
   15.0187   -3.9342  -14.0506 C   0  0  0  0  0  0  0  0  0  0  0  0
   14.9773   -1.9340  -15.6081 C   0  0  0  0  0  0  0  0  0  0  0  0
   17.1086   -3.2588  -15.3450 C   0  0  0  0  0  0  0  0  0  0  0  0
   13.5047   -5.4465  -12.7487 C   0  0  0  0  0  0  0  0  0  0  0  0
   15.6867   -1.8223  -10.7639 C   0  0  0  0  0  0  0  0  0  0  0  0
   16.7301   -0.9843  -10.8055 C   0  0  0  0  0  0  0  0  0  0  0  0
   15.0160   -2.2649   -9.4692 C   0  0  0  0  0  0  0  0  0  0  0  0
   17.4680   -0.4752   -9.5837 C   0  0  0  0  0  0  0  0  0  0  0  0
   18.7274   -0.8901   -9.3889 C   0  0  0  0  0  0  0  0  0  0  0  0
   19.4891   -0.5797   -8.1239 C   0  0  0  0  0  0  0  0  0  0  0  0
   18.7945    0.1410   -7.2472 C   0  0  0  0  0  0  0  0  0  0  0  0
   20.9386   -0.9522   -7.9889 C   0  0  0  0  0  0  0  0  0  0  0  0
   19.3363    0.7891   -6.0071 C   0  0  0  0  0  0  0  0  0  0  0  0
   19.5483   -0.3738   -5.2105 O   0  0  0  0  0  0  0  0  0  0  0  0
   18.7173   -0.8681   -5.1325 H   0  0  0  0  0  0  0  0  0  0  0  0
  3  4  1  0  0  0
  3  8  1  0  0  0
  3  9  1  0  0  0
  3 10  1  0  0  0
  4  5  1  0  0  0
  5  6  1  0  0  0
  6  7  1  0  0  0
  7  8  2  0  0  0
  7 11  1  0  0  0
  8  1  1  0  0  0
  1  2  2  0  0  0
  2 12  1  0  0  0
 12 13  2  0  0  0
 12 14  1  0  0  0
 13 15  1  0  0  0
 15 16  2  0  0  0
 16 17  1  0  0  0
 17 18  2  0  0  0
 17 19  1  0  0  0
 18 20  1  0  0  0
 20 21  1  0  0  0
 21 22  1  0  0  0
M  END
> <minimizedAffinity>
-7.70387

$$$$
5HBS_RTL_A_201


 22 22  0  0  0  0  0  0  0  0999 V2000
   17.0478   -0.6129  -10.0941 C   0  0  0  0  0  0  0  0  0  0  0  0
   16.2689   -1.3892   -9.3125 C   0  0  0  0  0  0  0  0  0  0  0  0
   18.8824    0.5014   -8.4900 C   0  0  0  0  0  0  0  0  0  0  0  0
   19.7120    1.7673   -8.3853 C   0  0  0  0  0  0  0  0  0  0  0  0
   18.8355    2.9893   -8.4575 C   0  0  0  0  0  0  0  0  0  0  0  0
   17.8557    3.2197   -9.6095 C   0  0  0  0  0  0  0  0  0  0  0  0
   17.3968    1.8265  -10.0683 C   0  0  0  0  0  0  0  0  0  0  0  0
   17.8003    0.6430   -9.5939 C   0  0  0  0  0  0  0  0  0  0  0  0
   18.2255    0.3174   -7.1157 C   0  0  0  0  0  0  0  0  0  0  0  0
   19.8686   -0.6122   -8.7899 C   0  0  0  0  0  0  0  0  0  0  0  0
   16.3650    1.9315  -11.1919 C   0  0  0  0  0  0  0  0  0  0  0  0
   15.5478   -2.6064   -9.8708 C   0  0  0  0  0  0  0  0  0  0  0  0
   15.7145   -2.8042  -11.1845 C   0  0  0  0  0  0  0  0  0  0  0  0
   14.7621   -3.5533   -8.9719 C   0  0  0  0  0  0  0  0  0  0  0  0
   15.0392   -3.9057  -11.9764 C   0  0  0  0  0  0  0  0  0  0  0  0
   14.7981   -3.6907  -13.2771 C   0  0  0  0  0  0  0  0  0  0  0  0
   13.9842   -4.6480  -14.1125 C   0  0  0  0  0  0  0  0  0  0  0  0
   14.2699   -4.5972  -15.4110 C   0  0  0  0  0  0  0  0  0  0  0  0
   12.8720   -5.4500  -13.4976 C   0  0  0  0  0  0  0  0  0  0  0  0
   13.4946   -5.2551  -16.5146 C   0  0  0  0  0  0  0  0  0  0  0  0
   14.4987   -5.2720  -17.5261 O   0  0  0  0  0  0  0  0  0  0  0  0
   14.8191   -4.3692  -17.6789 H   0  0  0  0  0  0  0  0  0  0  0  0
  3  4  1  0  0  0
  3  8  1  0  0  0
  3  9  1  0  0  0
  3 10  1  0  0  0
  4  5  1  0  0  0
  5  6  1  0  0  0
  6  7  1  0  0  0
  7  8  2  0  0  0
  7 11  1  0  0  0
  8  1  1  0  0  0
  1  2  2  0  0  0
  2 12  1  0  0  0
 12 13  2  0  0  0
 12 14  1  0  0  0
 13 15  1  0  0  0
 15 16  2  0  0  0
 16 17  1  0  0  0
 17 18  2  0  0  0
 17 19  1  0  0  0
 18 20  1  0  0  0
 20 21  1  0  0  0
 21 22  1  0  0  0
M  END
> <minimizedAffinity>
-7.31357

$$$$
5HBS_RTL_A_201


 22 22  0  0  0  0  0  0  0  0999 V2000
   17.1799    0.5509  -10.6480 C   0  0  0  0  0  0  0  0  0  0  0  0
   15.8635    0.2716  -10.5512 C   0  0  0  0  0  0  0  0  0  0  0  0
   18.5052    2.0900   -8.9000 C   0  0  0  0  0  0  0  0  0  0  0  0
   19.1613    1.9901   -7.5357 C   0  0  0  0  0  0  0  0  0  0  0  0
   20.1550    0.8596   -7.5010 C   0  0  0  0  0  0  0  0  0  0  0  0
   19.7744   -0.5693   -7.8930 C   0  0  0  0  0  0  0  0  0  0  0  0
   18.6796   -0.4437   -8.9643 C   0  0  0  0  0  0  0  0  0  0  0  0
   18.1303    0.6815   -9.4342 C   0  0  0  0  0  0  0  0  0  0  0  0
   19.5434    2.7518   -9.8155 C   0  0  0  0  0  0  0  0  0  0  0  0
   17.2879    2.9751   -8.7065 C   0  0  0  0  0  0  0  0  0  0  0  0
   18.2527   -1.8200   -9.4760 C   0  0  0  0  0  0  0  0  0  0  0  0
   14.9820    0.1669  -11.7861 C   0  0  0  0  0  0  0  0  0  0  0  0
   14.9820   -1.0352  -12.3758 C   0  0  0  0  0  0  0  0  0  0  0  0
   14.1188    1.3321  -12.2545 C   0  0  0  0  0  0  0  0  0  0  0  0
   14.2400   -1.3600  -13.6566 C   0  0  0  0  0  0  0  0  0  0  0  0
   14.2053   -2.6380  -14.0588 C   0  0  0  0  0  0  0  0  0  0  0  0
   13.6419   -3.0438  -15.3985 C   0  0  0  0  0  0  0  0  0  0  0  0
   14.0834   -4.2237  -15.8266 C   0  0  0  0  0  0  0  0  0  0  0  0
   12.7836   -2.0974  -16.1895 C   0  0  0  0  0  0  0  0  0  0  0  0
   13.8853   -4.7985  -17.1985 C   0  0  0  0  0  0  0  0  0  0  0  0
   15.0156   -4.2293  -17.8545 O   0  0  0  0  0  0  0  0  0  0  0  0
   14.9897   -3.2639  -17.7641 H   0  0  0  0  0  0  0  0  0  0  0  0
  3  4  1  0  0  0
  3  8  1  0  0  0
  3  9  1  0  0  0
  3 10  1  0  0  0
  4  5  1  0  0  0
  5  6  1  0  0  0
  6  7  1  0  0  0
  7  8  2  0  0  0
  7 11  1  0  0  0
  8  1  1  0  0  0
  1  2  2  0  0  0
  2 12  1  0  0  0
 12 13  2  0  0  0
 12 14  1  0  0  0
 13 15  1  0  0  0
 15 16  2  0  0  0
 16 17  1  0  0  0
 17 18  2  0  0  0
 17 19  1  0  0  0
 18 20  1  0  0  0
 20 21  1  0  0  0
 21 22  1  0  0  0
M  END
> <minimizedAffinity>
-6.44878

$$$$
