5HBS_RTL_A_201
  RCSB PDB12061717583D
Coordinates from PDB:5HBS:A:201 Model:1 without hydrogens
 21 21  0  0  0  0            999 V2000
   15.7890   -4.5300  -14.1320   C 0  0  0  0  0  0  0  0  0  0  0  0
   15.2300   -5.5020  -15.1540   C 0  0  0  0  0  0  0  0  0  0  0  0
   14.9420   -4.8030  -16.4560   C 0  0  0  0  0  0  0  0  0  0  0  0
   14.0590   -3.5560  -16.5310   C 0  0  0  0  0  0  0  0  0  0  0  0
   14.2540   -2.8110  -15.2010   C 0  0  0  0  0  0  0  0  0  0  0  0
   15.0060   -3.1900  -14.1620   C 0  0  0  0  0  0  0  0  0  0  0  0
   15.1860   -2.1720  -13.0110   C 0  0  0  0  0  0  0  0  0  0  0  0
   16.2620   -2.1320  -12.1980   C 0  0  0  0  0  0  0  0  0  0  0  0
   16.3810   -1.0970  -11.0900   C 0  0  0  0  0  0  0  0  0  0  0  0
   17.4980   -1.1850  -10.3570   C 0  0  0  0  0  0  0  0  0  0  0  0
   17.8050   -0.3120   -9.1570   C 0  0  0  0  0  0  0  0  0  0  0  0
   18.9530   -0.5250   -8.4990   C 0  0  0  0  0  0  0  0  0  0  0  0
   19.2750    0.1700   -7.1990   C 0  0  0  0  0  0  0  0  0  0  0  0
   20.2370   -0.4270   -6.5000   C 0  0  0  0  0  0  0  0  0  0  0  0
   20.6290   -0.1130   -5.0860   C 0  0  0  0  0  0  0  0  0  0  0  0
   20.2540   -1.3390   -4.4630   O 0  0  0  0  0  0  0  0  0  0  0  0
   17.2540   -4.3040  -14.5280   C 0  0  0  0  0  0  0  0  0  0  0  0
   15.6760   -5.2330  -12.7920   C 0  0  0  0  0  0  0  0  0  0  0  0
   13.4540   -1.5080  -15.1800   C 0  0  0  0  0  0  0  0  0  0  0  0
   15.3320   -0.0090  -10.8950   C 0  0  0  0  0  0  0  0  0  0  0  0
   18.4530    1.3360   -6.7270   C 0  0  0  0  0  0  0  0  0  0  0  0
  1  2  1  0  0  0  0
  1  6  1  0  0  0  0
  1 17  1  0  0  0  0
  1 18  1  0  0  0  0
  2  3  1  0  0  0  0
  3  4  1  0  0  0  0
  4  5  1  0  0  0  0
  5  6  2  0  0  0  0
  5 19  1  0  0  0  0
  6  7  1  0  0  0  0
  7  8  2  0  0  0  0
  8  9  1  0  0  0  0
  9 10  2  0  0  0  0
  9 20  1  0  0  0  0
 10 11  1  0  0  0  0
 11 12  2  0  0  0  0
 12 13  1  0  0  0  0
 13 14  2  0  0  0  0
 13 21  1  0  0  0  0
 14 15  1  0  0  0  0
 15 16  1  0  0  0  0
A    1
C1
A    2
C2
A    3
C3
A    4
C4
A    5
C5
A    6
C6
A    7
C7
A    8
C8
A    9
C9
A   10
C10
A   11
C11
A   12
C12
A   13
C13
A   14
C14
A   15
C15
A   16
O1
A   17
C16
A   18
C17
A   19
C18
A   20
C19
A   21
C20
M  END
>  <InstanceId>
5HBS_RTL_A_201

>  <ChemCompId>
RTL

>  <PdbId>
5HBS

>  <ChainId>
A

>  <ResidueNumber>
201

>  <InsertionCode>


>  <Model>
1

>  <AltIds>


>  <MissingHeavyAtoms>
21

>  <ObservedFormula>
C20 O

>  <Name>
RETINOL

>  <SystematicName>
(4E,6E,8E)-3,7-dimethyl-9-(2,6,6-trimethyl-1-cyclohexenyl)nona-2,4,6,8-tetraen-1-ol

>  <Synonyms>


>  <Type>
NON-POLYMER

>  <Formula>
C20 H30 O

>  <MolecularWeight>
286.452

>  <ModifiedDate>
2011-06-04

>  <Parent>


>  <OneLetterCode>


>  <SubcomponentList>


>  <AmbiguousFlag>
N

>  <InChI>
InChI=1S/C20H30O/c1-16(8-6-9-17(2)13-15-21)11-12-19-18(3)10-7-14-20(19,4)5/h6,8-9,11-13,21H,7,10,14-15H2,1-5H3/b9-6+,12-11+,16-8+,17-13+

>  <InChIKey>
FPIPGXGPPPQFEQ-OVSJKPMPSA-N

>  <SMILES>
CC1=C(C(CCC1)(C)C)\C=C\C(=C\C=C\C(=CCO)C)\C

$$$$
