4NVP_7CH_A_800
  RCSB PDB12061713573D
Coordinates from PDB:4NVP:A:800 Model:1 without hydrogens
 22 25  0  0  0  0            999 V2000
    3.7850   23.2470   15.3670   O 0  0  0  0  0  0  0  0  0  0  0  0
    4.2520   21.8200   15.4660   P 0  0  0  0  0  0  0  0  0  0  0  0
    5.0180   21.3400   16.6610   O 0  0  0  0  0  0  0  0  0  0  0  0
    3.0030   20.8260   15.1970   O 0  0  0  0  0  0  0  0  0  0  0  0
    3.4550   19.4980   15.1010   C 0  0  0  0  0  0  0  0  0  0  0  0
    4.4210   19.3640   13.9480   C 0  0  0  0  0  0  0  0  0  0  0  0
    5.6810   20.1920   14.0080   C 0  0  0  0  0  0  0  0  0  0  0  0
    5.2200   21.5280   14.1900   O 0  0  0  0  0  0  0  0  0  0  0  0
    2.4360   18.4390   14.7600   C 0  0  0  0  0  0  0  0  0  0  0  0
    1.4790   18.9480   13.8160   O 0  0  0  0  0  0  0  0  0  0  0  0
    3.3230   17.3880   14.1300   C 0  0  0  0  0  0  0  0  0  0  0  0
    4.6270   17.9590   14.0030   O 0  0  0  0  0  0  0  0  0  0  0  0
    3.4120   16.1800   14.9550   N 0  0  0  0  0  0  0  0  0  0  0  0
    2.8140   15.0460   14.6490   C 0  0  0  0  0  0  0  0  0  0  0  0
    3.1590   14.0930   15.7000   C 0  0  0  0  0  0  0  0  0  0  0  0
    3.9900   14.7140   16.5500   C 0  0  0  0  0  0  0  0  0  0  0  0
    4.1360   15.9890   16.0850   C 0  0  0  0  0  0  0  0  0  0  0  0
    2.0330   14.6630   13.6320   N 0  0  0  0  0  0  0  0  0  0  0  0
    1.5070   13.4200   13.5920   C 0  0  0  0  0  0  0  0  0  0  0  0
    1.7650   12.4710   14.5130   N 0  0  0  0  0  0  0  0  0  0  0  0
    2.5560   12.7310   15.5810   C 0  0  0  0  0  0  0  0  0  0  0  0
    2.8250   11.7690   16.5200   N 0  0  0  0  0  0  0  0  0  0  0  0
 19 18  2  0  0  0  0
 19 20  1  0  0  0  0
 18 14  1  0  0  0  0
 10  9  1  0  0  0  0
  6 12  1  0  0  0  0
  6  7  1  0  0  0  0
  6  5  1  0  0  0  0
 12 11  1  0  0  0  0
  7  8  1  0  0  0  0
 11  9  1  0  0  0  0
 11 13  1  0  0  0  0
  8  2  1  0  0  0  0
 20 21  2  0  0  0  0
 14 13  1  0  0  0  0
 14 15  2  0  0  0  0
  9  5  1  0  0  0  0
 13 17  1  0  0  0  0
  5  4  1  0  0  0  0
  4  2  1  0  0  0  0
  1  2  2  0  0  0  0
  2  3  1  0  0  0  0
 21 15  1  0  0  0  0
 21 22  1  0  0  0  0
 15 16  1  0  0  0  0
 17 16  2  0  0  0  0
A    1
O2P
A    2
P
A    3
O1P
A    4
O3'
A    5
C3'
A    6
C4'
A    7
C5'
A    8
O5'
A    9
C2'
A   10
O2'
A   11
C1'
A   12
O4'
A   13
N9
A   14
C4
A   15
C5
A   16
C7
A   17
C8
A   18
N3
A   19
C2
A   20
N1
A   21
C6
A   22
N6
M  END
>  <InstanceId>
4NVP_7CH_A_800

>  <ChemCompId>
7CH

>  <PdbId>
4NVP

>  <ChainId>
A

>  <ResidueNumber>
800

>  <InsertionCode>


>  <Model>
1

>  <AltIds>


>  <MissingHeavyAtoms>
0

>  <ObservedFormula>
C11 N4 O6 P

>  <Name>
(2S,4aR,6R,7R,7aS)-6-(4-amino-7H-pyrrolo[2,3-d]pyrimidin-7-yl)tetrahydro-4H-furo[3,2-d][1,3,2]dioxaphosphinine-2,7-diol 2-oxide

>  <SystematicName>
(4aR,6R,7R,7aS)-6-(4-azanylpyrrolo[2,3-d]pyrimidin-7-yl)-2-oxidanyl-2-oxidanylidene-4a,6,7,7a-tetrahydro-4H-furo[3,2-d][1,3,2]dioxaphosphinin-7-ol

>  <Synonyms>
7-CH-cAMP

>  <Type>
NON-POLYMER

>  <Formula>
C11 H13 N4 O6 P

>  <MolecularWeight>
328.218

>  <ModifiedDate>
2014-03-14

>  <Parent>


>  <OneLetterCode>


>  <SubcomponentList>


>  <AmbiguousFlag>
N

>  <InChI>
InChI=1S/C11H13N4O6P/c12-9-5-1-2-15(10(5)14-4-13-9)11-7(16)8-6(20-11)3-19-22(17,18)21-8/h1-2,4,6-8,11,16H,3H2,(H,17,18)(H2,12,13,14)/t6-,7-,8-,11-/m1/s1

>  <InChIKey>
LCYHXWIEMRESTK-KCGFPETGSA-N

>  <SMILES>
c1cn(c2c1c(ncn2)N)[C@H]3[C@@H]([C@H]4[C@H](O3)COP(=O)(O4)O)O

$$$$
