3KQR_OPE_A_700


 12 11  0  0  0  0  0  0  0  0999 V2000
   15.8299   16.7784   56.7802 O   0  0  0  0  0  0  0  0  0  0  0  0
   16.6581   14.3765   57.2134 O   0  0  0  0  0  0  0  0  0  0  0  0
   16.5985   16.0393   59.1161 O   0  0  0  0  0  0  0  0  0  0  0  0
   18.3413   16.3201   57.3147 O   0  0  0  0  0  0  0  0  0  0  0  0
   16.9542   15.8888   57.5427 P   0  0  0  0  0  0  0  0  0  0  0  0
   17.3142   13.8150   57.6552 H   0  0  0  0  0  0  0  0  0  0  0  0
   17.2345   15.5293   59.6416 H   0  0  0  0  0  0  0  0  0  0  0  0
   15.8142   18.1514   57.0343 C   0  0  0  0  0  0  0  0  0  0  0  0
   15.0670   18.7539   55.8728 C   0  0  0  0  0  0  0  0  0  0  0  0
   13.6414   18.8642   56.2525 N   0  0  0  0  0  0  0  0  0  0  0  0
   13.2761   17.9382   56.4749 H   0  0  0  0  0  0  0  0  0  0  0  0
   13.1123   19.2608   55.4758 H   0  0  0  0  0  0  0  0  0  0  0  0
  8  9  1  0  0  0
  8  1  1  0  0  0
  9 10  1  0  0  0
  2  5  1  0  0  0
  3  5  1  0  0  0
  4  5  2  0  0  0
  1  5  1  0  0  0
  2  6  1  0  0  0
  3  7  1  0  0  0
 10 11  1  0  0  0
 10 12  1  0  0  0
M  END
> <minimizedAffinity>
-4.70412

$$$$
3KQR_OPE_A_700


 12 11  0  0  0  0  0  0  0  0999 V2000
   17.3907   14.7858   56.9821 O   0  0  0  0  0  0  0  0  0  0  0  0
   16.7005   16.0286   59.1319 O   0  0  0  0  0  0  0  0  0  0  0  0
   15.4024   16.4106   56.9970 O   0  0  0  0  0  0  0  0  0  0  0  0
   17.7297   17.3637   57.1880 O   0  0  0  0  0  0  0  0  0  0  0  0
   16.9013   16.2140   57.5800 P   0  0  0  0  0  0  0  0  0  0  0  0
   16.4069   16.8666   59.5224 H   0  0  0  0  0  0  0  0  0  0  0  0
   15.0397   17.2522   57.3148 H   0  0  0  0  0  0  0  0  0  0  0  0
   18.4472   14.7982   56.0691 C   0  0  0  0  0  0  0  0  0  0  0  0
   17.8976   14.1429   54.8286 C   0  0  0  0  0  0  0  0  0  0  0  0
   17.6818   15.1954   53.8115 N   0  0  0  0  0  0  0  0  0  0  0  0
   17.0270   15.8887   54.1733 H   0  0  0  0  0  0  0  0  0  0  0  0
   17.2991   14.7759   52.9641 H   0  0  0  0  0  0  0  0  0  0  0  0
  8  9  1  0  0  0
  8  1  1  0  0  0
  9 10  1  0  0  0
  2  5  1  0  0  0
  3  5  1  0  0  0
  4  5  2  0  0  0
  1  5  1  0  0  0
  2  6  1  0  0  0
  3  7  1  0  0  0
 10 11  1  0  0  0
 10 12  1  0  0  0
M  END
> <minimizedAffinity>
-4.56311

$$$$
3KQR_OPE_A_700


 12 11  0  0  0  0  0  0  0  0999 V2000
   17.5091   15.9339   55.5281 O   0  0  0  0  0  0  0  0  0  0  0  0
   16.4164   13.6078   55.7223 O   0  0  0  0  0  0  0  0  0  0  0  0
   18.6491   14.0351   56.8273 O   0  0  0  0  0  0  0  0  0  0  0  0
   18.5519   13.8756   54.3121 O   0  0  0  0  0  0  0  0  0  0  0  0
   17.7936   14.3358   55.4847 P   0  0  0  0  0  0  0  0  0  0  0  0
   16.5508   12.6474   55.7026 H   0  0  0  0  0  0  0  0  0  0  0  0
   18.8592   13.0892   56.8718 H   0  0  0  0  0  0  0  0  0  0  0  0
   17.7933   16.6063   56.7185 C   0  0  0  0  0  0  0  0  0  0  0  0
   16.4737   16.6950   57.4403 C   0  0  0  0  0  0  0  0  0  0  0  0
   16.5139   15.7593   58.5856 N   0  0  0  0  0  0  0  0  0  0  0  0
   16.6756   14.8116   58.2448 H   0  0  0  0  0  0  0  0  0  0  0  0
   15.6249   15.7942   59.0845 H   0  0  0  0  0  0  0  0  0  0  0  0
  8  9  1  0  0  0
  8  1  1  0  0  0
  9 10  1  0  0  0
  2  5  1  0  0  0
  3  5  1  0  0  0
  4  5  2  0  0  0
  1  5  1  0  0  0
  2  6  1  0  0  0
  3  7  1  0  0  0
 10 11  1  0  0  0
 10 12  1  0  0  0
M  END
> <minimizedAffinity>
-4.52480

$$$$
3KQR_OPE_A_700


 12 11  0  0  0  0  0  0  0  0999 V2000
   17.8957   17.3038   57.2728 O   0  0  0  0  0  0  0  0  0  0  0  0
   15.4661   16.5479   56.8625 O   0  0  0  0  0  0  0  0  0  0  0  0
   16.5979   15.9813   59.0504 O   0  0  0  0  0  0  0  0  0  0  0  0
   17.3304   14.7770   56.9588 O   0  0  0  0  0  0  0  0  0  0  0  0
   16.8488   16.0756   57.4525 P   0  0  0  0  0  0  0  0  0  0  0  0
   14.8150   15.8348   56.9542 H   0  0  0  0  0  0  0  0  0  0  0  0
   15.9755   15.2614   59.2380 H   0  0  0  0  0  0  0  0  0  0  0  0
   18.1848   18.0736   58.4014 C   0  0  0  0  0  0  0  0  0  0  0  0
   19.5131   17.5599   58.8935 C   0  0  0  0  0  0  0  0  0  0  0  0
   19.3115   16.9860   60.2421 N   0  0  0  0  0  0  0  0  0  0  0  0
   18.9493   17.7060   60.8673 H   0  0  0  0  0  0  0  0  0  0  0  0
   20.2015   16.6403   60.6010 H   0  0  0  0  0  0  0  0  0  0  0  0
  8  9  1  0  0  0
  8  1  1  0  0  0
  9 10  1  0  0  0
  2  5  1  0  0  0
  3  5  1  0  0  0
  4  5  2  0  0  0
  1  5  1  0  0  0
  2  6  1  0  0  0
  3  7  1  0  0  0
 10 11  1  0  0  0
 10 12  1  0  0  0
M  END
> <minimizedAffinity>
-4.41390

$$$$
3KQR_OPE_A_700


 12 11  0  0  0  0  0  0  0  0999 V2000
   17.9846   16.9290   56.8654 O   0  0  0  0  0  0  0  0  0  0  0  0
   15.4321   16.5970   56.9971 O   0  0  0  0  0  0  0  0  0  0  0  0
   16.8414   16.2814   59.0715 O   0  0  0  0  0  0  0  0  0  0  0  0
   16.9761   14.5530   57.2396 O   0  0  0  0  0  0  0  0  0  0  0  0
   16.8065   15.9940   57.4774 P   0  0  0  0  0  0  0  0  0  0  0  0
   14.7038   16.0600   57.3465 H   0  0  0  0  0  0  0  0  0  0  0  0
   16.1574   15.7519   59.5105 H   0  0  0  0  0  0  0  0  0  0  0  0
   18.8530   16.3469   55.9397 C   0  0  0  0  0  0  0  0  0  0  0  0
   18.1681   16.5094   54.6074 C   0  0  0  0  0  0  0  0  0  0  0  0
   17.7957   15.1644   54.1164 N   0  0  0  0  0  0  0  0  0  0  0  0
   18.6349   14.5921   54.0230 H   0  0  0  0  0  0  0  0  0  0  0  0
   17.3387   15.2484   53.2084 H   0  0  0  0  0  0  0  0  0  0  0  0
  8  9  1  0  0  0
  8  1  1  0  0  0
  9 10  1  0  0  0
  2  5  1  0  0  0
  3  5  1  0  0  0
  4  5  2  0  0  0
  1  5  1  0  0  0
  2  6  1  0  0  0
  3  7  1  0  0  0
 10 11  1  0  0  0
 10 12  1  0  0  0
M  END
> <minimizedAffinity>
-4.25425

$$$$
3KQR_OPE_A_700


 12 11  0  0  0  0  0  0  0  0999 V2000
   17.8469   17.3220   57.2560 O   0  0  0  0  0  0  0  0  0  0  0  0
   15.4143   16.5123   56.9926 O   0  0  0  0  0  0  0  0  0  0  0  0
   16.6733   16.0114   59.1263 O   0  0  0  0  0  0  0  0  0  0  0  0
   17.3159   14.7792   57.0216 O   0  0  0  0  0  0  0  0  0  0  0  0
   16.8359   16.0781   57.5158 P   0  0  0  0  0  0  0  0  0  0  0  0
   14.7833   15.7890   57.1332 H   0  0  0  0  0  0  0  0  0  0  0  0
   16.0763   15.2838   59.3612 H   0  0  0  0  0  0  0  0  0  0  0  0
   18.6355   17.2809   56.1043 C   0  0  0  0  0  0  0  0  0  0  0  0
   20.0166   16.9249   56.5904 C   0  0  0  0  0  0  0  0  0  0  0  0
   20.3074   15.5370   56.1687 N   0  0  0  0  0  0  0  0  0  0  0  0
   19.6112   14.9074   56.5679 H   0  0  0  0  0  0  0  0  0  0  0  0
   21.2355   15.2695   56.4965 H   0  0  0  0  0  0  0  0  0  0  0  0
  8  9  1  0  0  0
  8  1  1  0  0  0
  9 10  1  0  0  0
  2  5  1  0  0  0
  3  5  1  0  0  0
  4  5  2  0  0  0
  1  5  1  0  0  0
  2  6  1  0  0  0
  3  7  1  0  0  0
 10 11  1  0  0  0
 10 12  1  0  0  0
M  END
> <minimizedAffinity>
-4.23784

$$$$
3KQR_OPE_A_700


 12 11  0  0  0  0  0  0  0  0999 V2000
   15.4484   17.4879   56.6420 O   0  0  0  0  0  0  0  0  0  0  0  0
   15.6132   20.0599   56.6487 O   0  0  0  0  0  0  0  0  0  0  0  0
   13.3674   18.9532   56.3019 O   0  0  0  0  0  0  0  0  0  0  0  0
   15.0722   18.8445   54.4463 O   0  0  0  0  0  0  0  0  0  0  0  0
   14.9357   18.8439   55.9103 P   0  0  0  0  0  0  0  0  0  0  0  0
   15.3273   20.8894   56.2350 H   0  0  0  0  0  0  0  0  0  0  0  0
   12.9876   19.7483   55.8963 H   0  0  0  0  0  0  0  0  0  0  0  0
   16.8272   17.3076   56.7704 C   0  0  0  0  0  0  0  0  0  0  0  0
   17.0587   17.1123   58.2464 C   0  0  0  0  0  0  0  0  0  0  0  0
   16.5137   15.7900   58.6248 N   0  0  0  0  0  0  0  0  0  0  0  0
   15.5173   15.7585   58.4088 H   0  0  0  0  0  0  0  0  0  0  0  0
   16.6498   15.6396   59.6245 H   0  0  0  0  0  0  0  0  0  0  0  0
  8  9  1  0  0  0
  8  1  1  0  0  0
  9 10  1  0  0  0
  2  5  1  0  0  0
  3  5  1  0  0  0
  4  5  2  0  0  0
  1  5  1  0  0  0
  2  6  1  0  0  0
  3  7  1  0  0  0
 10 11  1  0  0  0
 10 12  1  0  0  0
M  END
> <minimizedAffinity>
-4.19532

$$$$
3KQR_OPE_A_700


 12 11  0  0  0  0  0  0  0  0999 V2000
   18.1663   16.5581   56.9592 O   0  0  0  0  0  0  0  0  0  0  0  0
   16.5339   15.7959   58.8023 O   0  0  0  0  0  0  0  0  0  0  0  0
   16.4212   14.7279   56.5142 O   0  0  0  0  0  0  0  0  0  0  0  0
   15.6221   17.1049   56.7834 O   0  0  0  0  0  0  0  0  0  0  0  0
   16.6262   16.1468   57.2688 P   0  0  0  0  0  0  0  0  0  0  0  0
   15.6232   15.5448   59.0222 H   0  0  0  0  0  0  0  0  0  0  0  0
   15.5140   14.4148   56.6553 H   0  0  0  0  0  0  0  0  0  0  0  0
   18.9571   15.6280   56.2813 C   0  0  0  0  0  0  0  0  0  0  0  0
   20.3481   15.8303   56.8242 C   0  0  0  0  0  0  0  0  0  0  0  0
   21.2910   15.8205   55.6842 N   0  0  0  0  0  0  0  0  0  0  0  0
   21.2216   14.9291   55.1933 H   0  0  0  0  0  0  0  0  0  0  0  0
   22.2427   15.9456   56.0291 H   0  0  0  0  0  0  0  0  0  0  0  0
  8  9  1  0  0  0
  8  1  1  0  0  0
  9 10  1  0  0  0
  2  5  1  0  0  0
  3  5  1  0  0  0
  4  5  2  0  0  0
  1  5  1  0  0  0
  2  6  1  0  0  0
  3  7  1  0  0  0
 10 11  1  0  0  0
 10 12  1  0  0  0
M  END
> <minimizedAffinity>
-4.12943

$$$$
3KQR_OPE_A_700


 12 11  0  0  0  0  0  0  0  0999 V2000
   17.6402   16.1391   55.3759 O   0  0  0  0  0  0  0  0  0  0  0  0
   17.6538   15.5416   52.8689 O   0  0  0  0  0  0  0  0  0  0  0  0
   18.2539   13.7774   54.5765 O   0  0  0  0  0  0  0  0  0  0  0  0
   19.8864   15.6505   54.1434 O   0  0  0  0  0  0  0  0  0  0  0  0
   18.4500   15.3443   54.2143 P   0  0  0  0  0  0  0  0  0  0  0  0
   18.1122   15.0776   52.1509 H   0  0  0  0  0  0  0  0  0  0  0  0
   18.7151   13.2334   53.9191 H   0  0  0  0  0  0  0  0  0  0  0  0
   17.3731   15.4502   56.5609 C   0  0  0  0  0  0  0  0  0  0  0  0
   17.2093   16.5227   57.6064 C   0  0  0  0  0  0  0  0  0  0  0  0
   16.5287   15.9233   58.7753 N   0  0  0  0  0  0  0  0  0  0  0  0
   15.6207   15.5571   58.4891 H   0  0  0  0  0  0  0  0  0  0  0  0
   16.3970   16.6351   59.4939 H   0  0  0  0  0  0  0  0  0  0  0  0
  8  9  1  0  0  0
  8  1  1  0  0  0
  9 10  1  0  0  0
  2  5  1  0  0  0
  3  5  1  0  0  0
  4  5  2  0  0  0
  1  5  1  0  0  0
  2  6  1  0  0  0
  3  7  1  0  0  0
 10 11  1  0  0  0
 10 12  1  0  0  0
M  END
> <minimizedAffinity>
-3.86724

$$$$
3KQR_OPE_A_700


 12 11  0  0  0  0  0  0  0  0999 V2000
   17.3223   16.2850   55.9019 O   0  0  0  0  0  0  0  0  0  0  0  0
   16.4160   13.8834   55.6709 O   0  0  0  0  0  0  0  0  0  0  0  0
   16.5774   14.9427   57.9601 O   0  0  0  0  0  0  0  0  0  0  0  0
   18.7033   14.2578   56.7884 O   0  0  0  0  0  0  0  0  0  0  0  0
   17.3562   14.7953   56.5471 P   0  0  0  0  0  0  0  0  0  0  0  0
   16.4131   12.9824   56.0302 H   0  0  0  0  0  0  0  0  0  0  0  0
   16.5567   14.0831   58.4091 H   0  0  0  0  0  0  0  0  0  0  0  0
   18.4374   16.6939   55.1675 C   0  0  0  0  0  0  0  0  0  0  0  0
   17.8962   17.0625   53.8104 C   0  0  0  0  0  0  0  0  0  0  0  0
   17.3682   15.8336   53.1782 N   0  0  0  0  0  0  0  0  0  0  0  0
   18.1170   15.1463   53.0932 H   0  0  0  0  0  0  0  0  0  0  0  0
   17.0050   16.0570   52.2516 H   0  0  0  0  0  0  0  0  0  0  0  0
  8  9  1  0  0  0
  8  1  1  0  0  0
  9 10  1  0  0  0
  2  5  1  0  0  0
  3  5  1  0  0  0
  4  5  2  0  0  0
  1  5  1  0  0  0
  2  6  1  0  0  0
  3  7  1  0  0  0
 10 11  1  0  0  0
 10 12  1  0  0  0
M  END
> <minimizedAffinity>
-3.80032

$$$$
