6GE7_EW8_A_201
  RCSB PDB06231805483D
Coordinates from PDB:6GE7:A:201 Model:1 without hydrogens
 21 20  0  0  0  0            999 V2000
   23.4610   49.0810   57.0490   C 0  0  0  0  0  0  0  0  0  0  0  0
   22.4700   47.9120   56.9950   C 0  0  0  0  0  0  0  0  0  0  0  0
   21.3280   48.0730   58.0010   C 0  0  0  0  0  0  0  0  0  0  0  0
   20.2850   46.9560   57.8690   C 0  0  0  0  0  0  0  0  0  0  0  0
   19.4080   47.1220   56.6140   C 0  0  0  0  0  0  0  0  0  0  0  0
   17.2670   48.5430   56.9840   C 0  0  0  0  0  0  0  0  0  0  0  0
   13.7030   49.8390   56.0290   C 0  0  0  0  0  0  0  0  0  0  0  0
   11.7330   51.3770   56.0760   C 0  0  0  0  0  0  0  0  0  0  0  0
   10.2560   51.3690   54.0480   C 0  0  0  0  0  0  0  0  0  0  0  0
   24.8140   49.9470   52.8820   O 0  0  0  0  0  0  0  0  0  0  0  0
   25.5680   49.9650   53.8870   C 0  0  0  0  0  0  0  0  0  0  0  0
   26.6320   50.6130   53.9890   O 0  0  0  0  0  0  0  0  0  0  0  0
   25.1200   49.1120   55.1270   C 0  0  0  0  0  0  0  0  0  0  0  0
   23.7750   49.6240   55.6530   C 0  0  0  0  0  0  0  0  0  0  0  0
   17.8930   47.1160   56.9240   C 0  0  0  0  0  0  0  0  0  0  0  0
   15.8190   48.5560   56.4550   C 0  0  0  0  0  0  0  0  0  0  0  0
   15.1310   49.9430   56.5190   C 0  0  0  0  0  0  0  0  0  0  0  0
   13.0960   51.1380   55.5370   C 0  0  0  0  0  0  0  0  0  0  0  0
   10.8360   52.1880   55.1720   C 0  0  0  0  0  0  0  0  0  0  0  0
    8.8880   51.8910   53.6590   C 0  0  0  0  0  0  0  0  0  0  0  0
    8.5010   51.4660   52.2470   C 0  0  0  0  0  0  0  0  0  0  0  0
 21 20  1  0  0  0  0
 10 11  2  0  0  0  0
 20  9  1  0  0  0  0
 11 12  1  0  0  0  0
 11 13  1  0  0  0  0
  9 19  1  0  0  0  0
 13 14  1  0  0  0  0
 19  8  1  0  0  0  0
 18  7  1  0  0  0  0
 18  8  1  0  0  0  0
 14  1  1  0  0  0  0
  7 17  1  0  0  0  0
 16 17  1  0  0  0  0
 16  6  1  0  0  0  0
  5 15  1  0  0  0  0
  5  4  1  0  0  0  0
 15  6  1  0  0  0  0
  2  1  1  0  0  0  0
  2  3  1  0  0  0  0
  4  3  1  0  0  0  0
A    1
C4
A    2
C5
A    3
C6
A    4
C7
A    5
C8
A    6
C10
A    7
C13
A    8
C15
A    9
C17
A   10
O1
A   11
C1
A   12
O2
A   13
C2
A   14
C3
A   15
C9
A   16
C11
A   17
C12
A   18
C14
A   19
C16
A   20
C18
A   21
C19
M  END
>  <InstanceId>
6GE7_EW8_A_201

>  <ChemCompId>
EW8

>  <PdbId>
6GE7

>  <ChainId>
A

>  <ResidueNumber>
201

>  <InsertionCode>


>  <Model>
1

>  <AltIds>


>  <MissingHeavyAtoms>
0

>  <ObservedFormula>
C19 O2

>  <Name>
nonadecanoic acid

>  <SystematicName>
nonadecanoic acid

>  <Synonyms>


>  <Type>
NON-POLYMER

>  <Formula>
C19 H38 O2

>  <MolecularWeight>
298.504

>  <ModifiedDate>
2018-06-15

>  <Parent>


>  <OneLetterCode>


>  <SubcomponentList>


>  <AmbiguousFlag>
N

>  <InChI>
InChI=1S/C19H38O2/c1-2-3-4-5-6-7-8-9-10-11-12-13-14-15-16-17-18-19(20)21/h2-18H2,1H3,(H,20,21)

>  <InChIKey>
ISYWECDDZWTKFF-UHFFFAOYSA-N

>  <SMILES>
CCCCCCCCCCCCCCCCCCC(=O)O

$$$$
