3H89_NSX_A_400


 81 86  0  0  0  0  0  0  0  0999 V2000
   29.2800   -6.8546   -8.4226 C   0  0  0  0  0  0  0  0  0  0  0  0
   30.3163   -7.3296   -9.0912 O   0  0  0  0  0  0  0  0  0  0  0  0
   28.5798   -7.5739   -7.3287 N   0  0  0  0  0  0  0  0  0  0  0  0
   27.8174   -7.1328   -6.8888 H   0  0  0  0  0  0  0  0  0  0  0  0
   28.7040   -5.4926   -8.6569 C   0  0  0  0  0  0  0  0  0  0  0  0
   29.9006   -3.9111  -10.2992 C   0  0  0  0  0  0  0  0  0  0  0  0
   29.6945   -2.8499   -9.7680 O   0  0  0  0  0  0  0  0  0  0  0  0
   29.4377   -5.2138   -9.8096 N   0  0  0  0  0  0  0  0  0  0  0  0
   29.6753   -5.9907  -10.3658 H   0  0  0  0  0  0  0  0  0  0  0  0
   30.6238   -3.9916  -11.4714 C   0  0  0  0  0  0  0  0  0  0  0  0
   27.2329   -4.2659  -14.4658 C   0  0  0  0  0  0  0  0  0  0  0  0
   27.6076   -2.9406  -13.7219 C   0  0  0  0  0  0  0  0  0  0  0  0
   28.6932   -2.8952  -12.7662 C   0  0  0  0  0  0  0  0  0  0  0  0
   29.4999   -4.1639  -12.4781 C   0  0  0  0  0  0  0  0  0  0  0  0
   29.1641   -5.5500  -13.1872 C   0  0  0  0  0  0  0  0  0  0  0  0
   28.0271   -5.5382  -14.1630 C   0  0  0  0  0  0  0  0  0  0  0  0
   24.0670   -4.2010  -17.7172 C   0  0  0  0  0  0  0  0  0  0  0  0
   24.6072   -4.3617  -15.0552 C   0  0  0  0  0  0  0  0  0  0  0  0
   26.1087   -4.2457  -15.4390 C   0  0  0  0  0  0  0  0  0  0  0  0
   23.6417   -4.3269  -16.2548 C   0  0  0  0  0  0  0  0  0  0  0  0
   26.5804   -4.1102  -16.9990 C   0  0  0  0  0  0  0  0  0  0  0  0
   25.5753   -4.0840  -18.0681 C   0  0  0  0  0  0  0  0  0  0  0  0
   27.2790   -5.5970   -9.0348 C   0  0  0  0  0  0  0  0  0  0  0  0
   26.4666   -4.6284   -9.9077 C   0  0  0  0  0  0  0  0  0  0  0  0
   25.8447   -4.8456  -11.0189 C   0  0  0  0  0  0  0  0  0  0  0  0
   24.7234   -5.8770  -11.2551 C   0  0  0  0  0  0  0  0  0  0  0  0
   25.6151   -7.6321  -12.6458 C   0  0  0  0  0  0  0  0  0  0  0  0
   24.6926   -6.7265  -12.5631 N   0  0  0  0  0  0  0  0  0  0  0  0
   26.4018   -7.8587  -11.8971 O   0  0  0  0  0  0  0  0  0  0  0  0
   24.0235   -6.5852  -13.2713 H   0  0  0  0  0  0  0  0  0  0  0  0
   25.7408   -8.5022  -13.7295 C   0  0  0  0  0  0  0  0  0  0  0  0
   25.2988   -8.2912  -14.9725 C   0  0  0  0  0  0  0  0  0  0  0  0
   26.2399   -7.9531  -16.1094 C   0  0  0  0  0  0  0  0  0  0  0  0
   23.8002   -8.3421  -15.2897 C   0  0  0  0  0  0  0  0  0  0  0  0
   25.8152   -7.7059  -17.5078 C   0  0  0  0  0  0  0  0  0  0  0  0
   23.3358   -8.0854  -16.7054 C   0  0  0  0  0  0  0  0  0  0  0  0
   24.3557   -7.7316  -17.8692 C   0  0  0  0  0  0  0  0  0  0  0  0
   23.9919   -7.4899  -19.2352 C   0  0  0  0  0  0  0  0  0  0  0  0
   22.5198   -7.6624  -19.7313 C   0  0  0  0  0  0  0  0  0  0  0  0
   25.0115   -7.0884  -20.3174 C   0  0  0  0  0  0  0  0  0  0  0  0
   22.1371   -7.4203  -21.1905 C   0  0  0  0  0  0  0  0  0  0  0  0
   24.6113   -6.8635  -21.7300 C   0  0  0  0  0  0  0  0  0  0  0  0
   23.1986   -7.0236  -22.1564 C   0  0  0  0  0  0  0  0  0  0  0  0
   28.9603   -8.8704   -6.8878 C   0  0  0  0  0  0  0  0  0  0  0  0
   28.5714   -9.1775   -5.5312 C   0  0  0  0  0  0  0  0  0  0  0  0
   29.3127   -8.7850   -4.5877 O   0  0  0  0  0  0  0  0  0  0  0  0
   27.4562   -9.8862   -5.4096 N   0  0  0  0  0  0  0  0  0  0  0  0
   26.9684  -10.1179   -6.2327 H   0  0  0  0  0  0  0  0  0  0  0  0
   26.9154  -10.3358   -4.1682 C   0  0  0  0  0  0  0  0  0  0  0  0
   27.5855  -11.7484   -3.9990 C   0  0  0  0  0  0  0  0  0  0  0  0
   27.5651  -12.5671   -4.9018 O   0  0  0  0  0  0  0  0  0  0  0  0
   28.2020  -11.9701   -2.6752 N   0  0  0  0  0  0  0  0  0  0  0  0
   28.1885  -11.2713   -1.9818 H   0  0  0  0  0  0  0  0  0  0  0  0
   28.8665  -13.3354   -2.4208 C   0  0  0  0  0  0  0  0  0  0  0  0
   29.1218  -13.4093   -0.9943 C   0  0  0  0  0  0  0  0  0  0  0  0
   29.3561  -14.6229   -0.2775 C   0  0  0  0  0  0  0  0  0  0  0  0
   28.1598  -15.4985    0.3861 C   0  0  0  0  0  0  0  0  0  0  0  0
   28.5726  -16.7841    1.1271 C   0  0  0  0  0  0  0  0  0  0  0  0
   30.0311  -17.1719    1.2047 C   0  0  0  0  0  0  0  0  0  0  0  0
   31.1136  -16.3301    0.5721 C   0  0  0  0  0  0  0  0  0  0  0  0
   30.7971  -15.0559   -0.1699 C   0  0  0  0  0  0  0  0  0  0  0  0
   25.3598  -10.5119   -4.1712 C   0  0  0  0  0  0  0  0  0  0  0  0
   24.8502  -10.2234   -2.7101 C   0  0  0  0  0  0  0  0  0  0  0  0
   25.4739   -9.1084   -1.8851 C   0  0  0  0  0  0  0  0  0  0  0  0
   23.6800  -11.1252   -2.0810 C   0  0  0  0  0  0  0  0  0  0  0  0
   24.9821   -8.8659   -0.4770 C   0  0  0  0  0  0  0  0  0  0  0  0
   23.2240  -10.8578   -0.6994 C   0  0  0  0  0  0  0  0  0  0  0  0
   23.8518   -9.7558    0.1064 C   0  0  0  0  0  0  0  0  0  0  0  0
   23.4287   -9.5489    1.3309 O   0  0  0  0  0  0  0  0  0  0  0  0
   23.8081   -8.8664    1.8487 H   0  0  0  0  0  0  0  0  0  0  0  0
   28.1940  -10.0596   -7.7511 C   0  0  0  0  0  0  0  0  0  0  0  0
   28.9701  -11.0332   -8.7605 C   0  0  0  0  0  0  0  0  0  0  0  0
   30.2650  -11.6732   -8.1848 C   0  0  0  0  0  0  0  0  0  0  0  0
   31.5495  -11.5817   -8.9229 N   0  0  0  0  0  0  0  0  0  0  0  0
   31.9531  -12.4091   -9.2718 H   0  0  0  0  0  0  0  0  0  0  0  0
   32.2500  -10.2962   -9.1565 C   0  0  0  0  0  0  0  0  0  0  0  0
   32.3866   -9.3191   -8.1935 N   0  0  0  0  0  0  0  0  0  0  0  0
   32.8340   -9.9589  -10.3626 N   0  0  0  0  0  0  0  0  0  0  0  0
   32.0069   -9.4564   -7.2956 H   0  0  0  0  0  0  0  0  0  0  0  0
   32.7953  -10.5858  -11.1206 H   0  0  0  0  0  0  0  0  0  0  0  0
   33.2887   -9.0916  -10.4637 H   0  0  0  0  0  0  0  0  0  0  0  0
 10  6  1  0  0  0
 10 14  1  0  0  0
  6  7  2  0  0  0
  6  8  1  0  0  0
 11 12  2  0  0  0
 11 16  1  0  0  0
 11 19  1  0  0  0
 12 13  1  0  0  0
 13 14  2  0  0  0
 14 15  1  0  0  0
 15 16  2  0  0  0
 17 20  2  0  0  0
 17 22  1  0  0  0
 18 19  2  0  0  0
 18 20  1  0  0  0
 19 21  1  0  0  0
 21 22  2  0  0  0
  8  5  1  0  0  0
  5  1  1  0  0  0
  5 23  1  0  0  0
  1  2  2  0  0  0
  1  3  1  0  0  0
 23 24  1  0  0  0
 31 32  1  0  0  0
 31 27  1  0  0  0
 32 33  2  0  0  0
 32 34  1  0  0  0
 33 35  1  0  0  0
 34 36  2  0  0  0
 35 37  2  0  0  0
 36 37  1  0  0  0
 37 38  1  0  0  0
  3 44  1  0  0  0
 44 71  1  0  0  0
 44 45  1  0  0  0
 71 72  1  0  0  0
 72 73  1  0  0  0
 73 74  1  0  0  0
 74 76  1  0  0  0
 76 77  2  0  0  0
 76 78  1  0  0  0
 45 46  2  0  0  0
 45 47  1  0  0  0
 47 49  1  0  0  0
 49 50  1  0  0  0
 49 62  1  0  0  0
 50 51  2  0  0  0
 50 52  1  0  0  0
 62 63  1  0  0  0
 63 64  2  0  0  0
 63 65  1  0  0  0
 64 66  1  0  0  0
 65 67  2  0  0  0
 66 68  2  0  0  0
 67 68  1  0  0  0
 68 69  1  0  0  0
 56 57  2  0  0  0
 56 61  1  0  0  0
 56 55  1  0  0  0
 57 58  1  0  0  0
 58 59  2  0  0  0
 59 60  1  0  0  0
 60 61  2  0  0  0
 55 54  1  0  0  0
 54 52  1  0  0  0
 38 39  2  0  0  0
 38 40  1  0  0  0
 39 41  1  0  0  0
 40 42  2  0  0  0
 41 43  2  0  0  0
 42 43  1  0  0  0
 27 28  1  0  0  0
 27 29  2  0  0  0
 24 25  1  0  0  0
 25 26  1  0  0  0
 26 28  1  0  0  0
  8  9  1  0  0  0
  3  4  1  0  0  0
 74 75  1  0  0  0
 77 79  1  0  0  0
 78 80  1  0  0  0
 78 81  1  0  0  0
 47 48  1  0  0  0
 69 70  1  0  0  0
 52 53  1  0  0  0
 28 30  1  0  0  0
M  END
> <minimizedAffinity>
-7.78680

$$$$
3H89_NSX_A_400


 81 86  0  0  0  0  0  0  0  0999 V2000
   29.2169   -6.7410   -8.4900 C   0  0  0  0  0  0  0  0  0  0  0  0
   30.2311   -7.2025   -9.2006 O   0  0  0  0  0  0  0  0  0  0  0  0
   28.5632   -7.4747   -7.3770 N   0  0  0  0  0  0  0  0  0  0  0  0
   27.8144   -7.0432   -6.9054 H   0  0  0  0  0  0  0  0  0  0  0  0
   28.6225   -5.3816   -8.6911 C   0  0  0  0  0  0  0  0  0  0  0  0
   29.8228   -3.7179  -10.2472 C   0  0  0  0  0  0  0  0  0  0  0  0
   29.5689   -2.6795   -9.6923 O   0  0  0  0  0  0  0  0  0  0  0  0
   29.3835   -5.0475   -9.8110 N   0  0  0  0  0  0  0  0  0  0  0  0
   29.6612   -5.8002  -10.3815 H   0  0  0  0  0  0  0  0  0  0  0  0
   30.5845   -3.7425  -11.3974 C   0  0  0  0  0  0  0  0  0  0  0  0
   27.3270   -4.1410  -14.5231 C   0  0  0  0  0  0  0  0  0  0  0  0
   27.7202   -2.7731  -13.8719 C   0  0  0  0  0  0  0  0  0  0  0  0
   28.7616   -2.6880  -12.8707 C   0  0  0  0  0  0  0  0  0  0  0  0
   29.5021   -3.9568  -12.4410 C   0  0  0  0  0  0  0  0  0  0  0  0
   29.1437   -5.3840  -13.0505 C   0  0  0  0  0  0  0  0  0  0  0  0
   28.0544   -5.4119  -14.0790 C   0  0  0  0  0  0  0  0  0  0  0  0
   23.7895   -4.2407  -17.3646 C   0  0  0  0  0  0  0  0  0  0  0  0
   26.4760   -3.9271  -17.0688 C   0  0  0  0  0  0  0  0  0  0  0  0
   26.2507   -4.1609  -15.5490 C   0  0  0  0  0  0  0  0  0  0  0  0
   25.1916   -3.9870  -17.9168 C   0  0  0  0  0  0  0  0  0  0  0  0
   24.7569   -4.4338  -14.9422 C   0  0  0  0  0  0  0  0  0  0  0  0
   23.5975   -4.4736  -15.8412 C   0  0  0  0  0  0  0  0  0  0  0  0
   27.2111   -5.4970   -9.1139 C   0  0  0  0  0  0  0  0  0  0  0  0
   26.4394   -4.5735  -10.0689 C   0  0  0  0  0  0  0  0  0  0  0  0
   25.7879   -4.8624  -11.1463 C   0  0  0  0  0  0  0  0  0  0  0  0
   24.6325   -5.8750  -11.2749 C   0  0  0  0  0  0  0  0  0  0  0  0
   25.4507   -7.6344  -12.7047 C   0  0  0  0  0  0  0  0  0  0  0  0
   24.5010   -6.7677  -12.5473 N   0  0  0  0  0  0  0  0  0  0  0  0
   26.3232   -7.8016  -12.0403 O   0  0  0  0  0  0  0  0  0  0  0  0
   23.7536   -6.6791  -13.1820 H   0  0  0  0  0  0  0  0  0  0  0  0
   25.4997   -8.5334  -13.7709 C   0  0  0  0  0  0  0  0  0  0  0  0
   25.1627   -8.2807  -15.0387 C   0  0  0  0  0  0  0  0  0  0  0  0
   26.1913   -7.8791  -16.0747 C   0  0  0  0  0  0  0  0  0  0  0  0
   23.6989   -8.3469  -15.4879 C   0  0  0  0  0  0  0  0  0  0  0  0
   25.8844   -7.5834  -17.4944 C   0  0  0  0  0  0  0  0  0  0  0  0
   23.3536   -8.0419  -16.9279 C   0  0  0  0  0  0  0  0  0  0  0  0
   24.4627   -7.6220  -17.9831 C   0  0  0  0  0  0  0  0  0  0  0  0
   24.2137   -7.3320  -19.3654 C   0  0  0  0  0  0  0  0  0  0  0  0
   22.7949   -7.5138  -19.9955 C   0  0  0  0  0  0  0  0  0  0  0  0
   25.3139   -6.8662  -20.3372 C   0  0  0  0  0  0  0  0  0  0  0  0
   22.5351   -7.2200  -21.4721 C   0  0  0  0  0  0  0  0  0  0  0  0
   25.0331   -6.5918  -21.7697 C   0  0  0  0  0  0  0  0  0  0  0  0
   23.6671   -6.7629  -22.3247 C   0  0  0  0  0  0  0  0  0  0  0  0
   28.9694   -8.7719   -6.9616 C   0  0  0  0  0  0  0  0  0  0  0  0
   28.6448   -9.0884   -5.5904 C   0  0  0  0  0  0  0  0  0  0  0  0
   29.4189   -8.6842   -4.6786 O   0  0  0  0  0  0  0  0  0  0  0  0
   27.5488   -9.8173   -5.4227 N   0  0  0  0  0  0  0  0  0  0  0  0
   27.0302  -10.0562   -6.2247 H   0  0  0  0  0  0  0  0  0  0  0  0
   27.0700  -10.2788   -4.1604 C   0  0  0  0  0  0  0  0  0  0  0  0
   27.8617  -11.6241   -3.9696 C   0  0  0  0  0  0  0  0  0  0  0  0
   28.7944  -11.7005   -3.1886 O   0  0  0  0  0  0  0  0  0  0  0  0
   27.3810  -12.7336   -4.8180 N   0  0  0  0  0  0  0  0  0  0  0  0
   26.6212  -12.6147   -5.4327 H   0  0  0  0  0  0  0  0  0  0  0  0
   28.1133  -14.0832   -4.7046 C   0  0  0  0  0  0  0  0  0  0  0  0
   29.1178  -14.0954   -5.7517 C   0  0  0  0  0  0  0  0  0  0  0  0
   30.4989  -14.3960   -5.5424 C   0  0  0  0  0  0  0  0  0  0  0  0
   31.4422  -15.0478   -6.6928 C   0  0  0  0  0  0  0  0  0  0  0  0
   32.9115  -15.3132   -6.3143 C   0  0  0  0  0  0  0  0  0  0  0  0
   33.4057  -14.9655   -4.9292 C   0  0  0  0  0  0  0  0  0  0  0  0
   32.4956  -14.3586   -3.8881 C   0  0  0  0  0  0  0  0  0  0  0  0
   31.0437  -14.0684   -4.1745 C   0  0  0  0  0  0  0  0  0  0  0  0
   25.5355  -10.5870   -4.1289 C   0  0  0  0  0  0  0  0  0  0  0  0
   25.0109  -10.2210   -2.6905 C   0  0  0  0  0  0  0  0  0  0  0  0
   25.6776   -9.1144   -1.8883 C   0  0  0  0  0  0  0  0  0  0  0  0
   23.7789  -11.0351   -2.0599 C   0  0  0  0  0  0  0  0  0  0  0  0
   25.1693   -8.7971   -0.5010 C   0  0  0  0  0  0  0  0  0  0  0  0
   23.3084  -10.6959   -0.6991 C   0  0  0  0  0  0  0  0  0  0  0  0
   23.9788   -9.6031    0.0846 C   0  0  0  0  0  0  0  0  0  0  0  0
   23.5412   -9.3315    1.2912 O   0  0  0  0  0  0  0  0  0  0  0  0
   23.9467   -8.6534    1.7950 H   0  0  0  0  0  0  0  0  0  0  0  0
   28.1694   -9.9598   -7.7956 C   0  0  0  0  0  0  0  0  0  0  0  0
   28.8940  -10.8976   -8.8748 C   0  0  0  0  0  0  0  0  0  0  0  0
   30.0766  -11.7403   -8.3189 C   0  0  0  0  0  0  0  0  0  0  0  0
   31.4713  -11.4643   -8.7451 N   0  0  0  0  0  0  0  0  0  0  0  0
   32.1038  -12.2163   -8.8053 H   0  0  0  0  0  0  0  0  0  0  0  0
   31.9515  -10.1033   -9.0841 C   0  0  0  0  0  0  0  0  0  0  0  0
   32.4342   -9.2127   -8.1488 N   0  0  0  0  0  0  0  0  0  0  0  0
   31.9620   -9.6014  -10.3715 N   0  0  0  0  0  0  0  0  0  0  0  0
   32.4712   -9.4684   -7.1988 H   0  0  0  0  0  0  0  0  0  0  0  0
   31.6381  -10.1550  -11.1183 H   0  0  0  0  0  0  0  0  0  0  0  0
   32.2934   -8.6901  -10.5418 H   0  0  0  0  0  0  0  0  0  0  0  0
 10  6  1  0  0  0
 10 14  1  0  0  0
  6  7  2  0  0  0
  6  8  1  0  0  0
 11 12  2  0  0  0
 11 16  1  0  0  0
 11 19  1  0  0  0
 12 13  1  0  0  0
 13 14  2  0  0  0
 14 15  1  0  0  0
 15 16  2  0  0  0
 17 20  2  0  0  0
 17 22  1  0  0  0
 18 19  2  0  0  0
 18 20  1  0  0  0
 19 21  1  0  0  0
 21 22  2  0  0  0
  8  5  1  0  0  0
  5  1  1  0  0  0
  5 23  1  0  0  0
  1  2  2  0  0  0
  1  3  1  0  0  0
 23 24  1  0  0  0
 31 32  1  0  0  0
 31 27  1  0  0  0
 32 33  2  0  0  0
 32 34  1  0  0  0
 33 35  1  0  0  0
 34 36  2  0  0  0
 35 37  2  0  0  0
 36 37  1  0  0  0
 37 38  1  0  0  0
  3 44  1  0  0  0
 44 71  1  0  0  0
 44 45  1  0  0  0
 71 72  1  0  0  0
 72 73  1  0  0  0
 73 74  1  0  0  0
 74 76  1  0  0  0
 76 77  2  0  0  0
 76 78  1  0  0  0
 45 46  2  0  0  0
 45 47  1  0  0  0
 47 49  1  0  0  0
 49 50  1  0  0  0
 49 62  1  0  0  0
 50 51  2  0  0  0
 50 52  1  0  0  0
 62 63  1  0  0  0
 63 64  2  0  0  0
 63 65  1  0  0  0
 64 66  1  0  0  0
 65 67  2  0  0  0
 66 68  2  0  0  0
 67 68  1  0  0  0
 68 69  1  0  0  0
 56 57  2  0  0  0
 56 61  1  0  0  0
 56 55  1  0  0  0
 57 58  1  0  0  0
 58 59  2  0  0  0
 59 60  1  0  0  0
 60 61  2  0  0  0
 55 54  1  0  0  0
 54 52  1  0  0  0
 38 39  2  0  0  0
 38 40  1  0  0  0
 39 41  1  0  0  0
 40 42  2  0  0  0
 41 43  2  0  0  0
 42 43  1  0  0  0
 27 28  1  0  0  0
 27 29  2  0  0  0
 24 25  1  0  0  0
 25 26  1  0  0  0
 26 28  1  0  0  0
  8  9  1  0  0  0
  3  4  1  0  0  0
 74 75  1  0  0  0
 77 79  1  0  0  0
 78 80  1  0  0  0
 78 81  1  0  0  0
 47 48  1  0  0  0
 69 70  1  0  0  0
 52 53  1  0  0  0
 28 30  1  0  0  0
M  END
> <minimizedAffinity>
-7.77019

$$$$
3H89_NSX_A_400


 81 86  0  0  0  0  0  0  0  0999 V2000
   27.1613  -10.8635   -6.4163 C   0  0  0  0  0  0  0  0  0  0  0  0
   26.1905  -11.7589   -6.3673 O   0  0  0  0  0  0  0  0  0  0  0  0
   27.5935  -10.1536   -7.6467 N   0  0  0  0  0  0  0  0  0  0  0  0
   28.3267   -9.5002   -7.5792 H   0  0  0  0  0  0  0  0  0  0  0  0
   27.9263  -10.4127   -5.2108 C   0  0  0  0  0  0  0  0  0  0  0  0
   27.1069   -8.4914   -3.7050 C   0  0  0  0  0  0  0  0  0  0  0  0
   28.0976   -8.2911   -3.0500 O   0  0  0  0  0  0  0  0  0  0  0  0
   26.9688   -9.5080   -4.7532 N   0  0  0  0  0  0  0  0  0  0  0  0
   26.0876   -9.5581   -5.1893 H   0  0  0  0  0  0  0  0  0  0  0  0
   25.9630   -7.7445   -3.5119 C   0  0  0  0  0  0  0  0  0  0  0  0
   23.6444  -10.4759   -0.7363 C   0  0  0  0  0  0  0  0  0  0  0  0
   23.3980  -10.4228   -2.2811 C   0  0  0  0  0  0  0  0  0  0  0  0
   24.1542   -9.5309   -3.1336 C   0  0  0  0  0  0  0  0  0  0  0  0
   25.2232   -8.6239   -2.5190 C   0  0  0  0  0  0  0  0  0  0  0  0
   25.5162   -8.6150   -0.9534 C   0  0  0  0  0  0  0  0  0  0  0  0
   24.6996   -9.5550   -0.1200 C   0  0  0  0  0  0  0  0  0  0  0  0
   21.0054  -13.4582    1.4409 C   0  0  0  0  0  0  0  0  0  0  0  0
   23.0388  -11.6578    1.6061 C   0  0  0  0  0  0  0  0  0  0  0  0
   22.8364  -11.4168    0.0842 C   0  0  0  0  0  0  0  0  0  0  0  0
   22.0776  -12.6946    2.2172 C   0  0  0  0  0  0  0  0  0  0  0  0
   21.6937  -12.2255   -0.7609 C   0  0  0  0  0  0  0  0  0  0  0  0
   20.8261  -13.1928   -0.0787 C   0  0  0  0  0  0  0  0  0  0  0  0
   28.0261  -11.5111   -4.2270 C   0  0  0  0  0  0  0  0  0  0  0  0
   27.1502  -11.7414   -2.9860 C   0  0  0  0  0  0  0  0  0  0  0  0
   26.1779  -12.5729   -2.8075 C   0  0  0  0  0  0  0  0  0  0  0  0
   25.9743  -13.9154   -3.5377 C   0  0  0  0  0  0  0  0  0  0  0  0
   25.0163  -15.1166   -5.3947 C   0  0  0  0  0  0  0  0  0  0  0  0
   24.9145  -14.0445   -4.6750 N   0  0  0  0  0  0  0  0  0  0  0  0
   25.7611  -15.9313   -5.2832 O   0  0  0  0  0  0  0  0  0  0  0  0
   24.2215  -13.3634   -4.8336 H   0  0  0  0  0  0  0  0  0  0  0  0
   24.1506  -15.4195   -6.4464 C   0  0  0  0  0  0  0  0  0  0  0  0
   23.9655  -14.6979   -7.5554 C   0  0  0  0  0  0  0  0  0  0  0  0
   25.0742  -14.4827   -8.5638 C   0  0  0  0  0  0  0  0  0  0  0  0
   22.6203  -14.0169   -7.8309 C   0  0  0  0  0  0  0  0  0  0  0  0
   24.9358  -13.6930   -9.8106 C   0  0  0  0  0  0  0  0  0  0  0  0
   22.4516  -13.1974   -9.0901 C   0  0  0  0  0  0  0  0  0  0  0  0
   23.6409  -12.9945  -10.1217 C   0  0  0  0  0  0  0  0  0  0  0  0
   23.5520  -12.2445  -11.3409 C   0  0  0  0  0  0  0  0  0  0  0  0
   24.8215  -11.6367  -12.0207 C   0  0  0  0  0  0  0  0  0  0  0  0
   22.2165  -11.9445  -12.0469 C   0  0  0  0  0  0  0  0  0  0  0  0
   24.7229  -10.8242  -13.3107 C   0  0  0  0  0  0  0  0  0  0  0  0
   22.1503  -11.1477  -13.2986 C   0  0  0  0  0  0  0  0  0  0  0  0
   23.3826  -10.6011  -13.9198 C   0  0  0  0  0  0  0  0  0  0  0  0
   26.9964  -10.3748   -8.9174 C   0  0  0  0  0  0  0  0  0  0  0  0
   27.2081   -9.3098   -9.8697 C   0  0  0  0  0  0  0  0  0  0  0  0
   27.9507   -9.5309  -10.8665 O   0  0  0  0  0  0  0  0  0  0  0  0
   26.6063   -8.1636   -9.5789 N   0  0  0  0  0  0  0  0  0  0  0  0
   26.0452   -8.1328   -8.7705 H   0  0  0  0  0  0  0  0  0  0  0  0
   26.7163   -6.9725  -10.3568 C   0  0  0  0  0  0  0  0  0  0  0  0
   27.8171   -6.1616   -9.5799 C   0  0  0  0  0  0  0  0  0  0  0  0
   28.4955   -6.6894   -8.7156 O   0  0  0  0  0  0  0  0  0  0  0  0
   27.9224   -4.7449   -9.9846 N   0  0  0  0  0  0  0  0  0  0  0  0
   27.3471   -4.3712  -10.6907 H   0  0  0  0  0  0  0  0  0  0  0  0
   28.9661   -3.8750   -9.2605 C   0  0  0  0  0  0  0  0  0  0  0  0
   29.9362   -3.4761  -10.2631 C   0  0  0  0  0  0  0  0  0  0  0  0
   29.7582   -2.3872  -11.1709 C   0  0  0  0  0  0  0  0  0  0  0  0
   28.7947   -2.4771  -12.4755 C   0  0  0  0  0  0  0  0  0  0  0  0
   28.7066   -1.2180  -13.3583 C   0  0  0  0  0  0  0  0  0  0  0  0
   29.4945    0.0170  -12.9875 C   0  0  0  0  0  0  0  0  0  0  0  0
   30.3785    0.0599  -11.7639 C   0  0  0  0  0  0  0  0  0  0  0  0
   30.5237   -1.1285  -10.8469 C   0  0  0  0  0  0  0  0  0  0  0  0
   25.4055   -6.1186  -10.4131 C   0  0  0  0  0  0  0  0  0  0  0  0
   25.0975   -5.8278  -11.9292 C   0  0  0  0  0  0  0  0  0  0  0  0
   25.2536   -4.4225  -12.4890 C   0  0  0  0  0  0  0  0  0  0  0  0
   24.5959   -7.0178  -12.8836 C   0  0  0  0  0  0  0  0  0  0  0  0
   24.9304   -4.1649  -13.9426 C   0  0  0  0  0  0  0  0  0  0  0  0
   24.2896   -6.7278  -14.3014 C   0  0  0  0  0  0  0  0  0  0  0  0
   24.4440   -5.3339  -14.8408 C   0  0  0  0  0  0  0  0  0  0  0  0
   24.1580   -5.1091  -16.1013 O   0  0  0  0  0  0  0  0  0  0  0  0
   24.2481   -4.2464  -16.4555 H   0  0  0  0  0  0  0  0  0  0  0  0
   27.6688  -11.6771   -9.6910 C   0  0  0  0  0  0  0  0  0  0  0  0
   28.7552  -12.6298   -8.9971 C   0  0  0  0  0  0  0  0  0  0  0  0
   30.2180  -12.1062   -9.0591 C   0  0  0  0  0  0  0  0  0  0  0  0
   30.5594  -10.9013   -9.8557 N   0  0  0  0  0  0  0  0  0  0  0  0
   30.4793  -10.9454  -10.8359 H   0  0  0  0  0  0  0  0  0  0  0  0
   31.0161   -9.6339   -9.2367 C   0  0  0  0  0  0  0  0  0  0  0  0
   31.8349   -9.5811   -8.1286 N   0  0  0  0  0  0  0  0  0  0  0  0
   30.6648   -8.3862   -9.7152 N   0  0  0  0  0  0  0  0  0  0  0  0
   32.1456  -10.4142   -7.7060 H   0  0  0  0  0  0  0  0  0  0  0  0
   30.0817   -8.3081  -10.5046 H   0  0  0  0  0  0  0  0  0  0  0  0
   30.9975   -7.5754   -9.2668 H   0  0  0  0  0  0  0  0  0  0  0  0
 10  6  1  0  0  0
 10 14  1  0  0  0
  6  7  2  0  0  0
  6  8  1  0  0  0
 11 12  2  0  0  0
 11 16  1  0  0  0
 11 19  1  0  0  0
 12 13  1  0  0  0
 13 14  2  0  0  0
 14 15  1  0  0  0
 15 16  2  0  0  0
 17 20  2  0  0  0
 17 22  1  0  0  0
 18 19  2  0  0  0
 18 20  1  0  0  0
 19 21  1  0  0  0
 21 22  2  0  0  0
  8  5  1  0  0  0
  5  1  1  0  0  0
  5 23  1  0  0  0
  1  2  2  0  0  0
  1  3  1  0  0  0
 23 24  1  0  0  0
 31 32  1  0  0  0
 31 27  1  0  0  0
 32 33  2  0  0  0
 32 34  1  0  0  0
 33 35  1  0  0  0
 34 36  2  0  0  0
 35 37  2  0  0  0
 36 37  1  0  0  0
 37 38  1  0  0  0
  3 44  1  0  0  0
 44 71  1  0  0  0
 44 45  1  0  0  0
 71 72  1  0  0  0
 72 73  1  0  0  0
 73 74  1  0  0  0
 74 76  1  0  0  0
 76 77  2  0  0  0
 76 78  1  0  0  0
 45 46  2  0  0  0
 45 47  1  0  0  0
 47 49  1  0  0  0
 49 50  1  0  0  0
 49 62  1  0  0  0
 50 51  2  0  0  0
 50 52  1  0  0  0
 62 63  1  0  0  0
 63 64  2  0  0  0
 63 65  1  0  0  0
 64 66  1  0  0  0
 65 67  2  0  0  0
 66 68  2  0  0  0
 67 68  1  0  0  0
 68 69  1  0  0  0
 56 57  2  0  0  0
 56 61  1  0  0  0
 56 55  1  0  0  0
 57 58  1  0  0  0
 58 59  2  0  0  0
 59 60  1  0  0  0
 60 61  2  0  0  0
 55 54  1  0  0  0
 54 52  1  0  0  0
 38 39  2  0  0  0
 38 40  1  0  0  0
 39 41  1  0  0  0
 40 42  2  0  0  0
 41 43  2  0  0  0
 42 43  1  0  0  0
 27 28  1  0  0  0
 27 29  2  0  0  0
 24 25  1  0  0  0
 25 26  1  0  0  0
 26 28  1  0  0  0
  8  9  1  0  0  0
  3  4  1  0  0  0
 74 75  1  0  0  0
 77 79  1  0  0  0
 78 80  1  0  0  0
 78 81  1  0  0  0
 47 48  1  0  0  0
 69 70  1  0  0  0
 52 53  1  0  0  0
 28 30  1  0  0  0
M  END
> <minimizedAffinity>
-7.68016

$$$$
3H89_NSX_A_400


 81 86  0  0  0  0  0  0  0  0999 V2000
   29.2408   -7.9151   -7.4738 C   0  0  0  0  0  0  0  0  0  0  0  0
   30.5530   -8.0319   -7.5782 O   0  0  0  0  0  0  0  0  0  0  0  0
   28.4039   -8.6476   -6.4902 N   0  0  0  0  0  0  0  0  0  0  0  0
   27.4322   -8.4894   -6.4898 H   0  0  0  0  0  0  0  0  0  0  0  0
   28.4284   -6.9807   -8.3156 C   0  0  0  0  0  0  0  0  0  0  0  0
   29.8529   -4.9594   -9.0334 C   0  0  0  0  0  0  0  0  0  0  0  0
   29.2228   -4.0618   -8.5355 O   0  0  0  0  0  0  0  0  0  0  0  0
   29.5085   -6.3834   -8.9648 N   0  0  0  0  0  0  0  0  0  0  0  0
   30.1177   -6.9958   -9.4372 H   0  0  0  0  0  0  0  0  0  0  0  0
   31.0072   -4.7086   -9.7464 C   0  0  0  0  0  0  0  0  0  0  0  0
   29.5530   -1.8660  -12.9628 C   0  0  0  0  0  0  0  0  0  0  0  0
   30.6452   -1.4762  -11.9115 C   0  0  0  0  0  0  0  0  0  0  0  0
   31.0779   -2.4100  -10.8943 C   0  0  0  0  0  0  0  0  0  0  0  0
   30.4640   -3.8114  -10.8448 C   0  0  0  0  0  0  0  0  0  0  0  0
   29.3377   -4.2702  -11.8733 C   0  0  0  0  0  0  0  0  0  0  0  0
   28.9259   -3.2603  -12.9007 C   0  0  0  0  0  0  0  0  0  0  0  0
   28.2863    1.4485  -15.7926 C   0  0  0  0  0  0  0  0  0  0  0  0
   29.2101   -1.0963  -15.5202 C   0  0  0  0  0  0  0  0  0  0  0  0
   29.1545   -0.8621  -13.9849 C   0  0  0  0  0  0  0  0  0  0  0  0
   28.7537    0.1098  -16.3625 C   0  0  0  0  0  0  0  0  0  0  0  0
   28.6567    0.5644  -13.3590 C   0  0  0  0  0  0  0  0  0  0  0  0
   28.2393    1.6504  -14.2536 C   0  0  0  0  0  0  0  0  0  0  0  0
   27.6526   -7.7387   -9.3195 C   0  0  0  0  0  0  0  0  0  0  0  0
   26.6477   -7.1855  -10.3416 C   0  0  0  0  0  0  0  0  0  0  0  0
   25.8138   -6.2054  -10.2288 C   0  0  0  0  0  0  0  0  0  0  0  0
   24.6855   -5.8440  -11.2153 C   0  0  0  0  0  0  0  0  0  0  0  0
   25.3479   -4.8065  -13.2876 C   0  0  0  0  0  0  0  0  0  0  0  0
   24.8078   -4.5870  -12.1309 N   0  0  0  0  0  0  0  0  0  0  0  0
   25.7196   -5.7747  -13.6815 O   0  0  0  0  0  0  0  0  0  0  0  0
   24.4981   -3.6953  -11.8511 H   0  0  0  0  0  0  0  0  0  0  0  0
   25.5273   -3.8133  -14.2513 C   0  0  0  0  0  0  0  0  0  0  0  0
   25.3356   -3.9401  -15.5673 C   0  0  0  0  0  0  0  0  0  0  0  0
   26.4877   -3.9141  -16.5495 C   0  0  0  0  0  0  0  0  0  0  0  0
   23.9217   -4.0755  -16.1431 C   0  0  0  0  0  0  0  0  0  0  0  0
   26.3438   -4.0471  -18.0187 C   0  0  0  0  0  0  0  0  0  0  0  0
   23.7425   -4.2041  -17.6388 C   0  0  0  0  0  0  0  0  0  0  0  0
   24.9777   -4.1699  -18.6352 C   0  0  0  0  0  0  0  0  0  0  0  0
   24.8871   -4.2995  -20.0607 C   0  0  0  0  0  0  0  0  0  0  0  0
   25.9190   -5.1492  -20.8709 C   0  0  0  0  0  0  0  0  0  0  0  0
   23.8095   -3.5901  -20.9017 C   0  0  0  0  0  0  0  0  0  0  0  0
   25.8306   -5.2728  -22.3911 C   0  0  0  0  0  0  0  0  0  0  0  0
   23.7502   -3.7252  -22.3797 C   0  0  0  0  0  0  0  0  0  0  0  0
   24.7417   -4.5548  -23.1092 C   0  0  0  0  0  0  0  0  0  0  0  0
   28.9421   -9.5669   -5.5493 C   0  0  0  0  0  0  0  0  0  0  0  0
   27.9847  -10.0710   -4.5927 C   0  0  0  0  0  0  0  0  0  0  0  0
   28.4137  -10.5638   -3.5124 O   0  0  0  0  0  0  0  0  0  0  0  0
   26.7144   -9.9893   -4.9675 N   0  0  0  0  0  0  0  0  0  0  0  0
   26.5192   -9.5704   -5.8368 H   0  0  0  0  0  0  0  0  0  0  0  0
   25.6120  -10.4667   -4.1977 C   0  0  0  0  0  0  0  0  0  0  0  0
   25.4523   -9.3469   -3.1052 C   0  0  0  0  0  0  0  0  0  0  0  0
   25.1079   -8.2173   -3.4070 O   0  0  0  0  0  0  0  0  0  0  0  0
   25.7684   -9.7923   -1.7328 N   0  0  0  0  0  0  0  0  0  0  0  0
   26.0424  -10.7195   -1.5468 H   0  0  0  0  0  0  0  0  0  0  0  0
   25.6531   -8.7516   -0.6040 C   0  0  0  0  0  0  0  0  0  0  0  0
   24.3309   -8.9136   -0.0286 C   0  0  0  0  0  0  0  0  0  0  0  0
   24.0473   -9.6870    1.1388 C   0  0  0  0  0  0  0  0  0  0  0  0
   23.1764  -11.0574    1.0971 C   0  0  0  0  0  0  0  0  0  0  0  0
   22.9570  -11.7787    2.4403 C   0  0  0  0  0  0  0  0  0  0  0  0
   23.5443  -11.2027    3.7078 C   0  0  0  0  0  0  0  0  0  0  0  0
   24.3503   -9.9255    3.7033 C   0  0  0  0  0  0  0  0  0  0  0  0
   24.6108   -9.1554    2.4332 C   0  0  0  0  0  0  0  0  0  0  0  0
   25.8716  -11.8355   -3.4839 C   0  0  0  0  0  0  0  0  0  0  0  0
   24.5349  -12.6640   -3.5533 C   0  0  0  0  0  0  0  0  0  0  0  0
   24.3245  -13.6916   -4.6544 C   0  0  0  0  0  0  0  0  0  0  0  0
   23.3800  -12.4070   -2.4677 C   0  0  0  0  0  0  0  0  0  0  0  0
   23.0235  -14.4582   -4.7122 C   0  0  0  0  0  0  0  0  0  0  0  0
   22.1200  -13.1769   -2.5559 C   0  0  0  0  0  0  0  0  0  0  0  0
   21.9232  -14.1862   -3.6515 C   0  0  0  0  0  0  0  0  0  0  0  0
   20.7914  -14.8477   -3.7050 O   0  0  0  0  0  0  0  0  0  0  0  0
   20.6505  -15.4811   -4.3809 H   0  0  0  0  0  0  0  0  0  0  0  0
   29.4699  -10.9556   -6.2838 C   0  0  0  0  0  0  0  0  0  0  0  0
   28.5088  -11.8875   -7.1654 C   0  0  0  0  0  0  0  0  0  0  0  0
   28.9737  -12.1018   -8.6336 C   0  0  0  0  0  0  0  0  0  0  0  0
   28.2740  -11.4297   -9.7568 N   0  0  0  0  0  0  0  0  0  0  0  0
   28.7910  -10.8335  -10.3455 H   0  0  0  0  0  0  0  0  0  0  0  0
   26.8290  -11.6187  -10.0291 C   0  0  0  0  0  0  0  0  0  0  0  0
   26.1093  -12.7098   -9.5904 N   0  0  0  0  0  0  0  0  0  0  0  0
   26.0680  -10.7161  -10.7470 N   0  0  0  0  0  0  0  0  0  0  0  0
   26.5546  -13.4156   -9.0682 H   0  0  0  0  0  0  0  0  0  0  0  0
   26.4830   -9.8995  -11.1077 H   0  0  0  0  0  0  0  0  0  0  0  0
   25.1107  -10.8896  -10.8978 H   0  0  0  0  0  0  0  0  0  0  0  0
 10  6  1  0  0  0
 10 14  1  0  0  0
  6  7  2  0  0  0
  6  8  1  0  0  0
 11 12  2  0  0  0
 11 16  1  0  0  0
 11 19  1  0  0  0
 12 13  1  0  0  0
 13 14  2  0  0  0
 14 15  1  0  0  0
 15 16  2  0  0  0
 17 20  2  0  0  0
 17 22  1  0  0  0
 18 19  2  0  0  0
 18 20  1  0  0  0
 19 21  1  0  0  0
 21 22  2  0  0  0
  8  5  1  0  0  0
  5  1  1  0  0  0
  5 23  1  0  0  0
  1  2  2  0  0  0
  1  3  1  0  0  0
 23 24  1  0  0  0
 31 32  1  0  0  0
 31 27  1  0  0  0
 32 33  2  0  0  0
 32 34  1  0  0  0
 33 35  1  0  0  0
 34 36  2  0  0  0
 35 37  2  0  0  0
 36 37  1  0  0  0
 37 38  1  0  0  0
  3 44  1  0  0  0
 44 71  1  0  0  0
 44 45  1  0  0  0
 71 72  1  0  0  0
 72 73  1  0  0  0
 73 74  1  0  0  0
 74 76  1  0  0  0
 76 77  2  0  0  0
 76 78  1  0  0  0
 45 46  2  0  0  0
 45 47  1  0  0  0
 47 49  1  0  0  0
 49 50  1  0  0  0
 49 62  1  0  0  0
 50 51  2  0  0  0
 50 52  1  0  0  0
 62 63  1  0  0  0
 63 64  2  0  0  0
 63 65  1  0  0  0
 64 66  1  0  0  0
 65 67  2  0  0  0
 66 68  2  0  0  0
 67 68  1  0  0  0
 68 69  1  0  0  0
 56 57  2  0  0  0
 56 61  1  0  0  0
 56 55  1  0  0  0
 57 58  1  0  0  0
 58 59  2  0  0  0
 59 60  1  0  0  0
 60 61  2  0  0  0
 55 54  1  0  0  0
 54 52  1  0  0  0
 38 39  2  0  0  0
 38 40  1  0  0  0
 39 41  1  0  0  0
 40 42  2  0  0  0
 41 43  2  0  0  0
 42 43  1  0  0  0
 27 28  1  0  0  0
 27 29  2  0  0  0
 24 25  1  0  0  0
 25 26  1  0  0  0
 26 28  1  0  0  0
  8  9  1  0  0  0
  3  4  1  0  0  0
 74 75  1  0  0  0
 77 79  1  0  0  0
 78 80  1  0  0  0
 78 81  1  0  0  0
 47 48  1  0  0  0
 69 70  1  0  0  0
 52 53  1  0  0  0
 28 30  1  0  0  0
M  END
> <minimizedAffinity>
-7.67942

$$$$
3H89_NSX_A_400


 81 86  0  0  0  0  0  0  0  0999 V2000
   30.2606   -7.3839  -10.8305 C   0  0  0  0  0  0  0  0  0  0  0  0
   29.3562   -7.6011  -11.7694 O   0  0  0  0  0  0  0  0  0  0  0  0
   31.5547   -6.6898  -11.0495 N   0  0  0  0  0  0  0  0  0  0  0  0
   32.1616   -6.5741  -10.2830 H   0  0  0  0  0  0  0  0  0  0  0  0
   30.0695   -7.7752   -9.3980 C   0  0  0  0  0  0  0  0  0  0  0  0
   29.4347   -5.3539   -8.7942 C   0  0  0  0  0  0  0  0  0  0  0  0
   30.5255   -4.8439   -8.7660 O   0  0  0  0  0  0  0  0  0  0  0  0
   29.1605   -6.7651   -9.0848 N   0  0  0  0  0  0  0  0  0  0  0  0
   28.2137   -7.0335   -9.0550 H   0  0  0  0  0  0  0  0  0  0  0  0
   28.2971   -4.6155   -8.5408 C   0  0  0  0  0  0  0  0  0  0  0  0
   26.0280   -4.9383  -12.4506 C   0  0  0  0  0  0  0  0  0  0  0  0
   25.4115   -5.3479  -11.0714 C   0  0  0  0  0  0  0  0  0  0  0  0
   26.1714   -5.2372   -9.8449 C   0  0  0  0  0  0  0  0  0  0  0  0
   27.6050   -4.7026   -9.8898 C   0  0  0  0  0  0  0  0  0  0  0  0
   28.3004   -4.2817  -11.2596 C   0  0  0  0  0  0  0  0  0  0  0  0
   27.4677   -4.4223  -12.4973 C   0  0  0  0  0  0  0  0  0  0  0  0
   23.4167   -5.7140  -16.0808 C   0  0  0  0  0  0  0  0  0  0  0  0
   24.8502   -3.9046  -14.6403 C   0  0  0  0  0  0  0  0  0  0  0  0
   25.1937   -5.0725  -13.6743 C   0  0  0  0  0  0  0  0  0  0  0  0
   23.9565   -4.3068  -15.8286 C   0  0  0  0  0  0  0  0  0  0  0  0
   24.6243   -6.5840  -13.9300 C   0  0  0  0  0  0  0  0  0  0  0  0
   23.7804   -6.8605  -15.0984 C   0  0  0  0  0  0  0  0  0  0  0  0
   29.3634   -9.0705   -9.3104 C   0  0  0  0  0  0  0  0  0  0  0  0
   27.8662   -9.3077   -9.0608 C   0  0  0  0  0  0  0  0  0  0  0  0
   26.8740   -9.2454   -9.8858 C   0  0  0  0  0  0  0  0  0  0  0  0
   26.7060  -10.0649  -11.1808 C   0  0  0  0  0  0  0  0  0  0  0  0
   27.0041   -9.6524  -13.5367 C   0  0  0  0  0  0  0  0  0  0  0  0
   27.6277   -9.7983  -12.4108 N   0  0  0  0  0  0  0  0  0  0  0  0
   25.9088   -9.6945  -13.7073 O   0  0  0  0  0  0  0  0  0  0  0  0
   28.6080   -9.7451  -12.3369 H   0  0  0  0  0  0  0  0  0  0  0  0
   27.6525   -9.3899  -14.7442 C   0  0  0  0  0  0  0  0  0  0  0  0
   27.4767   -8.3189  -15.5233 C   0  0  0  0  0  0  0  0  0  0  0  0
   26.7000   -8.3929  -16.8209 C   0  0  0  0  0  0  0  0  0  0  0  0
   28.0983   -6.9686  -15.1500 C   0  0  0  0  0  0  0  0  0  0  0  0
   26.4704   -7.2452  -17.7305 C   0  0  0  0  0  0  0  0  0  0  0  0
   27.8888   -5.7816  -16.0627 C   0  0  0  0  0  0  0  0  0  0  0  0
   27.0690   -5.9019  -17.4167 C   0  0  0  0  0  0  0  0  0  0  0  0
   26.8176   -4.8198  -18.3238 C   0  0  0  0  0  0  0  0  0  0  0  0
   25.4827   -4.7241  -19.1313 C   0  0  0  0  0  0  0  0  0  0  0  0
   27.8416   -3.7044  -18.6048 C   0  0  0  0  0  0  0  0  0  0  0  0
   25.2234   -3.5795  -20.1094 C   0  0  0  0  0  0  0  0  0  0  0  0
   27.5639   -2.6055  -19.5647 C   0  0  0  0  0  0  0  0  0  0  0  0
   26.2761   -2.5438  -20.3003 C   0  0  0  0  0  0  0  0  0  0  0  0
   31.9569   -6.1848  -12.3157 C   0  0  0  0  0  0  0  0  0  0  0  0
   32.7028   -4.9495  -12.2560 C   0  0  0  0  0  0  0  0  0  0  0  0
   33.6929   -4.8799  -11.4758 O   0  0  0  0  0  0  0  0  0  0  0  0
   32.2429   -3.9736  -13.0286 N   0  0  0  0  0  0  0  0  0  0  0  0
   31.4639   -4.1686  -13.5981 H   0  0  0  0  0  0  0  0  0  0  0  0
   32.7993   -2.6613  -13.0907 C   0  0  0  0  0  0  0  0  0  0  0  0
   31.8387   -1.8418  -12.1533 C   0  0  0  0  0  0  0  0  0  0  0  0
   31.1610   -2.3973  -11.3060 O   0  0  0  0  0  0  0  0  0  0  0  0
   31.8363   -0.3878  -12.4132 N   0  0  0  0  0  0  0  0  0  0  0  0
   32.4057    0.0072  -13.1125 H   0  0  0  0  0  0  0  0  0  0  0  0
   30.9095    0.4866  -11.5490 C   0  0  0  0  0  0  0  0  0  0  0  0
   29.7714    0.8280  -12.3819 C   0  0  0  0  0  0  0  0  0  0  0  0
   29.4373    0.1663  -13.6035 C   0  0  0  0  0  0  0  0  0  0  0  0
   28.6615   -1.2600  -13.6486 C   0  0  0  0  0  0  0  0  0  0  0  0
   28.3717   -1.8460  -15.0432 C   0  0  0  0  0  0  0  0  0  0  0  0
   28.8053   -1.0936  -16.2799 C   0  0  0  0  0  0  0  0  0  0  0  0
   29.5236    0.2321  -16.1944 C   0  0  0  0  0  0  0  0  0  0  0  0
   29.8484    0.8755  -14.8698 C   0  0  0  0  0  0  0  0  0  0  0  0
   32.7779   -2.0213  -14.5193 C   0  0  0  0  0  0  0  0  0  0  0  0
   32.7369   -3.1994  -15.5626 C   0  0  0  0  0  0  0  0  0  0  0  0
   33.9873   -4.0167  -15.8479 C   0  0  0  0  0  0  0  0  0  0  0  0
   31.3727   -3.5253  -16.3443 C   0  0  0  0  0  0  0  0  0  0  0  0
   33.9275   -5.1280  -16.8700 C   0  0  0  0  0  0  0  0  0  0  0  0
   31.3522   -4.6212  -17.3376 C   0  0  0  0  0  0  0  0  0  0  0  0
   32.5958   -5.4183  -17.6131 C   0  0  0  0  0  0  0  0  0  0  0  0
   32.5454   -6.3794  -18.5047 O   0  0  0  0  0  0  0  0  0  0  0  0
   33.3108   -6.8872  -18.6900 H   0  0  0  0  0  0  0  0  0  0  0  0
   33.0243   -7.2040  -13.0698 C   0  0  0  0  0  0  0  0  0  0  0  0
   32.6173   -8.6747  -13.5604 C   0  0  0  0  0  0  0  0  0  0  0  0
   33.2295   -9.8347  -12.7253 C   0  0  0  0  0  0  0  0  0  0  0  0
   32.9314   -9.9666  -11.2773 N   0  0  0  0  0  0  0  0  0  0  0  0
   32.0915  -10.4028  -11.0064 H   0  0  0  0  0  0  0  0  0  0  0  0
   33.8460   -9.4688  -10.2220 C   0  0  0  0  0  0  0  0  0  0  0  0
   33.6199   -8.3144   -9.5029 N   0  0  0  0  0  0  0  0  0  0  0  0
   35.0105  -10.1182   -9.8593 N   0  0  0  0  0  0  0  0  0  0  0  0
   32.8172   -7.7728   -9.6808 H   0  0  0  0  0  0  0  0  0  0  0  0
   35.2688  -10.9543  -10.3102 H   0  0  0  0  0  0  0  0  0  0  0  0
   35.5818   -9.7447   -9.1498 H   0  0  0  0  0  0  0  0  0  0  0  0
 10  6  1  0  0  0
 10 14  1  0  0  0
  6  7  2  0  0  0
  6  8  1  0  0  0
 11 12  2  0  0  0
 11 16  1  0  0  0
 11 19  1  0  0  0
 12 13  1  0  0  0
 13 14  2  0  0  0
 14 15  1  0  0  0
 15 16  2  0  0  0
 17 20  2  0  0  0
 17 22  1  0  0  0
 18 19  2  0  0  0
 18 20  1  0  0  0
 19 21  1  0  0  0
 21 22  2  0  0  0
  8  5  1  0  0  0
  5  1  1  0  0  0
  5 23  1  0  0  0
  1  2  2  0  0  0
  1  3  1  0  0  0
 23 24  1  0  0  0
 31 32  1  0  0  0
 31 27  1  0  0  0
 32 33  2  0  0  0
 32 34  1  0  0  0
 33 35  1  0  0  0
 34 36  2  0  0  0
 35 37  2  0  0  0
 36 37  1  0  0  0
 37 38  1  0  0  0
  3 44  1  0  0  0
 44 71  1  0  0  0
 44 45  1  0  0  0
 71 72  1  0  0  0
 72 73  1  0  0  0
 73 74  1  0  0  0
 74 76  1  0  0  0
 76 77  2  0  0  0
 76 78  1  0  0  0
 45 46  2  0  0  0
 45 47  1  0  0  0
 47 49  1  0  0  0
 49 50  1  0  0  0
 49 62  1  0  0  0
 50 51  2  0  0  0
 50 52  1  0  0  0
 62 63  1  0  0  0
 63 64  2  0  0  0
 63 65  1  0  0  0
 64 66  1  0  0  0
 65 67  2  0  0  0
 66 68  2  0  0  0
 67 68  1  0  0  0
 68 69  1  0  0  0
 56 57  2  0  0  0
 56 61  1  0  0  0
 56 55  1  0  0  0
 57 58  1  0  0  0
 58 59  2  0  0  0
 59 60  1  0  0  0
 60 61  2  0  0  0
 55 54  1  0  0  0
 54 52  1  0  0  0
 38 39  2  0  0  0
 38 40  1  0  0  0
 39 41  1  0  0  0
 40 42  2  0  0  0
 41 43  2  0  0  0
 42 43  1  0  0  0
 27 28  1  0  0  0
 27 29  2  0  0  0
 24 25  1  0  0  0
 25 26  1  0  0  0
 26 28  1  0  0  0
  8  9  1  0  0  0
  3  4  1  0  0  0
 74 75  1  0  0  0
 77 79  1  0  0  0
 78 80  1  0  0  0
 78 81  1  0  0  0
 47 48  1  0  0  0
 69 70  1  0  0  0
 52 53  1  0  0  0
 28 30  1  0  0  0
M  END
> <minimizedAffinity>
-7.64574

$$$$
3H89_NSX_A_400


 81 86  0  0  0  0  0  0  0  0999 V2000
   28.9240   -7.1882   -8.2430 C   0  0  0  0  0  0  0  0  0  0  0  0
   30.0727   -7.5080   -8.8127 O   0  0  0  0  0  0  0  0  0  0  0  0
   28.3404   -7.8866   -7.0700 N   0  0  0  0  0  0  0  0  0  0  0  0
   27.4780   -7.5701   -6.7158 H   0  0  0  0  0  0  0  0  0  0  0  0
   28.0783   -6.0352   -8.6871 C   0  0  0  0  0  0  0  0  0  0  0  0
   29.3672   -3.9865   -9.5654 C   0  0  0  0  0  0  0  0  0  0  0  0
   28.7870   -3.1017   -8.9898 O   0  0  0  0  0  0  0  0  0  0  0  0
   29.0595   -5.4167   -9.4613 N   0  0  0  0  0  0  0  0  0  0  0  0
   29.6169   -6.0168  -10.0078 H   0  0  0  0  0  0  0  0  0  0  0  0
   30.4204   -3.7129  -10.4137 C   0  0  0  0  0  0  0  0  0  0  0  0
   28.8947   -5.4389  -14.3166 C   0  0  0  0  0  0  0  0  0  0  0  0
   30.1067   -6.0448  -13.5331 C   0  0  0  0  0  0  0  0  0  0  0  0
   30.5692   -5.4599  -12.2930 C   0  0  0  0  0  0  0  0  0  0  0  0
   29.8583   -4.2280  -11.7271 C   0  0  0  0  0  0  0  0  0  0  0  0
   28.6285   -3.5504  -12.4791 C   0  0  0  0  0  0  0  0  0  0  0  0
   28.1967   -4.1959  -13.7605 C   0  0  0  0  0  0  0  0  0  0  0  0
   27.9071   -7.2816  -18.3450 C   0  0  0  0  0  0  0  0  0  0  0  0
   27.2248   -7.0136  -15.7246 C   0  0  0  0  0  0  0  0  0  0  0  0
   28.4659   -6.0889  -15.5835 C   0  0  0  0  0  0  0  0  0  0  0  0
   27.0075   -7.5709  -17.1440 C   0  0  0  0  0  0  0  0  0  0  0  0
   29.4385   -5.7693  -16.8587 C   0  0  0  0  0  0  0  0  0  0  0  0
   29.1384   -6.3511  -18.1722 C   0  0  0  0  0  0  0  0  0  0  0  0
   27.0080   -6.5036   -9.5923 C   0  0  0  0  0  0  0  0  0  0  0  0
   27.0619   -6.6293  -11.1225 C   0  0  0  0  0  0  0  0  0  0  0  0
   26.1649   -7.0625  -11.9451 C   0  0  0  0  0  0  0  0  0  0  0  0
   24.8153   -6.3901  -12.2667 C   0  0  0  0  0  0  0  0  0  0  0  0
   24.2969   -5.1885  -14.2907 C   0  0  0  0  0  0  0  0  0  0  0  0
   24.7676   -5.0661  -13.0902 N   0  0  0  0  0  0  0  0  0  0  0  0
   23.9318   -6.1165  -14.7768 O   0  0  0  0  0  0  0  0  0  0  0  0
   25.0718   -4.2037  -12.7254 H   0  0  0  0  0  0  0  0  0  0  0  0
   24.1586   -4.1165  -15.1734 C   0  0  0  0  0  0  0  0  0  0  0  0
   24.5705   -4.0757  -16.4436 C   0  0  0  0  0  0  0  0  0  0  0  0
   26.0259   -3.8684  -16.8061 C   0  0  0  0  0  0  0  0  0  0  0  0
   23.5674   -4.1960  -17.5962 C   0  0  0  0  0  0  0  0  0  0  0  0
   26.5476   -3.8112  -18.1924 C   0  0  0  0  0  0  0  0  0  0  0  0
   24.0686   -4.1325  -19.0211 C   0  0  0  0  0  0  0  0  0  0  0  0
   25.6039   -3.9115  -19.3588 C   0  0  0  0  0  0  0  0  0  0  0  0
   26.1541   -3.8545  -20.6820 C   0  0  0  0  0  0  0  0  0  0  0  0
   25.8424   -2.6641  -21.6458 C   0  0  0  0  0  0  0  0  0  0  0  0
   27.0479   -4.9632  -21.2683 C   0  0  0  0  0  0  0  0  0  0  0  0
   26.4163   -2.6131  -23.0608 C   0  0  0  0  0  0  0  0  0  0  0  0
   27.5887   -4.8890  -22.6497 C   0  0  0  0  0  0  0  0  0  0  0  0
   27.2803   -3.7324  -23.5275 C   0  0  0  0  0  0  0  0  0  0  0  0
   28.9703   -8.9913   -6.4353 C   0  0  0  0  0  0  0  0  0  0  0  0
   28.5161   -9.2440   -5.0878 C   0  0  0  0  0  0  0  0  0  0  0  0
   29.3140   -9.0318   -4.1327 O   0  0  0  0  0  0  0  0  0  0  0  0
   27.2794   -9.7142   -4.9870 N   0  0  0  0  0  0  0  0  0  0  0  0
   26.7615   -9.8231   -5.8171 H   0  0  0  0  0  0  0  0  0  0  0  0
   26.6485  -10.0729   -3.7585 C   0  0  0  0  0  0  0  0  0  0  0  0
   27.0495  -11.5853   -3.6013 C   0  0  0  0  0  0  0  0  0  0  0  0
   26.4182  -12.4655   -4.1602 O   0  0  0  0  0  0  0  0  0  0  0  0
   28.2166  -11.8131   -2.7251 N   0  0  0  0  0  0  0  0  0  0  0  0
   28.6895  -11.0623   -2.2984 H   0  0  0  0  0  0  0  0  0  0  0  0
   28.6657  -13.2691   -2.5043 C   0  0  0  0  0  0  0  0  0  0  0  0
   29.1636  -13.3442   -1.1434 C   0  0  0  0  0  0  0  0  0  0  0  0
   29.8427  -14.4744   -0.5931 C   0  0  0  0  0  0  0  0  0  0  0  0
   29.2099  -15.3929    0.5875 C   0  0  0  0  0  0  0  0  0  0  0  0
   30.0645  -16.5779    1.0754 C   0  0  0  0  0  0  0  0  0  0  0  0
   31.4180  -16.8348    0.4545 C   0  0  0  0  0  0  0  0  0  0  0  0
   31.9699  -15.9569   -0.6435 C   0  0  0  0  0  0  0  0  0  0  0  0
   31.2002  -14.7754   -1.1781 C   0  0  0  0  0  0  0  0  0  0  0  0
   25.0870   -9.9643   -3.7826 C   0  0  0  0  0  0  0  0  0  0  0  0
   24.5914   -9.9682   -2.2885 C   0  0  0  0  0  0  0  0  0  0  0  0
   23.4489  -10.8759   -1.8604 C   0  0  0  0  0  0  0  0  0  0  0  0
   25.2828   -8.9930   -1.2164 C   0  0  0  0  0  0  0  0  0  0  0  0
   22.9771  -10.8449   -0.4252 C   0  0  0  0  0  0  0  0  0  0  0  0
   24.7945   -8.9905    0.1799 C   0  0  0  0  0  0  0  0  0  0  0  0
   23.6618   -9.8893    0.5886 C   0  0  0  0  0  0  0  0  0  0  0  0
   23.2485   -9.8582    1.8334 O   0  0  0  0  0  0  0  0  0  0  0  0
   22.5434  -10.4115    2.1069 H   0  0  0  0  0  0  0  0  0  0  0  0
   28.6166  -10.4190   -7.1992 C   0  0  0  0  0  0  0  0  0  0  0  0
   29.7309  -11.3072   -7.9331 C   0  0  0  0  0  0  0  0  0  0  0  0
   29.8669  -11.0530   -9.4610 C   0  0  0  0  0  0  0  0  0  0  0  0
   31.0253  -10.3013  -10.0050 N   0  0  0  0  0  0  0  0  0  0  0  0
   30.9249   -9.8404  -10.8692 H   0  0  0  0  0  0  0  0  0  0  0  0
   32.3273  -10.2156   -9.3013 C   0  0  0  0  0  0  0  0  0  0  0  0
   33.2417  -11.2469   -9.2663 N   0  0  0  0  0  0  0  0  0  0  0  0
   32.7466   -9.0913   -8.6161 N   0  0  0  0  0  0  0  0  0  0  0  0
   33.0436  -12.0961   -9.7232 H   0  0  0  0  0  0  0  0  0  0  0  0
   32.1694   -8.2948   -8.5772 H   0  0  0  0  0  0  0  0  0  0  0  0
   33.6226   -9.0869   -8.1668 H   0  0  0  0  0  0  0  0  0  0  0  0
 10  6  1  0  0  0
 10 14  1  0  0  0
  6  7  2  0  0  0
  6  8  1  0  0  0
 11 12  2  0  0  0
 11 16  1  0  0  0
 11 19  1  0  0  0
 12 13  1  0  0  0
 13 14  2  0  0  0
 14 15  1  0  0  0
 15 16  2  0  0  0
 17 20  2  0  0  0
 17 22  1  0  0  0
 18 19  2  0  0  0
 18 20  1  0  0  0
 19 21  1  0  0  0
 21 22  2  0  0  0
  8  5  1  0  0  0
  5  1  1  0  0  0
  5 23  1  0  0  0
  1  2  2  0  0  0
  1  3  1  0  0  0
 23 24  1  0  0  0
 31 32  1  0  0  0
 31 27  1  0  0  0
 32 33  2  0  0  0
 32 34  1  0  0  0
 33 35  1  0  0  0
 34 36  2  0  0  0
 35 37  2  0  0  0
 36 37  1  0  0  0
 37 38  1  0  0  0
  3 44  1  0  0  0
 44 71  1  0  0  0
 44 45  1  0  0  0
 71 72  1  0  0  0
 72 73  1  0  0  0
 73 74  1  0  0  0
 74 76  1  0  0  0
 76 77  2  0  0  0
 76 78  1  0  0  0
 45 46  2  0  0  0
 45 47  1  0  0  0
 47 49  1  0  0  0
 49 50  1  0  0  0
 49 62  1  0  0  0
 50 51  2  0  0  0
 50 52  1  0  0  0
 62 63  1  0  0  0
 63 64  2  0  0  0
 63 65  1  0  0  0
 64 66  1  0  0  0
 65 67  2  0  0  0
 66 68  2  0  0  0
 67 68  1  0  0  0
 68 69  1  0  0  0
 56 57  2  0  0  0
 56 61  1  0  0  0
 56 55  1  0  0  0
 57 58  1  0  0  0
 58 59  2  0  0  0
 59 60  1  0  0  0
 60 61  2  0  0  0
 55 54  1  0  0  0
 54 52  1  0  0  0
 38 39  2  0  0  0
 38 40  1  0  0  0
 39 41  1  0  0  0
 40 42  2  0  0  0
 41 43  2  0  0  0
 42 43  1  0  0  0
 27 28  1  0  0  0
 27 29  2  0  0  0
 24 25  1  0  0  0
 25 26  1  0  0  0
 26 28  1  0  0  0
  8  9  1  0  0  0
  3  4  1  0  0  0
 74 75  1  0  0  0
 77 79  1  0  0  0
 78 80  1  0  0  0
 78 81  1  0  0  0
 47 48  1  0  0  0
 69 70  1  0  0  0
 52 53  1  0  0  0
 28 30  1  0  0  0
M  END
> <minimizedAffinity>
-7.54845

$$$$
3H89_NSX_A_400


 81 86  0  0  0  0  0  0  0  0999 V2000
   33.5189   -5.9220  -12.5470 C   0  0  0  0  0  0  0  0  0  0  0  0
   32.9789   -6.8482  -13.3197 O   0  0  0  0  0  0  0  0  0  0  0  0
   33.8761   -4.5523  -12.9950 N   0  0  0  0  0  0  0  0  0  0  0  0
   34.2723   -3.9322  -12.3409 H   0  0  0  0  0  0  0  0  0  0  0  0
   33.7986   -6.1263  -11.0904 C   0  0  0  0  0  0  0  0  0  0  0  0
   31.9347   -4.4712  -10.4449 C   0  0  0  0  0  0  0  0  0  0  0  0
   32.5004   -3.4241  -10.6301 O   0  0  0  0  0  0  0  0  0  0  0  0
   32.5181   -5.8022  -10.6431 N   0  0  0  0  0  0  0  0  0  0  0  0
   31.9308   -6.5640  -10.4337 H   0  0  0  0  0  0  0  0  0  0  0  0
   30.6267   -4.5058  -10.0075 C   0  0  0  0  0  0  0  0  0  0  0  0
   28.4795   -4.5874  -13.9978 C   0  0  0  0  0  0  0  0  0  0  0  0
   29.2930   -5.8042  -13.4430 C   0  0  0  0  0  0  0  0  0  0  0  0
   29.9717   -5.7364  -12.1667 C   0  0  0  0  0  0  0  0  0  0  0  0
   29.8901   -4.4543  -11.3346 C   0  0  0  0  0  0  0  0  0  0  0  0
   29.0929   -3.1731  -11.8445 C   0  0  0  0  0  0  0  0  0  0  0  0
   28.4144   -3.2993  -13.1744 C   0  0  0  0  0  0  0  0  0  0  0  0
   26.4500   -5.3801  -17.9792 C   0  0  0  0  0  0  0  0  0  0  0  0
   27.1917   -3.5394  -16.1177 C   0  0  0  0  0  0  0  0  0  0  0  0
   27.8017   -4.7218  -15.3146 C   0  0  0  0  0  0  0  0  0  0  0  0
   26.5339   -3.9494  -17.4487 C   0  0  0  0  0  0  0  0  0  0  0  0
   27.7205   -6.2584  -15.8684 C   0  0  0  0  0  0  0  0  0  0  0  0
   27.0719   -6.5397  -17.1544 C   0  0  0  0  0  0  0  0  0  0  0  0
   34.0332   -7.5583  -10.8097 C   0  0  0  0  0  0  0  0  0  0  0  0
   32.9881   -8.6299  -10.4636 C   0  0  0  0  0  0  0  0  0  0  0  0
   32.7168   -9.1781   -9.3258 C   0  0  0  0  0  0  0  0  0  0  0  0
   31.3796   -9.0931   -8.5633 C   0  0  0  0  0  0  0  0  0  0  0  0
   29.2511   -8.0039   -8.2595 C   0  0  0  0  0  0  0  0  0  0  0  0
   30.4444   -7.8575   -8.7417 N   0  0  0  0  0  0  0  0  0  0  0  0
   28.8408   -8.8963   -7.7438 O   0  0  0  0  0  0  0  0  0  0  0  0
   30.7384   -7.0300   -9.1866 H   0  0  0  0  0  0  0  0  0  0  0  0
   28.2771   -7.0057   -8.3062 C   0  0  0  0  0  0  0  0  0  0  0  0
   27.5399   -6.6647   -9.3669 C   0  0  0  0  0  0  0  0  0  0  0  0
   27.3340   -7.6070  -10.5340 C   0  0  0  0  0  0  0  0  0  0  0  0
   26.9023   -5.2743   -9.4629 C   0  0  0  0  0  0  0  0  0  0  0  0
   26.5314   -7.2906  -11.7393 C   0  0  0  0  0  0  0  0  0  0  0  0
   26.0852   -4.9192  -10.6843 C   0  0  0  0  0  0  0  0  0  0  0  0
   25.8953   -5.9361  -11.8883 C   0  0  0  0  0  0  0  0  0  0  0  0
   25.1251   -5.6759  -13.0699 C   0  0  0  0  0  0  0  0  0  0  0  0
   24.7420   -4.2203  -13.4911 C   0  0  0  0  0  0  0  0  0  0  0  0
   24.5848   -6.7923  -13.9829 C   0  0  0  0  0  0  0  0  0  0  0  0
   23.9076   -3.9460  -14.7413 C   0  0  0  0  0  0  0  0  0  0  0  0
   23.7721   -6.4962  -15.1904 C   0  0  0  0  0  0  0  0  0  0  0  0
   23.4434   -5.0975  -15.5633 C   0  0  0  0  0  0  0  0  0  0  0  0
   33.6721   -4.0958  -14.3255 C   0  0  0  0  0  0  0  0  0  0  0  0
   33.7882   -5.1235  -15.3335 C   0  0  0  0  0  0  0  0  0  0  0  0
   34.9386   -5.5511  -15.6292 O   0  0  0  0  0  0  0  0  0  0  0  0
   32.6435   -5.5069  -15.8842 N   0  0  0  0  0  0  0  0  0  0  0  0
   31.8137   -5.0958  -15.5499 H   0  0  0  0  0  0  0  0  0  0  0  0
   32.5321   -6.4739  -16.9274 C   0  0  0  0  0  0  0  0  0  0  0  0
   32.3640   -5.5741  -18.2061 C   0  0  0  0  0  0  0  0  0  0  0  0
   33.1153   -5.6879  -19.1592 O   0  0  0  0  0  0  0  0  0  0  0  0
   31.2522   -4.6053  -18.1214 N   0  0  0  0  0  0  0  0  0  0  0  0
   30.6759   -4.5573  -17.3247 H   0  0  0  0  0  0  0  0  0  0  0  0
   31.0288   -3.6734  -19.3265 C   0  0  0  0  0  0  0  0  0  0  0  0
   29.6613   -3.1978  -19.2307 C   0  0  0  0  0  0  0  0  0  0  0  0
   29.2927   -1.8689  -18.8571 C   0  0  0  0  0  0  0  0  0  0  0  0
   29.5494   -1.2692  -17.3696 C   0  0  0  0  0  0  0  0  0  0  0  0
   29.0964    0.1819  -17.1211 C   0  0  0  0  0  0  0  0  0  0  0  0
   28.4515    0.9699  -18.2376 C   0  0  0  0  0  0  0  0  0  0  0  0
   28.2322    0.3752  -19.6084 C   0  0  0  0  0  0  0  0  0  0  0  0
   28.6437   -1.0381  -19.9361 C   0  0  0  0  0  0  0  0  0  0  0  0
   31.2854   -7.4126  -16.8030 C   0  0  0  0  0  0  0  0  0  0  0  0
   31.6348   -8.5217  -15.7419 C   0  0  0  0  0  0  0  0  0  0  0  0
   30.5987   -8.9590  -14.7183 C   0  0  0  0  0  0  0  0  0  0  0  0
   33.0998   -9.1788  -15.7281 C   0  0  0  0  0  0  0  0  0  0  0  0
   30.9660  -10.0098  -13.6962 C   0  0  0  0  0  0  0  0  0  0  0  0
   33.4229  -10.2050  -14.7129 C   0  0  0  0  0  0  0  0  0  0  0  0
   32.3912  -10.6251  -13.7044 C   0  0  0  0  0  0  0  0  0  0  0  0
   32.7120  -11.5332  -12.8135 O   0  0  0  0  0  0  0  0  0  0  0  0
   32.0819  -11.8078  -12.1766 H   0  0  0  0  0  0  0  0  0  0  0  0
   32.1236   -3.5515  -14.5548 C   0  0  0  0  0  0  0  0  0  0  0  0
   31.7073   -2.0165  -14.3554 C   0  0  0  0  0  0  0  0  0  0  0  0
   32.6946   -1.1782  -13.4950 C   0  0  0  0  0  0  0  0  0  0  0  0
   32.2181   -0.0063  -12.7188 N   0  0  0  0  0  0  0  0  0  0  0  0
   32.6919    0.8508  -12.8199 H   0  0  0  0  0  0  0  0  0  0  0  0
   31.0585   -0.0726  -11.7976 C   0  0  0  0  0  0  0  0  0  0  0  0
   29.8435    0.5235  -12.0609 N   0  0  0  0  0  0  0  0  0  0  0  0
   31.0874   -0.7413  -10.5887 N   0  0  0  0  0  0  0  0  0  0  0  0
   29.7131    1.0269  -12.8968 H   0  0  0  0  0  0  0  0  0  0  0  0
   31.9078   -1.2034  -10.3013 H   0  0  0  0  0  0  0  0  0  0  0  0
   30.2876   -0.7555  -10.0148 H   0  0  0  0  0  0  0  0  0  0  0  0
 10  6  1  0  0  0
 10 14  1  0  0  0
  6  7  2  0  0  0
  6  8  1  0  0  0
 11 12  2  0  0  0
 11 16  1  0  0  0
 11 19  1  0  0  0
 12 13  1  0  0  0
 13 14  2  0  0  0
 14 15  1  0  0  0
 15 16  2  0  0  0
 17 20  2  0  0  0
 17 22  1  0  0  0
 18 19  2  0  0  0
 18 20  1  0  0  0
 19 21  1  0  0  0
 21 22  2  0  0  0
  8  5  1  0  0  0
  5  1  1  0  0  0
  5 23  1  0  0  0
  1  2  2  0  0  0
  1  3  1  0  0  0
 23 24  1  0  0  0
 31 32  1  0  0  0
 31 27  1  0  0  0
 32 33  2  0  0  0
 32 34  1  0  0  0
 33 35  1  0  0  0
 34 36  2  0  0  0
 35 37  2  0  0  0
 36 37  1  0  0  0
 37 38  1  0  0  0
  3 44  1  0  0  0
 44 71  1  0  0  0
 44 45  1  0  0  0
 71 72  1  0  0  0
 72 73  1  0  0  0
 73 74  1  0  0  0
 74 76  1  0  0  0
 76 77  2  0  0  0
 76 78  1  0  0  0
 45 46  2  0  0  0
 45 47  1  0  0  0
 47 49  1  0  0  0
 49 50  1  0  0  0
 49 62  1  0  0  0
 50 51  2  0  0  0
 50 52  1  0  0  0
 62 63  1  0  0  0
 63 64  2  0  0  0
 63 65  1  0  0  0
 64 66  1  0  0  0
 65 67  2  0  0  0
 66 68  2  0  0  0
 67 68  1  0  0  0
 68 69  1  0  0  0
 56 57  2  0  0  0
 56 61  1  0  0  0
 56 55  1  0  0  0
 57 58  1  0  0  0
 58 59  2  0  0  0
 59 60  1  0  0  0
 60 61  2  0  0  0
 55 54  1  0  0  0
 54 52  1  0  0  0
 38 39  2  0  0  0
 38 40  1  0  0  0
 39 41  1  0  0  0
 40 42  2  0  0  0
 41 43  2  0  0  0
 42 43  1  0  0  0
 27 28  1  0  0  0
 27 29  2  0  0  0
 24 25  1  0  0  0
 25 26  1  0  0  0
 26 28  1  0  0  0
  8  9  1  0  0  0
  3  4  1  0  0  0
 74 75  1  0  0  0
 77 79  1  0  0  0
 78 80  1  0  0  0
 78 81  1  0  0  0
 47 48  1  0  0  0
 69 70  1  0  0  0
 52 53  1  0  0  0
 28 30  1  0  0  0
M  END
> <minimizedAffinity>
-7.52728

$$$$
3H89_NSX_A_400


 81 86  0  0  0  0  0  0  0  0999 V2000
   28.7992   -8.0362   -9.2282 C   0  0  0  0  0  0  0  0  0  0  0  0
   29.5658   -7.7132  -10.2550 O   0  0  0  0  0  0  0  0  0  0  0  0
   28.0233   -7.0654   -8.4158 N   0  0  0  0  0  0  0  0  0  0  0  0
   27.4778   -7.4063   -7.6705 H   0  0  0  0  0  0  0  0  0  0  0  0
   28.5776   -9.4471   -8.7787 C   0  0  0  0  0  0  0  0  0  0  0  0
   30.3955  -11.1729   -9.3675 C   0  0  0  0  0  0  0  0  0  0  0  0
   29.7102  -12.1204   -9.6562 O   0  0  0  0  0  0  0  0  0  0  0  0
   29.8998   -9.8638   -8.9297 N   0  0  0  0  0  0  0  0  0  0  0  0
   30.5884   -9.1938   -8.7150 H   0  0  0  0  0  0  0  0  0  0  0  0
   31.7721  -11.2459   -9.4265 C   0  0  0  0  0  0  0  0  0  0  0  0
   32.7863   -8.0337  -12.4585 C   0  0  0  0  0  0  0  0  0  0  0  0
   33.3431   -8.0309  -10.9957 C   0  0  0  0  0  0  0  0  0  0  0  0
   32.9896   -9.0711  -10.0539 C   0  0  0  0  0  0  0  0  0  0  0  0
   32.0585  -10.2038  -10.4934 C   0  0  0  0  0  0  0  0  0  0  0  0
   31.4433  -10.2615  -11.9614 C   0  0  0  0  0  0  0  0  0  0  0  0
   31.8402   -9.1557  -12.8914 C   0  0  0  0  0  0  0  0  0  0  0  0
   34.3187   -4.6242  -15.0325 C   0  0  0  0  0  0  0  0  0  0  0  0
   32.4922   -6.6182  -14.7302 C   0  0  0  0  0  0  0  0  0  0  0  0
   33.1903   -6.9380  -13.3790 C   0  0  0  0  0  0  0  0  0  0  0  0
   33.1139   -5.4389  -15.5016 C   0  0  0  0  0  0  0  0  0  0  0  0
   34.4804   -6.0758  -12.8627 C   0  0  0  0  0  0  0  0  0  0  0  0
   34.9927   -4.9667  -13.6760 C   0  0  0  0  0  0  0  0  0  0  0  0
   28.2483   -9.4802   -7.3383 C   0  0  0  0  0  0  0  0  0  0  0  0
   29.2238   -9.5718   -6.1549 C   0  0  0  0  0  0  0  0  0  0  0  0
   29.4799   -8.7069   -5.2302 C   0  0  0  0  0  0  0  0  0  0  0  0
   28.8854   -8.6826   -3.8080 C   0  0  0  0  0  0  0  0  0  0  0  0
   26.4891   -8.6485   -3.5508 C   0  0  0  0  0  0  0  0  0  0  0  0
   27.5382   -9.4067   -3.5013 N   0  0  0  0  0  0  0  0  0  0  0  0
   26.4551   -7.5649   -3.7861 O   0  0  0  0  0  0  0  0  0  0  0  0
   27.4891  -10.3663   -3.2865 H   0  0  0  0  0  0  0  0  0  0  0  0
   25.1938   -9.1156   -3.3241 C   0  0  0  0  0  0  0  0  0  0  0  0
   24.6850   -9.5084   -2.1529 C   0  0  0  0  0  0  0  0  0  0  0  0
   24.9091   -8.7210   -0.8792 C   0  0  0  0  0  0  0  0  0  0  0  0
   23.8815  -10.8091   -2.0452 C   0  0  0  0  0  0  0  0  0  0  0  0
   24.3756   -9.1020    0.4502 C   0  0  0  0  0  0  0  0  0  0  0  0
   23.3320  -11.2285   -0.7006 C   0  0  0  0  0  0  0  0  0  0  0  0
   23.5917  -10.3750    0.6123 C   0  0  0  0  0  0  0  0  0  0  0  0
   23.0924  -10.7014    1.9166 C   0  0  0  0  0  0  0  0  0  0  0  0
   23.0702   -9.6470    3.0703 C   0  0  0  0  0  0  0  0  0  0  0  0
   22.5848  -12.1055    2.2943 C   0  0  0  0  0  0  0  0  0  0  0  0
   22.5530  -10.0012    4.4636 C   0  0  0  0  0  0  0  0  0  0  0  0
   22.0913  -12.4225    3.6590 C   0  0  0  0  0  0  0  0  0  0  0  0
   22.0733  -11.3868    4.7222 C   0  0  0  0  0  0  0  0  0  0  0  0
   28.0326   -5.6662   -8.6653 C   0  0  0  0  0  0  0  0  0  0  0  0
   29.3432   -5.1130   -8.9143 C   0  0  0  0  0  0  0  0  0  0  0  0
   30.1635   -5.0509   -7.9566 O   0  0  0  0  0  0  0  0  0  0  0  0
   29.5509   -4.6871  -10.1536 N   0  0  0  0  0  0  0  0  0  0  0  0
   28.8243   -4.8065  -10.8071 H   0  0  0  0  0  0  0  0  0  0  0  0
   30.7546   -4.0679  -10.6047 C   0  0  0  0  0  0  0  0  0  0  0  0
   30.4430   -2.5391  -10.4078 C   0  0  0  0  0  0  0  0  0  0  0  0
   29.5424   -2.1695   -9.6742 O   0  0  0  0  0  0  0  0  0  0  0  0
   31.3148   -1.6390  -11.1898 N   0  0  0  0  0  0  0  0  0  0  0  0
   32.0284   -1.9939  -11.7678 H   0  0  0  0  0  0  0  0  0  0  0  0
   31.0652   -0.1248  -11.0668 C   0  0  0  0  0  0  0  0  0  0  0  0
   30.0726    0.2114  -12.0704 C   0  0  0  0  0  0  0  0  0  0  0  0
   30.2224   -0.0369  -13.4695 C   0  0  0  0  0  0  0  0  0  0  0  0
   31.6538   -0.3855  -14.1535 C   0  0  0  0  0  0  0  0  0  0  0  0
   31.6527   -0.6285  -15.6745 C   0  0  0  0  0  0  0  0  0  0  0  0
   30.3585   -0.5382  -16.4494 C   0  0  0  0  0  0  0  0  0  0  0  0
   29.0473   -0.2128  -15.7745 C   0  0  0  0  0  0  0  0  0  0  0  0
   28.9594    0.0413  -14.2907 C   0  0  0  0  0  0  0  0  0  0  0  0
   31.0837   -4.3260  -12.1133 C   0  0  0  0  0  0  0  0  0  0  0  0
   29.7143   -4.4681  -12.8765 C   0  0  0  0  0  0  0  0  0  0  0  0
   28.8382   -3.2483  -13.1161 C   0  0  0  0  0  0  0  0  0  0  0  0
   29.2312   -5.9122  -13.3858 C   0  0  0  0  0  0  0  0  0  0  0  0
   27.5178   -3.4147  -13.8318 C   0  0  0  0  0  0  0  0  0  0  0  0
   27.9327   -6.0363  -14.0833 C   0  0  0  0  0  0  0  0  0  0  0  0
   27.0747   -4.8236  -14.3098 C   0  0  0  0  0  0  0  0  0  0  0  0
   25.9257   -4.9691  -14.9262 O   0  0  0  0  0  0  0  0  0  0  0  0
   25.3771   -4.2245  -15.0764 H   0  0  0  0  0  0  0  0  0  0  0  0
   27.2206   -5.2882  -10.0598 C   0  0  0  0  0  0  0  0  0  0  0  0
   25.7248   -5.7844  -10.3520 C   0  0  0  0  0  0  0  0  0  0  0  0
   25.5810   -6.7472  -11.5645 C   0  0  0  0  0  0  0  0  0  0  0  0
   24.4741   -6.5800  -12.5390 N   0  0  0  0  0  0  0  0  0  0  0  0
   23.8685   -5.8105  -12.4377 H   0  0  0  0  0  0  0  0  0  0  0  0
   24.2424   -7.5237  -13.6587 C   0  0  0  0  0  0  0  0  0  0  0  0
   23.8982   -7.1224  -14.9321 N   0  0  0  0  0  0  0  0  0  0  0  0
   24.3527   -8.8950  -13.5301 N   0  0  0  0  0  0  0  0  0  0  0  0
   23.7927   -6.1648  -15.1348 H   0  0  0  0  0  0  0  0  0  0  0  0
   24.5944   -9.2901  -12.6613 H   0  0  0  0  0  0  0  0  0  0  0  0
   24.1894   -9.4771  -14.3072 H   0  0  0  0  0  0  0  0  0  0  0  0
 10  6  1  0  0  0
 10 14  1  0  0  0
  6  7  2  0  0  0
  6  8  1  0  0  0
 11 12  2  0  0  0
 11 16  1  0  0  0
 11 19  1  0  0  0
 12 13  1  0  0  0
 13 14  2  0  0  0
 14 15  1  0  0  0
 15 16  2  0  0  0
 17 20  2  0  0  0
 17 22  1  0  0  0
 18 19  2  0  0  0
 18 20  1  0  0  0
 19 21  1  0  0  0
 21 22  2  0  0  0
  8  5  1  0  0  0
  5  1  1  0  0  0
  5 23  1  0  0  0
  1  2  2  0  0  0
  1  3  1  0  0  0
 23 24  1  0  0  0
 31 32  1  0  0  0
 31 27  1  0  0  0
 32 33  2  0  0  0
 32 34  1  0  0  0
 33 35  1  0  0  0
 34 36  2  0  0  0
 35 37  2  0  0  0
 36 37  1  0  0  0
 37 38  1  0  0  0
  3 44  1  0  0  0
 44 71  1  0  0  0
 44 45  1  0  0  0
 71 72  1  0  0  0
 72 73  1  0  0  0
 73 74  1  0  0  0
 74 76  1  0  0  0
 76 77  2  0  0  0
 76 78  1  0  0  0
 45 46  2  0  0  0
 45 47  1  0  0  0
 47 49  1  0  0  0
 49 50  1  0  0  0
 49 62  1  0  0  0
 50 51  2  0  0  0
 50 52  1  0  0  0
 62 63  1  0  0  0
 63 64  2  0  0  0
 63 65  1  0  0  0
 64 66  1  0  0  0
 65 67  2  0  0  0
 66 68  2  0  0  0
 67 68  1  0  0  0
 68 69  1  0  0  0
 56 57  2  0  0  0
 56 61  1  0  0  0
 56 55  1  0  0  0
 57 58  1  0  0  0
 58 59  2  0  0  0
 59 60  1  0  0  0
 60 61  2  0  0  0
 55 54  1  0  0  0
 54 52  1  0  0  0
 38 39  2  0  0  0
 38 40  1  0  0  0
 39 41  1  0  0  0
 40 42  2  0  0  0
 41 43  2  0  0  0
 42 43  1  0  0  0
 27 28  1  0  0  0
 27 29  2  0  0  0
 24 25  1  0  0  0
 25 26  1  0  0  0
 26 28  1  0  0  0
  8  9  1  0  0  0
  3  4  1  0  0  0
 74 75  1  0  0  0
 77 79  1  0  0  0
 78 80  1  0  0  0
 78 81  1  0  0  0
 47 48  1  0  0  0
 69 70  1  0  0  0
 52 53  1  0  0  0
 28 30  1  0  0  0
M  END
> <minimizedAffinity>
-7.49904

$$$$
3H89_NSX_A_400


 81 86  0  0  0  0  0  0  0  0999 V2000
   27.3110  -10.2757   -4.3996 C   0  0  0  0  0  0  0  0  0  0  0  0
   27.2494  -11.2305   -3.4880 O   0  0  0  0  0  0  0  0  0  0  0  0
   27.0410  -10.4713   -5.8464 N   0  0  0  0  0  0  0  0  0  0  0  0
   27.1103   -9.6941   -6.4467 H   0  0  0  0  0  0  0  0  0  0  0  0
   27.6195   -8.8470   -4.0749 C   0  0  0  0  0  0  0  0  0  0  0  0
   25.8447   -8.3881   -2.2666 C   0  0  0  0  0  0  0  0  0  0  0  0
   24.9945   -7.8498   -2.9285 O   0  0  0  0  0  0  0  0  0  0  0  0
   27.1322   -8.8797   -2.7687 N   0  0  0  0  0  0  0  0  0  0  0  0
   27.7284   -9.2844   -2.0979 H   0  0  0  0  0  0  0  0  0  0  0  0
   25.6690   -8.5950   -0.9139 C   0  0  0  0  0  0  0  0  0  0  0  0
   22.4432  -11.7747   -0.7586 C   0  0  0  0  0  0  0  0  0  0  0  0
   22.7966  -10.8592    0.4608 C   0  0  0  0  0  0  0  0  0  0  0  0
   23.8394   -9.8597    0.3741 C   0  0  0  0  0  0  0  0  0  0  0  0
   24.6110   -9.6844   -0.9362 C   0  0  0  0  0  0  0  0  0  0  0  0
   24.3146  -10.5912   -2.2116 C   0  0  0  0  0  0  0  0  0  0  0  0
   23.2281  -11.6121   -2.0621 C   0  0  0  0  0  0  0  0  0  0  0  0
   19.2125  -14.9605   -0.6537 C   0  0  0  0  0  0  0  0  0  0  0  0
   20.5679  -13.0334    0.7074 C   0  0  0  0  0  0  0  0  0  0  0  0
   21.3585  -12.7804   -0.6064 C   0  0  0  0  0  0  0  0  0  0  0  0
   19.5030  -14.1414    0.6032 C   0  0  0  0  0  0  0  0  0  0  0  0
   21.0597  -13.6481   -1.9600 C   0  0  0  0  0  0  0  0  0  0  0  0
   20.0179  -14.6818   -1.9519 C   0  0  0  0  0  0  0  0  0  0  0  0
   29.0815   -8.6397   -4.0135 C   0  0  0  0  0  0  0  0  0  0  0  0
   30.0319   -8.3110   -5.1750 C   0  0  0  0  0  0  0  0  0  0  0  0
   29.9051   -8.5558   -6.4371 C   0  0  0  0  0  0  0  0  0  0  0  0
   30.0374   -7.5365   -7.5861 C   0  0  0  0  0  0  0  0  0  0  0  0
   29.0251   -5.5205   -8.4347 C   0  0  0  0  0  0  0  0  0  0  0  0
   28.7902   -6.7470   -8.0907 N   0  0  0  0  0  0  0  0  0  0  0  0
   29.9999   -4.9915   -8.4091 O   0  0  0  0  0  0  0  0  0  0  0  0
   27.8935   -7.1499   -8.1435 H   0  0  0  0  0  0  0  0  0  0  0  0
   28.0427   -4.6604   -8.9271 C   0  0  0  0  0  0  0  0  0  0  0  0
   27.3102   -4.8402  -10.0299 C   0  0  0  0  0  0  0  0  0  0  0  0
   27.8224   -4.4553  -11.4017 C   0  0  0  0  0  0  0  0  0  0  0  0
   25.8902   -5.4102   -9.9422 C   0  0  0  0  0  0  0  0  0  0  0  0
   27.0614   -4.6260  -12.6622 C   0  0  0  0  0  0  0  0  0  0  0  0
   25.0860   -5.5877  -11.2101 C   0  0  0  0  0  0  0  0  0  0  0  0
   25.6595   -5.1690  -12.6299 C   0  0  0  0  0  0  0  0  0  0  0  0
   24.9628   -5.3199  -13.8744 C   0  0  0  0  0  0  0  0  0  0  0  0
   24.8394   -4.1381  -14.8900 C   0  0  0  0  0  0  0  0  0  0  0  0
   24.2541   -6.6234  -14.2875 C   0  0  0  0  0  0  0  0  0  0  0  0
   24.0828   -4.2958  -16.2079 C   0  0  0  0  0  0  0  0  0  0  0  0
   23.5220   -6.7467  -15.5739 C   0  0  0  0  0  0  0  0  0  0  0  0
   23.4418   -5.6036  -16.5175 C   0  0  0  0  0  0  0  0  0  0  0  0
   26.6871  -11.7299   -6.4039 C   0  0  0  0  0  0  0  0  0  0  0  0
   26.5161  -11.7206   -7.8380 C   0  0  0  0  0  0  0  0  0  0  0  0
   25.9123  -12.6880   -8.3797 O   0  0  0  0  0  0  0  0  0  0  0  0
   27.0506  -10.6800   -8.4642 N   0  0  0  0  0  0  0  0  0  0  0  0
   27.4865   -9.9890   -7.9149 H   0  0  0  0  0  0  0  0  0  0  0  0
   27.0373  -10.4935   -9.8787 C   0  0  0  0  0  0  0  0  0  0  0  0
   28.4595  -11.0143  -10.3019 C   0  0  0  0  0  0  0  0  0  0  0  0
   28.5838  -11.9770  -11.0391 O   0  0  0  0  0  0  0  0  0  0  0  0
   29.5811  -10.2502   -9.7187 N   0  0  0  0  0  0  0  0  0  0  0  0
   29.4214   -9.4791   -9.1278 H   0  0  0  0  0  0  0  0  0  0  0  0
   31.0093  -10.7055  -10.0698 C   0  0  0  0  0  0  0  0  0  0  0  0
   31.8006   -9.4985  -10.2198 C   0  0  0  0  0  0  0  0  0  0  0  0
   31.6397   -8.5537  -11.2795 C   0  0  0  0  0  0  0  0  0  0  0  0
   31.2593   -6.9961  -11.0202 C   0  0  0  0  0  0  0  0  0  0  0  0
   31.1212   -6.1011  -12.2662 C   0  0  0  0  0  0  0  0  0  0  0  0
   31.3404   -6.6878  -13.6414 C   0  0  0  0  0  0  0  0  0  0  0  0
   31.6947   -8.1424  -13.8393 C   0  0  0  0  0  0  0  0  0  0  0  0
   31.8473   -9.0882  -12.6748 C   0  0  0  0  0  0  0  0  0  0  0  0
   26.8915   -9.0011  -10.3286 C   0  0  0  0  0  0  0  0  0  0  0  0
   26.9059   -8.9801  -11.9026 C   0  0  0  0  0  0  0  0  0  0  0  0
   25.9317   -9.8412  -12.6913 C   0  0  0  0  0  0  0  0  0  0  0  0
   27.9692   -8.0602  -12.6781 C   0  0  0  0  0  0  0  0  0  0  0  0
   25.9805   -9.8199  -14.2015 C   0  0  0  0  0  0  0  0  0  0  0  0
   27.9868   -8.0648  -14.1572 C   0  0  0  0  0  0  0  0  0  0  0  0
   27.0215   -8.9236  -14.9244 C   0  0  0  0  0  0  0  0  0  0  0  0
   27.0677   -8.9094  -16.2355 O   0  0  0  0  0  0  0  0  0  0  0  0
   26.4738   -9.4382  -16.7310 H   0  0  0  0  0  0  0  0  0  0  0  0
   27.8920  -12.8496   -6.2007 C   0  0  0  0  0  0  0  0  0  0  0  0
   29.4358  -12.4434   -6.0568 C   0  0  0  0  0  0  0  0  0  0  0  0
   30.2080  -13.1970   -4.9372 C   0  0  0  0  0  0  0  0  0  0  0  0
   29.8095  -13.0570   -3.5143 N   0  0  0  0  0  0  0  0  0  0  0  0
   29.0880  -12.4272   -3.2862 H   0  0  0  0  0  0  0  0  0  0  0  0
   30.4528  -13.8261   -2.4223 C   0  0  0  0  0  0  0  0  0  0  0  0
   31.7194  -13.5584   -1.9480 N   0  0  0  0  0  0  0  0  0  0  0  0
   29.8404  -14.8828   -1.7760 N   0  0  0  0  0  0  0  0  0  0  0  0
   32.2464  -12.8243   -2.3387 H   0  0  0  0  0  0  0  0  0  0  0  0
   28.9321  -15.1593   -2.0363 H   0  0  0  0  0  0  0  0  0  0  0  0
   30.3124  -15.3591   -1.0552 H   0  0  0  0  0  0  0  0  0  0  0  0
 10  6  1  0  0  0
 10 14  1  0  0  0
  6  7  2  0  0  0
  6  8  1  0  0  0
 11 12  2  0  0  0
 11 16  1  0  0  0
 11 19  1  0  0  0
 12 13  1  0  0  0
 13 14  2  0  0  0
 14 15  1  0  0  0
 15 16  2  0  0  0
 17 20  2  0  0  0
 17 22  1  0  0  0
 18 19  2  0  0  0
 18 20  1  0  0  0
 19 21  1  0  0  0
 21 22  2  0  0  0
  8  5  1  0  0  0
  5  1  1  0  0  0
  5 23  1  0  0  0
  1  2  2  0  0  0
  1  3  1  0  0  0
 23 24  1  0  0  0
 31 32  1  0  0  0
 31 27  1  0  0  0
 32 33  2  0  0  0
 32 34  1  0  0  0
 33 35  1  0  0  0
 34 36  2  0  0  0
 35 37  2  0  0  0
 36 37  1  0  0  0
 37 38  1  0  0  0
  3 44  1  0  0  0
 44 71  1  0  0  0
 44 45  1  0  0  0
 71 72  1  0  0  0
 72 73  1  0  0  0
 73 74  1  0  0  0
 74 76  1  0  0  0
 76 77  2  0  0  0
 76 78  1  0  0  0
 45 46  2  0  0  0
 45 47  1  0  0  0
 47 49  1  0  0  0
 49 50  1  0  0  0
 49 62  1  0  0  0
 50 51  2  0  0  0
 50 52  1  0  0  0
 62 63  1  0  0  0
 63 64  2  0  0  0
 63 65  1  0  0  0
 64 66  1  0  0  0
 65 67  2  0  0  0
 66 68  2  0  0  0
 67 68  1  0  0  0
 68 69  1  0  0  0
 56 57  2  0  0  0
 56 61  1  0  0  0
 56 55  1  0  0  0
 57 58  1  0  0  0
 58 59  2  0  0  0
 59 60  1  0  0  0
 60 61  2  0  0  0
 55 54  1  0  0  0
 54 52  1  0  0  0
 38 39  2  0  0  0
 38 40  1  0  0  0
 39 41  1  0  0  0
 40 42  2  0  0  0
 41 43  2  0  0  0
 42 43  1  0  0  0
 27 28  1  0  0  0
 27 29  2  0  0  0
 24 25  1  0  0  0
 25 26  1  0  0  0
 26 28  1  0  0  0
  8  9  1  0  0  0
  3  4  1  0  0  0
 74 75  1  0  0  0
 77 79  1  0  0  0
 78 80  1  0  0  0
 78 81  1  0  0  0
 47 48  1  0  0  0
 69 70  1  0  0  0
 52 53  1  0  0  0
 28 30  1  0  0  0
M  END
> <minimizedAffinity>
-7.47170

$$$$
3H89_NSX_A_400


 81 86  0  0  0  0  0  0  0  0999 V2000
   28.5884   -5.6918  -12.9569 C   0  0  0  0  0  0  0  0  0  0  0  0
   29.4249   -5.5112  -13.9639 O   0  0  0  0  0  0  0  0  0  0  0  0
   27.7100   -6.8773  -12.7915 N   0  0  0  0  0  0  0  0  0  0  0  0
   27.1222   -6.9203  -12.0029 H   0  0  0  0  0  0  0  0  0  0  0  0
   28.4545   -4.7311  -11.8163 C   0  0  0  0  0  0  0  0  0  0  0  0
   29.1879   -5.5770   -9.4975 C   0  0  0  0  0  0  0  0  0  0  0  0
   28.3018   -5.1322   -8.8137 O   0  0  0  0  0  0  0  0  0  0  0  0
   29.3134   -5.4051  -10.9487 N   0  0  0  0  0  0  0  0  0  0  0  0
   30.1051   -5.8182  -11.3632 H   0  0  0  0  0  0  0  0  0  0  0  0
   30.2096   -6.3205   -8.9434 C   0  0  0  0  0  0  0  0  0  0  0  0
   28.0383   -9.9698   -7.3597 C   0  0  0  0  0  0  0  0  0  0  0  0
   29.2247   -9.2878   -6.5999 C   0  0  0  0  0  0  0  0  0  0  0  0
   29.8981   -8.1276   -7.1425 C   0  0  0  0  0  0  0  0  0  0  0  0
   29.4407   -7.5465   -8.4828 C   0  0  0  0  0  0  0  0  0  0  0  0
   28.2507   -8.1984   -9.3169 C   0  0  0  0  0  0  0  0  0  0  0  0
   27.5943   -9.4001   -8.7087 C   0  0  0  0  0  0  0  0  0  0  0  0
   25.8377  -13.6253   -5.8129 C   0  0  0  0  0  0  0  0  0  0  0  0
   27.7934  -11.7829   -5.3840 C   0  0  0  0  0  0  0  0  0  0  0  0
   27.3857  -11.1572   -6.7469 C   0  0  0  0  0  0  0  0  0  0  0  0
   26.9661  -13.0179   -4.9805 C   0  0  0  0  0  0  0  0  0  0  0  0
   26.1804  -11.7950   -7.6496 C   0  0  0  0  0  0  0  0  0  0  0  0
   25.4520  -12.9751   -7.1694 C   0  0  0  0  0  0  0  0  0  0  0  0
   29.0761   -3.4356  -12.1618 C   0  0  0  0  0  0  0  0  0  0  0  0
   29.8023   -2.4627  -11.2203 C   0  0  0  0  0  0  0  0  0  0  0  0
   30.9338   -2.5965  -10.6115 C   0  0  0  0  0  0  0  0  0  0  0  0
   32.2561   -3.0889  -11.2327 C   0  0  0  0  0  0  0  0  0  0  0  0
   32.8159   -5.2986  -12.0154 C   0  0  0  0  0  0  0  0  0  0  0  0
   32.7630   -4.5400  -10.9669 N   0  0  0  0  0  0  0  0  0  0  0  0
   32.5462   -5.0246  -13.0561 O   0  0  0  0  0  0  0  0  0  0  0  0
   33.0226   -4.8550  -10.0710 H   0  0  0  0  0  0  0  0  0  0  0  0
   33.2593   -6.6214  -11.9835 C   0  0  0  0  0  0  0  0  0  0  0  0
   32.5758   -7.6772  -11.5329 C   0  0  0  0  0  0  0  0  0  0  0  0
   32.9764   -8.4093  -10.2696 C   0  0  0  0  0  0  0  0  0  0  0  0
   31.3714   -8.2199  -12.3101 C   0  0  0  0  0  0  0  0  0  0  0  0
   32.2640   -9.5861   -9.7174 C   0  0  0  0  0  0  0  0  0  0  0  0
   30.6299   -9.4245  -11.7764 C   0  0  0  0  0  0  0  0  0  0  0  0
   31.0840  -10.1653  -10.4479 C   0  0  0  0  0  0  0  0  0  0  0  0
   30.4239  -11.3021   -9.8744 C   0  0  0  0  0  0  0  0  0  0  0  0
   30.9078  -11.9355   -8.5299 C   0  0  0  0  0  0  0  0  0  0  0  0
   29.2305  -12.0072  -10.5456 C   0  0  0  0  0  0  0  0  0  0  0  0
   30.2135  -13.1564   -7.9288 C   0  0  0  0  0  0  0  0  0  0  0  0
   28.5774  -13.1958   -9.9400 C   0  0  0  0  0  0  0  0  0  0  0  0
   29.0593  -13.7568   -8.6530 C   0  0  0  0  0  0  0  0  0  0  0  0
   27.6793   -7.9528  -13.7202 C   0  0  0  0  0  0  0  0  0  0  0  0
   27.1092   -9.1738  -13.2006 C   0  0  0  0  0  0  0  0  0  0  0  0
   26.3219   -9.1008  -12.2164 O   0  0  0  0  0  0  0  0  0  0  0  0
   27.5029  -10.2852  -13.8092 N   0  0  0  0  0  0  0  0  0  0  0  0
   28.1157  -10.1961  -14.5746 H   0  0  0  0  0  0  0  0  0  0  0  0
   27.0995  -11.6005  -13.4310 C   0  0  0  0  0  0  0  0  0  0  0  0
   28.2860  -12.4845  -13.9638 C   0  0  0  0  0  0  0  0  0  0  0  0
   28.2192  -13.7015  -13.9519 O   0  0  0  0  0  0  0  0  0  0  0  0
   29.4481  -11.7098  -14.4446 N   0  0  0  0  0  0  0  0  0  0  0  0
   29.4471  -10.7254  -14.4307 H   0  0  0  0  0  0  0  0  0  0  0  0
   30.6611  -12.5003  -14.9685 C   0  0  0  0  0  0  0  0  0  0  0  0
   31.8290  -11.9463  -14.3092 C   0  0  0  0  0  0  0  0  0  0  0  0
   32.3835  -12.4484  -13.0919 C   0  0  0  0  0  0  0  0  0  0  0  0
   31.7850  -13.7471  -12.3216 C   0  0  0  0  0  0  0  0  0  0  0  0
   32.4931  -14.1663  -11.0195 C   0  0  0  0  0  0  0  0  0  0  0  0
   33.6834  -13.3783  -10.5237 C   0  0  0  0  0  0  0  0  0  0  0  0
   34.2100  -12.1765  -11.2713 C   0  0  0  0  0  0  0  0  0  0  0  0
   33.5750  -11.6970  -12.5523 C   0  0  0  0  0  0  0  0  0  0  0  0
   25.7697  -12.0826  -14.1019 C   0  0  0  0  0  0  0  0  0  0  0  0
   24.6766  -12.1684  -12.9725 C   0  0  0  0  0  0  0  0  0  0  0  0
   24.9969  -12.8319  -11.6421 C   0  0  0  0  0  0  0  0  0  0  0  0
   23.2097  -11.5705  -13.2353 C   0  0  0  0  0  0  0  0  0  0  0  0
   23.9234  -12.9213  -10.5824 C   0  0  0  0  0  0  0  0  0  0  0  0
   22.1847  -11.6759  -12.1740 C   0  0  0  0  0  0  0  0  0  0  0  0
   22.5131  -12.3378  -10.8656 C   0  0  0  0  0  0  0  0  0  0  0  0
   21.5794  -12.4204   -9.9477 O   0  0  0  0  0  0  0  0  0  0  0  0
   21.7655  -12.8297   -9.1256 H   0  0  0  0  0  0  0  0  0  0  0  0
   26.6888   -7.6218  -15.0070 C   0  0  0  0  0  0  0  0  0  0  0  0
   25.6506   -6.4006  -15.0085 C   0  0  0  0  0  0  0  0  0  0  0  0
   24.2852   -6.7031  -14.3288 C   0  0  0  0  0  0  0  0  0  0  0  0
   24.2034   -6.9515  -12.8678 N   0  0  0  0  0  0  0  0  0  0  0  0
   23.7718   -7.7786  -12.5534 H   0  0  0  0  0  0  0  0  0  0  0  0
   24.7445   -6.0060  -11.8623 C   0  0  0  0  0  0  0  0  0  0  0  0
   25.4592   -6.4037  -10.7523 N   0  0  0  0  0  0  0  0  0  0  0  0
   24.5846   -4.6361  -11.9461 N   0  0  0  0  0  0  0  0  0  0  0  0
   25.6319   -7.3600  -10.5947 H   0  0  0  0  0  0  0  0  0  0  0  0
   24.0890   -4.2436  -12.7008 H   0  0  0  0  0  0  0  0  0  0  0  0
   24.9661   -4.0525  -11.2510 H   0  0  0  0  0  0  0  0  0  0  0  0
 10  6  1  0  0  0
 10 14  1  0  0  0
  6  7  2  0  0  0
  6  8  1  0  0  0
 11 12  2  0  0  0
 11 16  1  0  0  0
 11 19  1  0  0  0
 12 13  1  0  0  0
 13 14  2  0  0  0
 14 15  1  0  0  0
 15 16  2  0  0  0
 17 20  2  0  0  0
 17 22  1  0  0  0
 18 19  2  0  0  0
 18 20  1  0  0  0
 19 21  1  0  0  0
 21 22  2  0  0  0
  8  5  1  0  0  0
  5  1  1  0  0  0
  5 23  1  0  0  0
  1  2  2  0  0  0
  1  3  1  0  0  0
 23 24  1  0  0  0
 31 32  1  0  0  0
 31 27  1  0  0  0
 32 33  2  0  0  0
 32 34  1  0  0  0
 33 35  1  0  0  0
 34 36  2  0  0  0
 35 37  2  0  0  0
 36 37  1  0  0  0
 37 38  1  0  0  0
  3 44  1  0  0  0
 44 71  1  0  0  0
 44 45  1  0  0  0
 71 72  1  0  0  0
 72 73  1  0  0  0
 73 74  1  0  0  0
 74 76  1  0  0  0
 76 77  2  0  0  0
 76 78  1  0  0  0
 45 46  2  0  0  0
 45 47  1  0  0  0
 47 49  1  0  0  0
 49 50  1  0  0  0
 49 62  1  0  0  0
 50 51  2  0  0  0
 50 52  1  0  0  0
 62 63  1  0  0  0
 63 64  2  0  0  0
 63 65  1  0  0  0
 64 66  1  0  0  0
 65 67  2  0  0  0
 66 68  2  0  0  0
 67 68  1  0  0  0
 68 69  1  0  0  0
 56 57  2  0  0  0
 56 61  1  0  0  0
 56 55  1  0  0  0
 57 58  1  0  0  0
 58 59  2  0  0  0
 59 60  1  0  0  0
 60 61  2  0  0  0
 55 54  1  0  0  0
 54 52  1  0  0  0
 38 39  2  0  0  0
 38 40  1  0  0  0
 39 41  1  0  0  0
 40 42  2  0  0  0
 41 43  2  0  0  0
 42 43  1  0  0  0
 27 28  1  0  0  0
 27 29  2  0  0  0
 24 25  1  0  0  0
 25 26  1  0  0  0
 26 28  1  0  0  0
  8  9  1  0  0  0
  3  4  1  0  0  0
 74 75  1  0  0  0
 77 79  1  0  0  0
 78 80  1  0  0  0
 78 81  1  0  0  0
 47 48  1  0  0  0
 69 70  1  0  0  0
 52 53  1  0  0  0
 28 30  1  0  0  0
M  END
> <minimizedAffinity>
-7.46551

$$$$
