2X8Z_X8Z_A_1615


 16 16  0  0  0  0  0  0  0  0999 V2000
   27.4196    6.6179  -43.9839 O   0  0  0  0  0  0  0  0  0  0  0  0
   28.3562    5.8097  -43.6903 C   0  0  0  0  0  0  0  0  0  0  0  0
   29.6216    6.1025  -44.0634 N   0  0  0  0  0  0  0  0  0  0  0  0
   29.9635    7.3510  -44.8405 C   0  0  0  0  0  0  0  0  0  0  0  0
   30.8754    5.2953  -43.8247 C   0  0  0  0  0  0  0  0  0  0  0  0
   31.9804    6.0315  -44.4887 C   0  0  0  0  0  0  0  0  0  0  0  0
   31.4635    7.3630  -44.9515 C   0  0  0  0  0  0  0  0  0  0  0  0
   29.3102    7.3227  -46.2417 C   0  0  0  0  0  0  0  0  0  0  0  0
   29.7391    6.6295  -47.1425 O   0  0  0  0  0  0  0  0  0  0  0  0
   28.2794    8.0737  -46.4107 O   0  0  0  0  0  0  0  0  0  0  0  0
   27.9633    8.6015  -45.7039 H   0  0  0  0  0  0  0  0  0  0  0  0
   28.0112    4.5234  -42.9342 C   0  0  0  0  0  0  0  0  0  0  0  0
   27.7607    3.4280  -43.9831 C   0  0  0  0  0  0  0  0  0  0  0  0
   26.7899    4.7984  -42.0492 C   0  0  0  0  0  0  0  0  0  0  0  0
   27.1813    5.3473  -40.3870 S   0  0  0  0  0  0  0  0  0  0  0  0
   27.8695    4.3707  -39.7373 H   0  0  0  0  0  0  0  0  0  0  0  0
  1  2  2  0  0  0
  2 12  1  0  0  0
  2  3  1  0  0  0
 12 14  1  0  0  0
 12 13  1  0  0  0
 14 15  1  0  0  0
  3  4  1  0  0  0
  3  5  1  0  0  0
  4  8  1  0  0  0
  4  7  1  0  0  0
  8  9  2  0  0  0
  8 10  1  0  0  0
  5  6  1  0  0  0
  6  7  1  0  0  0
 15 16  1  0  0  0
 10 11  1  0  0  0
M  END
> <minimizedAffinity>
-5.93164

$$$$
2X8Z_X8Z_A_1615


 16 16  0  0  0  0  0  0  0  0999 V2000
   28.3233    5.2770  -43.1635 O   0  0  0  0  0  0  0  0  0  0  0  0
   28.6228    6.5095  -43.2530 C   0  0  0  0  0  0  0  0  0  0  0  0
   29.7507    6.8689  -43.9049 N   0  0  0  0  0  0  0  0  0  0  0  0
   30.6861    5.8532  -44.5155 C   0  0  0  0  0  0  0  0  0  0  0  0
   30.2961    8.2591  -44.1291 C   0  0  0  0  0  0  0  0  0  0  0  0
   31.5859    8.0925  -44.8451 C   0  0  0  0  0  0  0  0  0  0  0  0
   31.7381    6.6509  -45.2361 C   0  0  0  0  0  0  0  0  0  0  0  0
   31.3243    4.9660  -43.4217 C   0  0  0  0  0  0  0  0  0  0  0  0
   32.2410    5.3545  -42.7256 O   0  0  0  0  0  0  0  0  0  0  0  0
   30.8330    3.7854  -43.2799 O   0  0  0  0  0  0  0  0  0  0  0  0
   30.1258    3.5035  -43.8262 H   0  0  0  0  0  0  0  0  0  0  0  0
   27.6974    7.5428  -42.6041 C   0  0  0  0  0  0  0  0  0  0  0  0
   27.2426    6.9671  -41.2534 C   0  0  0  0  0  0  0  0  0  0  0  0
   26.5331    7.8158  -43.5634 C   0  0  0  0  0  0  0  0  0  0  0  0
   26.6254    9.3889  -44.4202 S   0  0  0  0  0  0  0  0  0  0  0  0
   26.5752   10.4021  -43.5144 H   0  0  0  0  0  0  0  0  0  0  0  0
  1  2  2  0  0  0
  2 12  1  0  0  0
  2  3  1  0  0  0
 12 14  1  0  0  0
 12 13  1  0  0  0
 14 15  1  0  0  0
  3  4  1  0  0  0
  3  5  1  0  0  0
  4  8  1  0  0  0
  4  7  1  0  0  0
  8  9  2  0  0  0
  8 10  1  0  0  0
  5  6  1  0  0  0
  6  7  1  0  0  0
 15 16  1  0  0  0
 10 11  1  0  0  0
M  END
> <minimizedAffinity>
-5.67380

$$$$
2X8Z_X8Z_A_1615


 16 16  0  0  0  0  0  0  0  0999 V2000
   29.5649    5.0704  -42.2594 O   0  0  0  0  0  0  0  0  0  0  0  0
   28.7565    5.8650  -42.8353 C   0  0  0  0  0  0  0  0  0  0  0  0
   29.0886    6.3882  -44.0363 N   0  0  0  0  0  0  0  0  0  0  0  0
   30.4022    6.0797  -44.7136 C   0  0  0  0  0  0  0  0  0  0  0  0
   28.2901    7.3436  -44.8909 C   0  0  0  0  0  0  0  0  0  0  0  0
   29.1317    7.6499  -46.0749 C   0  0  0  0  0  0  0  0  0  0  0  0
   30.3340    6.7508  -46.0579 C   0  0  0  0  0  0  0  0  0  0  0  0
   31.5888    6.6272  -43.8870 C   0  0  0  0  0  0  0  0  0  0  0  0
   31.8096    7.8171  -43.7801 O   0  0  0  0  0  0  0  0  0  0  0  0
   32.3384    5.7552  -43.3100 O   0  0  0  0  0  0  0  0  0  0  0  0
   32.1522    4.8417  -43.4041 H   0  0  0  0  0  0  0  0  0  0  0  0
   27.4383    6.2110  -42.1370 C   0  0  0  0  0  0  0  0  0  0  0  0
   27.6937    7.4490  -41.2624 C   0  0  0  0  0  0  0  0  0  0  0  0
   26.9858    4.9884  -41.3302 C   0  0  0  0  0  0  0  0  0  0  0  0
   27.0091    5.2179  -39.5514 S   0  0  0  0  0  0  0  0  0  0  0  0
   28.2842    5.4535  -39.1413 H   0  0  0  0  0  0  0  0  0  0  0  0
  1  2  2  0  0  0
  2 12  1  0  0  0
  2  3  1  0  0  0
 12 14  1  0  0  0
 12 13  1  0  0  0
 14 15  1  0  0  0
  3  4  1  0  0  0
  3  5  1  0  0  0
  4  8  1  0  0  0
  4  7  1  0  0  0
  8  9  2  0  0  0
  8 10  1  0  0  0
  5  6  1  0  0  0
  6  7  1  0  0  0
 15 16  1  0  0  0
 10 11  1  0  0  0
M  END
> <minimizedAffinity>
-5.58310

$$$$
2X8Z_X8Z_A_1615


 16 16  0  0  0  0  0  0  0  0999 V2000
   30.6286    7.5698  -42.1082 O   0  0  0  0  0  0  0  0  0  0  0  0
   29.7940    7.3110  -43.0319 C   0  0  0  0  0  0  0  0  0  0  0  0
   29.4717    6.0239  -43.2883 N   0  0  0  0  0  0  0  0  0  0  0  0
   30.0867    4.8731  -42.5287 C   0  0  0  0  0  0  0  0  0  0  0  0
   28.5155    5.4908  -44.3285 C   0  0  0  0  0  0  0  0  0  0  0  0
   28.5732    4.0106  -44.2312 C   0  0  0  0  0  0  0  0  0  0  0  0
   29.3878    3.6377  -43.0263 C   0  0  0  0  0  0  0  0  0  0  0  0
   31.6073    4.7881  -42.7959 C   0  0  0  0  0  0  0  0  0  0  0  0
   32.0582    4.4907  -43.8841 O   0  0  0  0  0  0  0  0  0  0  0  0
   32.3812    5.0515  -41.8025 O   0  0  0  0  0  0  0  0  0  0  0  0
   32.0148    5.2790  -40.9706 H   0  0  0  0  0  0  0  0  0  0  0  0
   29.1940    8.4715  -43.8309 C   0  0  0  0  0  0  0  0  0  0  0  0
   30.3239    9.0770  -44.6790 C   0  0  0  0  0  0  0  0  0  0  0  0
   28.5830    9.4713  -42.8423 C   0  0  0  0  0  0  0  0  0  0  0  0
   27.3153   10.5311  -43.5403 S   0  0  0  0  0  0  0  0  0  0  0  0
   27.8573   11.2996  -44.5227 H   0  0  0  0  0  0  0  0  0  0  0  0
  1  2  2  0  0  0
  2 12  1  0  0  0
  2  3  1  0  0  0
 12 14  1  0  0  0
 12 13  1  0  0  0
 14 15  1  0  0  0
  3  4  1  0  0  0
  3  5  1  0  0  0
  4  8  1  0  0  0
  4  7  1  0  0  0
  8  9  2  0  0  0
  8 10  1  0  0  0
  5  6  1  0  0  0
  6  7  1  0  0  0
 15 16  1  0  0  0
 10 11  1  0  0  0
M  END
> <minimizedAffinity>
-5.54272

$$$$
2X8Z_X8Z_A_1615


 16 16  0  0  0  0  0  0  0  0999 V2000
   26.7555    8.2293  -43.0023 O   0  0  0  0  0  0  0  0  0  0  0  0
   27.7851    7.4985  -42.8516 C   0  0  0  0  0  0  0  0  0  0  0  0
   28.9205    7.8136  -43.5132 N   0  0  0  0  0  0  0  0  0  0  0  0
   29.0060    8.9961  -44.4481 C   0  0  0  0  0  0  0  0  0  0  0  0
   30.2476    7.0936  -43.4846 C   0  0  0  0  0  0  0  0  0  0  0  0
   31.1355    7.8138  -44.4317 C   0  0  0  0  0  0  0  0  0  0  0  0
   30.4443    9.0684  -44.8819 C   0  0  0  0  0  0  0  0  0  0  0  0
   28.0747    8.8016  -45.6671 C   0  0  0  0  0  0  0  0  0  0  0  0
   27.0871    9.4867  -45.8437 O   0  0  0  0  0  0  0  0  0  0  0  0
   28.3986    7.8722  -46.4956 O   0  0  0  0  0  0  0  0  0  0  0  0
   29.1642    7.3540  -46.3425 H   0  0  0  0  0  0  0  0  0  0  0  0
   27.6946    6.2763  -41.9333 C   0  0  0  0  0  0  0  0  0  0  0  0
   26.6506    5.3242  -42.5385 C   0  0  0  0  0  0  0  0  0  0  0  0
   27.3239    6.7583  -40.5260 C   0  0  0  0  0  0  0  0  0  0  0  0
   26.9999    5.4445  -39.3485 S   0  0  0  0  0  0  0  0  0  0  0  0
   25.9263    4.7194  -39.7624 H   0  0  0  0  0  0  0  0  0  0  0  0
  1  2  2  0  0  0
  2 12  1  0  0  0
  2  3  1  0  0  0
 12 14  1  0  0  0
 12 13  1  0  0  0
 14 15  1  0  0  0
  3  4  1  0  0  0
  3  5  1  0  0  0
  4  8  1  0  0  0
  4  7  1  0  0  0
  8  9  2  0  0  0
  8 10  1  0  0  0
  5  6  1  0  0  0
  6  7  1  0  0  0
 15 16  1  0  0  0
 10 11  1  0  0  0
M  END
> <minimizedAffinity>
-5.41865

$$$$
2X8Z_X8Z_A_1615


 16 16  0  0  0  0  0  0  0  0999 V2000
   27.3515    8.0494  -41.8462 O   0  0  0  0  0  0  0  0  0  0  0  0
   27.8122    7.4077  -42.8425 C   0  0  0  0  0  0  0  0  0  0  0  0
   28.3022    8.0929  -43.8993 N   0  0  0  0  0  0  0  0  0  0  0  0
   28.3024    9.6018  -43.9507 C   0  0  0  0  0  0  0  0  0  0  0  0
   28.8914    7.5425  -45.1762 C   0  0  0  0  0  0  0  0  0  0  0  0
   29.2182    8.7149  -46.0262 C   0  0  0  0  0  0  0  0  0  0  0  0
   29.0274    9.9654  -45.2174 C   0  0  0  0  0  0  0  0  0  0  0  0
   26.8572   10.1515  -43.9690 C   0  0  0  0  0  0  0  0  0  0  0  0
   26.1065    9.9690  -44.9065 O   0  0  0  0  0  0  0  0  0  0  0  0
   26.4819   10.8165  -42.9336 O   0  0  0  0  0  0  0  0  0  0  0  0
   27.0752   10.9469  -42.2201 H   0  0  0  0  0  0  0  0  0  0  0  0
   27.7815    5.8769  -42.8126 C   0  0  0  0  0  0  0  0  0  0  0  0
   26.4815    5.4580  -42.1073 C   0  0  0  0  0  0  0  0  0  0  0  0
   29.0417    5.3843  -42.0919 C   0  0  0  0  0  0  0  0  0  0  0  0
   30.1789    4.4592  -43.1256 S   0  0  0  0  0  0  0  0  0  0  0  0
   29.5686    3.3288  -43.5720 H   0  0  0  0  0  0  0  0  0  0  0  0
  1  2  2  0  0  0
  2 12  1  0  0  0
  2  3  1  0  0  0
 12 14  1  0  0  0
 12 13  1  0  0  0
 14 15  1  0  0  0
  3  4  1  0  0  0
  3  5  1  0  0  0
  4  8  1  0  0  0
  4  7  1  0  0  0
  8  9  2  0  0  0
  8 10  1  0  0  0
  5  6  1  0  0  0
  6  7  1  0  0  0
 15 16  1  0  0  0
 10 11  1  0  0  0
M  END
> <minimizedAffinity>
-5.31363

$$$$
2X8Z_X8Z_A_1615


 16 16  0  0  0  0  0  0  0  0999 V2000
   29.6509    5.6573  -44.8335 O   0  0  0  0  0  0  0  0  0  0  0  0
   28.5862    5.9371  -44.1972 C   0  0  0  0  0  0  0  0  0  0  0  0
   27.9867    7.1300  -44.4065 N   0  0  0  0  0  0  0  0  0  0  0  0
   28.5501    8.1586  -45.3574 C   0  0  0  0  0  0  0  0  0  0  0  0
   26.7289    7.6673  -43.7664 C   0  0  0  0  0  0  0  0  0  0  0  0
   26.5424    9.0410  -44.2974 C   0  0  0  0  0  0  0  0  0  0  0  0
   27.5425    9.2748  -45.3926 C   0  0  0  0  0  0  0  0  0  0  0  0
   29.9213    8.6731  -44.8613 C   0  0  0  0  0  0  0  0  0  0  0  0
   30.0233    9.6162  -44.1023 O   0  0  0  0  0  0  0  0  0  0  0  0
   30.9600    8.0485  -45.2927 O   0  0  0  0  0  0  0  0  0  0  0  0
   30.8613    7.3233  -45.8777 H   0  0  0  0  0  0  0  0  0  0  0  0
   28.0294    4.9132  -43.2039 C   0  0  0  0  0  0  0  0  0  0  0  0
   28.4950    5.3351  -41.8010 C   0  0  0  0  0  0  0  0  0  0  0  0
   28.5332    3.5239  -43.6117 C   0  0  0  0  0  0  0  0  0  0  0  0
   27.2680    2.2530  -43.6499 S   0  0  0  0  0  0  0  0  0  0  0  0
   26.7561    2.0852  -42.4012 H   0  0  0  0  0  0  0  0  0  0  0  0
  1  2  2  0  0  0
  2 12  1  0  0  0
  2  3  1  0  0  0
 12 14  1  0  0  0
 12 13  1  0  0  0
 14 15  1  0  0  0
  3  4  1  0  0  0
  3  5  1  0  0  0
  4  8  1  0  0  0
  4  7  1  0  0  0
  8  9  2  0  0  0
  8 10  1  0  0  0
  5  6  1  0  0  0
  6  7  1  0  0  0
 15 16  1  0  0  0
 10 11  1  0  0  0
M  END
> <minimizedAffinity>
-5.29349

$$$$
2X8Z_X8Z_A_1615


 16 16  0  0  0  0  0  0  0  0999 V2000
   29.7170   10.1157  -43.4913 O   0  0  0  0  0  0  0  0  0  0  0  0
   29.9846    9.0214  -42.9017 C   0  0  0  0  0  0  0  0  0  0  0  0
   30.4989    7.9958  -43.6157 N   0  0  0  0  0  0  0  0  0  0  0  0
   30.7483    8.0942  -45.1015 C   0  0  0  0  0  0  0  0  0  0  0  0
   30.8864    6.6204  -43.1271 C   0  0  0  0  0  0  0  0  0  0  0  0
   31.3382    5.8634  -44.3215 C   0  0  0  0  0  0  0  0  0  0  0  0
   31.4233    6.8065  -45.4867 C   0  0  0  0  0  0  0  0  0  0  0  0
   29.4189    8.2681  -45.8718 C   0  0  0  0  0  0  0  0  0  0  0  0
   28.6060    7.3708  -45.9721 O   0  0  0  0  0  0  0  0  0  0  0  0
   29.2102    9.4199  -46.4058 O   0  0  0  0  0  0  0  0  0  0  0  0
   29.8489   10.0997  -46.3177 H   0  0  0  0  0  0  0  0  0  0  0  0
   29.6998    8.9025  -41.4017 C   0  0  0  0  0  0  0  0  0  0  0  0
   28.3644    9.6136  -41.1306 C   0  0  0  0  0  0  0  0  0  0  0  0
   30.8762    9.5217  -40.6381 C   0  0  0  0  0  0  0  0  0  0  0  0
   30.4513   10.1925  -39.0297 S   0  0  0  0  0  0  0  0  0  0  0  0
   29.5617   11.2096  -39.1833 H   0  0  0  0  0  0  0  0  0  0  0  0
  1  2  2  0  0  0
  2 12  1  0  0  0
  2  3  1  0  0  0
 12 14  1  0  0  0
 12 13  1  0  0  0
 14 15  1  0  0  0
  3  4  1  0  0  0
  3  5  1  0  0  0
  4  8  1  0  0  0
  4  7  1  0  0  0
  8  9  2  0  0  0
  8 10  1  0  0  0
  5  6  1  0  0  0
  6  7  1  0  0  0
 15 16  1  0  0  0
 10 11  1  0  0  0
M  END
> <minimizedAffinity>
-5.29282

$$$$
2X8Z_X8Z_A_1615


 16 16  0  0  0  0  0  0  0  0999 V2000
   28.2983    8.7930  -42.2196 O   0  0  0  0  0  0  0  0  0  0  0  0
   28.6158    7.6398  -42.6509 C   0  0  0  0  0  0  0  0  0  0  0  0
   29.6869    7.5116  -43.4649 N   0  0  0  0  0  0  0  0  0  0  0  0
   30.5127    8.6976  -43.9019 C   0  0  0  0  0  0  0  0  0  0  0  0
   30.2389    6.2523  -44.0894 C   0  0  0  0  0  0  0  0  0  0  0  0
   31.3811    6.6723  -44.9396 C   0  0  0  0  0  0  0  0  0  0  0  0
   31.6595    8.1264  -44.6899 C   0  0  0  0  0  0  0  0  0  0  0  0
   29.6738    9.6602  -44.7740 C   0  0  0  0  0  0  0  0  0  0  0  0
   29.2707    9.3500  -45.8773 O   0  0  0  0  0  0  0  0  0  0  0  0
   29.4182   10.8165  -44.2711 O   0  0  0  0  0  0  0  0  0  0  0  0
   29.7377   11.0376  -43.4185 H   0  0  0  0  0  0  0  0  0  0  0  0
   27.7606    6.4374  -42.2411 C   0  0  0  0  0  0  0  0  0  0  0  0
   26.5535    6.3879  -43.1914 C   0  0  0  0  0  0  0  0  0  0  0  0
   27.3612    6.6096  -40.7710 C   0  0  0  0  0  0  0  0  0  0  0  0
   28.6853    6.3116  -39.5982 S   0  0  0  0  0  0  0  0  0  0  0  0
   29.0971    5.0193  -39.6982 H   0  0  0  0  0  0  0  0  0  0  0  0
  1  2  2  0  0  0
  2 12  1  0  0  0
  2  3  1  0  0  0
 12 14  1  0  0  0
 12 13  1  0  0  0
 14 15  1  0  0  0
  3  4  1  0  0  0
  3  5  1  0  0  0
  4  8  1  0  0  0
  4  7  1  0  0  0
  8  9  2  0  0  0
  8 10  1  0  0  0
  5  6  1  0  0  0
  6  7  1  0  0  0
 15 16  1  0  0  0
 10 11  1  0  0  0
M  END
> <minimizedAffinity>
-5.19404

$$$$
2X8Z_X8Z_A_1615


 16 16  0  0  0  0  0  0  0  0999 V2000
   28.4568    5.2774  -41.8898 O   0  0  0  0  0  0  0  0  0  0  0  0
   29.0714    6.3904  -41.9044 C   0  0  0  0  0  0  0  0  0  0  0  0
   29.9029    6.6715  -42.9319 N   0  0  0  0  0  0  0  0  0  0  0  0
   30.1479    5.6975  -44.0592 C   0  0  0  0  0  0  0  0  0  0  0  0
   30.7270    7.9178  -43.1513 C   0  0  0  0  0  0  0  0  0  0  0  0
   31.5060    7.6915  -44.3946 C   0  0  0  0  0  0  0  0  0  0  0  0
   31.0260    6.4240  -45.0407 C   0  0  0  0  0  0  0  0  0  0  0  0
   30.8466    4.4197  -43.5397 C   0  0  0  0  0  0  0  0  0  0  0  0
   32.0498    4.3569  -43.3842 O   0  0  0  0  0  0  0  0  0  0  0  0
   30.0865    3.4160  -43.2751 O   0  0  0  0  0  0  0  0  0  0  0  0
   29.1605    3.4834  -43.4014 H   0  0  0  0  0  0  0  0  0  0  0  0
   28.8558    7.3678  -40.7454 C   0  0  0  0  0  0  0  0  0  0  0  0
   29.8262    6.9687  -39.6222 C   0  0  0  0  0  0  0  0  0  0  0  0
   27.3841    7.2950  -40.3220 C   0  0  0  0  0  0  0  0  0  0  0  0
   27.0712    7.7812  -38.6241 S   0  0  0  0  0  0  0  0  0  0  0  0
   27.7182    6.9310  -37.7825 H   0  0  0  0  0  0  0  0  0  0  0  0
  1  2  2  0  0  0
  2 12  1  0  0  0
  2  3  1  0  0  0
 12 14  1  0  0  0
 12 13  1  0  0  0
 14 15  1  0  0  0
  3  4  1  0  0  0
  3  5  1  0  0  0
  4  8  1  0  0  0
  4  7  1  0  0  0
  8  9  2  0  0  0
  8 10  1  0  0  0
  5  6  1  0  0  0
  6  7  1  0  0  0
 15 16  1  0  0  0
 10 11  1  0  0  0
M  END
> <minimizedAffinity>
-5.11508

$$$$
