2X8Z_X8Z_A_1615
  RCSB PDB12061707233D
Coordinates from PDB:2X8Z:A:1615 Model:1 without hydrogens
 14 14  0  0  0  0            999 V2000
   29.5500    2.8090  -42.5400   O 0  0  0  0  0  0  0  0  0  0  0  0
   29.0130    3.7410  -43.2180   C 0  0  0  0  0  0  0  0  0  0  0  0
   27.4920    3.7420  -43.3960   C 0  0  0  0  0  0  0  0  0  0  0  0
   27.0060    2.2880  -43.3910   C 0  0  0  0  0  0  0  0  0  0  0  0
   27.1070    1.4620  -44.9800   S 0  0  0  0  0  0  0  0  0  0  0  0
   26.8970    4.5800  -42.2530   C 0  0  0  0  0  0  0  0  0  0  0  0
   29.7960    4.7060  -43.7490   N 0  0  0  0  0  0  0  0  0  0  0  0
   31.2920    4.7310  -43.5470   C 0  0  0  0  0  0  0  0  0  0  0  0
   31.6420    4.9440  -42.0560   C 0  0  0  0  0  0  0  0  0  0  0  0
   30.8550    5.4310  -41.2690   O 0  0  0  0  0  0  0  0  0  0  0  0
   32.8170    4.5760  -41.6830   O 0  0  0  0  0  0  0  0  0  0  0  0
   29.3770    5.8960  -44.5790   C 0  0  0  0  0  0  0  0  0  0  0  0
   30.6130    6.6710  -44.8540   C 0  0  0  0  0  0  0  0  0  0  0  0
   31.7960    5.8760  -44.3820   C 0  0  0  0  0  0  0  0  0  0  0  0
  1  2  2  0  0  0  0
  2  3  1  0  0  0  0
  2  7  1  0  0  0  0
  3  4  1  0  0  0  0
  3  6  1  0  0  0  0
  4  5  1  0  0  0  0
  7  8  1  0  0  0  0
  7 12  1  0  0  0  0
  8  9  1  0  0  0  0
  8 14  1  0  0  0  0
  9 10  2  0  0  0  0
  9 11  1  0  0  0  0
 12 13  1  0  0  0  0
 13 14  1  0  0  0  0
A    1
O1
A    2
C4
A    3
C2
A    4
C1
A    5
S
A    6
C3
A    7
N
A    8
C8
A    9
C9
A   10
O3
A   11
O2
A   12
C5
A   13
C6
A   14
C7
M  END
>  <InstanceId>
2X8Z_X8Z_A_1615

>  <ChemCompId>
X8Z

>  <PdbId>
2X8Z

>  <ChainId>
A

>  <ResidueNumber>
1615

>  <InsertionCode>


>  <Model>
1

>  <AltIds>


>  <MissingHeavyAtoms>
0

>  <ObservedFormula>
C9 N O3 S

>  <Name>
L-CAPTOPRIL

>  <SystematicName>
(2S)-1-[(2S)-2-methyl-3-sulfanyl-propanoyl]pyrrolidine-2-carboxylic acid

>  <Synonyms>


>  <Type>
NON-POLYMER

>  <Formula>
C9 H15 N O3 S

>  <MolecularWeight>
217.285

>  <ModifiedDate>
2011-06-04

>  <Parent>


>  <OneLetterCode>


>  <SubcomponentList>
PRO CC8

>  <AmbiguousFlag>
N

>  <InChI>
InChI=1S/C9H15NO3S/c1-6(5-14)8(11)10-4-2-3-7(10)9(12)13/h6-7,14H,2-5H2,1H3,(H,12,13)/t6-,7+/m1/s1

>  <InChIKey>
FAKRSMQSSFJEIM-RQJHMYQMSA-N

>  <SMILES>
C[C@H](CS)C(=O)N1CCC[C@H]1C(=O)O

$$$$
