2ZXG_S23_A_901


 34 35  0  0  0  0  0  0  0  0999 V2000
   72.9786   51.5426    8.1087 C   0  0  0  0  0  0  0  0  0  0  0  0
   72.4509   50.3962    7.2551 C   0  0  0  0  0  0  0  0  0  0  0  0
   71.8174   50.5875    6.2279 O   0  0  0  0  0  0  0  0  0  0  0  0
   72.6963   49.1582    7.7138 N   0  0  0  0  0  0  0  0  0  0  0  0
   73.3326   49.0525    8.4576 H   0  0  0  0  0  0  0  0  0  0  0  0
   72.0671   47.9622    7.1650 C   0  0  0  0  0  0  0  0  0  0  0  0
   71.4906   47.1241    8.2736 C   0  0  0  0  0  0  0  0  0  0  0  0
   71.6442   47.5138    9.4577 O   0  0  0  0  0  0  0  0  0  0  0  0
   70.8897   46.0679    7.9809 O   0  0  0  0  0  0  0  0  0  0  0  0
   70.7978   45.8145    7.0835 H   0  0  0  0  0  0  0  0  0  0  0  0
   73.0687   47.1116    6.3817 C   0  0  0  0  0  0  0  0  0  0  0  0
   73.4552   47.7341    5.0544 C   0  0  0  0  0  0  0  0  0  0  0  0
   74.8069   47.8822    4.7236 C   0  0  0  0  0  0  0  0  0  0  0  0
   75.1740   48.4633    3.5055 C   0  0  0  0  0  0  0  0  0  0  0  0
   74.1873   48.8974    2.6170 C   0  0  0  0  0  0  0  0  0  0  0  0
   72.8326   48.7233    2.9377 C   0  0  0  0  0  0  0  0  0  0  0  0
   72.4635   48.1573    4.1644 C   0  0  0  0  0  0  0  0  0  0  0  0
   71.9685   52.0683    9.1732 C   0  0  0  0  0  0  0  0  0  0  0  0
   72.7711   54.4557    9.1851 O   0  0  0  0  0  0  0  0  0  0  0  0
   71.6102   53.6231    9.2026 P   0  0  0  0  0  0  0  0  0  0  0  0
   70.8487   54.0035    8.0172 O   0  0  0  0  0  0  0  0  0  0  0  0
   71.3642   53.7972    7.2218 H   0  0  0  0  0  0  0  0  0  0  0  0
   70.7415   53.9718   10.5070 C   0  0  0  0  0  0  0  0  0  0  0  0
   69.5773   53.1025   10.7107 N   0  0  0  0  0  0  0  0  0  0  0  0
   71.4879   53.8685   11.8457 C   0  0  0  0  0  0  0  0  0  0  0  0
   69.8927   52.1562   10.9238 H   0  0  0  0  0  0  0  0  0  0  0  0
   69.0105   53.0891    9.8628 H   0  0  0  0  0  0  0  0  0  0  0  0
   74.3291   51.0997    8.7267 C   0  0  0  0  0  0  0  0  0  0  0  0
   75.4828   51.4263    7.7849 C   0  0  0  0  0  0  0  0  0  0  0  0
   75.3979   51.0496    6.4395 C   0  0  0  0  0  0  0  0  0  0  0  0
   76.4491   51.3259    5.5640 C   0  0  0  0  0  0  0  0  0  0  0  0
   77.5885   51.9671    6.0465 C   0  0  0  0  0  0  0  0  0  0  0  0
   77.6976   52.3345    7.3879 C   0  0  0  0  0  0  0  0  0  0  0  0
   76.6354   52.0710    8.2629 C   0  0  0  0  0  0  0  0  0  0  0  0
 19 20  2  0  0  0
 18 20  1  0  0  0
 20 21  1  0  0  0
 20 23  1  0  0  0
 23 24  1  0  0  0
 23 25  1  0  0  0
  1 18  1  0  0  0
 28  1  1  0  0  0
  1  2  1  0  0  0
 29 28  1  0  0  0
 34 29  2  0  0  0
 30 29  1  0  0  0
 31 30  2  0  0  0
 32 31  1  0  0  0
 32 33  2  0  0  0
 33 34  1  0  0  0
  3  2  2  0  0  0
  2  4  1  0  0  0
  6  4  1  0  0  0
  7  6  1  0  0  0
  6 11  1  0  0  0
  8  7  2  0  0  0
  7  9  1  0  0  0
 11 12  1  0  0  0
 13 12  2  0  0  0
 12 17  1  0  0  0
 13 14  1  0  0  0
 14 15  2  0  0  0
 15 16  1  0  0  0
 17 16  2  0  0  0
 21 22  1  0  0  0
 24 26  1  0  0  0
 24 27  1  0  0  0
  4  5  1  0  0  0
  9 10  1  0  0  0
M  END
> <minimizedAffinity>
-9.45939

$$$$
2ZXG_S23_A_901


 34 35  0  0  0  0  0  0  0  0999 V2000
   72.6666   48.7568    6.7058 C   0  0  0  0  0  0  0  0  0  0  0  0
   72.7950   49.9546    7.6385 C   0  0  0  0  0  0  0  0  0  0  0  0
   72.7209   49.8448    8.8532 O   0  0  0  0  0  0  0  0  0  0  0  0
   72.9645   51.1478    7.0459 N   0  0  0  0  0  0  0  0  0  0  0  0
   73.1663   51.1671    6.0825 H   0  0  0  0  0  0  0  0  0  0  0  0
   72.8644   52.4165    7.7585 C   0  0  0  0  0  0  0  0  0  0  0  0
   71.7107   53.2215    7.2250 C   0  0  0  0  0  0  0  0  0  0  0  0
   71.5445   53.2740    5.9812 O   0  0  0  0  0  0  0  0  0  0  0  0
   70.9659   53.8165    8.0334 O   0  0  0  0  0  0  0  0  0  0  0  0
   71.1261   53.7502    8.9542 H   0  0  0  0  0  0  0  0  0  0  0  0
   74.1436   53.2429    7.6131 C   0  0  0  0  0  0  0  0  0  0  0  0
   75.1211   52.6415    6.6226 C   0  0  0  0  0  0  0  0  0  0  0  0
   76.1388   51.7952    7.0769 C   0  0  0  0  0  0  0  0  0  0  0  0
   77.0511   51.2423    6.1724 C   0  0  0  0  0  0  0  0  0  0  0  0
   76.9453   51.5367    4.8109 C   0  0  0  0  0  0  0  0  0  0  0  0
   75.9080   52.3631    4.3532 C   0  0  0  0  0  0  0  0  0  0  0  0
   75.0043   52.9312    5.2598 C   0  0  0  0  0  0  0  0  0  0  0  0
   71.5558   47.7420    7.1130 C   0  0  0  0  0  0  0  0  0  0  0  0
   71.6900   45.2785    6.6063 O   0  0  0  0  0  0  0  0  0  0  0  0
   71.9774   46.2775    7.5864 P   0  0  0  0  0  0  0  0  0  0  0  0
   73.4182   46.1964    7.8044 O   0  0  0  0  0  0  0  0  0  0  0  0
   73.8827   46.4261    6.9844 H   0  0  0  0  0  0  0  0  0  0  0  0
   71.2271   45.8943    8.9531 C   0  0  0  0  0  0  0  0  0  0  0  0
   71.7824   44.7243    9.6424 N   0  0  0  0  0  0  0  0  0  0  0  0
   71.2438   46.9771   10.0428 C   0  0  0  0  0  0  0  0  0  0  0  0
   72.7202   44.9417    9.9797 H   0  0  0  0  0  0  0  0  0  0  0  0
   71.8279   43.9378    8.9945 H   0  0  0  0  0  0  0  0  0  0  0  0
   72.4957   49.2892    5.2603 C   0  0  0  0  0  0  0  0  0  0  0  0
   73.7440   49.0040    4.4325 C   0  0  0  0  0  0  0  0  0  0  0  0
   74.7865   48.2600    4.9971 C   0  0  0  0  0  0  0  0  0  0  0  0
   75.9439   48.0003    4.2616 C   0  0  0  0  0  0  0  0  0  0  0  0
   76.0560   48.5015    2.9660 C   0  0  0  0  0  0  0  0  0  0  0  0
   75.0342   49.2593    2.3934 C   0  0  0  0  0  0  0  0  0  0  0  0
   73.8660   49.5062    3.1265 C   0  0  0  0  0  0  0  0  0  0  0  0
 19 20  2  0  0  0
 18 20  1  0  0  0
 20 21  1  0  0  0
 20 23  1  0  0  0
 23 24  1  0  0  0
 23 25  1  0  0  0
  1 18  1  0  0  0
 28  1  1  0  0  0
  1  2  1  0  0  0
 29 28  1  0  0  0
 34 29  2  0  0  0
 30 29  1  0  0  0
 31 30  2  0  0  0
 32 31  1  0  0  0
 32 33  2  0  0  0
 33 34  1  0  0  0
  3  2  2  0  0  0
  2  4  1  0  0  0
  6  4  1  0  0  0
  7  6  1  0  0  0
  6 11  1  0  0  0
  8  7  2  0  0  0
  7  9  1  0  0  0
 11 12  1  0  0  0
 13 12  2  0  0  0
 12 17  1  0  0  0
 13 14  1  0  0  0
 14 15  2  0  0  0
 15 16  1  0  0  0
 17 16  2  0  0  0
 21 22  1  0  0  0
 24 26  1  0  0  0
 24 27  1  0  0  0
  4  5  1  0  0  0
  9 10  1  0  0  0
M  END
> <minimizedAffinity>
-9.12235

$$$$
2ZXG_S23_A_901


 34 35  0  0  0  0  0  0  0  0999 V2000
   73.2897   51.5952    7.7556 C   0  0  0  0  0  0  0  0  0  0  0  0
   72.7150   50.5537    6.8036 C   0  0  0  0  0  0  0  0  0  0  0  0
   71.8134   50.8141    6.0211 O   0  0  0  0  0  0  0  0  0  0  0  0
   73.2372   49.3198    6.8949 N   0  0  0  0  0  0  0  0  0  0  0  0
   74.0553   49.1964    7.4285 H   0  0  0  0  0  0  0  0  0  0  0  0
   72.6526   48.1534    6.2428 C   0  0  0  0  0  0  0  0  0  0  0  0
   72.3294   47.0962    7.2634 C   0  0  0  0  0  0  0  0  0  0  0  0
   73.2079   46.2407    7.5349 O   0  0  0  0  0  0  0  0  0  0  0  0
   71.1989   47.0988    7.7968 O   0  0  0  0  0  0  0  0  0  0  0  0
   70.5729   47.7563    7.5648 H   0  0  0  0  0  0  0  0  0  0  0  0
   73.6055   47.5549    5.2064 C   0  0  0  0  0  0  0  0  0  0  0  0
   73.9577   48.5307    4.1009 C   0  0  0  0  0  0  0  0  0  0  0  0
   75.2969   48.8630    3.8677 C   0  0  0  0  0  0  0  0  0  0  0  0
   75.6318   49.7690    2.8562 C   0  0  0  0  0  0  0  0  0  0  0  0
   74.6251   50.3439    2.0768 C   0  0  0  0  0  0  0  0  0  0  0  0
   73.2851   49.9891    2.2932 C   0  0  0  0  0  0  0  0  0  0  0  0
   72.9469   49.0952    3.3170 C   0  0  0  0  0  0  0  0  0  0  0  0
   72.2948   52.0801    8.8532 C   0  0  0  0  0  0  0  0  0  0  0  0
   73.2522   54.3960    8.6007 O   0  0  0  0  0  0  0  0  0  0  0  0
   72.1725   53.6423    9.1551 P   0  0  0  0  0  0  0  0  0  0  0  0
   70.9671   54.1964    8.5469 O   0  0  0  0  0  0  0  0  0  0  0  0
   70.9892   54.0448    7.5891 H   0  0  0  0  0  0  0  0  0  0  0  0
   72.1173   53.9029   10.7384 C   0  0  0  0  0  0  0  0  0  0  0  0
   73.3152   54.5462   11.2894 N   0  0  0  0  0  0  0  0  0  0  0  0
   70.9815   54.8193   11.2186 C   0  0  0  0  0  0  0  0  0  0  0  0
   73.3861   55.4979   10.9292 H   0  0  0  0  0  0  0  0  0  0  0  0
   74.1424   54.0163   11.0149 H   0  0  0  0  0  0  0  0  0  0  0  0
   74.6087   51.0330    8.3440 C   0  0  0  0  0  0  0  0  0  0  0  0
   75.8121   51.5914    7.5926 C   0  0  0  0  0  0  0  0  0  0  0  0
   76.8584   52.1794    8.3128 C   0  0  0  0  0  0  0  0  0  0  0  0
   77.9622   52.7098    7.6434 C   0  0  0  0  0  0  0  0  0  0  0  0
   78.0045   52.6606    6.2512 C   0  0  0  0  0  0  0  0  0  0  0  0
   76.9630   52.0937    5.5162 C   0  0  0  0  0  0  0  0  0  0  0  0
   75.8625   51.5473    6.1896 C   0  0  0  0  0  0  0  0  0  0  0  0
 19 20  2  0  0  0
 18 20  1  0  0  0
 20 21  1  0  0  0
 20 23  1  0  0  0
 23 24  1  0  0  0
 23 25  1  0  0  0
  1 18  1  0  0  0
 28  1  1  0  0  0
  1  2  1  0  0  0
 29 28  1  0  0  0
 34 29  2  0  0  0
 30 29  1  0  0  0
 31 30  2  0  0  0
 32 31  1  0  0  0
 32 33  2  0  0  0
 33 34  1  0  0  0
  3  2  2  0  0  0
  2  4  1  0  0  0
  6  4  1  0  0  0
  7  6  1  0  0  0
  6 11  1  0  0  0
  8  7  2  0  0  0
  7  9  1  0  0  0
 11 12  1  0  0  0
 13 12  2  0  0  0
 12 17  1  0  0  0
 13 14  1  0  0  0
 14 15  2  0  0  0
 15 16  1  0  0  0
 17 16  2  0  0  0
 21 22  1  0  0  0
 24 26  1  0  0  0
 24 27  1  0  0  0
  4  5  1  0  0  0
  9 10  1  0  0  0
M  END
> <minimizedAffinity>
-8.86058

$$$$
2ZXG_S23_A_901


 34 35  0  0  0  0  0  0  0  0999 V2000
   73.3141   52.1423    7.8532 C   0  0  0  0  0  0  0  0  0  0  0  0
   72.6359   51.4590    6.6723 C   0  0  0  0  0  0  0  0  0  0  0  0
   71.7480   51.9993    6.0298 O   0  0  0  0  0  0  0  0  0  0  0  0
   73.0500   50.2119    6.3955 N   0  0  0  0  0  0  0  0  0  0  0  0
   73.8626   49.8792    6.8407 H   0  0  0  0  0  0  0  0  0  0  0  0
   72.3558   49.3257    5.4680 C   0  0  0  0  0  0  0  0  0  0  0  0
   72.3319   47.9226    6.0107 C   0  0  0  0  0  0  0  0  0  0  0  0
   72.9287   47.6907    7.0912 O   0  0  0  0  0  0  0  0  0  0  0  0
   71.7302   47.0370    5.3657 O   0  0  0  0  0  0  0  0  0  0  0  0
   71.2977   47.2539    4.5633 H   0  0  0  0  0  0  0  0  0  0  0  0
   73.0349   49.3064    4.0973 C   0  0  0  0  0  0  0  0  0  0  0  0
   74.5479   49.3250    4.1920 C   0  0  0  0  0  0  0  0  0  0  0  0
   75.2236   50.5470    4.2845 C   0  0  0  0  0  0  0  0  0  0  0  0
   76.6196   50.5754    4.3634 C   0  0  0  0  0  0  0  0  0  0  0  0
   77.3412   49.3793    4.3494 C   0  0  0  0  0  0  0  0  0  0  0  0
   76.6613   48.1537    4.2844 C   0  0  0  0  0  0  0  0  0  0  0  0
   75.2644   48.1244    4.1880 C   0  0  0  0  0  0  0  0  0  0  0  0
   72.4377   52.2202    9.1399 C   0  0  0  0  0  0  0  0  0  0  0  0
   72.6642   54.6728    9.6668 O   0  0  0  0  0  0  0  0  0  0  0  0
   71.7315   53.6010    9.5161 P   0  0  0  0  0  0  0  0  0  0  0  0
   70.8262   54.0281    8.4541 O   0  0  0  0  0  0  0  0  0  0  0  0
   71.3219   54.1243    7.6259 H   0  0  0  0  0  0  0  0  0  0  0  0
   70.8935   53.4476   10.8769 C   0  0  0  0  0  0  0  0  0  0  0  0
   69.5427   54.0176   10.8249 N   0  0  0  0  0  0  0  0  0  0  0  0
   70.6417   52.0043   11.3393 C   0  0  0  0  0  0  0  0  0  0  0  0
   68.9716   53.4798   10.1730 H   0  0  0  0  0  0  0  0  0  0  0  0
   69.5945   54.9869   10.5118 H   0  0  0  0  0  0  0  0  0  0  0  0
   74.6772   51.4450    8.0941 C   0  0  0  0  0  0  0  0  0  0  0  0
   75.8265   52.4198    7.8628 C   0  0  0  0  0  0  0  0  0  0  0  0
   77.1370   51.9324    7.7979 C   0  0  0  0  0  0  0  0  0  0  0  0
   78.2048   52.8095    7.6017 C   0  0  0  0  0  0  0  0  0  0  0  0
   77.9535   54.1754    7.4857 C   0  0  0  0  0  0  0  0  0  0  0  0
   76.6556   54.6807    7.5649 C   0  0  0  0  0  0  0  0  0  0  0  0
   75.5826   53.7981    7.7462 C   0  0  0  0  0  0  0  0  0  0  0  0
 19 20  2  0  0  0
 18 20  1  0  0  0
 20 21  1  0  0  0
 20 23  1  0  0  0
 23 24  1  0  0  0
 23 25  1  0  0  0
  1 18  1  0  0  0
 28  1  1  0  0  0
  1  2  1  0  0  0
 29 28  1  0  0  0
 34 29  2  0  0  0
 30 29  1  0  0  0
 31 30  2  0  0  0
 32 31  1  0  0  0
 32 33  2  0  0  0
 33 34  1  0  0  0
  3  2  2  0  0  0
  2  4  1  0  0  0
  6  4  1  0  0  0
  7  6  1  0  0  0
  6 11  1  0  0  0
  8  7  2  0  0  0
  7  9  1  0  0  0
 11 12  1  0  0  0
 13 12  2  0  0  0
 12 17  1  0  0  0
 13 14  1  0  0  0
 14 15  2  0  0  0
 15 16  1  0  0  0
 17 16  2  0  0  0
 21 22  1  0  0  0
 24 26  1  0  0  0
 24 27  1  0  0  0
  4  5  1  0  0  0
  9 10  1  0  0  0
M  END
> <minimizedAffinity>
-8.82681

$$$$
2ZXG_S23_A_901


 34 35  0  0  0  0  0  0  0  0999 V2000
   74.4032   51.8488    4.7504 C   0  0  0  0  0  0  0  0  0  0  0  0
   73.5682   50.8440    3.9665 C   0  0  0  0  0  0  0  0  0  0  0  0
   72.8376   51.1813    3.0470 O   0  0  0  0  0  0  0  0  0  0  0  0
   73.6579   49.5646    4.3650 N   0  0  0  0  0  0  0  0  0  0  0  0
   74.3657   49.3227    5.0050 H   0  0  0  0  0  0  0  0  0  0  0  0
   72.7589   48.5158    3.8967 C   0  0  0  0  0  0  0  0  0  0  0  0
   71.9106   48.0140    5.0335 C   0  0  0  0  0  0  0  0  0  0  0  0
   71.1356   48.8227    5.6016 O   0  0  0  0  0  0  0  0  0  0  0  0
   72.0128   46.8172    5.3793 O   0  0  0  0  0  0  0  0  0  0  0  0
   72.6041   46.2478    4.9275 H   0  0  0  0  0  0  0  0  0  0  0  0
   73.5340   47.3350    3.3089 C   0  0  0  0  0  0  0  0  0  0  0  0
   75.0093   47.6335    3.1280 C   0  0  0  0  0  0  0  0  0  0  0  0
   75.8266   47.8047    4.2510 C   0  0  0  0  0  0  0  0  0  0  0  0
   77.1870   48.0892    4.0950 C   0  0  0  0  0  0  0  0  0  0  0  0
   77.7309   48.2029    2.8132 C   0  0  0  0  0  0  0  0  0  0  0  0
   76.9164   48.0038    1.6883 C   0  0  0  0  0  0  0  0  0  0  0  0
   75.5505   47.7359    1.8429 C   0  0  0  0  0  0  0  0  0  0  0  0
   73.5994   53.0719    5.2867 C   0  0  0  0  0  0  0  0  0  0  0  0
   71.1273   53.5132    5.4818 O   0  0  0  0  0  0  0  0  0  0  0  0
   72.2307   52.8197    6.0675 P   0  0  0  0  0  0  0  0  0  0  0  0
   71.8611   51.4085    6.0263 O   0  0  0  0  0  0  0  0  0  0  0  0
   71.7731   51.1241    5.1031 H   0  0  0  0  0  0  0  0  0  0  0  0
   72.3713   53.2710    7.6019 C   0  0  0  0  0  0  0  0  0  0  0  0
   71.1373   53.7987    8.1945 N   0  0  0  0  0  0  0  0  0  0  0  0
   72.7783   52.1611    8.5830 C   0  0  0  0  0  0  0  0  0  0  0  0
   70.4472   53.0508    8.2652 H   0  0  0  0  0  0  0  0  0  0  0  0
   70.7697   54.5459    7.6055 H   0  0  0  0  0  0  0  0  0  0  0  0
   75.1519   51.0821    5.8700 C   0  0  0  0  0  0  0  0  0  0  0  0
   76.3001   51.9214    6.4194 C   0  0  0  0  0  0  0  0  0  0  0  0
   77.1412   52.5998    5.5297 C   0  0  0  0  0  0  0  0  0  0  0  0
   78.2069   53.3615    6.0112 C   0  0  0  0  0  0  0  0  0  0  0  0
   78.4328   53.4275    7.3848 C   0  0  0  0  0  0  0  0  0  0  0  0
   77.6151   52.7443    8.2853 C   0  0  0  0  0  0  0  0  0  0  0  0
   76.5359   51.9925    7.8022 C   0  0  0  0  0  0  0  0  0  0  0  0
 19 20  2  0  0  0
 18 20  1  0  0  0
 20 21  1  0  0  0
 20 23  1  0  0  0
 23 24  1  0  0  0
 23 25  1  0  0  0
  1 18  1  0  0  0
 28  1  1  0  0  0
  1  2  1  0  0  0
 29 28  1  0  0  0
 34 29  2  0  0  0
 30 29  1  0  0  0
 31 30  2  0  0  0
 32 31  1  0  0  0
 32 33  2  0  0  0
 33 34  1  0  0  0
  3  2  2  0  0  0
  2  4  1  0  0  0
  6  4  1  0  0  0
  7  6  1  0  0  0
  6 11  1  0  0  0
  8  7  2  0  0  0
  7  9  1  0  0  0
 11 12  1  0  0  0
 13 12  2  0  0  0
 12 17  1  0  0  0
 13 14  1  0  0  0
 14 15  2  0  0  0
 15 16  1  0  0  0
 17 16  2  0  0  0
 21 22  1  0  0  0
 24 26  1  0  0  0
 24 27  1  0  0  0
  4  5  1  0  0  0
  9 10  1  0  0  0
M  END
> <minimizedAffinity>
-8.78324

$$$$
2ZXG_S23_A_901


 34 35  0  0  0  0  0  0  0  0999 V2000
   74.2962   52.1739    6.8020 C   0  0  0  0  0  0  0  0  0  0  0  0
   74.3528   51.1126    5.7104 C   0  0  0  0  0  0  0  0  0  0  0  0
   75.0100   51.2614    4.6911 O   0  0  0  0  0  0  0  0  0  0  0  0
   73.6117   50.0122    5.9190 N   0  0  0  0  0  0  0  0  0  0  0  0
   73.2223   49.8730    6.8124 H   0  0  0  0  0  0  0  0  0  0  0  0
   73.3549   49.0131    4.8878 C   0  0  0  0  0  0  0  0  0  0  0  0
   71.9514   48.4860    5.0143 C   0  0  0  0  0  0  0  0  0  0  0  0
   71.1878   49.0187    5.8571 O   0  0  0  0  0  0  0  0  0  0  0  0
   71.5975   47.5332    4.2868 O   0  0  0  0  0  0  0  0  0  0  0  0
   72.1999   47.1652    3.6706 H   0  0  0  0  0  0  0  0  0  0  0  0
   74.3282   47.8374    4.9924 C   0  0  0  0  0  0  0  0  0  0  0  0
   75.3739   47.8422    3.8947 C   0  0  0  0  0  0  0  0  0  0  0  0
   75.0130   47.4895    2.5894 C   0  0  0  0  0  0  0  0  0  0  0  0
   75.9719   47.4822    1.5714 C   0  0  0  0  0  0  0  0  0  0  0  0
   77.2944   47.8279    1.8596 C   0  0  0  0  0  0  0  0  0  0  0  0
   77.6493   48.2080    3.1627 C   0  0  0  0  0  0  0  0  0  0  0  0
   76.6938   48.1992    4.1866 C   0  0  0  0  0  0  0  0  0  0  0  0
   75.4228   53.2474    6.7127 C   0  0  0  0  0  0  0  0  0  0  0  0
   77.1087   54.1564    8.3485 O   0  0  0  0  0  0  0  0  0  0  0  0
   76.7709   53.0290    7.5383 P   0  0  0  0  0  0  0  0  0  0  0  0
   76.6345   51.9148    8.4710 O   0  0  0  0  0  0  0  0  0  0  0  0
   75.8987   52.0897    9.0783 H   0  0  0  0  0  0  0  0  0  0  0  0
   77.9923   52.7212    6.5428 C   0  0  0  0  0  0  0  0  0  0  0  0
   77.9828   51.3703    5.9706 N   0  0  0  0  0  0  0  0  0  0  0  0
   78.0762   53.6215    5.3009 C   0  0  0  0  0  0  0  0  0  0  0  0
   77.1821   51.2710    5.3465 H   0  0  0  0  0  0  0  0  0  0  0  0
   77.9156   50.6834    6.7217 H   0  0  0  0  0  0  0  0  0  0  0  0
   72.8745   52.7909    6.7994 C   0  0  0  0  0  0  0  0  0  0  0  0
   72.2050   52.6013    8.1561 C   0  0  0  0  0  0  0  0  0  0  0  0
   71.6981   53.7167    8.8330 C   0  0  0  0  0  0  0  0  0  0  0  0
   71.0947   53.5668   10.0826 C   0  0  0  0  0  0  0  0  0  0  0  0
   71.0157   52.2985   10.6546 C   0  0  0  0  0  0  0  0  0  0  0  0
   71.5307   51.1781   10.0021 C   0  0  0  0  0  0  0  0  0  0  0  0
   72.1221   51.3269    8.7406 C   0  0  0  0  0  0  0  0  0  0  0  0
 19 20  2  0  0  0
 18 20  1  0  0  0
 20 21  1  0  0  0
 20 23  1  0  0  0
 23 24  1  0  0  0
 23 25  1  0  0  0
  1 18  1  0  0  0
 28  1  1  0  0  0
  1  2  1  0  0  0
 29 28  1  0  0  0
 34 29  2  0  0  0
 30 29  1  0  0  0
 31 30  2  0  0  0
 32 31  1  0  0  0
 32 33  2  0  0  0
 33 34  1  0  0  0
  3  2  2  0  0  0
  2  4  1  0  0  0
  6  4  1  0  0  0
  7  6  1  0  0  0
  6 11  1  0  0  0
  8  7  2  0  0  0
  7  9  1  0  0  0
 11 12  1  0  0  0
 13 12  2  0  0  0
 12 17  1  0  0  0
 13 14  1  0  0  0
 14 15  2  0  0  0
 15 16  1  0  0  0
 17 16  2  0  0  0
 21 22  1  0  0  0
 24 26  1  0  0  0
 24 27  1  0  0  0
  4  5  1  0  0  0
  9 10  1  0  0  0
M  END
> <minimizedAffinity>
-8.75203

$$$$
2ZXG_S23_A_901


 34 35  0  0  0  0  0  0  0  0999 V2000
   72.8278   51.1551    8.2353 C   0  0  0  0  0  0  0  0  0  0  0  0
   72.6336   50.3201    6.9758 C   0  0  0  0  0  0  0  0  0  0  0  0
   71.9058   50.6793    6.0624 O   0  0  0  0  0  0  0  0  0  0  0  0
   73.2867   49.1473    6.9396 N   0  0  0  0  0  0  0  0  0  0  0  0
   73.9715   48.9718    7.6248 H   0  0  0  0  0  0  0  0  0  0  0  0
   73.0322   48.1204    5.9354 C   0  0  0  0  0  0  0  0  0  0  0  0
   72.6147   46.8369    6.6003 C   0  0  0  0  0  0  0  0  0  0  0  0
   73.3295   46.3864    7.5295 O   0  0  0  0  0  0  0  0  0  0  0  0
   71.5807   46.2595    6.2005 O   0  0  0  0  0  0  0  0  0  0  0  0
   71.0764   46.6310    5.5037 H   0  0  0  0  0  0  0  0  0  0  0  0
   74.2750   47.8473    5.0861 C   0  0  0  0  0  0  0  0  0  0  0  0
   74.4337   48.8327    3.9450 C   0  0  0  0  0  0  0  0  0  0  0  0
   75.7127   49.2502    3.5600 C   0  0  0  0  0  0  0  0  0  0  0  0
   75.8696   50.1657    2.5144 C   0  0  0  0  0  0  0  0  0  0  0  0
   74.7449   50.6648    1.8529 C   0  0  0  0  0  0  0  0  0  0  0  0
   73.4647   50.2246    2.2215 C   0  0  0  0  0  0  0  0  0  0  0  0
   73.3052   49.3211    3.2796 C   0  0  0  0  0  0  0  0  0  0  0  0
   74.3039   51.5773    8.5046 C   0  0  0  0  0  0  0  0  0  0  0  0
   74.1101   53.2804    6.6591 O   0  0  0  0  0  0  0  0  0  0  0  0
   74.8779   52.8882    7.7984 P   0  0  0  0  0  0  0  0  0  0  0  0
   74.8284   54.0309    8.7048 O   0  0  0  0  0  0  0  0  0  0  0  0
   73.9125   54.1805    8.9869 H   0  0  0  0  0  0  0  0  0  0  0  0
   76.4001   52.6569    7.3433 C   0  0  0  0  0  0  0  0  0  0  0  0
   77.3173   52.3263    8.4396 N   0  0  0  0  0  0  0  0  0  0  0  0
   76.6254   51.5096    6.3468 C   0  0  0  0  0  0  0  0  0  0  0  0
   77.0774   51.4104    8.8191 H   0  0  0  0  0  0  0  0  0  0  0  0
   77.2375   53.0300    9.1736 H   0  0  0  0  0  0  0  0  0  0  0  0
   71.8589   52.3628    8.1656 C   0  0  0  0  0  0  0  0  0  0  0  0
   71.4255   52.7843    9.5652 C   0  0  0  0  0  0  0  0  0  0  0  0
   71.4695   54.1379    9.9187 C   0  0  0  0  0  0  0  0  0  0  0  0
   71.0911   54.5431   11.1995 C   0  0  0  0  0  0  0  0  0  0  0  0
   70.6835   53.5850   12.1259 C   0  0  0  0  0  0  0  0  0  0  0  0
   70.6496   52.2298   11.7965 C   0  0  0  0  0  0  0  0  0  0  0  0
   71.0145   51.8253   10.5056 C   0  0  0  0  0  0  0  0  0  0  0  0
 19 20  2  0  0  0
 18 20  1  0  0  0
 20 21  1  0  0  0
 20 23  1  0  0  0
 23 24  1  0  0  0
 23 25  1  0  0  0
  1 18  1  0  0  0
 28  1  1  0  0  0
  1  2  1  0  0  0
 29 28  1  0  0  0
 34 29  2  0  0  0
 30 29  1  0  0  0
 31 30  2  0  0  0
 32 31  1  0  0  0
 32 33  2  0  0  0
 33 34  1  0  0  0
  3  2  2  0  0  0
  2  4  1  0  0  0
  6  4  1  0  0  0
  7  6  1  0  0  0
  6 11  1  0  0  0
  8  7  2  0  0  0
  7  9  1  0  0  0
 11 12  1  0  0  0
 13 12  2  0  0  0
 12 17  1  0  0  0
 13 14  1  0  0  0
 14 15  2  0  0  0
 15 16  1  0  0  0
 17 16  2  0  0  0
 21 22  1  0  0  0
 24 26  1  0  0  0
 24 27  1  0  0  0
  4  5  1  0  0  0
  9 10  1  0  0  0
M  END
> <minimizedAffinity>
-8.62440

$$$$
2ZXG_S23_A_901


 34 35  0  0  0  0  0  0  0  0999 V2000
   73.4016   52.7768    5.1281 C   0  0  0  0  0  0  0  0  0  0  0  0
   73.5914   51.4488    4.4060 C   0  0  0  0  0  0  0  0  0  0  0  0
   74.0044   51.3853    3.2577 O   0  0  0  0  0  0  0  0  0  0  0  0
   73.2488   50.3485    5.0955 N   0  0  0  0  0  0  0  0  0  0  0  0
   73.0654   50.4383    6.0586 H   0  0  0  0  0  0  0  0  0  0  0  0
   73.1347   49.0271    4.4887 C   0  0  0  0  0  0  0  0  0  0  0  0
   71.8424   48.3765    4.9013 C   0  0  0  0  0  0  0  0  0  0  0  0
   71.1935   48.8864    5.8481 O   0  0  0  0  0  0  0  0  0  0  0  0
   71.4649   47.3492    4.2975 O   0  0  0  0  0  0  0  0  0  0  0  0
   71.9802   47.0020    3.5961 H   0  0  0  0  0  0  0  0  0  0  0  0
   74.2926   48.1179    4.9048 C   0  0  0  0  0  0  0  0  0  0  0  0
   75.3829   48.0387    3.8543 C   0  0  0  0  0  0  0  0  0  0  0  0
   75.0871   47.5369    2.5819 C   0  0  0  0  0  0  0  0  0  0  0  0
   76.0878   47.4514    1.6086 C   0  0  0  0  0  0  0  0  0  0  0  0
   77.3868   47.8684    1.9087 C   0  0  0  0  0  0  0  0  0  0  0  0
   77.6760   48.3970    3.1758 C   0  0  0  0  0  0  0  0  0  0  0  0
   76.6790   48.4672    4.1568 C   0  0  0  0  0  0  0  0  0  0  0  0
   71.9876   53.4081    4.9501 C   0  0  0  0  0  0  0  0  0  0  0  0
   72.3285   55.5640    3.6932 O   0  0  0  0  0  0  0  0  0  0  0  0
   71.6875   54.2877    3.6528 P   0  0  0  0  0  0  0  0  0  0  0  0
   72.2047   53.6376    2.4529 O   0  0  0  0  0  0  0  0  0  0  0  0
   73.1603   53.4999    2.5462 H   0  0  0  0  0  0  0  0  0  0  0  0
   70.1065   54.5067    3.4795 C   0  0  0  0  0  0  0  0  0  0  0  0
   69.6607   55.8906    3.6757 N   0  0  0  0  0  0  0  0  0  0  0  0
   69.5376   54.1536    2.0968 C   0  0  0  0  0  0  0  0  0  0  0  0
   70.0302   56.4763    2.9268 H   0  0  0  0  0  0  0  0  0  0  0  0
   70.0007   56.2332    4.5743 H   0  0  0  0  0  0  0  0  0  0  0  0
   73.7883   52.5750    6.6153 C   0  0  0  0  0  0  0  0  0  0  0  0
   75.2851   52.7864    6.8138 C   0  0  0  0  0  0  0  0  0  0  0  0
   75.9658   53.6899    5.9894 C   0  0  0  0  0  0  0  0  0  0  0  0
   77.3386   53.8872    6.1447 C   0  0  0  0  0  0  0  0  0  0  0  0
   78.0260   53.1652    7.1186 C   0  0  0  0  0  0  0  0  0  0  0  0
   77.3671   52.2481    7.9379 C   0  0  0  0  0  0  0  0  0  0  0  0
   75.9861   52.0621    7.7920 C   0  0  0  0  0  0  0  0  0  0  0  0
 19 20  2  0  0  0
 18 20  1  0  0  0
 20 21  1  0  0  0
 20 23  1  0  0  0
 23 24  1  0  0  0
 23 25  1  0  0  0
  1 18  1  0  0  0
 28  1  1  0  0  0
  1  2  1  0  0  0
 29 28  1  0  0  0
 34 29  2  0  0  0
 30 29  1  0  0  0
 31 30  2  0  0  0
 32 31  1  0  0  0
 32 33  2  0  0  0
 33 34  1  0  0  0
  3  2  2  0  0  0
  2  4  1  0  0  0
  6  4  1  0  0  0
  7  6  1  0  0  0
  6 11  1  0  0  0
  8  7  2  0  0  0
  7  9  1  0  0  0
 11 12  1  0  0  0
 13 12  2  0  0  0
 12 17  1  0  0  0
 13 14  1  0  0  0
 14 15  2  0  0  0
 15 16  1  0  0  0
 17 16  2  0  0  0
 21 22  1  0  0  0
 24 26  1  0  0  0
 24 27  1  0  0  0
  4  5  1  0  0  0
  9 10  1  0  0  0
M  END
> <minimizedAffinity>
-8.53057

$$$$
2ZXG_S23_A_901


 34 35  0  0  0  0  0  0  0  0999 V2000
   76.2425   49.9913    4.6402 C   0  0  0  0  0  0  0  0  0  0  0  0
   75.1856   48.9668    5.0336 C   0  0  0  0  0  0  0  0  0  0  0  0
   75.2502   47.7977    4.6841 O   0  0  0  0  0  0  0  0  0  0  0  0
   74.1584   49.4303    5.7641 N   0  0  0  0  0  0  0  0  0  0  0  0
   74.2257   50.3360    6.1440 H   0  0  0  0  0  0  0  0  0  0  0  0
   72.9480   48.6586    6.0227 C   0  0  0  0  0  0  0  0  0  0  0  0
   72.1209   48.5558    4.7700 C   0  0  0  0  0  0  0  0  0  0  0  0
   72.1477   49.5129    3.9572 O   0  0  0  0  0  0  0  0  0  0  0  0
   71.4302   47.5303    4.5862 O   0  0  0  0  0  0  0  0  0  0  0  0
   71.4398   46.8394    5.2190 H   0  0  0  0  0  0  0  0  0  0  0  0
   72.0959   49.3033    7.1176 C   0  0  0  0  0  0  0  0  0  0  0  0
   72.5692   50.6958    7.4855 C   0  0  0  0  0  0  0  0  0  0  0  0
   72.2229   51.7840    6.6766 C   0  0  0  0  0  0  0  0  0  0  0  0
   72.6618   53.0713    7.0023 C   0  0  0  0  0  0  0  0  0  0  0  0
   73.4490   53.2705    8.1391 C   0  0  0  0  0  0  0  0  0  0  0  0
   73.7725   52.1830    8.9644 C   0  0  0  0  0  0  0  0  0  0  0  0
   73.3481   50.8909    8.6301 C   0  0  0  0  0  0  0  0  0  0  0  0
   76.9299   49.7106    3.2697 C   0  0  0  0  0  0  0  0  0  0  0  0
   79.0117   48.8573    4.4020 O   0  0  0  0  0  0  0  0  0  0  0  0
   78.2100   48.7588    3.2234 P   0  0  0  0  0  0  0  0  0  0  0  0
   77.8127   47.3566    3.1471 O   0  0  0  0  0  0  0  0  0  0  0  0
   77.2620   47.1343    3.9141 H   0  0  0  0  0  0  0  0  0  0  0  0
   79.1194   49.1069    1.9470 C   0  0  0  0  0  0  0  0  0  0  0  0
   79.3988   47.9634    1.0713 N   0  0  0  0  0  0  0  0  0  0  0  0
   78.5322   50.1466    0.9804 C   0  0  0  0  0  0  0  0  0  0  0  0
   78.5338   47.6564    0.6266 H   0  0  0  0  0  0  0  0  0  0  0  0
   79.7871   47.1990    1.6237 H   0  0  0  0  0  0  0  0  0  0  0  0
   75.5984   51.3990    4.7140 C   0  0  0  0  0  0  0  0  0  0  0  0
   76.2394   52.2245    5.8241 C   0  0  0  0  0  0  0  0  0  0  0  0
   76.8130   51.5714    6.9211 C   0  0  0  0  0  0  0  0  0  0  0  0
   77.3918   52.3088    7.9551 C   0  0  0  0  0  0  0  0  0  0  0  0
   77.3794   53.7009    7.8904 C   0  0  0  0  0  0  0  0  0  0  0  0
   76.7972   54.3691    6.8130 C   0  0  0  0  0  0  0  0  0  0  0  0
   76.2303   53.6280    5.7677 C   0  0  0  0  0  0  0  0  0  0  0  0
 19 20  2  0  0  0
 18 20  1  0  0  0
 20 21  1  0  0  0
 20 23  1  0  0  0
 23 24  1  0  0  0
 23 25  1  0  0  0
  1 18  1  0  0  0
 28  1  1  0  0  0
  1  2  1  0  0  0
 29 28  1  0  0  0
 34 29  2  0  0  0
 30 29  1  0  0  0
 31 30  2  0  0  0
 32 31  1  0  0  0
 32 33  2  0  0  0
 33 34  1  0  0  0
  3  2  2  0  0  0
  2  4  1  0  0  0
  6  4  1  0  0  0
  7  6  1  0  0  0
  6 11  1  0  0  0
  8  7  2  0  0  0
  7  9  1  0  0  0
 11 12  1  0  0  0
 13 12  2  0  0  0
 12 17  1  0  0  0
 13 14  1  0  0  0
 14 15  2  0  0  0
 15 16  1  0  0  0
 17 16  2  0  0  0
 21 22  1  0  0  0
 24 26  1  0  0  0
 24 27  1  0  0  0
  4  5  1  0  0  0
  9 10  1  0  0  0
M  END
> <minimizedAffinity>
-8.49540

$$$$
2ZXG_S23_A_901


 34 35  0  0  0  0  0  0  0  0999 V2000
   74.0980   48.1308    4.3445 C   0  0  0  0  0  0  0  0  0  0  0  0
   73.7033   49.5401    3.9208 C   0  0  0  0  0  0  0  0  0  0  0  0
   72.8434   49.7498    3.0784 O   0  0  0  0  0  0  0  0  0  0  0  0
   74.3786   50.5425    4.5062 N   0  0  0  0  0  0  0  0  0  0  0  0
   74.9506   50.3323    5.2794 H   0  0  0  0  0  0  0  0  0  0  0  0
   74.3067   51.9272    4.0534 C   0  0  0  0  0  0  0  0  0  0  0  0
   75.2417   52.1432    2.8946 C   0  0  0  0  0  0  0  0  0  0  0  0
   74.8227   52.7893    1.9025 O   0  0  0  0  0  0  0  0  0  0  0  0
   76.3954   51.6659    2.9538 O   0  0  0  0  0  0  0  0  0  0  0  0
   76.6672   51.1900    3.7139 H   0  0  0  0  0  0  0  0  0  0  0  0
   74.6825   52.9021    5.1710 C   0  0  0  0  0  0  0  0  0  0  0  0
   74.0952   52.5107    6.5128 C   0  0  0  0  0  0  0  0  0  0  0  0
   74.9173   51.9421    7.4921 C   0  0  0  0  0  0  0  0  0  0  0  0
   74.3836   51.5694    8.7299 C   0  0  0  0  0  0  0  0  0  0  0  0
   73.0248   51.7656    8.9885 C   0  0  0  0  0  0  0  0  0  0  0  0
   72.2073   52.3611    8.0161 C   0  0  0  0  0  0  0  0  0  0  0  0
   72.7368   52.7189    6.7700 C   0  0  0  0  0  0  0  0  0  0  0  0
   72.9621   47.3311    5.0515 C   0  0  0  0  0  0  0  0  0  0  0  0
   73.1157   48.9024    7.0141 O   0  0  0  0  0  0  0  0  0  0  0  0
   72.2864   47.9375    6.3639 P   0  0  0  0  0  0  0  0  0  0  0  0
   71.0567   48.6505    6.0334 O   0  0  0  0  0  0  0  0  0  0  0  0
   71.2544   49.3614    5.4038 H   0  0  0  0  0  0  0  0  0  0  0  0
   71.9389   46.7663    7.4057 C   0  0  0  0  0  0  0  0  0  0  0  0
   73.0992   45.9867    7.8511 N   0  0  0  0  0  0  0  0  0  0  0  0
   71.3026   47.2239    8.7270 C   0  0  0  0  0  0  0  0  0  0  0  0
   73.7131   46.5797    8.4096 H   0  0  0  0  0  0  0  0  0  0  0  0
   73.6084   45.6403    7.0381 H   0  0  0  0  0  0  0  0  0  0  0  0
   74.6685   47.3978    3.1038 C   0  0  0  0  0  0  0  0  0  0  0  0
   76.1110   47.8198    2.8477 C   0  0  0  0  0  0  0  0  0  0  0  0
   76.5629   47.9548    1.5299 C   0  0  0  0  0  0  0  0  0  0  0  0
   77.8837   48.3258    1.2736 C   0  0  0  0  0  0  0  0  0  0  0  0
   78.7504   48.5458    2.3425 C   0  0  0  0  0  0  0  0  0  0  0  0
   78.3221   48.3994    3.6621 C   0  0  0  0  0  0  0  0  0  0  0  0
   76.9918   48.0424    3.9190 C   0  0  0  0  0  0  0  0  0  0  0  0
 19 20  2  0  0  0
 18 20  1  0  0  0
 20 21  1  0  0  0
 20 23  1  0  0  0
 23 24  1  0  0  0
 23 25  1  0  0  0
  1 18  1  0  0  0
 28  1  1  0  0  0
  1  2  1  0  0  0
 29 28  1  0  0  0
 34 29  2  0  0  0
 30 29  1  0  0  0
 31 30  2  0  0  0
 32 31  1  0  0  0
 32 33  2  0  0  0
 33 34  1  0  0  0
  3  2  2  0  0  0
  2  4  1  0  0  0
  6  4  1  0  0  0
  7  6  1  0  0  0
  6 11  1  0  0  0
  8  7  2  0  0  0
  7  9  1  0  0  0
 11 12  1  0  0  0
 13 12  2  0  0  0
 12 17  1  0  0  0
 13 14  1  0  0  0
 14 15  2  0  0  0
 15 16  1  0  0  0
 17 16  2  0  0  0
 21 22  1  0  0  0
 24 26  1  0  0  0
 24 27  1  0  0  0
  4  5  1  0  0  0
  9 10  1  0  0  0
M  END
> <minimizedAffinity>
-8.32045

$$$$
