5N2T_8KK_E_410


 34 34  0  0  0  0  0  0  0  0999 V2000
    9.6408   38.3303   -5.7958 O   0  0  0  0  0  0  0  0  0  0  0  0
   10.8942   39.1144   -5.5009 P   0  0  0  0  0  0  0  0  0  0  0  0
   10.7700   40.5639   -5.9538 O   0  0  0  0  0  0  0  0  0  0  0  0
    9.4554   38.3628   -6.7473 H   0  0  0  0  0  0  0  0  0  0  0  0
   11.3113   39.1244   -3.8691 N   0  0  0  0  0  0  0  0  0  0  0  0
   11.6898   40.0495   -3.6662 H   0  0  0  0  0  0  0  0  0  0  0  0
   10.2933   38.8543   -2.8623 C   0  0  0  0  0  0  0  0  0  0  0  0
    9.0651   39.7398   -3.0442 C   0  0  0  0  0  0  0  0  0  0  0  0
    9.2234   41.0995   -2.6857 N   0  0  0  0  0  0  0  0  0  0  0  0
    8.0095   39.3277   -3.4256 O   0  0  0  0  0  0  0  0  0  0  0  0
   10.1043   41.4207   -2.3855 H   0  0  0  0  0  0  0  0  0  0  0  0
    8.1161   42.0247   -2.7519 C   0  0  0  0  0  0  0  0  0  0  0  0
    7.4364   41.9263   -4.1209 C   0  0  0  0  0  0  0  0  0  0  0  0
    7.9074   42.9462   -5.1440 C   0  0  0  0  0  0  0  0  0  0  0  0
    9.3656   43.0357   -5.0686 N   0  0  0  0  0  0  0  0  0  0  0  0
    9.6407   43.3213   -4.1289 H   0  0  0  0  0  0  0  0  0  0  0  0
    9.6995   43.7230   -5.7443 H   0  0  0  0  0  0  0  0  0  0  0  0
   10.9152   39.1669   -1.4900 C   0  0  0  0  0  0  0  0  0  0  0  0
   10.4999   38.1831   -0.3983 C   0  0  0  0  0  0  0  0  0  0  0  0
    9.7664   36.9879   -1.0001 C   0  0  0  0  0  0  0  0  0  0  0  0
    9.6065   38.8702    0.6298 C   0  0  0  0  0  0  0  0  0  0  0  0
   12.3348   38.3250   -6.3343 C   0  0  0  0  0  0  0  0  0  0  0  0
   13.2294   38.3059   -8.7058 C   0  0  0  0  0  0  0  0  0  0  0  0
   12.2001   38.5135   -7.7589 N   0  0  0  0  0  0  0  0  0  0  0  0
   14.2877   37.8904   -8.3972 O   0  0  0  0  0  0  0  0  0  0  0  0
   11.3242   38.8093   -8.0973 H   0  0  0  0  0  0  0  0  0  0  0  0
   12.8372   38.6548   -9.9861 O   0  0  0  0  0  0  0  0  0  0  0  0
   13.8276   39.0005  -10.9104 C   0  0  0  0  0  0  0  0  0  0  0  0
   13.8132   38.0144  -12.0827 C   0  0  0  0  0  0  0  0  0  0  0  0
   13.3950   36.7153  -11.8628 C   0  0  0  0  0  0  0  0  0  0  0  0
   13.3610   35.7967  -12.8932 C   0  0  0  0  0  0  0  0  0  0  0  0
   13.7574   36.1675  -14.1661 C   0  0  0  0  0  0  0  0  0  0  0  0
   14.1572   37.4720  -14.4045 C   0  0  0  0  0  0  0  0  0  0  0  0
   14.1888   38.3925  -13.3701 C   0  0  0  0  0  0  0  0  0  0  0  0
 33 34  2  0  0  0
 33 32  1  0  0  0
 34 29  1  0  0  0
 32 31  2  0  0  0
 29 28  1  0  0  0
 29 30  2  0  0  0
 28 27  1  0  0  0
 31 30  1  0  0  0
 27 23  1  0  0  0
 25 23  2  0  0  0
 23 24  1  0  0  0
 24 22  1  0  0  0
 22  2  1  0  0  0
  3  2  2  0  0  0
  1  2  1  0  0  0
  2  5  1  0  0  0
  5  7  1  0  0  0
 12  9  1  0  0  0
 12 13  1  0  0  0
  9  8  1  0  0  0
  8 10  2  0  0  0
  8  7  1  0  0  0
  7 18  1  0  0  0
 13 14  1  0  0  0
 18 19  1  0  0  0
 14 15  1  0  0  0
 21 19  1  0  0  0
 19 20  1  0  0  0
  1  4  1  0  0  0
  5  6  1  0  0  0
  9 11  1  0  0  0
 15 16  1  0  0  0
 15 17  1  0  0  0
 24 26  1  0  0  0
M  END
> <minimizedAffinity>
-8.94249

$$$$
5N2T_8KK_E_410


 34 34  0  0  0  0  0  0  0  0999 V2000
   12.3695   37.8990   -5.7769 O   0  0  0  0  0  0  0  0  0  0  0  0
   11.2733   38.8858   -5.4653 P   0  0  0  0  0  0  0  0  0  0  0  0
    9.8946   38.3024   -5.7485 O   0  0  0  0  0  0  0  0  0  0  0  0
   12.3099   37.6328   -6.7078 H   0  0  0  0  0  0  0  0  0  0  0  0
   11.2832   39.4172   -3.8671 N   0  0  0  0  0  0  0  0  0  0  0  0
   11.2209   40.4350   -3.8933 H   0  0  0  0  0  0  0  0  0  0  0  0
   10.2533   38.9545   -2.9461 C   0  0  0  0  0  0  0  0  0  0  0  0
    8.9717   39.7718   -3.0697 C   0  0  0  0  0  0  0  0  0  0  0  0
    9.1106   41.1701   -2.9033 N   0  0  0  0  0  0  0  0  0  0  0  0
    7.8965   39.2826   -3.2546 O   0  0  0  0  0  0  0  0  0  0  0  0
   10.0065   41.5536   -2.7641 H   0  0  0  0  0  0  0  0  0  0  0  0
    7.9617   42.0452   -2.9340 C   0  0  0  0  0  0  0  0  0  0  0  0
    7.4177   42.1406   -4.3625 C   0  0  0  0  0  0  0  0  0  0  0  0
    8.0457   43.2304   -5.2150 C   0  0  0  0  0  0  0  0  0  0  0  0
    9.4786   42.9582   -5.3297 N   0  0  0  0  0  0  0  0  0  0  0  0
    9.8981   42.9476   -4.4000 H   0  0  0  0  0  0  0  0  0  0  0  0
    9.9188   43.6857   -5.8930 H   0  0  0  0  0  0  0  0  0  0  0  0
   10.8037   39.1319   -1.5202 C   0  0  0  0  0  0  0  0  0  0  0  0
   10.4042   38.0037   -0.5717 C   0  0  0  0  0  0  0  0  0  0  0  0
    9.8197   36.8276   -1.3488 C   0  0  0  0  0  0  0  0  0  0  0  0
    9.3877   38.4996    0.4519 C   0  0  0  0  0  0  0  0  0  0  0  0
   11.5139   40.4195   -6.4566 C   0  0  0  0  0  0  0  0  0  0  0  0
   12.2945   40.6337   -8.8586 C   0  0  0  0  0  0  0  0  0  0  0  0
   12.4153   40.1253   -7.5448 N   0  0  0  0  0  0  0  0  0  0  0  0
   11.4581   41.4090   -9.1540 O   0  0  0  0  0  0  0  0  0  0  0  0
   13.1724   39.5245   -7.3579 H   0  0  0  0  0  0  0  0  0  0  0  0
   13.2485   40.1062   -9.7108 O   0  0  0  0  0  0  0  0  0  0  0  0
   13.4824   38.7284   -9.6706 C   0  0  0  0  0  0  0  0  0  0  0  0
   13.6222   38.1818  -11.0949 C   0  0  0  0  0  0  0  0  0  0  0  0
   14.0464   39.0294  -12.1012 C   0  0  0  0  0  0  0  0  0  0  0  0
   14.1916   38.5755  -13.3971 C   0  0  0  0  0  0  0  0  0  0  0  0
   13.9027   37.2582  -13.7070 C   0  0  0  0  0  0  0  0  0  0  0  0
   13.4983   36.3931  -12.7037 C   0  0  0  0  0  0  0  0  0  0  0  0
   13.3551   36.8497  -11.4039 C   0  0  0  0  0  0  0  0  0  0  0  0
 33 34  2  0  0  0
 33 32  1  0  0  0
 34 29  1  0  0  0
 32 31  2  0  0  0
 29 28  1  0  0  0
 29 30  2  0  0  0
 28 27  1  0  0  0
 31 30  1  0  0  0
 27 23  1  0  0  0
 25 23  2  0  0  0
 23 24  1  0  0  0
 24 22  1  0  0  0
 22  2  1  0  0  0
  3  2  2  0  0  0
  1  2  1  0  0  0
  2  5  1  0  0  0
  5  7  1  0  0  0
 12  9  1  0  0  0
 12 13  1  0  0  0
  9  8  1  0  0  0
  8 10  2  0  0  0
  8  7  1  0  0  0
  7 18  1  0  0  0
 13 14  1  0  0  0
 18 19  1  0  0  0
 14 15  1  0  0  0
 21 19  1  0  0  0
 19 20  1  0  0  0
  1  4  1  0  0  0
  5  6  1  0  0  0
  9 11  1  0  0  0
 15 16  1  0  0  0
 15 17  1  0  0  0
 24 26  1  0  0  0
M  END
> <minimizedAffinity>
-8.55309

$$$$
5N2T_8KK_E_410


 34 34  0  0  0  0  0  0  0  0999 V2000
    9.9753   38.5247   -6.5676 O   0  0  0  0  0  0  0  0  0  0  0  0
   11.1967   39.2432   -6.0531 P   0  0  0  0  0  0  0  0  0  0  0  0
   11.1943   40.7133   -6.4536 O   0  0  0  0  0  0  0  0  0  0  0  0
    9.9376   38.6022   -7.5338 H   0  0  0  0  0  0  0  0  0  0  0  0
   11.3615   39.1717   -4.3784 N   0  0  0  0  0  0  0  0  0  0  0  0
   11.6344   40.1042   -4.0680 H   0  0  0  0  0  0  0  0  0  0  0  0
   10.2270   38.7684   -3.5580 C   0  0  0  0  0  0  0  0  0  0  0  0
    9.0429   39.7157   -3.7206 C   0  0  0  0  0  0  0  0  0  0  0  0
    9.3609   41.0891   -3.8433 N   0  0  0  0  0  0  0  0  0  0  0  0
    7.9042   39.3514   -3.7075 O   0  0  0  0  0  0  0  0  0  0  0  0
   10.3053   41.3665   -3.8641 H   0  0  0  0  0  0  0  0  0  0  0  0
    8.3253   42.0915   -3.9386 C   0  0  0  0  0  0  0  0  0  0  0  0
    8.6017   43.2222   -2.9431 C   0  0  0  0  0  0  0  0  0  0  0  0
    8.4994   42.8258   -1.4799 C   0  0  0  0  0  0  0  0  0  0  0  0
    9.7998   42.3126   -1.0489 N   0  0  0  0  0  0  0  0  0  0  0  0
   10.0529   41.5058   -1.6192 H   0  0  0  0  0  0  0  0  0  0  0  0
    9.7474   42.0335   -0.0692 H   0  0  0  0  0  0  0  0  0  0  0  0
   10.6859   38.8165   -2.0901 C   0  0  0  0  0  0  0  0  0  0  0  0
    9.6859   38.1887   -1.1217 C   0  0  0  0  0  0  0  0  0  0  0  0
    9.9217   38.6930    0.2991 C   0  0  0  0  0  0  0  0  0  0  0  0
    9.7943   36.6674   -1.1519 C   0  0  0  0  0  0  0  0  0  0  0  0
   12.7179   38.4272   -6.6957 C   0  0  0  0  0  0  0  0  0  0  0  0
   14.0889   38.6380   -8.8170 C   0  0  0  0  0  0  0  0  0  0  0  0
   13.1466   39.1267   -7.8831 N   0  0  0  0  0  0  0  0  0  0  0  0
   14.5610   37.5626   -8.7239 O   0  0  0  0  0  0  0  0  0  0  0  0
   12.7527   40.0122   -8.0560 H   0  0  0  0  0  0  0  0  0  0  0  0
   14.3722   39.5649   -9.8046 O   0  0  0  0  0  0  0  0  0  0  0  0
   13.7487   40.8145   -9.7376 C   0  0  0  0  0  0  0  0  0  0  0  0
   14.7694   41.8854   -9.3393 C   0  0  0  0  0  0  0  0  0  0  0  0
   15.9320   42.0126  -10.0761 C   0  0  0  0  0  0  0  0  0  0  0  0
   16.8749   42.9687   -9.7546 C   0  0  0  0  0  0  0  0  0  0  0  0
   16.6685   43.8111   -8.6763 C   0  0  0  0  0  0  0  0  0  0  0  0
   15.4976   43.7088   -7.9436 C   0  0  0  0  0  0  0  0  0  0  0  0
   14.5520   42.7504   -8.2688 C   0  0  0  0  0  0  0  0  0  0  0  0
 33 34  2  0  0  0
 33 32  1  0  0  0
 34 29  1  0  0  0
 32 31  2  0  0  0
 29 28  1  0  0  0
 29 30  2  0  0  0
 28 27  1  0  0  0
 31 30  1  0  0  0
 27 23  1  0  0  0
 25 23  2  0  0  0
 23 24  1  0  0  0
 24 22  1  0  0  0
 22  2  1  0  0  0
  3  2  2  0  0  0
  1  2  1  0  0  0
  2  5  1  0  0  0
  5  7  1  0  0  0
 12  9  1  0  0  0
 12 13  1  0  0  0
  9  8  1  0  0  0
  8 10  2  0  0  0
  8  7  1  0  0  0
  7 18  1  0  0  0
 13 14  1  0  0  0
 18 19  1  0  0  0
 14 15  1  0  0  0
 21 19  1  0  0  0
 19 20  1  0  0  0
  1  4  1  0  0  0
  5  6  1  0  0  0
  9 11  1  0  0  0
 15 16  1  0  0  0
 15 17  1  0  0  0
 24 26  1  0  0  0
M  END
> <minimizedAffinity>
-8.41220

$$$$
5N2T_8KK_E_410


 34 34  0  0  0  0  0  0  0  0999 V2000
   12.8153   41.1877   -6.4198 O   0  0  0  0  0  0  0  0  0  0  0  0
   12.5426   40.3455   -7.6401 P   0  0  0  0  0  0  0  0  0  0  0  0
   11.1947   40.6820   -8.2656 O   0  0  0  0  0  0  0  0  0  0  0  0
   12.1082   41.0531   -5.7696 H   0  0  0  0  0  0  0  0  0  0  0  0
   13.7145   40.5030   -8.8396 N   0  0  0  0  0  0  0  0  0  0  0  0
   13.9526   39.5597   -9.1462 H   0  0  0  0  0  0  0  0  0  0  0  0
   13.4201   41.2756  -10.0394 C   0  0  0  0  0  0  0  0  0  0  0  0
   13.9622   40.6025  -11.2959 C   0  0  0  0  0  0  0  0  0  0  0  0
   13.7608   39.2047  -11.3856 N   0  0  0  0  0  0  0  0  0  0  0  0
   14.5604   41.1893  -12.1487 O   0  0  0  0  0  0  0  0  0  0  0  0
   13.2550   38.7430  -10.6784 H   0  0  0  0  0  0  0  0  0  0  0  0
   14.2837   38.4430  -12.4960 C   0  0  0  0  0  0  0  0  0  0  0  0
   14.3587   36.9600  -12.1208 C   0  0  0  0  0  0  0  0  0  0  0  0
   13.0829   36.1723  -12.3667 C   0  0  0  0  0  0  0  0  0  0  0  0
   13.4215   34.7500  -12.4185 N   0  0  0  0  0  0  0  0  0  0  0  0
   14.0909   34.5871  -13.1707 H   0  0  0  0  0  0  0  0  0  0  0  0
   12.5766   34.2054  -12.5914 H   0  0  0  0  0  0  0  0  0  0  0  0
   14.1142   42.6401   -9.8846 C   0  0  0  0  0  0  0  0  0  0  0  0
   15.3343   42.5987   -8.9672 C   0  0  0  0  0  0  0  0  0  0  0  0
   15.1910   43.6100   -7.8335 C   0  0  0  0  0  0  0  0  0  0  0  0
   16.6074   42.8879   -9.7563 C   0  0  0  0  0  0  0  0  0  0  0  0
   12.5895   38.5601   -7.1894 C   0  0  0  0  0  0  0  0  0  0  0  0
   11.0820   38.4093   -5.1573 C   0  0  0  0  0  0  0  0  0  0  0  0
   12.3557   38.4393   -5.7703 N   0  0  0  0  0  0  0  0  0  0  0  0
   10.0857   38.4179   -5.7861 O   0  0  0  0  0  0  0  0  0  0  0  0
   13.1438   38.3727   -5.1840 H   0  0  0  0  0  0  0  0  0  0  0  0
   11.1691   38.3805   -3.7766 O   0  0  0  0  0  0  0  0  0  0  0  0
   10.4841   39.3590   -3.0499 C   0  0  0  0  0  0  0  0  0  0  0  0
    9.9210   38.7520   -1.7609 C   0  0  0  0  0  0  0  0  0  0  0  0
   10.0825   39.4350   -0.5701 C   0  0  0  0  0  0  0  0  0  0  0  0
    9.5848   38.9261    0.6131 C   0  0  0  0  0  0  0  0  0  0  0  0
    8.9213   37.7118    0.6210 C   0  0  0  0  0  0  0  0  0  0  0  0
    8.7332   37.0282   -0.5689 C   0  0  0  0  0  0  0  0  0  0  0  0
    9.2314   37.5412   -1.7551 C   0  0  0  0  0  0  0  0  0  0  0  0
 33 34  2  0  0  0
 33 32  1  0  0  0
 34 29  1  0  0  0
 32 31  2  0  0  0
 29 28  1  0  0  0
 29 30  2  0  0  0
 28 27  1  0  0  0
 31 30  1  0  0  0
 27 23  1  0  0  0
 25 23  2  0  0  0
 23 24  1  0  0  0
 24 22  1  0  0  0
 22  2  1  0  0  0
  3  2  2  0  0  0
  1  2  1  0  0  0
  2  5  1  0  0  0
  5  7  1  0  0  0
 12  9  1  0  0  0
 12 13  1  0  0  0
  9  8  1  0  0  0
  8 10  2  0  0  0
  8  7  1  0  0  0
  7 18  1  0  0  0
 13 14  1  0  0  0
 18 19  1  0  0  0
 14 15  1  0  0  0
 21 19  1  0  0  0
 19 20  1  0  0  0
  1  4  1  0  0  0
  5  6  1  0  0  0
  9 11  1  0  0  0
 15 16  1  0  0  0
 15 17  1  0  0  0
 24 26  1  0  0  0
M  END
> <minimizedAffinity>
-8.09578

$$$$
5N2T_8KK_E_410


 34 34  0  0  0  0  0  0  0  0999 V2000
   12.5759   37.8363   -9.7577 O   0  0  0  0  0  0  0  0  0  0  0  0
   13.6723   38.4472   -8.9225 P   0  0  0  0  0  0  0  0  0  0  0  0
   14.4830   37.3827   -8.1938 O   0  0  0  0  0  0  0  0  0  0  0  0
   11.9920   37.3098   -9.1896 H   0  0  0  0  0  0  0  0  0  0  0  0
   14.7495   39.3872   -9.8129 N   0  0  0  0  0  0  0  0  0  0  0  0
   15.4962   38.7663  -10.1247 H   0  0  0  0  0  0  0  0  0  0  0  0
   14.2784   40.1056  -10.9898 C   0  0  0  0  0  0  0  0  0  0  0  0
   14.8145   39.4952  -12.2804 C   0  0  0  0  0  0  0  0  0  0  0  0
   13.9364   38.6206  -12.9633 N   0  0  0  0  0  0  0  0  0  0  0  0
   15.9197   39.6943  -12.6910 O   0  0  0  0  0  0  0  0  0  0  0  0
   13.0265   38.4800  -12.6146 H   0  0  0  0  0  0  0  0  0  0  0  0
   14.3506   37.9303  -14.1627 C   0  0  0  0  0  0  0  0  0  0  0  0
   14.0379   36.4361  -14.0379 C   0  0  0  0  0  0  0  0  0  0  0  0
   14.2340   35.8552  -12.6477 C   0  0  0  0  0  0  0  0  0  0  0  0
   12.9471   35.8782  -11.9523 N   0  0  0  0  0  0  0  0  0  0  0  0
   12.6104   36.8392  -11.8921 H   0  0  0  0  0  0  0  0  0  0  0  0
   13.0617   35.4986  -11.0125 H   0  0  0  0  0  0  0  0  0  0  0  0
   14.8028   41.5482  -10.8835 C   0  0  0  0  0  0  0  0  0  0  0  0
   15.8337   41.7380   -9.7729 C   0  0  0  0  0  0  0  0  0  0  0  0
   15.4061   42.8553   -8.8256 C   0  0  0  0  0  0  0  0  0  0  0  0
   17.2030   42.0601  -10.3630 C   0  0  0  0  0  0  0  0  0  0  0  0
   12.9469   39.6195   -7.7010 C   0  0  0  0  0  0  0  0  0  0  0  0
   11.3906   39.3384   -5.7202 C   0  0  0  0  0  0  0  0  0  0  0  0
   12.3676   38.8564   -6.6214 N   0  0  0  0  0  0  0  0  0  0  0  0
   10.9174   40.4119   -5.8270 O   0  0  0  0  0  0  0  0  0  0  0  0
   12.6766   37.9291   -6.5036 H   0  0  0  0  0  0  0  0  0  0  0  0
   11.0916   38.4151   -4.7338 O   0  0  0  0  0  0  0  0  0  0  0  0
    9.7730   38.3409   -4.2748 C   0  0  0  0  0  0  0  0  0  0  0  0
    9.7542   38.3337   -2.7429 C   0  0  0  0  0  0  0  0  0  0  0  0
    9.3136   37.2025   -2.0817 C   0  0  0  0  0  0  0  0  0  0  0  0
    9.2866   37.1523   -0.7021 C   0  0  0  0  0  0  0  0  0  0  0  0
    9.6952   38.2466    0.0398 C   0  0  0  0  0  0  0  0  0  0  0  0
   10.1599   39.3779   -0.6103 C   0  0  0  0  0  0  0  0  0  0  0  0
   10.1881   39.4257   -1.9943 C   0  0  0  0  0  0  0  0  0  0  0  0
 33 34  2  0  0  0
 33 32  1  0  0  0
 34 29  1  0  0  0
 32 31  2  0  0  0
 29 28  1  0  0  0
 29 30  2  0  0  0
 28 27  1  0  0  0
 31 30  1  0  0  0
 27 23  1  0  0  0
 25 23  2  0  0  0
 23 24  1  0  0  0
 24 22  1  0  0  0
 22  2  1  0  0  0
  3  2  2  0  0  0
  1  2  1  0  0  0
  2  5  1  0  0  0
  5  7  1  0  0  0
 12  9  1  0  0  0
 12 13  1  0  0  0
  9  8  1  0  0  0
  8 10  2  0  0  0
  8  7  1  0  0  0
  7 18  1  0  0  0
 13 14  1  0  0  0
 18 19  1  0  0  0
 14 15  1  0  0  0
 21 19  1  0  0  0
 19 20  1  0  0  0
  1  4  1  0  0  0
  5  6  1  0  0  0
  9 11  1  0  0  0
 15 16  1  0  0  0
 15 17  1  0  0  0
 24 26  1  0  0  0
M  END
> <minimizedAffinity>
-7.97338

$$$$
5N2T_8KK_E_410


 34 34  0  0  0  0  0  0  0  0999 V2000
   10.8180   38.5757   -7.7920 O   0  0  0  0  0  0  0  0  0  0  0  0
   11.7658   39.2002   -6.7998 P   0  0  0  0  0  0  0  0  0  0  0  0
   11.9726   38.3082   -5.5820 O   0  0  0  0  0  0  0  0  0  0  0  0
    9.9659   38.4042   -7.3615 H   0  0  0  0  0  0  0  0  0  0  0  0
   13.2837   39.5416   -7.4450 N   0  0  0  0  0  0  0  0  0  0  0  0
   13.9569   38.9678   -6.9370 H   0  0  0  0  0  0  0  0  0  0  0  0
   13.5300   39.3248   -8.8646 C   0  0  0  0  0  0  0  0  0  0  0  0
   14.2235   37.9916   -9.1239 C   0  0  0  0  0  0  0  0  0  0  0  0
   14.4242   37.6519  -10.4828 N   0  0  0  0  0  0  0  0  0  0  0  0
   14.5508   37.2415   -8.2522 O   0  0  0  0  0  0  0  0  0  0  0  0
   14.1583   38.2892  -11.1845 H   0  0  0  0  0  0  0  0  0  0  0  0
   15.0120   36.3873  -10.8592 C   0  0  0  0  0  0  0  0  0  0  0  0
   14.8079   36.1436  -12.3575 C   0  0  0  0  0  0  0  0  0  0  0  0
   13.3801   35.8206  -12.7646 C   0  0  0  0  0  0  0  0  0  0  0  0
   13.1162   34.4171  -12.4475 N   0  0  0  0  0  0  0  0  0  0  0  0
   13.7735   33.8245  -12.9547 H   0  0  0  0  0  0  0  0  0  0  0  0
   12.1629   34.1799  -12.7221 H   0  0  0  0  0  0  0  0  0  0  0  0
   14.4592   40.4538   -9.3436 C   0  0  0  0  0  0  0  0  0  0  0  0
   13.7669   41.4611  -10.2592 C   0  0  0  0  0  0  0  0  0  0  0  0
   12.3247   41.6898   -9.8163 C   0  0  0  0  0  0  0  0  0  0  0  0
   13.7899   40.9744  -11.7047 C   0  0  0  0  0  0  0  0  0  0  0  0
   11.1187   40.8399   -6.2656 C   0  0  0  0  0  0  0  0  0  0  0  0
    9.2349   41.6252   -4.7626 C   0  0  0  0  0  0  0  0  0  0  0  0
   10.1024   40.6272   -5.2631 N   0  0  0  0  0  0  0  0  0  0  0  0
    9.2367   42.7244   -5.1863 O   0  0  0  0  0  0  0  0  0  0  0  0
   10.0057   39.7173   -4.8999 H   0  0  0  0  0  0  0  0  0  0  0  0
    8.4282   41.1506   -3.7434 O   0  0  0  0  0  0  0  0  0  0  0  0
    8.3057   39.7667   -3.5865 C   0  0  0  0  0  0  0  0  0  0  0  0
    9.0316   39.3204   -2.3133 C   0  0  0  0  0  0  0  0  0  0  0  0
    9.4796   40.2792   -1.4241 C   0  0  0  0  0  0  0  0  0  0  0  0
   10.1328   39.9194   -0.2620 C   0  0  0  0  0  0  0  0  0  0  0  0
   10.3560   38.5838    0.0229 C   0  0  0  0  0  0  0  0  0  0  0  0
    9.8924   37.6124   -0.8488 C   0  0  0  0  0  0  0  0  0  0  0  0
    9.2357   37.9752   -2.0131 C   0  0  0  0  0  0  0  0  0  0  0  0
 33 34  2  0  0  0
 33 32  1  0  0  0
 34 29  1  0  0  0
 32 31  2  0  0  0
 29 28  1  0  0  0
 29 30  2  0  0  0
 28 27  1  0  0  0
 31 30  1  0  0  0
 27 23  1  0  0  0
 25 23  2  0  0  0
 23 24  1  0  0  0
 24 22  1  0  0  0
 22  2  1  0  0  0
  3  2  2  0  0  0
  1  2  1  0  0  0
  2  5  1  0  0  0
  5  7  1  0  0  0
 12  9  1  0  0  0
 12 13  1  0  0  0
  9  8  1  0  0  0
  8 10  2  0  0  0
  8  7  1  0  0  0
  7 18  1  0  0  0
 13 14  1  0  0  0
 18 19  1  0  0  0
 14 15  1  0  0  0
 21 19  1  0  0  0
 19 20  1  0  0  0
  1  4  1  0  0  0
  5  6  1  0  0  0
  9 11  1  0  0  0
 15 16  1  0  0  0
 15 17  1  0  0  0
 24 26  1  0  0  0
M  END
> <minimizedAffinity>
-7.88907

$$$$
5N2T_8KK_E_410


 34 34  0  0  0  0  0  0  0  0999 V2000
   12.5968   41.4680   -5.9149 O   0  0  0  0  0  0  0  0  0  0  0  0
   12.2868   40.8861   -7.2706 P   0  0  0  0  0  0  0  0  0  0  0  0
   11.2600   41.7252   -8.0210 O   0  0  0  0  0  0  0  0  0  0  0  0
   11.7801   41.5304   -5.3953 H   0  0  0  0  0  0  0  0  0  0  0  0
   13.6408   40.7325   -8.2606 N   0  0  0  0  0  0  0  0  0  0  0  0
   14.3202   40.1710   -7.7474 H   0  0  0  0  0  0  0  0  0  0  0  0
   13.5055   40.1302   -9.5803 C   0  0  0  0  0  0  0  0  0  0  0  0
   14.0854   38.7204   -9.6237 C   0  0  0  0  0  0  0  0  0  0  0  0
   13.8889   38.0068  -10.8297 N   0  0  0  0  0  0  0  0  0  0  0  0
   14.6406   38.2103   -8.6957 O   0  0  0  0  0  0  0  0  0  0  0  0
   13.4400   38.4498  -11.5856 H   0  0  0  0  0  0  0  0  0  0  0  0
   14.3348   36.6403  -10.9718 C   0  0  0  0  0  0  0  0  0  0  0  0
   14.7163   36.3659  -12.4296 C   0  0  0  0  0  0  0  0  0  0  0  0
   13.6162   35.7433  -13.2727 C   0  0  0  0  0  0  0  0  0  0  0  0
   13.0845   34.5848  -12.5547 N   0  0  0  0  0  0  0  0  0  0  0  0
   13.8335   33.9115  -12.3936 H   0  0  0  0  0  0  0  0  0  0  0  0
   12.3489   34.1486  -13.1106 H   0  0  0  0  0  0  0  0  0  0  0  0
   14.2966   41.0085  -10.5655 C   0  0  0  0  0  0  0  0  0  0  0  0
   13.4958   41.4008  -11.8052 C   0  0  0  0  0  0  0  0  0  0  0  0
   14.2343   40.9907  -13.0761 C   0  0  0  0  0  0  0  0  0  0  0  0
   13.2385   42.9043  -11.8225 C   0  0  0  0  0  0  0  0  0  0  0  0
   11.6626   39.1634   -7.0824 C   0  0  0  0  0  0  0  0  0  0  0  0
   10.6622   38.4991   -4.8502 C   0  0  0  0  0  0  0  0  0  0  0  0
   11.7606   38.7897   -5.6917 N   0  0  0  0  0  0  0  0  0  0  0  0
    9.5551   38.4793   -5.2524 O   0  0  0  0  0  0  0  0  0  0  0  0
   12.6615   38.7327   -5.2989 H   0  0  0  0  0  0  0  0  0  0  0  0
   11.0548   38.2629   -3.5445 O   0  0  0  0  0  0  0  0  0  0  0  0
   10.7611   39.2312   -2.5798 C   0  0  0  0  0  0  0  0  0  0  0  0
    9.9778   38.5966   -1.4262 C   0  0  0  0  0  0  0  0  0  0  0  0
    9.9953   39.2071   -0.1861 C   0  0  0  0  0  0  0  0  0  0  0  0
    9.2979   38.6716    0.8785 C   0  0  0  0  0  0  0  0  0  0  0  0
    8.5752   37.5027    0.7164 C   0  0  0  0  0  0  0  0  0  0  0  0
    8.5312   36.8933   -0.5266 C   0  0  0  0  0  0  0  0  0  0  0  0
    9.2298   37.4331   -1.5938 C   0  0  0  0  0  0  0  0  0  0  0  0
 33 34  2  0  0  0
 33 32  1  0  0  0
 34 29  1  0  0  0
 32 31  2  0  0  0
 29 28  1  0  0  0
 29 30  2  0  0  0
 28 27  1  0  0  0
 31 30  1  0  0  0
 27 23  1  0  0  0
 25 23  2  0  0  0
 23 24  1  0  0  0
 24 22  1  0  0  0
 22  2  1  0  0  0
  3  2  2  0  0  0
  1  2  1  0  0  0
  2  5  1  0  0  0
  5  7  1  0  0  0
 12  9  1  0  0  0
 12 13  1  0  0  0
  9  8  1  0  0  0
  8 10  2  0  0  0
  8  7  1  0  0  0
  7 18  1  0  0  0
 13 14  1  0  0  0
 18 19  1  0  0  0
 14 15  1  0  0  0
 21 19  1  0  0  0
 19 20  1  0  0  0
  1  4  1  0  0  0
  5  6  1  0  0  0
  9 11  1  0  0  0
 15 16  1  0  0  0
 15 17  1  0  0  0
 24 26  1  0  0  0
M  END
> <minimizedAffinity>
-7.66455

$$$$
5N2T_8KK_E_410


 34 34  0  0  0  0  0  0  0  0999 V2000
   10.9248   38.7229   -7.9998 O   0  0  0  0  0  0  0  0  0  0  0  0
   12.0143   39.4128   -7.2188 P   0  0  0  0  0  0  0  0  0  0  0  0
   13.0136   38.4152   -6.6466 O   0  0  0  0  0  0  0  0  0  0  0  0
   10.4659   38.0904   -7.4251 H   0  0  0  0  0  0  0  0  0  0  0  0
   12.8797   40.5382   -8.1250 N   0  0  0  0  0  0  0  0  0  0  0  0
   13.8455   40.5008   -7.7988 H   0  0  0  0  0  0  0  0  0  0  0  0
   12.9191   40.4193   -9.5766 C   0  0  0  0  0  0  0  0  0  0  0  0
   13.8798   39.3256  -10.0313 C   0  0  0  0  0  0  0  0  0  0  0  0
   13.3644   38.0078  -10.0274 N   0  0  0  0  0  0  0  0  0  0  0  0
   15.0161   39.5360  -10.3382 O   0  0  0  0  0  0  0  0  0  0  0  0
   12.4226   37.8580   -9.7830 H   0  0  0  0  0  0  0  0  0  0  0  0
   14.1949   36.8783  -10.3754 C   0  0  0  0  0  0  0  0  0  0  0  0
   13.8589   36.4016  -11.7917 C   0  0  0  0  0  0  0  0  0  0  0  0
   14.9077   36.7265  -12.8419 C   0  0  0  0  0  0  0  0  0  0  0  0
   16.0200   37.4141  -12.1859 N   0  0  0  0  0  0  0  0  0  0  0  0
   15.6794   38.2694  -11.7467 H   0  0  0  0  0  0  0  0  0  0  0  0
   16.7314   37.6475  -12.8786 H   0  0  0  0  0  0  0  0  0  0  0  0
   13.4212   41.7641  -10.1307 C   0  0  0  0  0  0  0  0  0  0  0  0
   13.9907   42.6876   -9.0560 C   0  0  0  0  0  0  0  0  0  0  0  0
   13.3722   44.0790   -9.1578 C   0  0  0  0  0  0  0  0  0  0  0  0
   15.5073   42.7884   -9.1855 C   0  0  0  0  0  0  0  0  0  0  0  0
   11.2727   40.4014   -5.8529 C   0  0  0  0  0  0  0  0  0  0  0  0
   10.3623   38.5626   -4.3648 C   0  0  0  0  0  0  0  0  0  0  0  0
   11.2783   39.6006   -4.6521 N   0  0  0  0  0  0  0  0  0  0  0  0
    9.5402   38.2232   -5.1373 O   0  0  0  0  0  0  0  0  0  0  0  0
   11.9733   39.7919   -3.9816 H   0  0  0  0  0  0  0  0  0  0  0  0
   10.5542   38.0341   -3.1004 O   0  0  0  0  0  0  0  0  0  0  0  0
   10.7011   38.9195   -2.0285 C   0  0  0  0  0  0  0  0  0  0  0  0
    9.8247   38.4680   -0.8558 C   0  0  0  0  0  0  0  0  0  0  0  0
    8.9890   37.3794   -1.0217 C   0  0  0  0  0  0  0  0  0  0  0  0
    8.1875   36.9361    0.0116 C   0  0  0  0  0  0  0  0  0  0  0  0
    8.2055   37.5882    1.2319 C   0  0  0  0  0  0  0  0  0  0  0  0
    9.0548   38.6664    1.4181 C   0  0  0  0  0  0  0  0  0  0  0  0
    9.8595   39.1084    0.3811 C   0  0  0  0  0  0  0  0  0  0  0  0
 33 34  2  0  0  0
 33 32  1  0  0  0
 34 29  1  0  0  0
 32 31  2  0  0  0
 29 28  1  0  0  0
 29 30  2  0  0  0
 28 27  1  0  0  0
 31 30  1  0  0  0
 27 23  1  0  0  0
 25 23  2  0  0  0
 23 24  1  0  0  0
 24 22  1  0  0  0
 22  2  1  0  0  0
  3  2  2  0  0  0
  1  2  1  0  0  0
  2  5  1  0  0  0
  5  7  1  0  0  0
 12  9  1  0  0  0
 12 13  1  0  0  0
  9  8  1  0  0  0
  8 10  2  0  0  0
  8  7  1  0  0  0
  7 18  1  0  0  0
 13 14  1  0  0  0
 18 19  1  0  0  0
 14 15  1  0  0  0
 21 19  1  0  0  0
 19 20  1  0  0  0
  1  4  1  0  0  0
  5  6  1  0  0  0
  9 11  1  0  0  0
 15 16  1  0  0  0
 15 17  1  0  0  0
 24 26  1  0  0  0
M  END
> <minimizedAffinity>
-7.61788

$$$$
5N2T_8KK_E_410


 34 34  0  0  0  0  0  0  0  0999 V2000
   12.9546   41.1495   -6.0840 O   0  0  0  0  0  0  0  0  0  0  0  0
   11.6941   40.9203   -6.8786 P   0  0  0  0  0  0  0  0  0  0  0  0
   10.6516   41.9963   -6.6014 O   0  0  0  0  0  0  0  0  0  0  0  0
   12.7420   41.1654   -5.1377 H   0  0  0  0  0  0  0  0  0  0  0  0
   11.9490   40.8744   -8.5428 N   0  0  0  0  0  0  0  0  0  0  0  0
   11.1128   41.2607   -8.9809 H   0  0  0  0  0  0  0  0  0  0  0  0
   13.0896   41.5753   -9.1180 C   0  0  0  0  0  0  0  0  0  0  0  0
   12.6677   42.5320  -10.2282 C   0  0  0  0  0  0  0  0  0  0  0  0
   11.8854   43.6405   -9.8263 N   0  0  0  0  0  0  0  0  0  0  0  0
   12.9332   42.3577  -11.3808 O   0  0  0  0  0  0  0  0  0  0  0  0
   11.6884   43.7719   -8.8706 H   0  0  0  0  0  0  0  0  0  0  0  0
   11.3705   44.5828  -10.7924 C   0  0  0  0  0  0  0  0  0  0  0  0
   10.3664   45.5230  -10.1189 C   0  0  0  0  0  0  0  0  0  0  0  0
    8.9177   45.0707  -10.1920 C   0  0  0  0  0  0  0  0  0  0  0  0
    8.8943   43.6561  -10.5646 N   0  0  0  0  0  0  0  0  0  0  0  0
    9.3508   43.5351  -11.4687 H   0  0  0  0  0  0  0  0  0  0  0  0
    7.9275   43.3368  -10.6265 H   0  0  0  0  0  0  0  0  0  0  0  0
   14.0198   40.5107   -9.7254 C   0  0  0  0  0  0  0  0  0  0  0  0
   13.4033   39.1139   -9.7564 C   0  0  0  0  0  0  0  0  0  0  0  0
   14.0450   38.2178   -8.7010 C   0  0  0  0  0  0  0  0  0  0  0  0
   13.5715   38.4851  -11.1360 C   0  0  0  0  0  0  0  0  0  0  0  0
   10.9970   39.2629   -6.4788 C   0  0  0  0  0  0  0  0  0  0  0  0
   10.6650   39.0926   -3.9717 C   0  0  0  0  0  0  0  0  0  0  0  0
   11.4222   38.8953   -5.1493 N   0  0  0  0  0  0  0  0  0  0  0  0
    9.5707   39.5281   -3.9981 O   0  0  0  0  0  0  0  0  0  0  0  0
   12.3074   38.4749   -5.0553 H   0  0  0  0  0  0  0  0  0  0  0  0
   11.3651   38.7276   -2.8353 O   0  0  0  0  0  0  0  0  0  0  0  0
   11.1223   39.4337   -1.6533 C   0  0  0  0  0  0  0  0  0  0  0  0
   10.1223   38.6653   -0.7834 C   0  0  0  0  0  0  0  0  0  0  0  0
    9.6339   37.4528   -1.2327 C   0  0  0  0  0  0  0  0  0  0  0  0
    8.7359   36.7254   -0.4769 C   0  0  0  0  0  0  0  0  0  0  0  0
    8.3046   37.2111    0.7450 C   0  0  0  0  0  0  0  0  0  0  0  0
    8.8035   38.4141    1.2167 C   0  0  0  0  0  0  0  0  0  0  0  0
    9.7056   39.1413    0.4580 C   0  0  0  0  0  0  0  0  0  0  0  0
 33 34  2  0  0  0
 33 32  1  0  0  0
 34 29  1  0  0  0
 32 31  2  0  0  0
 29 28  1  0  0  0
 29 30  2  0  0  0
 28 27  1  0  0  0
 31 30  1  0  0  0
 27 23  1  0  0  0
 25 23  2  0  0  0
 23 24  1  0  0  0
 24 22  1  0  0  0
 22  2  1  0  0  0
  3  2  2  0  0  0
  1  2  1  0  0  0
  2  5  1  0  0  0
  5  7  1  0  0  0
 12  9  1  0  0  0
 12 13  1  0  0  0
  9  8  1  0  0  0
  8 10  2  0  0  0
  8  7  1  0  0  0
  7 18  1  0  0  0
 13 14  1  0  0  0
 18 19  1  0  0  0
 14 15  1  0  0  0
 21 19  1  0  0  0
 19 20  1  0  0  0
  1  4  1  0  0  0
  5  6  1  0  0  0
  9 11  1  0  0  0
 15 16  1  0  0  0
 15 17  1  0  0  0
 24 26  1  0  0  0
M  END
> <minimizedAffinity>
-7.43757

$$$$
5N2T_8KK_E_410


 34 34  0  0  0  0  0  0  0  0999 V2000
    9.7196   40.3073   -2.2529 O   0  0  0  0  0  0  0  0  0  0  0  0
    9.2002   40.0493   -3.6445 P   0  0  0  0  0  0  0  0  0  0  0  0
    7.7863   39.4819   -3.6205 O   0  0  0  0  0  0  0  0  0  0  0  0
    9.7052   39.4815   -1.7442 H   0  0  0  0  0  0  0  0  0  0  0  0
    9.1815   41.4228   -4.6191 N   0  0  0  0  0  0  0  0  0  0  0  0
    9.0892   41.1007   -5.5825 H   0  0  0  0  0  0  0  0  0  0  0  0
    8.1585   42.4398   -4.4138 C   0  0  0  0  0  0  0  0  0  0  0  0
    8.0889   43.4194   -5.5805 C   0  0  0  0  0  0  0  0  0  0  0  0
    9.2870   44.1091   -5.8823 N   0  0  0  0  0  0  0  0  0  0  0  0
    7.0861   43.6405   -6.1930 O   0  0  0  0  0  0  0  0  0  0  0  0
   10.1044   43.9032   -5.3737 H   0  0  0  0  0  0  0  0  0  0  0  0
    9.3328   45.1097   -6.9232 C   0  0  0  0  0  0  0  0  0  0  0  0
   10.0136   44.5346   -8.1688 C   0  0  0  0  0  0  0  0  0  0  0  0
   11.3342   43.8297   -7.9084 C   0  0  0  0  0  0  0  0  0  0  0  0
   11.0494   42.5095   -7.3459 N   0  0  0  0  0  0  0  0  0  0  0  0
   10.5255   42.6159   -6.4773 H   0  0  0  0  0  0  0  0  0  0  0  0
   11.9264   42.0241   -7.1568 H   0  0  0  0  0  0  0  0  0  0  0  0
    8.5431   43.2240   -3.1469 C   0  0  0  0  0  0  0  0  0  0  0  0
    7.4370   43.2551   -2.0944 C   0  0  0  0  0  0  0  0  0  0  0  0
    6.0729   43.4453   -2.7513 C   0  0  0  0  0  0  0  0  0  0  0  0
    7.6850   44.3763   -1.0903 C   0  0  0  0  0  0  0  0  0  0  0  0
   10.3224   38.8826   -4.5232 C   0  0  0  0  0  0  0  0  0  0  0  0
   11.5545   38.8918   -6.7383 C   0  0  0  0  0  0  0  0  0  0  0  0
   10.5989   39.4139   -5.8364 N   0  0  0  0  0  0  0  0  0  0  0  0
   12.1701   37.9159   -6.5006 O   0  0  0  0  0  0  0  0  0  0  0  0
   10.0825   40.2003   -6.1264 H   0  0  0  0  0  0  0  0  0  0  0  0
   11.6657   39.6619   -7.8826 O   0  0  0  0  0  0  0  0  0  0  0  0
   12.9463   39.9892   -8.3381 C   0  0  0  0  0  0  0  0  0  0  0  0
   13.2300   39.2668   -9.6590 C   0  0  0  0  0  0  0  0  0  0  0  0
   13.7519   39.9846  -10.7187 C   0  0  0  0  0  0  0  0  0  0  0  0
   14.0279   39.3707  -11.9244 C   0  0  0  0  0  0  0  0  0  0  0  0
   13.7740   38.0203  -12.0890 C   0  0  0  0  0  0  0  0  0  0  0  0
   13.2721   37.2851  -11.0279 C   0  0  0  0  0  0  0  0  0  0  0  0
   12.9978   37.9023   -9.8187 C   0  0  0  0  0  0  0  0  0  0  0  0
 33 34  2  0  0  0
 33 32  1  0  0  0
 34 29  1  0  0  0
 32 31  2  0  0  0
 29 28  1  0  0  0
 29 30  2  0  0  0
 28 27  1  0  0  0
 31 30  1  0  0  0
 27 23  1  0  0  0
 25 23  2  0  0  0
 23 24  1  0  0  0
 24 22  1  0  0  0
 22  2  1  0  0  0
  3  2  2  0  0  0
  1  2  1  0  0  0
  2  5  1  0  0  0
  5  7  1  0  0  0
 12  9  1  0  0  0
 12 13  1  0  0  0
  9  8  1  0  0  0
  8 10  2  0  0  0
  8  7  1  0  0  0
  7 18  1  0  0  0
 13 14  1  0  0  0
 18 19  1  0  0  0
 14 15  1  0  0  0
 21 19  1  0  0  0
 19 20  1  0  0  0
  1  4  1  0  0  0
  5  6  1  0  0  0
  9 11  1  0  0  0
 15 16  1  0  0  0
 15 17  1  0  0  0
 24 26  1  0  0  0
M  END
> <minimizedAffinity>
-7.37486

$$$$
