6DH1_K13_A_102
  RCSB PDB01051901473D
Coordinates from PDB:6DH1:A:102 Model:1 without hydrogens
 39 42  0  0  0  0            999 V2000
  116.8820   51.7950   12.6360   N 0  0  0  0  0  0  0  0  0  0  0  0
  117.8250   52.4350   13.5260   C 0  0  0  0  0  0  0  0  0  0  0  0
  117.6610   53.9100   13.8510   C 0  0  0  0  0  0  0  0  0  0  0  0
  118.6360   54.6010   14.7850   C 0  0  0  0  0  0  0  0  0  0  0  0
  119.7720   53.8020   15.4050   C 0  0  0  0  0  0  0  0  0  0  0  0
  119.9540   52.3260   15.0820   C 0  0  0  0  0  0  0  0  0  0  0  0
  118.9710   51.6430   14.1440   C 0  0  0  0  0  0  0  0  0  0  0  0
  120.9250   54.6620   16.4940   S 0  0  0  0  0  0  0  0  0  0  0  0
  120.2770   55.7510   17.2270   O 0  0  0  0  0  0  0  0  0  0  0  0
  121.4520   53.8200   17.5670   O 0  0  0  0  0  0  0  0  0  0  0  0
  122.1570   55.2310   15.4570   N 0  0  0  0  0  0  0  0  0  0  0  0
  122.8140   54.1780   14.6960   C 0  0  0  0  0  0  0  0  0  0  0  0
  124.2920   54.4710   14.4600   C 0  0  0  0  0  0  0  0  0  0  0  0
  125.0280   54.5320   15.7980   C 0  0  0  0  0  0  0  0  0  0  0  0
  124.8720   53.3700   13.5640   C 0  0  0  0  0  0  0  0  0  0  0  0
  121.8420   56.4640   14.7560   C 0  0  0  0  0  0  0  0  0  0  0  0
  122.7710   57.5870   15.2190   C 0  0  0  0  0  0  0  0  0  0  0  0
  125.0830   52.0570   14.3250   C 0  0  0  0  0  0  0  0  0  0  0  0
  122.5980   58.7090   14.3970   O 0  0  0  0  0  0  0  0  0  0  0  0
  122.4570   57.9680   16.6630   C 0  0  0  0  0  0  0  0  0  0  0  0
  123.4780   58.9010   17.0830   N 0  0  0  0  0  0  0  0  0  0  0  0
  124.4430   58.5970   18.1140   C 0  0  0  0  0  0  0  0  0  0  0  0
  124.4270   57.5640   18.6980   O 0  0  0  0  0  0  0  0  0  0  0  0
  125.3870   59.5930   18.3680   O 0  0  0  0  0  0  0  0  0  0  0  0
  126.2460   59.5050   19.5950   C 0  0  0  0  0  0  0  0  0  0  0  0
  127.3990   59.9040   19.2520   C 0  0  0  0  0  0  0  0  0  0  0  0
  127.2450   61.5390   19.1990   O 0  0  0  0  0  0  0  0  0  0  0  0
  126.4420   61.8670   20.1560   C 0  0  0  0  0  0  0  0  0  0  0  0
  125.2430   62.7590   19.6520   O 0  0  0  0  0  0  0  0  0  0  0  0
  124.1770   61.9910   19.6460   C 0  0  0  0  0  0  0  0  0  0  0  0
  124.4850   60.7610   20.6640   C 0  0  0  0  0  0  0  0  0  0  0  0
  125.8130   60.5570   20.6520   C 0  0  0  0  0  0  0  0  0  0  0  0
  121.1160   58.6970   16.7740   C 0  0  0  0  0  0  0  0  0  0  0  0
  120.6390   58.0990   19.3060   C 0  0  0  0  0  0  0  0  0  0  0  0
  120.4220   58.5340   20.7550   C 0  0  0  0  0  0  0  0  0  0  0  0
  120.4630   60.0150   21.1200   C 0  0  0  0  0  0  0  0  0  0  0  0
  120.7190   61.0620   20.0390   C 0  0  0  0  0  0  0  0  0  0  0  0
  120.9370   60.6240   18.5900   C 0  0  0  0  0  0  0  0  0  0  0  0
  120.8980   59.1420   18.2210   C 0  0  0  0  0  0  0  0  0  0  0  0
  1  2  1  0  0  0  0
  2  3  2  0  0  0  0
  2  7  1  0  0  0  0
  3  4  1  0  0  0  0
  4  5  2  0  0  0  0
  5  6  1  0  0  0  0
  5  8  1  0  0  0  0
  6  7  2  0  0  0  0
  8  9  2  0  0  0  0
  8 10  2  0  0  0  0
  8 11  1  0  0  0  0
 11 12  1  0  0  0  0
 11 16  1  0  0  0  0
 12 13  1  0  0  0  0
 13 14  1  0  0  0  0
 13 15  1  0  0  0  0
 15 18  1  0  0  0  0
 16 17  1  0  0  0  0
 17 19  1  0  0  0  0
 17 20  1  0  0  0  0
 20 21  1  0  0  0  0
 20 33  1  0  0  0  0
 21 22  1  0  0  0  0
 22 23  2  0  0  0  0
 22 24  1  0  0  0  0
 24 25  1  0  0  0  0
 25 26  1  0  0  0  0
 25 32  1  0  0  0  0
 26 27  1  0  0  0  0
 27 28  1  0  0  0  0
 28 29  1  0  0  0  0
 28 32  1  0  0  0  0
 29 30  1  0  0  0  0
 30 31  1  0  0  0  0
 31 32  1  0  0  0  0
 33 39  1  0  0  0  0
 34 35  2  0  0  0  0
 34 39  1  0  0  0  0
 35 36  1  0  0  0  0
 36 37  2  0  0  0  0
 37 38  1  0  0  0  0
 38 39  2  0  0  0  0
A    1
N1
A    2
C2
A    3
C3
A    4
C4
A    5
C5
A    6
C6
A    7
C7
A    8
S8
A    9
O9
A   10
O10
A   11
N11
A   12
C12
A   13
C13
A   14
C14
A   15
C15
A   16
C16
A   17
C17
A   18
C18
A   19
O18
A   20
C19
A   21
N20
A   22
C21
A   23
O22
A   24
O23
A   25
C24
A   26
C25
A   27
O26
A   28
C27
A   29
O28
A   30
C29
A   31
C30
A   32
C31
A   33
C32
A   34
C33
A   35
C34
A   36
C35
A   37
C36
A   38
C37
A   39
C38
M  END
>  <InstanceId>
6DH1_K13_A_102

>  <ChemCompId>
K13

>  <PdbId>
6DH1

>  <ChainId>
A

>  <ResidueNumber>
102

>  <InsertionCode>


>  <Model>
1

>  <AltIds>


>  <MissingHeavyAtoms>
0

>  <ObservedFormula>
C28 N3 O7 S

>  <Name>
(3R,3aS,6aR)-hexahydrofuro[2,3-b]furan-3-yl [(1S,2R)-3-{[(4-aminophenyl)sulfonyl][(2S)-2-methylbutyl]amino}-1-benzyl-2-hydroxypropyl]carbamate

>  <SystematicName>
[(3R,3aS,6aR)-2,3,3a,4,5,6a-hexahydrofuro[2,3-b]furan-3-yl] N-[(2S,3R)-4-[(4-aminophenyl)sulfonyl-[(2S)-2-methylbutyl]amino]-3-hydroxy-1-phenyl-butan-2-yl]carbamate

>  <Synonyms>


>  <Type>
NON-POLYMER

>  <Formula>
C28 H39 N3 O7 S

>  <MolecularWeight>
561.69

>  <ModifiedDate>
2011-08-05

>  <Parent>


>  <OneLetterCode>


>  <SubcomponentList>


>  <AmbiguousFlag>
N

>  <InChI>
InChI=1S/C28H39N3O7S/c1-3-19(2)16-31(39(34,35)22-11-9-21(29)10-12-22)17-25(32)24(15-20-7-5-4-6-8-20)30-28(33)38-26-18-37-27-23(26)13-14-36-27/h4-12,19,23-27,32H,3,13-18,29H2,1-2H3,(H,30,33)/t19-,23-,24-,25+,26-,27+/m0/s1

>  <InChIKey>
NKLRQHQHYBFPSD-DRMLODCJSA-N

>  <SMILES>
CC[C@H](C)C[N@@](C[C@H]([C@H](Cc1ccccc1)NC(=O)O[C@H]2CO[C@@H]3[C@H]2CCO3)O)S(=O)(=O)c4ccc(cc4)N

$$$$
