5VOJ_9H4_A_1201


 56 61  0  0  0  0  0  0  0  0999 V2000
  -12.9269  -18.2909   17.1030 C   0  0  0  0  0  0  0  0  0  0  0  0
  -15.5605  -24.6263   16.0494 C   0  0  0  0  0  0  0  0  0  0  0  0
  -14.4900  -25.5460   15.3998 C   0  0  0  0  0  0  0  0  0  0  0  0
  -12.3268  -22.5643   14.4622 C   0  0  0  0  0  0  0  0  0  0  0  0
  -13.1429  -20.7295   15.8864 C   0  0  0  0  0  0  0  0  0  0  0  0
  -15.0847  -18.5393   17.6732 C   0  0  0  0  0  0  0  0  0  0  0  0
  -17.2564  -20.5130   16.5840 C   0  0  0  0  0  0  0  0  0  0  0  0
  -16.5047  -22.4295   18.0557 C   0  0  0  0  0  0  0  0  0  0  0  0
  -15.4627  -24.7070   17.5990 C   0  0  0  0  0  0  0  0  0  0  0  0
  -13.5200  -25.1233   14.5478 C   0  0  0  0  0  0  0  0  0  0  0  0
  -13.3698  -23.6392   14.1588 C   0  0  0  0  0  0  0  0  0  0  0  0
  -12.5998  -22.9676   13.0045 C   0  0  0  0  0  0  0  0  0  0  0  0
  -13.9055  -17.5478   17.4138 C   0  0  0  0  0  0  0  0  0  0  0  0
  -13.6558  -19.2760   16.0138 C   0  0  0  0  0  0  0  0  0  0  0  0
  -15.8731  -20.4257   15.9027 C   0  0  0  0  0  0  0  0  0  0  0  0
  -17.5186  -21.9632   16.9611 C   0  0  0  0  0  0  0  0  0  0  0  0
  -16.6746  -23.9654   18.2439 C   0  0  0  0  0  0  0  0  0  0  0  0
  -14.8761  -19.4699   16.4520 N   0  0  0  0  0  0  0  0  0  0  0  0
  -12.6212  -21.1453   14.5809 N   0  0  0  0  0  0  0  0  0  0  0  0
  -15.6217  -21.1087   14.9527 O   0  0  0  0  0  0  0  0  0  0  0  0
  -13.2195  -21.5057   16.8000 O   0  0  0  0  0  0  0  0  0  0  0  0
  -12.4809  -20.5117   13.8406 H   0  0  0  0  0  0  0  0  0  0  0  0
  -11.0167  -23.1431   15.0064 C   0  0  0  0  0  0  0  0  0  0  0  0
  -10.4268  -22.5864   15.9850 N   0  0  0  0  0  0  0  0  0  0  0  0
  -10.5026  -24.2914   14.4220 O   0  0  0  0  0  0  0  0  0  0  0  0
  -10.7693  -21.7618   16.3996 H   0  0  0  0  0  0  0  0  0  0  0  0
   -8.0477  -23.7563   15.5026 O   0  0  0  0  0  0  0  0  0  0  0  0
   -9.4097  -24.5665   17.2557 O   0  0  0  0  0  0  0  0  0  0  0  0
   -9.0198  -23.3454   16.5321 S   0  0  0  0  0  0  0  0  0  0  0  0
   -8.2976  -22.2440   17.7784 C   0  0  0  0  0  0  0  0  0  0  0  0
   -7.0737  -21.4337   17.3510 C   0  0  0  0  0  0  0  0  0  0  0  0
   -6.9072  -22.6613   18.2576 C   0  0  0  0  0  0  0  0  0  0  0  0
   -9.2785  -21.5949   18.7820 C   0  0  0  0  0  0  0  0  0  0  0  0
  -19.2036  -19.0619   15.8809 C   0  0  0  0  0  0  0  0  0  0  0  0
  -18.2588  -20.1539   15.6359 N   0  0  0  0  0  0  0  0  0  0  0  0
  -19.2809  -18.4874   16.9232 O   0  0  0  0  0  0  0  0  0  0  0  0
  -18.3177  -20.6552   14.7906 H   0  0  0  0  0  0  0  0  0  0  0  0
  -20.0080  -18.7775   14.7642 O   0  0  0  0  0  0  0  0  0  0  0  0
  -19.5505  -17.8638   13.7638 C   0  0  0  0  0  0  0  0  0  0  0  0
  -20.7176  -16.8578   13.5739 C   0  0  0  0  0  0  0  0  0  0  0  0
  -19.2984  -18.6015   12.4217 C   0  0  0  0  0  0  0  0  0  0  0  0
  -18.2859  -17.1187   14.2632 C   0  0  0  0  0  0  0  0  0  0  0  0
  -14.4565  -16.8096   16.2300 O   0  0  0  0  0  0  0  0  0  0  0  0
  -13.7360  -15.6476   15.9459 C   0  0  0  0  0  0  0  0  0  0  0  0
  -14.8942  -15.5903   13.5631 C   0  0  0  0  0  0  0  0  0  0  0  0
  -13.9242  -14.9772   14.5728 C   0  0  0  0  0  0  0  0  0  0  0  0
  -12.1063  -13.8982   16.5931 C   0  0  0  0  0  0  0  0  0  0  0  0
  -11.1541  -13.3378   17.6638 C   0  0  0  0  0  0  0  0  0  0  0  0
  -10.3496  -12.0745   17.3569 C   0  0  0  0  0  0  0  0  0  0  0  0
  -10.5106  -11.3683   16.0035 C   0  0  0  0  0  0  0  0  0  0  0  0
  -11.4634  -11.9301   14.9439 C   0  0  0  0  0  0  0  0  0  0  0  0
  -12.2695  -13.2190   15.2570 C   0  0  0  0  0  0  0  0  0  0  0  0
  -12.8349  -15.1198   16.9421 N   0  0  0  0  0  0  0  0  0  0  0  0
  -13.1901  -13.7693   14.2488 N   0  0  0  0  0  0  0  0  0  0  0  0
   -8.7187  -12.4665   19.1117 C   0  0  0  0  0  0  0  0  0  0  0  0
   -9.4820  -11.5558   18.3277 O   0  0  0  0  0  0  0  0  0  0  0  0
 40 39  1  0  0  0
 41 39  1  0  0  0
 12 11  1  0  0  0
 12  4  1  0  0  0
 45 46  1  0  0  0
 39 38  1  0  0  0
 39 42  1  0  0  0
 38 34  1  0  0  0
 54 46  2  0  0  0
 54 52  1  0  0  0
 11  4  1  0  0  0
 11 10  1  0  0  0
 46 44  1  0  0  0
  4 19  1  0  0  0
  4 23  1  0  0  0
 19  5  1  0  0  0
 10  3  2  0  0  0
 51 52  2  0  0  0
 51 50  1  0  0  0
 25 23  2  0  0  0
 20 15  2  0  0  0
 34 35  1  0  0  0
 34 36  2  0  0  0
 52 47  1  0  0  0
 23 24  1  0  0  0
 35  7  1  0  0  0
  3  2  1  0  0  0
 27 29  2  0  0  0
 44 43  1  0  0  0
 44 53  2  0  0  0
 15 18  1  0  0  0
 15  7  1  0  0  0
 50 49  2  0  0  0
  5 14  1  0  0  0
  5 21  2  0  0  0
 14 18  1  0  0  0
 14  1  1  0  0  0
 24 29  1  0  0  0
 43 13  1  0  0  0
  2  9  1  0  0  0
 18  6  1  0  0  0
 47 53  1  0  0  0
 47 48  2  0  0  0
  7 16  1  0  0  0
 29 28  2  0  0  0
 29 30  1  0  0  0
 16  8  1  0  0  0
  1 13  1  0  0  0
 49 48  1  0  0  0
 49 56  1  0  0  0
 13  6  1  0  0  0
 31 30  1  0  0  0
 31 32  1  0  0  0
  9 17  1  0  0  0
 30 32  1  0  0  0
 30 33  1  0  0  0
  8 17  1  0  0  0
 56 55  1  0  0  0
 19 22  1  0  0  0
 24 26  1  0  0  0
 35 37  1  0  0  0
M  END
> <minimizedAffinity>
-11.85269

$$$$
5VOJ_9H4_A_1201


 56 61  0  0  0  0  0  0  0  0999 V2000
  -12.9271  -18.3035   17.0962 C   0  0  0  0  0  0  0  0  0  0  0  0
  -15.5510  -24.6457   16.0594 C   0  0  0  0  0  0  0  0  0  0  0  0
  -14.4796  -25.5649   15.4104 C   0  0  0  0  0  0  0  0  0  0  0  0
  -12.3228  -22.5815   14.4638 C   0  0  0  0  0  0  0  0  0  0  0  0
  -13.1403  -20.7450   15.8851 C   0  0  0  0  0  0  0  0  0  0  0  0
  -15.0837  -18.5544   17.6697 C   0  0  0  0  0  0  0  0  0  0  0  0
  -17.2533  -20.5342   16.5874 C   0  0  0  0  0  0  0  0  0  0  0  0
  -16.4965  -22.4462   18.0622 C   0  0  0  0  0  0  0  0  0  0  0  0
  -15.4511  -24.7229   17.6090 C   0  0  0  0  0  0  0  0  0  0  0  0
  -13.5114  -25.1423   14.5564 C   0  0  0  0  0  0  0  0  0  0  0  0
  -13.3643  -23.6589   14.1640 C   0  0  0  0  0  0  0  0  0  0  0  0
  -12.5970  -22.9884   13.0073 C   0  0  0  0  0  0  0  0  0  0  0  0
  -13.9066  -17.5615   17.4066 C   0  0  0  0  0  0  0  0  0  0  0  0
  -13.6556  -19.2922   16.0101 C   0  0  0  0  0  0  0  0  0  0  0  0
  -15.8710  -20.4459   15.9042 C   0  0  0  0  0  0  0  0  0  0  0  0
  -17.5126  -21.9841   16.9679 C   0  0  0  0  0  0  0  0  0  0  0  0
  -16.6635  -23.9821   18.2539 C   0  0  0  0  0  0  0  0  0  0  0  0
  -14.8751  -19.4872   16.4502 N   0  0  0  0  0  0  0  0  0  0  0  0
  -12.6196  -21.1627   14.5799 N   0  0  0  0  0  0  0  0  0  0  0  0
  -15.6197  -21.1306   14.9553 O   0  0  0  0  0  0  0  0  0  0  0  0
  -13.2144  -21.5195   16.8005 O   0  0  0  0  0  0  0  0  0  0  0  0
  -12.4813  -20.5304   13.8381 H   0  0  0  0  0  0  0  0  0  0  0  0
  -11.0110  -23.1569   15.0076 C   0  0  0  0  0  0  0  0  0  0  0  0
  -10.4182  -22.5941   15.9809 N   0  0  0  0  0  0  0  0  0  0  0  0
  -10.4986  -24.3087   14.4287 O   0  0  0  0  0  0  0  0  0  0  0  0
  -10.7596  -21.7669   16.3915 H   0  0  0  0  0  0  0  0  0  0  0  0
   -8.0354  -23.7565   15.4994 O   0  0  0  0  0  0  0  0  0  0  0  0
   -9.3965  -24.5726   17.2504 O   0  0  0  0  0  0  0  0  0  0  0  0
   -9.0095  -23.3496   16.5285 S   0  0  0  0  0  0  0  0  0  0  0  0
   -8.2916  -22.2475   17.7767 C   0  0  0  0  0  0  0  0  0  0  0  0
   -7.0736  -21.4284   17.3493 C   0  0  0  0  0  0  0  0  0  0  0  0
   -6.8977  -22.6577   18.2519 C   0  0  0  0  0  0  0  0  0  0  0  0
   -9.2745  -21.6075   18.7842 C   0  0  0  0  0  0  0  0  0  0  0  0
  -19.1802  -19.0643   15.8673 C   0  0  0  0  0  0  0  0  0  0  0  0
  -18.2575  -20.1788   15.6397 N   0  0  0  0  0  0  0  0  0  0  0  0
  -19.2377  -18.4646   16.8965 O   0  0  0  0  0  0  0  0  0  0  0  0
  -18.3331  -20.6984   14.8069 H   0  0  0  0  0  0  0  0  0  0  0  0
  -19.9893  -18.7912   14.7511 O   0  0  0  0  0  0  0  0  0  0  0  0
  -19.8189  -17.5731   14.0217 C   0  0  0  0  0  0  0  0  0  0  0  0
  -18.3378  -17.1694   14.2531 C   0  0  0  0  0  0  0  0  0  0  0  0
  -20.7388  -16.4601   14.5907 C   0  0  0  0  0  0  0  0  0  0  0  0
  -20.0705  -17.8186   12.5116 C   0  0  0  0  0  0  0  0  0  0  0  0
  -14.4603  -16.8268   16.2220 O   0  0  0  0  0  0  0  0  0  0  0  0
  -14.8543  -15.5254   16.5403 C   0  0  0  0  0  0  0  0  0  0  0  0
  -12.4366  -14.6930   15.8446 C   0  0  0  0  0  0  0  0  0  0  0  0
  -13.8392  -14.3811   16.3659 C   0  0  0  0  0  0  0  0  0  0  0  0
  -16.5545  -13.9139   17.3455 C   0  0  0  0  0  0  0  0  0  0  0  0
  -17.9859  -13.6789   17.8582 C   0  0  0  0  0  0  0  0  0  0  0  0
  -18.4223  -12.2600   18.2236 C   0  0  0  0  0  0  0  0  0  0  0  0
  -17.4458  -11.0871   18.0588 C   0  0  0  0  0  0  0  0  0  0  0  0
  -16.0234  -11.3284   17.5442 C   0  0  0  0  0  0  0  0  0  0  0  0
  -15.5826  -12.7727   17.1851 C   0  0  0  0  0  0  0  0  0  0  0  0
  -16.1931  -15.2975   17.0292 N   0  0  0  0  0  0  0  0  0  0  0  0
  -14.2191  -13.0192   16.6878 N   0  0  0  0  0  0  0  0  0  0  0  0
  -19.9883  -12.2062   20.0775 C   0  0  0  0  0  0  0  0  0  0  0  0
  -19.7254  -12.0367   18.6887 O   0  0  0  0  0  0  0  0  0  0  0  0
 40 39  1  0  0  0
 41 39  1  0  0  0
 12 11  1  0  0  0
 12  4  1  0  0  0
 45 46  1  0  0  0
 39 38  1  0  0  0
 39 42  1  0  0  0
 38 34  1  0  0  0
 54 46  2  0  0  0
 54 52  1  0  0  0
 11  4  1  0  0  0
 11 10  1  0  0  0
 46 44  1  0  0  0
  4 19  1  0  0  0
  4 23  1  0  0  0
 19  5  1  0  0  0
 10  3  2  0  0  0
 51 52  2  0  0  0
 51 50  1  0  0  0
 25 23  2  0  0  0
 20 15  2  0  0  0
 34 35  1  0  0  0
 34 36  2  0  0  0
 52 47  1  0  0  0
 23 24  1  0  0  0
 35  7  1  0  0  0
  3  2  1  0  0  0
 27 29  2  0  0  0
 44 43  1  0  0  0
 44 53  2  0  0  0
 15 18  1  0  0  0
 15  7  1  0  0  0
 50 49  2  0  0  0
  5 14  1  0  0  0
  5 21  2  0  0  0
 14 18  1  0  0  0
 14  1  1  0  0  0
 24 29  1  0  0  0
 43 13  1  0  0  0
  2  9  1  0  0  0
 18  6  1  0  0  0
 47 53  1  0  0  0
 47 48  2  0  0  0
  7 16  1  0  0  0
 29 28  2  0  0  0
 29 30  1  0  0  0
 16  8  1  0  0  0
  1 13  1  0  0  0
 49 48  1  0  0  0
 49 56  1  0  0  0
 13  6  1  0  0  0
 31 30  1  0  0  0
 31 32  1  0  0  0
  9 17  1  0  0  0
 30 32  1  0  0  0
 30 33  1  0  0  0
  8 17  1  0  0  0
 56 55  1  0  0  0
 19 22  1  0  0  0
 24 26  1  0  0  0
 35 37  1  0  0  0
M  END
> <minimizedAffinity>
-10.09744

$$$$
5VOJ_9H4_A_1201


 56 61  0  0  0  0  0  0  0  0999 V2000
  -13.1289  -18.5329   17.5195 C   0  0  0  0  0  0  0  0  0  0  0  0
  -15.5161  -24.8274   15.8271 C   0  0  0  0  0  0  0  0  0  0  0  0
  -14.4011  -25.6467   15.1204 C   0  0  0  0  0  0  0  0  0  0  0  0
  -12.3262  -22.5206   14.5111 C   0  0  0  0  0  0  0  0  0  0  0  0
  -13.2346  -20.8539   16.0790 C   0  0  0  0  0  0  0  0  0  0  0  0
  -15.2875  -18.9048   18.0147 C   0  0  0  0  0  0  0  0  0  0  0  0
  -17.3662  -20.8402   16.6988 C   0  0  0  0  0  0  0  0  0  0  0  0
  -16.5767  -22.8588   18.0048 C   0  0  0  0  0  0  0  0  0  0  0  0
  -15.4462  -25.0482   17.3645 C   0  0  0  0  0  0  0  0  0  0  0  0
  -13.4299  -25.1148   14.3335 C   0  0  0  0  0  0  0  0  0  0  0  0
  -13.3245  -23.5969   14.0863 C   0  0  0  0  0  0  0  0  0  0  0  0
  -12.5560  -22.7958   13.0166 C   0  0  0  0  0  0  0  0  0  0  0  0
  -14.1391  -17.8549   17.8748 C   0  0  0  0  0  0  0  0  0  0  0  0
  -13.8009  -19.4365   16.3279 C   0  0  0  0  0  0  0  0  0  0  0  0
  -15.9736  -20.6440   16.0604 C   0  0  0  0  0  0  0  0  0  0  0  0
  -17.5845  -22.3270   16.9348 C   0  0  0  0  0  0  0  0  0  0  0  0
  -16.6960  -24.4104   18.0469 C   0  0  0  0  0  0  0  0  0  0  0  0
  -15.0221  -19.7106   16.7181 N   0  0  0  0  0  0  0  0  0  0  0  0
  -12.6729  -21.1293   14.7532 N   0  0  0  0  0  0  0  0  0  0  0  0
  -15.6795  -21.2272   15.0576 O   0  0  0  0  0  0  0  0  0  0  0  0
  -13.3019  -21.7137   16.9153 O   0  0  0  0  0  0  0  0  0  0  0  0
  -12.5403  -20.4254   14.0777 H   0  0  0  0  0  0  0  0  0  0  0  0
  -11.0076  -23.1035   15.0298 C   0  0  0  0  0  0  0  0  0  0  0  0
  -10.4092  -22.5625   16.0120 N   0  0  0  0  0  0  0  0  0  0  0  0
  -10.4950  -24.2381   14.4181 O   0  0  0  0  0  0  0  0  0  0  0  0
  -10.7507  -21.7474   16.4459 H   0  0  0  0  0  0  0  0  0  0  0  0
   -8.0366  -23.7239   15.4802 O   0  0  0  0  0  0  0  0  0  0  0  0
   -9.3698  -24.5542   17.2460 O   0  0  0  0  0  0  0  0  0  0  0  0
   -8.9928  -23.3251   16.5291 S   0  0  0  0  0  0  0  0  0  0  0  0
   -8.2526  -22.2357   17.7753 C   0  0  0  0  0  0  0  0  0  0  0  0
   -7.0100  -21.4528   17.3508 C   0  0  0  0  0  0  0  0  0  0  0  0
   -6.8733  -22.6811   18.2615 C   0  0  0  0  0  0  0  0  0  0  0  0
   -9.2236  -21.5631   18.7730 C   0  0  0  0  0  0  0  0  0  0  0  0
  -19.3353  -19.3803   16.0798 C   0  0  0  0  0  0  0  0  0  0  0  0
  -18.3617  -20.4282   15.7650 N   0  0  0  0  0  0  0  0  0  0  0  0
  -19.4422  -18.8930   17.1630 O   0  0  0  0  0  0  0  0  0  0  0  0
  -18.3957  -20.8613   14.8815 H   0  0  0  0  0  0  0  0  0  0  0  0
  -20.1284  -19.0249   14.9754 O   0  0  0  0  0  0  0  0  0  0  0  0
  -19.9729  -17.7422   14.3628 C   0  0  0  0  0  0  0  0  0  0  0  0
  -18.4415  -17.4879   14.3449 C   0  0  0  0  0  0  0  0  0  0  0  0
  -20.6562  -16.6406   15.2163 C   0  0  0  0  0  0  0  0  0  0  0  0
  -20.5204  -17.7762   12.9126 C   0  0  0  0  0  0  0  0  0  0  0  0
  -14.6922  -17.0288   16.7516 O   0  0  0  0  0  0  0  0  0  0  0  0
  -14.9143  -15.7022   17.1269 C   0  0  0  0  0  0  0  0  0  0  0  0
  -17.4468  -16.3269   17.5945 C   0  0  0  0  0  0  0  0  0  0  0  0
  -16.3288  -15.2849   17.5691 C   0  0  0  0  0  0  0  0  0  0  0  0
  -14.1039  -13.3892   17.4860 C   0  0  0  0  0  0  0  0  0  0  0  0
  -12.9260  -12.4005   17.4406 C   0  0  0  0  0  0  0  0  0  0  0  0
  -13.1622  -10.9425   17.8352 C   0  0  0  0  0  0  0  0  0  0  0  0
  -14.5546  -10.4831   18.2896 C   0  0  0  0  0  0  0  0  0  0  0  0
  -15.7216  -11.4742   18.3358 C   0  0  0  0  0  0  0  0  0  0  0  0
  -15.4783  -12.9507   17.9237 C   0  0  0  0  0  0  0  0  0  0  0  0
  -13.8162  -14.7666   17.0797 N   0  0  0  0  0  0  0  0  0  0  0  0
  -16.5901  -13.9146   17.9649 N   0  0  0  0  0  0  0  0  0  0  0  0
  -11.8095   -9.3708   16.5731 C   0  0  0  0  0  0  0  0  0  0  0  0
  -12.0940  -10.0359   17.7993 O   0  0  0  0  0  0  0  0  0  0  0  0
 40 39  1  0  0  0
 41 39  1  0  0  0
 12 11  1  0  0  0
 12  4  1  0  0  0
 45 46  1  0  0  0
 39 38  1  0  0  0
 39 42  1  0  0  0
 38 34  1  0  0  0
 54 46  2  0  0  0
 54 52  1  0  0  0
 11  4  1  0  0  0
 11 10  1  0  0  0
 46 44  1  0  0  0
  4 19  1  0  0  0
  4 23  1  0  0  0
 19  5  1  0  0  0
 10  3  2  0  0  0
 51 52  2  0  0  0
 51 50  1  0  0  0
 25 23  2  0  0  0
 20 15  2  0  0  0
 34 35  1  0  0  0
 34 36  2  0  0  0
 52 47  1  0  0  0
 23 24  1  0  0  0
 35  7  1  0  0  0
  3  2  1  0  0  0
 27 29  2  0  0  0
 44 43  1  0  0  0
 44 53  2  0  0  0
 15 18  1  0  0  0
 15  7  1  0  0  0
 50 49  2  0  0  0
  5 14  1  0  0  0
  5 21  2  0  0  0
 14 18  1  0  0  0
 14  1  1  0  0  0
 24 29  1  0  0  0
 43 13  1  0  0  0
  2  9  1  0  0  0
 18  6  1  0  0  0
 47 53  1  0  0  0
 47 48  2  0  0  0
  7 16  1  0  0  0
 29 28  2  0  0  0
 29 30  1  0  0  0
 16  8  1  0  0  0
  1 13  1  0  0  0
 49 48  1  0  0  0
 49 56  1  0  0  0
 13  6  1  0  0  0
 31 30  1  0  0  0
 31 32  1  0  0  0
  9 17  1  0  0  0
 30 32  1  0  0  0
 30 33  1  0  0  0
  8 17  1  0  0  0
 56 55  1  0  0  0
 19 22  1  0  0  0
 24 26  1  0  0  0
 35 37  1  0  0  0
M  END
> <minimizedAffinity>
-9.81925

$$$$
5VOJ_9H4_A_1201


 56 61  0  0  0  0  0  0  0  0999 V2000
  -15.1026  -18.8134   16.6607 C   0  0  0  0  0  0  0  0  0  0  0  0
  -14.1830  -25.6855   16.9951 C   0  0  0  0  0  0  0  0  0  0  0  0
  -15.0251  -26.2788   18.1583 C   0  0  0  0  0  0  0  0  0  0  0  0
  -15.5469  -22.8399   19.6915 C   0  0  0  0  0  0  0  0  0  0  0  0
  -15.0285  -21.2618   17.8745 C   0  0  0  0  0  0  0  0  0  0  0  0
  -13.6438  -19.6589   15.1775 C   0  0  0  0  0  0  0  0  0  0  0  0
  -11.8689  -22.2333   15.3195 C   0  0  0  0  0  0  0  0  0  0  0  0
  -13.7328  -23.7722   14.5704 C   0  0  0  0  0  0  0  0  0  0  0  0
  -15.0237  -25.6609   15.6875 C   0  0  0  0  0  0  0  0  0  0  0  0
  -15.3105  -25.6298   19.3170 C   0  0  0  0  0  0  0  0  0  0  0  0
  -14.8346  -24.1873   19.5794 C   0  0  0  0  0  0  0  0  0  0  0  0
  -14.7396  -23.3738   20.8854 C   0  0  0  0  0  0  0  0  0  0  0  0
  -14.2257  -18.3776   15.8560 C   0  0  0  0  0  0  0  0  0  0  0  0
  -14.2535  -20.0195   17.3766 C   0  0  0  0  0  0  0  0  0  0  0  0
  -12.6742  -21.7747   16.5550 C   0  0  0  0  0  0  0  0  0  0  0  0
  -12.2363  -23.6771   15.0118 C   0  0  0  0  0  0  0  0  0  0  0  0
  -14.1115  -25.2795   14.4804 C   0  0  0  0  0  0  0  0  0  0  0  0
  -13.4984  -20.5431   16.4415 N   0  0  0  0  0  0  0  0  0  0  0  0
  -14.9597  -21.5665   19.3068 N   0  0  0  0  0  0  0  0  0  0  0  0
  -12.6239  -22.3974   17.5758 O   0  0  0  0  0  0  0  0  0  0  0  0
  -15.6165  -21.9824   17.1141 O   0  0  0  0  0  0  0  0  0  0  0  0
  -14.5471  -20.9552   19.9589 H   0  0  0  0  0  0  0  0  0  0  0  0
  -17.0605  -22.9813   19.8832 C   0  0  0  0  0  0  0  0  0  0  0  0
  -17.8196  -23.1679   18.8810 N   0  0  0  0  0  0  0  0  0  0  0  0
  -17.5774  -22.9193   21.1690 O   0  0  0  0  0  0  0  0  0  0  0  0
  -17.4706  -23.1972   17.9609 H   0  0  0  0  0  0  0  0  0  0  0  0
  -19.8026  -24.2256   20.3674 O   0  0  0  0  0  0  0  0  0  0  0  0
  -20.1083  -23.9575   18.0395 O   0  0  0  0  0  0  0  0  0  0  0  0
  -19.4631  -23.3627   19.2213 S   0  0  0  0  0  0  0  0  0  0  0  0
  -20.1544  -21.6932   19.3716 C   0  0  0  0  0  0  0  0  0  0  0  0
  -20.9326  -21.1621   18.1676 C   0  0  0  0  0  0  0  0  0  0  0  0
  -19.5096  -20.6592   18.4486 C   0  0  0  0  0  0  0  0  0  0  0  0
  -20.6209  -21.2601   20.7807 C   0  0  0  0  0  0  0  0  0  0  0  0
   -9.8265  -23.3874   16.2621 C   0  0  0  0  0  0  0  0  0  0  0  0
  -10.4816  -22.2301   15.6484 N   0  0  0  0  0  0  0  0  0  0  0  0
  -10.4210  -24.3507   16.6374 O   0  0  0  0  0  0  0  0  0  0  0  0
   -9.9477  -21.4253   15.4571 H   0  0  0  0  0  0  0  0  0  0  0  0
   -8.4338  -23.2317   16.3675 O   0  0  0  0  0  0  0  0  0  0  0  0
   -7.8686  -22.5764   17.5059 C   0  0  0  0  0  0  0  0  0  0  0  0
   -6.9239  -21.4933   16.9188 C   0  0  0  0  0  0  0  0  0  0  0  0
   -7.0296  -23.5718   18.3510 C   0  0  0  0  0  0  0  0  0  0  0  0
   -8.9881  -21.9047   18.3423 C   0  0  0  0  0  0  0  0  0  0  0  0
  -12.9966  -17.8907   16.5645 O   0  0  0  0  0  0  0  0  0  0  0  0
  -12.8845  -16.4990   16.5389 C   0  0  0  0  0  0  0  0  0  0  0  0
  -12.2685  -16.5664   19.1154 C   0  0  0  0  0  0  0  0  0  0  0  0
  -12.5125  -15.7624   17.8386 C   0  0  0  0  0  0  0  0  0  0  0  0
  -12.9953  -14.3401   15.3296 C   0  0  0  0  0  0  0  0  0  0  0  0
  -13.2495  -13.6018   14.0040 C   0  0  0  0  0  0  0  0  0  0  0  0
  -13.1439  -12.0770   13.9689 C   0  0  0  0  0  0  0  0  0  0  0  0
  -12.7685  -11.3013   15.2392 C   0  0  0  0  0  0  0  0  0  0  0  0
  -12.5132  -12.0436   16.5545 C   0  0  0  0  0  0  0  0  0  0  0  0
  -12.6325  -13.5908   16.5865 C   0  0  0  0  0  0  0  0  0  0  0  0
  -13.1288  -15.7983   15.3009 N   0  0  0  0  0  0  0  0  0  0  0  0
  -12.3883  -14.3176   17.8432 N   0  0  0  0  0  0  0  0  0  0  0  0
  -13.6021  -12.1619   11.5866 C   0  0  0  0  0  0  0  0  0  0  0  0
  -13.3711  -11.3968   12.7648 O   0  0  0  0  0  0  0  0  0  0  0  0
 40 39  1  0  0  0
 41 39  1  0  0  0
 12 11  1  0  0  0
 12  4  1  0  0  0
 45 46  1  0  0  0
 39 38  1  0  0  0
 39 42  1  0  0  0
 38 34  1  0  0  0
 54 46  2  0  0  0
 54 52  1  0  0  0
 11  4  1  0  0  0
 11 10  1  0  0  0
 46 44  1  0  0  0
  4 19  1  0  0  0
  4 23  1  0  0  0
 19  5  1  0  0  0
 10  3  2  0  0  0
 51 52  2  0  0  0
 51 50  1  0  0  0
 25 23  2  0  0  0
 20 15  2  0  0  0
 34 35  1  0  0  0
 34 36  2  0  0  0
 52 47  1  0  0  0
 23 24  1  0  0  0
 35  7  1  0  0  0
  3  2  1  0  0  0
 27 29  2  0  0  0
 44 43  1  0  0  0
 44 53  2  0  0  0
 15 18  1  0  0  0
 15  7  1  0  0  0
 50 49  2  0  0  0
  5 14  1  0  0  0
  5 21  2  0  0  0
 14 18  1  0  0  0
 14  1  1  0  0  0
 24 29  1  0  0  0
 43 13  1  0  0  0
  2  9  1  0  0  0
 18  6  1  0  0  0
 47 53  1  0  0  0
 47 48  2  0  0  0
  7 16  1  0  0  0
 29 28  2  0  0  0
 29 30  1  0  0  0
 16  8  1  0  0  0
  1 13  1  0  0  0
 49 48  1  0  0  0
 49 56  1  0  0  0
 13  6  1  0  0  0
 31 30  1  0  0  0
 31 32  1  0  0  0
  9 17  1  0  0  0
 30 32  1  0  0  0
 30 33  1  0  0  0
  8 17  1  0  0  0
 56 55  1  0  0  0
 19 22  1  0  0  0
 24 26  1  0  0  0
 35 37  1  0  0  0
M  END
> <minimizedAffinity>
-9.14781

$$$$
