5VOJ_9H4_A_1201
  RCSB PDB12061720023D
Coordinates from PDB:5VOJ:A:1201 Model:1 without hydrogens
 53 58  0  0  0  0            999 V2000
  -13.6490  -15.5820   15.5950   C 0  0  0  0  0  0  0  0  0  0  0  0
  -12.8690  -18.2300   16.8410   C 0  0  0  0  0  0  0  0  0  0  0  0
  -15.5700  -24.5640   15.9640   C 0  0  0  0  0  0  0  0  0  0  0  0
  -14.4940  -25.5260   15.3890   C 0  0  0  0  0  0  0  0  0  0  0  0
  -12.2530  -22.6190   14.4010   C 0  0  0  0  0  0  0  0  0  0  0  0
  -13.0850  -20.7140   15.7200   C 0  0  0  0  0  0  0  0  0  0  0  0
  -10.9710  -23.1940   15.0120   C 0  0  0  0  0  0  0  0  0  0  0  0
  -15.0480  -18.4220   17.3490   C 0  0  0  0  0  0  0  0  0  0  0  0
  -17.2150  -20.4070   16.2710   C 0  0  0  0  0  0  0  0  0  0  0  0
  -16.5430  -22.2710   17.8450   C 0  0  0  0  0  0  0  0  0  0  0  0
  -15.5240  -24.5810   17.5180   C 0  0  0  0  0  0  0  0  0  0  0  0
  -13.4900  -25.1540   14.5530   C 0  0  0  0  0  0  0  0  0  0  0  0
  -13.3030  -23.6900   14.1080   C 0  0  0  0  0  0  0  0  0  0  0  0
  -12.4850  -23.0790   12.9530   C 0  0  0  0  0  0  0  0  0  0  0  0
  -14.9430  -15.4080   13.2890   C 0  0  0  0  0  0  0  0  0  0  0  0
  -13.9200  -14.8410   14.2730   C 0  0  0  0  0  0  0  0  0  0  0  0
  -13.8450  -17.4600   17.0880   C 0  0  0  0  0  0  0  0  0  0  0  0
  -13.5780  -19.2490   15.7700   C 0  0  0  0  0  0  0  0  0  0  0  0
  -15.8090  -20.3690   15.6330   C 0  0  0  0  0  0  0  0  0  0  0  0
  -17.5130  -21.8360   16.6990   C 0  0  0  0  0  0  0  0  0  0  0  0
  -16.7440  -23.7950   18.0910   C 0  0  0  0  0  0  0  0  0  0  0  0
   -8.2230  -22.1090   17.6900   C 0  0  0  0  0  0  0  0  0  0  0  0
   -7.1110  -21.1840   17.1950   C 0  0  0  0  0  0  0  0  0  0  0  0
   -6.7710  -22.3980   18.0710   C 0  0  0  0  0  0  0  0  0  0  0  0
  -18.4490  -18.6860   14.8900   C 0  0  0  0  0  0  0  0  0  0  0  0
  -19.7450  -17.3020   13.3270   C 0  0  0  0  0  0  0  0  0  0  0  0
  -20.6610  -17.5980   12.1090   C 0  0  0  0  0  0  0  0  0  0  0  0
  -18.5280  -16.4650   12.8500   C 0  0  0  0  0  0  0  0  0  0  0  0
  -20.5530  -16.5740   14.4320   C 0  0  0  0  0  0  0  0  0  0  0  0
  -11.9950  -13.8550   16.2410   C 0  0  0  0  0  0  0  0  0  0  0  0
  -10.9860  -13.3440   17.2840   C 0  0  0  0  0  0  0  0  0  0  0  0
  -10.2080  -12.0590   17.0000   C 0  0  0  0  0  0  0  0  0  0  0  0
   -8.9370  -12.4330   19.0340   C 0  0  0  0  0  0  0  0  0  0  0  0
  -10.4510  -11.2830   15.6980   C 0  0  0  0  0  0  0  0  0  0  0  0
  -11.4600  -11.7960   14.6660   C 0  0  0  0  0  0  0  0  0  0  0  0
  -12.2390  -13.1070   14.9550   C 0  0  0  0  0  0  0  0  0  0  0  0
   -9.1910  -21.5630   18.7650   C 0  0  0  0  0  0  0  0  0  0  0  0
  -14.8150  -19.4060   16.1750   N 0  0  0  0  0  0  0  0  0  0  0  0
  -12.5280  -21.1920   14.4510   N 0  0  0  0  0  0  0  0  0  0  0  0
  -10.2840  -22.5040   15.8290   N 0  0  0  0  0  0  0  0  0  0  0  0
  -18.1800  -20.0730   15.2760   N 0  0  0  0  0  0  0  0  0  0  0  0
  -12.6950  -15.1000   16.5650   N 0  0  0  0  0  0  0  0  0  0  0  0
  -13.2130  -13.6110   13.9730   N 0  0  0  0  0  0  0  0  0  0  0  0
  -14.3450  -16.7640   15.8570   O 0  0  0  0  0  0  0  0  0  0  0  0
  -15.5380  -21.0950   14.7210   O 0  0  0  0  0  0  0  0  0  0  0  0
  -13.2040  -21.4500   16.6620   O 0  0  0  0  0  0  0  0  0  0  0  0
  -10.5900  -24.4830   14.6690   O 0  0  0  0  0  0  0  0  0  0  0  0
   -7.9180  -23.7550   15.5160   O 0  0  0  0  0  0  0  0  0  0  0  0
   -9.3720  -24.4310   17.2520   O 0  0  0  0  0  0  0  0  0  0  0  0
  -17.9790  -17.7480   15.4570   O 0  0  0  0  0  0  0  0  0  0  0  0
  -19.3230  -18.5860   13.7940   O 0  0  0  0  0  0  0  0  0  0  0  0
   -9.2890  -11.5850   17.9460   O 0  0  0  0  0  0  0  0  0  0  0  0
   -8.9210  -23.2630   16.4780   S 0  0  0  0  0  0  0  0  0  0  0  0
 27 26  1  0  0  0  0
 28 26  1  0  0  0  0
 14 13  1  0  0  0  0
 14  5  1  0  0  0  0
 15 16  1  0  0  0  0
 26 51  1  0  0  0  0
 26 29  1  0  0  0  0
 51 25  1  0  0  0  0
 43 16  2  0  0  0  0
 43 36  1  0  0  0  0
 13  5  1  0  0  0  0
 13 12  1  0  0  0  0
 16  1  1  0  0  0  0
  5 39  1  0  0  0  0
  5  7  1  0  0  0  0
 39  6  1  0  0  0  0
 12  4  2  0  0  0  0
 35 36  2  0  0  0  0
 35 34  1  0  0  0  0
 47  7  2  0  0  0  0
 45 19  2  0  0  0  0
 25 41  1  0  0  0  0
 25 50  2  0  0  0  0
 36 30  1  0  0  0  0
  7 40  1  0  0  0  0
 41  9  1  0  0  0  0
  4  3  1  0  0  0  0
 48 53  2  0  0  0  0
  1 44  1  0  0  0  0
  1 42  2  0  0  0  0
 19 38  1  0  0  0  0
 19  9  1  0  0  0  0
 34 32  2  0  0  0  0
  6 18  1  0  0  0  0
  6 46  2  0  0  0  0
 18 38  1  0  0  0  0
 18  2  1  0  0  0  0
 40 53  1  0  0  0  0
 44 17  1  0  0  0  0
  3 11  1  0  0  0  0
 38  8  1  0  0  0  0
 30 42  1  0  0  0  0
 30 31  2  0  0  0  0
  9 20  1  0  0  0  0
 53 49  2  0  0  0  0
 53 22  1  0  0  0  0
 20 10  1  0  0  0  0
  2 17  1  0  0  0  0
 32 31  1  0  0  0  0
 32 52  1  0  0  0  0
 17  8  1  0  0  0  0
 23 22  1  0  0  0  0
 23 24  1  0  0  0  0
 11 21  1  0  0  0  0
 22 24  1  0  0  0  0
 22 37  1  0  0  0  0
 10 21  1  0  0  0  0
 52 33  1  0  0  0  0
A    1
C10
A    2
C13
A    3
C20
A    4
C21
A    5
C22
A    6
C24
A    7
C26
A    8
C01
A    9
C02
A   10
C03
A   11
C04
A   12
C05
A   13
C06
A   14
C07
A   15
C08
A   16
C09
A   17
C12
A   18
C14
A   19
C16
A   20
C18
A   21
C19
A   22
C32
A   23
C33
A   24
C34
A   25
C36
A   26
C39
A   27
C40
A   28
C41
A   29
C42
A   30
C44
A   31
C45
A   32
C46
A   33
C48
A   34
C49
A   35
C50
A   36
C51
A   37
C53
A   38
N15
A   39
N23
A   40
N28
A   41
N35
A   42
N43
A   43
N52
A   44
O11
A   45
O17
A   46
O25
A   47
O27
A   48
O30
A   49
O31
A   50
O37
A   51
O38
A   52
O47
A   53
S29
M  END
>  <InstanceId>
5VOJ_9H4_A_1201

>  <ChemCompId>
9H4

>  <PdbId>
5VOJ

>  <ChainId>
A

>  <ResidueNumber>
1201

>  <InsertionCode>


>  <Model>
1

>  <AltIds>


>  <MissingHeavyAtoms>
0

>  <ObservedFormula>
C37 N6 O9 S

>  <Name>
tert-butyl [(2R,6S,12Z,13aS,14aR,16aS)-2-[(7-methoxy-3-methylquinoxalin-2-yl)oxy]-14a-{[(1-methylcyclopropyl)sulfonyl]carbamoyl}-5,16-dioxo-1,2,3,5,6,7,8,9,10,11,13a,14,14a,15,16,16a-hexadecahydrocyclopropa[e]pyrrolo[1,2-a][1,4]diazacyclopentadecin-6-yl]carbamate

>  <SystematicName>
~{tert}-butyl ~{N}-[(1~{S},4~{R},6~{S},7~{Z},14~{S},18~{R})-18-(7-methoxy-3-methyl-quinoxalin-2-yl)oxy-4-[(1-methylcyclopropyl)sulfonylcarbamoyl]-2,15-bis(oxidanylidene)-3,16-diazatricyclo[14.3.0.0^{4,6}]nonadec-7-en-14-yl]carbamate

>  <Synonyms>


>  <Type>
NON-POLYMER

>  <Formula>
C37 H50 N6 O9 S

>  <MolecularWeight>
754.893

>  <ModifiedDate>
2017-06-16

>  <Parent>


>  <OneLetterCode>


>  <SubcomponentList>


>  <AmbiguousFlag>
N

>  <InChI>
InChI=1S/C37H50N6O9S/c1-22-31(39-28-18-24(50-6)14-15-26(28)38-22)51-25-19-29-30(44)41-37(33(46)42-53(48,49)36(5)16-17-36)20-23(37)12-10-8-7-9-11-13-27(32(45)43(29)21-25)40-34(47)52-35(2,3)4/h10,12,14-15,18,23,25,27,29H,7-9,11,13,16-17,19-21H2,1-6H3,(H,40,47)(H,41,44)(H,42,46)/b12-10-/t23-,25-,27+,29+,37-/m1/s1

>  <InChIKey>
OCYIAXNHVLIDIT-IIVIQOIMSA-N

>  <SMILES>
Cc1c(nc2cc(ccc2n1)OC)O[C@@H]3C[C@H]4C(=O)N[C@@]5(C[C@H]5/C=C\CCCCC[C@@H](C(=O)N4C3)NC(=O)OC(C)(C)C)C(=O)NS(=O)(=O)C6(CC6)C

$$$$
