4OZJ_ADP_A_201
  RCSB PDB12061714083D
Coordinates from PDB:4OZJ:A:201 Model:1 without hydrogens
 27 29  0  0  0  0            999 V2000
  -19.6130    2.5360   10.8390   P 0  0  0  0  0  0  0  0  0  0  0  0
  -20.0720    1.8830    9.5500   O 0  0  0  0  0  0  0  0  0  0  0  0
  -19.7990    1.6520   12.0740   O 0  0  0  0  0  0  0  0  0  0  0  0
  -20.1560    3.9400   11.0250   O 0  0  0  0  0  0  0  0  0  0  0  0
  -17.1070    3.5770   11.5460   P 0  0  0  0  0  0  0  0  0  0  0  0
  -17.2930    5.0360   11.1790   O 0  0  0  0  0  0  0  0  0  0  0  0
  -17.3770    3.0720   12.9460   O 0  0  0  0  0  0  0  0  0  0  0  0
  -18.0200    2.6810   10.5850   O 0  0  0  0  0  0  0  0  0  0  0  0
  -15.6830    3.1110   11.1320   O 0  0  0  0  0  0  0  0  0  0  0  0
  -15.0270    3.5370    9.9490   C 0  0  0  0  0  0  0  0  0  0  0  0
  -13.7160    2.7610    9.8880   C 0  0  0  0  0  0  0  0  0  0  0  0
  -12.9500    2.8390   11.1040   O 0  0  0  0  0  0  0  0  0  0  0  0
  -13.9260    1.2650    9.6500   C 0  0  0  0  0  0  0  0  0  0  0  0
  -14.1370    1.0150    8.2680   O 0  0  0  0  0  0  0  0  0  0  0  0
  -12.6370    0.6660   10.1920   C 0  0  0  0  0  0  0  0  0  0  0  0
  -11.5780    0.8410    9.2570   O 0  0  0  0  0  0  0  0  0  0  0  0
  -12.3700    1.5570   11.3820   C 0  0  0  0  0  0  0  0  0  0  0  0
  -12.9160    1.0390   12.6660   N 0  0  0  0  0  0  0  0  0  0  0  0
  -14.0660    1.4280   13.2750   C 0  0  0  0  0  0  0  0  0  0  0  0
  -14.2330    0.8100   14.4660   N 0  0  0  0  0  0  0  0  0  0  0  0
  -13.1560   -0.0160   14.6050   C 0  0  0  0  0  0  0  0  0  0  0  0
  -12.7000   -0.9620   15.6180   C 0  0  0  0  0  0  0  0  0  0  0  0
  -13.4270   -1.1830   16.7320   N 0  0  0  0  0  0  0  0  0  0  0  0
  -11.5230   -1.6180   15.3950   N 0  0  0  0  0  0  0  0  0  0  0  0
  -10.7950   -1.4130   14.2800   C 0  0  0  0  0  0  0  0  0  0  0  0
  -11.1460   -0.5550   13.3050   N 0  0  0  0  0  0  0  0  0  0  0  0
  -12.3260    0.1340   13.4210   C 0  0  0  0  0  0  0  0  0  0  0  0
  1  2  2  0  0  0  0
  1  3  1  0  0  0  0
  1  4  1  0  0  0  0
  1  8  1  0  0  0  0
  5  6  2  0  0  0  0
  5  7  1  0  0  0  0
  5  8  1  0  0  0  0
  5  9  1  0  0  0  0
  9 10  1  0  0  0  0
 10 11  1  0  0  0  0
 11 12  1  0  0  0  0
 11 13  1  0  0  0  0
 12 17  1  0  0  0  0
 13 14  1  0  0  0  0
 13 15  1  0  0  0  0
 15 16  1  0  0  0  0
 15 17  1  0  0  0  0
 17 18  1  0  0  0  0
 18 19  1  0  0  0  0
 18 27  1  0  0  0  0
 19 20  2  0  0  0  0
 20 21  1  0  0  0  0
 21 22  1  0  0  0  0
 21 27  2  0  0  0  0
 22 23  1  0  0  0  0
 22 24  2  0  0  0  0
 24 25  1  0  0  0  0
 25 26  2  0  0  0  0
 26 27  1  0  0  0  0
A    1
PB
A    2
O1B
A    3
O2B
A    4
O3B
A    5
PA
A    6
O1A
A    7
O2A
A    8
O3A
A    9
O5'
A   10
C5'
A   11
C4'
A   12
O4'
A   13
C3'
A   14
O3'
A   15
C2'
A   16
O2'
A   17
C1'
A   18
N9
A   19
C8
A   20
N7
A   21
C5
A   22
C6
A   23
N6
A   24
N1
A   25
C2
A   26
N3
A   27
C4
M  END
>  <InstanceId>
4OZJ_ADP_A_201

>  <ChemCompId>
ADP

>  <PdbId>
4OZJ

>  <ChainId>
A

>  <ResidueNumber>
201

>  <InsertionCode>


>  <Model>
1

>  <AltIds>


>  <MissingHeavyAtoms>
0

>  <ObservedFormula>
C10 N5 O10 P2

>  <Name>
ADENOSINE-5'-DIPHOSPHATE

>  <SystematicName>
[(2R,3S,4R,5R)-5-(6-aminopurin-9-yl)-3,4-dihydroxy-oxolan-2-yl]methyl phosphono hydrogen phosphate

>  <Synonyms>


>  <Type>
NON-POLYMER

>  <Formula>
C10 H15 N5 O10 P2

>  <MolecularWeight>
427.201

>  <ModifiedDate>
2011-06-04

>  <Parent>
A

>  <OneLetterCode>


>  <SubcomponentList>


>  <AmbiguousFlag>
N

>  <InChI>
InChI=1S/C10H15N5O10P2/c11-8-5-9(13-2-12-8)15(3-14-5)10-7(17)6(16)4(24-10)1-23-27(21,22)25-26(18,19)20/h2-4,6-7,10,16-17H,1H2,(H,21,22)(H2,11,12,13)(H2,18,19,20)/t4-,6-,7-,10-/m1/s1

>  <InChIKey>
XTWYTFMLZFPYCI-KQYNXXCUSA-N

>  <SMILES>
c1nc(c2c(n1)n(cn2)[C@H]3[C@@H]([C@@H]([C@H](O3)CO[P@](=O)(O)OP(=O)(O)O)O)O)N

$$$$
