4OZJ_ADP_A_201


 34 36  0  0  0  0  0  0  0  0999 V2000
  -13.8335    2.9389    9.9287 C   0  0  0  0  0  0  0  0  0  0  0  0
  -13.0317    2.9625   11.1238 O   0  0  0  0  0  0  0  0  0  0  0  0
  -14.0300    1.4550    9.6155 C   0  0  0  0  0  0  0  0  0  0  0  0
  -14.2798    1.2773    8.2288 O   0  0  0  0  0  0  0  0  0  0  0  0
  -12.7168    0.8474   10.0850 C   0  0  0  0  0  0  0  0  0  0  0  0
  -11.6895    1.0894    9.1298 O   0  0  0  0  0  0  0  0  0  0  0  0
  -12.4258    1.6764   11.3136 C   0  0  0  0  0  0  0  0  0  0  0  0
  -13.5557    1.6703    7.7168 H   0  0  0  0  0  0  0  0  0  0  0  0
  -11.6198    2.0426    8.9644 H   0  0  0  0  0  0  0  0  0  0  0  0
  -12.9249    1.0810   12.5830 N   0  0  0  0  0  0  0  0  0  0  0  0
  -14.1678    1.2219   13.1123 C   0  0  0  0  0  0  0  0  0  0  0  0
  -14.2702    0.6100   14.3137 N   0  0  0  0  0  0  0  0  0  0  0  0
  -13.0500    0.0441   14.5425 C   0  0  0  0  0  0  0  0  0  0  0  0
  -12.4630   -0.7549   15.6130 C   0  0  0  0  0  0  0  0  0  0  0  0
  -13.1925   -1.1044   16.6919 N   0  0  0  0  0  0  0  0  0  0  0  0
  -11.1598   -1.1414   15.4800 N   0  0  0  0  0  0  0  0  0  0  0  0
  -10.4257   -0.8073   14.4008 C   0  0  0  0  0  0  0  0  0  0  0  0
  -10.8936   -0.0701   13.3772 N   0  0  0  0  0  0  0  0  0  0  0  0
  -12.2003    0.3454   13.4021 C   0  0  0  0  0  0  0  0  0  0  0  0
  -14.1304   -0.8146   16.7669 H   0  0  0  0  0  0  0  0  0  0  0  0
  -12.7872   -1.6493   17.4047 H   0  0  0  0  0  0  0  0  0  0  0  0
  -15.1526    3.6901   10.0713 C   0  0  0  0  0  0  0  0  0  0  0  0
  -16.1268    2.7162   10.4086 O   0  0  0  0  0  0  0  0  0  0  0  0
  -17.4218    3.0304   11.2089 P   0  0  0  0  0  0  0  0  0  0  0  0
  -17.4024    2.2797   12.5257 O   0  0  0  0  0  0  0  0  0  0  0  0
  -18.5951    2.9333   10.2592 O   0  0  0  0  0  0  0  0  0  0  0  0
  -19.4160    3.1261   10.7387 H   0  0  0  0  0  0  0  0  0  0  0  0
  -17.2366    4.5926   11.5009 O   0  0  0  0  0  0  0  0  0  0  0  0
  -18.1909    5.3665   12.5561 P   0  0  0  0  0  0  0  0  0  0  0  0
  -18.4679    6.6656   11.8252 O   0  0  0  0  0  0  0  0  0  0  0  0
  -19.4363    4.5021   12.7632 O   0  0  0  0  0  0  0  0  0  0  0  0
  -17.3794    5.5543   13.8237 O   0  0  0  0  0  0  0  0  0  0  0  0
  -20.0317    4.9384   13.3925 H   0  0  0  0  0  0  0  0  0  0  0  0
  -17.9166    6.0166   14.4860 H   0  0  0  0  0  0  0  0  0  0  0  0
 29 30  2  0  0  0
 29 31  1  0  0  0
 29 32  1  0  0  0
 29 28  1  0  0  0
 24 25  2  0  0  0
 24 26  1  0  0  0
 24 28  1  0  0  0
 24 23  1  0  0  0
 23 22  1  0  0  0
 22  1  1  0  0  0
  1  2  1  0  0  0
  1  3  1  0  0  0
  2  7  1  0  0  0
  3  4  1  0  0  0
  3  5  1  0  0  0
  5  6  1  0  0  0
  5  7  1  0  0  0
  7 10  1  0  0  0
 10 11  1  0  0  0
 10 19  1  0  0  0
 11 12  2  0  0  0
 12 13  1  0  0  0
 13 14  1  0  0  0
 13 19  2  0  0  0
 14 15  1  0  0  0
 14 16  2  0  0  0
 16 17  1  0  0  0
 17 18  2  0  0  0
 18 19  1  0  0  0
 31 33  1  0  0  0
 32 34  1  0  0  0
 26 27  1  0  0  0
  4  8  1  0  0  0
  6  9  1  0  0  0
 15 20  1  0  0  0
 15 21  1  0  0  0
M  END
> <minimizedAffinity>
-10.53074

$$$$
4OZJ_ADP_A_201


 34 36  0  0  0  0  0  0  0  0999 V2000
  -13.8049    2.9271    9.8778 C   0  0  0  0  0  0  0  0  0  0  0  0
  -13.0352    2.9627   11.0934 O   0  0  0  0  0  0  0  0  0  0  0  0
  -13.9518    1.4411    9.5479 C   0  0  0  0  0  0  0  0  0  0  0  0
  -14.1607    1.2683    8.1539 O   0  0  0  0  0  0  0  0  0  0  0  0
  -12.6347    0.8662   10.0467 C   0  0  0  0  0  0  0  0  0  0  0  0
  -11.5903    1.1446    9.1204 O   0  0  0  0  0  0  0  0  0  0  0  0
  -12.3986    1.6924   11.2889 C   0  0  0  0  0  0  0  0  0  0  0  0
  -13.4349    1.6856    7.6640 H   0  0  0  0  0  0  0  0  0  0  0  0
  -11.5430    2.1008    8.9644 H   0  0  0  0  0  0  0  0  0  0  0  0
  -12.9135    1.0725   12.5402 N   0  0  0  0  0  0  0  0  0  0  0  0
  -14.1770    1.1621   13.0304 C   0  0  0  0  0  0  0  0  0  0  0  0
  -14.2928    0.5417   14.2262 N   0  0  0  0  0  0  0  0  0  0  0  0
  -13.0589    0.0235   14.4918 C   0  0  0  0  0  0  0  0  0  0  0  0
  -12.4748   -0.7562   15.5780 C   0  0  0  0  0  0  0  0  0  0  0  0
  -13.2234   -1.1386   16.6323 N   0  0  0  0  0  0  0  0  0  0  0  0
  -11.1538   -1.0904   15.4851 N   0  0  0  0  0  0  0  0  0  0  0  0
  -10.4000   -0.7233   14.4305 C   0  0  0  0  0  0  0  0  0  0  0  0
  -10.8642   -0.0009   13.3948 N   0  0  0  0  0  0  0  0  0  0  0  0
  -12.1864    0.3627   13.3796 C   0  0  0  0  0  0  0  0  0  0  0  0
  -14.1739   -0.8863   16.6785 H   0  0  0  0  0  0  0  0  0  0  0  0
  -12.8195   -1.6701   17.3560 H   0  0  0  0  0  0  0  0  0  0  0  0
  -15.1478    3.6402    9.9919 C   0  0  0  0  0  0  0  0  0  0  0  0
  -15.9533    2.8320   10.8342 O   0  0  0  0  0  0  0  0  0  0  0  0
  -17.3408    3.2695   11.3818 P   0  0  0  0  0  0  0  0  0  0  0  0
  -18.4049    3.0229   10.3307 O   0  0  0  0  0  0  0  0  0  0  0  0
  -17.1791    4.6202   12.0432 O   0  0  0  0  0  0  0  0  0  0  0  0
  -18.0349    4.9134   12.3931 H   0  0  0  0  0  0  0  0  0  0  0  0
  -17.5454    2.2288   12.5797 O   0  0  0  0  0  0  0  0  0  0  0  0
  -18.9851    2.0540   13.3008 P   0  0  0  0  0  0  0  0  0  0  0  0
  -19.1273    3.3763   14.0287 O   0  0  0  0  0  0  0  0  0  0  0  0
  -20.0251    1.8467   12.1977 O   0  0  0  0  0  0  0  0  0  0  0  0
  -18.8647    0.8660   14.2360 O   0  0  0  0  0  0  0  0  0  0  0  0
  -20.9025    1.7382   12.5969 H   0  0  0  0  0  0  0  0  0  0  0  0
  -19.7100    0.7254   14.6907 H   0  0  0  0  0  0  0  0  0  0  0  0
 29 30  2  0  0  0
 29 31  1  0  0  0
 29 32  1  0  0  0
 29 28  1  0  0  0
 24 25  2  0  0  0
 24 26  1  0  0  0
 24 28  1  0  0  0
 24 23  1  0  0  0
 23 22  1  0  0  0
 22  1  1  0  0  0
  1  2  1  0  0  0
  1  3  1  0  0  0
  2  7  1  0  0  0
  3  4  1  0  0  0
  3  5  1  0  0  0
  5  6  1  0  0  0
  5  7  1  0  0  0
  7 10  1  0  0  0
 10 11  1  0  0  0
 10 19  1  0  0  0
 11 12  2  0  0  0
 12 13  1  0  0  0
 13 14  1  0  0  0
 13 19  2  0  0  0
 14 15  1  0  0  0
 14 16  2  0  0  0
 16 17  1  0  0  0
 17 18  2  0  0  0
 18 19  1  0  0  0
 31 33  1  0  0  0
 32 34  1  0  0  0
 26 27  1  0  0  0
  4  8  1  0  0  0
  6  9  1  0  0  0
 15 20  1  0  0  0
 15 21  1  0  0  0
M  END
> <minimizedAffinity>
-9.97382

$$$$
4OZJ_ADP_A_201


 34 36  0  0  0  0  0  0  0  0999 V2000
  -18.8542    3.0918   12.3129 C   0  0  0  0  0  0  0  0  0  0  0  0
  -17.6923    2.3577   12.7403 O   0  0  0  0  0  0  0  0  0  0  0  0
  -18.3032    4.3836   11.7074 C   0  0  0  0  0  0  0  0  0  0  0  0
  -19.2814    5.4110   11.7753 O   0  0  0  0  0  0  0  0  0  0  0  0
  -17.0760    4.6472   12.5667 C   0  0  0  0  0  0  0  0  0  0  0  0
  -17.4594    5.1968   13.8226 O   0  0  0  0  0  0  0  0  0  0  0  0
  -16.5665    3.2445   12.7995 C   0  0  0  0  0  0  0  0  0  0  0  0
  -19.5660    5.5262   12.6954 H   0  0  0  0  0  0  0  0  0  0  0  0
  -18.0950    4.6046   14.2542 H   0  0  0  0  0  0  0  0  0  0  0  0
  -15.5385    2.7990   11.8198 N   0  0  0  0  0  0  0  0  0  0  0  0
  -15.3689    3.2613   10.5541 C   0  0  0  0  0  0  0  0  0  0  0  0
  -14.3886    2.5924    9.9062 N   0  0  0  0  0  0  0  0  0  0  0  0
  -13.9074    1.6856   10.8049 C   0  0  0  0  0  0  0  0  0  0  0  0
  -12.8652    0.6645   10.7892 C   0  0  0  0  0  0  0  0  0  0  0  0
  -12.1071    0.4699    9.6911 N   0  0  0  0  0  0  0  0  0  0  0  0
  -12.6800   -0.0761   11.9217 N   0  0  0  0  0  0  0  0  0  0  0  0
  -13.4242    0.1182   13.0279 C   0  0  0  0  0  0  0  0  0  0  0  0
  -14.4050    1.0347   13.1177 N   0  0  0  0  0  0  0  0  0  0  0  0
  -14.6528    1.8486   12.0422 C   0  0  0  0  0  0  0  0  0  0  0  0
  -12.2581    1.0155    8.8856 H   0  0  0  0  0  0  0  0  0  0  0  0
  -11.4025   -0.2177    9.6948 H   0  0  0  0  0  0  0  0  0  0  0  0
  -19.7355    2.3153   11.3408 C   0  0  0  0  0  0  0  0  0  0  0  0
  -19.4997    2.8764   10.0599 O   0  0  0  0  0  0  0  0  0  0  0  0
  -19.3730    2.0359    8.7584 P   0  0  0  0  0  0  0  0  0  0  0  0
  -20.0050    2.7865    7.6029 O   0  0  0  0  0  0  0  0  0  0  0  0
  -19.7591    0.6096    9.0820 O   0  0  0  0  0  0  0  0  0  0  0  0
  -19.6872    0.0658    8.2820 H   0  0  0  0  0  0  0  0  0  0  0  0
  -17.7862    2.0133    8.5550 O   0  0  0  0  0  0  0  0  0  0  0  0
  -17.1287    1.5626    7.1451 P   0  0  0  0  0  0  0  0  0  0  0  0
  -17.8609    0.2648    6.8650 O   0  0  0  0  0  0  0  0  0  0  0  0
  -17.4279    2.6668    6.1290 O   0  0  0  0  0  0  0  0  0  0  0  0
  -15.6451    1.3706    7.3957 O   0  0  0  0  0  0  0  0  0  0  0  0
  -17.0464    2.4275    5.2698 H   0  0  0  0  0  0  0  0  0  0  0  0
  -15.2106    1.0987    6.5721 H   0  0  0  0  0  0  0  0  0  0  0  0
 29 30  2  0  0  0
 29 31  1  0  0  0
 29 32  1  0  0  0
 29 28  1  0  0  0
 24 25  2  0  0  0
 24 26  1  0  0  0
 24 28  1  0  0  0
 24 23  1  0  0  0
 23 22  1  0  0  0
 22  1  1  0  0  0
  1  2  1  0  0  0
  1  3  1  0  0  0
  2  7  1  0  0  0
  3  4  1  0  0  0
  3  5  1  0  0  0
  5  6  1  0  0  0
  5  7  1  0  0  0
  7 10  1  0  0  0
 10 11  1  0  0  0
 10 19  1  0  0  0
 11 12  2  0  0  0
 12 13  1  0  0  0
 13 14  1  0  0  0
 13 19  2  0  0  0
 14 15  1  0  0  0
 14 16  2  0  0  0
 16 17  1  0  0  0
 17 18  2  0  0  0
 18 19  1  0  0  0
 31 33  1  0  0  0
 32 34  1  0  0  0
 26 27  1  0  0  0
  4  8  1  0  0  0
  6  9  1  0  0  0
 15 20  1  0  0  0
 15 21  1  0  0  0
M  END
> <minimizedAffinity>
-9.06556

$$$$
4OZJ_ADP_A_201


 34 36  0  0  0  0  0  0  0  0999 V2000
  -18.8510    4.7518   12.1020 C   0  0  0  0  0  0  0  0  0  0  0  0
  -17.5939    4.9039   11.4180 O   0  0  0  0  0  0  0  0  0  0  0  0
  -19.0621    3.2407   12.2069 C   0  0  0  0  0  0  0  0  0  0  0  0
  -20.4472    2.9474   12.3175 O   0  0  0  0  0  0  0  0  0  0  0  0
  -18.4285    2.7344   10.9200 C   0  0  0  0  0  0  0  0  0  0  0  0
  -19.3028    2.9531    9.8181 O   0  0  0  0  0  0  0  0  0  0  0  0
  -17.2483    3.6665   10.7803 C   0  0  0  0  0  0  0  0  0  0  0  0
  -20.9209    3.3352   11.5651 H   0  0  0  0  0  0  0  0  0  0  0  0
  -19.5363    3.8935    9.7724 H   0  0  0  0  0  0  0  0  0  0  0  0
  -15.9862    3.1448   11.3719 N   0  0  0  0  0  0  0  0  0  0  0  0
  -15.5666    3.2983   12.6545 C   0  0  0  0  0  0  0  0  0  0  0  0
  -14.3398    2.7625   12.8451 N   0  0  0  0  0  0  0  0  0  0  0  0
  -13.9795    2.2330   11.6404 C   0  0  0  0  0  0  0  0  0  0  0  0
  -12.8166    1.5137   11.1312 C   0  0  0  0  0  0  0  0  0  0  0  0
  -11.7781    1.2214   11.9401 N   0  0  0  0  0  0  0  0  0  0  0  0
  -12.8213    1.1415    9.8171 N   0  0  0  0  0  0  0  0  0  0  0  0
  -13.8589    1.4184    9.0034 C   0  0  0  0  0  0  0  0  0  0  0  0
  -14.9617    2.0809    9.3970 N   0  0  0  0  0  0  0  0  0  0  0  0
  -15.0667    2.4752   10.7062 C   0  0  0  0  0  0  0  0  0  0  0  0
  -11.7961    1.4997   12.8843 H   0  0  0  0  0  0  0  0  0  0  0  0
  -11.0018    0.7299   11.5865 H   0  0  0  0  0  0  0  0  0  0  0  0
  -18.8888    5.4469   13.4585 C   0  0  0  0  0  0  0  0  0  0  0  0
  -19.8625    4.7597   14.2271 O   0  0  0  0  0  0  0  0  0  0  0  0
  -21.1922    5.4026   14.7117 P   0  0  0  0  0  0  0  0  0  0  0  0
  -22.2972    5.0985   13.7195 O   0  0  0  0  0  0  0  0  0  0  0  0
  -20.8942    6.8174   15.1560 O   0  0  0  0  0  0  0  0  0  0  0  0
  -21.7121    7.2389   15.4633 H   0  0  0  0  0  0  0  0  0  0  0  0
  -21.4639    4.5805   16.0572 O   0  0  0  0  0  0  0  0  0  0  0  0
  -21.0974    3.0066   16.1656 P   0  0  0  0  0  0  0  0  0  0  0  0
  -21.9244    2.5797   17.3625 O   0  0  0  0  0  0  0  0  0  0  0  0
  -21.5302    2.3465   14.8548 O   0  0  0  0  0  0  0  0  0  0  0  0
  -19.6028    2.9212   16.4097 O   0  0  0  0  0  0  0  0  0  0  0  0
  -21.3241    1.3992   14.8864 H   0  0  0  0  0  0  0  0  0  0  0  0
  -19.3396    1.9903   16.4813 H   0  0  0  0  0  0  0  0  0  0  0  0
 29 30  2  0  0  0
 29 31  1  0  0  0
 29 32  1  0  0  0
 29 28  1  0  0  0
 24 25  2  0  0  0
 24 26  1  0  0  0
 24 28  1  0  0  0
 24 23  1  0  0  0
 23 22  1  0  0  0
 22  1  1  0  0  0
  1  2  1  0  0  0
  1  3  1  0  0  0
  2  7  1  0  0  0
  3  4  1  0  0  0
  3  5  1  0  0  0
  5  6  1  0  0  0
  5  7  1  0  0  0
  7 10  1  0  0  0
 10 11  1  0  0  0
 10 19  1  0  0  0
 11 12  2  0  0  0
 12 13  1  0  0  0
 13 14  1  0  0  0
 13 19  2  0  0  0
 14 15  1  0  0  0
 14 16  2  0  0  0
 16 17  1  0  0  0
 17 18  2  0  0  0
 18 19  1  0  0  0
 31 33  1  0  0  0
 32 34  1  0  0  0
 26 27  1  0  0  0
  4  8  1  0  0  0
  6  9  1  0  0  0
 15 20  1  0  0  0
 15 21  1  0  0  0
M  END
> <minimizedAffinity>
-8.93893

$$$$
4OZJ_ADP_A_201


 34 36  0  0  0  0  0  0  0  0999 V2000
  -15.3169    2.2137   11.5576 C   0  0  0  0  0  0  0  0  0  0  0  0
  -16.4828    2.0735   12.3898 O   0  0  0  0  0  0  0  0  0  0  0  0
  -15.6526    3.3567   10.5986 C   0  0  0  0  0  0  0  0  0  0  0  0
  -14.8926    3.2324    9.4053 O   0  0  0  0  0  0  0  0  0  0  0  0
  -17.1495    3.1795   10.3938 C   0  0  0  0  0  0  0  0  0  0  0  0
  -17.4024    2.1136    9.4849 O   0  0  0  0  0  0  0  0  0  0  0  0
  -17.5903    2.7422   11.7707 C   0  0  0  0  0  0  0  0  0  0  0  0
  -15.0506    2.3605    9.0107 H   0  0  0  0  0  0  0  0  0  0  0  0
  -16.9731    1.3055    9.8067 H   0  0  0  0  0  0  0  0  0  0  0  0
  -18.0441    3.8558   12.6477 N   0  0  0  0  0  0  0  0  0  0  0  0
  -17.2567    4.6813   13.3848 C   0  0  0  0  0  0  0  0  0  0  0  0
  -17.9918    5.5401   14.1267 N   0  0  0  0  0  0  0  0  0  0  0  0
  -19.2938    5.2586   13.8313 C   0  0  0  0  0  0  0  0  0  0  0  0
  -20.5883    5.7862   14.2496 C   0  0  0  0  0  0  0  0  0  0  0  0
  -20.6657    6.8088   15.1251 N   0  0  0  0  0  0  0  0  0  0  0  0
  -21.7110    5.2171   13.7194 N   0  0  0  0  0  0  0  0  0  0  0  0
  -21.6442    4.2028   12.8352 C   0  0  0  0  0  0  0  0  0  0  0  0
  -20.4906    3.6598   12.4058 N   0  0  0  0  0  0  0  0  0  0  0  0
  -19.3045    4.1782   12.8587 C   0  0  0  0  0  0  0  0  0  0  0  0
  -19.8432    7.2038   15.4947 H   0  0  0  0  0  0  0  0  0  0  0  0
  -21.5449    7.1605   15.3947 H   0  0  0  0  0  0  0  0  0  0  0  0
  -14.0374    2.4650   12.3478 C   0  0  0  0  0  0  0  0  0  0  0  0
  -13.7072    1.2323   12.9665 O   0  0  0  0  0  0  0  0  0  0  0  0
  -12.4908    0.3568   12.5537 P   0  0  0  0  0  0  0  0  0  0  0  0
  -11.2032    1.0638   12.9279 O   0  0  0  0  0  0  0  0  0  0  0  0
  -12.7351   -0.1536   11.1509 O   0  0  0  0  0  0  0  0  0  0  0  0
  -11.9866   -0.7038   10.8721 H   0  0  0  0  0  0  0  0  0  0  0  0
  -12.6813   -0.9121   13.5094 O   0  0  0  0  0  0  0  0  0  0  0  0
  -11.4671   -1.4541   14.4341 P   0  0  0  0  0  0  0  0  0  0  0  0
  -11.3948   -0.3838   15.5055 O   0  0  0  0  0  0  0  0  0  0  0  0
  -11.8785   -2.8282   14.9671 O   0  0  0  0  0  0  0  0  0  0  0  0
  -10.2338   -1.5027   13.5526 O   0  0  0  0  0  0  0  0  0  0  0  0
  -11.1705   -3.1829   15.5273 H   0  0  0  0  0  0  0  0  0  0  0  0
   -9.4789   -1.8238   14.0701 H   0  0  0  0  0  0  0  0  0  0  0  0
 29 30  2  0  0  0
 29 31  1  0  0  0
 29 32  1  0  0  0
 29 28  1  0  0  0
 24 25  2  0  0  0
 24 26  1  0  0  0
 24 28  1  0  0  0
 24 23  1  0  0  0
 23 22  1  0  0  0
 22  1  1  0  0  0
  1  2  1  0  0  0
  1  3  1  0  0  0
  2  7  1  0  0  0
  3  4  1  0  0  0
  3  5  1  0  0  0
  5  6  1  0  0  0
  5  7  1  0  0  0
  7 10  1  0  0  0
 10 11  1  0  0  0
 10 19  1  0  0  0
 11 12  2  0  0  0
 12 13  1  0  0  0
 13 14  1  0  0  0
 13 19  2  0  0  0
 14 15  1  0  0  0
 14 16  2  0  0  0
 16 17  1  0  0  0
 17 18  2  0  0  0
 18 19  1  0  0  0
 31 33  1  0  0  0
 32 34  1  0  0  0
 26 27  1  0  0  0
  4  8  1  0  0  0
  6  9  1  0  0  0
 15 20  1  0  0  0
 15 21  1  0  0  0
M  END
> <minimizedAffinity>
-8.61133

$$$$
4OZJ_ADP_A_201


 34 36  0  0  0  0  0  0  0  0999 V2000
  -14.8404    2.4809    9.7070 C   0  0  0  0  0  0  0  0  0  0  0  0
  -15.6521    3.6030   10.0986 O   0  0  0  0  0  0  0  0  0  0  0  0
  -14.8318    1.5567   10.9254 C   0  0  0  0  0  0  0  0  0  0  0  0
  -13.6670    0.7442   10.9141 O   0  0  0  0  0  0  0  0  0  0  0  0
  -14.8801    2.5437   12.0819 C   0  0  0  0  0  0  0  0  0  0  0  0
  -13.5961    3.1199   12.2952 O   0  0  0  0  0  0  0  0  0  0  0  0
  -15.7920    3.6117   11.5261 C   0  0  0  0  0  0  0  0  0  0  0  0
  -12.8793    1.3088   10.8731 H   0  0  0  0  0  0  0  0  0  0  0  0
  -13.2835    3.5270   11.4721 H   0  0  0  0  0  0  0  0  0  0  0  0
  -17.2265    3.4331   11.8800 N   0  0  0  0  0  0  0  0  0  0  0  0
  -17.8846    2.2548   12.0320 C   0  0  0  0  0  0  0  0  0  0  0  0
  -19.1992    2.4470   12.2839 N   0  0  0  0  0  0  0  0  0  0  0  0
  -19.3736    3.7999   12.3114 C   0  0  0  0  0  0  0  0  0  0  0  0
  -20.5052    4.6942   12.5319 C   0  0  0  0  0  0  0  0  0  0  0  0
  -21.7322    4.2013   12.7965 N   0  0  0  0  0  0  0  0  0  0  0  0
  -20.2773    6.0394   12.4701 N   0  0  0  0  0  0  0  0  0  0  0  0
  -19.0530    6.5421   12.2179 C   0  0  0  0  0  0  0  0  0  0  0  0
  -17.9636    5.7836   11.9992 N   0  0  0  0  0  0  0  0  0  0  0  0
  -18.0813    4.4190   12.0661 C   0  0  0  0  0  0  0  0  0  0  0  0
  -21.8735    3.2278   12.8362 H   0  0  0  0  0  0  0  0  0  0  0  0
  -22.4866    4.8149   12.9499 H   0  0  0  0  0  0  0  0  0  0  0  0
  -15.3387    1.7861    8.4447 C   0  0  0  0  0  0  0  0  0  0  0  0
  -16.7439    1.9761    8.4182 O   0  0  0  0  0  0  0  0  0  0  0  0
  -17.6567    1.5124    7.2485 P   0  0  0  0  0  0  0  0  0  0  0  0
  -16.8941    0.5536    6.3558 O   0  0  0  0  0  0  0  0  0  0  0  0
  -18.3552    2.7311    6.6875 O   0  0  0  0  0  0  0  0  0  0  0  0
  -18.9316    2.4645    5.9543 H   0  0  0  0  0  0  0  0  0  0  0  0
  -18.7855    0.6983    8.0377 O   0  0  0  0  0  0  0  0  0  0  0  0
  -20.0322    1.4592    8.7376 P   0  0  0  0  0  0  0  0  0  0  0  0
  -21.0547    1.4687    7.6182 O   0  0  0  0  0  0  0  0  0  0  0  0
  -20.4555    0.6233    9.9473 O   0  0  0  0  0  0  0  0  0  0  0  0
  -19.5437    2.8451    9.1137 O   0  0  0  0  0  0  0  0  0  0  0  0
  -21.2034    1.0526   10.3913 H   0  0  0  0  0  0  0  0  0  0  0  0
  -20.2635    3.3375    9.5383 H   0  0  0  0  0  0  0  0  0  0  0  0
 29 30  2  0  0  0
 29 31  1  0  0  0
 29 32  1  0  0  0
 29 28  1  0  0  0
 24 25  2  0  0  0
 24 26  1  0  0  0
 24 28  1  0  0  0
 24 23  1  0  0  0
 23 22  1  0  0  0
 22  1  1  0  0  0
  1  2  1  0  0  0
  1  3  1  0  0  0
  2  7  1  0  0  0
  3  4  1  0  0  0
  3  5  1  0  0  0
  5  6  1  0  0  0
  5  7  1  0  0  0
  7 10  1  0  0  0
 10 11  1  0  0  0
 10 19  1  0  0  0
 11 12  2  0  0  0
 12 13  1  0  0  0
 13 14  1  0  0  0
 13 19  2  0  0  0
 14 15  1  0  0  0
 14 16  2  0  0  0
 16 17  1  0  0  0
 17 18  2  0  0  0
 18 19  1  0  0  0
 31 33  1  0  0  0
 32 34  1  0  0  0
 26 27  1  0  0  0
  4  8  1  0  0  0
  6  9  1  0  0  0
 15 20  1  0  0  0
 15 21  1  0  0  0
M  END
> <minimizedAffinity>
-8.49293

$$$$
4OZJ_ADP_A_201


 34 36  0  0  0  0  0  0  0  0999 V2000
  -14.2911    2.3921   11.2103 C   0  0  0  0  0  0  0  0  0  0  0  0
  -15.5925    1.9348   11.6207 O   0  0  0  0  0  0  0  0  0  0  0  0
  -14.5608    3.3797   10.0741 C   0  0  0  0  0  0  0  0  0  0  0  0
  -13.4290    3.4631    9.2203 O   0  0  0  0  0  0  0  0  0  0  0  0
  -15.7893    2.7796    9.4073 C   0  0  0  0  0  0  0  0  0  0  0  0
  -15.4192    1.6749    8.5895 O   0  0  0  0  0  0  0  0  0  0  0  0
  -16.5498    2.2515   10.6007 C   0  0  0  0  0  0  0  0  0  0  0  0
  -13.2037    2.5777    8.8946 H   0  0  0  0  0  0  0  0  0  0  0  0
  -14.9319    1.0271    9.1223 H   0  0  0  0  0  0  0  0  0  0  0  0
  -17.5571    3.1997   11.1499 N   0  0  0  0  0  0  0  0  0  0  0  0
  -17.3223    4.4537   11.6157 C   0  0  0  0  0  0  0  0  0  0  0  0
  -18.4460    5.0199   12.1108 N   0  0  0  0  0  0  0  0  0  0  0  0
  -19.4325    4.0945   11.9325 C   0  0  0  0  0  0  0  0  0  0  0  0
  -20.8620    4.0359   12.2191 C   0  0  0  0  0  0  0  0  0  0  0  0
  -21.4955    5.0840   12.7834 N   0  0  0  0  0  0  0  0  0  0  0  0
  -21.5328    2.8927   11.8895 N   0  0  0  0  0  0  0  0  0  0  0  0
  -20.9115    1.8444   11.3149 C   0  0  0  0  0  0  0  0  0  0  0  0
  -19.5980    1.8208   11.0249 N   0  0  0  0  0  0  0  0  0  0  0  0
  -18.8396    2.9316   11.2925 C   0  0  0  0  0  0  0  0  0  0  0  0
  -20.9919    5.8982   13.0128 H   0  0  0  0  0  0  0  0  0  0  0  0
  -22.4617    5.0349   12.9660 H   0  0  0  0  0  0  0  0  0  0  0  0
  -13.4814    3.0082   12.3458 C   0  0  0  0  0  0  0  0  0  0  0  0
  -12.3182    2.2080   12.4804 O   0  0  0  0  0  0  0  0  0  0  0  0
  -12.3105    0.7981   13.1349 P   0  0  0  0  0  0  0  0  0  0  0  0
  -12.4152   -0.2644   12.0587 O   0  0  0  0  0  0  0  0  0  0  0  0
  -13.2548    0.8243   14.3162 O   0  0  0  0  0  0  0  0  0  0  0  0
  -13.2657   -0.0477   14.7408 H   0  0  0  0  0  0  0  0  0  0  0  0
  -10.8401    0.7545   13.7641 O   0  0  0  0  0  0  0  0  0  0  0  0
  -10.2777   -0.5812   14.4873 P   0  0  0  0  0  0  0  0  0  0  0  0
   -8.8717   -0.1578   14.8651 O   0  0  0  0  0  0  0  0  0  0  0  0
  -11.1783   -0.8606   15.6923 O   0  0  0  0  0  0  0  0  0  0  0  0
  -10.3112   -1.6875   13.4502 O   0  0  0  0  0  0  0  0  0  0  0  0
  -10.8680   -1.6575   16.1500 H   0  0  0  0  0  0  0  0  0  0  0  0
   -9.9806   -2.5100   13.8440 H   0  0  0  0  0  0  0  0  0  0  0  0
 29 30  2  0  0  0
 29 31  1  0  0  0
 29 32  1  0  0  0
 29 28  1  0  0  0
 24 25  2  0  0  0
 24 26  1  0  0  0
 24 28  1  0  0  0
 24 23  1  0  0  0
 23 22  1  0  0  0
 22  1  1  0  0  0
  1  2  1  0  0  0
  1  3  1  0  0  0
  2  7  1  0  0  0
  3  4  1  0  0  0
  3  5  1  0  0  0
  5  6  1  0  0  0
  5  7  1  0  0  0
  7 10  1  0  0  0
 10 11  1  0  0  0
 10 19  1  0  0  0
 11 12  2  0  0  0
 12 13  1  0  0  0
 13 14  1  0  0  0
 13 19  2  0  0  0
 14 15  1  0  0  0
 14 16  2  0  0  0
 16 17  1  0  0  0
 17 18  2  0  0  0
 18 19  1  0  0  0
 31 33  1  0  0  0
 32 34  1  0  0  0
 26 27  1  0  0  0
  4  8  1  0  0  0
  6  9  1  0  0  0
 15 20  1  0  0  0
 15 21  1  0  0  0
M  END
> <minimizedAffinity>
-8.32734

$$$$
4OZJ_ADP_A_201


 34 36  0  0  0  0  0  0  0  0999 V2000
  -14.4853    2.3710   10.4985 C   0  0  0  0  0  0  0  0  0  0  0  0
  -14.7606    2.7998    9.1524 O   0  0  0  0  0  0  0  0  0  0  0  0
  -15.8529    2.0251   11.0892 C   0  0  0  0  0  0  0  0  0  0  0  0
  -15.8189    2.1462   12.5038 O   0  0  0  0  0  0  0  0  0  0  0  0
  -16.7651    3.0346   10.4089 C   0  0  0  0  0  0  0  0  0  0  0  0
  -16.6328    4.3130   11.0208 O   0  0  0  0  0  0  0  0  0  0  0  0
  -16.1565    3.1053    9.0283 C   0  0  0  0  0  0  0  0  0  0  0  0
  -15.5274    3.0394   12.7450 H   0  0  0  0  0  0  0  0  0  0  0  0
  -15.7015    4.5841   11.0054 H   0  0  0  0  0  0  0  0  0  0  0  0
  -16.7759    2.1798    8.0410 N   0  0  0  0  0  0  0  0  0  0  0  0
  -16.1287    1.4455    7.0994 C   0  0  0  0  0  0  0  0  0  0  0  0
  -16.9951    0.7640    6.3163 N   0  0  0  0  0  0  0  0  0  0  0  0
  -18.2368    1.0647    6.7950 C   0  0  0  0  0  0  0  0  0  0  0  0
  -19.6018    0.6868    6.4440 C   0  0  0  0  0  0  0  0  0  0  0  0
  -19.8410   -0.1705    5.4309 N   0  0  0  0  0  0  0  0  0  0  0  0
  -20.6212    1.2216    7.1789 N   0  0  0  0  0  0  0  0  0  0  0  0
  -20.3923    2.0698    8.2004 C   0  0  0  0  0  0  0  0  0  0  0  0
  -19.1650    2.4690    8.5802 N   0  0  0  0  0  0  0  0  0  0  0  0
  -18.0713    1.9675    7.9222 C   0  0  0  0  0  0  0  0  0  0  0  0
  -19.0906   -0.5438    4.9145 H   0  0  0  0  0  0  0  0  0  0  0  0
  -20.7660   -0.4230    5.2078 H   0  0  0  0  0  0  0  0  0  0  0  0
  -13.5010    1.2091   10.5731 C   0  0  0  0  0  0  0  0  0  0  0  0
  -13.7881    0.5258   11.7822 O   0  0  0  0  0  0  0  0  0  0  0  0
  -12.8952    0.6048   13.0522 P   0  0  0  0  0  0  0  0  0  0  0  0
  -13.7300    1.0533   14.2355 O   0  0  0  0  0  0  0  0  0  0  0  0
  -11.6093    1.3081   12.6783 O   0  0  0  0  0  0  0  0  0  0  0  0
  -11.0354    1.3687   13.4580 H   0  0  0  0  0  0  0  0  0  0  0  0
  -12.4992   -0.9326   13.2511 O   0  0  0  0  0  0  0  0  0  0  0  0
  -11.3397   -1.3708   14.2935 P   0  0  0  0  0  0  0  0  0  0  0  0
  -10.0897   -1.2017   13.4523 O   0  0  0  0  0  0  0  0  0  0  0  0
  -11.4114   -0.4126   15.4843 O   0  0  0  0  0  0  0  0  0  0  0  0
  -11.6149   -2.8133   14.6732 O   0  0  0  0  0  0  0  0  0  0  0  0
  -10.7273   -0.6480   16.1304 H   0  0  0  0  0  0  0  0  0  0  0  0
  -10.9398   -3.1172   15.2999 H   0  0  0  0  0  0  0  0  0  0  0  0
 29 30  2  0  0  0
 29 31  1  0  0  0
 29 32  1  0  0  0
 29 28  1  0  0  0
 24 25  2  0  0  0
 24 26  1  0  0  0
 24 28  1  0  0  0
 24 23  1  0  0  0
 23 22  1  0  0  0
 22  1  1  0  0  0
  1  2  1  0  0  0
  1  3  1  0  0  0
  2  7  1  0  0  0
  3  4  1  0  0  0
  3  5  1  0  0  0
  5  6  1  0  0  0
  5  7  1  0  0  0
  7 10  1  0  0  0
 10 11  1  0  0  0
 10 19  1  0  0  0
 11 12  2  0  0  0
 12 13  1  0  0  0
 13 14  1  0  0  0
 13 19  2  0  0  0
 14 15  1  0  0  0
 14 16  2  0  0  0
 16 17  1  0  0  0
 17 18  2  0  0  0
 18 19  1  0  0  0
 31 33  1  0  0  0
 32 34  1  0  0  0
 26 27  1  0  0  0
  4  8  1  0  0  0
  6  9  1  0  0  0
 15 20  1  0  0  0
 15 21  1  0  0  0
M  END
> <minimizedAffinity>
-8.31639

$$$$
4OZJ_ADP_A_201


 34 36  0  0  0  0  0  0  0  0999 V2000
  -14.8773    2.5367    9.7363 C   0  0  0  0  0  0  0  0  0  0  0  0
  -15.6560    3.6619   10.1825 O   0  0  0  0  0  0  0  0  0  0  0  0
  -14.8852    1.5606   10.9136 C   0  0  0  0  0  0  0  0  0  0  0  0
  -13.7428    0.7187   10.8579 O   0  0  0  0  0  0  0  0  0  0  0  0
  -14.8991    2.4975   12.1119 C   0  0  0  0  0  0  0  0  0  0  0  0
  -13.5987    3.0297   12.3397 O   0  0  0  0  0  0  0  0  0  0  0  0
  -15.7858    3.6124   11.6100 C   0  0  0  0  0  0  0  0  0  0  0  0
  -12.9405    1.2635   10.8350 H   0  0  0  0  0  0  0  0  0  0  0  0
  -13.2810    3.4636   11.5324 H   0  0  0  0  0  0  0  0  0  0  0  0
  -17.2222    3.4568   11.9674 N   0  0  0  0  0  0  0  0  0  0  0  0
  -17.8910    2.2891   12.1520 C   0  0  0  0  0  0  0  0  0  0  0  0
  -19.2039    2.5001   12.3970 N   0  0  0  0  0  0  0  0  0  0  0  0
  -19.3662    3.8547   12.3859 C   0  0  0  0  0  0  0  0  0  0  0  0
  -20.4900    4.7650   12.5797 C   0  0  0  0  0  0  0  0  0  0  0  0
  -21.7215    4.2908   12.8569 N   0  0  0  0  0  0  0  0  0  0  0  0
  -20.2499    6.1058   12.4800 N   0  0  0  0  0  0  0  0  0  0  0  0
  -19.0210    6.5903   12.2149 C   0  0  0  0  0  0  0  0  0  0  0  0
  -17.9383    5.8161   12.0191 N   0  0  0  0  0  0  0  0  0  0  0  0
  -18.0683    4.4550   12.1245 C   0  0  0  0  0  0  0  0  0  0  0  0
  -21.8716    3.3201   12.9241 H   0  0  0  0  0  0  0  0  0  0  0  0
  -22.4705    4.9152   12.9921 H   0  0  0  0  0  0  0  0  0  0  0  0
  -15.4028    1.9107    8.4492 C   0  0  0  0  0  0  0  0  0  0  0  0
  -16.8164    1.9019    8.5631 O   0  0  0  0  0  0  0  0  0  0  0  0
  -17.7806    1.8052    7.3477 P   0  0  0  0  0  0  0  0  0  0  0  0
  -17.1124    2.3895    6.1188 O   0  0  0  0  0  0  0  0  0  0  0  0
  -19.1499    2.2636    7.7980 O   0  0  0  0  0  0  0  0  0  0  0  0
  -19.7694    2.2114    7.0534 H   0  0  0  0  0  0  0  0  0  0  0  0
  -17.8982    0.2197    7.1684 O   0  0  0  0  0  0  0  0  0  0  0  0
  -18.7433   -0.4247    5.9461 P   0  0  0  0  0  0  0  0  0  0  0  0
  -17.6377   -0.8843    5.0161 O   0  0  0  0  0  0  0  0  0  0  0  0
  -19.5758   -1.5718    6.5226 O   0  0  0  0  0  0  0  0  0  0  0  0
  -19.5901    0.6908    5.3638 O   0  0  0  0  0  0  0  0  0  0  0  0
  -20.0964   -1.9814    5.8139 H   0  0  0  0  0  0  0  0  0  0  0  0
  -20.1152    0.3460    4.6246 H   0  0  0  0  0  0  0  0  0  0  0  0
 29 30  2  0  0  0
 29 31  1  0  0  0
 29 32  1  0  0  0
 29 28  1  0  0  0
 24 25  2  0  0  0
 24 26  1  0  0  0
 24 28  1  0  0  0
 24 23  1  0  0  0
 23 22  1  0  0  0
 22  1  1  0  0  0
  1  2  1  0  0  0
  1  3  1  0  0  0
  2  7  1  0  0  0
  3  4  1  0  0  0
  3  5  1  0  0  0
  5  6  1  0  0  0
  5  7  1  0  0  0
  7 10  1  0  0  0
 10 11  1  0  0  0
 10 19  1  0  0  0
 11 12  2  0  0  0
 12 13  1  0  0  0
 13 14  1  0  0  0
 13 19  2  0  0  0
 14 15  1  0  0  0
 14 16  2  0  0  0
 16 17  1  0  0  0
 17 18  2  0  0  0
 18 19  1  0  0  0
 31 33  1  0  0  0
 32 34  1  0  0  0
 26 27  1  0  0  0
  4  8  1  0  0  0
  6  9  1  0  0  0
 15 20  1  0  0  0
 15 21  1  0  0  0
M  END
> <minimizedAffinity>
-8.27905

$$$$
4OZJ_ADP_A_201


 34 36  0  0  0  0  0  0  0  0999 V2000
  -16.2662    3.1215   11.4998 C   0  0  0  0  0  0  0  0  0  0  0  0
  -15.0289    3.1151   12.2350 O   0  0  0  0  0  0  0  0  0  0  0  0
  -15.9541    2.3840   10.1970 C   0  0  0  0  0  0  0  0  0  0  0  0
  -16.8492    2.7975    9.1749 O   0  0  0  0  0  0  0  0  0  0  0  0
  -14.5068    2.7762    9.9406 C   0  0  0  0  0  0  0  0  0  0  0  0
  -14.4376    4.0957    9.4111 O   0  0  0  0  0  0  0  0  0  0  0  0
  -13.9498    2.7996   11.3444 C   0  0  0  0  0  0  0  0  0  0  0  0
  -16.8022    3.7612    9.0744 H   0  0  0  0  0  0  0  0  0  0  0  0
  -14.8880    4.7094   10.0122 H   0  0  0  0  0  0  0  0  0  0  0  0
  -13.3188    1.5210   11.7711 N   0  0  0  0  0  0  0  0  0  0  0  0
  -12.8332    0.5451   10.9608 C   0  0  0  0  0  0  0  0  0  0  0  0
  -12.3918   -0.5180   11.6701 N   0  0  0  0  0  0  0  0  0  0  0  0
  -12.5885   -0.1922   12.9804 C   0  0  0  0  0  0  0  0  0  0  0  0
  -12.3421   -0.8494   14.2595 C   0  0  0  0  0  0  0  0  0  0  0  0
  -11.7753   -2.0720   14.3086 N   0  0  0  0  0  0  0  0  0  0  0  0
  -12.6953   -0.1830   15.3981 N   0  0  0  0  0  0  0  0  0  0  0  0
  -13.2516    1.0436   15.3605 C   0  0  0  0  0  0  0  0  0  0  0  0
  -13.5142    1.7109   14.2222 N   0  0  0  0  0  0  0  0  0  0  0  0
  -13.1721    1.1386   13.0239 C   0  0  0  0  0  0  0  0  0  0  0  0
  -11.5287   -2.5341   13.4750 H   0  0  0  0  0  0  0  0  0  0  0  0
  -11.6080   -2.5025   15.1781 H   0  0  0  0  0  0  0  0  0  0  0  0
  -17.4273    2.4974   12.2659 C   0  0  0  0  0  0  0  0  0  0  0  0
  -18.5098    3.4064   12.1510 O   0  0  0  0  0  0  0  0  0  0  0  0
  -18.4946    4.8465   12.7359 P   0  0  0  0  0  0  0  0  0  0  0  0
  -17.8069    5.7846   11.7637 O   0  0  0  0  0  0  0  0  0  0  0  0
  -18.0718    4.7593   14.1855 O   0  0  0  0  0  0  0  0  0  0  0  0
  -18.0553    5.6491   14.5716 H   0  0  0  0  0  0  0  0  0  0  0  0
  -20.0575    5.1873   12.7663 O   0  0  0  0  0  0  0  0  0  0  0  0
  -20.9662    4.8372   14.0605 P   0  0  0  0  0  0  0  0  0  0  0  0
  -22.3659    5.0666   13.5250 O   0  0  0  0  0  0  0  0  0  0  0  0
  -20.6842    3.3806   14.4348 O   0  0  0  0  0  0  0  0  0  0  0  0
  -20.5737    5.8179   15.1489 O   0  0  0  0  0  0  0  0  0  0  0  0
  -21.2147    3.1373   15.2096 H   0  0  0  0  0  0  0  0  0  0  0  0
  -21.0971    5.6424   15.9465 H   0  0  0  0  0  0  0  0  0  0  0  0
 29 30  2  0  0  0
 29 31  1  0  0  0
 29 32  1  0  0  0
 29 28  1  0  0  0
 24 25  2  0  0  0
 24 26  1  0  0  0
 24 28  1  0  0  0
 24 23  1  0  0  0
 23 22  1  0  0  0
 22  1  1  0  0  0
  1  2  1  0  0  0
  1  3  1  0  0  0
  2  7  1  0  0  0
  3  4  1  0  0  0
  3  5  1  0  0  0
  5  6  1  0  0  0
  5  7  1  0  0  0
  7 10  1  0  0  0
 10 11  1  0  0  0
 10 19  1  0  0  0
 11 12  2  0  0  0
 12 13  1  0  0  0
 13 14  1  0  0  0
 13 19  2  0  0  0
 14 15  1  0  0  0
 14 16  2  0  0  0
 16 17  1  0  0  0
 17 18  2  0  0  0
 18 19  1  0  0  0
 31 33  1  0  0  0
 32 34  1  0  0  0
 26 27  1  0  0  0
  4  8  1  0  0  0
  6  9  1  0  0  0
 15 20  1  0  0  0
 15 21  1  0  0  0
M  END
> <minimizedAffinity>
-8.04214

$$$$
