3DK1_G05_B_401


 42 45  0  0  0  0  0  0  0  0999 V2000
   14.7764   22.7404   17.1198 C   0  0  0  0  0  0  0  0  0  0  0  0
   13.9240   21.7817   17.8434 N   0  0  0  0  0  0  0  0  0  0  0  0
   14.3923   20.8954   18.6730 C   0  0  0  0  0  0  0  0  0  0  0  0
   15.5887   20.7107   18.9718 O   0  0  0  0  0  0  0  0  0  0  0  0
   12.9518   21.8130   17.6918 H   0  0  0  0  0  0  0  0  0  0  0  0
   13.4275   20.1386   19.2298 O   0  0  0  0  0  0  0  0  0  0  0  0
   13.8231   18.8513   19.7602 C   0  0  0  0  0  0  0  0  0  0  0  0
   12.6557   18.4206   20.6609 C   0  0  0  0  0  0  0  0  0  0  0  0
   11.6699   17.6432   19.7636 C   0  0  0  0  0  0  0  0  0  0  0  0
   10.9055   18.6491   19.0012 O   0  0  0  0  0  0  0  0  0  0  0  0
   10.2136   18.0477   17.8943 C   0  0  0  0  0  0  0  0  0  0  0  0
   11.2739   17.4856   16.9432 C   0  0  0  0  0  0  0  0  0  0  0  0
   11.9571   16.4280   17.6278 O   0  0  0  0  0  0  0  0  0  0  0  0
   12.5699   16.9252   18.8369 C   0  0  0  0  0  0  0  0  0  0  0  0
   13.7854   17.8087   18.6350 C   0  0  0  0  0  0  0  0  0  0  0  0
   15.2115   23.8168   18.1113 C   0  0  0  0  0  0  0  0  0  0  0  0
   14.1555   24.7825   18.2779 O   0  0  0  0  0  0  0  0  0  0  0  0
   13.9885   25.2280   17.4326 H   0  0  0  0  0  0  0  0  0  0  0  0
   16.5013   24.5389   17.7117 C   0  0  0  0  0  0  0  0  0  0  0  0
   17.5868   23.5888   17.4532 N   0  0  0  0  0  0  0  0  0  0  0  0
   18.4087   23.7134   16.0127 S   0  0  0  0  0  0  0  0  0  0  0  0
   17.4450   23.3979   14.9478 O   0  0  0  0  0  0  0  0  0  0  0  0
   19.6006   22.8923   16.1290 O   0  0  0  0  0  0  0  0  0  0  0  0
   19.8507   27.9238   15.2401 C   0  0  0  0  0  0  0  0  0  0  0  0
   18.8660   27.3643   14.4346 C   0  0  0  0  0  0  0  0  0  0  0  0
   18.4058   26.1025   14.7261 C   0  0  0  0  0  0  0  0  0  0  0  0
   18.9351   25.3710   15.7857 C   0  0  0  0  0  0  0  0  0  0  0  0
   19.9323   25.9118   16.5743 C   0  0  0  0  0  0  0  0  0  0  0  0
   20.3916   27.1996   16.2737 C   0  0  0  0  0  0  0  0  0  0  0  0
   20.5366   29.0886   15.0089 O   0  0  0  0  0  0  0  0  0  0  0  0
   21.9305   28.9031   15.0123 C   0  0  0  0  0  0  0  0  0  0  0  0
   18.3815   23.1600   18.5937 C   0  0  0  0  0  0  0  0  0  0  0  0
   19.0412   24.2781   19.4122 C   0  0  0  0  0  0  0  0  0  0  0  0
   18.3802   24.4326   20.7839 C   0  0  0  0  0  0  0  0  0  0  0  0
   20.5578   23.9690   19.5447 C   0  0  0  0  0  0  0  0  0  0  0  0
   13.9575   23.2665   15.9609 C   0  0  0  0  0  0  0  0  0  0  0  0
   12.2369   21.7328   14.8795 C   0  0  0  0  0  0  0  0  0  0  0  0
   11.9050   20.6328   14.1004 C   0  0  0  0  0  0  0  0  0  0  0  0
   12.8699   19.9641   13.3585 C   0  0  0  0  0  0  0  0  0  0  0  0
   14.1815   20.4264   13.4464 C   0  0  0  0  0  0  0  0  0  0  0  0
   14.5208   21.5270   14.2487 C   0  0  0  0  0  0  0  0  0  0  0  0
   13.5475   22.1847   14.9779 C   0  0  0  0  0  0  0  0  0  0  0  0
 24 30  1  0  0  0
 24 25  2  0  0  0
 24 29  1  0  0  0
 30 31  1  0  0  0
 25 26  1  0  0  0
 26 27  2  0  0  0
 27 28  1  0  0  0
 27 21  1  0  0  0
 28 29  2  0  0  0
 21 22  2  0  0  0
 21 23  2  0  0  0
 21 20  1  0  0  0
 20 32  1  0  0  0
 20 19  1  0  0  0
 32 33  1  0  0  0
 33 34  1  0  0  0
 33 35  1  0  0  0
 19 16  1  0  0  0
 16 17  1  0  0  0
 16  1  1  0  0  0
  1  2  1  0  0  0
  1 36  1  0  0  0
  2  3  1  0  0  0
  3  4  2  0  0  0
  3  6  1  0  0  0
  6  7  1  0  0  0
  7  8  1  0  0  0
  7 15  1  0  0  0
  8  9  1  0  0  0
  9 10  1  0  0  0
  9 14  1  0  0  0
 10 11  1  0  0  0
 11 12  1  0  0  0
 12 13  1  0  0  0
 13 14  1  0  0  0
 14 15  1  0  0  0
 36 42  1  0  0  0
 37 38  2  0  0  0
 37 42  1  0  0  0
 38 39  1  0  0  0
 39 40  2  0  0  0
 40 41  1  0  0  0
 41 42  2  0  0  0
 17 18  1  0  0  0
  2  5  1  0  0  0
M  END
> <minimizedAffinity>
-10.01243

$$$$
3DK1_G05_B_401


 42 45  0  0  0  0  0  0  0  0999 V2000
   16.7373   21.8120   18.4284 C   0  0  0  0  0  0  0  0  0  0  0  0
   15.5755   20.9446   18.6869 N   0  0  0  0  0  0  0  0  0  0  0  0
   14.3701   21.4009   18.8657 C   0  0  0  0  0  0  0  0  0  0  0  0
   14.0154   22.5962   18.8597 O   0  0  0  0  0  0  0  0  0  0  0  0
   15.7179   19.9712   18.7263 H   0  0  0  0  0  0  0  0  0  0  0  0
   13.4656   20.4241   19.0693 O   0  0  0  0  0  0  0  0  0  0  0  0
   13.9404   19.2039   19.6863 C   0  0  0  0  0  0  0  0  0  0  0  0
   12.8436   18.8170   20.6897 C   0  0  0  0  0  0  0  0  0  0  0  0
   11.8395   17.9291   19.9250 C   0  0  0  0  0  0  0  0  0  0  0  0
   10.9946   18.8359   19.1241 O   0  0  0  0  0  0  0  0  0  0  0  0
   10.2650   18.1141   18.1179 C   0  0  0  0  0  0  0  0  0  0  0  0
   11.2908   17.5047   17.1582 C   0  0  0  0  0  0  0  0  0  0  0  0
   12.0524   16.5367   17.8911 O   0  0  0  0  0  0  0  0  0  0  0  0
   12.7129   17.1613   19.0128 C   0  0  0  0  0  0  0  0  0  0  0  0
   13.8796   18.0635   18.6616 C   0  0  0  0  0  0  0  0  0  0  0  0
   17.1510   21.6140   16.9721 C   0  0  0  0  0  0  0  0  0  0  0  0
   17.9449   20.4183   16.8485 O   0  0  0  0  0  0  0  0  0  0  0  0
   18.7612   20.5176   17.3630 H   0  0  0  0  0  0  0  0  0  0  0  0
   17.9221   22.7986   16.3832 C   0  0  0  0  0  0  0  0  0  0  0  0
   17.0145   23.7846   15.7900 N   0  0  0  0  0  0  0  0  0  0  0  0
   17.2880   25.3930   16.1129 S   0  0  0  0  0  0  0  0  0  0  0  0
   16.8476   25.6269   17.4963 O   0  0  0  0  0  0  0  0  0  0  0  0
   16.6564   26.1550   15.0504 O   0  0  0  0  0  0  0  0  0  0  0  0
   21.6842   26.4236   15.9901 C   0  0  0  0  0  0  0  0  0  0  0  0
   21.0212   26.3370   17.2084 C   0  0  0  0  0  0  0  0  0  0  0  0
   19.6976   25.9671   17.2207 C   0  0  0  0  0  0  0  0  0  0  0  0
   19.0102   25.7163   16.0364 C   0  0  0  0  0  0  0  0  0  0  0  0
   19.6569   25.8257   14.8205 C   0  0  0  0  0  0  0  0  0  0  0  0
   21.0064   26.1980   14.8174 C   0  0  0  0  0  0  0  0  0  0  0  0
   22.9413   26.9269   15.7735 O   0  0  0  0  0  0  0  0  0  0  0  0
   22.9182   28.1743   15.1249 C   0  0  0  0  0  0  0  0  0  0  0  0
   16.4866   23.4915   14.4665 C   0  0  0  0  0  0  0  0  0  0  0  0
   15.4105   22.3995   14.3983 C   0  0  0  0  0  0  0  0  0  0  0  0
   14.0678   22.9020   14.9339 C   0  0  0  0  0  0  0  0  0  0  0  0
   15.2886   21.9123   12.9283 C   0  0  0  0  0  0  0  0  0  0  0  0
   17.8045   21.4244   19.4290 C   0  0  0  0  0  0  0  0  0  0  0  0
   17.8993   23.7571   20.4446 C   0  0  0  0  0  0  0  0  0  0  0  0
   18.5983   24.9014   20.8040 C   0  0  0  0  0  0  0  0  0  0  0  0
   19.9861   24.9345   20.7637 C   0  0  0  0  0  0  0  0  0  0  0  0
   20.6429   23.7855   20.3276 C   0  0  0  0  0  0  0  0  0  0  0  0
   19.9359   22.6346   19.9461 C   0  0  0  0  0  0  0  0  0  0  0  0
   18.5543   22.6163   19.9963 C   0  0  0  0  0  0  0  0  0  0  0  0
 24 30  1  0  0  0
 24 25  2  0  0  0
 24 29  1  0  0  0
 30 31  1  0  0  0
 25 26  1  0  0  0
 26 27  2  0  0  0
 27 28  1  0  0  0
 27 21  1  0  0  0
 28 29  2  0  0  0
 21 22  2  0  0  0
 21 23  2  0  0  0
 21 20  1  0  0  0
 20 32  1  0  0  0
 20 19  1  0  0  0
 32 33  1  0  0  0
 33 34  1  0  0  0
 33 35  1  0  0  0
 19 16  1  0  0  0
 16 17  1  0  0  0
 16  1  1  0  0  0
  1  2  1  0  0  0
  1 36  1  0  0  0
  2  3  1  0  0  0
  3  4  2  0  0  0
  3  6  1  0  0  0
  6  7  1  0  0  0
  7  8  1  0  0  0
  7 15  1  0  0  0
  8  9  1  0  0  0
  9 10  1  0  0  0
  9 14  1  0  0  0
 10 11  1  0  0  0
 11 12  1  0  0  0
 12 13  1  0  0  0
 13 14  1  0  0  0
 14 15  1  0  0  0
 36 42  1  0  0  0
 37 38  2  0  0  0
 37 42  1  0  0  0
 38 39  1  0  0  0
 39 40  2  0  0  0
 40 41  1  0  0  0
 41 42  2  0  0  0
 17 18  1  0  0  0
  2  5  1  0  0  0
M  END
> <minimizedAffinity>
-9.89444

$$$$
3DK1_G05_B_401


 42 45  0  0  0  0  0  0  0  0999 V2000
   17.1672   24.8049   15.5896 C   0  0  0  0  0  0  0  0  0  0  0  0
   18.5099   25.3006   15.2421 N   0  0  0  0  0  0  0  0  0  0  0  0
   18.7145   26.3007   14.4354 C   0  0  0  0  0  0  0  0  0  0  0  0
   17.8470   26.9693   13.8395 O   0  0  0  0  0  0  0  0  0  0  0  0
   19.2912   24.8530   15.6400 H   0  0  0  0  0  0  0  0  0  0  0  0
   20.0209   26.5879   14.2787 O   0  0  0  0  0  0  0  0  0  0  0  0
   20.3765   27.9833   14.1330 C   0  0  0  0  0  0  0  0  0  0  0  0
   20.2042   28.5825   15.5369 C   0  0  0  0  0  0  0  0  0  0  0  0
   21.5569   28.4100   16.2591 C   0  0  0  0  0  0  0  0  0  0  0  0
   21.6243   27.0050   16.7050 O   0  0  0  0  0  0  0  0  0  0  0  0
   22.9644   26.6401   17.0748 C   0  0  0  0  0  0  0  0  0  0  0  0
   23.8308   26.7455   15.8167 C   0  0  0  0  0  0  0  0  0  0  0  0
   23.8698   28.1246   15.4284 O   0  0  0  0  0  0  0  0  0  0  0  0
   22.5355   28.6122   15.1701 C   0  0  0  0  0  0  0  0  0  0  0  0
   21.8887   28.0971   13.8993 C   0  0  0  0  0  0  0  0  0  0  0  0
   17.0346   24.8470   17.1100 C   0  0  0  0  0  0  0  0  0  0  0  0
   16.3635   26.0579   17.5081 O   0  0  0  0  0  0  0  0  0  0  0  0
   16.8991   26.8243   17.2499 H   0  0  0  0  0  0  0  0  0  0  0  0
   18.3715   24.7410   17.8491 C   0  0  0  0  0  0  0  0  0  0  0  0
   18.2947   23.7847   18.9570 N   0  0  0  0  0  0  0  0  0  0  0  0
   18.2638   22.1630   18.5896 S   0  0  0  0  0  0  0  0  0  0  0  0
   18.9445   21.4672   19.6918 O   0  0  0  0  0  0  0  0  0  0  0  0
   18.8002   22.0191   17.2480 O   0  0  0  0  0  0  0  0  0  0  0  0
   13.9916   20.7304   18.2748 C   0  0  0  0  0  0  0  0  0  0  0  0
   15.0359   19.9043   17.8772 C   0  0  0  0  0  0  0  0  0  0  0  0
   16.3286   20.3432   18.0358 C   0  0  0  0  0  0  0  0  0  0  0  0
   16.6006   21.6077   18.5508 C   0  0  0  0  0  0  0  0  0  0  0  0
   15.5659   22.4438   18.9239 C   0  0  0  0  0  0  0  0  0  0  0  0
   14.2524   21.9868   18.7638 C   0  0  0  0  0  0  0  0  0  0  0  0
   12.6541   20.5306   18.0467 O   0  0  0  0  0  0  0  0  0  0  0  0
   12.3792   19.2473   17.5420 C   0  0  0  0  0  0  0  0  0  0  0  0
   18.9853   24.1358   20.1883 C   0  0  0  0  0  0  0  0  0  0  0  0
   20.2579   24.9786   20.0288 C   0  0  0  0  0  0  0  0  0  0  0  0
   20.4884   25.8803   21.2436 C   0  0  0  0  0  0  0  0  0  0  0  0
   21.4607   24.0239   19.7943 C   0  0  0  0  0  0  0  0  0  0  0  0
   17.0468   23.4164   14.9999 C   0  0  0  0  0  0  0  0  0  0  0  0
   15.3219   21.5855   14.6063 C   0  0  0  0  0  0  0  0  0  0  0  0
   14.0068   21.1534   14.5022 C   0  0  0  0  0  0  0  0  0  0  0  0
   12.9518   21.9753   14.8762 C   0  0  0  0  0  0  0  0  0  0  0  0
   13.2653   23.2529   15.3356 C   0  0  0  0  0  0  0  0  0  0  0  0
   14.5939   23.6971   15.4233 C   0  0  0  0  0  0  0  0  0  0  0  0
   15.6334   22.8648   15.0511 C   0  0  0  0  0  0  0  0  0  0  0  0
 24 30  1  0  0  0
 24 25  2  0  0  0
 24 29  1  0  0  0
 30 31  1  0  0  0
 25 26  1  0  0  0
 26 27  2  0  0  0
 27 28  1  0  0  0
 27 21  1  0  0  0
 28 29  2  0  0  0
 21 22  2  0  0  0
 21 23  2  0  0  0
 21 20  1  0  0  0
 20 32  1  0  0  0
 20 19  1  0  0  0
 32 33  1  0  0  0
 33 34  1  0  0  0
 33 35  1  0  0  0
 19 16  1  0  0  0
 16 17  1  0  0  0
 16  1  1  0  0  0
  1  2  1  0  0  0
  1 36  1  0  0  0
  2  3  1  0  0  0
  3  4  2  0  0  0
  3  6  1  0  0  0
  6  7  1  0  0  0
  7  8  1  0  0  0
  7 15  1  0  0  0
  8  9  1  0  0  0
  9 10  1  0  0  0
  9 14  1  0  0  0
 10 11  1  0  0  0
 11 12  1  0  0  0
 12 13  1  0  0  0
 13 14  1  0  0  0
 14 15  1  0  0  0
 36 42  1  0  0  0
 37 38  2  0  0  0
 37 42  1  0  0  0
 38 39  1  0  0  0
 39 40  2  0  0  0
 40 41  1  0  0  0
 41 42  2  0  0  0
 17 18  1  0  0  0
  2  5  1  0  0  0
M  END
> <minimizedAffinity>
-9.61406

$$$$
3DK1_G05_B_401


 42 45  0  0  0  0  0  0  0  0999 V2000
   14.6438   22.4306   16.9634 C   0  0  0  0  0  0  0  0  0  0  0  0
   13.8368   21.6344   17.9035 N   0  0  0  0  0  0  0  0  0  0  0  0
   14.3535   20.8032   18.7609 C   0  0  0  0  0  0  0  0  0  0  0  0
   15.5637   20.5452   18.9150 O   0  0  0  0  0  0  0  0  0  0  0  0
   12.8578   21.7361   17.8822 H   0  0  0  0  0  0  0  0  0  0  0  0
   13.4263   20.1992   19.5284 O   0  0  0  0  0  0  0  0  0  0  0  0
   13.7164   18.8542   19.9774 C   0  0  0  0  0  0  0  0  0  0  0  0
   12.4606   18.4157   20.7457 C   0  0  0  0  0  0  0  0  0  0  0  0
   11.5158   17.7667   19.7126 C   0  0  0  0  0  0  0  0  0  0  0  0
   10.8641   18.8700   18.9808 O   0  0  0  0  0  0  0  0  0  0  0  0
   10.2372   18.3972   17.7770 C   0  0  0  0  0  0  0  0  0  0  0  0
   11.3439   17.8573   16.8667 C   0  0  0  0  0  0  0  0  0  0  0  0
   11.9187   16.7131   17.5106 O   0  0  0  0  0  0  0  0  0  0  0  0
   12.4536   17.0782   18.8011 C   0  0  0  0  0  0  0  0  0  0  0  0
   13.7216   17.9087   18.7690 C   0  0  0  0  0  0  0  0  0  0  0  0
   15.2468   23.5982   17.7408 C   0  0  0  0  0  0  0  0  0  0  0  0
   14.1954   24.4478   18.2386 O   0  0  0  0  0  0  0  0  0  0  0  0
   13.7062   24.8280   17.4923 H   0  0  0  0  0  0  0  0  0  0  0  0
   16.2348   24.4375   16.9259 C   0  0  0  0  0  0  0  0  0  0  0  0
   17.4444   24.7366   17.6974 N   0  0  0  0  0  0  0  0  0  0  0  0
   17.9686   23.6066   18.7993 S   0  0  0  0  0  0  0  0  0  0  0  0
   18.3193   22.4011   18.0336 O   0  0  0  0  0  0  0  0  0  0  0  0
   16.9431   23.4996   19.8216 O   0  0  0  0  0  0  0  0  0  0  0  0
   21.6822   25.3031   20.7316 C   0  0  0  0  0  0  0  0  0  0  0  0
   20.4243   25.7055   21.1641 C   0  0  0  0  0  0  0  0  0  0  0  0
   19.3112   25.1321   20.5974 C   0  0  0  0  0  0  0  0  0  0  0  0
   19.4272   24.1893   19.5798 C   0  0  0  0  0  0  0  0  0  0  0  0
   20.6746   23.8041   19.1277 C   0  0  0  0  0  0  0  0  0  0  0  0
   21.8032   24.3892   19.7140 C   0  0  0  0  0  0  0  0  0  0  0  0
   22.8851   25.8731   21.0618 O   0  0  0  0  0  0  0  0  0  0  0  0
   22.7778   26.7744   22.1358 C   0  0  0  0  0  0  0  0  0  0  0  0
   18.4916   25.4917   17.0269 C   0  0  0  0  0  0  0  0  0  0  0  0
   18.7100   25.1668   15.5430 C   0  0  0  0  0  0  0  0  0  0  0  0
   18.5832   26.4182   14.6712 C   0  0  0  0  0  0  0  0  0  0  0  0
   20.1036   24.5003   15.3797 C   0  0  0  0  0  0  0  0  0  0  0  0
   13.7204   22.8509   15.8405 C   0  0  0  0  0  0  0  0  0  0  0  0
   14.1858   20.9447   14.2182 C   0  0  0  0  0  0  0  0  0  0  0  0
   13.7597   20.0012   13.2933 C   0  0  0  0  0  0  0  0  0  0  0  0
   12.4081   19.7444   13.1040 C   0  0  0  0  0  0  0  0  0  0  0  0
   11.5020   20.4854   13.8600 C   0  0  0  0  0  0  0  0  0  0  0  0
   11.9317   21.4528   14.7817 C   0  0  0  0  0  0  0  0  0  0  0  0
   13.2813   21.6935   14.9617 C   0  0  0  0  0  0  0  0  0  0  0  0
 24 30  1  0  0  0
 24 25  2  0  0  0
 24 29  1  0  0  0
 30 31  1  0  0  0
 25 26  1  0  0  0
 26 27  2  0  0  0
 27 28  1  0  0  0
 27 21  1  0  0  0
 28 29  2  0  0  0
 21 22  2  0  0  0
 21 23  2  0  0  0
 21 20  1  0  0  0
 20 32  1  0  0  0
 20 19  1  0  0  0
 32 33  1  0  0  0
 33 34  1  0  0  0
 33 35  1  0  0  0
 19 16  1  0  0  0
 16 17  1  0  0  0
 16  1  1  0  0  0
  1  2  1  0  0  0
  1 36  1  0  0  0
  2  3  1  0  0  0
  3  4  2  0  0  0
  3  6  1  0  0  0
  6  7  1  0  0  0
  7  8  1  0  0  0
  7 15  1  0  0  0
  8  9  1  0  0  0
  9 10  1  0  0  0
  9 14  1  0  0  0
 10 11  1  0  0  0
 11 12  1  0  0  0
 12 13  1  0  0  0
 13 14  1  0  0  0
 14 15  1  0  0  0
 36 42  1  0  0  0
 37 38  2  0  0  0
 37 42  1  0  0  0
 38 39  1  0  0  0
 39 40  2  0  0  0
 40 41  1  0  0  0
 41 42  2  0  0  0
 17 18  1  0  0  0
  2  5  1  0  0  0
M  END
> <minimizedAffinity>
-9.40417

$$$$
3DK1_G05_B_401


 42 45  0  0  0  0  0  0  0  0999 V2000
   18.0228   25.4818   16.3784 C   0  0  0  0  0  0  0  0  0  0  0  0
   19.0656   25.1238   17.3550 N   0  0  0  0  0  0  0  0  0  0  0  0
   19.8333   26.0011   17.9328 C   0  0  0  0  0  0  0  0  0  0  0  0
   19.8224   27.2353   17.7554 O   0  0  0  0  0  0  0  0  0  0  0  0
   19.1878   24.1736   17.5818 H   0  0  0  0  0  0  0  0  0  0  0  0
   20.7011   25.4464   18.8004 O   0  0  0  0  0  0  0  0  0  0  0  0
   20.5269   25.7646   20.2016 C   0  0  0  0  0  0  0  0  0  0  0  0
   21.1218   24.5655   20.9550 C   0  0  0  0  0  0  0  0  0  0  0  0
   22.6184   24.8762   21.1669 C   0  0  0  0  0  0  0  0  0  0  0  0
   23.2958   24.5973   19.8859 O   0  0  0  0  0  0  0  0  0  0  0  0
   24.6120   25.1739   19.8569 C   0  0  0  0  0  0  0  0  0  0  0  0
   24.4475   26.6937   19.9470 C   0  0  0  0  0  0  0  0  0  0  0  0
   23.8914   26.9966   21.2328 O   0  0  0  0  0  0  0  0  0  0  0  0
   22.6183   26.3359   21.3983 C   0  0  0  0  0  0  0  0  0  0  0  0
   21.4766   26.9084   20.5814 C   0  0  0  0  0  0  0  0  0  0  0  0
   16.7857   24.6429   16.6901 C   0  0  0  0  0  0  0  0  0  0  0  0
   16.0565   25.2356   17.7819 O   0  0  0  0  0  0  0  0  0  0  0  0
   16.6087   25.2317   18.5794 H   0  0  0  0  0  0  0  0  0  0  0  0
   17.0991   23.1814   17.0228 C   0  0  0  0  0  0  0  0  0  0  0  0
   15.8866   22.3584   17.0065 N   0  0  0  0  0  0  0  0  0  0  0  0
   15.1836   21.9725   18.4635 S   0  0  0  0  0  0  0  0  0  0  0  0
   14.1775   23.0101   18.7350 O   0  0  0  0  0  0  0  0  0  0  0  0
   16.2595   21.7885   19.4211 O   0  0  0  0  0  0  0  0  0  0  0  0
   12.9553   18.0474   18.2856 C   0  0  0  0  0  0  0  0  0  0  0  0
   12.2550   19.2439   18.3825 C   0  0  0  0  0  0  0  0  0  0  0  0
   12.9552   20.4266   18.3785 C   0  0  0  0  0  0  0  0  0  0  0  0
   14.3458   20.4387   18.3162 C   0  0  0  0  0  0  0  0  0  0  0  0
   15.0490   19.2515   18.2456 C   0  0  0  0  0  0  0  0  0  0  0  0
   14.3278   18.0517   18.2450 C   0  0  0  0  0  0  0  0  0  0  0  0
   12.4453   16.7832   18.4353 O   0  0  0  0  0  0  0  0  0  0  0  0
   11.4813   16.4718   17.4601 C   0  0  0  0  0  0  0  0  0  0  0  0
   14.9652   22.5527   15.8976 C   0  0  0  0  0  0  0  0  0  0  0  0
   14.9681   21.4588   14.8212 C   0  0  0  0  0  0  0  0  0  0  0  0
   13.6107   20.7577   14.7316 C   0  0  0  0  0  0  0  0  0  0  0  0
   15.3673   22.0983   13.4631 C   0  0  0  0  0  0  0  0  0  0  0  0
   18.6053   25.2317   15.0042 C   0  0  0  0  0  0  0  0  0  0  0  0
   21.0658   25.8242   14.7270 C   0  0  0  0  0  0  0  0  0  0  0  0
   22.0833   26.7537   14.5597 C   0  0  0  0  0  0  0  0  0  0  0  0
   21.7988   28.0812   14.2674 C   0  0  0  0  0  0  0  0  0  0  0  0
   20.4568   28.4441   14.1726 C   0  0  0  0  0  0  0  0  0  0  0  0
   19.4273   27.5087   14.3603 C   0  0  0  0  0  0  0  0  0  0  0  0
   19.7273   26.1896   14.6464 C   0  0  0  0  0  0  0  0  0  0  0  0
 24 30  1  0  0  0
 24 25  2  0  0  0
 24 29  1  0  0  0
 30 31  1  0  0  0
 25 26  1  0  0  0
 26 27  2  0  0  0
 27 28  1  0  0  0
 27 21  1  0  0  0
 28 29  2  0  0  0
 21 22  2  0  0  0
 21 23  2  0  0  0
 21 20  1  0  0  0
 20 32  1  0  0  0
 20 19  1  0  0  0
 32 33  1  0  0  0
 33 34  1  0  0  0
 33 35  1  0  0  0
 19 16  1  0  0  0
 16 17  1  0  0  0
 16  1  1  0  0  0
  1  2  1  0  0  0
  1 36  1  0  0  0
  2  3  1  0  0  0
  3  4  2  0  0  0
  3  6  1  0  0  0
  6  7  1  0  0  0
  7  8  1  0  0  0
  7 15  1  0  0  0
  8  9  1  0  0  0
  9 10  1  0  0  0
  9 14  1  0  0  0
 10 11  1  0  0  0
 11 12  1  0  0  0
 12 13  1  0  0  0
 13 14  1  0  0  0
 14 15  1  0  0  0
 36 42  1  0  0  0
 37 38  2  0  0  0
 37 42  1  0  0  0
 38 39  1  0  0  0
 39 40  2  0  0  0
 40 41  1  0  0  0
 41 42  2  0  0  0
 17 18  1  0  0  0
  2  5  1  0  0  0
M  END
> <minimizedAffinity>
-9.29977

$$$$
3DK1_G05_B_401


 42 45  0  0  0  0  0  0  0  0999 V2000
   17.5063   23.0111   17.4367 C   0  0  0  0  0  0  0  0  0  0  0  0
   18.4493   23.5395   18.4370 N   0  0  0  0  0  0  0  0  0  0  0  0
   18.0992   24.3605   19.3838 C   0  0  0  0  0  0  0  0  0  0  0  0
   16.9600   24.8252   19.5861 O   0  0  0  0  0  0  0  0  0  0  0  0
   19.3912   23.2575   18.3869 H   0  0  0  0  0  0  0  0  0  0  0  0
   19.1238   24.6963   20.1907 O   0  0  0  0  0  0  0  0  0  0  0  0
   20.3984   24.0586   19.9381 C   0  0  0  0  0  0  0  0  0  0  0  0
   21.0805   24.9447   18.8849 C   0  0  0  0  0  0  0  0  0  0  0  0
   21.8761   26.0167   19.6589 C   0  0  0  0  0  0  0  0  0  0  0  0
   20.9016   27.0335   20.0994 O   0  0  0  0  0  0  0  0  0  0  0  0
   21.4610   27.8858   21.1126 C   0  0  0  0  0  0  0  0  0  0  0  0
   21.7649   27.0093   22.3308 C   0  0  0  0  0  0  0  0  0  0  0  0
   22.7923   26.0829   21.9562 O   0  0  0  0  0  0  0  0  0  0  0  0
   22.3577   25.2736   20.8423 C   0  0  0  0  0  0  0  0  0  0  0  0
   21.3025   24.2340   21.1653 C   0  0  0  0  0  0  0  0  0  0  0  0
   16.8768   21.7453   18.0135 C   0  0  0  0  0  0  0  0  0  0  0  0
   17.8246   21.0735   18.8654 O   0  0  0  0  0  0  0  0  0  0  0  0
   18.5903   20.7939   18.3397 H   0  0  0  0  0  0  0  0  0  0  0  0
   16.3693   20.7683   16.9492 C   0  0  0  0  0  0  0  0  0  0  0  0
   14.9527   20.9943   16.6492 N   0  0  0  0  0  0  0  0  0  0  0  0
   14.5708   21.8401   15.2691 S   0  0  0  0  0  0  0  0  0  0  0  0
   15.7135   21.6950   14.3550 O   0  0  0  0  0  0  0  0  0  0  0  0
   14.1835   23.1774   15.6815 O   0  0  0  0  0  0  0  0  0  0  0  0
   11.0406   20.0277   13.1113 C   0  0  0  0  0  0  0  0  0  0  0  0
   12.3300   19.5936   12.8277 C   0  0  0  0  0  0  0  0  0  0  0  0
   13.3810   20.1218   13.5385 C   0  0  0  0  0  0  0  0  0  0  0  0
   13.1751   21.1035   14.5038 C   0  0  0  0  0  0  0  0  0  0  0  0
   11.8982   21.5577   14.7722 C   0  0  0  0  0  0  0  0  0  0  0  0
   10.8328   21.0106   14.0474 C   0  0  0  0  0  0  0  0  0  0  0  0
    9.9022   19.7369   12.4039 O   0  0  0  0  0  0  0  0  0  0  0  0
   10.1782   19.1578   11.1527 C   0  0  0  0  0  0  0  0  0  0  0  0
   14.0181   19.9426   17.0191 C   0  0  0  0  0  0  0  0  0  0  0  0
   13.0771   20.2601   18.1891 C   0  0  0  0  0  0  0  0  0  0  0  0
   11.6773   19.6885   17.9530 C   0  0  0  0  0  0  0  0  0  0  0  0
   13.7041   19.7037   19.4969 C   0  0  0  0  0  0  0  0  0  0  0  0
   18.2977   22.7809   16.1674 C   0  0  0  0  0  0  0  0  0  0  0  0
   20.0410   24.4309   15.3186 C   0  0  0  0  0  0  0  0  0  0  0  0
   20.4009   25.6825   14.8377 C   0  0  0  0  0  0  0  0  0  0  0  0
   19.4371   26.6083   14.4602 C   0  0  0  0  0  0  0  0  0  0  0  0
   18.1012   26.2393   14.6053 C   0  0  0  0  0  0  0  0  0  0  0  0
   17.7367   24.9810   15.1092 C   0  0  0  0  0  0  0  0  0  0  0  0
   18.7086   24.0687   15.4765 C   0  0  0  0  0  0  0  0  0  0  0  0
 24 30  1  0  0  0
 24 25  2  0  0  0
 24 29  1  0  0  0
 30 31  1  0  0  0
 25 26  1  0  0  0
 26 27  2  0  0  0
 27 28  1  0  0  0
 27 21  1  0  0  0
 28 29  2  0  0  0
 21 22  2  0  0  0
 21 23  2  0  0  0
 21 20  1  0  0  0
 20 32  1  0  0  0
 20 19  1  0  0  0
 32 33  1  0  0  0
 33 34  1  0  0  0
 33 35  1  0  0  0
 19 16  1  0  0  0
 16 17  1  0  0  0
 16  1  1  0  0  0
  1  2  1  0  0  0
  1 36  1  0  0  0
  2  3  1  0  0  0
  3  4  2  0  0  0
  3  6  1  0  0  0
  6  7  1  0  0  0
  7  8  1  0  0  0
  7 15  1  0  0  0
  8  9  1  0  0  0
  9 10  1  0  0  0
  9 14  1  0  0  0
 10 11  1  0  0  0
 11 12  1  0  0  0
 12 13  1  0  0  0
 13 14  1  0  0  0
 14 15  1  0  0  0
 36 42  1  0  0  0
 37 38  2  0  0  0
 37 42  1  0  0  0
 38 39  1  0  0  0
 39 40  2  0  0  0
 40 41  1  0  0  0
 41 42  2  0  0  0
 17 18  1  0  0  0
  2  5  1  0  0  0
M  END
> <minimizedAffinity>
-9.18706

$$$$
3DK1_G05_B_401


 42 45  0  0  0  0  0  0  0  0999 V2000
   14.8432   20.3703   17.2977 C   0  0  0  0  0  0  0  0  0  0  0  0
   14.1674   20.0004   16.0425 N   0  0  0  0  0  0  0  0  0  0  0  0
   13.5428   20.8577   15.2889 C   0  0  0  0  0  0  0  0  0  0  0  0
   13.4085   22.0792   15.5002 O   0  0  0  0  0  0  0  0  0  0  0  0
   14.1894   19.0576   15.7595 H   0  0  0  0  0  0  0  0  0  0  0  0
   13.0160   20.2967   14.1837 O   0  0  0  0  0  0  0  0  0  0  0  0
   11.8445   20.9303   13.6170 C   0  0  0  0  0  0  0  0  0  0  0  0
   11.1034   19.8031   12.8824 C   0  0  0  0  0  0  0  0  0  0  0  0
   10.1454   19.1630   13.9089 C   0  0  0  0  0  0  0  0  0  0  0  0
   10.9634   18.2745   14.7568 O   0  0  0  0  0  0  0  0  0  0  0  0
   10.2567   17.8991   15.9507 C   0  0  0  0  0  0  0  0  0  0  0  0
   10.0121   19.1770   16.7582 C   0  0  0  0  0  0  0  0  0  0  0  0
    9.1274   20.0102   15.9986 O   0  0  0  0  0  0  0  0  0  0  0  0
    9.7095   20.3227   14.7147 C   0  0  0  0  0  0  0  0  0  0  0  0
   10.8721   21.2953   14.7463 C   0  0  0  0  0  0  0  0  0  0  0  0
   16.0404   21.2479   16.9406 C   0  0  0  0  0  0  0  0  0  0  0  0
   17.2425   20.4541   16.9336 O   0  0  0  0  0  0  0  0  0  0  0  0
   17.4042   20.1044   17.8238 H   0  0  0  0  0  0  0  0  0  0  0  0
   16.2284   22.4457   17.8759 C   0  0  0  0  0  0  0  0  0  0  0  0
   17.4384   23.2009   17.5395 N   0  0  0  0  0  0  0  0  0  0  0  0
   17.2599   24.6487   16.7406 S   0  0  0  0  0  0  0  0  0  0  0  0
   16.6491   25.5855   17.6955 O   0  0  0  0  0  0  0  0  0  0  0  0
   16.5545   24.3688   15.5026 O   0  0  0  0  0  0  0  0  0  0  0  0
   21.2375   26.4427   15.5731 C   0  0  0  0  0  0  0  0  0  0  0  0
   20.5124   26.9803   16.6298 C   0  0  0  0  0  0  0  0  0  0  0  0
   19.3324   26.3808   16.9999 C   0  0  0  0  0  0  0  0  0  0  0  0
   18.8413   25.2746   16.3121 C   0  0  0  0  0  0  0  0  0  0  0  0
   19.5447   24.7512   15.2444 C   0  0  0  0  0  0  0  0  0  0  0  0
   20.7482   25.3647   14.8774 C   0  0  0  0  0  0  0  0  0  0  0  0
   22.3378   26.9940   14.9679 O   0  0  0  0  0  0  0  0  0  0  0  0
   22.1867   28.3708   14.7259 C   0  0  0  0  0  0  0  0  0  0  0  0
   18.5464   23.1360   18.4799 C   0  0  0  0  0  0  0  0  0  0  0  0
   18.1648   23.0476   19.9637 C   0  0  0  0  0  0  0  0  0  0  0  0
   18.8747   21.8819   20.6561 C   0  0  0  0  0  0  0  0  0  0  0  0
   18.5010   24.4023   20.6454 C   0  0  0  0  0  0  0  0  0  0  0  0
   15.2134   19.0781   17.9930 C   0  0  0  0  0  0  0  0  0  0  0  0
   13.3735   17.3863   18.4775 C   0  0  0  0  0  0  0  0  0  0  0  0
   12.2464   16.9801   19.1789 C   0  0  0  0  0  0  0  0  0  0  0  0
   11.8167   17.6706   20.3045 C   0  0  0  0  0  0  0  0  0  0  0  0
   12.5462   18.7954   20.6847 C   0  0  0  0  0  0  0  0  0  0  0  0
   13.6748   19.2175   19.9648 C   0  0  0  0  0  0  0  0  0  0  0  0
   14.0923   18.5163   18.8487 C   0  0  0  0  0  0  0  0  0  0  0  0
 24 30  1  0  0  0
 24 25  2  0  0  0
 24 29  1  0  0  0
 30 31  1  0  0  0
 25 26  1  0  0  0
 26 27  2  0  0  0
 27 28  1  0  0  0
 27 21  1  0  0  0
 28 29  2  0  0  0
 21 22  2  0  0  0
 21 23  2  0  0  0
 21 20  1  0  0  0
 20 32  1  0  0  0
 20 19  1  0  0  0
 32 33  1  0  0  0
 33 34  1  0  0  0
 33 35  1  0  0  0
 19 16  1  0  0  0
 16 17  1  0  0  0
 16  1  1  0  0  0
  1  2  1  0  0  0
  1 36  1  0  0  0
  2  3  1  0  0  0
  3  4  2  0  0  0
  3  6  1  0  0  0
  6  7  1  0  0  0
  7  8  1  0  0  0
  7 15  1  0  0  0
  8  9  1  0  0  0
  9 10  1  0  0  0
  9 14  1  0  0  0
 10 11  1  0  0  0
 11 12  1  0  0  0
 12 13  1  0  0  0
 13 14  1  0  0  0
 14 15  1  0  0  0
 36 42  1  0  0  0
 37 38  2  0  0  0
 37 42  1  0  0  0
 38 39  1  0  0  0
 39 40  2  0  0  0
 40 41  1  0  0  0
 41 42  2  0  0  0
 17 18  1  0  0  0
  2  5  1  0  0  0
M  END
> <minimizedAffinity>
-9.08766

$$$$
3DK1_G05_B_401


 42 45  0  0  0  0  0  0  0  0999 V2000
   17.1994   24.2993   17.3888 C   0  0  0  0  0  0  0  0  0  0  0  0
   17.7180   25.4718   16.6638 N   0  0  0  0  0  0  0  0  0  0  0  0
   18.2723   25.3965   15.4891 C   0  0  0  0  0  0  0  0  0  0  0  0
   18.4590   24.3636   14.8160 O   0  0  0  0  0  0  0  0  0  0  0  0
   17.6414   26.3564   17.0892 H   0  0  0  0  0  0  0  0  0  0  0  0
   18.6557   26.5967   15.0134 O   0  0  0  0  0  0  0  0  0  0  0  0
   19.8341   26.6274   14.1737 C   0  0  0  0  0  0  0  0  0  0  0  0
   20.3558   28.0683   14.2791 C   0  0  0  0  0  0  0  0  0  0  0  0
   21.3249   28.0998   15.4796 C   0  0  0  0  0  0  0  0  0  0  0  0
   20.4922   28.1542   16.6966 O   0  0  0  0  0  0  0  0  0  0  0  0
   21.2620   27.8381   17.8684 C   0  0  0  0  0  0  0  0  0  0  0  0
   21.7394   26.3903   17.7251 C   0  0  0  0  0  0  0  0  0  0  0  0
   22.6401   26.3363   16.6115 O   0  0  0  0  0  0  0  0  0  0  0  0
   21.9767   26.7753   15.4066 C   0  0  0  0  0  0  0  0  0  0  0  0
   20.9506   25.8132   14.8408 C   0  0  0  0  0  0  0  0  0  0  0  0
   15.9124   23.8562   16.6969 C   0  0  0  0  0  0  0  0  0  0  0  0
   14.7751   24.2177   17.5038 O   0  0  0  0  0  0  0  0  0  0  0  0
   14.8170   23.7470   18.3509 H   0  0  0  0  0  0  0  0  0  0  0  0
   15.8614   22.3568   16.3904 C   0  0  0  0  0  0  0  0  0  0  0  0
   14.4875   21.9080   16.1480 N   0  0  0  0  0  0  0  0  0  0  0  0
   13.7848   22.2925   14.6904 S   0  0  0  0  0  0  0  0  0  0  0  0
   14.8129   22.0884   13.6590 O   0  0  0  0  0  0  0  0  0  0  0  0
   13.2042   23.6158   14.8324 O   0  0  0  0  0  0  0  0  0  0  0  0
   10.4219   19.4631   13.6468 C   0  0  0  0  0  0  0  0  0  0  0  0
   11.7209   19.1841   13.2391 C   0  0  0  0  0  0  0  0  0  0  0  0
   12.7337   20.0325   13.6178 C   0  0  0  0  0  0  0  0  0  0  0  0
   12.4712   21.1764   14.3665 C   0  0  0  0  0  0  0  0  0  0  0  0
   11.1783   21.4730   14.7530 C   0  0  0  0  0  0  0  0  0  0  0  0
   10.1535   20.6008   14.3674 C   0  0  0  0  0  0  0  0  0  0  0  0
    9.2780   18.8286   13.2350 O   0  0  0  0  0  0  0  0  0  0  0  0
    9.4948   17.4746   12.9239 C   0  0  0  0  0  0  0  0  0  0  0  0
   14.0965   20.6262   16.7140 C   0  0  0  0  0  0  0  0  0  0  0  0
   13.3025   20.6844   18.0260 C   0  0  0  0  0  0  0  0  0  0  0  0
   12.0742   19.7728   17.9782 C   0  0  0  0  0  0  0  0  0  0  0  0
   14.2483   20.3013   19.1972 C   0  0  0  0  0  0  0  0  0  0  0  0
   17.0087   24.7239   18.8288 C   0  0  0  0  0  0  0  0  0  0  0  0
   18.9466   24.5110   20.4662 C   0  0  0  0  0  0  0  0  0  0  0  0
   19.8230   23.7453   21.2231 C   0  0  0  0  0  0  0  0  0  0  0  0
   19.6304   22.3785   21.3757 C   0  0  0  0  0  0  0  0  0  0  0  0
   18.5404   21.8071   20.7222 C   0  0  0  0  0  0  0  0  0  0  0  0
   17.6648   22.5777   19.9415 C   0  0  0  0  0  0  0  0  0  0  0  0
   17.8678   23.9383   19.8032 C   0  0  0  0  0  0  0  0  0  0  0  0
 24 30  1  0  0  0
 24 25  2  0  0  0
 24 29  1  0  0  0
 30 31  1  0  0  0
 25 26  1  0  0  0
 26 27  2  0  0  0
 27 28  1  0  0  0
 27 21  1  0  0  0
 28 29  2  0  0  0
 21 22  2  0  0  0
 21 23  2  0  0  0
 21 20  1  0  0  0
 20 32  1  0  0  0
 20 19  1  0  0  0
 32 33  1  0  0  0
 33 34  1  0  0  0
 33 35  1  0  0  0
 19 16  1  0  0  0
 16 17  1  0  0  0
 16  1  1  0  0  0
  1  2  1  0  0  0
  1 36  1  0  0  0
  2  3  1  0  0  0
  3  4  2  0  0  0
  3  6  1  0  0  0
  6  7  1  0  0  0
  7  8  1  0  0  0
  7 15  1  0  0  0
  8  9  1  0  0  0
  9 10  1  0  0  0
  9 14  1  0  0  0
 10 11  1  0  0  0
 11 12  1  0  0  0
 12 13  1  0  0  0
 13 14  1  0  0  0
 14 15  1  0  0  0
 36 42  1  0  0  0
 37 38  2  0  0  0
 37 42  1  0  0  0
 38 39  1  0  0  0
 39 40  2  0  0  0
 40 41  1  0  0  0
 41 42  2  0  0  0
 17 18  1  0  0  0
  2  5  1  0  0  0
M  END
> <minimizedAffinity>
-9.05707

$$$$
3DK1_G05_B_401


 42 45  0  0  0  0  0  0  0  0999 V2000
   14.9859   21.2686   16.8575 C   0  0  0  0  0  0  0  0  0  0  0  0
   15.9664   22.3330   16.5842 N   0  0  0  0  0  0  0  0  0  0  0  0
   17.2347   22.1055   16.4031 C   0  0  0  0  0  0  0  0  0  0  0  0
   17.8078   20.9987   16.4405 O   0  0  0  0  0  0  0  0  0  0  0  0
   15.6464   23.2628   16.5360 H   0  0  0  0  0  0  0  0  0  0  0  0
   17.9368   23.2267   16.1511 O   0  0  0  0  0  0  0  0  0  0  0  0
   17.9668   24.2335   17.1906 C   0  0  0  0  0  0  0  0  0  0  0  0
   19.4177   24.2363   17.6947 C   0  0  0  0  0  0  0  0  0  0  0  0
   20.1863   25.2497   16.8209 C   0  0  0  0  0  0  0  0  0  0  0  0
   20.4753   24.5741   15.5413 O   0  0  0  0  0  0  0  0  0  0  0  0
   20.8721   25.5178   14.5325 C   0  0  0  0  0  0  0  0  0  0  0  0
   19.6809   26.4467   14.2815 C   0  0  0  0  0  0  0  0  0  0  0  0
   19.4516   27.1959   15.4816 O   0  0  0  0  0  0  0  0  0  0  0  0
   19.1797   26.3060   16.5856 C   0  0  0  0  0  0  0  0  0  0  0  0
   17.8271   25.6220   16.5526 C   0  0  0  0  0  0  0  0  0  0  0  0
   13.6877   21.6372   16.1435 C   0  0  0  0  0  0  0  0  0  0  0  0
   13.5037   23.0657   16.1719 O   0  0  0  0  0  0  0  0  0  0  0  0
   13.4144   23.3620   17.0912 H   0  0  0  0  0  0  0  0  0  0  0  0
   12.4474   20.9539   16.7263 C   0  0  0  0  0  0  0  0  0  0  0  0
   11.6922   20.2445   15.6899 N   0  0  0  0  0  0  0  0  0  0  0  0
   10.1669   19.7000   16.0682 S   0  0  0  0  0  0  0  0  0  0  0  0
    9.3029   20.0375   14.9272 O   0  0  0  0  0  0  0  0  0  0  0  0
    9.8308   20.2437   17.3719 O   0  0  0  0  0  0  0  0  0  0  0  0
   10.4497   15.2053   16.4164 C   0  0  0  0  0  0  0  0  0  0  0  0
   11.1029   16.0190   17.3343 C   0  0  0  0  0  0  0  0  0  0  0  0
   10.9545   17.3820   17.2386 C   0  0  0  0  0  0  0  0  0  0  0  0
   10.1951   17.9529   16.2211 C   0  0  0  0  0  0  0  0  0  0  0  0
    9.5644   17.1503   15.2902 C   0  0  0  0  0  0  0  0  0  0  0  0
    9.7164   15.7628   15.3980 C   0  0  0  0  0  0  0  0  0  0  0  0
   10.6090   13.8522   16.2595 O   0  0  0  0  0  0  0  0  0  0  0  0
   10.3285   13.4247   14.9496 C   0  0  0  0  0  0  0  0  0  0  0  0
   11.8795   20.6797   14.3144 C   0  0  0  0  0  0  0  0  0  0  0  0
   12.3998   19.6165   13.3377 C   0  0  0  0  0  0  0  0  0  0  0  0
   11.5407   19.5496   12.0729 C   0  0  0  0  0  0  0  0  0  0  0  0
   13.8826   19.9340   13.0004 C   0  0  0  0  0  0  0  0  0  0  0  0
   14.8540   21.1705   18.3619 C   0  0  0  0  0  0  0  0  0  0  0  0
   14.9210   18.6349   18.1419 C   0  0  0  0  0  0  0  0  0  0  0  0
   14.4772   17.3693   18.5001 C   0  0  0  0  0  0  0  0  0  0  0  0
   13.6512   17.1857   19.6013 C   0  0  0  0  0  0  0  0  0  0  0  0
   13.2697   18.3210   20.3136 C   0  0  0  0  0  0  0  0  0  0  0  0
   13.7027   19.6029   19.9406 C   0  0  0  0  0  0  0  0  0  0  0  0
   14.5287   19.7683   18.8441 C   0  0  0  0  0  0  0  0  0  0  0  0
 24 30  1  0  0  0
 24 25  2  0  0  0
 24 29  1  0  0  0
 30 31  1  0  0  0
 25 26  1  0  0  0
 26 27  2  0  0  0
 27 28  1  0  0  0
 27 21  1  0  0  0
 28 29  2  0  0  0
 21 22  2  0  0  0
 21 23  2  0  0  0
 21 20  1  0  0  0
 20 32  1  0  0  0
 20 19  1  0  0  0
 32 33  1  0  0  0
 33 34  1  0  0  0
 33 35  1  0  0  0
 19 16  1  0  0  0
 16 17  1  0  0  0
 16  1  1  0  0  0
  1  2  1  0  0  0
  1 36  1  0  0  0
  2  3  1  0  0  0
  3  4  2  0  0  0
  3  6  1  0  0  0
  6  7  1  0  0  0
  7  8  1  0  0  0
  7 15  1  0  0  0
  8  9  1  0  0  0
  9 10  1  0  0  0
  9 14  1  0  0  0
 10 11  1  0  0  0
 11 12  1  0  0  0
 12 13  1  0  0  0
 13 14  1  0  0  0
 14 15  1  0  0  0
 36 42  1  0  0  0
 37 38  2  0  0  0
 37 42  1  0  0  0
 38 39  1  0  0  0
 39 40  2  0  0  0
 40 41  1  0  0  0
 41 42  2  0  0  0
 17 18  1  0  0  0
  2  5  1  0  0  0
M  END
> <minimizedAffinity>
-9.00971

$$$$
3DK1_G05_B_401


 42 45  0  0  0  0  0  0  0  0999 V2000
   15.2989   21.5150   17.2741 C   0  0  0  0  0  0  0  0  0  0  0  0
   14.3108   20.9848   16.3193 N   0  0  0  0  0  0  0  0  0  0  0  0
   13.5010   21.7409   15.6369 C   0  0  0  0  0  0  0  0  0  0  0  0
   13.4222   22.9845   15.6840 O   0  0  0  0  0  0  0  0  0  0  0  0
   14.2605   20.0100   16.1909 H   0  0  0  0  0  0  0  0  0  0  0  0
   12.6979   21.0393   14.8146 O   0  0  0  0  0  0  0  0  0  0  0  0
   12.1230   19.8184   15.3379 C   0  0  0  0  0  0  0  0  0  0  0  0
   10.9600   20.2806   16.2285 C   0  0  0  0  0  0  0  0  0  0  0  0
    9.7157   20.3664   15.3198 C   0  0  0  0  0  0  0  0  0  0  0  0
    9.8305   21.6262   14.5601 O   0  0  0  0  0  0  0  0  0  0  0  0
    8.9242   21.6457   13.4448 C   0  0  0  0  0  0  0  0  0  0  0  0
    9.3425   20.5190   12.4959 C   0  0  0  0  0  0  0  0  0  0  0  0
    9.1336   19.2753   13.1769 O   0  0  0  0  0  0  0  0  0  0  0  0
    9.9104   19.2314   14.3932 C   0  0  0  0  0  0  0  0  0  0  0  0
   11.4063   19.0719   14.2050 C   0  0  0  0  0  0  0  0  0  0  0  0
   16.4119   22.1822   16.4696 C   0  0  0  0  0  0  0  0  0  0  0  0
   16.3552   21.7414   15.0993 O   0  0  0  0  0  0  0  0  0  0  0  0
   16.5128   20.7851   15.0605 H   0  0  0  0  0  0  0  0  0  0  0  0
   17.8149   21.9265   17.0274 C   0  0  0  0  0  0  0  0  0  0  0  0
   18.2892   23.0636   17.8210 N   0  0  0  0  0  0  0  0  0  0  0  0
   18.5758   22.8212   19.4412 S   0  0  0  0  0  0  0  0  0  0  0  0
   19.0674   21.4424   19.5817 O   0  0  0  0  0  0  0  0  0  0  0  0
   17.3652   23.1968   20.1496 O   0  0  0  0  0  0  0  0  0  0  0  0
   21.7769   25.7559   20.6839 C   0  0  0  0  0  0  0  0  0  0  0  0
   20.4496   25.9840   21.0268 C   0  0  0  0  0  0  0  0  0  0  0  0
   19.5038   25.0474   20.6847 C   0  0  0  0  0  0  0  0  0  0  0  0
   19.8505   23.9019   19.9737 C   0  0  0  0  0  0  0  0  0  0  0  0
   21.1644   23.6819   19.6075 C   0  0  0  0  0  0  0  0  0  0  0  0
   22.1222   24.6384   19.9645 C   0  0  0  0  0  0  0  0  0  0  0  0
   22.8180   26.6413   20.7973 O   0  0  0  0  0  0  0  0  0  0  0  0
   23.5926   26.7154   19.6261 C   0  0  0  0  0  0  0  0  0  0  0  0
   19.1747   24.0115   17.1624 C   0  0  0  0  0  0  0  0  0  0  0  0
   18.6015   25.4156   16.9273 C   0  0  0  0  0  0  0  0  0  0  0  0
   19.6481   26.4997   17.1941 C   0  0  0  0  0  0  0  0  0  0  0  0
   18.0604   25.4948   15.4733 C   0  0  0  0  0  0  0  0  0  0  0  0
   15.7643   20.3471   18.1165 C   0  0  0  0  0  0  0  0  0  0  0  0
   13.6807   19.8416   19.4897 C   0  0  0  0  0  0  0  0  0  0  0  0
   12.7514   18.9512   20.0100 C   0  0  0  0  0  0  0  0  0  0  0  0
   12.7142   17.6284   19.5888 C   0  0  0  0  0  0  0  0  0  0  0  0
   13.6581   17.2287   18.6448 C   0  0  0  0  0  0  0  0  0  0  0  0
   14.6100   18.1239   18.1324 C   0  0  0  0  0  0  0  0  0  0  0  0
   14.6309   19.4390   18.5588 C   0  0  0  0  0  0  0  0  0  0  0  0
 24 30  1  0  0  0
 24 25  2  0  0  0
 24 29  1  0  0  0
 30 31  1  0  0  0
 25 26  1  0  0  0
 26 27  2  0  0  0
 27 28  1  0  0  0
 27 21  1  0  0  0
 28 29  2  0  0  0
 21 22  2  0  0  0
 21 23  2  0  0  0
 21 20  1  0  0  0
 20 32  1  0  0  0
 20 19  1  0  0  0
 32 33  1  0  0  0
 33 34  1  0  0  0
 33 35  1  0  0  0
 19 16  1  0  0  0
 16 17  1  0  0  0
 16  1  1  0  0  0
  1  2  1  0  0  0
  1 36  1  0  0  0
  2  3  1  0  0  0
  3  4  2  0  0  0
  3  6  1  0  0  0
  6  7  1  0  0  0
  7  8  1  0  0  0
  7 15  1  0  0  0
  8  9  1  0  0  0
  9 10  1  0  0  0
  9 14  1  0  0  0
 10 11  1  0  0  0
 11 12  1  0  0  0
 12 13  1  0  0  0
 13 14  1  0  0  0
 14 15  1  0  0  0
 36 42  1  0  0  0
 37 38  2  0  0  0
 37 42  1  0  0  0
 38 39  1  0  0  0
 39 40  2  0  0  0
 40 41  1  0  0  0
 41 42  2  0  0  0
 17 18  1  0  0  0
  2  5  1  0  0  0
M  END
> <minimizedAffinity>
-9.00318

$$$$
