3IVC_FG4_A_302


 29 32  0  0  0  0  0  0  0  0999 V2000
   15.0602   10.3666   -0.3532 N   0  0  0  0  0  0  0  0  0  0  0  0
   14.7086   10.0012   -4.0381 C   0  0  0  0  0  0  0  0  0  0  0  0
   15.3863   10.2083   -2.8329 C   0  0  0  0  0  0  0  0  0  0  0  0
   12.6344    9.7946   -2.7719 C   0  0  0  0  0  0  0  0  0  0  0  0
   12.9087   10.0343   -0.2817 C   0  0  0  0  0  0  0  0  0  0  0  0
   13.3283    9.7953   -3.9990 C   0  0  0  0  0  0  0  0  0  0  0  0
   13.9928   10.2532    0.4637 C   0  0  0  0  0  0  0  0  0  0  0  0
   13.3082    9.9929   -1.5720 C   0  0  0  0  0  0  0  0  0  0  0  0
   14.6875   10.1954   -1.6118 C   0  0  0  0  0  0  0  0  0  0  0  0
   11.3285    9.2154   -4.9565 C   0  0  0  0  0  0  0  0  0  0  0  0
   12.6618    9.6134   -5.1671 O   0  0  0  0  0  0  0  0  0  0  0  0
   13.9704   11.4761    2.5717 O   0  0  0  0  0  0  0  0  0  0  0  0
   13.9867   10.3700    2.0340 C   0  0  0  0  0  0  0  0  0  0  0  0
   13.9864    9.2794    2.8767 O   0  0  0  0  0  0  0  0  0  0  0  0
   15.0654    9.3454    3.7355 C   0  0  0  0  0  0  0  0  0  0  0  0
   13.3351   10.1749    9.4075 C   0  0  0  0  0  0  0  0  0  0  0  0
   13.8157    8.8852    9.6015 C   0  0  0  0  0  0  0  0  0  0  0  0
   13.4159   10.7502    8.1573 C   0  0  0  0  0  0  0  0  0  0  0  0
   14.3849    8.1618    8.5597 C   0  0  0  0  0  0  0  0  0  0  0  0
   14.1522   10.3339    5.8410 C   0  0  0  0  0  0  0  0  0  0  0  0
   14.9206    8.2902    6.0885 O   0  0  0  0  0  0  0  0  0  0  0  0
   14.7355    9.3251    5.2255 C   0  0  0  0  0  0  0  0  0  0  0  0
   13.9631   10.0230    7.1121 C   0  0  0  0  0  0  0  0  0  0  0  0
   14.4407    8.7330    7.2953 C   0  0  0  0  0  0  0  0  0  0  0  0
   16.4872   10.6010    0.0056 C   0  0  0  0  0  0  0  0  0  0  0  0
   16.8746   12.0681    0.3311 C   0  0  0  0  0  0  0  0  0  0  0  0
   17.4593   12.7748   -0.5252 O   0  0  0  0  0  0  0  0  0  0  0  0
   16.5687   12.4345    1.4918 O   0  0  0  0  0  0  0  0  0  0  0  0
   16.1311   11.8414    2.0703 H   0  0  0  0  0  0  0  0  0  0  0  0
 25 26  1  0  0  0
 26 27  2  0  0  0
 26 28  1  0  0  0
  9  1  1  0  0  0
  1 25  1  0  0  0
  1  7  1  0  0  0
 11 10  1  0  0  0
 13 12  2  0  0  0
 18 16  2  0  0  0
 17 16  1  0  0  0
 19 17  2  0  0  0
  2  6  2  0  0  0
  2  3  1  0  0  0
 23 18  1  0  0  0
 24 19  1  0  0  0
  3  9  2  0  0  0
  6  4  1  0  0  0
  4  8  2  0  0  0
 22 20  2  0  0  0
 20 23  1  0  0  0
  8  5  1  0  0  0
  5  7  2  0  0  0
 14 15  1  0  0  0
 15 22  1  0  0  0
 11  6  1  0  0  0
 13 14  1  0  0  0
 22 21  1  0  0  0
 21 24  1  0  0  0
  7 13  1  0  0  0
 24 23  2  0  0  0
  9  8  1  0  0  0
 28 29  1  0  0  0
M  END
> <minimizedAffinity>
-10.13884

$$$$
3IVC_FG4_A_302


 29 32  0  0  0  0  0  0  0  0999 V2000
   16.4135   10.5892    0.2858 N   0  0  0  0  0  0  0  0  0  0  0  0
   14.4519    9.9880   -2.8169 C   0  0  0  0  0  0  0  0  0  0  0  0
   15.6005   10.2301   -2.0574 C   0  0  0  0  0  0  0  0  0  0  0  0
   13.1484   10.0269   -0.7559 C   0  0  0  0  0  0  0  0  0  0  0  0
   14.5067   10.4232    1.3254 C   0  0  0  0  0  0  0  0  0  0  0  0
   13.2258    9.8883   -2.1567 C   0  0  0  0  0  0  0  0  0  0  0  0
   15.8158   10.6139    1.4948 C   0  0  0  0  0  0  0  0  0  0  0  0
   14.2909   10.2600    0.0014 C   0  0  0  0  0  0  0  0  0  0  0  0
   15.5156   10.3564   -0.6587 C   0  0  0  0  0  0  0  0  0  0  0  0
   12.3883    9.5543   -4.2636 C   0  0  0  0  0  0  0  0  0  0  0  0
   12.1046    9.6733   -2.8903 O   0  0  0  0  0  0  0  0  0  0  0  0
   16.5630   11.9712    3.3760 O   0  0  0  0  0  0  0  0  0  0  0  0
   16.5107   10.8429    2.8890 C   0  0  0  0  0  0  0  0  0  0  0  0
   17.0736    9.8283    3.6329 O   0  0  0  0  0  0  0  0  0  0  0  0
   18.4401   10.0064    3.7175 C   0  0  0  0  0  0  0  0  0  0  0  0
   20.8860    4.5595    4.1671 C   0  0  0  0  0  0  0  0  0  0  0  0
   21.9888    5.1519    3.5631 C   0  0  0  0  0  0  0  0  0  0  0  0
   19.7654    5.3180    4.4307 C   0  0  0  0  0  0  0  0  0  0  0  0
   21.9894    6.5001    3.2237 C   0  0  0  0  0  0  0  0  0  0  0  0
   18.8255    7.5870    4.2093 C   0  0  0  0  0  0  0  0  0  0  0  0
   20.5367    8.5735    3.2465 O   0  0  0  0  0  0  0  0  0  0  0  0
   19.2797    8.7322    3.7414 C   0  0  0  0  0  0  0  0  0  0  0  0
   19.7554    6.6570    4.0735 C   0  0  0  0  0  0  0  0  0  0  0  0
   20.8499    7.2557    3.4655 C   0  0  0  0  0  0  0  0  0  0  0  0
   17.8589   10.7422   -0.0422 C   0  0  0  0  0  0  0  0  0  0  0  0
   18.4435   12.1716    0.1109 C   0  0  0  0  0  0  0  0  0  0  0  0
   19.6078   12.3374    0.5483 O   0  0  0  0  0  0  0  0  0  0  0  0
   17.6513   13.0881   -0.2171 O   0  0  0  0  0  0  0  0  0  0  0  0
   16.7960   12.8764   -0.5358 H   0  0  0  0  0  0  0  0  0  0  0  0
 25 26  1  0  0  0
 26 27  2  0  0  0
 26 28  1  0  0  0
  9  1  1  0  0  0
  1 25  1  0  0  0
  1  7  1  0  0  0
 11 10  1  0  0  0
 13 12  2  0  0  0
 18 16  2  0  0  0
 17 16  1  0  0  0
 19 17  2  0  0  0
  2  6  2  0  0  0
  2  3  1  0  0  0
 23 18  1  0  0  0
 24 19  1  0  0  0
  3  9  2  0  0  0
  6  4  1  0  0  0
  4  8  2  0  0  0
 22 20  2  0  0  0
 20 23  1  0  0  0
  8  5  1  0  0  0
  5  7  2  0  0  0
 14 15  1  0  0  0
 15 22  1  0  0  0
 11  6  1  0  0  0
 13 14  1  0  0  0
 22 21  1  0  0  0
 21 24  1  0  0  0
  7 13  1  0  0  0
 24 23  2  0  0  0
  9  8  1  0  0  0
 28 29  1  0  0  0
M  END
> <minimizedAffinity>
-9.56174

$$$$
3IVC_FG4_A_302


 29 32  0  0  0  0  0  0  0  0999 V2000
   17.7381   10.6590    2.4705 N   0  0  0  0  0  0  0  0  0  0  0  0
   16.7309    8.6892    5.4607 C   0  0  0  0  0  0  0  0  0  0  0  0
   17.6219    9.2752    4.5566 C   0  0  0  0  0  0  0  0  0  0  0  0
   14.8875    9.5856    4.1390 C   0  0  0  0  0  0  0  0  0  0  0  0
   15.6029   10.9232    2.1308 C   0  0  0  0  0  0  0  0  0  0  0  0
   15.3610    8.8488    5.2437 C   0  0  0  0  0  0  0  0  0  0  0  0
   16.8158   11.2270    1.6666 C   0  0  0  0  0  0  0  0  0  0  0  0
   15.7726   10.1754    3.2435 C   0  0  0  0  0  0  0  0  0  0  0  0
   17.1409   10.0179    3.4628 C   0  0  0  0  0  0  0  0  0  0  0  0
   13.3835    9.0913    6.3765 C   0  0  0  0  0  0  0  0  0  0  0  0
   14.4908    8.2657    6.1065 O   0  0  0  0  0  0  0  0  0  0  0  0
   17.0455   13.3219    0.4426 O   0  0  0  0  0  0  0  0  0  0  0  0
   17.0871   12.0941    0.3806 C   0  0  0  0  0  0  0  0  0  0  0  0
   17.3903   11.5530   -0.8502 O   0  0  0  0  0  0  0  0  0  0  0  0
   16.9350   10.2515   -0.9196 C   0  0  0  0  0  0  0  0  0  0  0  0
   12.4668    8.8981   -4.6689 C   0  0  0  0  0  0  0  0  0  0  0  0
   11.6569    9.4773   -3.6991 C   0  0  0  0  0  0  0  0  0  0  0  0
   13.8306    8.8465   -4.4742 C   0  0  0  0  0  0  0  0  0  0  0  0
   12.1947   10.0144   -2.5350 C   0  0  0  0  0  0  0  0  0  0  0  0
   15.6165    9.4339   -2.8784 C   0  0  0  0  0  0  0  0  0  0  0  0
   14.3838   10.3541   -1.3093 O   0  0  0  0  0  0  0  0  0  0  0  0
   15.6452   10.0359   -1.7065 C   0  0  0  0  0  0  0  0  0  0  0  0
   14.3670    9.3616   -3.3047 C   0  0  0  0  0  0  0  0  0  0  0  0
   13.5657    9.9371   -2.3288 C   0  0  0  0  0  0  0  0  0  0  0  0
   19.2236   10.7209    2.3730 C   0  0  0  0  0  0  0  0  0  0  0  0
   19.8737    9.8054    1.3019 C   0  0  0  0  0  0  0  0  0  0  0  0
   20.3758   10.3007    0.2640 O   0  0  0  0  0  0  0  0  0  0  0  0
   19.8221    8.5810    1.5731 O   0  0  0  0  0  0  0  0  0  0  0  0
   19.4279    8.2947    2.3734 H   0  0  0  0  0  0  0  0  0  0  0  0
 25 26  1  0  0  0
 26 27  2  0  0  0
 26 28  1  0  0  0
  9  1  1  0  0  0
  1 25  1  0  0  0
  1  7  1  0  0  0
 11 10  1  0  0  0
 13 12  2  0  0  0
 18 16  2  0  0  0
 17 16  1  0  0  0
 19 17  2  0  0  0
  2  6  2  0  0  0
  2  3  1  0  0  0
 23 18  1  0  0  0
 24 19  1  0  0  0
  3  9  2  0  0  0
  6  4  1  0  0  0
  4  8  2  0  0  0
 22 20  2  0  0  0
 20 23  1  0  0  0
  8  5  1  0  0  0
  5  7  2  0  0  0
 14 15  1  0  0  0
 15 22  1  0  0  0
 11  6  1  0  0  0
 13 14  1  0  0  0
 22 21  1  0  0  0
 21 24  1  0  0  0
  7 13  1  0  0  0
 24 23  2  0  0  0
  9  8  1  0  0  0
 28 29  1  0  0  0
M  END
> <minimizedAffinity>
-9.50434

$$$$
3IVC_FG4_A_302


 29 32  0  0  0  0  0  0  0  0999 V2000
   14.2678   10.3952    0.5535 N   0  0  0  0  0  0  0  0  0  0  0  0
   12.4108    9.7987   -2.6137 C   0  0  0  0  0  0  0  0  0  0  0  0
   12.5723    9.9240   -1.2306 C   0  0  0  0  0  0  0  0  0  0  0  0
   14.7898   10.2667   -2.8777 C   0  0  0  0  0  0  0  0  0  0  0  0
   16.0140   10.6779   -0.7175 C   0  0  0  0  0  0  0  0  0  0  0  0
   13.5282    9.9713   -3.4329 C   0  0  0  0  0  0  0  0  0  0  0  0
   15.5852   10.6852    0.5454 C   0  0  0  0  0  0  0  0  0  0  0  0
   14.9502   10.3992   -1.5029 C   0  0  0  0  0  0  0  0  0  0  0  0
   13.8329   10.2296   -0.6857 C   0  0  0  0  0  0  0  0  0  0  0  0
   14.4530   10.4060   -5.4842 C   0  0  0  0  0  0  0  0  0  0  0  0
   13.3821    9.8313   -4.7748 O   0  0  0  0  0  0  0  0  0  0  0  0
   17.1456   12.0167    1.8613 O   0  0  0  0  0  0  0  0  0  0  0  0
   16.4982   10.9729    1.7956 C   0  0  0  0  0  0  0  0  0  0  0  0
   16.6167   10.1105    2.8641 O   0  0  0  0  0  0  0  0  0  0  0  0
   16.7216   10.8265    4.0400 C   0  0  0  0  0  0  0  0  0  0  0  0
   14.0803    8.2952    8.7801 C   0  0  0  0  0  0  0  0  0  0  0  0
   13.0923    9.2502    8.5706 C   0  0  0  0  0  0  0  0  0  0  0  0
   15.1733    8.2516    7.9412 C   0  0  0  0  0  0  0  0  0  0  0  0
   13.1790   10.1621    7.5249 C   0  0  0  0  0  0  0  0  0  0  0  0
   16.2003    9.3471    5.9852 C   0  0  0  0  0  0  0  0  0  0  0  0
   14.6729   10.8821    5.6118 O   0  0  0  0  0  0  0  0  0  0  0  0
   15.8507   10.3432    5.1963 C   0  0  0  0  0  0  0  0  0  0  0  0
   15.2727    9.1735    6.9112 C   0  0  0  0  0  0  0  0  0  0  0  0
   14.2938   10.1338    6.6976 C   0  0  0  0  0  0  0  0  0  0  0  0
   13.3425   10.2979    1.7173 C   0  0  0  0  0  0  0  0  0  0  0  0
   13.1692    8.8836    2.3321 C   0  0  0  0  0  0  0  0  0  0  0  0
   12.3205    8.0874    1.8628 O   0  0  0  0  0  0  0  0  0  0  0  0
   13.9216    8.6531    3.3099 O   0  0  0  0  0  0  0  0  0  0  0  0
   14.5297    9.3055    3.5971 H   0  0  0  0  0  0  0  0  0  0  0  0
 25 26  1  0  0  0
 26 27  2  0  0  0
 26 28  1  0  0  0
  9  1  1  0  0  0
  1 25  1  0  0  0
  1  7  1  0  0  0
 11 10  1  0  0  0
 13 12  2  0  0  0
 18 16  2  0  0  0
 17 16  1  0  0  0
 19 17  2  0  0  0
  2  6  2  0  0  0
  2  3  1  0  0  0
 23 18  1  0  0  0
 24 19  1  0  0  0
  3  9  2  0  0  0
  6  4  1  0  0  0
  4  8  2  0  0  0
 22 20  2  0  0  0
 20 23  1  0  0  0
  8  5  1  0  0  0
  5  7  2  0  0  0
 14 15  1  0  0  0
 15 22  1  0  0  0
 11  6  1  0  0  0
 13 14  1  0  0  0
 22 21  1  0  0  0
 21 24  1  0  0  0
  7 13  1  0  0  0
 24 23  2  0  0  0
  9  8  1  0  0  0
 28 29  1  0  0  0
M  END
> <minimizedAffinity>
-9.47545

$$$$
3IVC_FG4_A_302


 29 32  0  0  0  0  0  0  0  0999 V2000
   15.1076   10.4270   -0.2020 N   0  0  0  0  0  0  0  0  0  0  0  0
   14.6833    9.9320   -3.8640 C   0  0  0  0  0  0  0  0  0  0  0  0
   15.3852   10.1777   -2.6801 C   0  0  0  0  0  0  0  0  0  0  0  0
   12.6325    9.7850   -2.5522 C   0  0  0  0  0  0  0  0  0  0  0  0
   12.9559   10.1120   -0.0778 C   0  0  0  0  0  0  0  0  0  0  0  0
   13.3027    9.7370   -3.7915 C   0  0  0  0  0  0  0  0  0  0  0  0
   14.0554   10.3501    0.6386 C   0  0  0  0  0  0  0  0  0  0  0  0
   13.3304   10.0216   -1.3731 C   0  0  0  0  0  0  0  0  0  0  0  0
   14.7098   10.2133   -1.4463 C   0  0  0  0  0  0  0  0  0  0  0  0
   11.2741    9.1630   -4.6900 C   0  0  0  0  0  0  0  0  0  0  0  0
   12.6129    9.5179   -4.9394 O   0  0  0  0  0  0  0  0  0  0  0  0
   13.7215   11.5832    2.7141 O   0  0  0  0  0  0  0  0  0  0  0  0
   14.0801   10.5231    2.2034 C   0  0  0  0  0  0  0  0  0  0  0  0
   14.4787    9.5294    3.0713 O   0  0  0  0  0  0  0  0  0  0  0  0
   15.4218   10.0210    3.9516 C   0  0  0  0  0  0  0  0  0  0  0  0
   20.5806    7.0213    4.4440 C   0  0  0  0  0  0  0  0  0  0  0  0
   20.9025    7.6451    3.2443 C   0  0  0  0  0  0  0  0  0  0  0  0
   19.3619    7.2743    5.0368 C   0  0  0  0  0  0  0  0  0  0  0  0
   20.0216    8.5277    2.6296 C   0  0  0  0  0  0  0  0  0  0  0  0
   17.2633    8.5400    4.7638 C   0  0  0  0  0  0  0  0  0  0  0  0
   17.7163    9.5478    2.8644 O   0  0  0  0  0  0  0  0  0  0  0  0
   16.8089    9.3904    3.8655 C   0  0  0  0  0  0  0  0  0  0  0  0
   18.4732    8.1369    4.4149 C   0  0  0  0  0  0  0  0  0  0  0  0
   18.7839    8.7602    3.2145 C   0  0  0  0  0  0  0  0  0  0  0  0
   16.5427   10.6645    0.1211 C   0  0  0  0  0  0  0  0  0  0  0  0
   16.9209   12.1188    0.5089 C   0  0  0  0  0  0  0  0  0  0  0  0
   17.4487   12.8834   -0.3345 O   0  0  0  0  0  0  0  0  0  0  0  0
   16.6686   12.4140    1.7024 O   0  0  0  0  0  0  0  0  0  0  0  0
   16.2716   11.7810    2.2677 H   0  0  0  0  0  0  0  0  0  0  0  0
 25 26  1  0  0  0
 26 27  2  0  0  0
 26 28  1  0  0  0
  9  1  1  0  0  0
  1 25  1  0  0  0
  1  7  1  0  0  0
 11 10  1  0  0  0
 13 12  2  0  0  0
 18 16  2  0  0  0
 17 16  1  0  0  0
 19 17  2  0  0  0
  2  6  2  0  0  0
  2  3  1  0  0  0
 23 18  1  0  0  0
 24 19  1  0  0  0
  3  9  2  0  0  0
  6  4  1  0  0  0
  4  8  2  0  0  0
 22 20  2  0  0  0
 20 23  1  0  0  0
  8  5  1  0  0  0
  5  7  2  0  0  0
 14 15  1  0  0  0
 15 22  1  0  0  0
 11  6  1  0  0  0
 13 14  1  0  0  0
 22 21  1  0  0  0
 21 24  1  0  0  0
  7 13  1  0  0  0
 24 23  2  0  0  0
  9  8  1  0  0  0
 28 29  1  0  0  0
M  END
> <minimizedAffinity>
-9.34846

$$$$
3IVC_FG4_A_302


 29 32  0  0  0  0  0  0  0  0999 V2000
   15.1445   10.4304   -0.2594 N   0  0  0  0  0  0  0  0  0  0  0  0
   12.4024    9.7301   -2.6731 C   0  0  0  0  0  0  0  0  0  0  0  0
   12.9743    9.9483   -1.4161 C   0  0  0  0  0  0  0  0  0  0  0  0
   14.6136   10.0038   -3.6650 C   0  0  0  0  0  0  0  0  0  0  0  0
   16.4436   10.4888   -2.0068 C   0  0  0  0  0  0  0  0  0  0  0  0
   13.2315    9.7588   -3.7960 C   0  0  0  0  0  0  0  0  0  0  0  0
   16.4115   10.6231   -0.6802 C   0  0  0  0  0  0  0  0  0  0  0  0
   15.1824   10.2286   -2.4163 C   0  0  0  0  0  0  0  0  0  0  0  0
   14.3528   10.2028   -1.2956 C   0  0  0  0  0  0  0  0  0  0  0  0
   11.3188    9.2049   -4.9304 C   0  0  0  0  0  0  0  0  0  0  0  0
   12.6858    9.5280   -5.0169 O   0  0  0  0  0  0  0  0  0  0  0  0
   17.5440   11.6030    1.2425 O   0  0  0  0  0  0  0  0  0  0  0  0
   17.6680   10.9385    0.2149 C   0  0  0  0  0  0  0  0  0  0  0  0
   18.9398   10.4956   -0.0782 O   0  0  0  0  0  0  0  0  0  0  0  0
   19.7732   10.7026    1.0028 C   0  0  0  0  0  0  0  0  0  0  0  0
   21.4657    5.8058    4.0045 C   0  0  0  0  0  0  0  0  0  0  0  0
   22.4758    5.7349    3.0525 C   0  0  0  0  0  0  0  0  0  0  0  0
   20.5517    6.8365    3.9514 C   0  0  0  0  0  0  0  0  0  0  0  0
   22.5897    6.6885    2.0473 C   0  0  0  0  0  0  0  0  0  0  0  0
   19.9151    8.8405    2.6631 C   0  0  0  0  0  0  0  0  0  0  0  0
   21.4863    8.7738    1.1283 O   0  0  0  0  0  0  0  0  0  0  0  0
   20.4086    9.4527    1.6056 C   0  0  0  0  0  0  0  0  0  0  0  0
   20.6500    7.7762    2.9374 C   0  0  0  0  0  0  0  0  0  0  0  0
   21.6521    7.7105    1.9796 C   0  0  0  0  0  0  0  0  0  0  0  0
   14.6046   10.4890    1.1281 C   0  0  0  0  0  0  0  0  0  0  0  0
   14.5644    9.1431    1.8997 C   0  0  0  0  0  0  0  0  0  0  0  0
   13.4727    8.6780    2.3075 O   0  0  0  0  0  0  0  0  0  0  0  0
   15.6906    8.6172    2.0737 O   0  0  0  0  0  0  0  0  0  0  0  0
   16.4590    9.0325    1.7347 H   0  0  0  0  0  0  0  0  0  0  0  0
 25 26  1  0  0  0
 26 27  2  0  0  0
 26 28  1  0  0  0
  9  1  1  0  0  0
  1 25  1  0  0  0
  1  7  1  0  0  0
 11 10  1  0  0  0
 13 12  2  0  0  0
 18 16  2  0  0  0
 17 16  1  0  0  0
 19 17  2  0  0  0
  2  6  2  0  0  0
  2  3  1  0  0  0
 23 18  1  0  0  0
 24 19  1  0  0  0
  3  9  2  0  0  0
  6  4  1  0  0  0
  4  8  2  0  0  0
 22 20  2  0  0  0
 20 23  1  0  0  0
  8  5  1  0  0  0
  5  7  2  0  0  0
 14 15  1  0  0  0
 15 22  1  0  0  0
 11  6  1  0  0  0
 13 14  1  0  0  0
 22 21  1  0  0  0
 21 24  1  0  0  0
  7 13  1  0  0  0
 24 23  2  0  0  0
  9  8  1  0  0  0
 28 29  1  0  0  0
M  END
> <minimizedAffinity>
-9.02293

$$$$
3IVC_FG4_A_302


 29 32  0  0  0  0  0  0  0  0999 V2000
   16.8757   10.0349    3.5032 N   0  0  0  0  0  0  0  0  0  0  0  0
   15.4346    8.7995    6.7021 C   0  0  0  0  0  0  0  0  0  0  0  0
   16.3514    8.8490    5.6477 C   0  0  0  0  0  0  0  0  0  0  0  0
   14.1881   10.6004    5.6290 C   0  0  0  0  0  0  0  0  0  0  0  0
   15.1962   11.4215    3.4741 C   0  0  0  0  0  0  0  0  0  0  0  0
   14.3518    9.6808    6.6848 C   0  0  0  0  0  0  0  0  0  0  0  0
   16.2947   11.0422    2.8197 C   0  0  0  0  0  0  0  0  0  0  0  0
   15.1033   10.6558    4.5837 C   0  0  0  0  0  0  0  0  0  0  0  0
   16.1862    9.7773    4.6034 C   0  0  0  0  0  0  0  0  0  0  0  0
   13.5786   10.7099    8.5809 C   0  0  0  0  0  0  0  0  0  0  0  0
   13.4476    9.6242    7.6952 O   0  0  0  0  0  0  0  0  0  0  0  0
   17.9324   12.1274    1.3774 O   0  0  0  0  0  0  0  0  0  0  0  0
   16.7911   11.6775    1.4672 C   0  0  0  0  0  0  0  0  0  0  0  0
   16.0111   11.7562    0.3336 O   0  0  0  0  0  0  0  0  0  0  0  0
   16.4589   10.8552   -0.6118 C   0  0  0  0  0  0  0  0  0  0  0  0
   11.6683    9.3292   -3.8636 C   0  0  0  0  0  0  0  0  0  0  0  0
   12.5944    8.6973   -4.6851 C   0  0  0  0  0  0  0  0  0  0  0  0
   12.1005    9.9907   -2.7340 C   0  0  0  0  0  0  0  0  0  0  0  0
   13.9524    8.7117   -4.3879 C   0  0  0  0  0  0  0  0  0  0  0  0
   14.1204   10.5815   -1.4487 C   0  0  0  0  0  0  0  0  0  0  0  0
   15.6287    9.6067   -2.7148 O   0  0  0  0  0  0  0  0  0  0  0  0
   15.4064   10.3269   -1.5826 C   0  0  0  0  0  0  0  0  0  0  0  0
   13.4560   10.0250   -2.4472 C   0  0  0  0  0  0  0  0  0  0  0  0
   14.3883    9.4014   -3.2644 C   0  0  0  0  0  0  0  0  0  0  0  0
   18.1258    9.2904    3.1819 C   0  0  0  0  0  0  0  0  0  0  0  0
   19.4282    9.8397    3.8224 C   0  0  0  0  0  0  0  0  0  0  0  0
   20.0573    9.1565    4.6663 O   0  0  0  0  0  0  0  0  0  0  0  0
   19.7468   10.9894    3.4328 O   0  0  0  0  0  0  0  0  0  0  0  0
   19.2195   11.4314    2.7968 H   0  0  0  0  0  0  0  0  0  0  0  0
 25 26  1  0  0  0
 26 27  2  0  0  0
 26 28  1  0  0  0
  9  1  1  0  0  0
  1 25  1  0  0  0
  1  7  1  0  0  0
 11 10  1  0  0  0
 13 12  2  0  0  0
 18 16  2  0  0  0
 17 16  1  0  0  0
 19 17  2  0  0  0
  2  6  2  0  0  0
  2  3  1  0  0  0
 23 18  1  0  0  0
 24 19  1  0  0  0
  3  9  2  0  0  0
  6  4  1  0  0  0
  4  8  2  0  0  0
 22 20  2  0  0  0
 20 23  1  0  0  0
  8  5  1  0  0  0
  5  7  2  0  0  0
 14 15  1  0  0  0
 15 22  1  0  0  0
 11  6  1  0  0  0
 13 14  1  0  0  0
 22 21  1  0  0  0
 21 24  1  0  0  0
  7 13  1  0  0  0
 24 23  2  0  0  0
  9  8  1  0  0  0
 28 29  1  0  0  0
M  END
> <minimizedAffinity>
-8.94308

$$$$
3IVC_FG4_A_302


 29 32  0  0  0  0  0  0  0  0999 V2000
   18.2297    9.6387    2.5261 N   0  0  0  0  0  0  0  0  0  0  0  0
   19.6331    6.8516    4.5507 C   0  0  0  0  0  0  0  0  0  0  0  0
   18.6649    7.7744    4.1433 C   0  0  0  0  0  0  0  0  0  0  0  0
   21.1388    7.7724    2.8674 C   0  0  0  0  0  0  0  0  0  0  0  0
   20.1548    9.6473    1.5071 C   0  0  0  0  0  0  0  0  0  0  0  0
   20.8716    6.8576    3.9062 C   0  0  0  0  0  0  0  0  0  0  0  0
   18.9520   10.2222    1.5477 C   0  0  0  0  0  0  0  0  0  0  0  0
   20.1742    8.6855    2.4562 C   0  0  0  0  0  0  0  0  0  0  0  0
   18.9363    8.6767    3.0984 C   0  0  0  0  0  0  0  0  0  0  0  0
   21.4569    4.6459    4.0398 C   0  0  0  0  0  0  0  0  0  0  0  0
   21.8224    5.9777    4.3104 O   0  0  0  0  0  0  0  0  0  0  0  0
   18.8479   12.5508    0.8361 O   0  0  0  0  0  0  0  0  0  0  0  0
   18.4924   11.3962    0.6045 C   0  0  0  0  0  0  0  0  0  0  0  0
   17.7010   11.2109   -0.5086 O   0  0  0  0  0  0  0  0  0  0  0  0
   16.3702   11.3595   -0.1725 C   0  0  0  0  0  0  0  0  0  0  0  0
   13.2249    8.8443   -4.6036 C   0  0  0  0  0  0  0  0  0  0  0  0
   12.1196    9.3224   -3.9095 C   0  0  0  0  0  0  0  0  0  0  0  0
   14.4913    9.0840   -4.1144 C   0  0  0  0  0  0  0  0  0  0  0  0
   12.2637   10.0462   -2.7314 C   0  0  0  0  0  0  0  0  0  0  0  0
   15.7173   10.1423   -2.2549 C   0  0  0  0  0  0  0  0  0  0  0  0
   14.0062   10.9150   -1.1131 O   0  0  0  0  0  0  0  0  0  0  0  0
   15.3616   10.8275   -1.1869 C   0  0  0  0  0  0  0  0  0  0  0  0
   14.6367    9.7865   -2.9287 C   0  0  0  0  0  0  0  0  0  0  0  0
   13.5388   10.2632   -2.2263 C   0  0  0  0  0  0  0  0  0  0  0  0
   16.8295    9.9249    2.9476 C   0  0  0  0  0  0  0  0  0  0  0  0
   16.6600   10.9812    4.0718 C   0  0  0  0  0  0  0  0  0  0  0  0
   16.8787   12.1949    3.8402 O   0  0  0  0  0  0  0  0  0  0  0  0
   16.3177   10.5014    5.1798 O   0  0  0  0  0  0  0  0  0  0  0  0
   16.1740    9.5796    5.2669 H   0  0  0  0  0  0  0  0  0  0  0  0
 25 26  1  0  0  0
 26 27  2  0  0  0
 26 28  1  0  0  0
  9  1  1  0  0  0
  1 25  1  0  0  0
  1  7  1  0  0  0
 11 10  1  0  0  0
 13 12  2  0  0  0
 18 16  2  0  0  0
 17 16  1  0  0  0
 19 17  2  0  0  0
  2  6  2  0  0  0
  2  3  1  0  0  0
 23 18  1  0  0  0
 24 19  1  0  0  0
  3  9  2  0  0  0
  6  4  1  0  0  0
  4  8  2  0  0  0
 22 20  2  0  0  0
 20 23  1  0  0  0
  8  5  1  0  0  0
  5  7  2  0  0  0
 14 15  1  0  0  0
 15 22  1  0  0  0
 11  6  1  0  0  0
 13 14  1  0  0  0
 22 21  1  0  0  0
 21 24  1  0  0  0
  7 13  1  0  0  0
 24 23  2  0  0  0
  9  8  1  0  0  0
 28 29  1  0  0  0
M  END
> <minimizedAffinity>
-8.91319

$$$$
3IVC_FG4_A_302


 29 32  0  0  0  0  0  0  0  0999 V2000
   15.2732   10.6565    1.3122 N   0  0  0  0  0  0  0  0  0  0  0  0
   15.0171   10.2810   -2.3795 C   0  0  0  0  0  0  0  0  0  0  0  0
   15.6416   10.5823   -1.1655 C   0  0  0  0  0  0  0  0  0  0  0  0
   12.9941    9.7234   -1.1366 C   0  0  0  0  0  0  0  0  0  0  0  0
   13.2046    9.9760    1.3586 C   0  0  0  0  0  0  0  0  0  0  0  0
   13.6888    9.8516   -2.3565 C   0  0  0  0  0  0  0  0  0  0  0  0
   14.2320   10.3606    2.1171 C   0  0  0  0  0  0  0  0  0  0  0  0
   13.6163   10.0153    0.0721 C   0  0  0  0  0  0  0  0  0  0  0  0
   14.9441   10.4412    0.0483 C   0  0  0  0  0  0  0  0  0  0  0  0
   13.9918    9.2838   -4.5561 C   0  0  0  0  0  0  0  0  0  0  0  0
   13.0708    9.5767   -3.5330 O   0  0  0  0  0  0  0  0  0  0  0  0
   14.5997   11.4696    4.2560 O   0  0  0  0  0  0  0  0  0  0  0  0
   14.1937   10.4567    3.6883 C   0  0  0  0  0  0  0  0  0  0  0  0
   13.7086    9.4532    4.4990 O   0  0  0  0  0  0  0  0  0  0  0  0
   14.5940    9.2086    5.5297 C   0  0  0  0  0  0  0  0  0  0  0  0
   14.1288   11.3517   11.1014 C   0  0  0  0  0  0  0  0  0  0  0  0
   12.8891   11.8145   10.6760 C   0  0  0  0  0  0  0  0  0  0  0  0
   14.9289   10.6477   10.2268 C   0  0  0  0  0  0  0  0  0  0  0  0
   12.4330   11.5762    9.3846 C   0  0  0  0  0  0  0  0  0  0  0  0
   15.0482    9.7970    7.9153 C   0  0  0  0  0  0  0  0  0  0  0  0
   13.1018   10.5111    7.1872 O   0  0  0  0  0  0  0  0  0  0  0  0
   14.2332    9.8213    6.8801 C   0  0  0  0  0  0  0  0  0  0  0  0
   14.4858   10.4277    8.9322 C   0  0  0  0  0  0  0  0  0  0  0  0
   13.2518   10.8904    8.4973 C   0  0  0  0  0  0  0  0  0  0  0  0
   16.6396   11.1171    1.6878 C   0  0  0  0  0  0  0  0  0  0  0  0
   17.6702   10.0012    2.0055 C   0  0  0  0  0  0  0  0  0  0  0  0
   17.8584    9.6297    3.1891 O   0  0  0  0  0  0  0  0  0  0  0  0
   18.2713    9.5555    0.9979 O   0  0  0  0  0  0  0  0  0  0  0  0
   18.0693    9.8894    0.1461 H   0  0  0  0  0  0  0  0  0  0  0  0
 25 26  1  0  0  0
 26 27  2  0  0  0
 26 28  1  0  0  0
  9  1  1  0  0  0
  1 25  1  0  0  0
  1  7  1  0  0  0
 11 10  1  0  0  0
 13 12  2  0  0  0
 18 16  2  0  0  0
 17 16  1  0  0  0
 19 17  2  0  0  0
  2  6  2  0  0  0
  2  3  1  0  0  0
 23 18  1  0  0  0
 24 19  1  0  0  0
  3  9  2  0  0  0
  6  4  1  0  0  0
  4  8  2  0  0  0
 22 20  2  0  0  0
 20 23  1  0  0  0
  8  5  1  0  0  0
  5  7  2  0  0  0
 14 15  1  0  0  0
 15 22  1  0  0  0
 11  6  1  0  0  0
 13 14  1  0  0  0
 22 21  1  0  0  0
 21 24  1  0  0  0
  7 13  1  0  0  0
 24 23  2  0  0  0
  9  8  1  0  0  0
 28 29  1  0  0  0
M  END
> <minimizedAffinity>
-8.76622

$$$$
3IVC_FG4_A_302


 29 32  0  0  0  0  0  0  0  0999 V2000
   17.0309   10.0108    1.8606 N   0  0  0  0  0  0  0  0  0  0  0  0
   20.5139    8.8367    2.4313 C   0  0  0  0  0  0  0  0  0  0  0  0
   19.4796    9.4891    1.7535 C   0  0  0  0  0  0  0  0  0  0  0  0
   18.9053    8.1859    4.1451 C   0  0  0  0  0  0  0  0  0  0  0  0
   16.5615    9.0064    3.7356 C   0  0  0  0  0  0  0  0  0  0  0  0
   20.2174    8.1847    3.6297 C   0  0  0  0  0  0  0  0  0  0  0  0
   16.0491    9.7366    2.7440 C   0  0  0  0  0  0  0  0  0  0  0  0
   17.8773    8.8409    3.4760 C   0  0  0  0  0  0  0  0  0  0  0  0
   18.1751    9.4944    2.2805 C   0  0  0  0  0  0  0  0  0  0  0  0
   21.6709    6.4142    3.5614 C   0  0  0  0  0  0  0  0  0  0  0  0
   21.2129    7.5328    4.2821 O   0  0  0  0  0  0  0  0  0  0  0  0
   13.7540    9.8900    3.5496 O   0  0  0  0  0  0  0  0  0  0  0  0
   14.5394   10.1732    2.6463 C   0  0  0  0  0  0  0  0  0  0  0  0
   14.0221   10.8863    1.5863 O   0  0  0  0  0  0  0  0  0  0  0  0
   13.1046   10.1152    0.9008 C   0  0  0  0  0  0  0  0  0  0  0  0
   13.0802    9.5480   -5.0600 C   0  0  0  0  0  0  0  0  0  0  0  0
   14.4642    9.5611   -4.9325 C   0  0  0  0  0  0  0  0  0  0  0  0
   12.2922    9.6457   -3.9330 C   0  0  0  0  0  0  0  0  0  0  0  0
   15.0743    9.6640   -3.6876 C   0  0  0  0  0  0  0  0  0  0  0  0
   12.3829    9.8811   -1.4800 C   0  0  0  0  0  0  0  0  0  0  0  0
   14.5647    9.9144   -1.2202 O   0  0  0  0  0  0  0  0  0  0  0  0
   13.3571    9.9485   -0.5951 C   0  0  0  0  0  0  0  0  0  0  0  0
   12.8979    9.7704   -2.6928 C   0  0  0  0  0  0  0  0  0  0  0  0
   14.2788    9.7895   -2.5564 C   0  0  0  0  0  0  0  0  0  0  0  0
   16.9560   10.8027    0.6007 C   0  0  0  0  0  0  0  0  0  0  0  0
   17.0927   12.3408    0.7550 C   0  0  0  0  0  0  0  0  0  0  0  0
   16.6684   12.9152    1.7868 O   0  0  0  0  0  0  0  0  0  0  0  0
   17.6289   12.9097   -0.2269 O   0  0  0  0  0  0  0  0  0  0  0  0
   17.9190   12.4039   -0.9604 H   0  0  0  0  0  0  0  0  0  0  0  0
 25 26  1  0  0  0
 26 27  2  0  0  0
 26 28  1  0  0  0
  9  1  1  0  0  0
  1 25  1  0  0  0
  1  7  1  0  0  0
 11 10  1  0  0  0
 13 12  2  0  0  0
 18 16  2  0  0  0
 17 16  1  0  0  0
 19 17  2  0  0  0
  2  6  2  0  0  0
  2  3  1  0  0  0
 23 18  1  0  0  0
 24 19  1  0  0  0
  3  9  2  0  0  0
  6  4  1  0  0  0
  4  8  2  0  0  0
 22 20  2  0  0  0
 20 23  1  0  0  0
  8  5  1  0  0  0
  5  7  2  0  0  0
 14 15  1  0  0  0
 15 22  1  0  0  0
 11  6  1  0  0  0
 13 14  1  0  0  0
 22 21  1  0  0  0
 21 24  1  0  0  0
  7 13  1  0  0  0
 24 23  2  0  0  0
  9  8  1  0  0  0
 28 29  1  0  0  0
M  END
> <minimizedAffinity>
-8.57837

$$$$
