3NB5_R21_A_300


 28 29  0  0  0  0  0  0  0  0999 V2000
   20.8895    7.1082   11.6242 O   0  0  0  0  0  0  0  0  0  0  0  0
   20.5118    6.0095   12.0305 C   0  0  0  0  0  0  0  0  0  0  0  0
   19.8668    5.8185   13.1780 N   0  0  0  0  0  0  0  0  0  0  0  0
   19.6010    4.9025   13.4221 H   0  0  0  0  0  0  0  0  0  0  0  0
   20.7696    4.7345   11.2255 C   0  0  0  0  0  0  0  0  0  0  0  0
   18.3954    0.0641   11.3389 Cl  0  0  0  0  0  0  0  0  0  0  0  0
   16.0443    1.6708   10.5658 O   0  0  0  0  0  0  0  0  0  0  0  0
   17.1729    2.4065   10.7529 C   0  0  0  0  0  0  0  0  0  0  0  0
   17.1394    3.7845   10.5745 C   0  0  0  0  0  0  0  0  0  0  0  0
   18.2961    4.5363   10.7467 C   0  0  0  0  0  0  0  0  0  0  0  0
   18.3624    1.7789   11.1083 C   0  0  0  0  0  0  0  0  0  0  0  0
   19.5192    2.5315   11.2799 C   0  0  0  0  0  0  0  0  0  0  0  0
   19.4866    3.9095   11.0965 C   0  0  0  0  0  0  0  0  0  0  0  0
   15.2434    2.0941   10.3265 H   0  0  0  0  0  0  0  0  0  0  0  0
   19.5334    6.9167   14.0983 C   0  0  0  0  0  0  0  0  0  0  0  0
   18.0297    7.1863   14.0087 C   0  0  0  0  0  0  0  0  0  0  0  0
   17.8246    5.0069   15.2789 C   0  0  0  0  0  0  0  0  0  0  0  0
   17.0908    4.0966   16.0306 C   0  0  0  0  0  0  0  0  0  0  0  0
   15.7331    4.3066   16.2456 C   0  0  0  0  0  0  0  0  0  0  0  0
   17.2029    6.1290   14.7439 C   0  0  0  0  0  0  0  0  0  0  0  0
   15.8429    6.3336   14.9493 C   0  0  0  0  0  0  0  0  0  0  0  0
   15.1092    5.4225   15.6998 C   0  0  0  0  0  0  0  0  0  0  0  0
   13.4609    2.9919   16.6360 O   0  0  0  0  0  0  0  0  0  0  0  0
   14.8194    3.1928   17.2392 S   0  0  0  0  0  0  0  0  0  0  0  0
   15.6076    1.7686   17.3185 N   0  0  0  0  0  0  0  0  0  0  0  0
   14.6818    3.7561   18.6231 O   0  0  0  0  0  0  0  0  0  0  0  0
   15.7042    1.3807   16.3800 H   0  0  0  0  0  0  0  0  0  0  0  0
   15.0795    1.1197   17.9019 H   0  0  0  0  0  0  0  0  0  0  0  0
  6 11  1  0  0  0
 23 24  2  0  0  0
  7  8  1  0  0  0
  8  9  2  0  0  0
  8 11  1  0  0  0
  9 10  1  0  0  0
 10 13  2  0  0  0
  1  2  2  0  0  0
 17 18  2  0  0  0
 17 20  1  0  0  0
 18 19  1  0  0  0
 19 24  1  0  0  0
 19 22  2  0  0  0
 24 25  1  0  0  0
 24 26  2  0  0  0
 11 12  2  0  0  0
 12 13  1  0  0  0
 13  5  1  0  0  0
  5  2  1  0  0  0
  2  3  1  0  0  0
  3 15  1  0  0  0
 15 16  1  0  0  0
 16 20  1  0  0  0
 20 21  2  0  0  0
 21 22  1  0  0  0
  7 14  1  0  0  0
 25 27  1  0  0  0
 25 28  1  0  0  0
  3  4  1  0  0  0
M  END
> <minimizedAffinity>
-8.69711

$$$$
3NB5_R21_A_300


 28 29  0  0  0  0  0  0  0  0999 V2000
   15.4596    7.5170   12.6730 O   0  0  0  0  0  0  0  0  0  0  0  0
   16.2988    7.6935   13.5559 C   0  0  0  0  0  0  0  0  0  0  0  0
   17.5106    8.1998   13.3445 N   0  0  0  0  0  0  0  0  0  0  0  0
   18.1168    8.3069   14.1128 H   0  0  0  0  0  0  0  0  0  0  0  0
   16.0080    7.3254   15.0119 C   0  0  0  0  0  0  0  0  0  0  0  0
   13.8433    2.9572   16.9345 Cl  0  0  0  0  0  0  0  0  0  0  0  0
   16.3104    1.7302   15.8790 O   0  0  0  0  0  0  0  0  0  0  0  0
   16.2215    3.0674   15.6472 C   0  0  0  0  0  0  0  0  0  0  0  0
   17.2428    3.7229   14.9697 C   0  0  0  0  0  0  0  0  0  0  0  0
   17.1630    5.0930   14.7483 C   0  0  0  0  0  0  0  0  0  0  0  0
   15.1164    3.7808   16.1004 C   0  0  0  0  0  0  0  0  0  0  0  0
   15.0375    5.1514   15.8790 C   0  0  0  0  0  0  0  0  0  0  0  0
   16.0618    5.8078   15.2055 C   0  0  0  0  0  0  0  0  0  0  0  0
   17.0550    1.2502   15.5735 H   0  0  0  0  0  0  0  0  0  0  0  0
   17.9841    8.6065   12.0125 C   0  0  0  0  0  0  0  0  0  0  0  0
   19.1759    7.7260   11.6306 C   0  0  0  0  0  0  0  0  0  0  0  0
   19.5507    5.2368   11.8928 C   0  0  0  0  0  0  0  0  0  0  0  0
   19.1319    3.9183   11.7563 C   0  0  0  0  0  0  0  0  0  0  0  0
   17.9338    3.6323   11.1110 C   0  0  0  0  0  0  0  0  0  0  0  0
   18.7711    6.2704   11.3868 C   0  0  0  0  0  0  0  0  0  0  0  0
   17.5785    5.9842   10.7317 C   0  0  0  0  0  0  0  0  0  0  0  0
   17.1608    4.6657   10.5943 C   0  0  0  0  0  0  0  0  0  0  0  0
   17.0143    1.4756   12.3545 O   0  0  0  0  0  0  0  0  0  0  0  0
   17.3763    1.9780   10.9885 S   0  0  0  0  0  0  0  0  0  0  0  0
   16.0729    1.9185   10.0119 N   0  0  0  0  0  0  0  0  0  0  0  0
   18.4657    1.1260   10.4066 O   0  0  0  0  0  0  0  0  0  0  0  0
   15.3286    2.4962   10.4026 H   0  0  0  0  0  0  0  0  0  0  0  0
   15.7498    0.9542    9.9345 H   0  0  0  0  0  0  0  0  0  0  0  0
  6 11  1  0  0  0
 23 24  2  0  0  0
  7  8  1  0  0  0
  8  9  2  0  0  0
  8 11  1  0  0  0
  9 10  1  0  0  0
 10 13  2  0  0  0
  1  2  2  0  0  0
 17 18  2  0  0  0
 17 20  1  0  0  0
 18 19  1  0  0  0
 19 24  1  0  0  0
 19 22  2  0  0  0
 24 25  1  0  0  0
 24 26  2  0  0  0
 11 12  2  0  0  0
 12 13  1  0  0  0
 13  5  1  0  0  0
  5  2  1  0  0  0
  2  3  1  0  0  0
  3 15  1  0  0  0
 15 16  1  0  0  0
 16 20  1  0  0  0
 20 21  2  0  0  0
 21 22  1  0  0  0
  7 14  1  0  0  0
 25 27  1  0  0  0
 25 28  1  0  0  0
  3  4  1  0  0  0
M  END
> <minimizedAffinity>
-8.23568

$$$$
3NB5_R21_A_300


 28 29  0  0  0  0  0  0  0  0999 V2000
   19.5565    9.8993   12.3857 O   0  0  0  0  0  0  0  0  0  0  0  0
   19.9626    8.8908   12.9627 C   0  0  0  0  0  0  0  0  0  0  0  0
   20.8123    8.0166   12.4306 N   0  0  0  0  0  0  0  0  0  0  0  0
   21.0842    7.2375   12.9675 H   0  0  0  0  0  0  0  0  0  0  0  0
   19.5011    8.5477   14.3802 C   0  0  0  0  0  0  0  0  0  0  0  0
   14.4832    7.0824   14.0117 Cl  0  0  0  0  0  0  0  0  0  0  0  0
   15.6337    4.4021   14.4577 O   0  0  0  0  0  0  0  0  0  0  0  0
   16.5616    5.3953   14.4099 C   0  0  0  0  0  0  0  0  0  0  0  0
   17.9091    5.0930   14.5677 C   0  0  0  0  0  0  0  0  0  0  0  0
   18.8577    6.1089   14.5381 C   0  0  0  0  0  0  0  0  0  0  0  0
   16.1614    6.7137   14.2176 C   0  0  0  0  0  0  0  0  0  0  0  0
   17.1108    7.7294   14.1886 C   0  0  0  0  0  0  0  0  0  0  0  0
   18.4584    7.4273   14.3515 C   0  0  0  0  0  0  0  0  0  0  0  0
   15.9039    3.5143   14.5872 H   0  0  0  0  0  0  0  0  0  0  0  0
   21.3635    8.1636   11.0747 C   0  0  0  0  0  0  0  0  0  0  0  0
   21.5360    6.7701   10.4664 C   0  0  0  0  0  0  0  0  0  0  0  0
   19.0519    6.2862   10.4510 C   0  0  0  0  0  0  0  0  0  0  0  0
   17.9756    5.4221   10.6162 C   0  0  0  0  0  0  0  0  0  0  0  0
   18.1868    4.1294   11.0830 C   0  0  0  0  0  0  0  0  0  0  0  0
   20.3401    5.8581   10.7496 C   0  0  0  0  0  0  0  0  0  0  0  0
   20.5505    4.5691   11.2269 C   0  0  0  0  0  0  0  0  0  0  0  0
   19.4739    3.7059   11.3932 C   0  0  0  0  0  0  0  0  0  0  0  0
   16.9527    2.2858   12.5396 O   0  0  0  0  0  0  0  0  0  0  0  0
   16.8410    3.0214   11.2372 S   0  0  0  0  0  0  0  0  0  0  0  0
   15.4439    3.8591   11.1910 N   0  0  0  0  0  0  0  0  0  0  0  0
   16.8661    2.0442   10.0988 O   0  0  0  0  0  0  0  0  0  0  0  0
   15.4212    4.5254   11.9630 H   0  0  0  0  0  0  0  0  0  0  0  0
   14.6579    3.2145   11.2750 H   0  0  0  0  0  0  0  0  0  0  0  0
  6 11  1  0  0  0
 23 24  2  0  0  0
  7  8  1  0  0  0
  8  9  2  0  0  0
  8 11  1  0  0  0
  9 10  1  0  0  0
 10 13  2  0  0  0
  1  2  2  0  0  0
 17 18  2  0  0  0
 17 20  1  0  0  0
 18 19  1  0  0  0
 19 24  1  0  0  0
 19 22  2  0  0  0
 24 25  1  0  0  0
 24 26  2  0  0  0
 11 12  2  0  0  0
 12 13  1  0  0  0
 13  5  1  0  0  0
  5  2  1  0  0  0
  2  3  1  0  0  0
  3 15  1  0  0  0
 15 16  1  0  0  0
 16 20  1  0  0  0
 20 21  2  0  0  0
 21 22  1  0  0  0
  7 14  1  0  0  0
 25 27  1  0  0  0
 25 28  1  0  0  0
  3  4  1  0  0  0
M  END
> <minimizedAffinity>
-7.96714

$$$$
3NB5_R21_A_300


 28 29  0  0  0  0  0  0  0  0999 V2000
   17.8361    2.6420   16.2691 O   0  0  0  0  0  0  0  0  0  0  0  0
   17.0768    3.2362   15.5041 C   0  0  0  0  0  0  0  0  0  0  0  0
   16.7432    2.7984   14.2931 N   0  0  0  0  0  0  0  0  0  0  0  0
   16.1263    3.3404   13.7499 H   0  0  0  0  0  0  0  0  0  0  0  0
   16.4424    4.5722   15.8950 C   0  0  0  0  0  0  0  0  0  0  0  0
   20.0683    7.2496   13.2216 Cl  0  0  0  0  0  0  0  0  0  0  0  0
   17.7030    8.7015   12.2195 O   0  0  0  0  0  0  0  0  0  0  0  0
   17.4019    7.6915   13.0792 C   0  0  0  0  0  0  0  0  0  0  0  0
   16.0763    7.4322   13.4068 C   0  0  0  0  0  0  0  0  0  0  0  0
   15.7674    6.4127   14.3001 C   0  0  0  0  0  0  0  0  0  0  0  0
   18.4204    6.9284   13.6412 C   0  0  0  0  0  0  0  0  0  0  0  0
   18.1107    5.9091   14.5350 C   0  0  0  0  0  0  0  0  0  0  0  0
   16.7846    5.6531   14.8664 C   0  0  0  0  0  0  0  0  0  0  0  0
   17.0166    9.2151   11.8413 H   0  0  0  0  0  0  0  0  0  0  0  0
   17.2559    1.5397   13.7304 C   0  0  0  0  0  0  0  0  0  0  0  0
   17.1134    1.5944   12.2078 C   0  0  0  0  0  0  0  0  0  0  0  0
   19.1283    2.8574   11.3416 C   0  0  0  0  0  0  0  0  0  0  0  0
   19.7016    3.9521   10.7050 C   0  0  0  0  0  0  0  0  0  0  0  0
   18.9105    5.0339   10.3341 C   0  0  0  0  0  0  0  0  0  0  0  0
   17.7637    2.8420   11.6056 C   0  0  0  0  0  0  0  0  0  0  0  0
   16.9742    3.9283   11.2449 C   0  0  0  0  0  0  0  0  0  0  0  0
   17.5480    5.0232   10.6095 C   0  0  0  0  0  0  0  0  0  0  0  0
   18.8904    7.6442    9.8551 O   0  0  0  0  0  0  0  0  0  0  0  0
   19.6194    6.3878    9.4813 S   0  0  0  0  0  0  0  0  0  0  0  0
   21.1926    6.5173    9.8867 N   0  0  0  0  0  0  0  0  0  0  0  0
   19.5102    6.1586    8.0025 O   0  0  0  0  0  0  0  0  0  0  0  0
   21.2730    6.6733   10.8915 H   0  0  0  0  0  0  0  0  0  0  0  0
   21.6091    7.3025    9.3863 H   0  0  0  0  0  0  0  0  0  0  0  0
  6 11  1  0  0  0
 23 24  2  0  0  0
  7  8  1  0  0  0
  8  9  2  0  0  0
  8 11  1  0  0  0
  9 10  1  0  0  0
 10 13  2  0  0  0
  1  2  2  0  0  0
 17 18  2  0  0  0
 17 20  1  0  0  0
 18 19  1  0  0  0
 19 24  1  0  0  0
 19 22  2  0  0  0
 24 25  1  0  0  0
 24 26  2  0  0  0
 11 12  2  0  0  0
 12 13  1  0  0  0
 13  5  1  0  0  0
  5  2  1  0  0  0
  2  3  1  0  0  0
  3 15  1  0  0  0
 15 16  1  0  0  0
 16 20  1  0  0  0
 20 21  2  0  0  0
 21 22  1  0  0  0
  7 14  1  0  0  0
 25 27  1  0  0  0
 25 28  1  0  0  0
  3  4  1  0  0  0
M  END
> <minimizedAffinity>
-7.91437

$$$$
3NB5_R21_A_300


 28 29  0  0  0  0  0  0  0  0999 V2000
   20.8596    9.2263   11.4674 O   0  0  0  0  0  0  0  0  0  0  0  0
   20.7416    8.4647   12.4271 C   0  0  0  0  0  0  0  0  0  0  0  0
   21.3481    7.2849   12.5238 N   0  0  0  0  0  0  0  0  0  0  0  0
   21.1961    6.7420   13.3309 H   0  0  0  0  0  0  0  0  0  0  0  0
   19.8529    8.8231   13.6196 C   0  0  0  0  0  0  0  0  0  0  0  0
   17.5538    4.5057   15.5003 Cl  0  0  0  0  0  0  0  0  0  0  0  0
   15.3848    5.3328   13.6789 O   0  0  0  0  0  0  0  0  0  0  0  0
   16.4460    6.1834   13.6885 C   0  0  0  0  0  0  0  0  0  0  0  0
   16.4336    7.3162   12.8833 C   0  0  0  0  0  0  0  0  0  0  0  0
   17.5252    8.1771   12.8772 C   0  0  0  0  0  0  0  0  0  0  0  0
   17.5486    5.9124   14.4924 C   0  0  0  0  0  0  0  0  0  0  0  0
   18.6404    6.7737   14.4854 C   0  0  0  0  0  0  0  0  0  0  0  0
   18.6298    7.9044   13.6760 C   0  0  0  0  0  0  0  0  0  0  0  0
   14.6425    5.5159   13.1372 H   0  0  0  0  0  0  0  0  0  0  0  0
   22.2361    6.7561   11.4770 C   0  0  0  0  0  0  0  0  0  0  0  0
   21.4122    6.5354   10.2065 C   0  0  0  0  0  0  0  0  0  0  0  0
   20.4424    4.3501   11.0365 C   0  0  0  0  0  0  0  0  0  0  0  0
   19.3605    3.5286   11.3313 C   0  0  0  0  0  0  0  0  0  0  0  0
   18.0693    3.9405   11.0199 C   0  0  0  0  0  0  0  0  0  0  0  0
   20.2345    5.5848   10.4330 C   0  0  0  0  0  0  0  0  0  0  0  0
   18.9445    5.9922   10.1114 C   0  0  0  0  0  0  0  0  0  0  0  0
   17.8631    5.1700   10.4050 C   0  0  0  0  0  0  0  0  0  0  0  0
   16.7444    2.6309   12.9102 O   0  0  0  0  0  0  0  0  0  0  0  0
   16.7014    2.9338   11.4419 S   0  0  0  0  0  0  0  0  0  0  0  0
   15.3205    3.7188   11.0772 N   0  0  0  0  0  0  0  0  0  0  0  0
   16.7618    1.6557   10.6581 O   0  0  0  0  0  0  0  0  0  0  0  0
   15.2739    4.5890   11.6074 H   0  0  0  0  0  0  0  0  0  0  0  0
   14.5219    3.1314   11.3171 H   0  0  0  0  0  0  0  0  0  0  0  0
  6 11  1  0  0  0
 23 24  2  0  0  0
  7  8  1  0  0  0
  8  9  2  0  0  0
  8 11  1  0  0  0
  9 10  1  0  0  0
 10 13  2  0  0  0
  1  2  2  0  0  0
 17 18  2  0  0  0
 17 20  1  0  0  0
 18 19  1  0  0  0
 19 24  1  0  0  0
 19 22  2  0  0  0
 24 25  1  0  0  0
 24 26  2  0  0  0
 11 12  2  0  0  0
 12 13  1  0  0  0
 13  5  1  0  0  0
  5  2  1  0  0  0
  2  3  1  0  0  0
  3 15  1  0  0  0
 15 16  1  0  0  0
 16 20  1  0  0  0
 20 21  2  0  0  0
 21 22  1  0  0  0
  7 14  1  0  0  0
 25 27  1  0  0  0
 25 28  1  0  0  0
  3  4  1  0  0  0
M  END
> <minimizedAffinity>
-7.85033

$$$$
3NB5_R21_A_300


 28 29  0  0  0  0  0  0  0  0999 V2000
   21.2179    7.6848   10.0677 O   0  0  0  0  0  0  0  0  0  0  0  0
   21.0007    6.9612   11.0394 C   0  0  0  0  0  0  0  0  0  0  0  0
   20.8655    7.4050   12.2861 N   0  0  0  0  0  0  0  0  0  0  0  0
   20.6914    6.7520   13.0020 H   0  0  0  0  0  0  0  0  0  0  0  0
   20.8729    5.4445   10.8863 C   0  0  0  0  0  0  0  0  0  0  0  0
   17.3232    1.8206   12.2014 Cl  0  0  0  0  0  0  0  0  0  0  0  0
   15.4512    3.7937   11.0574 O   0  0  0  0  0  0  0  0  0  0  0  0
   16.7494    4.1989   11.0441 C   0  0  0  0  0  0  0  0  0  0  0  0
   17.0820    5.4425   10.5201 C   0  0  0  0  0  0  0  0  0  0  0  0
   18.4105    5.8509   10.4881 C   0  0  0  0  0  0  0  0  0  0  0  0
   17.7448    3.3637   11.5411 C   0  0  0  0  0  0  0  0  0  0  0  0
   19.0735    3.7726   11.5083 C   0  0  0  0  0  0  0  0  0  0  0  0
   19.4066    5.0149   10.9795 C   0  0  0  0  0  0  0  0  0  0  0  0
   14.7812    4.3568   10.7225 H   0  0  0  0  0  0  0  0  0  0  0  0
   20.9649    8.8290   12.6414 C   0  0  0  0  0  0  0  0  0  0  0  0
   20.0148    9.1062   13.8084 C   0  0  0  0  0  0  0  0  0  0  0  0
   19.2305    6.8326   14.5965 C   0  0  0  0  0  0  0  0  0  0  0  0
   18.2273    5.8952   14.8137 C   0  0  0  0  0  0  0  0  0  0  0  0
   16.9302    6.1524   14.3836 C   0  0  0  0  0  0  0  0  0  0  0  0
   18.9375    8.0287   13.9519 C   0  0  0  0  0  0  0  0  0  0  0  0
   17.6429    8.2815   13.5118 C   0  0  0  0  0  0  0  0  0  0  0  0
   16.6404    7.3434   13.7280 C   0  0  0  0  0  0  0  0  0  0  0  0
   16.2438    3.6243   14.8095 O   0  0  0  0  0  0  0  0  0  0  0  0
   15.6539    4.9994   14.7066 S   0  0  0  0  0  0  0  0  0  0  0  0
   14.9130    5.3916   16.1042 N   0  0  0  0  0  0  0  0  0  0  0  0
   14.6513    5.0392   13.5909 O   0  0  0  0  0  0  0  0  0  0  0  0
   15.5900    5.3662   16.8667 H   0  0  0  0  0  0  0  0  0  0  0  0
   14.1649    4.7240   16.2914 H   0  0  0  0  0  0  0  0  0  0  0  0
  6 11  1  0  0  0
 23 24  2  0  0  0
  7  8  1  0  0  0
  8  9  2  0  0  0
  8 11  1  0  0  0
  9 10  1  0  0  0
 10 13  2  0  0  0
  1  2  2  0  0  0
 17 18  2  0  0  0
 17 20  1  0  0  0
 18 19  1  0  0  0
 19 24  1  0  0  0
 19 22  2  0  0  0
 24 25  1  0  0  0
 24 26  2  0  0  0
 11 12  2  0  0  0
 12 13  1  0  0  0
 13  5  1  0  0  0
  5  2  1  0  0  0
  2  3  1  0  0  0
  3 15  1  0  0  0
 15 16  1  0  0  0
 16 20  1  0  0  0
 20 21  2  0  0  0
 21 22  1  0  0  0
  7 14  1  0  0  0
 25 27  1  0  0  0
 25 28  1  0  0  0
  3  4  1  0  0  0
M  END
> <minimizedAffinity>
-7.62495

$$$$
3NB5_R21_A_300


 28 29  0  0  0  0  0  0  0  0999 V2000
   20.3742    9.6498   13.2486 O   0  0  0  0  0  0  0  0  0  0  0  0
   19.6643    9.5229   14.2461 C   0  0  0  0  0  0  0  0  0  0  0  0
   18.6663    8.6494   14.3466 N   0  0  0  0  0  0  0  0  0  0  0  0
   18.1516    8.6168   15.1852 H   0  0  0  0  0  0  0  0  0  0  0  0
   19.8754   10.3935   15.4861 C   0  0  0  0  0  0  0  0  0  0  0  0
   23.2326   14.4168   15.5574 Cl  0  0  0  0  0  0  0  0  0  0  0  0
   21.0286   15.7813   14.1478 O   0  0  0  0  0  0  0  0  0  0  0  0
   20.7663   14.4802   14.4448 C   0  0  0  0  0  0  0  0  0  0  0  0
   19.5465   13.9195   14.0848 C   0  0  0  0  0  0  0  0  0  0  0  0
   19.2687   12.5953   14.4040 C   0  0  0  0  0  0  0  0  0  0  0  0
   21.7119   13.7158   15.1208 C   0  0  0  0  0  0  0  0  0  0  0  0
   21.4330   12.3914   15.4402 C   0  0  0  0  0  0  0  0  0  0  0  0
   20.2106   11.8321   15.0843 C   0  0  0  0  0  0  0  0  0  0  0  0
   20.3913   16.2957   13.6926 H   0  0  0  0  0  0  0  0  0  0  0  0
   18.2982    7.7298   13.2590 C   0  0  0  0  0  0  0  0  0  0  0  0
   16.7888    7.4852   13.3193 C   0  0  0  0  0  0  0  0  0  0  0  0
   15.1566    6.3815   14.9077 C   0  0  0  0  0  0  0  0  0  0  0  0
   14.7822    5.3318   15.7384 C   0  0  0  0  0  0  0  0  0  0  0  0
   15.6680    4.2880   15.9824 C   0  0  0  0  0  0  0  0  0  0  0  0
   16.4153    6.3875   14.3181 C   0  0  0  0  0  0  0  0  0  0  0  0
   17.3054    5.3495   14.5706 C   0  0  0  0  0  0  0  0  0  0  0  0
   16.9312    4.3008   15.4023 C   0  0  0  0  0  0  0  0  0  0  0  0
   15.8241    1.6838   16.4696 O   0  0  0  0  0  0  0  0  0  0  0  0
   15.1786    2.9372   16.9815 S   0  0  0  0  0  0  0  0  0  0  0  0
   15.6387    3.2096   18.5210 N   0  0  0  0  0  0  0  0  0  0  0  0
   13.6856    2.7954   16.9326 O   0  0  0  0  0  0  0  0  0  0  0  0
   16.6533    3.3069   18.5604 H   0  0  0  0  0  0  0  0  0  0  0  0
   15.3493    2.4259   19.1062 H   0  0  0  0  0  0  0  0  0  0  0  0
  6 11  1  0  0  0
 23 24  2  0  0  0
  7  8  1  0  0  0
  8  9  2  0  0  0
  8 11  1  0  0  0
  9 10  1  0  0  0
 10 13  2  0  0  0
  1  2  2  0  0  0
 17 18  2  0  0  0
 17 20  1  0  0  0
 18 19  1  0  0  0
 19 24  1  0  0  0
 19 22  2  0  0  0
 24 25  1  0  0  0
 24 26  2  0  0  0
 11 12  2  0  0  0
 12 13  1  0  0  0
 13  5  1  0  0  0
  5  2  1  0  0  0
  2  3  1  0  0  0
  3 15  1  0  0  0
 15 16  1  0  0  0
 16 20  1  0  0  0
 20 21  2  0  0  0
 21 22  1  0  0  0
  7 14  1  0  0  0
 25 27  1  0  0  0
 25 28  1  0  0  0
  3  4  1  0  0  0
M  END
> <minimizedAffinity>
-7.56719

$$$$
3NB5_R21_A_300


 28 29  0  0  0  0  0  0  0  0999 V2000
   17.6068    7.3548   12.6492 O   0  0  0  0  0  0  0  0  0  0  0  0
   17.1574    7.6648   13.7523 C   0  0  0  0  0  0  0  0  0  0  0  0
   17.7704    8.4795   14.6067 N   0  0  0  0  0  0  0  0  0  0  0  0
   17.3346    8.6729   15.4681 H   0  0  0  0  0  0  0  0  0  0  0  0
   15.8190    7.1136   14.2472 C   0  0  0  0  0  0  0  0  0  0  0  0
   13.7814    3.1099   16.9456 Cl  0  0  0  0  0  0  0  0  0  0  0  0
   16.6055    2.2654   17.0802 O   0  0  0  0  0  0  0  0  0  0  0  0
   16.4100    3.4129   16.3767 C   0  0  0  0  0  0  0  0  0  0  0  0
   17.4941    4.0690   15.8057 C   0  0  0  0  0  0  0  0  0  0  0  0
   17.2991    5.2522   15.1024 C   0  0  0  0  0  0  0  0  0  0  0  0
   15.1284    3.9369   16.2410 C   0  0  0  0  0  0  0  0  0  0  0  0
   14.9342    5.1207   15.5377 C   0  0  0  0  0  0  0  0  0  0  0  0
   16.0196    5.7797   14.9708 C   0  0  0  0  0  0  0  0  0  0  0  0
   17.4689    1.9130   17.1712 H   0  0  0  0  0  0  0  0  0  0  0  0
   19.0710    9.1041   14.3203 C   0  0  0  0  0  0  0  0  0  0  0  0
   19.4376   10.0214   15.4890 C   0  0  0  0  0  0  0  0  0  0  0  0
   19.0647   12.2403   14.3304 C   0  0  0  0  0  0  0  0  0  0  0  0
   19.4746   13.5248   13.9923 C   0  0  0  0  0  0  0  0  0  0  0  0
   20.7464   13.9641   14.3433 C   0  0  0  0  0  0  0  0  0  0  0  0
   19.9245   11.3950   15.0218 C   0  0  0  0  0  0  0  0  0  0  0  0
   21.2003   11.8299   15.3634 C   0  0  0  0  0  0  0  0  0  0  0  0
   21.6102   13.1139   15.0240 C   0  0  0  0  0  0  0  0  0  0  0  0
   21.0687   16.4602   15.1855 O   0  0  0  0  0  0  0  0  0  0  0  0
   21.2440   15.5997   13.9696 S   0  0  0  0  0  0  0  0  0  0  0  0
   22.8084   15.5970   13.5125 N   0  0  0  0  0  0  0  0  0  0  0  0
   20.4046   16.1323   12.8457 O   0  0  0  0  0  0  0  0  0  0  0  0
   23.3841   15.2357   14.2730 H   0  0  0  0  0  0  0  0  0  0  0  0
   23.0989   16.5488   13.2887 H   0  0  0  0  0  0  0  0  0  0  0  0
  6 11  1  0  0  0
 23 24  2  0  0  0
  7  8  1  0  0  0
  8  9  2  0  0  0
  8 11  1  0  0  0
  9 10  1  0  0  0
 10 13  2  0  0  0
  1  2  2  0  0  0
 17 18  2  0  0  0
 17 20  1  0  0  0
 18 19  1  0  0  0
 19 24  1  0  0  0
 19 22  2  0  0  0
 24 25  1  0  0  0
 24 26  2  0  0  0
 11 12  2  0  0  0
 12 13  1  0  0  0
 13  5  1  0  0  0
  5  2  1  0  0  0
  2  3  1  0  0  0
  3 15  1  0  0  0
 15 16  1  0  0  0
 16 20  1  0  0  0
 20 21  2  0  0  0
 21 22  1  0  0  0
  7 14  1  0  0  0
 25 27  1  0  0  0
 25 28  1  0  0  0
  3  4  1  0  0  0
M  END
> <minimizedAffinity>
-7.38425

$$$$
3NB5_R21_A_300


 28 29  0  0  0  0  0  0  0  0999 V2000
   14.9382    5.7275   14.0435 O   0  0  0  0  0  0  0  0  0  0  0  0
   16.1043    5.3812   14.2311 C   0  0  0  0  0  0  0  0  0  0  0  0
   17.1338    6.2217   14.2852 N   0  0  0  0  0  0  0  0  0  0  0  0
   18.0338    5.8545   14.4413 H   0  0  0  0  0  0  0  0  0  0  0  0
   16.4748    3.9084   14.4149 C   0  0  0  0  0  0  0  0  0  0  0  0
   18.2916   -0.1708   11.6723 Cl  0  0  0  0  0  0  0  0  0  0  0  0
   17.5309    1.5243    9.3800 O   0  0  0  0  0  0  0  0  0  0  0  0
   17.2524    2.0813   10.5892 C   0  0  0  0  0  0  0  0  0  0  0  0
   16.6644    3.3390   10.6540 C   0  0  0  0  0  0  0  0  0  0  0  0
   16.3962    3.9184   11.8889 C   0  0  0  0  0  0  0  0  0  0  0  0
   17.5688    1.3991   11.7596 C   0  0  0  0  0  0  0  0  0  0  0  0
   17.3007    1.9796   12.9946 C   0  0  0  0  0  0  0  0  0  0  0  0
   16.7170    3.2401   13.0592 C   0  0  0  0  0  0  0  0  0  0  0  0
   17.3175    1.9842    8.5920 H   0  0  0  0  0  0  0  0  0  0  0  0
   16.9859    7.6762   14.1219 C   0  0  0  0  0  0  0  0  0  0  0  0
   17.7405    8.1029   12.8609 C   0  0  0  0  0  0  0  0  0  0  0  0
   15.8288    9.1361   11.5635 C   0  0  0  0  0  0  0  0  0  0  0  0
   15.0666    9.2651   10.4082 C   0  0  0  0  0  0  0  0  0  0  0  0
   15.3038    8.4304    9.3217 C   0  0  0  0  0  0  0  0  0  0  0  0
   16.8302    8.1746   11.6328 C   0  0  0  0  0  0  0  0  0  0  0  0
   17.0603    7.3323   10.5506 C   0  0  0  0  0  0  0  0  0  0  0  0
   16.2971    7.4608    9.3961 C   0  0  0  0  0  0  0  0  0  0  0  0
   14.3438   10.0826    7.4800 O   0  0  0  0  0  0  0  0  0  0  0  0
   14.3847    8.6286    7.8457 S   0  0  0  0  0  0  0  0  0  0  0  0
   15.0917    7.7754    6.6507 N   0  0  0  0  0  0  0  0  0  0  0  0
   12.9891    8.1185    8.0545 O   0  0  0  0  0  0  0  0  0  0  0  0
   16.0412    8.1179    6.5042 H   0  0  0  0  0  0  0  0  0  0  0  0
   14.5542    7.8850    5.7907 H   0  0  0  0  0  0  0  0  0  0  0  0
  6 11  1  0  0  0
 23 24  2  0  0  0
  7  8  1  0  0  0
  8  9  2  0  0  0
  8 11  1  0  0  0
  9 10  1  0  0  0
 10 13  2  0  0  0
  1  2  2  0  0  0
 17 18  2  0  0  0
 17 20  1  0  0  0
 18 19  1  0  0  0
 19 24  1  0  0  0
 19 22  2  0  0  0
 24 25  1  0  0  0
 24 26  2  0  0  0
 11 12  2  0  0  0
 12 13  1  0  0  0
 13  5  1  0  0  0
  5  2  1  0  0  0
  2  3  1  0  0  0
  3 15  1  0  0  0
 15 16  1  0  0  0
 16 20  1  0  0  0
 20 21  2  0  0  0
 21 22  1  0  0  0
  7 14  1  0  0  0
 25 27  1  0  0  0
 25 28  1  0  0  0
  3  4  1  0  0  0
M  END
> <minimizedAffinity>
-7.32332

$$$$
3NB5_R21_A_300


 28 29  0  0  0  0  0  0  0  0999 V2000
   17.7734    3.5205   15.0532 O   0  0  0  0  0  0  0  0  0  0  0  0
   16.8958    3.5754   14.1919 C   0  0  0  0  0  0  0  0  0  0  0  0
   15.8092    4.3376   14.2799 N   0  0  0  0  0  0  0  0  0  0  0  0
   15.1598    4.3189   13.5402 H   0  0  0  0  0  0  0  0  0  0  0  0
   16.9843    2.7383   12.9145 C   0  0  0  0  0  0  0  0  0  0  0  0
   18.1058    6.4862    9.4277 Cl  0  0  0  0  0  0  0  0  0  0  0  0
   20.5966    4.9317    9.1344 O   0  0  0  0  0  0  0  0  0  0  0  0
   19.7403    4.4242   10.0613 C   0  0  0  0  0  0  0  0  0  0  0  0
   20.0806    3.2734   10.7625 C   0  0  0  0  0  0  0  0  0  0  0  0
   19.1988    2.7421   11.6968 C   0  0  0  0  0  0  0  0  0  0  0  0
   18.5194    5.0480   10.2968 C   0  0  0  0  0  0  0  0  0  0  0  0
   17.6376    4.5157   11.2311 C   0  0  0  0  0  0  0  0  0  0  0  0
   17.9761    3.3615   11.9290 C   0  0  0  0  0  0  0  0  0  0  0  0
   21.4188    4.5111    8.9762 H   0  0  0  0  0  0  0  0  0  0  0  0
   15.5360    5.2073   15.4343 C   0  0  0  0  0  0  0  0  0  0  0  0
   15.2769    6.6263   14.9233 C   0  0  0  0  0  0  0  0  0  0  0  0
   17.7578    7.0888   14.7320 C   0  0  0  0  0  0  0  0  0  0  0  0
   18.8653    7.5319   14.0183 C   0  0  0  0  0  0  0  0  0  0  0  0
   18.7001    8.1000   12.7599 C   0  0  0  0  0  0  0  0  0  0  0  0
   16.4848    7.2107   14.1874 C   0  0  0  0  0  0  0  0  0  0  0  0
   16.3181    7.7888   12.9338 C   0  0  0  0  0  0  0  0  0  0  0  0
   17.4256    8.2330   12.2212 C   0  0  0  0  0  0  0  0  0  0  0  0
   19.6448    9.4305   10.6669 O   0  0  0  0  0  0  0  0  0  0  0  0
   20.0971    8.6060   11.8353 S   0  0  0  0  0  0  0  0  0  0  0  0
   21.0843    9.4868   12.7871 N   0  0  0  0  0  0  0  0  0  0  0  0
   20.8370    7.3957   11.3463 O   0  0  0  0  0  0  0  0  0  0  0  0
   20.5865   10.3113   13.1227 H   0  0  0  0  0  0  0  0  0  0  0  0
   21.9022    9.7779   12.2516 H   0  0  0  0  0  0  0  0  0  0  0  0
  6 11  1  0  0  0
 23 24  2  0  0  0
  7  8  1  0  0  0
  8  9  2  0  0  0
  8 11  1  0  0  0
  9 10  1  0  0  0
 10 13  2  0  0  0
  1  2  2  0  0  0
 17 18  2  0  0  0
 17 20  1  0  0  0
 18 19  1  0  0  0
 19 24  1  0  0  0
 19 22  2  0  0  0
 24 25  1  0  0  0
 24 26  2  0  0  0
 11 12  2  0  0  0
 12 13  1  0  0  0
 13  5  1  0  0  0
  5  2  1  0  0  0
  2  3  1  0  0  0
  3 15  1  0  0  0
 15 16  1  0  0  0
 16 20  1  0  0  0
 20 21  2  0  0  0
 21 22  1  0  0  0
  7 14  1  0  0  0
 25 27  1  0  0  0
 25 28  1  0  0  0
  3  4  1  0  0  0
M  END
> <minimizedAffinity>
-7.26577

$$$$
