2Q1Q_OSP_A_300
  RCSB PDB12061706433D
Coordinates from PDB:2Q1Q:A:300 Model:1 without hydrogens
 18 19  0  0  0  0            999 V2000
   -5.2520    4.5090   11.2130   O 0  0  0  0  0  0  0  0  0  0  0  0
   -4.0070    5.1270   11.6080   S 0  0  0  0  0  0  0  0  0  0  0  0
   -2.9710    4.2460   11.1220   O 0  0  0  0  0  0  0  0  0  0  0  0
   -3.7850    6.6210   10.9110   C 0  0  0  0  0  0  0  0  0  0  0  0
   -2.5260    7.3020   11.4600   C 0  0  0  0  0  0  0  0  0  0  0  0
   -1.9850    6.6550   12.7350   C 0  0  0  0  0  0  0  0  0  0  0  0
   -3.0830    6.3190   13.7370   C 0  0  0  0  0  0  0  0  0  0  0  0
   -3.8530    5.2320   13.1420   N 0  0  0  0  0  0  0  0  0  0  0  0
   -4.3780    4.2460   14.0100   C 0  0  0  0  0  0  0  0  0  0  0  0
   -3.5850    3.1360   14.3000   C 0  0  0  0  0  0  0  0  0  0  0  0
   -4.0580    2.1420   15.1650   C 0  0  0  0  0  0  0  0  0  0  0  0
   -5.6540    4.3450   14.5730   C 0  0  0  0  0  0  0  0  0  0  0  0
   -6.1280    3.3490   15.4340   C 0  0  0  0  0  0  0  0  0  0  0  0
   -5.3370    2.2300   15.7390   C 0  0  0  0  0  0  0  0  0  0  0  0
   -5.8650    1.0470   16.7210   S 0  0  0  0  0  0  0  0  0  0  0  0
   -7.3000    1.0520   16.7650   O 0  0  0  0  0  0  0  0  0  0  0  0
   -5.3130    1.2480   18.0320   O 0  0  0  0  0  0  0  0  0  0  0  0
   -5.3580   -0.3420   16.1270   N 0  0  0  0  0  0  0  0  0  0  0  0
  1  2  2  0  0  0  0
  2  4  1  0  0  0  0
  2  3  2  0  0  0  0
  2  8  1  0  0  0  0
  4  5  1  0  0  0  0
  5  6  1  0  0  0  0
  6  7  1  0  0  0  0
  7  8  1  0  0  0  0
  8  9  1  0  0  0  0
  9 10  2  0  0  0  0
  9 12  1  0  0  0  0
 10 11  1  0  0  0  0
 11 14  2  0  0  0  0
 12 13  2  0  0  0  0
 13 14  1  0  0  0  0
 14 15  1  0  0  0  0
 15 18  1  0  0  0  0
 15 16  2  0  0  0  0
 15 17  2  0  0  0  0
A    1
O3
A    2
S2
A    3
O4
A    4
C7
A    5
C8
A    6
C9
A    7
C10
A    8
N2
A    9
C4
A   10
C3
A   11
C2
A   12
C5
A   13
C6
A   14
C1
A   15
S1
A   16
O1
A   17
O2
A   18
N1
M  END
>  <InstanceId>
2Q1Q_OSP_A_300

>  <ChemCompId>
OSP

>  <PdbId>
2Q1Q

>  <ChainId>
A

>  <ResidueNumber>
300

>  <InsertionCode>


>  <Model>
1

>  <AltIds>


>  <MissingHeavyAtoms>
0

>  <ObservedFormula>
C10 N2 O4 S2

>  <Name>
SULTHIAME

>  <SystematicName>
4-(1,1-dioxo-1,2-thiazinan-2-yl)benzenesulfonamide

>  <Synonyms>
4-(1,1-DIOXIDO-1,2-THIAZINAN-2-YL)BENZENESULFONAMIDE

>  <Type>
NON-POLYMER

>  <Formula>
C10 H14 N2 O4 S2

>  <MolecularWeight>
290.359

>  <ModifiedDate>
2011-06-04

>  <Parent>


>  <OneLetterCode>


>  <SubcomponentList>


>  <AmbiguousFlag>


>  <InChI>
InChI=1S/C10H14N2O4S2/c11-18(15,16)10-5-3-9(4-6-10)12-7-1-2-8-17(12,13)14/h3-6H,1-2,7-8H2,(H2,11,15,16)

>  <InChIKey>
HMHVCUVYZFYAJI-UHFFFAOYSA-N

>  <SMILES>
c1cc(ccc1N2CCCCS2(=O)=O)S(=O)(=O)N

$$$$
