3N2P_AYX_A_263


 27 28  0  0  0  0  0  0  0  0999 V2000
   -4.1388    5.0592   13.2127 N   0  0  0  0  0  0  0  0  0  0  0  0
   -4.2151    4.7347   11.8094 C   0  0  0  0  0  0  0  0  0  0  0  0
   -4.9222    3.8702   11.3078 O   0  0  0  0  0  0  0  0  0  0  0  0
   -3.5742    5.7039   10.9768 N   0  0  0  0  0  0  0  0  0  0  0  0
   -3.6776    5.8868   13.4805 H   0  0  0  0  0  0  0  0  0  0  0  0
   -3.1185    6.4377   11.4492 H   0  0  0  0  0  0  0  0  0  0  0  0
   -5.7198    2.5340   16.1494 C   0  0  0  0  0  0  0  0  0  0  0  0
   -4.4393    2.3146   15.6597 C   0  0  0  0  0  0  0  0  0  0  0  0
   -3.9279    3.1636   14.6839 C   0  0  0  0  0  0  0  0  0  0  0  0
   -4.7130    4.2176   14.2474 C   0  0  0  0  0  0  0  0  0  0  0  0
   -5.9866    4.4468   14.7257 C   0  0  0  0  0  0  0  0  0  0  0  0
   -6.4964    3.5901   15.7010 C   0  0  0  0  0  0  0  0  0  0  0  0
   -5.5509    0.0997   17.3500 N   0  0  0  0  0  0  0  0  0  0  0  0
   -7.7688    1.2398   16.9363 O   0  0  0  0  0  0  0  0  0  0  0  0
   -6.4049    1.4511   17.3702 S   0  0  0  0  0  0  0  0  0  0  0  0
   -6.2597    2.0920   18.6796 O   0  0  0  0  0  0  0  0  0  0  0  0
   -5.6485   -0.3507   16.4401 H   0  0  0  0  0  0  0  0  0  0  0  0
   -5.8908   -0.5282   18.0784 H   0  0  0  0  0  0  0  0  0  0  0  0
   -3.5071    5.7495    9.5551 C   0  0  0  0  0  0  0  0  0  0  0  0
   -4.5769    6.2519    8.8210 C   0  0  0  0  0  0  0  0  0  0  0  0
   -4.4872    6.2516    7.4250 C   0  0  0  0  0  0  0  0  0  0  0  0
   -3.3419    5.8005    6.7963 C   0  0  0  0  0  0  0  0  0  0  0  0
   -2.2865    5.2862    7.5485 C   0  0  0  0  0  0  0  0  0  0  0  0
   -2.3580    5.2752    8.9436 C   0  0  0  0  0  0  0  0  0  0  0  0
   -5.5570    6.7700    6.6376 N   0  0  0  0  0  0  0  0  0  0  0  0
   -6.7769    6.3821    6.8871 O   0  0  0  0  0  0  0  0  0  0  0  0
   -5.3269    7.6652    5.7423 O   0  0  0  0  0  0  0  0  0  0  0  0
  7 15  1  0  0  0
 13 15  1  0  0  0
 14 15  2  0  0  0
 15 16  2  0  0  0
  8  7  2  0  0  0
  9  8  1  0  0  0
 10  9  2  0  0  0
 10 11  1  0  0  0
 11 12  2  0  0  0
 12  7  1  0  0  0
  1 10  1  0  0  0
  2  1  1  0  0  0
  3  2  2  0  0  0
  4  2  1  0  0  0
 19  4  1  0  0  0
 20 19  2  0  0  0
 21 20  1  0  0  0
 22 21  2  0  0  0
 22 23  1  0  0  0
 23 24  2  0  0  0
 24 19  1  0  0  0
 25 21  1  0  0  0
 25 27  1  0  0  0
 26 25  2  0  0  0
 13 17  1  0  0  0
 13 18  1  0  0  0
  1  5  1  0  0  0
  4  6  1  0  0  0
M  CHG 1  25   1
M  CHG 1  27  -1
M  END
> <minimizedAffinity>
-7.97303

$$$$
3N2P_AYX_A_263


 27 28  0  0  0  0  0  0  0  0999 V2000
   -4.3458    5.6537   13.5036 N   0  0  0  0  0  0  0  0  0  0  0  0
   -5.1700    6.2641   12.4896 C   0  0  0  0  0  0  0  0  0  0  0  0
   -6.3921    6.2168   12.4304 O   0  0  0  0  0  0  0  0  0  0  0  0
   -4.4509    7.1841   11.6651 N   0  0  0  0  0  0  0  0  0  0  0  0
   -3.3958    5.9070   13.5541 H   0  0  0  0  0  0  0  0  0  0  0  0
   -3.4857    7.2543   11.8456 H   0  0  0  0  0  0  0  0  0  0  0  0
   -5.7538    2.7582   16.1747 C   0  0  0  0  0  0  0  0  0  0  0  0
   -4.5301    2.5842   15.5422 C   0  0  0  0  0  0  0  0  0  0  0  0
   -4.0758    3.5565   14.6574 C   0  0  0  0  0  0  0  0  0  0  0  0
   -4.8573    4.6814   14.4533 C   0  0  0  0  0  0  0  0  0  0  0  0
   -6.0748    4.8666   15.0752 C   0  0  0  0  0  0  0  0  0  0  0  0
   -6.5278    3.8867   15.9582 C   0  0  0  0  0  0  0  0  0  0  0  0
   -5.4365    0.2320   17.1305 N   0  0  0  0  0  0  0  0  0  0  0  0
   -7.7194    1.2748   16.8292 O   0  0  0  0  0  0  0  0  0  0  0  0
   -6.3680    1.5223   17.2827 S   0  0  0  0  0  0  0  0  0  0  0  0
   -6.2540    2.0391   18.6489 O   0  0  0  0  0  0  0  0  0  0  0  0
   -5.5122   -0.1319   16.1806 H   0  0  0  0  0  0  0  0  0  0  0  0
   -5.7353   -0.4833   17.7934 H   0  0  0  0  0  0  0  0  0  0  0  0
   -4.9447    8.0126   10.6175 C   0  0  0  0  0  0  0  0  0  0  0  0
   -5.3816    7.4449    9.4248 C   0  0  0  0  0  0  0  0  0  0  0  0
   -5.8305    8.2929    8.4069 C   0  0  0  0  0  0  0  0  0  0  0  0
   -5.8765    9.6604    8.6031 C   0  0  0  0  0  0  0  0  0  0  0  0
   -5.4196   10.2118    9.7995 C   0  0  0  0  0  0  0  0  0  0  0  0
   -4.9649    9.3820   10.8272 C   0  0  0  0  0  0  0  0  0  0  0  0
   -6.2985    7.7489    7.1747 N   0  0  0  0  0  0  0  0  0  0  0  0
   -6.2369    8.4761    6.0938 O   0  0  0  0  0  0  0  0  0  0  0  0
   -6.7067    6.5299    7.1190 O   0  0  0  0  0  0  0  0  0  0  0  0
  7 15  1  0  0  0
 13 15  1  0  0  0
 14 15  2  0  0  0
 15 16  2  0  0  0
  8  7  2  0  0  0
  9  8  1  0  0  0
 10  9  2  0  0  0
 10 11  1  0  0  0
 11 12  2  0  0  0
 12  7  1  0  0  0
  1 10  1  0  0  0
  2  1  1  0  0  0
  3  2  2  0  0  0
  4  2  1  0  0  0
 19  4  1  0  0  0
 20 19  2  0  0  0
 21 20  1  0  0  0
 22 21  2  0  0  0
 22 23  1  0  0  0
 23 24  2  0  0  0
 24 19  1  0  0  0
 25 21  1  0  0  0
 25 27  1  0  0  0
 26 25  2  0  0  0
 13 17  1  0  0  0
 13 18  1  0  0  0
  1  5  1  0  0  0
  4  6  1  0  0  0
M  CHG 1  25   1
M  CHG 1  27  -1
M  END
> <minimizedAffinity>
-7.65010

$$$$
3N2P_AYX_A_263


 27 28  0  0  0  0  0  0  0  0999 V2000
   -4.2228    5.0820   13.2804 N   0  0  0  0  0  0  0  0  0  0  0  0
   -4.1148    4.6726   11.9017 C   0  0  0  0  0  0  0  0  0  0  0  0
   -4.6473    3.6918   11.3981 O   0  0  0  0  0  0  0  0  0  0  0  0
   -3.5284    5.6735   11.0666 N   0  0  0  0  0  0  0  0  0  0  0  0
   -3.9047    5.9791   13.5318 H   0  0  0  0  0  0  0  0  0  0  0  0
   -3.2236    6.4885   11.5272 H   0  0  0  0  0  0  0  0  0  0  0  0
   -5.7535    2.5222   16.2140 C   0  0  0  0  0  0  0  0  0  0  0  0
   -4.4630    2.3388   15.7357 C   0  0  0  0  0  0  0  0  0  0  0  0
   -3.9687    3.1989   14.7608 C   0  0  0  0  0  0  0  0  0  0  0  0
   -4.7807    4.2276   14.3137 C   0  0  0  0  0  0  0  0  0  0  0  0
   -6.0645    4.4210   14.7805 C   0  0  0  0  0  0  0  0  0  0  0  0
   -6.5570    3.5533   15.7549 C   0  0  0  0  0  0  0  0  0  0  0  0
   -5.5411    0.0867   17.4053 N   0  0  0  0  0  0  0  0  0  0  0  0
   -7.7785    1.1924   17.0034 O   0  0  0  0  0  0  0  0  0  0  0  0
   -6.4166    1.4241   17.4333 S   0  0  0  0  0  0  0  0  0  0  0  0
   -6.2772    2.0627   18.7445 O   0  0  0  0  0  0  0  0  0  0  0  0
   -5.6347   -0.3620   16.4941 H   0  0  0  0  0  0  0  0  0  0  0  0
   -5.8682   -0.5491   18.1326 H   0  0  0  0  0  0  0  0  0  0  0  0
   -3.3262    5.6489    9.6572 C   0  0  0  0  0  0  0  0  0  0  0  0
   -2.2020    5.0270    9.1234 C   0  0  0  0  0  0  0  0  0  0  0  0
   -2.0214    5.0505    7.7365 C   0  0  0  0  0  0  0  0  0  0  0  0
   -2.9638    5.6427    6.9169 C   0  0  0  0  0  0  0  0  0  0  0  0
   -4.0761    6.2745    7.4715 C   0  0  0  0  0  0  0  0  0  0  0  0
   -4.2729    6.2644    8.8545 C   0  0  0  0  0  0  0  0  0  0  0  0
   -0.8887    4.4131    7.1500 N   0  0  0  0  0  0  0  0  0  0  0  0
   -0.3920    4.8909    6.0428 O   0  0  0  0  0  0  0  0  0  0  0  0
   -0.3209    3.4247    7.7471 O   0  0  0  0  0  0  0  0  0  0  0  0
  7 15  1  0  0  0
 13 15  1  0  0  0
 14 15  2  0  0  0
 15 16  2  0  0  0
  8  7  2  0  0  0
  9  8  1  0  0  0
 10  9  2  0  0  0
 10 11  1  0  0  0
 11 12  2  0  0  0
 12  7  1  0  0  0
  1 10  1  0  0  0
  2  1  1  0  0  0
  3  2  2  0  0  0
  4  2  1  0  0  0
 19  4  1  0  0  0
 20 19  2  0  0  0
 21 20  1  0  0  0
 22 21  2  0  0  0
 22 23  1  0  0  0
 23 24  2  0  0  0
 24 19  1  0  0  0
 25 21  1  0  0  0
 25 27  1  0  0  0
 26 25  2  0  0  0
 13 17  1  0  0  0
 13 18  1  0  0  0
  1  5  1  0  0  0
  4  6  1  0  0  0
M  CHG 1  25   1
M  CHG 1  27  -1
M  END
> <minimizedAffinity>
-7.51987

$$$$
3N2P_AYX_A_263


 27 28  0  0  0  0  0  0  0  0999 V2000
   -5.8249    7.1658    9.5228 N   0  0  0  0  0  0  0  0  0  0  0  0
   -5.7803    6.7262   10.8958 C   0  0  0  0  0  0  0  0  0  0  0  0
   -6.6870    6.8237   11.7127 O   0  0  0  0  0  0  0  0  0  0  0  0
   -4.6487    5.9007   11.1810 N   0  0  0  0  0  0  0  0  0  0  0  0
   -5.1101    6.8750    8.9115 H   0  0  0  0  0  0  0  0  0  0  0  0
   -4.0155    5.7733   10.4380 H   0  0  0  0  0  0  0  0  0  0  0  0
   -8.9130    9.5192    7.9650 C   0  0  0  0  0  0  0  0  0  0  0  0
   -9.1216    8.1674    8.2036 C   0  0  0  0  0  0  0  0  0  0  0  0
   -8.0849    7.3988    8.7224 C   0  0  0  0  0  0  0  0  0  0  0  0
   -6.8790    8.0190    9.0036 C   0  0  0  0  0  0  0  0  0  0  0  0
   -6.6587    9.3611    8.7714 C   0  0  0  0  0  0  0  0  0  0  0  0
   -7.7000   10.1263    8.2471 C   0  0  0  0  0  0  0  0  0  0  0  0
  -11.5972    9.8135    7.6423 N   0  0  0  0  0  0  0  0  0  0  0  0
   -9.9480   10.5028    5.8547 O   0  0  0  0  0  0  0  0  0  0  0  0
  -10.2064   10.5129    7.2782 S   0  0  0  0  0  0  0  0  0  0  0  0
  -10.1515   11.8326    7.9121 O   0  0  0  0  0  0  0  0  0  0  0  0
  -11.6406    8.8939    7.2031 H   0  0  0  0  0  0  0  0  0  0  0  0
  -12.3669   10.3896    7.3015 H   0  0  0  0  0  0  0  0  0  0  0  0
   -4.3153    5.2382   12.3966 C   0  0  0  0  0  0  0  0  0  0  0  0
   -4.4327    3.8552   12.4933 C   0  0  0  0  0  0  0  0  0  0  0  0
   -4.1261    3.2430   13.7131 C   0  0  0  0  0  0  0  0  0  0  0  0
   -3.6766    3.9956   14.7818 C   0  0  0  0  0  0  0  0  0  0  0  0
   -3.5804    5.3822   14.6704 C   0  0  0  0  0  0  0  0  0  0  0  0
   -3.8847    6.0127   13.4615 C   0  0  0  0  0  0  0  0  0  0  0  0
   -4.2214    1.8267   13.8485 N   0  0  0  0  0  0  0  0  0  0  0  0
   -3.9339    1.2762   14.9954 O   0  0  0  0  0  0  0  0  0  0  0  0
   -4.6572    1.1110   12.8720 O   0  0  0  0  0  0  0  0  0  0  0  0
  7 15  1  0  0  0
 13 15  1  0  0  0
 14 15  2  0  0  0
 15 16  2  0  0  0
  8  7  2  0  0  0
  9  8  1  0  0  0
 10  9  2  0  0  0
 10 11  1  0  0  0
 11 12  2  0  0  0
 12  7  1  0  0  0
  1 10  1  0  0  0
  2  1  1  0  0  0
  3  2  2  0  0  0
  4  2  1  0  0  0
 19  4  1  0  0  0
 20 19  2  0  0  0
 21 20  1  0  0  0
 22 21  2  0  0  0
 22 23  1  0  0  0
 23 24  2  0  0  0
 24 19  1  0  0  0
 25 21  1  0  0  0
 25 27  1  0  0  0
 26 25  2  0  0  0
 13 17  1  0  0  0
 13 18  1  0  0  0
  1  5  1  0  0  0
  4  6  1  0  0  0
M  CHG 1  25   1
M  CHG 1  27  -1
M  END
> <minimizedAffinity>
-7.27491

$$$$
3N2P_AYX_A_263


 27 28  0  0  0  0  0  0  0  0999 V2000
   -4.0307    5.2797   11.4530 N   0  0  0  0  0  0  0  0  0  0  0  0
   -5.0495    6.2723   11.2140 C   0  0  0  0  0  0  0  0  0  0  0  0
   -6.0276    6.4845   11.9192 O   0  0  0  0  0  0  0  0  0  0  0  0
   -4.6905    7.2057   10.1926 N   0  0  0  0  0  0  0  0  0  0  0  0
   -3.2012    5.3191   10.9243 H   0  0  0  0  0  0  0  0  0  0  0  0
   -3.8314    7.0363    9.7426 H   0  0  0  0  0  0  0  0  0  0  0  0
   -4.3664    2.3055   14.3757 C   0  0  0  0  0  0  0  0  0  0  0  0
   -4.0909    3.6152   14.7450 C   0  0  0  0  0  0  0  0  0  0  0  0
   -3.9831    4.5926   13.7613 C   0  0  0  0  0  0  0  0  0  0  0  0
   -4.1762    4.2247   12.4402 C   0  0  0  0  0  0  0  0  0  0  0  0
   -4.4505    2.9272   12.0598 C   0  0  0  0  0  0  0  0  0  0  0  0
   -4.5533    1.9502   13.0497 C   0  0  0  0  0  0  0  0  0  0  0  0
   -5.8623    1.2417   16.3824 N   0  0  0  0  0  0  0  0  0  0  0  0
   -3.3357    1.2658   16.4612 O   0  0  0  0  0  0  0  0  0  0  0  0
   -4.4799    1.0378   15.6056 S   0  0  0  0  0  0  0  0  0  0  0  0
   -4.4988   -0.2581   14.9226 O   0  0  0  0  0  0  0  0  0  0  0  0
   -5.8543    2.1430   16.8599 H   0  0  0  0  0  0  0  0  0  0  0  0
   -5.9807    0.4952   17.0673 H   0  0  0  0  0  0  0  0  0  0  0  0
   -5.4100    8.3479    9.7392 C   0  0  0  0  0  0  0  0  0  0  0  0
   -6.0030    8.3457    8.4807 C   0  0  0  0  0  0  0  0  0  0  0  0
   -6.6747    9.4974    8.0572 C   0  0  0  0  0  0  0  0  0  0  0  0
   -6.7798   10.5943    8.8916 C   0  0  0  0  0  0  0  0  0  0  0  0
   -6.1654   10.5833   10.1433 C   0  0  0  0  0  0  0  0  0  0  0  0
   -5.4876    9.4437   10.5833 C   0  0  0  0  0  0  0  0  0  0  0  0
   -7.3066    9.5300    6.7794 N   0  0  0  0  0  0  0  0  0  0  0  0
   -6.6587    9.0879    5.7374 O   0  0  0  0  0  0  0  0  0  0  0  0
   -8.5275    9.9221    6.6709 O   0  0  0  0  0  0  0  0  0  0  0  0
  7 15  1  0  0  0
 13 15  1  0  0  0
 14 15  2  0  0  0
 15 16  2  0  0  0
  8  7  2  0  0  0
  9  8  1  0  0  0
 10  9  2  0  0  0
 10 11  1  0  0  0
 11 12  2  0  0  0
 12  7  1  0  0  0
  1 10  1  0  0  0
  2  1  1  0  0  0
  3  2  2  0  0  0
  4  2  1  0  0  0
 19  4  1  0  0  0
 20 19  2  0  0  0
 21 20  1  0  0  0
 22 21  2  0  0  0
 22 23  1  0  0  0
 23 24  2  0  0  0
 24 19  1  0  0  0
 25 21  1  0  0  0
 25 27  1  0  0  0
 26 25  2  0  0  0
 13 17  1  0  0  0
 13 18  1  0  0  0
  1  5  1  0  0  0
  4  6  1  0  0  0
M  CHG 1  25   1
M  CHG 1  27  -1
M  END
> <minimizedAffinity>
-6.98776

$$$$
3N2P_AYX_A_263


 27 28  0  0  0  0  0  0  0  0999 V2000
   -4.2588    5.9468   13.8141 N   0  0  0  0  0  0  0  0  0  0  0  0
   -4.7329    6.2436   12.4846 C   0  0  0  0  0  0  0  0  0  0  0  0
   -5.6735    5.7019   11.9181 O   0  0  0  0  0  0  0  0  0  0  0  0
   -4.1698    7.4418   11.9457 N   0  0  0  0  0  0  0  0  0  0  0  0
   -3.6171    6.5641   14.2341 H   0  0  0  0  0  0  0  0  0  0  0  0
   -3.4978    7.8886   12.5097 H   0  0  0  0  0  0  0  0  0  0  0  0
   -5.5752    2.6523   16.0309 C   0  0  0  0  0  0  0  0  0  0  0  0
   -6.4238    3.7302   15.8168 C   0  0  0  0  0  0  0  0  0  0  0  0
   -5.9712    4.8176   15.0770 C   0  0  0  0  0  0  0  0  0  0  0  0
   -4.6874    4.7766   14.5595 C   0  0  0  0  0  0  0  0  0  0  0  0
   -3.8342    3.7119   14.7647 C   0  0  0  0  0  0  0  0  0  0  0  0
   -4.2914    2.6259   15.5107 C   0  0  0  0  0  0  0  0  0  0  0  0
   -5.3763   -0.0306   16.4288 N   0  0  0  0  0  0  0  0  0  0  0  0
   -7.5462    1.2192   16.7752 O   0  0  0  0  0  0  0  0  0  0  0  0
   -6.1168    1.2692   16.9931 S   0  0  0  0  0  0  0  0  0  0  0  0
   -5.7055    1.4919   18.3815 O   0  0  0  0  0  0  0  0  0  0  0  0
   -5.6593   -0.1903   15.4619 H   0  0  0  0  0  0  0  0  0  0  0  0
   -5.6306   -0.8397   16.9955 H   0  0  0  0  0  0  0  0  0  0  0  0
   -4.4512    8.0753   10.7019 C   0  0  0  0  0  0  0  0  0  0  0  0
   -5.2519    9.2124   10.6624 C   0  0  0  0  0  0  0  0  0  0  0  0
   -5.5321    9.7887    9.4190 C   0  0  0  0  0  0  0  0  0  0  0  0
   -4.9882    9.2608    8.2631 C   0  0  0  0  0  0  0  0  0  0  0  0
   -4.2008    8.1114    8.3213 C   0  0  0  0  0  0  0  0  0  0  0  0
   -3.9118    7.5194    9.5532 C   0  0  0  0  0  0  0  0  0  0  0  0
   -6.3380   10.9622    9.3378 N   0  0  0  0  0  0  0  0  0  0  0  0
   -6.5416   11.6702   10.4140 O   0  0  0  0  0  0  0  0  0  0  0  0
   -6.7955   11.3558    8.2013 O   0  0  0  0  0  0  0  0  0  0  0  0
  7 15  1  0  0  0
 13 15  1  0  0  0
 14 15  2  0  0  0
 15 16  2  0  0  0
  8  7  2  0  0  0
  9  8  1  0  0  0
 10  9  2  0  0  0
 10 11  1  0  0  0
 11 12  2  0  0  0
 12  7  1  0  0  0
  1 10  1  0  0  0
  2  1  1  0  0  0
  3  2  2  0  0  0
  4  2  1  0  0  0
 19  4  1  0  0  0
 20 19  2  0  0  0
 21 20  1  0  0  0
 22 21  2  0  0  0
 22 23  1  0  0  0
 23 24  2  0  0  0
 24 19  1  0  0  0
 25 21  1  0  0  0
 25 27  1  0  0  0
 26 25  2  0  0  0
 13 17  1  0  0  0
 13 18  1  0  0  0
  1  5  1  0  0  0
  4  6  1  0  0  0
M  CHG 1  25   1
M  CHG 1  27  -1
M  END
> <minimizedAffinity>
-6.98306

$$$$
3N2P_AYX_A_263


 27 28  0  0  0  0  0  0  0  0999 V2000
   -4.9193    6.4748   12.5479 N   0  0  0  0  0  0  0  0  0  0  0  0
   -5.2876    6.4925   11.1535 C   0  0  0  0  0  0  0  0  0  0  0  0
   -5.7440    5.5512   10.5174 O   0  0  0  0  0  0  0  0  0  0  0  0
   -5.3273    7.8113   10.6034 N   0  0  0  0  0  0  0  0  0  0  0  0
   -4.7361    7.3312   12.9977 H   0  0  0  0  0  0  0  0  0  0  0  0
   -5.0532    8.5355   11.2114 H   0  0  0  0  0  0  0  0  0  0  0  0
   -4.6580    3.0002   14.8629 C   0  0  0  0  0  0  0  0  0  0  0  0
   -5.7064    3.8890   15.0590 C   0  0  0  0  0  0  0  0  0  0  0  0
   -5.7794    5.0394   14.2806 C   0  0  0  0  0  0  0  0  0  0  0  0
   -4.8072    5.2480   13.3167 C   0  0  0  0  0  0  0  0  0  0  0  0
   -3.7604    4.3729   13.1116 C   0  0  0  0  0  0  0  0  0  0  0  0
   -3.6895    3.2230   13.8976 C   0  0  0  0  0  0  0  0  0  0  0  0
   -4.7250    0.2816   14.8987 N   0  0  0  0  0  0  0  0  0  0  0  0
   -5.5993    1.6701   16.8218 O   0  0  0  0  0  0  0  0  0  0  0  0
   -4.5261    1.5437   15.8598 S   0  0  0  0  0  0  0  0  0  0  0  0
   -3.1779    1.5046   16.4318 O   0  0  0  0  0  0  0  0  0  0  0  0
   -5.6626    0.3041   14.4976 H   0  0  0  0  0  0  0  0  0  0  0  0
   -4.6056   -0.5771   15.4361 H   0  0  0  0  0  0  0  0  0  0  0  0
   -5.7103    8.2170    9.2933 C   0  0  0  0  0  0  0  0  0  0  0  0
   -7.0322    8.5590    9.0264 C   0  0  0  0  0  0  0  0  0  0  0  0
   -7.3771    8.9224    7.7204 C   0  0  0  0  0  0  0  0  0  0  0  0
   -6.4135    8.9794    6.7310 C   0  0  0  0  0  0  0  0  0  0  0  0
   -5.0970    8.6179    7.0143 C   0  0  0  0  0  0  0  0  0  0  0  0
   -4.7332    8.2495    8.3118 C   0  0  0  0  0  0  0  0  0  0  0  0
   -8.7187    9.2922    7.4095 N   0  0  0  0  0  0  0  0  0  0  0  0
   -9.6931    8.8260    8.1404 O   0  0  0  0  0  0  0  0  0  0  0  0
   -8.9558   10.1341    6.4656 O   0  0  0  0  0  0  0  0  0  0  0  0
  7 15  1  0  0  0
 13 15  1  0  0  0
 14 15  2  0  0  0
 15 16  2  0  0  0
  8  7  2  0  0  0
  9  8  1  0  0  0
 10  9  2  0  0  0
 10 11  1  0  0  0
 11 12  2  0  0  0
 12  7  1  0  0  0
  1 10  1  0  0  0
  2  1  1  0  0  0
  3  2  2  0  0  0
  4  2  1  0  0  0
 19  4  1  0  0  0
 20 19  2  0  0  0
 21 20  1  0  0  0
 22 21  2  0  0  0
 22 23  1  0  0  0
 23 24  2  0  0  0
 24 19  1  0  0  0
 25 21  1  0  0  0
 25 27  1  0  0  0
 26 25  2  0  0  0
 13 17  1  0  0  0
 13 18  1  0  0  0
  1  5  1  0  0  0
  4  6  1  0  0  0
M  CHG 1  25   1
M  CHG 1  27  -1
M  END
> <minimizedAffinity>
-6.91019

$$$$
3N2P_AYX_A_263


 27 28  0  0  0  0  0  0  0  0999 V2000
   -4.6984    6.5470   12.3881 N   0  0  0  0  0  0  0  0  0  0  0  0
   -5.2938    6.5841   11.0749 C   0  0  0  0  0  0  0  0  0  0  0  0
   -5.9825    5.7057   10.5717 O   0  0  0  0  0  0  0  0  0  0  0  0
   -5.2379    7.8794   10.4731 N   0  0  0  0  0  0  0  0  0  0  0  0
   -4.3200    7.3774   12.7574 H   0  0  0  0  0  0  0  0  0  0  0  0
   -4.7628    8.5698   10.9898 H   0  0  0  0  0  0  0  0  0  0  0  0
   -4.5643    3.1279   14.7949 C   0  0  0  0  0  0  0  0  0  0  0  0
   -5.5483    4.0855   15.0015 C   0  0  0  0  0  0  0  0  0  0  0  0
   -5.5796    5.2163   14.1922 C   0  0  0  0  0  0  0  0  0  0  0  0
   -4.6330    5.3372   13.1887 C   0  0  0  0  0  0  0  0  0  0  0  0
   -3.6502    4.3933   12.9727 C   0  0  0  0  0  0  0  0  0  0  0  0
   -3.6207    3.2634   13.7896 C   0  0  0  0  0  0  0  0  0  0  0  0
   -4.7986    0.4211   14.9146 N   0  0  0  0  0  0  0  0  0  0  0  0
   -5.5103    1.9146   16.8260 O   0  0  0  0  0  0  0  0  0  0  0  0
   -4.4848    1.6942   15.8295 S   0  0  0  0  0  0  0  0  0  0  0  0
   -3.1207    1.5857   16.3526 O   0  0  0  0  0  0  0  0  0  0  0  0
   -5.7477    0.4917   14.5477 H   0  0  0  0  0  0  0  0  0  0  0  0
   -4.7122   -0.4283   15.4727 H   0  0  0  0  0  0  0  0  0  0  0  0
   -5.7777    8.3044    9.2258 C   0  0  0  0  0  0  0  0  0  0  0  0
   -5.0835    8.0611    8.0449 C   0  0  0  0  0  0  0  0  0  0  0  0
   -5.6302    8.5211    6.8423 C   0  0  0  0  0  0  0  0  0  0  0  0
   -6.8533    9.1648    6.8292 C   0  0  0  0  0  0  0  0  0  0  0  0
   -7.5266    9.4133    8.0247 C   0  0  0  0  0  0  0  0  0  0  0  0
   -6.9958    8.9643    9.2364 C   0  0  0  0  0  0  0  0  0  0  0  0
   -4.9556    8.2801    5.6094 N   0  0  0  0  0  0  0  0  0  0  0  0
   -3.6805    8.0063    5.6244 O   0  0  0  0  0  0  0  0  0  0  0  0
   -5.6144    8.2605    4.5042 O   0  0  0  0  0  0  0  0  0  0  0  0
  7 15  1  0  0  0
 13 15  1  0  0  0
 14 15  2  0  0  0
 15 16  2  0  0  0
  8  7  2  0  0  0
  9  8  1  0  0  0
 10  9  2  0  0  0
 10 11  1  0  0  0
 11 12  2  0  0  0
 12  7  1  0  0  0
  1 10  1  0  0  0
  2  1  1  0  0  0
  3  2  2  0  0  0
  4  2  1  0  0  0
 19  4  1  0  0  0
 20 19  2  0  0  0
 21 20  1  0  0  0
 22 21  2  0  0  0
 22 23  1  0  0  0
 23 24  2  0  0  0
 24 19  1  0  0  0
 25 21  1  0  0  0
 25 27  1  0  0  0
 26 25  2  0  0  0
 13 17  1  0  0  0
 13 18  1  0  0  0
  1  5  1  0  0  0
  4  6  1  0  0  0
M  CHG 1  25   1
M  CHG 1  27  -1
M  END
> <minimizedAffinity>
-6.81676

$$$$
3N2P_AYX_A_263


 27 28  0  0  0  0  0  0  0  0999 V2000
   -4.4127    5.9497   13.9172 N   0  0  0  0  0  0  0  0  0  0  0  0
   -4.6793    6.1535   12.5145 C   0  0  0  0  0  0  0  0  0  0  0  0
   -5.4200    5.4732   11.8162 O   0  0  0  0  0  0  0  0  0  0  0  0
   -4.2006    7.4111   12.0324 N   0  0  0  0  0  0  0  0  0  0  0  0
   -3.9476    6.6594   14.4164 H   0  0  0  0  0  0  0  0  0  0  0  0
   -3.7079    7.9589   12.6855 H   0  0  0  0  0  0  0  0  0  0  0  0
   -5.6164    2.5432   16.0262 C   0  0  0  0  0  0  0  0  0  0  0  0
   -6.5054    3.5923   15.8343 C   0  0  0  0  0  0  0  0  0  0  0  0
   -6.0899    4.7177   15.1303 C   0  0  0  0  0  0  0  0  0  0  0  0
   -4.8009    4.7424   14.6247 C   0  0  0  0  0  0  0  0  0  0  0  0
   -3.9078    3.7069   14.8082 C   0  0  0  0  0  0  0  0  0  0  0  0
   -4.3280    2.5826   15.5184 C   0  0  0  0  0  0  0  0  0  0  0  0
   -5.6593    1.3324   18.4610 N   0  0  0  0  0  0  0  0  0  0  0  0
   -5.3980    0.0211   16.3157 O   0  0  0  0  0  0  0  0  0  0  0  0
   -6.1110    1.1125   16.9432 S   0  0  0  0  0  0  0  0  0  0  0  0
   -7.5718    1.0176   16.8853 O   0  0  0  0  0  0  0  0  0  0  0  0
   -4.6425    1.3992   18.5069 H   0  0  0  0  0  0  0  0  0  0  0  0
   -5.9742    0.5445   19.0270 H   0  0  0  0  0  0  0  0  0  0  0  0
   -4.3412    7.9772   10.7334 C   0  0  0  0  0  0  0  0  0  0  0  0
   -3.5121    7.5613    9.6965 C   0  0  0  0  0  0  0  0  0  0  0  0
   -3.6589    8.1627    8.4421 C   0  0  0  0  0  0  0  0  0  0  0  0
   -4.6359    9.1178    8.2327 C   0  0  0  0  0  0  0  0  0  0  0  0
   -5.4470    9.5328    9.2882 C   0  0  0  0  0  0  0  0  0  0  0  0
   -5.3140    8.9463   10.5491 C   0  0  0  0  0  0  0  0  0  0  0  0
   -2.8370    7.7549    7.3507 N   0  0  0  0  0  0  0  0  0  0  0  0
   -3.3005    7.8482    6.1352 O   0  0  0  0  0  0  0  0  0  0  0  0
   -1.6270    7.3701    7.5601 O   0  0  0  0  0  0  0  0  0  0  0  0
  7 15  1  0  0  0
 13 15  1  0  0  0
 14 15  2  0  0  0
 15 16  2  0  0  0
  8  7  2  0  0  0
  9  8  1  0  0  0
 10  9  2  0  0  0
 10 11  1  0  0  0
 11 12  2  0  0  0
 12  7  1  0  0  0
  1 10  1  0  0  0
  2  1  1  0  0  0
  3  2  2  0  0  0
  4  2  1  0  0  0
 19  4  1  0  0  0
 20 19  2  0  0  0
 21 20  1  0  0  0
 22 21  2  0  0  0
 22 23  1  0  0  0
 23 24  2  0  0  0
 24 19  1  0  0  0
 25 21  1  0  0  0
 25 27  1  0  0  0
 26 25  2  0  0  0
 13 17  1  0  0  0
 13 18  1  0  0  0
  1  5  1  0  0  0
  4  6  1  0  0  0
M  CHG 1  25   1
M  CHG 1  27  -1
M  END
> <minimizedAffinity>
-6.79806

$$$$
3N2P_AYX_A_263


 27 28  0  0  0  0  0  0  0  0999 V2000
   -3.3734    6.1600   11.6158 N   0  0  0  0  0  0  0  0  0  0  0  0
   -4.3841    5.3619   12.2652 C   0  0  0  0  0  0  0  0  0  0  0  0
   -5.2825    4.7448   11.7075 O   0  0  0  0  0  0  0  0  0  0  0  0
   -4.1023    5.1196   13.6455 N   0  0  0  0  0  0  0  0  0  0  0  0
   -2.5988    6.4604   12.1440 H   0  0  0  0  0  0  0  0  0  0  0  0
   -3.2961    5.5596   14.0000 H   0  0  0  0  0  0  0  0  0  0  0  0
   -3.6947    7.3311    7.6125 C   0  0  0  0  0  0  0  0  0  0  0  0
   -4.0933    8.1949    8.6238 C   0  0  0  0  0  0  0  0  0  0  0  0
   -3.9794    7.7908    9.9497 C   0  0  0  0  0  0  0  0  0  0  0  0
   -3.4493    6.5395   10.2161 C   0  0  0  0  0  0  0  0  0  0  0  0
   -3.0495    5.6716    9.2209 C   0  0  0  0  0  0  0  0  0  0  0  0
   -3.1697    6.0800    7.8929 C   0  0  0  0  0  0  0  0  0  0  0  0
   -3.5177    9.3693    5.8208 N   0  0  0  0  0  0  0  0  0  0  0  0
   -5.2396    7.5322    5.5963 O   0  0  0  0  0  0  0  0  0  0  0  0
   -3.8562    7.8097    5.9163 S   0  0  0  0  0  0  0  0  0  0  0  0
   -2.8726    7.0556    5.1352 O   0  0  0  0  0  0  0  0  0  0  0  0
   -4.1999    9.8992    6.3632 H   0  0  0  0  0  0  0  0  0  0  0  0
   -3.5543    9.6661    4.8456 H   0  0  0  0  0  0  0  0  0  0  0  0
   -4.8322    4.3265   14.5760 C   0  0  0  0  0  0  0  0  0  0  0  0
   -4.3881    3.0498   14.9053 C   0  0  0  0  0  0  0  0  0  0  0  0
   -5.1485    2.2885   15.7992 C   0  0  0  0  0  0  0  0  0  0  0  0
   -6.2914    2.8142   16.3718 C   0  0  0  0  0  0  0  0  0  0  0  0
   -6.7290    4.0898   16.0173 C   0  0  0  0  0  0  0  0  0  0  0  0
   -5.9851    4.8648   15.1242 C   0  0  0  0  0  0  0  0  0  0  0  0
   -4.7200    0.9805   16.1719 N   0  0  0  0  0  0  0  0  0  0  0  0
   -3.4446    0.7079   16.1842 O   0  0  0  0  0  0  0  0  0  0  0  0
   -5.5784    0.1048   16.5620 O   0  0  0  0  0  0  0  0  0  0  0  0
  7 15  1  0  0  0
 13 15  1  0  0  0
 14 15  2  0  0  0
 15 16  2  0  0  0
  8  7  2  0  0  0
  9  8  1  0  0  0
 10  9  2  0  0  0
 10 11  1  0  0  0
 11 12  2  0  0  0
 12  7  1  0  0  0
  1 10  1  0  0  0
  2  1  1  0  0  0
  3  2  2  0  0  0
  4  2  1  0  0  0
 19  4  1  0  0  0
 20 19  2  0  0  0
 21 20  1  0  0  0
 22 21  2  0  0  0
 22 23  1  0  0  0
 23 24  2  0  0  0
 24 19  1  0  0  0
 25 21  1  0  0  0
 25 27  1  0  0  0
 26 25  2  0  0  0
 13 17  1  0  0  0
 13 18  1  0  0  0
  1  5  1  0  0  0
  4  6  1  0  0  0
M  CHG 1  25   1
M  CHG 1  27  -1
M  END
> <minimizedAffinity>
-6.78151

$$$$
