5SZ7_72H_A_302
  RCSB PDB12061719283D
Coordinates from PDB:5SZ7:A:302 Model:1 without hydrogens
 20 22  0  0  0  0            999 V2000
    0.2020    9.5160   84.9000   C 0  0  0  0  0  0  0  0  0  0  0  0
    0.7810   10.6710   84.4600   C 0  0  0  0  0  0  0  0  0  0  0  0
    0.2360   11.9110   84.7810   C 0  0  0  0  0  0  0  0  0  0  0  0
    0.8320   13.0850   84.3380   C 0  0  0  0  0  0  0  0  0  0  0  0
    1.9680   13.0270   83.5560   C 0  0  0  0  0  0  0  0  0  0  0  0
    2.5100   11.7940   83.2260   C 0  0  0  0  0  0  0  0  0  0  0  0
    1.9200   10.6160   83.6800   C 0  0  0  0  0  0  0  0  0  0  0  0
    2.4620    9.4320   83.3520   N 0  0  0  0  0  0  0  0  0  0  0  0
    1.9060    8.2750   83.7790   C 0  0  0  0  0  0  0  0  0  0  0  0
    0.7450    8.3120   84.5440   C 0  0  0  0  0  0  0  0  0  0  0  0
    0.1210    7.0380   85.0850   C 0  0  0  0  0  0  0  0  0  0  0  0
    1.0490    5.9100   85.5370   C 0  0  0  0  0  0  0  0  0  0  0  0
    0.5410    4.8210   86.0580   C 0  0  0  0  0  0  0  0  0  0  0  0
   -0.9620    4.7120   86.2100   C 0  0  0  0  0  0  0  0  0  0  0  0
   -1.5950    3.1880   86.9510   S 0  0  0  0  0  0  0  0  0  0  0  0
   -3.0670    3.2280   86.9670   O 0  0  0  0  0  0  0  0  0  0  0  0
   -1.2180    3.2320   88.3760   O 0  0  0  0  0  0  0  0  0  0  0  0
   -0.9410    1.8170   86.1660   N 0  0  0  0  0  0  0  0  0  0  0  0
   -1.7710    5.6840   85.8390   C 0  0  0  0  0  0  0  0  0  0  0  0
   -1.1790    6.9530   85.2400   C 0  0  0  0  0  0  0  0  0  0  0  0
  1  2  2  0  0  0  0
  1 10  1  0  0  0  0
  2  3  1  0  0  0  0
  2  7  1  0  0  0  0
  3  4  2  0  0  0  0
  4  5  1  0  0  0  0
  5  6  2  0  0  0  0
  6  7  1  0  0  0  0
  7  8  2  0  0  0  0
  8  9  1  0  0  0  0
  9 10  2  0  0  0  0
 10 11  1  0  0  0  0
 11 12  2  0  0  0  0
 11 20  1  0  0  0  0
 12 13  1  0  0  0  0
 13 14  2  0  0  0  0
 14 15  1  0  0  0  0
 14 19  1  0  0  0  0
 15 16  2  0  0  0  0
 15 17  2  0  0  0  0
 15 18  1  0  0  0  0
 19 20  2  0  0  0  0
A    1
CAL
A    2
CAK
A    3
CAP
A    4
CAO
A    5
CAN
A    6
CAM
A    7
CAJ
A    8
NAI
A    9
CAH
A   10
CAG
A   11
CAE
A   12
CAD
A   13
CAC
A   14
CAB
A   15
SAQ
A   16
OAR
A   17
OAS
A   18
NAT
A   19
CAA
A   20
CAF
M  END
>  <InstanceId>
5SZ7_72H_A_302

>  <ChemCompId>
72H

>  <PdbId>
5SZ7

>  <ChainId>
A

>  <ResidueNumber>
302

>  <InsertionCode>


>  <Model>
1

>  <AltIds>


>  <MissingHeavyAtoms>
0

>  <ObservedFormula>
C15 N2 O2 S

>  <Name>
4-(3-quinolinyl)-benzenesulfonamide

>  <SystematicName>
4-quinolin-3-ylbenzenesulfonamide

>  <Synonyms>
4-(quinolin-3-yl)benzene-1-sulfonamide

>  <Type>
NON-POLYMER

>  <Formula>
C15 H12 N2 O2 S

>  <MolecularWeight>
284.333

>  <ModifiedDate>
2016-12-16

>  <Parent>


>  <OneLetterCode>


>  <SubcomponentList>


>  <AmbiguousFlag>
N

>  <InChI>
InChI=1S/C15H12N2O2S/c16-20(18,19)14-7-5-11(6-8-14)13-9-12-3-1-2-4-15(12)17-10-13/h1-10H,(H2,16,18,19)

>  <InChIKey>
HGZKFXIUXSUJHM-UHFFFAOYSA-N

>  <SMILES>
c1ccc2c(c1)cc(cn2)c3ccc(cc3)S(=O)(=O)N

$$$$
