5SZ7_72H_A_302


 22 24  0  0  0  0  0  0  0  0999 V2000
   -0.8611    7.5257   85.2667 C   0  0  0  0  0  0  0  0  0  0  0  0
    0.2910    6.5212   85.2268 C   0  0  0  0  0  0  0  0  0  0  0  0
    0.1058    5.3031   85.6710 C   0  0  0  0  0  0  0  0  0  0  0  0
   -1.2509    4.9227   86.2265 C   0  0  0  0  0  0  0  0  0  0  0  0
   -2.2467    5.7842   86.2810 C   0  0  0  0  0  0  0  0  0  0  0  0
   -2.0284    7.2026   85.7710 C   0  0  0  0  0  0  0  0  0  0  0  0
    0.6197    9.5135   85.0747 C   0  0  0  0  0  0  0  0  0  0  0  0
    0.8903   10.7726   84.6227 C   0  0  0  0  0  0  0  0  0  0  0  0
    2.1061   11.3881   84.9069 C   0  0  0  0  0  0  0  0  0  0  0  0
    2.3815   12.6667   84.4390 C   0  0  0  0  0  0  0  0  0  0  0  0
    1.4359   13.3463   83.6977 C   0  0  0  0  0  0  0  0  0  0  0  0
    0.2197   12.7411   83.4191 C   0  0  0  0  0  0  0  0  0  0  0  0
   -0.0529   11.4538   83.8776 C   0  0  0  0  0  0  0  0  0  0  0  0
   -1.2355   10.8841   83.5946 N   0  0  0  0  0  0  0  0  0  0  0  0
   -1.5239    9.6363   84.0306 C   0  0  0  0  0  0  0  0  0  0  0  0
   -0.5952    8.9467   84.8030 C   0  0  0  0  0  0  0  0  0  0  0  0
   -1.4329    3.2296   86.8370 S   0  0  0  0  0  0  0  0  0  0  0  0
   -2.8596    2.8648   86.8459 O   0  0  0  0  0  0  0  0  0  0  0  0
   -1.0602    3.2608   88.2635 O   0  0  0  0  0  0  0  0  0  0  0  0
   -0.4420    2.1565   85.9480 N   0  0  0  0  0  0  0  0  0  0  0  0
   -0.7284    2.1614   84.9690 H   0  0  0  0  0  0  0  0  0  0  0  0
   -0.5376    1.2138   86.3255 H   0  0  0  0  0  0  0  0  0  0  0  0
  7  8  2  0  0  0
  7 16  1  0  0  0
  8  9  1  0  0  0
  8 13  1  0  0  0
  9 10  2  0  0  0
 10 11  1  0  0  0
 11 12  2  0  0  0
 12 13  1  0  0  0
 13 14  2  0  0  0
 14 15  1  0  0  0
 15 16  2  0  0  0
 16  1  1  0  0  0
  1  2  2  0  0  0
  1  6  1  0  0  0
  2  3  1  0  0  0
  3  4  2  0  0  0
  4 17  1  0  0  0
  4  5  1  0  0  0
 17 18  2  0  0  0
 17 19  2  0  0  0
 17 20  1  0  0  0
  5  6  2  0  0  0
 20 21  1  0  0  0
 20 22  1  0  0  0
M  END
> <minimizedAffinity>
-8.01527

$$$$
5SZ7_72H_A_302


 22 24  0  0  0  0  0  0  0  0999 V2000
    0.0136    8.2795   84.8726 C   0  0  0  0  0  0  0  0  0  0  0  0
    1.2309    7.3556   84.9227 C   0  0  0  0  0  0  0  0  0  0  0  0
    1.0698    6.0836   85.1904 C   0  0  0  0  0  0  0  0  0  0  0  0
   -0.3266    5.5605   85.4560 C   0  0  0  0  0  0  0  0  0  0  0  0
   -1.3816    6.3501   85.4315 C   0  0  0  0  0  0  0  0  0  0  0  0
   -1.1925    7.8304   85.1273 C   0  0  0  0  0  0  0  0  0  0  0  0
    1.4732   10.2921   84.8880 C   0  0  0  0  0  0  0  0  0  0  0  0
    1.7069   11.6105   84.6231 C   0  0  0  0  0  0  0  0  0  0  0  0
    2.9403   12.1891   84.9088 C   0  0  0  0  0  0  0  0  0  0  0  0
    3.1776   13.5293   84.6309 C   0  0  0  0  0  0  0  0  0  0  0  0
    2.1771   14.3053   84.0811 C   0  0  0  0  0  0  0  0  0  0  0  0
    0.9437   13.7360   83.8027 C   0  0  0  0  0  0  0  0  0  0  0  0
    0.7085   12.3886   84.0697 C   0  0  0  0  0  0  0  0  0  0  0  0
   -0.4918   11.8554   83.7899 N   0  0  0  0  0  0  0  0  0  0  0  0
   -0.7445   10.5506   84.0422 C   0  0  0  0  0  0  0  0  0  0  0  0
    0.2416    9.7596   84.6223 C   0  0  0  0  0  0  0  0  0  0  0  0
   -0.4753    3.7979   85.8344 S   0  0  0  0  0  0  0  0  0  0  0  0
    0.6781    3.3741   86.6459 O   0  0  0  0  0  0  0  0  0  0  0  0
   -0.2987    3.0831   84.5567 O   0  0  0  0  0  0  0  0  0  0  0  0
   -1.9930    3.4579   86.5446 N   0  0  0  0  0  0  0  0  0  0  0  0
   -2.0790    3.9680   87.4237 H   0  0  0  0  0  0  0  0  0  0  0  0
   -2.0678    2.4565   86.7240 H   0  0  0  0  0  0  0  0  0  0  0  0
  7  8  2  0  0  0
  7 16  1  0  0  0
  8  9  1  0  0  0
  8 13  1  0  0  0
  9 10  2  0  0  0
 10 11  1  0  0  0
 11 12  2  0  0  0
 12 13  1  0  0  0
 13 14  2  0  0  0
 14 15  1  0  0  0
 15 16  2  0  0  0
 16  1  1  0  0  0
  1  2  2  0  0  0
  1  6  1  0  0  0
  2  3  1  0  0  0
  3  4  2  0  0  0
  4 17  1  0  0  0
  4  5  1  0  0  0
 17 18  2  0  0  0
 17 19  2  0  0  0
 17 20  1  0  0  0
  5  6  2  0  0  0
 20 21  1  0  0  0
 20 22  1  0  0  0
M  END
> <minimizedAffinity>
-7.61277

$$$$
5SZ7_72H_A_302


 22 24  0  0  0  0  0  0  0  0999 V2000
   -0.1078    7.0428   84.9984 C   0  0  0  0  0  0  0  0  0  0  0  0
   -1.6056    6.8769   85.2571 C   0  0  0  0  0  0  0  0  0  0  0  0
   -2.0413    5.8167   85.8909 C   0  0  0  0  0  0  0  0  0  0  0  0
   -1.0439    4.7708   86.3439 C   0  0  0  0  0  0  0  0  0  0  0  0
    0.2476    4.8949   86.1126 C   0  0  0  0  0  0  0  0  0  0  0  0
    0.7526    6.1245   85.3691 C   0  0  0  0  0  0  0  0  0  0  0  0
   -0.0260    9.4983   84.6175 C   0  0  0  0  0  0  0  0  0  0  0  0
    0.4236   10.5966   83.9433 C   0  0  0  0  0  0  0  0  0  0  0  0
    0.0287   11.8773   84.3194 C   0  0  0  0  0  0  0  0  0  0  0  0
    0.4940   12.9936   83.6359 C   0  0  0  0  0  0  0  0  0  0  0  0
    1.3443   12.8362   82.5600 C   0  0  0  0  0  0  0  0  0  0  0  0
    1.7338   11.5620   82.1757 C   0  0  0  0  0  0  0  0  0  0  0  0
    1.2774   10.4422   82.8682 C   0  0  0  0  0  0  0  0  0  0  0  0
    1.6687    9.2170   82.4821 N   0  0  0  0  0  0  0  0  0  0  0  0
    1.2372    8.1149   83.1373 C   0  0  0  0  0  0  0  0  0  0  0  0
    0.3575    8.2514   84.2060 C   0  0  0  0  0  0  0  0  0  0  0  0
   -1.7151    3.3251   87.1994 S   0  0  0  0  0  0  0  0  0  0  0  0
   -1.1557    3.2600   88.5601 O   0  0  0  0  0  0  0  0  0  0  0  0
   -1.1515    2.1432   86.5212 O   0  0  0  0  0  0  0  0  0  0  0  0
   -3.4241    3.3300   87.1453 N   0  0  0  0  0  0  0  0  0  0  0  0
   -3.7770    4.1595   87.6226 H   0  0  0  0  0  0  0  0  0  0  0  0
   -3.7813    2.4939   87.6076 H   0  0  0  0  0  0  0  0  0  0  0  0
  7  8  2  0  0  0
  7 16  1  0  0  0
  8  9  1  0  0  0
  8 13  1  0  0  0
  9 10  2  0  0  0
 10 11  1  0  0  0
 11 12  2  0  0  0
 12 13  1  0  0  0
 13 14  2  0  0  0
 14 15  1  0  0  0
 15 16  2  0  0  0
 16  1  1  0  0  0
  1  2  2  0  0  0
  1  6  1  0  0  0
  2  3  1  0  0  0
  3  4  2  0  0  0
  4 17  1  0  0  0
  4  5  1  0  0  0
 17 18  2  0  0  0
 17 19  2  0  0  0
 17 20  1  0  0  0
  5  6  2  0  0  0
 20 21  1  0  0  0
 20 22  1  0  0  0
M  END
> <minimizedAffinity>
-7.46084

$$$$
5SZ7_72H_A_302


 22 24  0  0  0  0  0  0  0  0999 V2000
   -0.3338    8.2254   84.2659 C   0  0  0  0  0  0  0  0  0  0  0  0
   -0.5430    9.5379   85.0217 C   0  0  0  0  0  0  0  0  0  0  0  0
   -0.4253   10.6779   84.3878 C   0  0  0  0  0  0  0  0  0  0  0  0
   -0.0717   10.6658   82.9151 C   0  0  0  0  0  0  0  0  0  0  0  0
    0.1268    9.5415   82.2566 C   0  0  0  0  0  0  0  0  0  0  0  0
   -0.0031    8.2165   82.9963 C   0  0  0  0  0  0  0  0  0  0  0  0
   -1.6356    6.4970   85.4903 C   0  0  0  0  0  0  0  0  0  0  0  0
   -1.7310    5.3058   86.1497 C   0  0  0  0  0  0  0  0  0  0  0  0
   -2.9535    4.8569   86.6412 C   0  0  0  0  0  0  0  0  0  0  0  0
   -3.0486    3.6405   87.3053 C   0  0  0  0  0  0  0  0  0  0  0  0
   -1.9184    2.8718   87.4979 C   0  0  0  0  0  0  0  0  0  0  0  0
   -0.6965    3.3185   87.0180 C   0  0  0  0  0  0  0  0  0  0  0  0
   -0.6019    4.5329   86.3409 C   0  0  0  0  0  0  0  0  0  0  0  0
    0.5901    4.9463   85.8812 N   0  0  0  0  0  0  0  0  0  0  0  0
    0.7071    6.1224   85.2229 C   0  0  0  0  0  0  0  0  0  0  0  0
   -0.4152    6.9243   85.0441 C   0  0  0  0  0  0  0  0  0  0  0  0
    0.0903   12.2752   82.1053 S   0  0  0  0  0  0  0  0  0  0  0  0
    1.3524   12.3155   81.3477 O   0  0  0  0  0  0  0  0  0  0  0  0
    0.2850   13.2636   83.1823 O   0  0  0  0  0  0  0  0  0  0  0  0
   -1.2982   12.6242   81.1704 N   0  0  0  0  0  0  0  0  0  0  0  0
   -1.4002   11.9218   80.4379 H   0  0  0  0  0  0  0  0  0  0  0  0
   -1.1993   13.5463   80.7459 H   0  0  0  0  0  0  0  0  0  0  0  0
  7  8  2  0  0  0
  7 16  1  0  0  0
  8  9  1  0  0  0
  8 13  1  0  0  0
  9 10  2  0  0  0
 10 11  1  0  0  0
 11 12  2  0  0  0
 12 13  1  0  0  0
 13 14  2  0  0  0
 14 15  1  0  0  0
 15 16  2  0  0  0
 16  1  1  0  0  0
  1  2  2  0  0  0
  1  6  1  0  0  0
  2  3  1  0  0  0
  3  4  2  0  0  0
  4 17  1  0  0  0
  4  5  1  0  0  0
 17 18  2  0  0  0
 17 19  2  0  0  0
 17 20  1  0  0  0
  5  6  2  0  0  0
 20 21  1  0  0  0
 20 22  1  0  0  0
M  END
> <minimizedAffinity>
-7.41207

$$$$
5SZ7_72H_A_302


 22 24  0  0  0  0  0  0  0  0999 V2000
   -0.5533    7.4398   85.0362 C   0  0  0  0  0  0  0  0  0  0  0  0
   -1.9515    7.0707   85.5328 C   0  0  0  0  0  0  0  0  0  0  0  0
   -2.1665    5.8843   86.0443 C   0  0  0  0  0  0  0  0  0  0  0  0
   -1.0188    4.8989   86.1207 C   0  0  0  0  0  0  0  0  0  0  0  0
    0.1868    5.1997   85.6813 C   0  0  0  0  0  0  0  0  0  0  0  0
    0.4341    6.5770   85.0799 C   0  0  0  0  0  0  0  0  0  0  0  0
   -0.9503    9.0536   83.1871 C   0  0  0  0  0  0  0  0  0  0  0  0
   -0.8182   10.2871   82.6181 C   0  0  0  0  0  0  0  0  0  0  0  0
   -1.3900   10.5682   81.3805 C   0  0  0  0  0  0  0  0  0  0  0  0
   -1.2602   11.8271   80.8075 C   0  0  0  0  0  0  0  0  0  0  0  0
   -0.5428   12.8092   81.4604 C   0  0  0  0  0  0  0  0  0  0  0  0
    0.0362   12.5317   82.6895 C   0  0  0  0  0  0  0  0  0  0  0  0
   -0.1036   11.2730   83.2709 C   0  0  0  0  0  0  0  0  0  0  0  0
    0.4621   11.0252   84.4632 N   0  0  0  0  0  0  0  0  0  0  0  0
    0.3420    9.8105   85.0465 C   0  0  0  0  0  0  0  0  0  0  0  0
   -0.3528    8.7994   84.3911 C   0  0  0  0  0  0  0  0  0  0  0  0
   -1.3889    3.2739   86.8240 S   0  0  0  0  0  0  0  0  0  0  0  0
   -2.8466    3.0644   86.8279 O   0  0  0  0  0  0  0  0  0  0  0  0
   -1.0321    3.3493   88.2529 O   0  0  0  0  0  0  0  0  0  0  0  0
   -0.5086    2.0507   86.0162 N   0  0  0  0  0  0  0  0  0  0  0  0
   -0.7811    2.0283   85.0335 H   0  0  0  0  0  0  0  0  0  0  0  0
   -0.7095    1.1474   86.4453 H   0  0  0  0  0  0  0  0  0  0  0  0
  7  8  2  0  0  0
  7 16  1  0  0  0
  8  9  1  0  0  0
  8 13  1  0  0  0
  9 10  2  0  0  0
 10 11  1  0  0  0
 11 12  2  0  0  0
 12 13  1  0  0  0
 13 14  2  0  0  0
 14 15  1  0  0  0
 15 16  2  0  0  0
 16  1  1  0  0  0
  1  2  2  0  0  0
  1  6  1  0  0  0
  2  3  1  0  0  0
  3  4  2  0  0  0
  4 17  1  0  0  0
  4  5  1  0  0  0
 17 18  2  0  0  0
 17 19  2  0  0  0
 17 20  1  0  0  0
  5  6  2  0  0  0
 20 21  1  0  0  0
 20 22  1  0  0  0
M  END
> <minimizedAffinity>
-7.35073

$$$$
5SZ7_72H_A_302


 22 24  0  0  0  0  0  0  0  0999 V2000
    0.7227    9.1189   84.7889 C   0  0  0  0  0  0  0  0  0  0  0  0
    1.7739    8.0242   84.6034 C   0  0  0  0  0  0  0  0  0  0  0  0
    1.4365    6.7678   84.7549 C   0  0  0  0  0  0  0  0  0  0  0  0
    0.0065    6.4312   85.1233 C   0  0  0  0  0  0  0  0  0  0  0  0
   -0.9046    7.3666   85.3016 C   0  0  0  0  0  0  0  0  0  0  0  0
   -0.5096    8.8277   85.1324 C   0  0  0  0  0  0  0  0  0  0  0  0
    2.4243   10.9103   85.0655 C   0  0  0  0  0  0  0  0  0  0  0  0
    2.8486   12.1992   84.9188 C   0  0  0  0  0  0  0  0  0  0  0  0
    4.1179   12.5860   85.3395 C   0  0  0  0  0  0  0  0  0  0  0  0
    4.5497   13.8969   85.1818 C   0  0  0  0  0  0  0  0  0  0  0  0
    3.7086   14.8349   84.6177 C   0  0  0  0  0  0  0  0  0  0  0  0
    2.4399   14.4568   84.2049 C   0  0  0  0  0  0  0  0  0  0  0  0
    2.0101   13.1393   84.3515 C   0  0  0  0  0  0  0  0  0  0  0  0
    0.7790   12.7925   83.9426 N   0  0  0  0  0  0  0  0  0  0  0  0
    0.3387   11.5203   84.0763 C   0  0  0  0  0  0  0  0  0  0  0  0
    1.1610   10.5675   84.6683 C   0  0  0  0  0  0  0  0  0  0  0  0
   -0.3872    4.6779   85.3322 S   0  0  0  0  0  0  0  0  0  0  0  0
   -0.3129    4.0022   84.0258 O   0  0  0  0  0  0  0  0  0  0  0  0
   -1.8163    4.6136   85.6902 O   0  0  0  0  0  0  0  0  0  0  0  0
    0.5994    3.9764   86.5397 N   0  0  0  0  0  0  0  0  0  0  0  0
    1.5778    4.0391   86.2582 H   0  0  0  0  0  0  0  0  0  0  0  0
    0.3428    2.9968   86.6616 H   0  0  0  0  0  0  0  0  0  0  0  0
  7  8  2  0  0  0
  7 16  1  0  0  0
  8  9  1  0  0  0
  8 13  1  0  0  0
  9 10  2  0  0  0
 10 11  1  0  0  0
 11 12  2  0  0  0
 12 13  1  0  0  0
 13 14  2  0  0  0
 14 15  1  0  0  0
 15 16  2  0  0  0
 16  1  1  0  0  0
  1  2  2  0  0  0
  1  6  1  0  0  0
  2  3  1  0  0  0
  3  4  2  0  0  0
  4 17  1  0  0  0
  4  5  1  0  0  0
 17 18  2  0  0  0
 17 19  2  0  0  0
 17 20  1  0  0  0
  5  6  2  0  0  0
 20 21  1  0  0  0
 20 22  1  0  0  0
M  END
> <minimizedAffinity>
-7.17314

$$$$
5SZ7_72H_A_302


 22 24  0  0  0  0  0  0  0  0999 V2000
    0.9882    7.9391   84.4359 C   0  0  0  0  0  0  0  0  0  0  0  0
    0.8707    9.4469   84.6611 C   0  0  0  0  0  0  0  0  0  0  0  0
    1.8001   10.2464   84.2002 C   0  0  0  0  0  0  0  0  0  0  0  0
    2.9802    9.6508   83.4608 C   0  0  0  0  0  0  0  0  0  0  0  0
    3.1007    8.3517   83.2745 C   0  0  0  0  0  0  0  0  0  0  0  0
    2.0232    7.4221   83.8172 C   0  0  0  0  0  0  0  0  0  0  0  0
    0.2873    5.7860   85.4626 C   0  0  0  0  0  0  0  0  0  0  0  0
   -0.6454    4.9804   86.0490 C   0  0  0  0  0  0  0  0  0  0  0  0
   -0.3174    3.6935   86.4661 C   0  0  0  0  0  0  0  0  0  0  0  0
   -1.2670    2.8787   87.0695 C   0  0  0  0  0  0  0  0  0  0  0  0
   -2.5566    3.3388   87.2447 C   0  0  0  0  0  0  0  0  0  0  0  0
   -2.8909    4.6169   86.8230 C   0  0  0  0  0  0  0  0  0  0  0  0
   -1.9360    5.4396   86.2286 C   0  0  0  0  0  0  0  0  0  0  0  0
   -2.2789    6.6752   85.8299 N   0  0  0  0  0  0  0  0  0  0  0  0
   -1.3700    7.4913   85.2486 C   0  0  0  0  0  0  0  0  0  0  0  0
   -0.0730    7.0353   85.0376 C   0  0  0  0  0  0  0  0  0  0  0  0
    4.2343   10.8103   82.8648 S   0  0  0  0  0  0  0  0  0  0  0  0
    5.2351   10.0799   82.0688 O   0  0  0  0  0  0  0  0  0  0  0  0
    4.9801   11.2621   84.0541 O   0  0  0  0  0  0  0  0  0  0  0  0
    3.5049   12.1191   82.0410 N   0  0  0  0  0  0  0  0  0  0  0  0
    2.9997   11.7692   81.2268 H   0  0  0  0  0  0  0  0  0  0  0  0
    4.2256   12.7743   81.7382 H   0  0  0  0  0  0  0  0  0  0  0  0
  7  8  2  0  0  0
  7 16  1  0  0  0
  8  9  1  0  0  0
  8 13  1  0  0  0
  9 10  2  0  0  0
 10 11  1  0  0  0
 11 12  2  0  0  0
 12 13  1  0  0  0
 13 14  2  0  0  0
 14 15  1  0  0  0
 15 16  2  0  0  0
 16  1  1  0  0  0
  1  2  2  0  0  0
  1  6  1  0  0  0
  2  3  1  0  0  0
  3  4  2  0  0  0
  4 17  1  0  0  0
  4  5  1  0  0  0
 17 18  2  0  0  0
 17 19  2  0  0  0
 17 20  1  0  0  0
  5  6  2  0  0  0
 20 21  1  0  0  0
 20 22  1  0  0  0
M  END
> <minimizedAffinity>
-6.89691

$$$$
5SZ7_72H_A_302


 22 24  0  0  0  0  0  0  0  0999 V2000
   -0.2714    6.9995   84.9100 C   0  0  0  0  0  0  0  0  0  0  0  0
   -1.7514    6.8609   85.2681 C   0  0  0  0  0  0  0  0  0  0  0  0
   -2.1549    5.8345   85.9746 C   0  0  0  0  0  0  0  0  0  0  0  0
   -1.1392    4.7994   86.4116 C   0  0  0  0  0  0  0  0  0  0  0  0
    0.1363    4.8996   86.0954 C   0  0  0  0  0  0  0  0  0  0  0  0
    0.6034    6.0896   85.2676 C   0  0  0  0  0  0  0  0  0  0  0  0
    1.4872    8.4282   83.8864 C   0  0  0  0  0  0  0  0  0  0  0  0
    1.8850    9.4445   83.0668 C   0  0  0  0  0  0  0  0  0  0  0  0
    3.2336    9.7539   82.9150 C   0  0  0  0  0  0  0  0  0  0  0  0
    3.6358   10.7839   82.0741 C   0  0  0  0  0  0  0  0  0  0  0  0
    2.6908   11.5235   81.3919 C   0  0  0  0  0  0  0  0  0  0  0  0
    1.3454   11.2250   81.5463 C   0  0  0  0  0  0  0  0  0  0  0  0
    0.9415   10.1841   82.3801 C   0  0  0  0  0  0  0  0  0  0  0  0
   -0.3660    9.9089   82.5138 N   0  0  0  0  0  0  0  0  0  0  0  0
   -0.7825    8.9048   83.3191 C   0  0  0  0  0  0  0  0  0  0  0  0
    0.1529    8.1669   84.0367 C   0  0  0  0  0  0  0  0  0  0  0  0
   -1.7669    3.4002   87.3711 S   0  0  0  0  0  0  0  0  0  0  0  0
   -1.2209    2.1477   86.8217 O   0  0  0  0  0  0  0  0  0  0  0  0
   -3.2118    3.3180   87.0879 O   0  0  0  0  0  0  0  0  0  0  0  0
   -1.4611    3.6246   89.0383 N   0  0  0  0  0  0  0  0  0  0  0  0
   -0.4546    3.6767   89.1954 H   0  0  0  0  0  0  0  0  0  0  0  0
   -1.8470    2.8399   89.5634 H   0  0  0  0  0  0  0  0  0  0  0  0
  7  8  2  0  0  0
  7 16  1  0  0  0
  8  9  1  0  0  0
  8 13  1  0  0  0
  9 10  2  0  0  0
 10 11  1  0  0  0
 11 12  2  0  0  0
 12 13  1  0  0  0
 13 14  2  0  0  0
 14 15  1  0  0  0
 15 16  2  0  0  0
 16  1  1  0  0  0
  1  2  2  0  0  0
  1  6  1  0  0  0
  2  3  1  0  0  0
  3  4  2  0  0  0
  4 17  1  0  0  0
  4  5  1  0  0  0
 17 18  2  0  0  0
 17 19  2  0  0  0
 17 20  1  0  0  0
  5  6  2  0  0  0
 20 21  1  0  0  0
 20 22  1  0  0  0
M  END
> <minimizedAffinity>
-6.73227

$$$$
5SZ7_72H_A_302


 22 24  0  0  0  0  0  0  0  0999 V2000
    0.9787   11.6400   84.5725 C   0  0  0  0  0  0  0  0  0  0  0  0
    2.4591   11.6213   84.9546 C   0  0  0  0  0  0  0  0  0  0  0  0
    3.1858   12.6982   84.7889 C   0  0  0  0  0  0  0  0  0  0  0  0
    2.5385   13.9386   84.2089 C   0  0  0  0  0  0  0  0  0  0  0  0
    1.2676   13.9620   83.8608 C   0  0  0  0  0  0  0  0  0  0  0  0
    0.4250   12.7070   84.0470 C   0  0  0  0  0  0  0  0  0  0  0  0
    0.8507    9.1668   84.7923 C   0  0  0  0  0  0  0  0  0  0  0  0
    0.1489    8.0099   84.9709 C   0  0  0  0  0  0  0  0  0  0  0  0
    0.7992    6.7802   85.0220 C   0  0  0  0  0  0  0  0  0  0  0  0
    0.0829    5.6052   85.2115 C   0  0  0  0  0  0  0  0  0  0  0  0
   -1.2913    5.6496   85.3340 C   0  0  0  0  0  0  0  0  0  0  0  0
   -1.9450    6.8712   85.2749 C   0  0  0  0  0  0  0  0  0  0  0  0
   -1.2263    8.0518   85.0972 C   0  0  0  0  0  0  0  0  0  0  0  0
   -1.8776    9.2249   85.0458 N   0  0  0  0  0  0  0  0  0  0  0  0
   -1.2019   10.3839   84.8717 C   0  0  0  0  0  0  0  0  0  0  0  0
    0.1802   10.3568   84.7178 C   0  0  0  0  0  0  0  0  0  0  0  0
    3.6032   15.3849   83.9926 S   0  0  0  0  0  0  0  0  0  0  0  0
    3.0363   16.2566   82.9498 O   0  0  0  0  0  0  0  0  0  0  0  0
    4.8610   14.8895   83.4034 O   0  0  0  0  0  0  0  0  0  0  0  0
    3.8713   16.1676   85.4890 N   0  0  0  0  0  0  0  0  0  0  0  0
    2.9818   16.4957   85.8652 H   0  0  0  0  0  0  0  0  0  0  0  0
    4.4955   16.9622   85.3501 H   0  0  0  0  0  0  0  0  0  0  0  0
  7  8  2  0  0  0
  7 16  1  0  0  0
  8  9  1  0  0  0
  8 13  1  0  0  0
  9 10  2  0  0  0
 10 11  1  0  0  0
 11 12  2  0  0  0
 12 13  1  0  0  0
 13 14  2  0  0  0
 14 15  1  0  0  0
 15 16  2  0  0  0
 16  1  1  0  0  0
  1  2  2  0  0  0
  1  6  1  0  0  0
  2  3  1  0  0  0
  3  4  2  0  0  0
  4 17  1  0  0  0
  4  5  1  0  0  0
 17 18  2  0  0  0
 17 19  2  0  0  0
 17 20  1  0  0  0
  5  6  2  0  0  0
 20 21  1  0  0  0
 20 22  1  0  0  0
M  END
> <minimizedAffinity>
-6.67192

$$$$
5SZ7_72H_A_302


 22 24  0  0  0  0  0  0  0  0999 V2000
   -0.4382    6.9044   84.8016 C   0  0  0  0  0  0  0  0  0  0  0  0
   -1.8733    6.8599   85.3272 C   0  0  0  0  0  0  0  0  0  0  0  0
   -2.2447    5.8848   86.1189 C   0  0  0  0  0  0  0  0  0  0  0  0
   -1.2386    4.8139   86.4862 C   0  0  0  0  0  0  0  0  0  0  0  0
   -0.0036    4.8326   86.0266 C   0  0  0  0  0  0  0  0  0  0  0  0
    0.4254    5.9629   85.1002 C   0  0  0  0  0  0  0  0  0  0  0  0
   -0.3189    7.8455   82.5034 C   0  0  0  0  0  0  0  0  0  0  0  0
   -0.0263    8.8524   81.6298 C   0  0  0  0  0  0  0  0  0  0  0  0
   -0.2532    8.7026   80.2646 C   0  0  0  0  0  0  0  0  0  0  0  0
    0.0385    9.7321   79.3788 C   0  0  0  0  0  0  0  0  0  0  0  0
    0.5756   10.9132   79.8499 C   0  0  0  0  0  0  0  0  0  0  0  0
    0.8118   11.0644   81.2079 C   0  0  0  0  0  0  0  0  0  0  0  0
    0.5082   10.0369   82.0989 C   0  0  0  0  0  0  0  0  0  0  0  0
    0.7416   10.2042   83.4107 N   0  0  0  0  0  0  0  0  0  0  0  0
    0.4571    9.2203   84.2946 C   0  0  0  0  0  0  0  0  0  0  0  0
   -0.0580    8.0125   83.8358 C   0  0  0  0  0  0  0  0  0  0  0  0
   -1.8224    3.4887   87.5704 S   0  0  0  0  0  0  0  0  0  0  0  0
   -1.1662    2.2253   87.1936 O   0  0  0  0  0  0  0  0  0  0  0  0
   -3.2415    3.2719   87.2333 O   0  0  0  0  0  0  0  0  0  0  0  0
   -1.6212    3.9186   89.2130 N   0  0  0  0  0  0  0  0  0  0  0  0
   -0.6302    4.0600   89.4085 H   0  0  0  0  0  0  0  0  0  0  0  0
   -1.9817    3.1716   89.8066 H   0  0  0  0  0  0  0  0  0  0  0  0
  7  8  2  0  0  0
  7 16  1  0  0  0
  8  9  1  0  0  0
  8 13  1  0  0  0
  9 10  2  0  0  0
 10 11  1  0  0  0
 11 12  2  0  0  0
 12 13  1  0  0  0
 13 14  2  0  0  0
 14 15  1  0  0  0
 15 16  2  0  0  0
 16  1  1  0  0  0
  1  2  2  0  0  0
  1  6  1  0  0  0
  2  3  1  0  0  0
  3  4  2  0  0  0
  4 17  1  0  0  0
  4  5  1  0  0  0
 17 18  2  0  0  0
 17 19  2  0  0  0
 17 20  1  0  0  0
  5  6  2  0  0  0
 20 21  1  0  0  0
 20 22  1  0  0  0
M  END
> <minimizedAffinity>
-6.66629

$$$$
