4DBM_0J0_A_302
  RCSB PDB12061712113D
Coordinates from PDB:4DBM:A:302 Model:1 without hydrogens
 29 33  0  0  0  0            999 V2000
  -25.2160   22.1490   -9.3570   C 0  0  0  0  0  0  0  0  0  0  0  0
  -25.4770   22.4260   -6.8170   C 0  0  0  0  0  0  0  0  0  0  0  0
  -25.9870   24.7180   -5.8880   C 0  0  0  0  0  0  0  0  0  0  0  0
  -26.6730   22.8920   -4.6530   C 0  0  0  0  0  0  0  0  0  0  0  0
  -26.4060   21.8900   -5.7140   C 0  0  0  0  0  0  0  0  0  0  0  0
  -27.5150   25.0130   -4.1410   C 0  0  0  0  0  0  0  0  0  0  0  0
  -21.8110   24.6070  -13.0760   C 0  0  0  0  0  0  0  0  0  0  0  0
  -21.6390   25.7430  -13.4920   O 0  0  0  0  0  0  0  0  0  0  0  0
  -20.6640   23.7910  -12.7260   N 0  0  0  0  0  0  0  0  0  0  0  0
  -19.3580   24.3280  -12.8780   C 0  0  0  0  0  0  0  0  0  0  0  0
  -23.2130   24.0450  -12.9240   C 0  0  0  0  0  0  0  0  0  0  0  0
  -23.4360   22.6870  -12.4240   C 0  0  0  0  0  0  0  0  0  0  0  0
  -22.2450   21.8520  -12.0680   C 0  0  0  0  0  0  0  0  0  0  0  0
  -22.3810   20.4330  -11.5460   C 0  0  0  0  0  0  0  0  0  0  0  0
  -21.1740   19.6180  -11.1940   C 0  0  0  0  0  0  0  0  0  0  0  0
  -19.8030   20.1840  -11.3530   C 0  0  0  0  0  0  0  0  0  0  0  0
  -19.6680   21.6170  -11.8740   C 0  0  0  0  0  0  0  0  0  0  0  0
  -20.8640   22.4270  -12.2260   C 0  0  0  0  0  0  0  0  0  0  0  0
  -24.7740   22.2750  -12.3150   O 0  0  0  0  0  0  0  0  0  0  0  0
  -25.2380   21.0230  -11.8350   C 0  0  0  0  0  0  0  0  0  0  0  0
  -25.4630   21.0270  -10.3240   C 0  0  0  0  0  0  0  0  0  0  0  0
  -25.9450   19.9420   -9.5310   N 0  0  0  0  0  0  0  0  0  0  0  0
  -26.0040   20.3620   -8.2070   N 0  0  0  0  0  0  0  0  0  0  0  0
  -25.5940   21.6070   -8.0490   N 0  0  0  0  0  0  0  0  0  0  0  0
  -25.4610   23.3810   -4.0960   C 0  0  0  0  0  0  0  0  0  0  0  0
  -24.9980   24.4210   -4.8840   C 0  0  0  0  0  0  0  0  0  0  0  0
  -27.0500   24.1220   -5.2050   N 0  3  0  0  0  0  0  0  0  0  0  0
  -28.2540   24.0040   -6.0230   C 0  0  0  0  0  0  0  0  0  0  0  0
  -25.6410   23.9730   -7.1010   C 0  0  0  0  0  0  0  0  0  0  0  0
  1 21  2  0  0  0  0
  1 24  1  0  0  0  0
  2  5  1  0  0  0  0
  2 24  1  0  0  0  0
  2 29  1  0  0  0  0
  3 26  1  0  0  0  0
  3 27  1  0  0  0  0
  3 29  1  0  0  0  0
  4  5  1  0  0  0  0
  4 25  1  0  0  0  0
  4 27  1  0  0  0  0
  6 27  1  0  0  0  0
  7  8  2  0  0  0  0
  7  9  1  0  0  0  0
  7 11  1  0  0  0  0
  9 10  1  0  0  0  0
  9 18  1  0  0  0  0
 11 12  2  0  0  0  0
 12 13  1  0  0  0  0
 12 19  1  0  0  0  0
 13 14  2  0  0  0  0
 13 18  1  0  0  0  0
 14 15  1  0  0  0  0
 15 16  2  0  0  0  0
 16 17  1  0  0  0  0
 17 18  2  0  0  0  0
 19 20  1  0  0  0  0
 20 21  1  0  0  0  0
 21 22  1  0  0  0  0
 22 23  2  0  0  0  0
 23 24  1  0  0  0  0
 25 26  1  0  0  0  0
 27 28  1  0  0  0  0
M  CHG  1  27   1
A    1
C13
A    2
C15
A    3
C17
A    4
C20
A    5
C21
A    6
C24
A    7
C28
A    8
O29
A    9
N02
A   10
C01
A   11
C27
A   12
C09
A   13
C08
A   14
C07
A   15
C06
A   16
C05
A   17
C04
A   18
C03
A   19
O10
A   20
C11
A   21
C12
A   22
N26
A   23
N25
A   24
N14
A   25
C19
A   26
C18
A   27
N22
A   28
C23
A   29
C16
M  END
>  <InstanceId>
4DBM_0J0_A_302

>  <ChemCompId>
0J0

>  <PdbId>
4DBM

>  <ChainId>
A

>  <ResidueNumber>
302

>  <InsertionCode>


>  <Model>
1

>  <AltIds>


>  <MissingHeavyAtoms>
0

>  <ObservedFormula>
C22 N5 O2

>  <Name>
(3-exo)-8,8-dimethyl-3-(4-{[(1-methyl-2-oxo-1,2-dihydroquinolin-4-yl)oxy]methyl}-1H-1,2,3-triazol-1-yl)-8-azoniabicyclo[3.2.1]octane

>  <SystematicName>
4-[[1-[(1R,5S)-8,8-dimethyl-8-azoniabicyclo[3.2.1]octan-3-yl]-1,2,3-triazol-4-yl]methoxy]-1-methyl-quinolin-2-one

>  <Synonyms>


>  <Type>
NON-POLYMER

>  <Formula>
C22 H28 N5 O2

>  <MolecularWeight>
394.49

>  <ModifiedDate>
2012-03-16

>  <Parent>


>  <OneLetterCode>


>  <SubcomponentList>


>  <AmbiguousFlag>
N

>  <InChI>
InChI=1S/C22H28N5O2/c1-25-20-7-5-4-6-19(20)21(12-22(25)28)29-14-15-13-26(24-23-15)16-10-17-8-9-18(11-16)27(17,2)3/h4-7,12-13,16-18H,8-11,14H2,1-3H3/q+1/t16-,17-,18+

>  <InChIKey>
YGBMUEMPFNRGJC-NNZMDNLPSA-N

>  <SMILES>
CN1c2ccccc2C(=CC1=O)OCc3cn(nn3)C4C[C@H]5CC[C@@H](C4)[N+]5(C)C

$$$$
