1O33_801_A_246
  RCSB PDB12061703303D
Coordinates from PDB:1O33:A:246 Model:1 without hydrogens
 19 21  0  0  0  0            999 V2000
   44.0750   -3.0370   26.3070   C 0  0  0  0  0  0  0  0  0  0  0  0
   44.5310   -1.7030   26.3610   C 0  0  0  0  0  0  0  0  0  0  0  0
   44.4530   -0.9550   27.5220   C 0  0  0  0  0  0  0  0  0  0  0  0
   43.9220   -1.5510   28.6160   C 0  0  0  0  0  0  0  0  0  0  0  0
   43.4640   -2.8170   28.6130   C 0  0  0  0  0  0  0  0  0  0  0  0
   43.5210   -3.6060   27.4640   C 0  0  0  0  0  0  0  0  0  0  0  0
   44.1930   -3.7660   25.1090   C 0  0  0  0  0  0  0  0  0  0  0  0
   43.9180   -5.0580   25.1100   N 0  0  0  0  0  0  0  0  0  0  0  0
   44.5810   -3.1240   24.0140   N 0  3  0  0  0  0  0  0  0  0  0  0
   43.7360   -1.1060   29.8050   N 0  0  0  0  0  0  0  0  0  0  0  0
   42.9940   -3.1730   29.7830   N 0  0  0  0  0  0  0  0  0  0  0  0
   43.2020   -2.0660   30.4840   C 0  0  0  0  0  0  0  0  0  0  0  0
   42.9290   -1.9290   31.8370   C 0  0  0  0  0  0  0  0  0  0  0  0
   42.6890   -3.0300   32.5210   N 0  0  0  0  0  0  0  0  0  0  0  0
   42.4260   -3.0450   33.8060   C 0  0  0  0  0  0  0  0  0  0  0  0
   42.3880   -1.8530   34.5100   C 0  0  0  0  0  0  0  0  0  0  0  0
   42.6370   -0.6510   33.8370   C 0  0  0  0  0  0  0  0  0  0  0  0
   42.9150   -0.6710   32.4720   C 0  0  0  0  0  0  0  0  0  0  0  0
   43.1600    0.5190   31.7860   O 0  5  0  0  0  0  0  0  0  0  0  0
  1  2  2  0  0  0  0
  1  6  1  0  0  0  0
  1  7  1  0  0  0  0
  2  3  1  0  0  0  0
  3  4  2  0  0  0  0
  4  5  1  0  0  0  0
  4 10  1  0  0  0  0
  5  6  2  0  0  0  0
  5 11  1  0  0  0  0
  7  8  1  0  0  0  0
  7  9  2  0  0  0  0
 10 12  1  0  0  0  0
 11 12  2  0  0  0  0
 12 13  1  0  0  0  0
 13 14  2  0  0  0  0
 13 18  1  0  0  0  0
 14 15  1  0  0  0  0
 15 16  2  0  0  0  0
 16 17  1  0  0  0  0
 17 18  2  0  0  0  0
 18 19  1  0  0  0  0
M  CHG  2   9   1  19  -1
A    1
C1
A    2
C2
A    3
C3
A    4
C4
A    5
C5
A    6
C6
A    7
C7
A    8
N1
A    9
N2
A   10
N3
A   11
N4
A   12
C8
A   13
C1'
A   14
N2'
A   15
C3'
A   16
C4'
A   17
C5'
A   18
C6'
A   19
O6'
M  END
>  <InstanceId>
1O33_801_A_246

>  <ChemCompId>
801

>  <PdbId>
1O33

>  <ChainId>
A

>  <ResidueNumber>
246

>  <InsertionCode>


>  <Model>
1

>  <AltIds>


>  <MissingHeavyAtoms>
0

>  <ObservedFormula>
C13 N5 O

>  <Name>
2-{5-[AMINO(IMINIO)METHYL]-1H-BENZIMIDAZOL-2-YL}PYRIDIN-3-OLATE

>  <SystematicName>
2-[5-(amino-azaniumylidene-methyl)-1H-benzimidazol-2-yl]pyridin-3-olate

>  <Synonyms>
CRA_1801

>  <Type>
NON-POLYMER

>  <Formula>
C13 H11 N5 O

>  <MolecularWeight>
253.259

>  <ModifiedDate>
2011-06-04

>  <Parent>


>  <OneLetterCode>


>  <SubcomponentList>


>  <AmbiguousFlag>
N

>  <InChI>
InChI=1S/C13H11N5O/c14-12(15)7-3-4-8-9(6-7)18-13(17-8)11-10(19)2-1-5-16-11/h1-6,19H,(H3,14,15)(H,17,18)

>  <InChIKey>
FQCDQFDJHSXQKY-UHFFFAOYSA-N

>  <SMILES>
c1cc(c(nc1)c2[nH]c3ccc(cc3n2)C(=[NH2+])N)[O-]

$$$$
