4B74_1LH_A_1721


 34 35  0  0  0  0  0  0  0  0999 V2000
    0.3892   14.2969  -41.5541 C   0  0  0  0  0  0  0  0  0  0  0  0
    1.6156   15.0517  -41.0596 C   0  0  0  0  0  0  0  0  0  0  0  0
    1.5466   16.4075  -40.7558 C   0  0  0  0  0  0  0  0  0  0  0  0
    2.6717   17.0771  -40.3074 C   0  0  0  0  0  0  0  0  0  0  0  0
    3.8768   16.4077  -40.1546 C   0  0  0  0  0  0  0  0  0  0  0  0
    5.2405   17.3130  -39.5885 Cl  0  0  0  0  0  0  0  0  0  0  0  0
    3.9937   15.0515  -40.4460 C   0  0  0  0  0  0  0  0  0  0  0  0
    2.8578   14.4007  -40.8936 C   0  0  0  0  0  0  0  0  0  0  0  0
    2.9357   13.0914  -41.1830 F   0  0  0  0  0  0  0  0  0  0  0  0
    5.1719   14.3183  -40.3159 O   0  0  0  0  0  0  0  0  0  0  0  0
    5.8238   14.2423  -39.1016 C   0  0  0  0  0  0  0  0  0  0  0  0
    5.2342   14.2114  -37.8486 C   0  0  0  0  0  0  0  0  0  0  0  0
    6.0284   14.1335  -36.7174 C   0  0  0  0  0  0  0  0  0  0  0  0
    7.3986   14.0862  -36.8377 C   0  0  0  0  0  0  0  0  0  0  0  0
    7.9855   14.1163  -38.0836 C   0  0  0  0  0  0  0  0  0  0  0  0
    7.1998   14.1938  -39.2181 C   0  0  0  0  0  0  0  0  0  0  0  0
    0.0573   13.1368  -40.6405 N   0  0  0  0  0  0  0  0  0  0  0  0
   -0.0419   13.5158  -39.6987 H   0  0  0  0  0  0  0  0  0  0  0  0
    0.8245   12.4807  -40.7866 H   0  0  0  0  0  0  0  0  0  0  0  0
   -1.1792   12.3202  -40.9222 C   0  0  0  0  0  0  0  0  0  0  0  0
   -1.0497   10.9450  -40.2839 C   0  0  0  0  0  0  0  0  0  0  0  0
   -2.4356   13.0611  -40.4548 C   0  0  0  0  0  0  0  0  0  0  0  0
   -2.2620   13.8886  -39.2032 C   0  0  0  0  0  0  0  0  0  0  0  0
   -1.9781   15.0834  -39.2492 O   0  0  0  0  0  0  0  0  0  0  0  0
   -2.4398   13.2290  -38.0604 N   0  0  0  0  0  0  0  0  0  0  0  0
   -2.7265   12.2877  -38.0914 H   0  0  0  0  0  0  0  0  0  0  0  0
   -2.2231   13.8579  -36.7698 C   0  0  0  0  0  0  0  0  0  0  0  0
   -3.5212   14.2855  -36.1214 C   0  0  0  0  0  0  0  0  0  0  0  0
   -3.5882   15.7613  -35.9977 N   0  0  0  0  0  0  0  0  0  0  0  0
   -2.8173   16.0891  -35.4158 H   0  0  0  0  0  0  0  0  0  0  0  0
   -4.4748   16.0266  -35.5686 H   0  0  0  0  0  0  0  0  0  0  0  0
   -3.5188   16.1835  -36.9236 H   0  0  0  0  0  0  0  0  0  0  0  0
    0.5919   14.8577  -44.0193 C   0  0  0  0  0  0  0  0  0  0  0  0
    0.5492   13.7706  -42.9709 C   0  0  0  0  0  0  0  0  0  0  0  0
 33 34  1  0  0  0
 34  1  1  0  0  0
  1 17  1  0  0  0
  1  2  1  0  0  0
 17 20  1  0  0  0
 20 21  1  0  0  0
 20 22  1  0  0  0
 22 23  1  0  0  0
 23 24  2  0  0  0
 23 25  1  0  0  0
 25 27  1  0  0  0
 27 28  1  0  0  0
 28 29  1  0  0  0
  2  3  2  0  0  0
  2  8  1  0  0  0
  3  4  1  0  0  0
  4  5  2  0  0  0
  5  6  1  0  0  0
  5  7  1  0  0  0
  7 10  1  0  0  0
  7  8  2  0  0  0
 10 11  1  0  0  0
 11 12  2  0  0  0
 11 16  1  0  0  0
 12 13  1  0  0  0
 13 14  2  0  0  0
 14 15  1  0  0  0
 15 16  2  0  0  0
  8  9  1  0  0  0
 17 18  1  0  0  0
 17 19  1  0  0  0
 25 26  1  0  0  0
 29 30  1  0  0  0
 29 31  1  0  0  0
 29 32  1  0  0  0
M  CHG 1  17   1
M  CHG 1  29   1
M  END
> <minimizedAffinity>
-8.77094

$$$$
4B74_1LH_A_1721


 34 35  0  0  0  0  0  0  0  0999 V2000
    0.6855   13.9012  -41.2032 C   0  0  0  0  0  0  0  0  0  0  0  0
    1.8377   14.8171  -40.8136 C   0  0  0  0  0  0  0  0  0  0  0  0
    1.6262   16.1716  -40.5777 C   0  0  0  0  0  0  0  0  0  0  0  0
    2.6856   16.9889  -40.2242 C   0  0  0  0  0  0  0  0  0  0  0  0
    3.9659   16.4700  -40.1000 C   0  0  0  0  0  0  0  0  0  0  0  0
    5.2402   17.5549  -39.6540 Cl  0  0  0  0  0  0  0  0  0  0  0  0
    4.2255   15.1212  -40.3260 C   0  0  0  0  0  0  0  0  0  0  0  0
    3.1532   14.3214  -40.6791 C   0  0  0  0  0  0  0  0  0  0  0  0
    3.3688   13.0147  -40.9034 F   0  0  0  0  0  0  0  0  0  0  0  0
    5.4854   14.5347  -40.2196 O   0  0  0  0  0  0  0  0  0  0  0  0
    6.1143   14.4336  -38.9951 C   0  0  0  0  0  0  0  0  0  0  0  0
    5.5127   14.1567  -37.7785 C   0  0  0  0  0  0  0  0  0  0  0  0
    6.2837   14.0880  -36.6307 C   0  0  0  0  0  0  0  0  0  0  0  0
    7.6428   14.2934  -36.6987 C   0  0  0  0  0  0  0  0  0  0  0  0
    8.2417   14.5683  -37.9084 C   0  0  0  0  0  0  0  0  0  0  0  0
    7.4792   14.6384  -39.0591 C   0  0  0  0  0  0  0  0  0  0  0  0
    0.6145   13.7219  -42.7044 N   0  0  0  0  0  0  0  0  0  0  0  0
    1.4075   14.2237  -43.1041 H   0  0  0  0  0  0  0  0  0  0  0  0
   -0.3124   14.0692  -42.9506 H   0  0  0  0  0  0  0  0  0  0  0  0
    0.6427   12.3246  -43.2719 C   0  0  0  0  0  0  0  0  0  0  0  0
    0.4830   11.3064  -42.1524 C   0  0  0  0  0  0  0  0  0  0  0  0
   -0.4211   12.1610  -44.3615 C   0  0  0  0  0  0  0  0  0  0  0  0
   -0.2280   13.0320  -45.5802 C   0  0  0  0  0  0  0  0  0  0  0  0
    0.8845   13.4162  -45.9338 O   0  0  0  0  0  0  0  0  0  0  0  0
   -1.3449   13.3458  -46.2334 N   0  0  0  0  0  0  0  0  0  0  0  0
   -2.1985   12.9560  -45.9355 H   0  0  0  0  0  0  0  0  0  0  0  0
   -1.3405   14.2462  -47.3724 C   0  0  0  0  0  0  0  0  0  0  0  0
   -1.5401   15.6872  -46.9580 C   0  0  0  0  0  0  0  0  0  0  0  0
   -0.2381   16.3469  -46.6985 N   0  0  0  0  0  0  0  0  0  0  0  0
    0.2445   15.8610  -45.9426 H   0  0  0  0  0  0  0  0  0  0  0  0
   -0.3965   17.3186  -46.4316 H   0  0  0  0  0  0  0  0  0  0  0  0
    0.3334   16.3150  -47.5427 H   0  0  0  0  0  0  0  0  0  0  0  0
   -1.0780   13.8075  -39.3827 C   0  0  0  0  0  0  0  0  0  0  0  0
   -0.6618   14.4011  -40.7084 C   0  0  0  0  0  0  0  0  0  0  0  0
 33 34  1  0  0  0
 34  1  1  0  0  0
  1 17  1  0  0  0
  1  2  1  0  0  0
 17 20  1  0  0  0
 20 21  1  0  0  0
 20 22  1  0  0  0
 22 23  1  0  0  0
 23 24  2  0  0  0
 23 25  1  0  0  0
 25 27  1  0  0  0
 27 28  1  0  0  0
 28 29  1  0  0  0
  2  3  2  0  0  0
  2  8  1  0  0  0
  3  4  1  0  0  0
  4  5  2  0  0  0
  5  6  1  0  0  0
  5  7  1  0  0  0
  7 10  1  0  0  0
  7  8  2  0  0  0
 10 11  1  0  0  0
 11 12  2  0  0  0
 11 16  1  0  0  0
 12 13  1  0  0  0
 13 14  2  0  0  0
 14 15  1  0  0  0
 15 16  2  0  0  0
  8  9  1  0  0  0
 17 18  1  0  0  0
 17 19  1  0  0  0
 25 26  1  0  0  0
 29 30  1  0  0  0
 29 31  1  0  0  0
 29 32  1  0  0  0
M  CHG 1  17   1
M  CHG 1  29   1
M  END
> <minimizedAffinity>
-8.17537

$$$$
4B74_1LH_A_1721


 34 35  0  0  0  0  0  0  0  0999 V2000
    0.4433   14.1563  -41.2672 C   0  0  0  0  0  0  0  0  0  0  0  0
    1.6667   14.9663  -40.8607 C   0  0  0  0  0  0  0  0  0  0  0  0
    1.5676   16.3290  -40.5991 C   0  0  0  0  0  0  0  0  0  0  0  0
    2.6905   17.0491  -40.2305 C   0  0  0  0  0  0  0  0  0  0  0  0
    3.9233   16.4239  -40.1165 C   0  0  0  0  0  0  0  0  0  0  0  0
    5.2823   17.3912  -39.6505 Cl  0  0  0  0  0  0  0  0  0  0  0  0
    4.0709   15.0628  -40.3681 C   0  0  0  0  0  0  0  0  0  0  0  0
    2.9366   14.3612  -40.7359 C   0  0  0  0  0  0  0  0  0  0  0  0
    3.0438   13.0456  -40.9851 F   0  0  0  0  0  0  0  0  0  0  0  0
    5.2778   14.3723  -40.2732 O   0  0  0  0  0  0  0  0  0  0  0  0
    5.9474   14.2860  -39.0693 C   0  0  0  0  0  0  0  0  0  0  0  0
    5.3758   14.2370  -37.8086 C   0  0  0  0  0  0  0  0  0  0  0  0
    6.1863   14.1506  -36.6896 C   0  0  0  0  0  0  0  0  0  0  0  0
    7.5549   14.1130  -36.8298 C   0  0  0  0  0  0  0  0  0  0  0  0
    8.1239   14.1611  -38.0834 C   0  0  0  0  0  0  0  0  0  0  0  0
    7.3218   14.2471  -39.2057 C   0  0  0  0  0  0  0  0  0  0  0  0
   -0.2777   14.8030  -42.4303 N   0  0  0  0  0  0  0  0  0  0  0  0
    0.1318   15.7282  -42.5596 H   0  0  0  0  0  0  0  0  0  0  0  0
   -1.2600   14.7762  -42.1570 H   0  0  0  0  0  0  0  0  0  0  0  0
   -0.2540   14.1162  -43.7730 C   0  0  0  0  0  0  0  0  0  0  0  0
    0.3907   15.0247  -44.8095 C   0  0  0  0  0  0  0  0  0  0  0  0
    0.4479   12.7584  -43.6743 C   0  0  0  0  0  0  0  0  0  0  0  0
   -0.1875   11.6497  -44.4793 C   0  0  0  0  0  0  0  0  0  0  0  0
   -1.4052   11.4869  -44.5118 O   0  0  0  0  0  0  0  0  0  0  0  0
    0.6658   10.8729  -45.1435 N   0  0  0  0  0  0  0  0  0  0  0  0
    1.6253   11.0929  -45.1263 H   0  0  0  0  0  0  0  0  0  0  0  0
    0.2223    9.7108  -45.8925 C   0  0  0  0  0  0  0  0  0  0  0  0
    0.1864    8.4637  -45.0371 C   0  0  0  0  0  0  0  0  0  0  0  0
   -1.1536    8.2782  -44.4306 N   0  0  0  0  0  0  0  0  0  0  0  0
   -1.3722    9.0787  -43.8375 H   0  0  0  0  0  0  0  0  0  0  0  0
   -1.1574    7.4273  -43.8681 H   0  0  0  0  0  0  0  0  0  0  0  0
   -1.8532    8.2009  -45.1688 H   0  0  0  0  0  0  0  0  0  0  0  0
   -1.9890   14.1007  -40.5503 C   0  0  0  0  0  0  0  0  0  0  0  0
   -0.5446   13.9637  -40.1284 C   0  0  0  0  0  0  0  0  0  0  0  0
 33 34  1  0  0  0
 34  1  1  0  0  0
  1 17  1  0  0  0
  1  2  1  0  0  0
 17 20  1  0  0  0
 20 21  1  0  0  0
 20 22  1  0  0  0
 22 23  1  0  0  0
 23 24  2  0  0  0
 23 25  1  0  0  0
 25 27  1  0  0  0
 27 28  1  0  0  0
 28 29  1  0  0  0
  2  3  2  0  0  0
  2  8  1  0  0  0
  3  4  1  0  0  0
  4  5  2  0  0  0
  5  6  1  0  0  0
  5  7  1  0  0  0
  7 10  1  0  0  0
  7  8  2  0  0  0
 10 11  1  0  0  0
 11 12  2  0  0  0
 11 16  1  0  0  0
 12 13  1  0  0  0
 13 14  2  0  0  0
 14 15  1  0  0  0
 15 16  2  0  0  0
  8  9  1  0  0  0
 17 18  1  0  0  0
 17 19  1  0  0  0
 25 26  1  0  0  0
 29 30  1  0  0  0
 29 31  1  0  0  0
 29 32  1  0  0  0
M  CHG 1  17   1
M  CHG 1  29   1
M  END
> <minimizedAffinity>
-7.92808

$$$$
4B74_1LH_A_1721


 34 35  0  0  0  0  0  0  0  0999 V2000
    4.1305   15.5142  -38.9197 C   0  0  0  0  0  0  0  0  0  0  0  0
    5.4549   14.7884  -38.7262 C   0  0  0  0  0  0  0  0  0  0  0  0
    6.1957   14.3487  -39.8185 C   0  0  0  0  0  0  0  0  0  0  0  0
    7.3975   13.6909  -39.6233 C   0  0  0  0  0  0  0  0  0  0  0  0
    7.8772   13.4635  -38.3419 C   0  0  0  0  0  0  0  0  0  0  0  0
    9.3888   12.6341  -38.1779 Cl  0  0  0  0  0  0  0  0  0  0  0  0
    7.1708   13.8852  -37.2189 C   0  0  0  0  0  0  0  0  0  0  0  0
    5.9716   14.5402  -37.4355 C   0  0  0  0  0  0  0  0  0  0  0  0
    5.2651   14.9613  -36.3735 F   0  0  0  0  0  0  0  0  0  0  0  0
    7.5935   13.6897  -35.9053 O   0  0  0  0  0  0  0  0  0  0  0  0
    8.5455   14.5149  -35.3413 C   0  0  0  0  0  0  0  0  0  0  0  0
    9.3811   15.3912  -36.0138 C   0  0  0  0  0  0  0  0  0  0  0  0
   10.2897   16.1564  -35.3028 C   0  0  0  0  0  0  0  0  0  0  0  0
   10.3615   16.0469  -33.9327 C   0  0  0  0  0  0  0  0  0  0  0  0
    9.5303   15.1759  -33.2634 C   0  0  0  0  0  0  0  0  0  0  0  0
    8.6203   14.4086  -33.9657 C   0  0  0  0  0  0  0  0  0  0  0  0
    3.0434   14.5580  -39.3607 N   0  0  0  0  0  0  0  0  0  0  0  0
    2.3021   14.6039  -38.6616 H   0  0  0  0  0  0  0  0  0  0  0  0
    3.5246   13.6634  -39.4531 H   0  0  0  0  0  0  0  0  0  0  0  0
    2.3960   14.7644  -40.7074 C   0  0  0  0  0  0  0  0  0  0  0  0
    2.3074   13.4389  -41.4494 C   0  0  0  0  0  0  0  0  0  0  0  0
    1.0281   15.4359  -40.5534 C   0  0  0  0  0  0  0  0  0  0  0  0
   -0.1203   14.4936  -40.2807 C   0  0  0  0  0  0  0  0  0  0  0  0
   -0.8580   14.0925  -41.1781 O   0  0  0  0  0  0  0  0  0  0  0  0
   -0.2674   14.1356  -39.0068 N   0  0  0  0  0  0  0  0  0  0  0  0
    0.3937   14.4421  -38.3447 H   0  0  0  0  0  0  0  0  0  0  0  0
   -1.3745   13.3063  -38.5657 C   0  0  0  0  0  0  0  0  0  0  0  0
   -2.4452   14.1137  -37.8657 C   0  0  0  0  0  0  0  0  0  0  0  0
   -2.3347   13.9730  -36.3940 N   0  0  0  0  0  0  0  0  0  0  0  0
   -2.4536   12.9934  -36.1362 H   0  0  0  0  0  0  0  0  0  0  0  0
   -3.0582   14.5334  -35.9436 H   0  0  0  0  0  0  0  0  0  0  0  0
   -1.4161   14.2956  -36.0897 H   0  0  0  0  0  0  0  0  0  0  0  0
    4.7783   17.9284  -39.3498 C   0  0  0  0  0  0  0  0  0  0  0  0
    4.2188   16.6490  -39.9269 C   0  0  0  0  0  0  0  0  0  0  0  0
 33 34  1  0  0  0
 34  1  1  0  0  0
  1 17  1  0  0  0
  1  2  1  0  0  0
 17 20  1  0  0  0
 20 21  1  0  0  0
 20 22  1  0  0  0
 22 23  1  0  0  0
 23 24  2  0  0  0
 23 25  1  0  0  0
 25 27  1  0  0  0
 27 28  1  0  0  0
 28 29  1  0  0  0
  2  3  2  0  0  0
  2  8  1  0  0  0
  3  4  1  0  0  0
  4  5  2  0  0  0
  5  6  1  0  0  0
  5  7  1  0  0  0
  7 10  1  0  0  0
  7  8  2  0  0  0
 10 11  1  0  0  0
 11 12  2  0  0  0
 11 16  1  0  0  0
 12 13  1  0  0  0
 13 14  2  0  0  0
 14 15  1  0  0  0
 15 16  2  0  0  0
  8  9  1  0  0  0
 17 18  1  0  0  0
 17 19  1  0  0  0
 25 26  1  0  0  0
 29 30  1  0  0  0
 29 31  1  0  0  0
 29 32  1  0  0  0
M  CHG 1  17   1
M  CHG 1  29   1
M  END
> <minimizedAffinity>
-7.62855

$$$$
4B74_1LH_A_1721


 34 35  0  0  0  0  0  0  0  0999 V2000
   -1.8853   12.6354  -43.2621 C   0  0  0  0  0  0  0  0  0  0  0  0
   -2.8052   13.5000  -42.4110 C   0  0  0  0  0  0  0  0  0  0  0  0
   -4.1255   13.7248  -42.7869 C   0  0  0  0  0  0  0  0  0  0  0  0
   -4.9471   14.5134  -42.0006 C   0  0  0  0  0  0  0  0  0  0  0  0
   -4.4671   15.0862  -40.8321 C   0  0  0  0  0  0  0  0  0  0  0  0
   -5.5550   16.0603  -39.9008 Cl  0  0  0  0  0  0  0  0  0  0  0  0
   -3.1534   14.8893  -40.4158 C   0  0  0  0  0  0  0  0  0  0  0  0
   -2.3483   14.0985  -41.2161 C   0  0  0  0  0  0  0  0  0  0  0  0
   -1.0754   13.8873  -40.8429 F   0  0  0  0  0  0  0  0  0  0  0  0
   -2.6066   15.4342  -39.2553 O   0  0  0  0  0  0  0  0  0  0  0  0
   -2.7231   14.7784  -38.0464 C   0  0  0  0  0  0  0  0  0  0  0  0
   -3.5724   15.1125  -37.0045 C   0  0  0  0  0  0  0  0  0  0  0  0
   -3.5731   14.3519  -35.8477 C   0  0  0  0  0  0  0  0  0  0  0  0
   -2.7332   13.2675  -35.7341 C   0  0  0  0  0  0  0  0  0  0  0  0
   -1.8887   12.9344  -36.7702 C   0  0  0  0  0  0  0  0  0  0  0  0
   -1.8821   13.6884  -37.9285 C   0  0  0  0  0  0  0  0  0  0  0  0
   -1.5009   13.3441  -44.5430 N   0  0  0  0  0  0  0  0  0  0  0  0
   -2.0346   14.2127  -44.5766 H   0  0  0  0  0  0  0  0  0  0  0  0
   -1.7014   12.6603  -45.2728 H   0  0  0  0  0  0  0  0  0  0  0  0
   -0.0536   13.7041  -44.7685 C   0  0  0  0  0  0  0  0  0  0  0  0
    0.2177   13.8553  -46.2581 C   0  0  0  0  0  0  0  0  0  0  0  0
    0.3207   14.9625  -43.9796 C   0  0  0  0  0  0  0  0  0  0  0  0
    1.1650   14.7201  -42.7511 C   0  0  0  0  0  0  0  0  0  0  0  0
    1.7902   13.6744  -42.5891 O   0  0  0  0  0  0  0  0  0  0  0  0
    1.1789   15.7172  -41.8689 N   0  0  0  0  0  0  0  0  0  0  0  0
    0.7068   16.5536  -42.0855 H   0  0  0  0  0  0  0  0  0  0  0  0
    1.8700   15.6068  -40.5968 C   0  0  0  0  0  0  0  0  0  0  0  0
    3.1590   16.3982  -40.5803 C   0  0  0  0  0  0  0  0  0  0  0  0
    2.9273   17.7738  -40.0787 N   0  0  0  0  0  0  0  0  0  0  0  0
    2.2666   18.2522  -40.6911 H   0  0  0  0  0  0  0  0  0  0  0  0
    3.8102   18.2844  -40.0661 H   0  0  0  0  0  0  0  0  0  0  0  0
    2.5456   17.7314  -39.1338 H   0  0  0  0  0  0  0  0  0  0  0  0
   -2.5070   10.3091  -42.4654 C   0  0  0  0  0  0  0  0  0  0  0  0
   -2.4968   11.2895  -43.6150 C   0  0  0  0  0  0  0  0  0  0  0  0
 33 34  1  0  0  0
 34  1  1  0  0  0
  1 17  1  0  0  0
  1  2  1  0  0  0
 17 20  1  0  0  0
 20 21  1  0  0  0
 20 22  1  0  0  0
 22 23  1  0  0  0
 23 24  2  0  0  0
 23 25  1  0  0  0
 25 27  1  0  0  0
 27 28  1  0  0  0
 28 29  1  0  0  0
  2  3  2  0  0  0
  2  8  1  0  0  0
  3  4  1  0  0  0
  4  5  2  0  0  0
  5  6  1  0  0  0
  5  7  1  0  0  0
  7 10  1  0  0  0
  7  8  2  0  0  0
 10 11  1  0  0  0
 11 12  2  0  0  0
 11 16  1  0  0  0
 12 13  1  0  0  0
 13 14  2  0  0  0
 14 15  1  0  0  0
 15 16  2  0  0  0
  8  9  1  0  0  0
 17 18  1  0  0  0
 17 19  1  0  0  0
 25 26  1  0  0  0
 29 30  1  0  0  0
 29 31  1  0  0  0
 29 32  1  0  0  0
M  CHG 1  17   1
M  CHG 1  29   1
M  END
> <minimizedAffinity>
-7.58507

$$$$
4B74_1LH_A_1721


 34 35  0  0  0  0  0  0  0  0999 V2000
    0.3052   14.0287  -41.3395 C   0  0  0  0  0  0  0  0  0  0  0  0
    0.0335   13.2995  -42.6481 C   0  0  0  0  0  0  0  0  0  0  0  0
   -0.4068   11.9799  -42.6534 C   0  0  0  0  0  0  0  0  0  0  0  0
   -0.6489   11.3332  -43.8528 C   0  0  0  0  0  0  0  0  0  0  0  0
   -0.4577   11.9899  -45.0594 C   0  0  0  0  0  0  0  0  0  0  0  0
   -0.7820   11.1148  -46.5184 Cl  0  0  0  0  0  0  0  0  0  0  0  0
   -0.0185   13.3101  -45.1036 C   0  0  0  0  0  0  0  0  0  0  0  0
    0.2185   13.9384  -43.8939 C   0  0  0  0  0  0  0  0  0  0  0  0
    0.6424   15.2129  -43.9007 F   0  0  0  0  0  0  0  0  0  0  0  0
    0.1946   14.0287  -46.2786 O   0  0  0  0  0  0  0  0  0  0  0  0
   -0.7367   14.9458  -46.7223 C   0  0  0  0  0  0  0  0  0  0  0  0
   -2.1109   14.7760  -46.7567 C   0  0  0  0  0  0  0  0  0  0  0  0
   -2.9175   15.7955  -47.2326 C   0  0  0  0  0  0  0  0  0  0  0  0
   -2.3556   16.9735  -47.6694 C   0  0  0  0  0  0  0  0  0  0  0  0
   -0.9890   17.1431  -47.6350 C   0  0  0  0  0  0  0  0  0  0  0  0
   -0.1767   16.1303  -47.1610 C   0  0  0  0  0  0  0  0  0  0  0  0
    1.7217   13.7870  -40.8640 N   0  0  0  0  0  0  0  0  0  0  0  0
    2.1528   13.1394  -41.5236 H   0  0  0  0  0  0  0  0  0  0  0  0
    1.6067   13.4507  -39.9079 H   0  0  0  0  0  0  0  0  0  0  0  0
    2.6534   14.9652  -40.7264 C   0  0  0  0  0  0  0  0  0  0  0  0
    1.8735   16.2636  -40.8725 C   0  0  0  0  0  0  0  0  0  0  0  0
    3.4224   14.8958  -39.4036 C   0  0  0  0  0  0  0  0  0  0  0  0
    4.8428   14.3945  -39.5148 C   0  0  0  0  0  0  0  0  0  0  0  0
    5.3608   14.1476  -40.6016 O   0  0  0  0  0  0  0  0  0  0  0  0
    5.4814   14.2441  -38.3563 N   0  0  0  0  0  0  0  0  0  0  0  0
    5.0325   14.5177  -37.5239 H   0  0  0  0  0  0  0  0  0  0  0  0
    6.8209   13.6883  -38.2850 C   0  0  0  0  0  0  0  0  0  0  0  0
    7.2446   13.4087  -36.8600 C   0  0  0  0  0  0  0  0  0  0  0  0
    7.1651   11.9589  -36.5607 N   0  0  0  0  0  0  0  0  0  0  0  0
    6.2031   11.6402  -36.6763 H   0  0  0  0  0  0  0  0  0  0  0  0
    7.4650   11.7932  -35.6000 H   0  0  0  0  0  0  0  0  0  0  0  0
    7.7723   11.4459  -37.1998 H   0  0  0  0  0  0  0  0  0  0  0  0
   -1.3958   14.8014  -39.6242 C   0  0  0  0  0  0  0  0  0  0  0  0
   -0.6550   13.6322  -40.2301 C   0  0  0  0  0  0  0  0  0  0  0  0
 33 34  1  0  0  0
 34  1  1  0  0  0
  1 17  1  0  0  0
  1  2  1  0  0  0
 17 20  1  0  0  0
 20 21  1  0  0  0
 20 22  1  0  0  0
 22 23  1  0  0  0
 23 24  2  0  0  0
 23 25  1  0  0  0
 25 27  1  0  0  0
 27 28  1  0  0  0
 28 29  1  0  0  0
  2  3  2  0  0  0
  2  8  1  0  0  0
  3  4  1  0  0  0
  4  5  2  0  0  0
  5  6  1  0  0  0
  5  7  1  0  0  0
  7 10  1  0  0  0
  7  8  2  0  0  0
 10 11  1  0  0  0
 11 12  2  0  0  0
 11 16  1  0  0  0
 12 13  1  0  0  0
 13 14  2  0  0  0
 14 15  1  0  0  0
 15 16  2  0  0  0
  8  9  1  0  0  0
 17 18  1  0  0  0
 17 19  1  0  0  0
 25 26  1  0  0  0
 29 30  1  0  0  0
 29 31  1  0  0  0
 29 32  1  0  0  0
M  CHG 1  17   1
M  CHG 1  29   1
M  END
> <minimizedAffinity>
-7.52375

$$$$
4B74_1LH_A_1721


 34 35  0  0  0  0  0  0  0  0999 V2000
    0.7154   14.5492  -40.5706 C   0  0  0  0  0  0  0  0  0  0  0  0
    0.4811   13.7680  -41.8563 C   0  0  0  0  0  0  0  0  0  0  0  0
    0.1240   12.4240  -41.8215 C   0  0  0  0  0  0  0  0  0  0  0  0
   -0.0851   11.7301  -43.0005 C   0  0  0  0  0  0  0  0  0  0  0  0
    0.0568   12.3633  -44.2263 C   0  0  0  0  0  0  0  0  0  0  0  0
   -0.2219   11.4291  -45.6579 Cl  0  0  0  0  0  0  0  0  0  0  0  0
    0.4124   13.7065  -44.3106 C   0  0  0  0  0  0  0  0  0  0  0  0
    0.6177   14.3820  -43.1208 C   0  0  0  0  0  0  0  0  0  0  0  0
    0.9611   15.6798  -43.1662 F   0  0  0  0  0  0  0  0  0  0  0  0
    0.5725   14.4037  -45.5067 O   0  0  0  0  0  0  0  0  0  0  0  0
   -0.4443   15.1945  -46.0027 C   0  0  0  0  0  0  0  0  0  0  0  0
   -1.7477   15.2513  -45.5374 C   0  0  0  0  0  0  0  0  0  0  0  0
   -2.6573   16.1005  -46.1440 C   0  0  0  0  0  0  0  0  0  0  0  0
   -2.2675   16.8856  -47.2051 C   0  0  0  0  0  0  0  0  0  0  0  0
   -0.9712   16.8299  -47.6679 C   0  0  0  0  0  0  0  0  0  0  0  0
   -0.0568   15.9850  -47.0677 C   0  0  0  0  0  0  0  0  0  0  0  0
   -0.4965   15.3802  -40.2083 N   0  0  0  0  0  0  0  0  0  0  0  0
   -0.8216   15.8259  -41.0663 H   0  0  0  0  0  0  0  0  0  0  0  0
   -0.1583   16.0024  -39.4743 H   0  0  0  0  0  0  0  0  0  0  0  0
   -1.6877   14.6957  -39.5856 C   0  0  0  0  0  0  0  0  0  0  0  0
   -1.2280   13.7606  -38.4768 C   0  0  0  0  0  0  0  0  0  0  0  0
   -2.7069   15.7263  -39.0905 C   0  0  0  0  0  0  0  0  0  0  0  0
   -4.0135   15.7489  -39.8477 C   0  0  0  0  0  0  0  0  0  0  0  0
   -5.0914   15.9026  -39.2777 O   0  0  0  0  0  0  0  0  0  0  0  0
   -3.9059   15.5920  -41.1654 N   0  0  0  0  0  0  0  0  0  0  0  0
   -3.0095   15.5353  -41.5685 H   0  0  0  0  0  0  0  0  0  0  0  0
   -5.0725   15.5022  -42.0252 C   0  0  0  0  0  0  0  0  0  0  0  0
   -5.5108   14.0704  -42.2398 C   0  0  0  0  0  0  0  0  0  0  0  0
   -6.3841   13.6142  -41.1320 N   0  0  0  0  0  0  0  0  0  0  0  0
   -5.8704   13.6625  -40.2522 H   0  0  0  0  0  0  0  0  0  0  0  0
   -6.6756   12.6518  -41.3031 H   0  0  0  0  0  0  0  0  0  0  0  0
   -7.2071   14.2143  -41.0786 H   0  0  0  0  0  0  0  0  0  0  0  0
    3.0615   15.0396  -39.7410 C   0  0  0  0  0  0  0  0  0  0  0  0
    1.9276   15.4629  -40.6454 C   0  0  0  0  0  0  0  0  0  0  0  0
 33 34  1  0  0  0
 34  1  1  0  0  0
  1 17  1  0  0  0
  1  2  1  0  0  0
 17 20  1  0  0  0
 20 21  1  0  0  0
 20 22  1  0  0  0
 22 23  1  0  0  0
 23 24  2  0  0  0
 23 25  1  0  0  0
 25 27  1  0  0  0
 27 28  1  0  0  0
 28 29  1  0  0  0
  2  3  2  0  0  0
  2  8  1  0  0  0
  3  4  1  0  0  0
  4  5  2  0  0  0
  5  6  1  0  0  0
  5  7  1  0  0  0
  7 10  1  0  0  0
  7  8  2  0  0  0
 10 11  1  0  0  0
 11 12  2  0  0  0
 11 16  1  0  0  0
 12 13  1  0  0  0
 13 14  2  0  0  0
 14 15  1  0  0  0
 15 16  2  0  0  0
  8  9  1  0  0  0
 17 18  1  0  0  0
 17 19  1  0  0  0
 25 26  1  0  0  0
 29 30  1  0  0  0
 29 31  1  0  0  0
 29 32  1  0  0  0
M  CHG 1  17   1
M  CHG 1  29   1
M  END
> <minimizedAffinity>
-7.49393

$$$$
4B74_1LH_A_1721


 34 35  0  0  0  0  0  0  0  0999 V2000
   -2.8769   13.9392  -38.6979 C   0  0  0  0  0  0  0  0  0  0  0  0
   -1.8067   13.5370  -39.7035 C   0  0  0  0  0  0  0  0  0  0  0  0
   -1.7400   12.2376  -40.1956 C   0  0  0  0  0  0  0  0  0  0  0  0
   -0.7604   11.8902  -41.1093 C   0  0  0  0  0  0  0  0  0  0  0  0
    0.1625   12.8294  -41.5452 C   0  0  0  0  0  0  0  0  0  0  0  0
    1.3583   12.3198  -42.6898 Cl  0  0  0  0  0  0  0  0  0  0  0  0
    0.1348   14.1414  -41.0808 C   0  0  0  0  0  0  0  0  0  0  0  0
   -0.8516   14.4681  -40.1674 C   0  0  0  0  0  0  0  0  0  0  0  0
   -0.9073   15.7261  -39.6998 F   0  0  0  0  0  0  0  0  0  0  0  0
    1.0301   15.1340  -41.4756 O   0  0  0  0  0  0  0  0  0  0  0  0
    2.1918   15.3581  -40.7646 C   0  0  0  0  0  0  0  0  0  0  0  0
    3.0521   14.3948  -40.2641 C   0  0  0  0  0  0  0  0  0  0  0  0
    4.1846   14.7804  -39.5673 C   0  0  0  0  0  0  0  0  0  0  0  0
    4.4545   16.1159  -39.3735 C   0  0  0  0  0  0  0  0  0  0  0  0
    3.5995   17.0743  -39.8715 C   0  0  0  0  0  0  0  0  0  0  0  0
    2.4669   16.6979  -40.5685 C   0  0  0  0  0  0  0  0  0  0  0  0
   -3.6510   15.1476  -39.1788 N   0  0  0  0  0  0  0  0  0  0  0  0
   -2.9690   15.8208  -39.5282 H   0  0  0  0  0  0  0  0  0  0  0  0
   -4.1934   15.4333  -38.3635 H   0  0  0  0  0  0  0  0  0  0  0  0
   -4.6869   14.9644  -40.2597 C   0  0  0  0  0  0  0  0  0  0  0  0
   -6.0302   15.5011  -39.7877 C   0  0  0  0  0  0  0  0  0  0  0  0
   -4.2274   15.6181  -41.5665 C   0  0  0  0  0  0  0  0  0  0  0  0
   -3.8927   14.6549  -42.6806 C   0  0  0  0  0  0  0  0  0  0  0  0
   -4.7022   13.8231  -43.0846 O   0  0  0  0  0  0  0  0  0  0  0  0
   -2.6665   14.7778  -43.1847 N   0  0  0  0  0  0  0  0  0  0  0  0
   -2.0869   15.5044  -42.8601 H   0  0  0  0  0  0  0  0  0  0  0  0
   -2.1595   13.8712  -44.1991 C   0  0  0  0  0  0  0  0  0  0  0  0
   -1.0739   14.5079  -45.0383 C   0  0  0  0  0  0  0  0  0  0  0  0
   -0.2870   15.4758  -44.2373 N   0  0  0  0  0  0  0  0  0  0  0  0
   -0.9021   16.2147  -43.8966 H   0  0  0  0  0  0  0  0  0  0  0  0
    0.4444   15.8838  -44.8195 H   0  0  0  0  0  0  0  0  0  0  0  0
    0.1381   14.9949  -43.4445 H   0  0  0  0  0  0  0  0  0  0  0  0
   -3.3460   14.7331  -36.3352 C   0  0  0  0  0  0  0  0  0  0  0  0
   -2.3113   14.2402  -37.3197 C   0  0  0  0  0  0  0  0  0  0  0  0
 33 34  1  0  0  0
 34  1  1  0  0  0
  1 17  1  0  0  0
  1  2  1  0  0  0
 17 20  1  0  0  0
 20 21  1  0  0  0
 20 22  1  0  0  0
 22 23  1  0  0  0
 23 24  2  0  0  0
 23 25  1  0  0  0
 25 27  1  0  0  0
 27 28  1  0  0  0
 28 29  1  0  0  0
  2  3  2  0  0  0
  2  8  1  0  0  0
  3  4  1  0  0  0
  4  5  2  0  0  0
  5  6  1  0  0  0
  5  7  1  0  0  0
  7 10  1  0  0  0
  7  8  2  0  0  0
 10 11  1  0  0  0
 11 12  2  0  0  0
 11 16  1  0  0  0
 12 13  1  0  0  0
 13 14  2  0  0  0
 14 15  1  0  0  0
 15 16  2  0  0  0
  8  9  1  0  0  0
 17 18  1  0  0  0
 17 19  1  0  0  0
 25 26  1  0  0  0
 29 30  1  0  0  0
 29 31  1  0  0  0
 29 32  1  0  0  0
M  CHG 1  17   1
M  CHG 1  29   1
M  END
> <minimizedAffinity>
-7.42050

$$$$
4B74_1LH_A_1721


 34 35  0  0  0  0  0  0  0  0999 V2000
   -0.0862   13.3160  -41.8571 C   0  0  0  0  0  0  0  0  0  0  0  0
   -0.2983   12.6807  -43.2244 C   0  0  0  0  0  0  0  0  0  0  0  0
   -0.7189   11.3599  -43.3419 C   0  0  0  0  0  0  0  0  0  0  0  0
   -0.9065   10.7992  -44.5931 C   0  0  0  0  0  0  0  0  0  0  0  0
   -0.6799   11.5441  -45.7410 C   0  0  0  0  0  0  0  0  0  0  0  0
   -0.9367   10.7736  -47.2707 Cl  0  0  0  0  0  0  0  0  0  0  0  0
   -0.2585   12.8691  -45.6729 C   0  0  0  0  0  0  0  0  0  0  0  0
   -0.0761   13.4105  -44.4129 C   0  0  0  0  0  0  0  0  0  0  0  0
    0.3292   14.6871  -44.3114 F   0  0  0  0  0  0  0  0  0  0  0  0
   -0.0121   13.6736  -46.7840 O   0  0  0  0  0  0  0  0  0  0  0  0
   -0.8661   14.7086  -47.1077 C   0  0  0  0  0  0  0  0  0  0  0  0
   -2.2352   14.6202  -47.2984 C   0  0  0  0  0  0  0  0  0  0  0  0
   -2.9586   15.7555  -47.6211 C   0  0  0  0  0  0  0  0  0  0  0  0
   -2.3196   16.9675  -47.7513 C   0  0  0  0  0  0  0  0  0  0  0  0
   -0.9581   17.0561  -47.5613 C   0  0  0  0  0  0  0  0  0  0  0  0
   -0.2285   15.9274  -47.2386 C   0  0  0  0  0  0  0  0  0  0  0  0
   -1.1120   14.3971  -41.5927 N   0  0  0  0  0  0  0  0  0  0  0  0
   -1.3148   14.8430  -42.4873 H   0  0  0  0  0  0  0  0  0  0  0  0
   -0.6740   14.9840  -40.8826 H   0  0  0  0  0  0  0  0  0  0  0  0
   -2.4350   14.0099  -40.9804 C   0  0  0  0  0  0  0  0  0  0  0  0
   -3.5095   13.9576  -42.0564 C   0  0  0  0  0  0  0  0  0  0  0  0
   -2.3123   12.6873  -40.2177 C   0  0  0  0  0  0  0  0  0  0  0  0
   -2.1131   12.8244  -38.7269 C   0  0  0  0  0  0  0  0  0  0  0  0
   -1.5624   11.9494  -38.0624 O   0  0  0  0  0  0  0  0  0  0  0  0
   -2.5749   13.9550  -38.1966 N   0  0  0  0  0  0  0  0  0  0  0  0
   -2.9506   14.6435  -38.7915 H   0  0  0  0  0  0  0  0  0  0  0  0
   -2.5405   14.2017  -36.7662 C   0  0  0  0  0  0  0  0  0  0  0  0
   -3.7819   14.9188  -36.2835 C   0  0  0  0  0  0  0  0  0  0  0  0
   -3.7007   16.3697  -36.5766 N   0  0  0  0  0  0  0  0  0  0  0  0
   -2.8942   16.7690  -36.0964 H   0  0  0  0  0  0  0  0  0  0  0  0
   -4.5514   16.8301  -36.2527 H   0  0  0  0  0  0  0  0  0  0  0  0
   -3.6008   16.5084  -37.5821 H   0  0  0  0  0  0  0  0  0  0  0  0
    1.4167   14.8608  -40.5201 C   0  0  0  0  0  0  0  0  0  0  0  0
    1.3023   13.9108  -41.6894 C   0  0  0  0  0  0  0  0  0  0  0  0
 33 34  1  0  0  0
 34  1  1  0  0  0
  1 17  1  0  0  0
  1  2  1  0  0  0
 17 20  1  0  0  0
 20 21  1  0  0  0
 20 22  1  0  0  0
 22 23  1  0  0  0
 23 24  2  0  0  0
 23 25  1  0  0  0
 25 27  1  0  0  0
 27 28  1  0  0  0
 28 29  1  0  0  0
  2  3  2  0  0  0
  2  8  1  0  0  0
  3  4  1  0  0  0
  4  5  2  0  0  0
  5  6  1  0  0  0
  5  7  1  0  0  0
  7 10  1  0  0  0
  7  8  2  0  0  0
 10 11  1  0  0  0
 11 12  2  0  0  0
 11 16  1  0  0  0
 12 13  1  0  0  0
 13 14  2  0  0  0
 14 15  1  0  0  0
 15 16  2  0  0  0
  8  9  1  0  0  0
 17 18  1  0  0  0
 17 19  1  0  0  0
 25 26  1  0  0  0
 29 30  1  0  0  0
 29 31  1  0  0  0
 29 32  1  0  0  0
M  CHG 1  17   1
M  CHG 1  29   1
M  END
> <minimizedAffinity>
-7.40924

$$$$
4B74_1LH_A_1721


 34 35  0  0  0  0  0  0  0  0999 V2000
    0.6983   13.9450  -42.0872 C   0  0  0  0  0  0  0  0  0  0  0  0
    0.4510   14.0291  -43.5872 C   0  0  0  0  0  0  0  0  0  0  0  0
    0.3551   15.2599  -44.2283 C   0  0  0  0  0  0  0  0  0  0  0  0
    0.1302   15.3169  -45.5926 C   0  0  0  0  0  0  0  0  0  0  0  0
   -0.0007   14.1527  -46.3352 C   0  0  0  0  0  0  0  0  0  0  0  0
   -0.2803   14.3046  -48.0376 Cl  0  0  0  0  0  0  0  0  0  0  0  0
    0.0881   12.8987  -45.7372 C   0  0  0  0  0  0  0  0  0  0  0  0
    0.3124   12.8635  -44.3725 C   0  0  0  0  0  0  0  0  0  0  0  0
    0.4043   11.6695  -43.7640 F   0  0  0  0  0  0  0  0  0  0  0  0
   -0.0341   11.6910  -46.4220 O   0  0  0  0  0  0  0  0  0  0  0  0
   -1.2783   11.1699  -46.7148 C   0  0  0  0  0  0  0  0  0  0  0  0
   -2.5009   11.6657  -46.2932 C   0  0  0  0  0  0  0  0  0  0  0  0
   -3.6692   11.0274  -46.6731 C   0  0  0  0  0  0  0  0  0  0  0  0
   -3.6154    9.9047  -47.4674 C   0  0  0  0  0  0  0  0  0  0  0  0
   -2.3998    9.4115  -47.8875 C   0  0  0  0  0  0  0  0  0  0  0  0
   -1.2288   10.0430  -47.5128 C   0  0  0  0  0  0  0  0  0  0  0  0
   -0.5756   14.1952  -41.3092 N   0  0  0  0  0  0  0  0  0  0  0  0
   -0.9625   15.0778  -41.6434 H   0  0  0  0  0  0  0  0  0  0  0  0
   -0.2775   14.1713  -40.3340 H   0  0  0  0  0  0  0  0  0  0  0  0
   -1.6820   13.1722  -41.3773 C   0  0  0  0  0  0  0  0  0  0  0  0
   -1.1938   11.8419  -40.8232 C   0  0  0  0  0  0  0  0  0  0  0  0
   -2.9331   13.6786  -40.6533 C   0  0  0  0  0  0  0  0  0  0  0  0
   -2.6687   14.4463  -39.3798 C   0  0  0  0  0  0  0  0  0  0  0  0
   -2.4037   15.6463  -39.3884 O   0  0  0  0  0  0  0  0  0  0  0  0
   -2.7457   13.7288  -38.2609 N   0  0  0  0  0  0  0  0  0  0  0  0
   -3.0228   12.7857  -38.3160 H   0  0  0  0  0  0  0  0  0  0  0  0
   -2.4328   14.2970  -36.9619 C   0  0  0  0  0  0  0  0  0  0  0  0
   -3.6579   14.8661  -36.2811 C   0  0  0  0  0  0  0  0  0  0  0  0
   -3.7682   16.3241  -36.5258 N   0  0  0  0  0  0  0  0  0  0  0  0
   -2.9456   16.7952  -36.1492 H   0  0  0  0  0  0  0  0  0  0  0  0
   -4.6055   16.6834  -36.0673 H   0  0  0  0  0  0  0  0  0  0  0  0
   -3.8294   16.4968  -37.5292 H   0  0  0  0  0  0  0  0  0  0  0  0
    1.2732   15.8695  -40.5385 C   0  0  0  0  0  0  0  0  0  0  0  0
    1.7614   14.9191  -41.6068 C   0  0  0  0  0  0  0  0  0  0  0  0
 33 34  1  0  0  0
 34  1  1  0  0  0
  1 17  1  0  0  0
  1  2  1  0  0  0
 17 20  1  0  0  0
 20 21  1  0  0  0
 20 22  1  0  0  0
 22 23  1  0  0  0
 23 24  2  0  0  0
 23 25  1  0  0  0
 25 27  1  0  0  0
 27 28  1  0  0  0
 28 29  1  0  0  0
  2  3  2  0  0  0
  2  8  1  0  0  0
  3  4  1  0  0  0
  4  5  2  0  0  0
  5  6  1  0  0  0
  5  7  1  0  0  0
  7 10  1  0  0  0
  7  8  2  0  0  0
 10 11  1  0  0  0
 11 12  2  0  0  0
 11 16  1  0  0  0
 12 13  1  0  0  0
 13 14  2  0  0  0
 14 15  1  0  0  0
 15 16  2  0  0  0
  8  9  1  0  0  0
 17 18  1  0  0  0
 17 19  1  0  0  0
 25 26  1  0  0  0
 29 30  1  0  0  0
 29 31  1  0  0  0
 29 32  1  0  0  0
M  CHG 1  17   1
M  CHG 1  29   1
M  END
> <minimizedAffinity>
-7.33408

$$$$
