5EGM_5NY_A_303


 42 48  0  0  0  0  0  0  0  0999 V2000
  -15.7763  -36.4576  -13.6472 C   0  0  0  0  0  0  0  0  0  0  0  0
  -15.2450  -35.3027  -12.7329 C   0  0  0  0  0  0  0  0  0  0  0  0
  -13.8482  -35.5862  -12.3247 N   0  0  0  0  0  0  0  0  0  0  0  0
  -13.2327  -35.1643  -11.1391 C   0  0  0  0  0  0  0  0  0  0  0  0
  -13.7616  -34.4036  -10.1010 C   0  0  0  0  0  0  0  0  0  0  0  0
  -12.9339  -34.1366   -9.0174 C   0  0  0  0  0  0  0  0  0  0  0  0
  -14.7511  -36.6093  -14.7921 C   0  0  0  0  0  0  0  0  0  0  0  0
  -13.3520  -37.0299  -14.3156 C   0  0  0  0  0  0  0  0  0  0  0  0
  -12.9668  -36.3649  -13.0229 C   0  0  0  0  0  0  0  0  0  0  0  0
  -11.7597  -36.4703  -12.3232 C   0  0  0  0  0  0  0  0  0  0  0  0
  -11.9486  -35.6703  -11.1141 C   0  0  0  0  0  0  0  0  0  0  0  0
  -11.1445  -35.3686  -10.0181 C   0  0  0  0  0  0  0  0  0  0  0  0
  -11.6164  -34.6006   -8.9642 C   0  0  0  0  0  0  0  0  0  0  0  0
  -10.7298  -34.2929   -7.7768 C   0  0  0  0  0  0  0  0  0  0  0  0
  -17.1944  -36.1461  -14.1561 C   0  0  0  0  0  0  0  0  0  0  0  0
  -18.3028  -36.2535  -13.3167 C   0  0  0  0  0  0  0  0  0  0  0  0
  -19.5687  -35.9081  -13.7633 C   0  0  0  0  0  0  0  0  0  0  0  0
  -19.7494  -35.4484  -15.0488 C   0  0  0  0  0  0  0  0  0  0  0  0
  -18.6639  -35.3362  -15.8956 C   0  0  0  0  0  0  0  0  0  0  0  0
  -17.3966  -35.6832  -15.4551 C   0  0  0  0  0  0  0  0  0  0  0  0
  -10.5686  -37.2132  -12.6968 C   0  0  0  0  0  0  0  0  0  0  0  0
  -10.4993  -38.5368  -12.9036 N   0  0  0  0  0  0  0  0  0  0  0  0
   -9.2344  -38.7875  -13.2801 N   0  0  0  0  0  0  0  0  0  0  0  0
   -8.5585  -37.6670  -13.3080 N   0  0  0  0  0  0  0  0  0  0  0  0
   -9.3673  -36.6709  -12.9496 N   0  0  0  0  0  0  0  0  0  0  0  0
  -11.2275  -39.1913  -12.8005 H   0  0  0  0  0  0  0  0  0  0  0  0
  -15.9477  -38.9123  -13.2332 C   0  0  0  0  0  0  0  0  0  0  0  0
  -16.2618  -39.1669  -14.3955 O   0  0  0  0  0  0  0  0  0  0  0  0
  -15.7600  -37.6530  -12.7853 N   0  0  0  0  0  0  0  0  0  0  0  0
  -15.6022  -37.5248  -11.8220 H   0  0  0  0  0  0  0  0  0  0  0  0
  -13.5073  -39.0208  -11.2277 Cl  0  0  0  0  0  0  0  0  0  0  0  0
  -14.8093  -40.1680  -11.3076 C   0  0  0  0  0  0  0  0  0  0  0  0
  -14.7478  -41.2731  -10.4747 C   0  0  0  0  0  0  0  0  0  0  0  0
  -15.7528  -42.2404  -10.5466 C   0  0  0  0  0  0  0  0  0  0  0  0
  -16.7988  -42.0878  -11.4411 C   0  0  0  0  0  0  0  0  0  0  0  0
  -16.8534  -40.9804  -12.2632 C   0  0  0  0  0  0  0  0  0  0  0  0
  -15.8559  -40.0023  -12.2201 C   0  0  0  0  0  0  0  0  0  0  0  0
  -15.6788  -43.4091   -9.7231 N   0  0  0  0  0  0  0  0  0  0  0  0
  -15.7651  -44.7095  -10.1086 C   0  0  0  0  0  0  0  0  0  0  0  0
  -15.5946  -45.5073   -9.0930 N   0  0  0  0  0  0  0  0  0  0  0  0
  -15.4062  -44.7052   -7.9744 N   0  0  0  0  0  0  0  0  0  0  0  0
  -15.4695  -43.4683   -8.3805 C   0  0  0  0  0  0  0  0  0  0  0  0
 19 20  2  0  0  0
 19 18  1  0  0  0
 20 15  1  0  0  0
 18 17  2  0  0  0
  7  8  1  0  0  0
  7  1  1  0  0  0
 28 27  2  0  0  0
  8  9  1  0  0  0
 15  1  1  0  0  0
 15 16  2  0  0  0
 17 16  1  0  0  0
 22 23  1  0  0  0
 22 21  1  0  0  0
  1 29  1  0  0  0
  1  2  1  0  0  0
 23 24  2  0  0  0
 27 29  1  0  0  0
 27 37  1  0  0  0
  9  3  1  0  0  0
  9 10  2  0  0  0
  2  3  1  0  0  0
 21 10  1  0  0  0
 21 25  2  0  0  0
 24 25  1  0  0  0
  3  4  1  0  0  0
 10 11  1  0  0  0
 37 36  2  0  0  0
 37 32  1  0  0  0
 36 35  1  0  0  0
 31 32  1  0  0  0
 32 33  2  0  0  0
 35 34  2  0  0  0
  4 11  2  0  0  0
  4  5  1  0  0  0
 11 12  1  0  0  0
 33 34  1  0  0  0
 34 38  1  0  0  0
  5  6  2  0  0  0
 42 38  1  0  0  0
 42 41  2  0  0  0
 12 13  2  0  0  0
 38 39  1  0  0  0
 41 40  1  0  0  0
  6 13  1  0  0  0
 13 14  1  0  0  0
 39 40  2  0  0  0
 29 30  1  0  0  0
 22 26  1  0  0  0
M  END
> <minimizedAffinity>
-10.90948

$$$$
5EGM_5NY_A_303


 42 48  0  0  0  0  0  0  0  0999 V2000
  -17.1614  -39.5672  -14.0818 C   0  0  0  0  0  0  0  0  0  0  0  0
  -16.1719  -38.3612  -13.9454 C   0  0  0  0  0  0  0  0  0  0  0  0
  -14.7941  -38.8015  -14.2707 N   0  0  0  0  0  0  0  0  0  0  0  0
  -13.6102  -38.2570  -13.7565 C   0  0  0  0  0  0  0  0  0  0  0  0
  -13.4478  -37.2097  -12.8549 C   0  0  0  0  0  0  0  0  0  0  0  0
  -12.1495  -36.8742  -12.4911 C   0  0  0  0  0  0  0  0  0  0  0  0
  -16.9486  -40.1431  -15.4988 C   0  0  0  0  0  0  0  0  0  0  0  0
  -15.5359  -40.7009  -15.7323 C   0  0  0  0  0  0  0  0  0  0  0  0
  -14.4756  -39.8582  -15.0786 C   0  0  0  0  0  0  0  0  0  0  0  0
  -13.0877  -40.0310  -15.1193 C   0  0  0  0  0  0  0  0  0  0  0  0
  -12.5464  -38.9717  -14.2693 C   0  0  0  0  0  0  0  0  0  0  0  0
  -11.2596  -38.5960  -13.8928 C   0  0  0  0  0  0  0  0  0  0  0  0
  -11.0408  -37.5487  -13.0104 C   0  0  0  0  0  0  0  0  0  0  0  0
   -9.6346  -37.1630  -12.6052 C   0  0  0  0  0  0  0  0  0  0  0  0
  -18.6117  -39.1175  -13.8341 C   0  0  0  0  0  0  0  0  0  0  0  0
  -18.9527  -38.3655  -12.7104 C   0  0  0  0  0  0  0  0  0  0  0  0
  -20.2484  -37.9082  -12.5277 C   0  0  0  0  0  0  0  0  0  0  0  0
  -21.2215  -38.1895  -13.4607 C   0  0  0  0  0  0  0  0  0  0  0  0
  -20.9034  -38.9341  -14.5798 C   0  0  0  0  0  0  0  0  0  0  0  0
  -19.6102  -39.3963  -14.7658 C   0  0  0  0  0  0  0  0  0  0  0  0
  -12.3305  -41.0409  -15.8384 C   0  0  0  0  0  0  0  0  0  0  0  0
  -11.5380  -40.8237  -16.8986 N   0  0  0  0  0  0  0  0  0  0  0  0
  -10.9975  -42.0141  -17.2075 N   0  0  0  0  0  0  0  0  0  0  0  0
  -11.4348  -42.9208  -16.3710 N   0  0  0  0  0  0  0  0  0  0  0  0
  -12.2662  -42.3398  -15.5072 N   0  0  0  0  0  0  0  0  0  0  0  0
  -11.3839  -39.9662  -17.3571 H   0  0  0  0  0  0  0  0  0  0  0  0
  -17.3216  -41.7141  -12.8202 C   0  0  0  0  0  0  0  0  0  0  0  0
  -18.3812  -42.0408  -13.3541 O   0  0  0  0  0  0  0  0  0  0  0  0
  -16.7126  -40.5347  -13.0647 N   0  0  0  0  0  0  0  0  0  0  0  0
  -15.9183  -40.3062  -12.5297 H   0  0  0  0  0  0  0  0  0  0  0  0
  -16.6218  -44.7260  -13.4741 Cl  0  0  0  0  0  0  0  0  0  0  0  0
  -16.3799  -43.9346  -11.9468 C   0  0  0  0  0  0  0  0  0  0  0  0
  -15.9078  -44.6982  -10.8917 C   0  0  0  0  0  0  0  0  0  0  0  0
  -15.7474  -44.1060   -9.6370 C   0  0  0  0  0  0  0  0  0  0  0  0
  -16.0555  -42.7679   -9.4577 C   0  0  0  0  0  0  0  0  0  0  0  0
  -16.5206  -42.0145  -10.5166 C   0  0  0  0  0  0  0  0  0  0  0  0
  -16.7008  -42.5837  -11.7804 C   0  0  0  0  0  0  0  0  0  0  0  0
  -15.3024  -44.8938   -8.5276 N   0  0  0  0  0  0  0  0  0  0  0  0
  -14.5651  -44.4910   -7.4593 C   0  0  0  0  0  0  0  0  0  0  0  0
  -14.3989  -45.4686   -6.6145 N   0  0  0  0  0  0  0  0  0  0  0  0
  -15.0358  -46.5807   -7.1509 N   0  0  0  0  0  0  0  0  0  0  0  0
  -15.5539  -46.2086   -8.2876 C   0  0  0  0  0  0  0  0  0  0  0  0
 19 20  2  0  0  0
 19 18  1  0  0  0
 20 15  1  0  0  0
 18 17  2  0  0  0
  7  8  1  0  0  0
  7  1  1  0  0  0
 28 27  2  0  0  0
  8  9  1  0  0  0
 15  1  1  0  0  0
 15 16  2  0  0  0
 17 16  1  0  0  0
 22 23  1  0  0  0
 22 21  1  0  0  0
  1 29  1  0  0  0
  1  2  1  0  0  0
 23 24  2  0  0  0
 27 29  1  0  0  0
 27 37  1  0  0  0
  9  3  1  0  0  0
  9 10  2  0  0  0
  2  3  1  0  0  0
 21 10  1  0  0  0
 21 25  2  0  0  0
 24 25  1  0  0  0
  3  4  1  0  0  0
 10 11  1  0  0  0
 37 36  2  0  0  0
 37 32  1  0  0  0
 36 35  1  0  0  0
 31 32  1  0  0  0
 32 33  2  0  0  0
 35 34  2  0  0  0
  4 11  2  0  0  0
  4  5  1  0  0  0
 11 12  1  0  0  0
 33 34  1  0  0  0
 34 38  1  0  0  0
  5  6  2  0  0  0
 42 38  1  0  0  0
 42 41  2  0  0  0
 12 13  2  0  0  0
 38 39  1  0  0  0
 41 40  1  0  0  0
  6 13  1  0  0  0
 13 14  1  0  0  0
 39 40  2  0  0  0
 29 30  1  0  0  0
 22 26  1  0  0  0
M  END
> <minimizedAffinity>
-8.99264

$$$$
5EGM_5NY_A_303


 42 48  0  0  0  0  0  0  0  0999 V2000
  -17.0596  -38.9828  -14.4570 C   0  0  0  0  0  0  0  0  0  0  0  0
  -15.9386  -37.8976  -14.3232 C   0  0  0  0  0  0  0  0  0  0  0  0
  -14.6092  -38.5182  -14.5373 N   0  0  0  0  0  0  0  0  0  0  0  0
  -13.3981  -38.0889  -13.9794 C   0  0  0  0  0  0  0  0  0  0  0  0
  -13.1589  -37.0159  -13.1265 C   0  0  0  0  0  0  0  0  0  0  0  0
  -11.8517  -36.8164  -12.7002 C   0  0  0  0  0  0  0  0  0  0  0  0
  -16.8402  -39.6647  -15.8251 C   0  0  0  0  0  0  0  0  0  0  0  0
  -15.4959  -40.4005  -15.9392 C   0  0  0  0  0  0  0  0  0  0  0  0
  -14.3783  -39.6524  -15.2660 C   0  0  0  0  0  0  0  0  0  0  0  0
  -13.0221  -39.9919  -15.2101 C   0  0  0  0  0  0  0  0  0  0  0  0
  -12.4032  -38.9554  -14.3854 C   0  0  0  0  0  0  0  0  0  0  0  0
  -11.1030  -38.7139  -13.9493 C   0  0  0  0  0  0  0  0  0  0  0  0
  -10.8069  -37.6488  -13.1120 C   0  0  0  0  0  0  0  0  0  0  0  0
   -9.3888  -37.4099  -12.6404 C   0  0  0  0  0  0  0  0  0  0  0  0
  -18.4552  -38.3489  -14.3254 C   0  0  0  0  0  0  0  0  0  0  0  0
  -18.8300  -37.6610  -13.1718 C   0  0  0  0  0  0  0  0  0  0  0  0
  -20.0645  -37.0364  -13.0862 C   0  0  0  0  0  0  0  0  0  0  0  0
  -20.9414  -37.0846  -14.1470 C   0  0  0  0  0  0  0  0  0  0  0  0
  -20.5886  -37.7621  -15.2978 C   0  0  0  0  0  0  0  0  0  0  0  0
  -19.3568  -38.3909  -15.3874 C   0  0  0  0  0  0  0  0  0  0  0  0
  -12.3557  -41.1267  -15.8252 C   0  0  0  0  0  0  0  0  0  0  0  0
  -11.6178  -41.0937  -16.9449 N   0  0  0  0  0  0  0  0  0  0  0  0
  -11.1516  -42.3417  -17.1185 N   0  0  0  0  0  0  0  0  0  0  0  0
  -11.5801  -43.1055  -16.1460 N   0  0  0  0  0  0  0  0  0  0  0  0
  -12.3317  -42.3722  -15.3260 N   0  0  0  0  0  0  0  0  0  0  0  0
  -11.4517  -40.3137  -17.5221 H   0  0  0  0  0  0  0  0  0  0  0  0
  -17.4296  -41.1124  -13.2105 C   0  0  0  0  0  0  0  0  0  0  0  0
  -18.3803  -41.4520  -13.9144 O   0  0  0  0  0  0  0  0  0  0  0  0
  -16.7906  -39.9335  -13.3635 N   0  0  0  0  0  0  0  0  0  0  0  0
  -16.1012  -39.6935  -12.7029 H   0  0  0  0  0  0  0  0  0  0  0  0
  -17.0225  -39.8428  -10.3450 Cl  0  0  0  0  0  0  0  0  0  0  0  0
  -16.7531  -41.5060  -10.7675 C   0  0  0  0  0  0  0  0  0  0  0  0
  -16.2444  -42.3460   -9.7905 C   0  0  0  0  0  0  0  0  0  0  0  0
  -15.9699  -43.6780  -10.1089 C   0  0  0  0  0  0  0  0  0  0  0  0
  -16.2098  -44.1480  -11.3892 C   0  0  0  0  0  0  0  0  0  0  0  0
  -16.7215  -43.3042  -12.3542 C   0  0  0  0  0  0  0  0  0  0  0  0
  -16.9955  -41.9641  -12.0664 C   0  0  0  0  0  0  0  0  0  0  0  0
  -15.4029  -44.5456   -9.1215 N   0  0  0  0  0  0  0  0  0  0  0  0
  -14.9333  -44.2151   -7.8896 C   0  0  0  0  0  0  0  0  0  0  0  0
  -14.5449  -45.2757   -7.2407 N   0  0  0  0  0  0  0  0  0  0  0  0
  -14.7441  -46.3623   -8.0833 N   0  0  0  0  0  0  0  0  0  0  0  0
  -15.2459  -45.8947   -9.1916 C   0  0  0  0  0  0  0  0  0  0  0  0
 19 20  2  0  0  0
 19 18  1  0  0  0
 20 15  1  0  0  0
 18 17  2  0  0  0
  7  8  1  0  0  0
  7  1  1  0  0  0
 28 27  2  0  0  0
  8  9  1  0  0  0
 15  1  1  0  0  0
 15 16  2  0  0  0
 17 16  1  0  0  0
 22 23  1  0  0  0
 22 21  1  0  0  0
  1 29  1  0  0  0
  1  2  1  0  0  0
 23 24  2  0  0  0
 27 29  1  0  0  0
 27 37  1  0  0  0
  9  3  1  0  0  0
  9 10  2  0  0  0
  2  3  1  0  0  0
 21 10  1  0  0  0
 21 25  2  0  0  0
 24 25  1  0  0  0
  3  4  1  0  0  0
 10 11  1  0  0  0
 37 36  2  0  0  0
 37 32  1  0  0  0
 36 35  1  0  0  0
 31 32  1  0  0  0
 32 33  2  0  0  0
 35 34  2  0  0  0
  4 11  2  0  0  0
  4  5  1  0  0  0
 11 12  1  0  0  0
 33 34  1  0  0  0
 34 38  1  0  0  0
  5  6  2  0  0  0
 42 38  1  0  0  0
 42 41  2  0  0  0
 12 13  2  0  0  0
 38 39  1  0  0  0
 41 40  1  0  0  0
  6 13  1  0  0  0
 13 14  1  0  0  0
 39 40  2  0  0  0
 29 30  1  0  0  0
 22 26  1  0  0  0
M  END
> <minimizedAffinity>
-8.34801

$$$$
5EGM_5NY_A_303


 42 48  0  0  0  0  0  0  0  0999 V2000
  -17.7052  -39.9260  -13.5854 C   0  0  0  0  0  0  0  0  0  0  0  0
  -17.6727  -41.3060  -14.3249 C   0  0  0  0  0  0  0  0  0  0  0  0
  -16.9663  -42.3075  -13.4905 N   0  0  0  0  0  0  0  0  0  0  0  0
  -16.2476  -43.4143  -13.9604 C   0  0  0  0  0  0  0  0  0  0  0  0
  -16.0352  -43.8274  -15.2720 C   0  0  0  0  0  0  0  0  0  0  0  0
  -15.2612  -44.9646  -15.4673 C   0  0  0  0  0  0  0  0  0  0  0  0
  -18.3101  -40.1968  -12.1906 C   0  0  0  0  0  0  0  0  0  0  0  0
  -17.4642  -41.1434  -11.3246 C   0  0  0  0  0  0  0  0  0  0  0  0
  -16.8563  -42.2599  -12.1280 C   0  0  0  0  0  0  0  0  0  0  0  0
  -16.0740  -43.3263  -11.6714 C   0  0  0  0  0  0  0  0  0  0  0  0
  -15.7049  -44.0709  -12.8742 C   0  0  0  0  0  0  0  0  0  0  0  0
  -14.9474  -45.2154  -13.1093 C   0  0  0  0  0  0  0  0  0  0  0  0
  -14.7189  -45.6801  -14.3958 C   0  0  0  0  0  0  0  0  0  0  0  0
  -13.8836  -46.9200  -14.6307 C   0  0  0  0  0  0  0  0  0  0  0  0
  -18.5087  -38.8907  -14.3914 C   0  0  0  0  0  0  0  0  0  0  0  0
  -19.6471  -38.2865  -13.8589 C   0  0  0  0  0  0  0  0  0  0  0  0
  -20.3278  -37.3068  -14.5647 C   0  0  0  0  0  0  0  0  0  0  0  0
  -19.8846  -36.9126  -15.8075 C   0  0  0  0  0  0  0  0  0  0  0  0
  -18.7595  -37.5002  -16.3523 C   0  0  0  0  0  0  0  0  0  0  0  0
  -18.0770  -38.4823  -15.6521 C   0  0  0  0  0  0  0  0  0  0  0  0
  -15.6943  -43.6390  -10.3046 C   0  0  0  0  0  0  0  0  0  0  0  0
  -15.2580  -42.7614   -9.3887 N   0  0  0  0  0  0  0  0  0  0  0  0
  -15.0773  -43.4643   -8.2582 N   0  0  0  0  0  0  0  0  0  0  0  0
  -15.3935  -44.7167   -8.4693 N   0  0  0  0  0  0  0  0  0  0  0  0
  -15.7820  -44.8517   -9.7365 N   0  0  0  0  0  0  0  0  0  0  0  0
  -15.1019  -41.7981   -9.5186 H   0  0  0  0  0  0  0  0  0  0  0  0
  -15.8680  -38.3801  -12.9067 C   0  0  0  0  0  0  0  0  0  0  0  0
  -16.6403  -37.4902  -12.5515 O   0  0  0  0  0  0  0  0  0  0  0  0
  -16.2894  -39.5362  -13.4612 N   0  0  0  0  0  0  0  0  0  0  0  0
  -15.6080  -40.1583  -13.8044 H   0  0  0  0  0  0  0  0  0  0  0  0
  -14.1602  -39.8957  -10.7214 Cl  0  0  0  0  0  0  0  0  0  0  0  0
  -13.5454  -38.7645  -11.8875 C   0  0  0  0  0  0  0  0  0  0  0  0
  -12.2026  -38.4316  -11.8181 C   0  0  0  0  0  0  0  0  0  0  0  0
  -11.6848  -37.4888  -12.7091 C   0  0  0  0  0  0  0  0  0  0  0  0
  -12.5104  -36.8998  -13.6519 C   0  0  0  0  0  0  0  0  0  0  0  0
  -13.8460  -37.2421  -13.7161 C   0  0  0  0  0  0  0  0  0  0  0  0
  -14.3933  -38.1744  -12.8301 C   0  0  0  0  0  0  0  0  0  0  0  0
  -10.3091  -37.1029  -12.6201 N   0  0  0  0  0  0  0  0  0  0  0  0
   -9.2460  -37.6430  -13.2723 C   0  0  0  0  0  0  0  0  0  0  0  0
   -8.1508  -36.9965  -12.9904 N   0  0  0  0  0  0  0  0  0  0  0  0
   -8.4924  -35.9918  -12.0937 N   0  0  0  0  0  0  0  0  0  0  0  0
   -9.7761  -36.0872  -11.8893 C   0  0  0  0  0  0  0  0  0  0  0  0
 19 20  2  0  0  0
 19 18  1  0  0  0
 20 15  1  0  0  0
 18 17  2  0  0  0
  7  8  1  0  0  0
  7  1  1  0  0  0
 28 27  2  0  0  0
  8  9  1  0  0  0
 15  1  1  0  0  0
 15 16  2  0  0  0
 17 16  1  0  0  0
 22 23  1  0  0  0
 22 21  1  0  0  0
  1 29  1  0  0  0
  1  2  1  0  0  0
 23 24  2  0  0  0
 27 29  1  0  0  0
 27 37  1  0  0  0
  9  3  1  0  0  0
  9 10  2  0  0  0
  2  3  1  0  0  0
 21 10  1  0  0  0
 21 25  2  0  0  0
 24 25  1  0  0  0
  3  4  1  0  0  0
 10 11  1  0  0  0
 37 36  2  0  0  0
 37 32  1  0  0  0
 36 35  1  0  0  0
 31 32  1  0  0  0
 32 33  2  0  0  0
 35 34  2  0  0  0
  4 11  2  0  0  0
  4  5  1  0  0  0
 11 12  1  0  0  0
 33 34  1  0  0  0
 34 38  1  0  0  0
  5  6  2  0  0  0
 42 38  1  0  0  0
 42 41  2  0  0  0
 12 13  2  0  0  0
 38 39  1  0  0  0
 41 40  1  0  0  0
  6 13  1  0  0  0
 13 14  1  0  0  0
 39 40  2  0  0  0
 29 30  1  0  0  0
 22 26  1  0  0  0
M  END
> <minimizedAffinity>
-8.33287

$$$$
5EGM_5NY_A_303


 42 48  0  0  0  0  0  0  0  0999 V2000
  -14.3693  -38.3660  -16.1078 C   0  0  0  0  0  0  0  0  0  0  0  0
  -14.3792  -39.8988  -15.7877 C   0  0  0  0  0  0  0  0  0  0  0  0
  -15.4828  -40.2094  -14.8476 N   0  0  0  0  0  0  0  0  0  0  0  0
  -15.5020  -41.2524  -13.9126 C   0  0  0  0  0  0  0  0  0  0  0  0
  -14.5300  -42.2137  -13.6535 C   0  0  0  0  0  0  0  0  0  0  0  0
  -14.7945  -43.1366  -12.6492 C   0  0  0  0  0  0  0  0  0  0  0  0
  -15.7933  -38.0161  -16.5921 C   0  0  0  0  0  0  0  0  0  0  0  0
  -16.8790  -38.2390  -15.5276 C   0  0  0  0  0  0  0  0  0  0  0  0
  -16.6284  -39.4753  -14.7087 C   0  0  0  0  0  0  0  0  0  0  0  0
  -17.4244  -40.0141  -13.6919 C   0  0  0  0  0  0  0  0  0  0  0  0
  -16.6829  -41.1751  -13.2020 C   0  0  0  0  0  0  0  0  0  0  0  0
  -16.9186  -42.1269  -12.2134 C   0  0  0  0  0  0  0  0  0  0  0  0
  -15.9906  -43.1167  -11.9261 C   0  0  0  0  0  0  0  0  0  0  0  0
  -16.2612  -44.1355  -10.8402 C   0  0  0  0  0  0  0  0  0  0  0  0
  -13.2876  -38.0301  -17.1491 C   0  0  0  0  0  0  0  0  0  0  0  0
  -11.9649  -38.4348  -16.9727 C   0  0  0  0  0  0  0  0  0  0  0  0
  -11.0097  -38.1859  -17.9458 C   0  0  0  0  0  0  0  0  0  0  0  0
  -11.3570  -37.5342  -19.1082 C   0  0  0  0  0  0  0  0  0  0  0  0
  -12.6620  -37.1245  -19.3008 C   0  0  0  0  0  0  0  0  0  0  0  0
  -13.6202  -37.3682  -18.3297 C   0  0  0  0  0  0  0  0  0  0  0  0
  -18.7079  -39.5352  -13.2089 C   0  0  0  0  0  0  0  0  0  0  0  0
  -19.8012  -40.2850  -13.0043 N   0  0  0  0  0  0  0  0  0  0  0  0
  -20.7331  -39.4541  -12.5082 N   0  0  0  0  0  0  0  0  0  0  0  0
  -20.2324  -38.2489  -12.4081 N   0  0  0  0  0  0  0  0  0  0  0  0
  -18.9714  -38.2728  -12.8373 N   0  0  0  0  0  0  0  0  0  0  0  0
  -19.9006  -41.2482  -13.1816 H   0  0  0  0  0  0  0  0  0  0  0  0
  -13.9997  -36.3813  -14.6413 C   0  0  0  0  0  0  0  0  0  0  0  0
  -14.0223  -35.5846  -15.5790 O   0  0  0  0  0  0  0  0  0  0  0  0
  -14.0960  -37.7165  -14.8134 N   0  0  0  0  0  0  0  0  0  0  0  0
  -13.9761  -38.2930  -14.0244 H   0  0  0  0  0  0  0  0  0  0  0  0
  -15.8739  -34.1771  -13.3694 Cl  0  0  0  0  0  0  0  0  0  0  0  0
  -14.5011  -34.9119  -12.5992 C   0  0  0  0  0  0  0  0  0  0  0  0
  -14.1397  -34.4481  -11.3449 C   0  0  0  0  0  0  0  0  0  0  0  0
  -13.0124  -34.9825  -10.7169 C   0  0  0  0  0  0  0  0  0  0  0  0
  -12.2706  -35.9681  -11.3459 C   0  0  0  0  0  0  0  0  0  0  0  0
  -12.6420  -36.4269  -12.5936 C   0  0  0  0  0  0  0  0  0  0  0  0
  -13.7591  -35.9027  -13.2500 C   0  0  0  0  0  0  0  0  0  0  0  0
  -12.6021  -34.4816   -9.4401 N   0  0  0  0  0  0  0  0  0  0  0  0
  -13.3335  -33.7577   -8.5523 C   0  0  0  0  0  0  0  0  0  0  0  0
  -12.6509  -33.5270   -7.4671 N   0  0  0  0  0  0  0  0  0  0  0  0
  -11.3999  -34.1045   -7.6444 N   0  0  0  0  0  0  0  0  0  0  0  0
  -11.4010  -34.6548   -8.8260 C   0  0  0  0  0  0  0  0  0  0  0  0
 19 20  2  0  0  0
 19 18  1  0  0  0
 20 15  1  0  0  0
 18 17  2  0  0  0
  7  8  1  0  0  0
  7  1  1  0  0  0
 28 27  2  0  0  0
  8  9  1  0  0  0
 15  1  1  0  0  0
 15 16  2  0  0  0
 17 16  1  0  0  0
 22 23  1  0  0  0
 22 21  1  0  0  0
  1 29  1  0  0  0
  1  2  1  0  0  0
 23 24  2  0  0  0
 27 29  1  0  0  0
 27 37  1  0  0  0
  9  3  1  0  0  0
  9 10  2  0  0  0
  2  3  1  0  0  0
 21 10  1  0  0  0
 21 25  2  0  0  0
 24 25  1  0  0  0
  3  4  1  0  0  0
 10 11  1  0  0  0
 37 36  2  0  0  0
 37 32  1  0  0  0
 36 35  1  0  0  0
 31 32  1  0  0  0
 32 33  2  0  0  0
 35 34  2  0  0  0
  4 11  2  0  0  0
  4  5  1  0  0  0
 11 12  1  0  0  0
 33 34  1  0  0  0
 34 38  1  0  0  0
  5  6  2  0  0  0
 42 38  1  0  0  0
 42 41  2  0  0  0
 12 13  2  0  0  0
 38 39  1  0  0  0
 41 40  1  0  0  0
  6 13  1  0  0  0
 13 14  1  0  0  0
 39 40  2  0  0  0
 29 30  1  0  0  0
 22 26  1  0  0  0
M  END
> <minimizedAffinity>
-8.32934

$$$$
5EGM_5NY_A_303


 42 48  0  0  0  0  0  0  0  0999 V2000
  -15.0158  -43.2916  -15.1733 C   0  0  0  0  0  0  0  0  0  0  0  0
  -16.3221  -42.4732  -15.4494 C   0  0  0  0  0  0  0  0  0  0  0  0
  -16.3032  -41.2154  -14.6647 N   0  0  0  0  0  0  0  0  0  0  0  0
  -17.4236  -40.5232  -14.1874 C   0  0  0  0  0  0  0  0  0  0  0  0
  -18.7720  -40.8343  -14.3325 C   0  0  0  0  0  0  0  0  0  0  0  0
  -19.6933  -39.9798  -13.7396 C   0  0  0  0  0  0  0  0  0  0  0  0
  -13.8377  -42.3333  -15.4535 C   0  0  0  0  0  0  0  0  0  0  0  0
  -13.8006  -41.1122  -14.5211 C   0  0  0  0  0  0  0  0  0  0  0  0
  -15.1750  -40.5752  -14.2310 C   0  0  0  0  0  0  0  0  0  0  0  0
  -15.5215  -39.4543  -13.4686 C   0  0  0  0  0  0  0  0  0  0  0  0
  -16.9833  -39.4303  -13.4683 C   0  0  0  0  0  0  0  0  0  0  0  0
  -17.9370  -38.5889  -12.9014 C   0  0  0  0  0  0  0  0  0  0  0  0
  -19.2942  -38.8435  -13.0299 C   0  0  0  0  0  0  0  0  0  0  0  0
  -20.3148  -37.9225  -12.3970 C   0  0  0  0  0  0  0  0  0  0  0  0
  -14.9698  -44.5606  -16.0419 C   0  0  0  0  0  0  0  0  0  0  0  0
  -13.9841  -45.5290  -15.8540 C   0  0  0  0  0  0  0  0  0  0  0  0
  -13.9877  -46.7000  -16.5956 C   0  0  0  0  0  0  0  0  0  0  0  0
  -14.9725  -46.9255  -17.5314 C   0  0  0  0  0  0  0  0  0  0  0  0
  -15.9568  -45.9776  -17.7328 C   0  0  0  0  0  0  0  0  0  0  0  0
  -15.9561  -44.8038  -16.9961 C   0  0  0  0  0  0  0  0  0  0  0  0
  -14.6363  -38.5110  -12.8075 C   0  0  0  0  0  0  0  0  0  0  0  0
  -14.0298  -38.6967  -11.6256 N   0  0  0  0  0  0  0  0  0  0  0  0
  -13.2704  -37.6071  -11.4233 N   0  0  0  0  0  0  0  0  0  0  0  0
  -13.4011  -36.7911  -12.4383 N   0  0  0  0  0  0  0  0  0  0  0  0
  -14.2461  -37.3316  -13.3152 N   0  0  0  0  0  0  0  0  0  0  0  0
  -14.1224  -39.4735  -11.0278 H   0  0  0  0  0  0  0  0  0  0  0  0
  -16.1203  -44.2394  -13.1465 C   0  0  0  0  0  0  0  0  0  0  0  0
  -17.1697  -44.4905  -13.7383 O   0  0  0  0  0  0  0  0  0  0  0  0
  -15.0775  -43.6191  -13.7377 N   0  0  0  0  0  0  0  0  0  0  0  0
  -14.3096  -43.3696  -13.1744 H   0  0  0  0  0  0  0  0  0  0  0  0
  -16.4897  -41.9231  -11.0282 Cl  0  0  0  0  0  0  0  0  0  0  0  0
  -16.0984  -43.5768  -10.6683 C   0  0  0  0  0  0  0  0  0  0  0  0
  -15.8510  -43.9087   -9.3464 C   0  0  0  0  0  0  0  0  0  0  0  0
  -15.4863  -45.2185   -9.0268 C   0  0  0  0  0  0  0  0  0  0  0  0
  -15.3785  -46.1712  -10.0260 C   0  0  0  0  0  0  0  0  0  0  0  0
  -15.6319  -45.8315  -11.3396 C   0  0  0  0  0  0  0  0  0  0  0  0
  -15.9883  -44.5261  -11.6894 C   0  0  0  0  0  0  0  0  0  0  0  0
  -15.1850  -45.5648   -7.6708 N   0  0  0  0  0  0  0  0  0  0  0  0
  -15.6891  -46.5936   -6.9396 C   0  0  0  0  0  0  0  0  0  0  0  0
  -15.1406  -46.6367   -5.7589 N   0  0  0  0  0  0  0  0  0  0  0  0
  -14.2444  -45.5774   -5.6891 N   0  0  0  0  0  0  0  0  0  0  0  0
  -14.3006  -44.9580   -6.8346 C   0  0  0  0  0  0  0  0  0  0  0  0
 19 20  2  0  0  0
 19 18  1  0  0  0
 20 15  1  0  0  0
 18 17  2  0  0  0
  7  8  1  0  0  0
  7  1  1  0  0  0
 28 27  2  0  0  0
  8  9  1  0  0  0
 15  1  1  0  0  0
 15 16  2  0  0  0
 17 16  1  0  0  0
 22 23  1  0  0  0
 22 21  1  0  0  0
  1 29  1  0  0  0
  1  2  1  0  0  0
 23 24  2  0  0  0
 27 29  1  0  0  0
 27 37  1  0  0  0
  9  3  1  0  0  0
  9 10  2  0  0  0
  2  3  1  0  0  0
 21 10  1  0  0  0
 21 25  2  0  0  0
 24 25  1  0  0  0
  3  4  1  0  0  0
 10 11  1  0  0  0
 37 36  2  0  0  0
 37 32  1  0  0  0
 36 35  1  0  0  0
 31 32  1  0  0  0
 32 33  2  0  0  0
 35 34  2  0  0  0
  4 11  2  0  0  0
  4  5  1  0  0  0
 11 12  1  0  0  0
 33 34  1  0  0  0
 34 38  1  0  0  0
  5  6  2  0  0  0
 42 38  1  0  0  0
 42 41  2  0  0  0
 12 13  2  0  0  0
 38 39  1  0  0  0
 41 40  1  0  0  0
  6 13  1  0  0  0
 13 14  1  0  0  0
 39 40  2  0  0  0
 29 30  1  0  0  0
 22 26  1  0  0  0
M  END
> <minimizedAffinity>
-8.02519

$$$$
5EGM_5NY_A_303


 42 48  0  0  0  0  0  0  0  0999 V2000
  -15.3654  -39.6406  -12.8037 C   0  0  0  0  0  0  0  0  0  0  0  0
  -15.3062  -39.9542  -14.3368 C   0  0  0  0  0  0  0  0  0  0  0  0
  -16.4898  -40.7544  -14.7329 N   0  0  0  0  0  0  0  0  0  0  0  0
  -16.5475  -41.6783  -15.7843 C   0  0  0  0  0  0  0  0  0  0  0  0
  -15.5485  -42.0502  -16.6785 C   0  0  0  0  0  0  0  0  0  0  0  0
  -15.8659  -43.0137  -17.6280 C   0  0  0  0  0  0  0  0  0  0  0  0
  -16.7424  -38.9897  -12.5483 C   0  0  0  0  0  0  0  0  0  0  0  0
  -17.9293  -39.9158  -12.8570 C   0  0  0  0  0  0  0  0  0  0  0  0
  -17.6924  -40.7563  -14.0813 C   0  0  0  0  0  0  0  0  0  0  0  0
  -18.5644  -41.6692  -14.6846 C   0  0  0  0  0  0  0  0  0  0  0  0
  -17.8074  -42.2422  -15.7964 C   0  0  0  0  0  0  0  0  0  0  0  0
  -18.0923  -43.1935  -16.7724 C   0  0  0  0  0  0  0  0  0  0  0  0
  -17.1383  -43.5881  -17.6985 C   0  0  0  0  0  0  0  0  0  0  0  0
  -17.4647  -44.6317  -18.7447 C   0  0  0  0  0  0  0  0  0  0  0  0
  -14.1933  -38.7373  -12.3829 C   0  0  0  0  0  0  0  0  0  0  0  0
  -13.2239  -39.1833  -11.4852 C   0  0  0  0  0  0  0  0  0  0  0  0
  -12.1355  -38.3884  -11.1616 C   0  0  0  0  0  0  0  0  0  0  0  0
  -11.9946  -37.1410  -11.7279 C   0  0  0  0  0  0  0  0  0  0  0  0
  -12.9451  -36.6811  -12.6183 C   0  0  0  0  0  0  0  0  0  0  0  0
  -14.0368  -37.4707  -12.9431 C   0  0  0  0  0  0  0  0  0  0  0  0
  -19.9269  -41.9957  -14.3008 C   0  0  0  0  0  0  0  0  0  0  0  0
  -20.3918  -43.2212  -14.0153 N   0  0  0  0  0  0  0  0  0  0  0  0
  -21.6772  -43.0568  -13.6609 N   0  0  0  0  0  0  0  0  0  0  0  0
  -21.9861  -41.7864  -13.7213 N   0  0  0  0  0  0  0  0  0  0  0  0
  -20.9125  -41.1037  -14.1165 N   0  0  0  0  0  0  0  0  0  0  0  0
  -19.8925  -44.0687  -14.0570 H   0  0  0  0  0  0  0  0  0  0  0  0
  -15.7700  -41.2188  -10.9138 C   0  0  0  0  0  0  0  0  0  0  0  0
  -16.2096  -40.3418  -10.1709 O   0  0  0  0  0  0  0  0  0  0  0  0
  -15.2950  -40.9597  -12.1503 N   0  0  0  0  0  0  0  0  0  0  0  0
  -14.8750  -41.6986  -12.6472 H   0  0  0  0  0  0  0  0  0  0  0  0
  -16.2866  -43.6302  -12.8906 Cl  0  0  0  0  0  0  0  0  0  0  0  0
  -15.8841  -43.7649  -11.2062 C   0  0  0  0  0  0  0  0  0  0  0  0
  -15.8558  -45.0327  -10.6487 C   0  0  0  0  0  0  0  0  0  0  0  0
  -15.5835  -45.1746   -9.2861 C   0  0  0  0  0  0  0  0  0  0  0  0
  -15.3416  -44.0554   -8.5075 C   0  0  0  0  0  0  0  0  0  0  0  0
  -15.3672  -42.7968   -9.0737 C   0  0  0  0  0  0  0  0  0  0  0  0
  -15.6476  -42.6244  -10.4321 C   0  0  0  0  0  0  0  0  0  0  0  0
  -15.5944  -46.4752   -8.6878 N   0  0  0  0  0  0  0  0  0  0  0  0
  -15.2724  -47.6628   -9.2648 C   0  0  0  0  0  0  0  0  0  0  0  0
  -15.3408  -48.6335   -8.3987 N   0  0  0  0  0  0  0  0  0  0  0  0
  -15.7466  -48.0739   -7.1936 N   0  0  0  0  0  0  0  0  0  0  0  0
  -15.8955  -46.7957   -7.4009 C   0  0  0  0  0  0  0  0  0  0  0  0
 19 20  2  0  0  0
 19 18  1  0  0  0
 20 15  1  0  0  0
 18 17  2  0  0  0
  7  8  1  0  0  0
  7  1  1  0  0  0
 28 27  2  0  0  0
  8  9  1  0  0  0
 15  1  1  0  0  0
 15 16  2  0  0  0
 17 16  1  0  0  0
 22 23  1  0  0  0
 22 21  1  0  0  0
  1 29  1  0  0  0
  1  2  1  0  0  0
 23 24  2  0  0  0
 27 29  1  0  0  0
 27 37  1  0  0  0
  9  3  1  0  0  0
  9 10  2  0  0  0
  2  3  1  0  0  0
 21 10  1  0  0  0
 21 25  2  0  0  0
 24 25  1  0  0  0
  3  4  1  0  0  0
 10 11  1  0  0  0
 37 36  2  0  0  0
 37 32  1  0  0  0
 36 35  1  0  0  0
 31 32  1  0  0  0
 32 33  2  0  0  0
 35 34  2  0  0  0
  4 11  2  0  0  0
  4  5  1  0  0  0
 11 12  1  0  0  0
 33 34  1  0  0  0
 34 38  1  0  0  0
  5  6  2  0  0  0
 42 38  1  0  0  0
 42 41  2  0  0  0
 12 13  2  0  0  0
 38 39  1  0  0  0
 41 40  1  0  0  0
  6 13  1  0  0  0
 13 14  1  0  0  0
 39 40  2  0  0  0
 29 30  1  0  0  0
 22 26  1  0  0  0
M  END
> <minimizedAffinity>
-8.00350

$$$$
