3IBN_O60_A_300
  RCSB PDB12061709033D
Coordinates from PDB:3IBN:A:300 Model:1 without hydrogens
 20 19  0  0  0  0            999 V2000
   -4.9460    1.8050   14.4600   C 0  0  0  0  0  0  0  0  0  0  0  0
   -5.3180   -0.5460   16.0850   N 0  0  0  0  0  0  0  0  0  0  0  0
   -7.1370    1.0470   16.4420   O 0  0  0  0  0  0  0  0  0  0  0  0
   -5.7620    0.8380   16.7080   S 0  0  0  0  0  0  0  0  0  0  0  0
   -4.3150    3.0270   13.9130   C 0  0  0  0  0  0  0  0  0  0  0  0
   -2.0740   12.5430   10.5550   N 0  0  0  0  0  0  0  0  0  0  0  0
   -5.2890    0.8990   18.0460   O 0  0  0  0  0  0  0  0  0  0  0  0
   -2.4700   13.1470   11.9690   S 0  0  0  0  0  0  0  0  0  0  0  0
   -5.1070    4.2790   14.1520   C 0  0  0  0  0  0  0  0  0  0  0  0
   -4.9990    1.9510   15.9130   O 0  0  0  0  0  0  0  0  0  0  0  0
   -4.4740    5.5070   13.5580   C 0  0  0  0  0  0  0  0  0  0  0  0
   -2.4550   11.9550   12.9930   O 0  0  0  0  0  0  0  0  0  0  0  0
   -3.1600    5.8790   14.1790   C 0  0  0  0  0  0  0  0  0  0  0  0
   -1.4450   14.0450   12.3870   O 0  0  0  0  0  0  0  0  0  0  0  0
   -2.5190    7.0420   13.5440   C 0  0  0  0  0  0  0  0  0  0  0  0
   -3.8210   13.5980   11.9070   O 0  0  0  0  0  0  0  0  0  0  0  0
   -1.2880    7.5110   14.2610   C 0  0  0  0  0  0  0  0  0  0  0  0
   -0.7140    8.7900   13.7140   C 0  0  0  0  0  0  0  0  0  0  0  0
   -1.6160    9.9720   13.8960   C 0  0  0  0  0  0  0  0  0  0  0  0
   -1.2730   11.1070   13.0280   C 0  0  0  0  0  0  0  0  0  0  0  0
  1  5  1  0  0  0  0
  1 10  1  0  0  0  0
  2  4  1  0  0  0  0
  3  4  2  0  0  0  0
  4  7  2  0  0  0  0
  4 10  1  0  0  0  0
  5  9  1  0  0  0  0
  6  8  1  0  0  0  0
  8 12  1  0  0  0  0
  8 14  2  0  0  0  0
  8 16  2  0  0  0  0
  9 11  1  0  0  0  0
 11 13  1  0  0  0  0
 12 20  1  0  0  0  0
 13 15  1  0  0  0  0
 15 17  1  0  0  0  0
 17 18  1  0  0  0  0
 18 19  1  0  0  0  0
 19 20  1  0  0  0  0
A    1
C1
A    2
N1
A    3
O1
A    4
S1
A    5
C2
A    6
N2
A    7
O2
A    8
S2
A    9
C3
A   10
O3
A   11
C4
A   12
O4
A   13
C5
A   14
O5
A   15
C6
A   16
O6
A   17
C7
A   18
C8
A   19
C9
A   20
C10
M  END
>  <InstanceId>
3IBN_O60_A_300

>  <ChemCompId>
O60

>  <PdbId>
3IBN

>  <ChainId>
A

>  <ResidueNumber>
300

>  <InsertionCode>


>  <Model>
1

>  <AltIds>


>  <MissingHeavyAtoms>
0

>  <ObservedFormula>
C10 N2 O6 S2

>  <Name>
decane-1,10-diyl disulfamate

>  <SystematicName>
10-sulfamoyloxydecyl sulfamate

>  <Synonyms>
1,10-decanediol disulfamate

>  <Type>
NON-POLYMER

>  <Formula>
C10 H24 N2 O6 S2

>  <MolecularWeight>
332.437

>  <ModifiedDate>
2011-06-04

>  <Parent>


>  <OneLetterCode>


>  <SubcomponentList>


>  <AmbiguousFlag>
N

>  <InChI>
InChI=1S/C10H24N2O6S2/c11-19(13,14)17-9-7-5-3-1-2-4-6-8-10-18-20(12,15)16/h1-10H2,(H2,11,13,14)(H2,12,15,16)

>  <InChIKey>
XPDWKENHTJHZSC-UHFFFAOYSA-N

>  <SMILES>
C(CCCCCOS(=O)(=O)N)CCCCOS(=O)(=O)N

$$$$
