2RFH_23N_A_1309


 16 16  0  0  0  0  0  0  0  0999 V2000
   10.2890  -10.7272   22.1793 C   0  0  0  0  0  0  0  0  0  0  0  0
   10.7419  -12.0208   22.8979 C   0  0  0  0  0  0  0  0  0  0  0  0
   10.1061  -13.0247   22.5606 O   0  0  0  0  0  0  0  0  0  0  0  0
   11.6771  -12.0024   23.7387 O   0  0  0  0  0  0  0  0  0  0  0  0
   12.1104  -11.1963   23.9398 H   0  0  0  0  0  0  0  0  0  0  0  0
    9.4513  -10.9795   20.8999 C   0  0  0  0  0  0  0  0  0  0  0  0
    8.0511   -9.0709   20.0031 C   0  0  0  0  0  0  0  0  0  0  0  0
    7.0068   -8.1531   20.1151 C   0  0  0  0  0  0  0  0  0  0  0  0
    6.1821   -8.1728   21.2456 C   0  0  0  0  0  0  0  0  0  0  0  0
    6.4211   -9.1122   22.2487 C   0  0  0  0  0  0  0  0  0  0  0  0
    7.4709  -10.0210   22.1395 C   0  0  0  0  0  0  0  0  0  0  0  0
    8.2830  -10.0048   21.0092 C   0  0  0  0  0  0  0  0  0  0  0  0
   11.4235   -9.7023   22.0263 C   0  0  0  0  0  0  0  0  0  0  0  0
   11.4238   -8.8788   23.2601 N   0  0  0  0  0  0  0  0  0  0  0  0
   10.2463   -9.1349   24.0400 O   0  0  0  0  0  0  0  0  0  0  0  0
   12.5718   -9.0801   24.1179 O   0  0  0  0  0  0  0  0  0  0  0  0
  8  7  2  0  0  0
  8  9  1  0  0  0
  7 12  1  0  0  0
 16 14  2  0  0  0
  9 10  2  0  0  0
 13 14  1  0  0  0
 13  1  1  0  0  0
 12  6  1  0  0  0
 12 11  2  0  0  0
 14 15  1  0  0  0
  6  1  1  0  0  0
 10 11  1  0  0  0
  1  2  1  0  0  0
  2  3  2  0  0  0
  2  4  1  0  0  0
  4  5  1  0  0  0
M  CHG 1  14   1
M  CHG 1  15  -1
M  END
> <minimizedAffinity>
-6.55725

$$$$
2RFH_23N_A_1309


 16 16  0  0  0  0  0  0  0  0999 V2000
   12.8661  -10.5016   22.3761 C   0  0  0  0  0  0  0  0  0  0  0  0
   12.8876  -10.2158   23.8969 C   0  0  0  0  0  0  0  0  0  0  0  0
   12.7606  -11.2276   24.5940 O   0  0  0  0  0  0  0  0  0  0  0  0
   13.0260   -9.0451   24.3351 O   0  0  0  0  0  0  0  0  0  0  0  0
   13.1165   -8.3289   23.7378 H   0  0  0  0  0  0  0  0  0  0  0  0
   11.8940  -11.6359   21.9636 C   0  0  0  0  0  0  0  0  0  0  0  0
    9.5411  -10.7880   22.3547 C   0  0  0  0  0  0  0  0  0  0  0  0
    8.3733  -10.1583   21.9245 C   0  0  0  0  0  0  0  0  0  0  0  0
    8.2997   -9.6418   20.6260 C   0  0  0  0  0  0  0  0  0  0  0  0
    9.3996   -9.7686   19.7774 C   0  0  0  0  0  0  0  0  0  0  0  0
   10.5612  -10.4069   20.2057 C   0  0  0  0  0  0  0  0  0  0  0  0
   10.6341  -10.9108   21.5011 C   0  0  0  0  0  0  0  0  0  0  0  0
   14.2739  -10.5934   21.7673 C   0  0  0  0  0  0  0  0  0  0  0  0
   14.7226   -9.2017   21.5179 N   0  0  0  0  0  0  0  0  0  0  0  0
   13.5962   -8.3352   21.3156 O   0  0  0  0  0  0  0  0  0  0  0  0
   15.5318   -8.6318   22.5736 O   0  0  0  0  0  0  0  0  0  0  0  0
  8  7  2  0  0  0
  8  9  1  0  0  0
  7 12  1  0  0  0
 16 14  2  0  0  0
  9 10  2  0  0  0
 13 14  1  0  0  0
 13  1  1  0  0  0
 12  6  1  0  0  0
 12 11  2  0  0  0
 14 15  1  0  0  0
  6  1  1  0  0  0
 10 11  1  0  0  0
  1  2  1  0  0  0
  2  3  2  0  0  0
  2  4  1  0  0  0
  4  5  1  0  0  0
M  CHG 1  14   1
M  CHG 1  15  -1
M  END
> <minimizedAffinity>
-6.39895

$$$$
2RFH_23N_A_1309


 16 16  0  0  0  0  0  0  0  0999 V2000
    7.6046   -9.3469   21.1786 C   0  0  0  0  0  0  0  0  0  0  0  0
    7.0406   -9.2406   22.6159 C   0  0  0  0  0  0  0  0  0  0  0  0
    6.0856   -9.9938   22.8314 O   0  0  0  0  0  0  0  0  0  0  0  0
    7.5429   -8.4475   23.4528 O   0  0  0  0  0  0  0  0  0  0  0  0
    8.2692   -7.9078   23.2095 H   0  0  0  0  0  0  0  0  0  0  0  0
    9.1158   -9.0202   21.0709 C   0  0  0  0  0  0  0  0  0  0  0  0
   10.9599   -9.9706   22.5213 C   0  0  0  0  0  0  0  0  0  0  0  0
   11.6196  -11.0386   23.1292 C   0  0  0  0  0  0  0  0  0  0  0  0
   11.1203  -12.3378   22.9839 C   0  0  0  0  0  0  0  0  0  0  0  0
    9.9673  -12.5454   22.2266 C   0  0  0  0  0  0  0  0  0  0  0  0
    9.3159  -11.4787   21.6119 C   0  0  0  0  0  0  0  0  0  0  0  0
    9.8100  -10.1867   21.7668 C   0  0  0  0  0  0  0  0  0  0  0  0
    6.7108   -8.6583   20.1355 C   0  0  0  0  0  0  0  0  0  0  0  0
    5.9935   -7.5684   20.8412 N   0  0  0  0  0  0  0  0  0  0  0  0
    6.2672   -6.3008   20.2259 O   0  0  0  0  0  0  0  0  0  0  0  0
    4.5564   -7.7299   20.8952 O   0  0  0  0  0  0  0  0  0  0  0  0
  8  7  2  0  0  0
  8  9  1  0  0  0
  7 12  1  0  0  0
 16 14  2  0  0  0
  9 10  2  0  0  0
 13 14  1  0  0  0
 13  1  1  0  0  0
 12  6  1  0  0  0
 12 11  2  0  0  0
 14 15  1  0  0  0
  6  1  1  0  0  0
 10 11  1  0  0  0
  1  2  1  0  0  0
  2  3  2  0  0  0
  2  4  1  0  0  0
  4  5  1  0  0  0
M  CHG 1  14   1
M  CHG 1  15  -1
M  END
> <minimizedAffinity>
-6.27401

$$$$
2RFH_23N_A_1309


 16 16  0  0  0  0  0  0  0  0999 V2000
   11.1157  -10.2489   21.7848 C   0  0  0  0  0  0  0  0  0  0  0  0
   11.1514   -9.0684   22.7849 C   0  0  0  0  0  0  0  0  0  0  0  0
   11.1488   -7.9584   22.2430 O   0  0  0  0  0  0  0  0  0  0  0  0
   11.1779   -9.2702   24.0260 O   0  0  0  0  0  0  0  0  0  0  0  0
   11.1778  -10.1463   24.3583 H   0  0  0  0  0  0  0  0  0  0  0  0
    9.8483  -11.1333   21.9017 C   0  0  0  0  0  0  0  0  0  0  0  0
    8.6669   -9.6215   20.2504 C   0  0  0  0  0  0  0  0  0  0  0  0
    7.6383   -8.7462   19.9022 C   0  0  0  0  0  0  0  0  0  0  0  0
    6.6277   -8.4581   20.8264 C   0  0  0  0  0  0  0  0  0  0  0  0
    6.6675   -9.0510   22.0885 C   0  0  0  0  0  0  0  0  0  0  0  0
    7.7012   -9.9168   22.4377 C   0  0  0  0  0  0  0  0  0  0  0  0
    8.6992  -10.2085   21.5124 C   0  0  0  0  0  0  0  0  0  0  0  0
   12.4451  -11.0168   21.7218 C   0  0  0  0  0  0  0  0  0  0  0  0
   12.2754  -12.2326   22.5544 N   0  0  0  0  0  0  0  0  0  0  0  0
   13.2425  -13.2309   22.1958 O   0  0  0  0  0  0  0  0  0  0  0  0
   12.3846  -12.0064   23.9796 O   0  0  0  0  0  0  0  0  0  0  0  0
  8  7  2  0  0  0
  8  9  1  0  0  0
  7 12  1  0  0  0
 16 14  2  0  0  0
  9 10  2  0  0  0
 13 14  1  0  0  0
 13  1  1  0  0  0
 12  6  1  0  0  0
 12 11  2  0  0  0
 14 15  1  0  0  0
  6  1  1  0  0  0
 10 11  1  0  0  0
  1  2  1  0  0  0
  2  3  2  0  0  0
  2  4  1  0  0  0
  4  5  1  0  0  0
M  CHG 1  14   1
M  CHG 1  15  -1
M  END
> <minimizedAffinity>
-6.25975

$$$$
2RFH_23N_A_1309


 16 16  0  0  0  0  0  0  0  0999 V2000
   13.0689   -9.8856   22.4359 C   0  0  0  0  0  0  0  0  0  0  0  0
   14.2110   -8.9071   22.0712 C   0  0  0  0  0  0  0  0  0  0  0  0
   14.0076   -8.2721   21.0313 O   0  0  0  0  0  0  0  0  0  0  0  0
   15.2317   -8.8014   22.7984 O   0  0  0  0  0  0  0  0  0  0  0  0
   15.3100   -9.3210   23.5742 H   0  0  0  0  0  0  0  0  0  0  0  0
   11.8376   -9.2013   23.0822 C   0  0  0  0  0  0  0  0  0  0  0  0
    9.3808   -9.7012   22.7325 C   0  0  0  0  0  0  0  0  0  0  0  0
    8.3102  -10.1125   21.9388 C   0  0  0  0  0  0  0  0  0  0  0  0
    8.5253  -10.4353   20.5942 C   0  0  0  0  0  0  0  0  0  0  0  0
    9.8137  -10.3435   20.0677 C   0  0  0  0  0  0  0  0  0  0  0  0
   10.8832   -9.9424   20.8648 C   0  0  0  0  0  0  0  0  0  0  0  0
   10.6638   -9.6128   22.1991 C   0  0  0  0  0  0  0  0  0  0  0  0
   13.5714  -11.1449   23.1589 C   0  0  0  0  0  0  0  0  0  0  0  0
   13.2492  -10.9688   24.5961 N   0  0  0  0  0  0  0  0  0  0  0  0
   13.0895  -12.2423   25.2389 O   0  0  0  0  0  0  0  0  0  0  0  0
   14.2332  -10.2181   25.3460 O   0  0  0  0  0  0  0  0  0  0  0  0
  8  7  2  0  0  0
  8  9  1  0  0  0
  7 12  1  0  0  0
 16 14  2  0  0  0
  9 10  2  0  0  0
 13 14  1  0  0  0
 13  1  1  0  0  0
 12  6  1  0  0  0
 12 11  2  0  0  0
 14 15  1  0  0  0
  6  1  1  0  0  0
 10 11  1  0  0  0
  1  2  1  0  0  0
  2  3  2  0  0  0
  2  4  1  0  0  0
  4  5  1  0  0  0
M  CHG 1  14   1
M  CHG 1  15  -1
M  END
> <minimizedAffinity>
-6.18417

$$$$
2RFH_23N_A_1309


 16 16  0  0  0  0  0  0  0  0999 V2000
    8.2465   -9.8885   21.3675 C   0  0  0  0  0  0  0  0  0  0  0  0
    8.0215   -9.0750   20.0703 C   0  0  0  0  0  0  0  0  0  0  0  0
    8.2282   -9.7204   19.0375 O   0  0  0  0  0  0  0  0  0  0  0  0
    7.6597   -7.8713   20.1139 O   0  0  0  0  0  0  0  0  0  0  0  0
    7.5237   -7.4527   20.9411 H   0  0  0  0  0  0  0  0  0  0  0  0
    8.9060  -11.2717   21.1354 C   0  0  0  0  0  0  0  0  0  0  0  0
   11.0992  -10.0778   21.5506 C   0  0  0  0  0  0  0  0  0  0  0  0
   12.3613   -9.9928   22.1382 C   0  0  0  0  0  0  0  0  0  0  0  0
   12.7960  -11.0050   23.0013 C   0  0  0  0  0  0  0  0  0  0  0  0
   11.9574  -12.0897   23.2586 C   0  0  0  0  0  0  0  0  0  0  0  0
   10.7016  -12.1776   22.6626 C   0  0  0  0  0  0  0  0  0  0  0  0
   10.2688  -11.1641   21.8123 C   0  0  0  0  0  0  0  0  0  0  0  0
    7.0148   -9.8975   22.2862 C   0  0  0  0  0  0  0  0  0  0  0  0
    7.2822   -8.9182   23.3677 N   0  0  0  0  0  0  0  0  0  0  0  0
    6.4447   -9.1778   24.5043 O   0  0  0  0  0  0  0  0  0  0  0  0
    8.6535   -8.8904   23.8292 O   0  0  0  0  0  0  0  0  0  0  0  0
  8  7  2  0  0  0
  8  9  1  0  0  0
  7 12  1  0  0  0
 16 14  2  0  0  0
  9 10  2  0  0  0
 13 14  1  0  0  0
 13  1  1  0  0  0
 12  6  1  0  0  0
 12 11  2  0  0  0
 14 15  1  0  0  0
  6  1  1  0  0  0
 10 11  1  0  0  0
  1  2  1  0  0  0
  2  3  2  0  0  0
  2  4  1  0  0  0
  4  5  1  0  0  0
M  CHG 1  14   1
M  CHG 1  15  -1
M  END
> <minimizedAffinity>
-6.11267

$$$$
2RFH_23N_A_1309


 16 16  0  0  0  0  0  0  0  0999 V2000
   12.4940  -11.3170   22.6115 C   0  0  0  0  0  0  0  0  0  0  0  0
   12.8394  -10.5291   23.8980 C   0  0  0  0  0  0  0  0  0  0  0  0
   13.0269  -11.2478   24.8850 O   0  0  0  0  0  0  0  0  0  0  0  0
   12.9129   -9.2736   23.8897 O   0  0  0  0  0  0  0  0  0  0  0  0
   12.7559   -8.8003   23.0964 H   0  0  0  0  0  0  0  0  0  0  0  0
   11.0991  -11.9917   22.6433 C   0  0  0  0  0  0  0  0  0  0  0  0
    8.9104  -10.8151   22.1604 C   0  0  0  0  0  0  0  0  0  0  0  0
    8.0904  -10.0248   21.3551 C   0  0  0  0  0  0  0  0  0  0  0  0
    8.5881   -9.5037   20.1555 C   0  0  0  0  0  0  0  0  0  0  0  0
    9.9015   -9.7872   19.7807 C   0  0  0  0  0  0  0  0  0  0  0  0
   10.7153  -10.5852   20.5814 C   0  0  0  0  0  0  0  0  0  0  0  0
   10.2200  -11.0937   21.7786 C   0  0  0  0  0  0  0  0  0  0  0  0
   13.6452  -12.2176   22.1374 C   0  0  0  0  0  0  0  0  0  0  0  0
   14.3269  -11.4944   21.0363 N   0  0  0  0  0  0  0  0  0  0  0  0
   13.8357  -11.9342   19.7612 O   0  0  0  0  0  0  0  0  0  0  0  0
   14.1913  -10.0545   21.0870 O   0  0  0  0  0  0  0  0  0  0  0  0
  8  7  2  0  0  0
  8  9  1  0  0  0
  7 12  1  0  0  0
 16 14  2  0  0  0
  9 10  2  0  0  0
 13 14  1  0  0  0
 13  1  1  0  0  0
 12  6  1  0  0  0
 12 11  2  0  0  0
 14 15  1  0  0  0
  6  1  1  0  0  0
 10 11  1  0  0  0
  1  2  1  0  0  0
  2  3  2  0  0  0
  2  4  1  0  0  0
  4  5  1  0  0  0
M  CHG 1  14   1
M  CHG 1  15  -1
M  END
> <minimizedAffinity>
-6.05753

$$$$
2RFH_23N_A_1309


 16 16  0  0  0  0  0  0  0  0999 V2000
   13.8067   -9.9421   21.8632 C   0  0  0  0  0  0  0  0  0  0  0  0
   14.8892   -8.8519   21.6765 C   0  0  0  0  0  0  0  0  0  0  0  0
   15.5180   -8.5949   22.7081 O   0  0  0  0  0  0  0  0  0  0  0  0
   15.0759   -8.3080   20.5580 O   0  0  0  0  0  0  0  0  0  0  0  0
   14.5545   -8.5602   19.8215 H   0  0  0  0  0  0  0  0  0  0  0  0
   12.6941   -9.5568   22.8710 C   0  0  0  0  0  0  0  0  0  0  0  0
   10.7376  -11.1175   22.4912 C   0  0  0  0  0  0  0  0  0  0  0  0
    9.5682  -11.4844   21.8254 C   0  0  0  0  0  0  0  0  0  0  0  0
    9.0470  -10.6542   20.8267 C   0  0  0  0  0  0  0  0  0  0  0  0
    9.7105   -9.4689   20.5091 C   0  0  0  0  0  0  0  0  0  0  0  0
   10.8838   -9.1095   21.1681 C   0  0  0  0  0  0  0  0  0  0  0  0
   11.3938   -9.9330   22.1676 C   0  0  0  0  0  0  0  0  0  0  0  0
   14.4017  -11.3462   22.0515 C   0  0  0  0  0  0  0  0  0  0  0  0
   14.5462  -11.9336   20.6971 N   0  0  0  0  0  0  0  0  0  0  0  0
   13.3540  -11.7255   19.9252 O   0  0  0  0  0  0  0  0  0  0  0  0
   15.6609  -11.4167   19.9326 O   0  0  0  0  0  0  0  0  0  0  0  0
  8  7  2  0  0  0
  8  9  1  0  0  0
  7 12  1  0  0  0
 16 14  2  0  0  0
  9 10  2  0  0  0
 13 14  1  0  0  0
 13  1  1  0  0  0
 12  6  1  0  0  0
 12 11  2  0  0  0
 14 15  1  0  0  0
  6  1  1  0  0  0
 10 11  1  0  0  0
  1  2  1  0  0  0
  2  3  2  0  0  0
  2  4  1  0  0  0
  4  5  1  0  0  0
M  CHG 1  14   1
M  CHG 1  15  -1
M  END
> <minimizedAffinity>
-6.04224

$$$$
2RFH_23N_A_1309


 16 16  0  0  0  0  0  0  0  0999 V2000
   14.8110  -10.4904   21.7994 C   0  0  0  0  0  0  0  0  0  0  0  0
   15.3919   -9.0632   21.6556 C   0  0  0  0  0  0  0  0  0  0  0  0
   16.0397   -8.6895   22.6388 O   0  0  0  0  0  0  0  0  0  0  0  0
   15.1974   -8.3855   20.6141 O   0  0  0  0  0  0  0  0  0  0  0  0
   14.6925   -8.7427   19.9102 H   0  0  0  0  0  0  0  0  0  0  0  0
   14.2394  -10.7973   23.2070 C   0  0  0  0  0  0  0  0  0  0  0  0
   11.9216   -9.8035   22.9877 C   0  0  0  0  0  0  0  0  0  0  0  0
   10.5417   -9.9249   22.8249 C   0  0  0  0  0  0  0  0  0  0  0  0
    9.9702  -11.1911   22.6563 C   0  0  0  0  0  0  0  0  0  0  0  0
   10.7933  -12.3173   22.6574 C   0  0  0  0  0  0  0  0  0  0  0  0
   12.1699  -12.1946   22.8305 C   0  0  0  0  0  0  0  0  0  0  0  0
   12.7358  -10.9328   22.9881 C   0  0  0  0  0  0  0  0  0  0  0  0
   15.7363  -11.5715   21.2196 C   0  0  0  0  0  0  0  0  0  0  0  0
   15.2279  -11.8848   19.8618 N   0  0  0  0  0  0  0  0  0  0  0  0
   15.7203  -13.1581   19.4182 O   0  0  0  0  0  0  0  0  0  0  0  0
   13.7853  -11.9078   19.7496 O   0  0  0  0  0  0  0  0  0  0  0  0
  8  7  2  0  0  0
  8  9  1  0  0  0
  7 12  1  0  0  0
 16 14  2  0  0  0
  9 10  2  0  0  0
 13 14  1  0  0  0
 13  1  1  0  0  0
 12  6  1  0  0  0
 12 11  2  0  0  0
 14 15  1  0  0  0
  6  1  1  0  0  0
 10 11  1  0  0  0
  1  2  1  0  0  0
  2  3  2  0  0  0
  2  4  1  0  0  0
  4  5  1  0  0  0
M  CHG 1  14   1
M  CHG 1  15  -1
M  END
> <minimizedAffinity>
-5.91558

$$$$
2RFH_23N_A_1309


 16 16  0  0  0  0  0  0  0  0999 V2000
   13.0967   -9.6418   22.1457 C   0  0  0  0  0  0  0  0  0  0  0  0
   14.4274   -8.9061   21.8575 C   0  0  0  0  0  0  0  0  0  0  0  0
   15.2645   -9.0233   22.7583 O   0  0  0  0  0  0  0  0  0  0  0  0
   14.5951   -8.2629   20.7898 O   0  0  0  0  0  0  0  0  0  0  0  0
   13.9076   -8.2224   20.1544 H   0  0  0  0  0  0  0  0  0  0  0  0
   11.9369   -8.7023   22.5632 C   0  0  0  0  0  0  0  0  0  0  0  0
   10.6695   -9.3976   20.4852 C   0  0  0  0  0  0  0  0  0  0  0  0
    9.5333   -9.8930   19.8457 C   0  0  0  0  0  0  0  0  0  0  0  0
    8.4228  -10.2816   20.6034 C   0  0  0  0  0  0  0  0  0  0  0  0
    8.4688  -10.1635   21.9926 C   0  0  0  0  0  0  0  0  0  0  0  0
    9.6007   -9.6589   22.6284 C   0  0  0  0  0  0  0  0  0  0  0  0
   10.7069   -9.2825   21.8721 C   0  0  0  0  0  0  0  0  0  0  0  0
   13.2824  -10.8843   23.0304 C   0  0  0  0  0  0  0  0  0  0  0  0
   12.8857  -12.0551   22.2106 N   0  0  0  0  0  0  0  0  0  0  0  0
   13.8629  -13.1012   22.3155 O   0  0  0  0  0  0  0  0  0  0  0  0
   11.5980  -12.6204   22.5518 O   0  0  0  0  0  0  0  0  0  0  0  0
  8  7  2  0  0  0
  8  9  1  0  0  0
  7 12  1  0  0  0
 16 14  2  0  0  0
  9 10  2  0  0  0
 13 14  1  0  0  0
 13  1  1  0  0  0
 12  6  1  0  0  0
 12 11  2  0  0  0
 14 15  1  0  0  0
  6  1  1  0  0  0
 10 11  1  0  0  0
  1  2  1  0  0  0
  2  3  2  0  0  0
  2  4  1  0  0  0
  4  5  1  0  0  0
M  CHG 1  14   1
M  CHG 1  15  -1
M  END
> <minimizedAffinity>
-5.80640

$$$$
