3QPS_CHD_A_211
  RCSB PDB12061710273D
Coordinates from PDB:3QPS:A:211 Model:1 without hydrogens
 29 32  0  0  0  0            999 V2000
   -9.1180   -4.9580  -15.7460   C 0  0  0  0  0  0  0  0  0  0  0  0
   -8.2860   -5.6610  -16.8050   C 0  0  0  0  0  0  0  0  0  0  0  0
   -7.2720   -4.6610  -17.3140   C 0  0  0  0  0  0  0  0  0  0  0  0
   -7.9710   -3.6980  -18.1100   O 0  0  0  0  0  0  0  0  0  0  0  0
   -6.6010   -3.9660  -16.1290   C 0  0  0  0  0  0  0  0  0  0  0  0
   -6.8370   -4.5940  -14.7470   C 0  0  0  0  0  0  0  0  0  0  0  0
   -6.2040   -3.6960  -13.6790   C 0  0  0  0  0  0  0  0  0  0  0  0
   -6.7590   -3.9900  -12.2840   C 0  0  0  0  0  0  0  0  0  0  0  0
   -6.0120   -3.2840  -11.2890   O 0  0  0  0  0  0  0  0  0  0  0  0
   -8.2580   -3.6680  -12.2110   C 0  0  0  0  0  0  0  0  0  0  0  0
   -8.8440   -3.6850  -13.6210   C 0  0  0  0  0  0  0  0  0  0  0  0
   -8.3170   -4.8480  -14.4560   C 0  0  0  0  0  0  0  0  0  0  0  0
  -10.3690   -3.6570  -13.5620   C 0  0  0  0  0  0  0  0  0  0  0  0
  -10.9200   -2.4050  -12.8490   C 0  0  0  0  0  0  0  0  0  0  0  0
  -11.0300   -1.2660  -13.7330   O 0  0  0  0  0  0  0  0  0  0  0  0
  -10.1630   -2.1130  -11.5290   C 0  0  0  0  0  0  0  0  0  0  0  0
   -8.6500   -2.3080  -11.6260   C 0  0  0  0  0  0  0  0  0  0  0  0
   -8.2090   -1.9310  -10.2170   C 0  0  0  0  0  0  0  0  0  0  0  0
   -9.1180   -0.7250   -9.9060   C 0  0  0  0  0  0  0  0  0  0  0  0
  -10.2240   -0.6910  -10.9690   C 0  0  0  0  0  0  0  0  0  0  0  0
  -10.6920   -3.0470  -10.4390   C 0  0  0  0  0  0  0  0  0  0  0  0
   -8.4690   -6.1720  -13.7020   C 0  0  0  0  0  0  0  0  0  0  0  0
  -11.5820   -0.2880  -10.3820   C 0  0  0  0  0  0  0  0  0  0  0  0
  -12.4040    0.5580  -11.3600   C 0  0  0  0  0  0  0  0  0  0  0  0
  -11.4270    0.4360   -9.0430   C 0  0  0  0  0  0  0  0  0  0  0  0
  -11.8010    1.9220   -9.1080   C 0  0  0  0  0  0  0  0  0  0  0  0
   -9.6140    2.7860   -8.7310   O 0  0  0  0  0  0  0  0  0  0  0  0
  -10.6220    2.8000   -9.4860   C 0  0  0  0  0  0  0  0  0  0  0  0
  -10.9130    3.8180  -10.1540   O 0  0  0  0  0  0  0  0  0  0  0  0
  1  2  1  0  0  0  0
  1 12  1  0  0  0  0
  2  3  1  0  0  0  0
  3  4  1  0  0  0  0
  3  5  1  0  0  0  0
  5  6  1  0  0  0  0
  6  7  1  0  0  0  0
  6 12  1  0  0  0  0
  7  8  1  0  0  0  0
  8  9  1  0  0  0  0
  8 10  1  0  0  0  0
 10 11  1  0  0  0  0
 10 17  1  0  0  0  0
 11 12  1  0  0  0  0
 11 13  1  0  0  0  0
 12 22  1  0  0  0  0
 13 14  1  0  0  0  0
 14 15  1  0  0  0  0
 14 16  1  0  0  0  0
 16 17  1  0  0  0  0
 16 20  1  0  0  0  0
 16 21  1  0  0  0  0
 17 18  1  0  0  0  0
 18 19  1  0  0  0  0
 19 20  1  0  0  0  0
 20 23  1  0  0  0  0
 23 24  1  0  0  0  0
 23 25  1  0  0  0  0
 25 26  1  0  0  0  0
 26 28  1  0  0  0  0
 27 28  2  0  0  0  0
 28 29  1  0  0  0  0
A    1
C1
A    2
C2
A    3
C3
A    4
O3
A    5
C4
A    6
C5
A    7
C6
A    8
C7
A    9
O7
A   10
C8
A   11
C9
A   12
C10
A   13
C11
A   14
C12
A   15
O12
A   16
C13
A   17
C14
A   18
C15
A   19
C16
A   20
C17
A   21
C18
A   22
C19
A   23
C20
A   24
C21
A   25
C22
A   26
C23
A   27
O25
A   28
C24
A   29
O26
M  END
>  <InstanceId>
3QPS_CHD_A_211

>  <ChemCompId>
CHD

>  <PdbId>
3QPS

>  <ChainId>
A

>  <ResidueNumber>
211

>  <InsertionCode>


>  <Model>
1

>  <AltIds>


>  <MissingHeavyAtoms>
0

>  <ObservedFormula>
C24 O5

>  <Name>
CHOLIC ACID

>  <SystematicName>
(4R)-4-[(3R,5S,7R,8R,9S,10S,12S,13R,14S,17R)-3,7,12-trihydroxy-10,13-dimethyl-2,3,4,5,6,7,8,9,11,12,14,15,16,17-tetradecahydro-1H-cyclopenta[a]phenanthren-17-yl]pentanoic acid

>  <Synonyms>


>  <Type>
NON-POLYMER

>  <Formula>
C24 H40 O5

>  <MolecularWeight>
408.571

>  <ModifiedDate>
2011-06-04

>  <Parent>


>  <OneLetterCode>


>  <SubcomponentList>


>  <AmbiguousFlag>
N

>  <InChI>
InChI=1S/C24H40O5/c1-13(4-7-21(28)29)16-5-6-17-22-18(12-20(27)24(16,17)3)23(2)9-8-15(25)10-14(23)11-19(22)26/h13-20,22,25-27H,4-12H2,1-3H3,(H,28,29)/t13-,14+,15-,16-,17+,18+,19-,20+,22+,23+,24-/m1/s1

>  <InChIKey>
BHQCQFFYRZLCQQ-OELDTZBJSA-N

>  <SMILES>
C[C@H](CCC(=O)O)[C@H]1CC[C@@H]2[C@@]1([C@H](C[C@H]3[C@H]2[C@@H](C[C@H]4[C@@]3(CC[C@H](C4)O)C)O)O)C

$$$$
