5FYX_FD6_A_1195


 26 29  0  0  0  0  0  0  0  0999 V2000
   14.2568  -25.6488  -20.0928 S   0  0  0  0  0  0  0  0  0  0  0  0
   11.5462  -24.5105  -23.4988 C   0  0  0  0  0  0  0  0  0  0  0  0
   11.8029  -23.8173  -19.8736 N   0  0  0  0  0  0  0  0  0  0  0  0
   12.6168  -25.3415  -23.7169 C   0  0  0  0  0  0  0  0  0  0  0  0
   13.4332  -25.6761  -22.6584 C   0  0  0  0  0  0  0  0  0  0  0  0
   13.1608  -25.1948  -21.3788 C   0  0  0  0  0  0  0  0  0  0  0  0
   12.0824  -24.3275  -21.1631 C   0  0  0  0  0  0  0  0  0  0  0  0
   11.2708  -23.9960  -22.2493 C   0  0  0  0  0  0  0  0  0  0  0  0
   13.3279  -25.2910  -18.6529 C   0  0  0  0  0  0  0  0  0  0  0  0
   13.7504  -25.8565  -17.4532 C   0  0  0  0  0  0  0  0  0  0  0  0
   13.0626  -25.5941  -16.2871 C   0  0  0  0  0  0  0  0  0  0  0  0
   11.9773  -24.7575  -16.2998 C   0  0  0  0  0  0  0  0  0  0  0  0
   10.5159  -24.0845  -24.8359 Cl  0  0  0  0  0  0  0  0  0  0  0  0
   11.5635  -24.1630  -17.4791 C   0  0  0  0  0  0  0  0  0  0  0  0
   12.2335  -24.4193  -18.6753 C   0  0  0  0  0  0  0  0  0  0  0  0
   11.1865  -22.4719  -19.7705 C   0  0  0  0  0  0  0  0  0  0  0  0
   12.1838  -21.3040  -19.8913 C   0  0  0  0  0  0  0  0  0  0  0  0
   12.0415  -20.2792  -18.8729 N   0  0  0  0  0  0  0  0  0  0  0  0
   11.8538  -19.3914  -19.3388 H   0  0  0  0  0  0  0  0  0  0  0  0
   13.2093  -20.1068  -18.0201 N   0  0  0  0  0  0  0  0  0  0  0  0
   15.9301  -19.3737  -17.5925 N   0  0  0  0  0  0  0  0  0  0  0  0
   13.6376  -18.7048  -18.0277 C   0  0  0  0  0  0  0  0  0  0  0  0
   14.8339  -18.5265  -17.1501 C   0  0  0  0  0  0  0  0  0  0  0  0
   15.5071  -20.7683  -17.5468 C   0  0  0  0  0  0  0  0  0  0  0  0
   14.2985  -20.9919  -18.4310 C   0  0  0  0  0  0  0  0  0  0  0  0
   17.1019  -19.1657  -16.7502 C   0  0  0  0  0  0  0  0  0  0  0  0
 25 24  1  0  0  0
 25 20  1  0  0  0
 24 21  1  0  0  0
 21 26  1  0  0  0
 21 23  1  0  0  0
 23 22  1  0  0  0
 22 20  1  0  0  0
 20 18  1  0  0  0
 18 17  1  0  0  0
 17 16  1  0  0  0
 16  3  1  0  0  0
  3  7  1  0  0  0
  3 15  1  0  0  0
  7  8  1  0  0  0
  7  6  2  0  0  0
  8  2  2  0  0  0
  2 13  1  0  0  0
  2  4  1  0  0  0
  4  5  2  0  0  0
  5  6  1  0  0  0
  6  1  1  0  0  0
  1  9  1  0  0  0
  9 15  2  0  0  0
  9 10  1  0  0  0
 15 14  1  0  0  0
 14 12  2  0  0  0
 12 11  1  0  0  0
 11 10  2  0  0  0
 18 19  1  0  0  0
M  END
> <minimizedAffinity>
-7.63235

$$$$
5FYX_FD6_A_1195


 26 29  0  0  0  0  0  0  0  0999 V2000
   11.3688  -22.9351  -19.0216 S   0  0  0  0  0  0  0  0  0  0  0  0
   13.5735  -25.9564  -16.5206 C   0  0  0  0  0  0  0  0  0  0  0  0
   13.8652  -24.4885  -19.9042 N   0  0  0  0  0  0  0  0  0  0  0  0
   12.4636  -25.3232  -16.0189 C   0  0  0  0  0  0  0  0  0  0  0  0
   11.8049  -24.4015  -16.8033 C   0  0  0  0  0  0  0  0  0  0  0  0
   12.2472  -24.1334  -18.0978 C   0  0  0  0  0  0  0  0  0  0  0  0
   13.3941  -24.7624  -18.5988 C   0  0  0  0  0  0  0  0  0  0  0  0
   14.0506  -25.6885  -17.7865 C   0  0  0  0  0  0  0  0  0  0  0  0
   11.8917  -23.2556  -20.6612 C   0  0  0  0  0  0  0  0  0  0  0  0
   11.1296  -22.7259  -21.6986 C   0  0  0  0  0  0  0  0  0  0  0  0
   11.5068  -22.9362  -23.0083 C   0  0  0  0  0  0  0  0  0  0  0  0
   12.6445  -23.6450  -23.2931 C   0  0  0  0  0  0  0  0  0  0  0  0
   14.4085  -27.1187  -15.5294 Cl  0  0  0  0  0  0  0  0  0  0  0  0
   13.4296  -24.1517  -22.2721 C   0  0  0  0  0  0  0  0  0  0  0  0
   13.0663  -23.9638  -20.9387 C   0  0  0  0  0  0  0  0  0  0  0  0
   15.3248  -24.5748  -20.1552 C   0  0  0  0  0  0  0  0  0  0  0  0
   16.1552  -23.4758  -19.4655 C   0  0  0  0  0  0  0  0  0  0  0  0
   15.9398  -22.1380  -19.9864 N   0  0  0  0  0  0  0  0  0  0  0  0
   16.8459  -21.7469  -20.2438 H   0  0  0  0  0  0  0  0  0  0  0  0
   15.2975  -21.2216  -19.0546 N   0  0  0  0  0  0  0  0  0  0  0  0
   14.5204  -18.6084  -18.2233 N   0  0  0  0  0  0  0  0  0  0  0  0
   14.2202  -20.4897  -19.7277 C   0  0  0  0  0  0  0  0  0  0  0  0
   13.5584  -19.5515  -18.7712 C   0  0  0  0  0  0  0  0  0  0  0  0
   15.5681  -19.3434  -17.5246 C   0  0  0  0  0  0  0  0  0  0  0  0
   16.2691  -20.3020  -18.4639 C   0  0  0  0  0  0  0  0  0  0  0  0
   13.8571  -17.6772  -17.3185 C   0  0  0  0  0  0  0  0  0  0  0  0
 25 24  1  0  0  0
 25 20  1  0  0  0
 24 21  1  0  0  0
 21 26  1  0  0  0
 21 23  1  0  0  0
 23 22  1  0  0  0
 22 20  1  0  0  0
 20 18  1  0  0  0
 18 17  1  0  0  0
 17 16  1  0  0  0
 16  3  1  0  0  0
  3  7  1  0  0  0
  3 15  1  0  0  0
  7  8  1  0  0  0
  7  6  2  0  0  0
  8  2  2  0  0  0
  2 13  1  0  0  0
  2  4  1  0  0  0
  4  5  2  0  0  0
  5  6  1  0  0  0
  6  1  1  0  0  0
  1  9  1  0  0  0
  9 15  2  0  0  0
  9 10  1  0  0  0
 15 14  1  0  0  0
 14 12  2  0  0  0
 12 11  1  0  0  0
 11 10  2  0  0  0
 18 19  1  0  0  0
M  END
> <minimizedAffinity>
-7.09701

$$$$
5FYX_FD6_A_1195


 26 29  0  0  0  0  0  0  0  0999 V2000
   11.6983  -23.4136  -18.1137 S   0  0  0  0  0  0  0  0  0  0  0  0
   15.3459  -26.0443  -17.9795 C   0  0  0  0  0  0  0  0  0  0  0  0
   14.2533  -22.9921  -19.7624 N   0  0  0  0  0  0  0  0  0  0  0  0
   14.2572  -26.3335  -17.1950 C   0  0  0  0  0  0  0  0  0  0  0  0
   13.1514  -25.5133  -17.2529 C   0  0  0  0  0  0  0  0  0  0  0  0
   13.1311  -24.4175  -18.1144 C   0  0  0  0  0  0  0  0  0  0  0  0
   14.2522  -24.1101  -18.8957 C   0  0  0  0  0  0  0  0  0  0  0  0
   15.3645  -24.9499  -18.8185 C   0  0  0  0  0  0  0  0  0  0  0  0
   11.8581  -22.5158  -19.6079 C   0  0  0  0  0  0  0  0  0  0  0  0
   10.7239  -21.8804  -20.1055 C   0  0  0  0  0  0  0  0  0  0  0  0
   10.7996  -21.1475  -21.2711 C   0  0  0  0  0  0  0  0  0  0  0  0
   11.9944  -21.0211  -21.9301 C   0  0  0  0  0  0  0  0  0  0  0  0
   16.7447  -27.0780  -17.9050 Cl  0  0  0  0  0  0  0  0  0  0  0  0
   13.1376  -21.6211  -21.4315 C   0  0  0  0  0  0  0  0  0  0  0  0
   13.0881  -22.3774  -20.2607 C   0  0  0  0  0  0  0  0  0  0  0  0
   15.5420  -22.3018  -20.0145 C   0  0  0  0  0  0  0  0  0  0  0  0
   15.9573  -21.3073  -18.9138 C   0  0  0  0  0  0  0  0  0  0  0  0
   15.6126  -19.9238  -19.1869 N   0  0  0  0  0  0  0  0  0  0  0  0
   16.4203  -19.4735  -19.6172 H   0  0  0  0  0  0  0  0  0  0  0  0
   15.2337  -19.1510  -18.0122 N   0  0  0  0  0  0  0  0  0  0  0  0
   13.4626  -18.5353  -15.8657 N   0  0  0  0  0  0  0  0  0  0  0  0
   15.1003  -20.0331  -16.8489 C   0  0  0  0  0  0  0  0  0  0  0  0
   14.7148  -19.2403  -15.6423 C   0  0  0  0  0  0  0  0  0  0  0  0
   13.6158  -17.6337  -17.0014 C   0  0  0  0  0  0  0  0  0  0  0  0
   14.0003  -18.4017  -18.2483 C   0  0  0  0  0  0  0  0  0  0  0  0
   13.0795  -17.7934  -14.6705 C   0  0  0  0  0  0  0  0  0  0  0  0
 25 24  1  0  0  0
 25 20  1  0  0  0
 24 21  1  0  0  0
 21 26  1  0  0  0
 21 23  1  0  0  0
 23 22  1  0  0  0
 22 20  1  0  0  0
 20 18  1  0  0  0
 18 17  1  0  0  0
 17 16  1  0  0  0
 16  3  1  0  0  0
  3  7  1  0  0  0
  3 15  1  0  0  0
  7  8  1  0  0  0
  7  6  2  0  0  0
  8  2  2  0  0  0
  2 13  1  0  0  0
  2  4  1  0  0  0
  4  5  2  0  0  0
  5  6  1  0  0  0
  6  1  1  0  0  0
  1  9  1  0  0  0
  9 15  2  0  0  0
  9 10  1  0  0  0
 15 14  1  0  0  0
 14 12  2  0  0  0
 12 11  1  0  0  0
 11 10  2  0  0  0
 18 19  1  0  0  0
M  END
> <minimizedAffinity>
-7.07786

$$$$
5FYX_FD6_A_1195


 26 29  0  0  0  0  0  0  0  0999 V2000
   14.3097  -20.8045  -13.1940 S   0  0  0  0  0  0  0  0  0  0  0  0
   13.2571  -23.7936  -16.3880 C   0  0  0  0  0  0  0  0  0  0  0  0
   14.0570  -20.1867  -16.1903 N   0  0  0  0  0  0  0  0  0  0  0  0
   13.3397  -24.1865  -15.0753 C   0  0  0  0  0  0  0  0  0  0  0  0
   13.6639  -23.2534  -14.1146 C   0  0  0  0  0  0  0  0  0  0  0  0
   13.8822  -21.9231  -14.4695 C   0  0  0  0  0  0  0  0  0  0  0  0
   13.8215  -21.5293  -15.8123 C   0  0  0  0  0  0  0  0  0  0  0  0
   13.4973  -22.4907  -16.7710 C   0  0  0  0  0  0  0  0  0  0  0  0
   14.0050  -19.2466  -13.9318 C   0  0  0  0  0  0  0  0  0  0  0  0
   13.8995  -18.1421  -13.0912 C   0  0  0  0  0  0  0  0  0  0  0  0
   13.6751  -16.8897  -13.6230 C   0  0  0  0  0  0  0  0  0  0  0  0
   13.5798  -16.7235  -14.9799 C   0  0  0  0  0  0  0  0  0  0  0  0
   12.8507  -24.9722  -17.6031 Cl  0  0  0  0  0  0  0  0  0  0  0  0
   13.7133  -17.8070  -15.8306 C   0  0  0  0  0  0  0  0  0  0  0  0
   13.9296  -19.0867  -15.3199 C   0  0  0  0  0  0  0  0  0  0  0  0
   14.6568  -19.9283  -17.5223 C   0  0  0  0  0  0  0  0  0  0  0  0
   13.6967  -19.2800  -18.5377 C   0  0  0  0  0  0  0  0  0  0  0  0
   12.3623  -19.8515  -18.5589 N   0  0  0  0  0  0  0  0  0  0  0  0
   12.3270  -20.6030  -17.8702 H   0  0  0  0  0  0  0  0  0  0  0  0
   11.9574  -20.3964  -19.8472 N   0  0  0  0  0  0  0  0  0  0  0  0
   11.5809  -22.5636  -21.6597 N   0  0  0  0  0  0  0  0  0  0  0  0
   10.8767  -21.3703  -19.6665 C   0  0  0  0  0  0  0  0  0  0  0  0
   10.4583  -21.9275  -20.9885 C   0  0  0  0  0  0  0  0  0  0  0  0
   12.6358  -21.5789  -21.8680 C   0  0  0  0  0  0  0  0  0  0  0  0
   13.0930  -20.9947  -20.5480 C   0  0  0  0  0  0  0  0  0  0  0  0
   11.1529  -23.1330  -22.9318 C   0  0  0  0  0  0  0  0  0  0  0  0
 25 24  1  0  0  0
 25 20  1  0  0  0
 24 21  1  0  0  0
 21 26  1  0  0  0
 21 23  1  0  0  0
 23 22  1  0  0  0
 22 20  1  0  0  0
 20 18  1  0  0  0
 18 17  1  0  0  0
 17 16  1  0  0  0
 16  3  1  0  0  0
  3  7  1  0  0  0
  3 15  1  0  0  0
  7  8  1  0  0  0
  7  6  2  0  0  0
  8  2  2  0  0  0
  2 13  1  0  0  0
  2  4  1  0  0  0
  4  5  2  0  0  0
  5  6  1  0  0  0
  6  1  1  0  0  0
  1  9  1  0  0  0
  9 15  2  0  0  0
  9 10  1  0  0  0
 15 14  1  0  0  0
 14 12  2  0  0  0
 12 11  1  0  0  0
 11 10  2  0  0  0
 18 19  1  0  0  0
M  END
> <minimizedAffinity>
-7.07325

$$$$
5FYX_FD6_A_1195


 26 29  0  0  0  0  0  0  0  0999 V2000
   12.7311  -21.1475  -19.0630 S   0  0  0  0  0  0  0  0  0  0  0  0
   14.8332  -18.2389  -16.3490 C   0  0  0  0  0  0  0  0  0  0  0  0
   14.0619  -21.8572  -16.3893 N   0  0  0  0  0  0  0  0  0  0  0  0
   14.2717  -17.8044  -17.5239 C   0  0  0  0  0  0  0  0  0  0  0  0
   13.6332  -18.7136  -18.3391 C   0  0  0  0  0  0  0  0  0  0  0  0
   13.5393  -20.0527  -17.9633 C   0  0  0  0  0  0  0  0  0  0  0  0
   14.1341  -20.4985  -16.7762 C   0  0  0  0  0  0  0  0  0  0  0  0
   14.7812  -19.5631  -15.9671 C   0  0  0  0  0  0  0  0  0  0  0  0
   12.3930  -22.5320  -18.0467 C   0  0  0  0  0  0  0  0  0  0  0  0
   11.4470  -23.4490  -18.4961 C   0  0  0  0  0  0  0  0  0  0  0  0
   11.1551  -24.5649  -17.7404 C   0  0  0  0  0  0  0  0  0  0  0  0
   11.8112  -24.7885  -16.5583 C   0  0  0  0  0  0  0  0  0  0  0  0
   15.6429  -17.0919  -15.3198 Cl  0  0  0  0  0  0  0  0  0  0  0  0
   12.7764  -23.9022  -16.1130 C   0  0  0  0  0  0  0  0  0  0  0  0
   13.0841  -22.7595  -16.8514 C   0  0  0  0  0  0  0  0  0  0  0  0
   15.1855  -22.4228  -15.6029 C   0  0  0  0  0  0  0  0  0  0  0  0
   16.4380  -22.7597  -16.4342 C   0  0  0  0  0  0  0  0  0  0  0  0
   16.4470  -24.0966  -17.0001 N   0  0  0  0  0  0  0  0  0  0  0  0
   17.3229  -24.5479  -16.7366 H   0  0  0  0  0  0  0  0  0  0  0  0
   16.3317  -24.1406  -18.4511 N   0  0  0  0  0  0  0  0  0  0  0  0
   14.9896  -23.5334  -20.8911 N   0  0  0  0  0  0  0  0  0  0  0  0
   16.3084  -22.7804  -18.9973 C   0  0  0  0  0  0  0  0  0  0  0  0
   16.1935  -22.8247  -20.4866 C   0  0  0  0  0  0  0  0  0  0  0  0
   15.0385  -24.8959  -20.3744 C   0  0  0  0  0  0  0  0  0  0  0  0
   15.1482  -24.8938  -18.8643 C   0  0  0  0  0  0  0  0  0  0  0  0
   14.8707  -23.5403  -22.3442 C   0  0  0  0  0  0  0  0  0  0  0  0
 25 24  1  0  0  0
 25 20  1  0  0  0
 24 21  1  0  0  0
 21 26  1  0  0  0
 21 23  1  0  0  0
 23 22  1  0  0  0
 22 20  1  0  0  0
 20 18  1  0  0  0
 18 17  1  0  0  0
 17 16  1  0  0  0
 16  3  1  0  0  0
  3  7  1  0  0  0
  3 15  1  0  0  0
  7  8  1  0  0  0
  7  6  2  0  0  0
  8  2  2  0  0  0
  2 13  1  0  0  0
  2  4  1  0  0  0
  4  5  2  0  0  0
  5  6  1  0  0  0
  6  1  1  0  0  0
  1  9  1  0  0  0
  9 15  2  0  0  0
  9 10  1  0  0  0
 15 14  1  0  0  0
 14 12  2  0  0  0
 12 11  1  0  0  0
 11 10  2  0  0  0
 18 19  1  0  0  0
M  END
> <minimizedAffinity>
-6.99857

$$$$
5FYX_FD6_A_1195


 26 29  0  0  0  0  0  0  0  0999 V2000
   11.2424  -22.9491  -19.2904 S   0  0  0  0  0  0  0  0  0  0  0  0
   13.1660  -25.5848  -16.1924 C   0  0  0  0  0  0  0  0  0  0  0  0
   14.1713  -23.8684  -19.3120 N   0  0  0  0  0  0  0  0  0  0  0  0
   11.8423  -25.2393  -16.0789 C   0  0  0  0  0  0  0  0  0  0  0  0
   11.2750  -24.4308  -17.0398 C   0  0  0  0  0  0  0  0  0  0  0  0
   12.0305  -23.9891  -18.1248 C   0  0  0  0  0  0  0  0  0  0  0  0
   13.3871  -24.3226  -18.2258 C   0  0  0  0  0  0  0  0  0  0  0  0
   13.9445  -25.1377  -17.2393 C   0  0  0  0  0  0  0  0  0  0  0  0
   12.3132  -23.0409  -20.6722 C   0  0  0  0  0  0  0  0  0  0  0  0
   11.8183  -22.6199  -21.9033 C   0  0  0  0  0  0  0  0  0  0  0  0
   12.6259  -22.6574  -23.0204 C   0  0  0  0  0  0  0  0  0  0  0  0
   13.9239  -23.0850  -22.9192 C   0  0  0  0  0  0  0  0  0  0  0  0
   13.8847  -26.6035  -14.9774 Cl  0  0  0  0  0  0  0  0  0  0  0  0
   14.4400  -23.4775  -21.6964 C   0  0  0  0  0  0  0  0  0  0  0  0
   13.6427  -23.4604  -20.5521 C   0  0  0  0  0  0  0  0  0  0  0  0
   15.6157  -23.6225  -19.0794 C   0  0  0  0  0  0  0  0  0  0  0  0
   15.9226  -22.3413  -18.2811 C   0  0  0  0  0  0  0  0  0  0  0  0
   15.5257  -21.1092  -18.9384 N   0  0  0  0  0  0  0  0  0  0  0  0
   16.2878  -20.8145  -19.5491 H   0  0  0  0  0  0  0  0  0  0  0  0
   15.2189  -20.0113  -18.0323 N   0  0  0  0  0  0  0  0  0  0  0  0
   13.4176  -18.5126  -16.4098 N   0  0  0  0  0  0  0  0  0  0  0  0
   14.7164  -20.5336  -16.7580 C   0  0  0  0  0  0  0  0  0  0  0  0
   14.4044  -19.4075  -15.8264 C   0  0  0  0  0  0  0  0  0  0  0  0
   13.9407  -17.9697  -17.6578 C   0  0  0  0  0  0  0  0  0  0  0  0
   14.2632  -19.0818  -18.6335 C   0  0  0  0  0  0  0  0  0  0  0  0
   13.0961  -17.4379  -15.4785 C   0  0  0  0  0  0  0  0  0  0  0  0
 25 24  1  0  0  0
 25 20  1  0  0  0
 24 21  1  0  0  0
 21 26  1  0  0  0
 21 23  1  0  0  0
 23 22  1  0  0  0
 22 20  1  0  0  0
 20 18  1  0  0  0
 18 17  1  0  0  0
 17 16  1  0  0  0
 16  3  1  0  0  0
  3  7  1  0  0  0
  3 15  1  0  0  0
  7  8  1  0  0  0
  7  6  2  0  0  0
  8  2  2  0  0  0
  2 13  1  0  0  0
  2  4  1  0  0  0
  4  5  2  0  0  0
  5  6  1  0  0  0
  6  1  1  0  0  0
  1  9  1  0  0  0
  9 15  2  0  0  0
  9 10  1  0  0  0
 15 14  1  0  0  0
 14 12  2  0  0  0
 12 11  1  0  0  0
 11 10  2  0  0  0
 18 19  1  0  0  0
M  END
> <minimizedAffinity>
-6.98007

$$$$
5FYX_FD6_A_1195


 26 29  0  0  0  0  0  0  0  0999 V2000
   14.5831  -25.2569  -20.7860 S   0  0  0  0  0  0  0  0  0  0  0  0
   11.1535  -22.6541  -22.0926 C   0  0  0  0  0  0  0  0  0  0  0  0
   12.7419  -23.6716  -18.9098 N   0  0  0  0  0  0  0  0  0  0  0  0
   11.9096  -23.3193  -23.0256 C   0  0  0  0  0  0  0  0  0  0  0  0
   12.9550  -24.1105  -22.6017 C   0  0  0  0  0  0  0  0  0  0  0  0
   13.2259  -24.2512  -21.2415 C   0  0  0  0  0  0  0  0  0  0  0  0
   12.4688  -23.5524  -20.2926 C   0  0  0  0  0  0  0  0  0  0  0  0
   11.4178  -22.7515  -20.7426 C   0  0  0  0  0  0  0  0  0  0  0  0
   14.2790  -25.5669  -19.0903 C   0  0  0  0  0  0  0  0  0  0  0  0
   14.9648  -26.6201  -18.4918 C   0  0  0  0  0  0  0  0  0  0  0  0
   14.7728  -26.8968  -17.1546 C   0  0  0  0  0  0  0  0  0  0  0  0
   13.9266  -26.1225  -16.4046 C   0  0  0  0  0  0  0  0  0  0  0  0
    9.8344  -21.6517  -22.6271 Cl  0  0  0  0  0  0  0  0  0  0  0  0
   13.2611  -25.0528  -16.9777 C   0  0  0  0  0  0  0  0  0  0  0  0
   13.4279  -24.7567  -18.3304 C   0  0  0  0  0  0  0  0  0  0  0  0
   12.4640  -22.5045  -18.0372 C   0  0  0  0  0  0  0  0  0  0  0  0
   13.5053  -21.3736  -18.1360 C   0  0  0  0  0  0  0  0  0  0  0  0
   14.2642  -21.1420  -16.9203 N   0  0  0  0  0  0  0  0  0  0  0  0
   14.2189  -21.9871  -16.3509 H   0  0  0  0  0  0  0  0  0  0  0  0
   13.7906  -20.0253  -16.1145 N   0  0  0  0  0  0  0  0  0  0  0  0
   14.2315  -17.7193  -14.4984 N   0  0  0  0  0  0  0  0  0  0  0  0
   14.2443  -18.7569  -16.6929 C   0  0  0  0  0  0  0  0  0  0  0  0
   13.7558  -17.6103  -15.8684 C   0  0  0  0  0  0  0  0  0  0  0  0
   13.7451  -18.9660  -13.9196 C   0  0  0  0  0  0  0  0  0  0  0  0
   14.2257  -20.1551  -14.7244 C   0  0  0  0  0  0  0  0  0  0  0  0
   13.7774  -16.5781  -13.7129 C   0  0  0  0  0  0  0  0  0  0  0  0
 25 24  1  0  0  0
 25 20  1  0  0  0
 24 21  1  0  0  0
 21 26  1  0  0  0
 21 23  1  0  0  0
 23 22  1  0  0  0
 22 20  1  0  0  0
 20 18  1  0  0  0
 18 17  1  0  0  0
 17 16  1  0  0  0
 16  3  1  0  0  0
  3  7  1  0  0  0
  3 15  1  0  0  0
  7  8  1  0  0  0
  7  6  2  0  0  0
  8  2  2  0  0  0
  2 13  1  0  0  0
  2  4  1  0  0  0
  4  5  2  0  0  0
  5  6  1  0  0  0
  6  1  1  0  0  0
  1  9  1  0  0  0
  9 15  2  0  0  0
  9 10  1  0  0  0
 15 14  1  0  0  0
 14 12  2  0  0  0
 12 11  1  0  0  0
 11 10  2  0  0  0
 18 19  1  0  0  0
M  END
> <minimizedAffinity>
-6.64872

$$$$
5FYX_FD6_A_1195


 26 29  0  0  0  0  0  0  0  0999 V2000
   12.7098  -19.1274  -18.2631 S   0  0  0  0  0  0  0  0  0  0  0  0
   13.8172  -22.3107  -21.2438 C   0  0  0  0  0  0  0  0  0  0  0  0
   15.1667  -20.9584  -18.0754 N   0  0  0  0  0  0  0  0  0  0  0  0
   12.6911  -21.5489  -21.4339 C   0  0  0  0  0  0  0  0  0  0  0  0
   12.3720  -20.5800  -20.5075 C   0  0  0  0  0  0  0  0  0  0  0  0
   13.1954  -20.3617  -19.4040 C   0  0  0  0  0  0  0  0  0  0  0  0
   14.3304  -21.1564  -19.1990 C   0  0  0  0  0  0  0  0  0  0  0  0
   14.6332  -22.1363  -20.1458 C   0  0  0  0  0  0  0  0  0  0  0  0
   14.1839  -18.8327  -17.3662 C   0  0  0  0  0  0  0  0  0  0  0  0
   14.2616  -17.6632  -16.6152 C   0  0  0  0  0  0  0  0  0  0  0  0
   15.3949  -17.3908  -15.8783 C   0  0  0  0  0  0  0  0  0  0  0  0
   16.4375  -18.2800  -15.8623 C   0  0  0  0  0  0  0  0  0  0  0  0
   14.2196  -23.5371  -22.4119 Cl  0  0  0  0  0  0  0  0  0  0  0  0
   16.3629  -19.4616  -16.5791 C   0  0  0  0  0  0  0  0  0  0  0  0
   15.2335  -19.7578  -17.3419 C   0  0  0  0  0  0  0  0  0  0  0  0
   15.8753  -22.1341  -17.5130 C   0  0  0  0  0  0  0  0  0  0  0  0
   15.0110  -23.0189  -16.5948 C   0  0  0  0  0  0  0  0  0  0  0  0
   13.9830  -22.3048  -15.8593 N   0  0  0  0  0  0  0  0  0  0  0  0
   13.7958  -21.4274  -16.3447 H   0  0  0  0  0  0  0  0  0  0  0  0
   14.3303  -21.9956  -14.4793 N   0  0  0  0  0  0  0  0  0  0  0  0
   13.6361  -21.3912  -11.7818 N   0  0  0  0  0  0  0  0  0  0  0  0
   13.7821  -23.0153  -13.5800 C   0  0  0  0  0  0  0  0  0  0  0  0
   14.1409  -22.7005  -12.1639 C   0  0  0  0  0  0  0  0  0  0  0  0
   14.2149  -20.3796  -12.6580 C   0  0  0  0  0  0  0  0  0  0  0  0
   13.8671  -20.6600  -14.1047 C   0  0  0  0  0  0  0  0  0  0  0  0
   13.9623  -21.1100  -10.3889 C   0  0  0  0  0  0  0  0  0  0  0  0
 25 24  1  0  0  0
 25 20  1  0  0  0
 24 21  1  0  0  0
 21 26  1  0  0  0
 21 23  1  0  0  0
 23 22  1  0  0  0
 22 20  1  0  0  0
 20 18  1  0  0  0
 18 17  1  0  0  0
 17 16  1  0  0  0
 16  3  1  0  0  0
  3  7  1  0  0  0
  3 15  1  0  0  0
  7  8  1  0  0  0
  7  6  2  0  0  0
  8  2  2  0  0  0
  2 13  1  0  0  0
  2  4  1  0  0  0
  4  5  2  0  0  0
  5  6  1  0  0  0
  6  1  1  0  0  0
  1  9  1  0  0  0
  9 15  2  0  0  0
  9 10  1  0  0  0
 15 14  1  0  0  0
 14 12  2  0  0  0
 12 11  1  0  0  0
 11 10  2  0  0  0
 18 19  1  0  0  0
M  END
> <minimizedAffinity>
-6.40512

$$$$
5FYX_FD6_A_1195


 26 29  0  0  0  0  0  0  0  0999 V2000
   11.2093  -23.6569  -18.2288 S   0  0  0  0  0  0  0  0  0  0  0  0
   15.1062  -25.0416  -16.4565 C   0  0  0  0  0  0  0  0  0  0  0  0
   13.8866  -22.1708  -18.4465 N   0  0  0  0  0  0  0  0  0  0  0  0
   13.9689  -25.7933  -16.2953 C   0  0  0  0  0  0  0  0  0  0  0  0
   12.7869  -25.3489  -16.8469 C   0  0  0  0  0  0  0  0  0  0  0  0
   12.7527  -24.1629  -17.5786 C   0  0  0  0  0  0  0  0  0  0  0  0
   13.9089  -23.3851  -17.7211 C   0  0  0  0  0  0  0  0  0  0  0  0
   15.0948  -23.8496  -17.1500 C   0  0  0  0  0  0  0  0  0  0  0  0
   11.6701  -22.4769  -19.4369 C   0  0  0  0  0  0  0  0  0  0  0  0
   10.7222  -22.1271  -20.3943 C   0  0  0  0  0  0  0  0  0  0  0  0
   11.0295  -21.1909  -21.3591 C   0  0  0  0  0  0  0  0  0  0  0  0
   12.2581  -20.5839  -21.3647 C   0  0  0  0  0  0  0  0  0  0  0  0
   16.5994  -25.6003  -15.7574 Cl  0  0  0  0  0  0  0  0  0  0  0  0
   13.2004  -20.8983  -20.4010 C   0  0  0  0  0  0  0  0  0  0  0  0
   12.9208  -21.8495  -19.4200 C   0  0  0  0  0  0  0  0  0  0  0  0
   14.8139  -21.0896  -18.0320 C   0  0  0  0  0  0  0  0  0  0  0  0
   14.2678  -20.1746  -16.9194 C   0  0  0  0  0  0  0  0  0  0  0  0
   15.1058  -20.0939  -15.7367 N   0  0  0  0  0  0  0  0  0  0  0  0
   16.0676  -20.2898  -16.0141 H   0  0  0  0  0  0  0  0  0  0  0  0
   14.7422  -21.0195  -14.6729 N   0  0  0  0  0  0  0  0  0  0  0  0
   15.0364  -22.0736  -12.0412 N   0  0  0  0  0  0  0  0  0  0  0  0
   14.2860  -20.2787  -13.4930 C   0  0  0  0  0  0  0  0  0  0  0  0
   13.9095  -21.2279  -12.4020 C   0  0  0  0  0  0  0  0  0  0  0  0
   15.4597  -22.8336  -13.2113 C   0  0  0  0  0  0  0  0  0  0  0  0
   15.8572  -21.9051  -14.3394 C   0  0  0  0  0  0  0  0  0  0  0  0
   14.6672  -22.9713  -10.9532 C   0  0  0  0  0  0  0  0  0  0  0  0
 25 24  1  0  0  0
 25 20  1  0  0  0
 24 21  1  0  0  0
 21 26  1  0  0  0
 21 23  1  0  0  0
 23 22  1  0  0  0
 22 20  1  0  0  0
 20 18  1  0  0  0
 18 17  1  0  0  0
 17 16  1  0  0  0
 16  3  1  0  0  0
  3  7  1  0  0  0
  3 15  1  0  0  0
  7  8  1  0  0  0
  7  6  2  0  0  0
  8  2  2  0  0  0
  2 13  1  0  0  0
  2  4  1  0  0  0
  4  5  2  0  0  0
  5  6  1  0  0  0
  6  1  1  0  0  0
  1  9  1  0  0  0
  9 15  2  0  0  0
  9 10  1  0  0  0
 15 14  1  0  0  0
 14 12  2  0  0  0
 12 11  1  0  0  0
 11 10  2  0  0  0
 18 19  1  0  0  0
M  END
> <minimizedAffinity>
-6.36809

$$$$
5FYX_FD6_A_1195


 26 29  0  0  0  0  0  0  0  0999 V2000
   14.3329  -20.7148  -14.1445 S   0  0  0  0  0  0  0  0  0  0  0  0
   13.8174  -24.5454  -16.4479 C   0  0  0  0  0  0  0  0  0  0  0  0
   14.4690  -20.9818  -17.1997 N   0  0  0  0  0  0  0  0  0  0  0  0
   13.7338  -24.5474  -15.0777 C   0  0  0  0  0  0  0  0  0  0  0  0
   13.8953  -23.3621  -14.3938 C   0  0  0  0  0  0  0  0  0  0  0  0
   14.1176  -22.1732  -15.0868 C   0  0  0  0  0  0  0  0  0  0  0  0
   14.2270  -22.1773  -16.4832 C   0  0  0  0  0  0  0  0  0  0  0  0
   14.0662  -23.3890  -17.1571 C   0  0  0  0  0  0  0  0  0  0  0  0
   14.0820  -19.4515  -15.3300 C   0  0  0  0  0  0  0  0  0  0  0  0
   13.8288  -18.1654  -14.8613 C   0  0  0  0  0  0  0  0  0  0  0  0
   13.6391  -17.1312  -15.7535 C   0  0  0  0  0  0  0  0  0  0  0  0
   13.7233  -17.3595  -17.1021 C   0  0  0  0  0  0  0  0  0  0  0  0
   13.6168  -26.0427  -17.3130 Cl  0  0  0  0  0  0  0  0  0  0  0  0
   14.0050  -18.6264  -17.5831 C   0  0  0  0  0  0  0  0  0  0  0  0
   14.1904  -19.6933  -16.7040 C   0  0  0  0  0  0  0  0  0  0  0  0
   15.2353  -21.0671  -18.4671 C   0  0  0  0  0  0  0  0  0  0  0  0
   14.4512  -21.6758  -19.6452 C   0  0  0  0  0  0  0  0  0  0  0  0
   13.0498  -21.3004  -19.6976 N   0  0  0  0  0  0  0  0  0  0  0  0
   12.6791  -21.3208  -18.7476 H   0  0  0  0  0  0  0  0  0  0  0  0
   12.2221  -22.1649  -20.5271 N   0  0  0  0  0  0  0  0  0  0  0  0
   11.4984  -23.3084  -23.0355 N   0  0  0  0  0  0  0  0  0  0  0  0
   13.0495  -23.1889  -21.1721 C   0  0  0  0  0  0  0  0  0  0  0  0
   12.2003  -24.0785  -22.0209 C   0  0  0  0  0  0  0  0  0  0  0  0
   10.6505  -22.3171  -22.3842 C   0  0  0  0  0  0  0  0  0  0  0  0
   11.4767  -21.3898  -21.5182 C   0  0  0  0  0  0  0  0  0  0  0  0
   10.7006  -24.1907  -23.8785 C   0  0  0  0  0  0  0  0  0  0  0  0
 25 24  1  0  0  0
 25 20  1  0  0  0
 24 21  1  0  0  0
 21 26  1  0  0  0
 21 23  1  0  0  0
 23 22  1  0  0  0
 22 20  1  0  0  0
 20 18  1  0  0  0
 18 17  1  0  0  0
 17 16  1  0  0  0
 16  3  1  0  0  0
  3  7  1  0  0  0
  3 15  1  0  0  0
  7  8  1  0  0  0
  7  6  2  0  0  0
  8  2  2  0  0  0
  2 13  1  0  0  0
  2  4  1  0  0  0
  4  5  2  0  0  0
  5  6  1  0  0  0
  6  1  1  0  0  0
  1  9  1  0  0  0
  9 15  2  0  0  0
  9 10  1  0  0  0
 15 14  1  0  0  0
 14 12  2  0  0  0
 12 11  1  0  0  0
 11 10  2  0  0  0
 18 19  1  0  0  0
M  END
> <minimizedAffinity>
-6.19883

$$$$
