2RI9_LDY_A_1900


 12 12  0  0  0  0  0  0  0  0999 V2000
   32.9790   26.7390  -41.8101 C   0  0  0  0  0  0  0  0  0  0  0  0
   32.6758   27.4501  -43.0317 O   0  0  0  0  0  0  0  0  0  0  0  0
   33.8363   27.7336  -43.8546 C   0  0  0  0  0  0  0  0  0  0  0  0
   34.6962   26.4609  -44.1045 C   0  0  0  0  0  0  0  0  0  0  0  0
   35.9895   26.8547  -44.5513 O   0  0  0  0  0  0  0  0  0  0  0  0
   34.8566   25.5490  -42.8681 C   0  0  0  0  0  0  0  0  0  0  0  0
   35.8081   26.0985  -41.9688 O   0  0  0  0  0  0  0  0  0  0  0  0
   33.5301   25.3688  -42.1419 C   0  0  0  0  0  0  0  0  0  0  0  0
   32.6145   24.6624  -42.9743 O   0  0  0  0  0  0  0  0  0  0  0  0
   36.4284   27.3705  -43.8569 H   0  0  0  0  0  0  0  0  0  0  0  0
   35.4980   26.9637  -41.6588 H   0  0  0  0  0  0  0  0  0  0  0  0
   32.4724   25.1608  -43.7943 H   0  0  0  0  0  0  0  0  0  0  0  0
  8  1  1  0  0  0
  1  2  1  0  0  0
  3  2  1  0  0  0
  4  3  1  0  0  0
  5  4  1  0  0  0
  6  4  1  0  0  0
  7  6  1  0  0  0
  6  8  1  0  0  0
  8  9  1  0  0  0
  5 10  1  0  0  0
  7 11  1  0  0  0
  9 12  1  0  0  0
M  END
> <minimizedAffinity>
-5.22558

$$$$
2RI9_LDY_A_1900


 12 12  0  0  0  0  0  0  0  0999 V2000
   35.5333   26.3984  -41.7860 C   0  0  0  0  0  0  0  0  0  0  0  0
   34.5850   27.4538  -41.5088 O   0  0  0  0  0  0  0  0  0  0  0  0
   34.5045   28.4642  -42.5464 C   0  0  0  0  0  0  0  0  0  0  0  0
   34.3001   27.8354  -43.9551 C   0  0  0  0  0  0  0  0  0  0  0  0
   34.6285   28.8023  -44.9473 O   0  0  0  0  0  0  0  0  0  0  0  0
   35.1358   26.5616  -44.2101 C   0  0  0  0  0  0  0  0  0  0  0  0
   36.4866   26.9031  -44.4835 O   0  0  0  0  0  0  0  0  0  0  0  0
   35.0911   25.6252  -43.0099 C   0  0  0  0  0  0  0  0  0  0  0  0
   33.7654   25.1363  -42.8262 O   0  0  0  0  0  0  0  0  0  0  0  0
   35.5654   29.0411  -44.8685 H   0  0  0  0  0  0  0  0  0  0  0  0
   36.8673   27.3566  -43.7151 H   0  0  0  0  0  0  0  0  0  0  0  0
   33.1630   25.8824  -42.6803 H   0  0  0  0  0  0  0  0  0  0  0  0
  8  1  1  0  0  0
  1  2  1  0  0  0
  3  2  1  0  0  0
  4  3  1  0  0  0
  5  4  1  0  0  0
  6  4  1  0  0  0
  7  6  1  0  0  0
  6  8  1  0  0  0
  8  9  1  0  0  0
  5 10  1  0  0  0
  7 11  1  0  0  0
  9 12  1  0  0  0
M  END
> <minimizedAffinity>
-5.01467

$$$$
2RI9_LDY_A_1900


 12 12  0  0  0  0  0  0  0  0999 V2000
   33.5414   25.8324  -42.5724 C   0  0  0  0  0  0  0  0  0  0  0  0
   34.7179   25.8851  -41.7340 O   0  0  0  0  0  0  0  0  0  0  0  0
   35.9630   26.0029  -42.4689 C   0  0  0  0  0  0  0  0  0  0  0  0
   35.9184   27.1626  -43.5054 C   0  0  0  0  0  0  0  0  0  0  0  0
   36.9684   26.9819  -44.4500 O   0  0  0  0  0  0  0  0  0  0  0  0
   34.5811   27.2817  -44.2692 C   0  0  0  0  0  0  0  0  0  0  0  0
   34.4976   26.2859  -45.2779 O   0  0  0  0  0  0  0  0  0  0  0  0
   33.3943   27.1370  -43.3260 C   0  0  0  0  0  0  0  0  0  0  0  0
   33.3668   28.2290  -42.4112 O   0  0  0  0  0  0  0  0  0  0  0  0
   36.8284   26.1533  -44.9344 H   0  0  0  0  0  0  0  0  0  0  0  0
   34.5258   25.4072  -44.8679 H   0  0  0  0  0  0  0  0  0  0  0  0
   34.1905   28.2427  -41.8992 H   0  0  0  0  0  0  0  0  0  0  0  0
  8  1  1  0  0  0
  1  2  1  0  0  0
  3  2  1  0  0  0
  4  3  1  0  0  0
  5  4  1  0  0  0
  6  4  1  0  0  0
  7  6  1  0  0  0
  6  8  1  0  0  0
  8  9  1  0  0  0
  5 10  1  0  0  0
  7 11  1  0  0  0
  9 12  1  0  0  0
M  END
> <minimizedAffinity>
-4.94759

$$$$
2RI9_LDY_A_1900


 12 12  0  0  0  0  0  0  0  0999 V2000
   37.0923   31.3348  -45.3468 C   0  0  0  0  0  0  0  0  0  0  0  0
   35.7407   31.8391  -45.4391 O   0  0  0  0  0  0  0  0  0  0  0  0
   34.7371   30.9445  -44.8944 C   0  0  0  0  0  0  0  0  0  0  0  0
   35.0990   30.4719  -43.4566 C   0  0  0  0  0  0  0  0  0  0  0  0
   34.3263   29.3192  -43.1383 O   0  0  0  0  0  0  0  0  0  0  0  0
   36.5933   30.1368  -43.2548 C   0  0  0  0  0  0  0  0  0  0  0  0
   36.8967   28.8705  -43.8209 O   0  0  0  0  0  0  0  0  0  0  0  0
   37.4851   31.1944  -43.8917 C   0  0  0  0  0  0  0  0  0  0  0  0
   37.3172   32.4387  -43.2181 O   0  0  0  0  0  0  0  0  0  0  0  0
   34.5539   28.5992  -43.7471 H   0  0  0  0  0  0  0  0  0  0  0  0
   36.7261   28.8938  -44.7755 H   0  0  0  0  0  0  0  0  0  0  0  0
   36.3895   32.7157  -43.2772 H   0  0  0  0  0  0  0  0  0  0  0  0
  8  1  1  0  0  0
  1  2  1  0  0  0
  3  2  1  0  0  0
  4  3  1  0  0  0
  5  4  1  0  0  0
  6  4  1  0  0  0
  7  6  1  0  0  0
  6  8  1  0  0  0
  8  9  1  0  0  0
  5 10  1  0  0  0
  7 11  1  0  0  0
  9 12  1  0  0  0
M  END
> <minimizedAffinity>
-4.87493

$$$$
2RI9_LDY_A_1900


 12 12  0  0  0  0  0  0  0  0999 V2000
   34.4697   28.2616  -43.0549 C   0  0  0  0  0  0  0  0  0  0  0  0
   33.3281   27.9949  -42.2089 O   0  0  0  0  0  0  0  0  0  0  0  0
   32.7056   26.7060  -42.4445 C   0  0  0  0  0  0  0  0  0  0  0  0
   33.7440   25.5472  -42.4255 C   0  0  0  0  0  0  0  0  0  0  0  0
   33.1718   24.4007  -43.0463 O   0  0  0  0  0  0  0  0  0  0  0  0
   35.0781   25.8773  -43.1306 C   0  0  0  0  0  0  0  0  0  0  0  0
   34.9229   25.8064  -44.5402 O   0  0  0  0  0  0  0  0  0  0  0  0
   35.5707   27.2678  -42.7524 C   0  0  0  0  0  0  0  0  0  0  0  0
   35.8955   27.3058  -41.3656 O   0  0  0  0  0  0  0  0  0  0  0  0
   32.9754   24.6000  -43.9750 H   0  0  0  0  0  0  0  0  0  0  0  0
   34.2679   26.4619  -44.8268 H   0  0  0  0  0  0  0  0  0  0  0  0
   35.1087   27.0853  -40.8430 H   0  0  0  0  0  0  0  0  0  0  0  0
  8  1  1  0  0  0
  1  2  1  0  0  0
  3  2  1  0  0  0
  4  3  1  0  0  0
  5  4  1  0  0  0
  6  4  1  0  0  0
  7  6  1  0  0  0
  6  8  1  0  0  0
  8  9  1  0  0  0
  5 10  1  0  0  0
  7 11  1  0  0  0
  9 12  1  0  0  0
M  END
> <minimizedAffinity>
-4.83853

$$$$
2RI9_LDY_A_1900


 12 12  0  0  0  0  0  0  0  0999 V2000
   33.4005   28.8722  -42.6301 C   0  0  0  0  0  0  0  0  0  0  0  0
   34.7921   28.6678  -42.2960 O   0  0  0  0  0  0  0  0  0  0  0  0
   35.7137   29.0236  -43.3582 C   0  0  0  0  0  0  0  0  0  0  0  0
   35.4382   30.4513  -43.9125 C   0  0  0  0  0  0  0  0  0  0  0  0
   36.0741   30.5885  -45.1790 O   0  0  0  0  0  0  0  0  0  0  0  0
   33.9403   30.7935  -44.0715 C   0  0  0  0  0  0  0  0  0  0  0  0
   33.4106   30.1673  -45.2305 O   0  0  0  0  0  0  0  0  0  0  0  0
   33.1419   30.3467  -42.8541 C   0  0  0  0  0  0  0  0  0  0  0  0
   33.5459   31.0929  -41.7095 O   0  0  0  0  0  0  0  0  0  0  0  0
   35.6895   29.9545  -45.8043 H   0  0  0  0  0  0  0  0  0  0  0  0
   33.4851   29.2044  -45.1404 H   0  0  0  0  0  0  0  0  0  0  0  0
   34.4920   30.9515  -41.5488 H   0  0  0  0  0  0  0  0  0  0  0  0
  8  1  1  0  0  0
  1  2  1  0  0  0
  3  2  1  0  0  0
  4  3  1  0  0  0
  5  4  1  0  0  0
  6  4  1  0  0  0
  7  6  1  0  0  0
  6  8  1  0  0  0
  8  9  1  0  0  0
  5 10  1  0  0  0
  7 11  1  0  0  0
  9 12  1  0  0  0
M  END
> <minimizedAffinity>
-4.81207

$$$$
2RI9_LDY_A_1900


 12 12  0  0  0  0  0  0  0  0999 V2000
   34.3385   27.8977  -44.4695 C   0  0  0  0  0  0  0  0  0  0  0  0
   34.4408   29.1579  -45.1705 O   0  0  0  0  0  0  0  0  0  0  0  0
   33.7601   30.2573  -44.5132 C   0  0  0  0  0  0  0  0  0  0  0  0
   34.1610   30.3758  -43.0143 C   0  0  0  0  0  0  0  0  0  0  0  0
   33.1964   31.1749  -42.3373 O   0  0  0  0  0  0  0  0  0  0  0  0
   34.2850   29.0224  -42.2803 C   0  0  0  0  0  0  0  0  0  0  0  0
   32.9982   28.5108  -41.9661 O   0  0  0  0  0  0  0  0  0  0  0  0
   35.0334   28.0031  -43.1289 C   0  0  0  0  0  0  0  0  0  0  0  0
   36.3833   28.4215  -43.3098 O   0  0  0  0  0  0  0  0  0  0  0  0
   32.3315   30.7374  -42.3733 H   0  0  0  0  0  0  0  0  0  0  0  0
   32.5023   28.3575  -42.7856 H   0  0  0  0  0  0  0  0  0  0  0  0
   36.3977   29.2858  -43.7500 H   0  0  0  0  0  0  0  0  0  0  0  0
  8  1  1  0  0  0
  1  2  1  0  0  0
  3  2  1  0  0  0
  4  3  1  0  0  0
  5  4  1  0  0  0
  6  4  1  0  0  0
  7  6  1  0  0  0
  6  8  1  0  0  0
  8  9  1  0  0  0
  5 10  1  0  0  0
  7 11  1  0  0  0
  9 12  1  0  0  0
M  END
> <minimizedAffinity>
-4.72906

$$$$
2RI9_LDY_A_1900


 12 12  0  0  0  0  0  0  0  0999 V2000
   35.5948   27.5915  -43.0490 C   0  0  0  0  0  0  0  0  0  0  0  0
   35.9226   26.4997  -42.1598 O   0  0  0  0  0  0  0  0  0  0  0  0
   34.7820   25.9516  -41.4508 C   0  0  0  0  0  0  0  0  0  0  0  0
   33.6114   25.6029  -42.4149 C   0  0  0  0  0  0  0  0  0  0  0  0
   32.4132   25.4618  -41.6587 O   0  0  0  0  0  0  0  0  0  0  0  0
   33.3730   26.6460  -43.5290 C   0  0  0  0  0  0  0  0  0  0  0  0
   32.6961   27.7801  -43.0076 O   0  0  0  0  0  0  0  0  0  0  0  0
   34.6878   27.0935  -44.1538 C   0  0  0  0  0  0  0  0  0  0  0  0
   35.2989   25.9993  -44.8316 O   0  0  0  0  0  0  0  0  0  0  0  0
   32.1980   26.3065  -41.2333 H   0  0  0  0  0  0  0  0  0  0  0  0
   33.2439   28.1979  -42.3248 H   0  0  0  0  0  0  0  0  0  0  0  0
   35.4651   25.2808  -44.2015 H   0  0  0  0  0  0  0  0  0  0  0  0
  8  1  1  0  0  0
  1  2  1  0  0  0
  3  2  1  0  0  0
  4  3  1  0  0  0
  5  4  1  0  0  0
  6  4  1  0  0  0
  7  6  1  0  0  0
  6  8  1  0  0  0
  8  9  1  0  0  0
  5 10  1  0  0  0
  7 11  1  0  0  0
  9 12  1  0  0  0
M  END
> <minimizedAffinity>
-4.62984

$$$$
2RI9_LDY_A_1900


 12 12  0  0  0  0  0  0  0  0999 V2000
   33.7331   27.4703  -44.0067 C   0  0  0  0  0  0  0  0  0  0  0  0
   33.3775   26.5529  -42.9476 O   0  0  0  0  0  0  0  0  0  0  0  0
   34.4033   25.5730  -42.6447 C   0  0  0  0  0  0  0  0  0  0  0  0
   35.7917   26.2372  -42.4155 C   0  0  0  0  0  0  0  0  0  0  0  0
   36.8057   25.2438  -42.5260 O   0  0  0  0  0  0  0  0  0  0  0  0
   36.1164   27.3864  -43.3953 C   0  0  0  0  0  0  0  0  0  0  0  0
   36.4984   26.8649  -44.6595 O   0  0  0  0  0  0  0  0  0  0  0  0
   34.9182   28.3086  -43.5776 C   0  0  0  0  0  0  0  0  0  0  0  0
   34.6279   28.9734  -42.3513 O   0  0  0  0  0  0  0  0  0  0  0  0
   36.8032   24.8777  -43.4242 H   0  0  0  0  0  0  0  0  0  0  0  0
   35.7629   26.3562  -45.0351 H   0  0  0  0  0  0  0  0  0  0  0  0
   34.4320   28.3159  -41.6656 H   0  0  0  0  0  0  0  0  0  0  0  0
  8  1  1  0  0  0
  1  2  1  0  0  0
  3  2  1  0  0  0
  4  3  1  0  0  0
  5  4  1  0  0  0
  6  4  1  0  0  0
  7  6  1  0  0  0
  6  8  1  0  0  0
  8  9  1  0  0  0
  5 10  1  0  0  0
  7 11  1  0  0  0
  9 12  1  0  0  0
M  END
> <minimizedAffinity>
-4.55849

$$$$
2RI9_LDY_A_1900


 12 12  0  0  0  0  0  0  0  0999 V2000
   35.4477   30.4203  -43.9305 C   0  0  0  0  0  0  0  0  0  0  0  0
   35.6055   28.9835  -43.9036 O   0  0  0  0  0  0  0  0  0  0  0  0
   34.9611   28.3388  -42.7752 C   0  0  0  0  0  0  0  0  0  0  0  0
   33.4755   28.7772  -42.6263 C   0  0  0  0  0  0  0  0  0  0  0  0
   33.0239   28.4502  -41.3162 O   0  0  0  0  0  0  0  0  0  0  0  0
   33.2288   30.2819  -42.8732 C   0  0  0  0  0  0  0  0  0  0  0  0
   33.6372   31.0414  -41.7452 O   0  0  0  0  0  0  0  0  0  0  0  0
   33.9847   30.7686  -44.1024 C   0  0  0  0  0  0  0  0  0  0  0  0
   33.4665   30.1385  -45.2705 O   0  0  0  0  0  0  0  0  0  0  0  0
   33.5407   28.9469  -40.6626 H   0  0  0  0  0  0  0  0  0  0  0  0
   34.5883   30.9185  -41.5998 H   0  0  0  0  0  0  0  0  0  0  0  0
   33.5622   29.1767  -45.1885 H   0  0  0  0  0  0  0  0  0  0  0  0
  8  1  1  0  0  0
  1  2  1  0  0  0
  3  2  1  0  0  0
  4  3  1  0  0  0
  5  4  1  0  0  0
  6  4  1  0  0  0
  7  6  1  0  0  0
  6  8  1  0  0  0
  8  9  1  0  0  0
  5 10  1  0  0  0
  7 11  1  0  0  0
  9 12  1  0  0  0
M  END
> <minimizedAffinity>
-4.51166

$$$$
