6GOT_F6W_A_304
  RCSB PDB10131806233D
Coordinates from PDB:6GOT:A:304 Model:1 without hydrogens
 19 20  0  0  0  0            999 V2000
   -4.1330    2.2960   15.5240   C 0  0  0  0  0  0  0  0  0  0  0  0
   -3.7060    3.4140   14.7930   C 0  0  0  0  0  0  0  0  0  0  0  0
   -6.3110    3.2380   15.6620   C 0  0  0  0  0  0  0  0  0  0  0  0
   -5.9020    4.3690   14.9420   C 0  0  0  0  0  0  0  0  0  0  0  0
   -4.5900    4.4550   14.5090   C 0  0  0  0  0  0  0  0  0  0  0  0
   -2.2850    5.6870   13.5170   C 0  0  0  0  0  0  0  0  0  0  0  0
   -1.4850   10.6060   13.2360   C 0  0  0  0  0  0  0  0  0  0  0  0
   -7.3640    0.8210   16.7420   O 0  0  0  0  0  0  0  0  0  0  0  0
   -5.9450    0.8530   16.7900   S 0  0  0  0  0  0  0  0  0  0  0  0
   -5.4660    0.9050   18.1350   O 0  0  0  0  0  0  0  0  0  0  0  0
   -5.4040   -0.5290   16.0920   N 0  0  0  0  0  0  0  0  0  0  0  0
   -5.4420    2.1790   15.9900   C 0  0  0  0  0  0  0  0  0  0  0  0
   -4.0290    5.7640   13.5980   S 0  0  0  0  0  0  0  0  0  0  0  0
   -1.7240    6.5880   14.6060   C 0  0  0  0  0  0  0  0  0  0  0  0
   -1.6320    7.9920   14.1050   C 0  0  0  0  0  0  0  0  0  0  0  0
   -1.9900    8.2800   12.7930   C 0  0  0  0  0  0  0  0  0  0  0  0
   -1.9200    9.6030   12.3750   C 0  0  0  0  0  0  0  0  0  0  0  0
   -1.1290   10.3010   14.5410   C 0  0  0  0  0  0  0  0  0  0  0  0
   -1.2000    8.9890   14.9780   C 0  0  0  0  0  0  0  0  0  0  0  0
 17 16  2  0  0  0  0
 17  7  1  0  0  0  0
 16 15  1  0  0  0  0
  7 18  2  0  0  0  0
  6 13  1  0  0  0  0
  6 14  1  0  0  0  0
 13  5  1  0  0  0  0
 15 14  1  0  0  0  0
 15 19  2  0  0  0  0
  5  2  2  0  0  0  0
  5  4  1  0  0  0  0
 18 19  1  0  0  0  0
  2  1  1  0  0  0  0
  4  3  2  0  0  0  0
  1 12  2  0  0  0  0
  3 12  1  0  0  0  0
 12  9  1  0  0  0  0
 11  9  1  0  0  0  0
  8  9  2  0  0  0  0
  9 10  2  0  0  0  0
A    1
C1
A    2
C2
A    3
C3
A    4
C4
A    5
C5
A    6
C6
A    7
C11
A    8
O1
A    9
S
A   10
O
A   11
N
A   12
C
A   13
S1
A   14
C7
A   15
C8
A   16
C13
A   17
C12
A   18
C10
A   19
C9
M  END
>  <InstanceId>
6GOT_F6W_A_304

>  <ChemCompId>
F6W

>  <PdbId>
6GOT

>  <ChainId>
A

>  <ResidueNumber>
304

>  <InsertionCode>


>  <Model>
1

>  <AltIds>


>  <MissingHeavyAtoms>
0

>  <ObservedFormula>
C14 N O2 S2

>  <Name>
4-(2-phenylethylsulfanyl)benzenesulfonamide

>  <SystematicName>
4-(2-phenylethylsulfanyl)benzenesulfonamide

>  <Synonyms>


>  <Type>
NON-POLYMER

>  <Formula>
C14 H15 N O2 S2

>  <MolecularWeight>
293.404

>  <ModifiedDate>
2018-09-28

>  <Parent>


>  <OneLetterCode>


>  <SubcomponentList>


>  <AmbiguousFlag>
N

>  <InChI>
InChI=1S/C14H15NO2S2/c15-19(16,17)14-8-6-13(7-9-14)18-11-10-12-4-2-1-3-5-12/h1-9H,10-11H2,(H2,15,16,17)

>  <InChIKey>
BIDLYFNXVUUEMA-UHFFFAOYSA-N

>  <SMILES>
c1ccc(cc1)CCSc2ccc(cc2)S(=O)(=O)N

$$$$
