5ULP_KB1_A_301
  RCSB PDB12061719533D
Coordinates from PDB:5ULP:A:301 Model:1 without hydrogens
 34 37  0  0  0  0            999 V2000
   -6.4940   -7.5520   30.1300   N 0  0  0  0  0  0  0  0  0  0  0  0
   -6.2530   -6.8570   28.9380   C 0  0  0  0  0  0  0  0  0  0  0  0
   -6.2710   -7.5360   27.7680   N 0  0  0  0  0  0  0  0  0  0  0  0
   -6.0490   -6.8440   26.6110   C 0  0  0  0  0  0  0  0  0  0  0  0
   -5.7860   -5.5390   26.4640   N 0  0  0  0  0  0  0  0  0  0  0  0
   -5.7740   -4.8820   27.6340   C 0  0  0  0  0  0  0  0  0  0  0  0
   -5.9840   -5.4830   28.9170   C 0  0  0  0  0  0  0  0  0  0  0  0
   -5.8920   -4.5040   29.9100   N 0  0  0  0  0  0  0  0  0  0  0  0
   -5.6240   -3.3700   29.2540   C 0  0  0  0  0  0  0  0  0  0  0  0
   -5.5590   -3.5450   27.8670   N 0  0  0  0  0  0  0  0  0  0  0  0
   -5.2900   -2.5640   26.8490   C 0  0  0  0  0  0  0  0  0  0  0  0
   -3.9040   -2.2670   26.8500   O 0  0  0  0  0  0  0  0  0  0  0  0
   -3.6760   -1.0190   26.2190   C 0  0  0  0  0  0  0  0  0  0  0  0
   -2.5050   -0.3000   26.9170   C 0  0  0  0  0  0  0  0  0  0  0  0
   -2.0080    0.8980   26.1990   N 0  0  0  0  0  0  0  0  0  0  0  0
   -1.1190    0.4060   25.0820   C 0  0  0  0  0  0  0  0  0  0  0  0
   -0.6150    1.5180   24.1450   C 0  0  0  0  0  0  0  0  0  0  0  0
    0.1110    0.9290   22.9570   C 0  0  0  0  0  0  0  0  0  0  0  0
    1.4280    0.3870   23.4010   N 0  0  0  0  0  0  0  0  0  0  0  0
    0.3550    1.9470   21.8210   C 0  0  0  0  0  0  0  0  0  0  0  0
    1.5210    2.1660   21.5000   O 0  0  0  0  0  0  0  0  0  0  0  0
   -0.6680    2.4600   21.2760   O 0  0  0  0  0  0  0  0  0  0  0  0
   -1.2590    1.7920   27.1530   C 0  0  0  0  0  0  0  0  0  0  0  0
   -2.1660    2.2780   28.2740   C 0  0  0  0  0  0  0  0  0  0  0  0
   -3.1850    3.1880   28.0090   C 0  0  0  0  0  0  0  0  0  0  0  0
   -4.0450    3.6380   29.0090   C 0  0  0  0  0  0  0  0  0  0  0  0
   -3.8910    3.1550   30.3030   C 0  0  0  0  0  0  0  0  0  0  0  0
   -4.7090    3.5780   31.2780   F 0  0  0  0  0  0  0  0  0  0  0  0
   -2.8910    2.2350   30.6080   C 0  0  0  0  0  0  0  0  0  0  0  0
   -2.0490    1.8000   29.5840   C 0  0  0  0  0  0  0  0  0  0  0  0
   -5.0510   -0.2630   26.3700   C 0  0  0  0  0  0  0  0  0  0  0  0
   -5.6190   -0.0150   25.1010   O 0  0  0  0  0  0  0  0  0  0  0  0
   -5.9510   -1.2190   27.1990   C 0  0  0  0  0  0  0  0  0  0  0  0
   -7.2850   -1.1950   26.7530   O 0  0  0  0  0  0  0  0  0  0  0  0
 22 20  2  0  0  0  0
 21 20  1  0  0  0  0
 20 18  1  0  0  0  0
 18 19  1  0  0  0  0
 18 17  1  0  0  0  0
 17 16  1  0  0  0  0
 16 15  1  0  0  0  0
 32 31  1  0  0  0  0
 15 14  1  0  0  0  0
 15 23  1  0  0  0  0
 13 31  1  0  0  0  0
 13 12  1  0  0  0  0
 13 14  1  0  0  0  0
 31 33  1  0  0  0  0
  5  4  2  0  0  0  0
  5  6  1  0  0  0  0
  4  3  1  0  0  0  0
 34 33  1  0  0  0  0
 11 12  1  0  0  0  0
 11 33  1  0  0  0  0
 11 10  1  0  0  0  0
 23 24  1  0  0  0  0
  6 10  1  0  0  0  0
  6  7  2  0  0  0  0
  3  2  2  0  0  0  0
 10  9  1  0  0  0  0
 25 24  2  0  0  0  0
 25 26  1  0  0  0  0
 24 30  1  0  0  0  0
  7  2  1  0  0  0  0
  7  8  1  0  0  0  0
  2  1  1  0  0  0  0
 26 27  2  0  0  0  0
  9  8  2  0  0  0  0
 30 29  2  0  0  0  0
 27 29  1  0  0  0  0
 27 28  1  0  0  0  0
A    1
N6
A    2
C6
A    3
N1
A    4
C2
A    5
N3
A    6
C4
A    7
C5
A    8
N7
A    9
C8
A   10
N9
A   11
CBF
A   12
OAU
A   13
CBE
A   14
CAQ
A   15
NBG
A   16
CAO
A   17
CB
A   18
CA
A   19
N
A   20
C
A   21
O
A   22
OXT
A   23
CAP
A   24
CAY
A   25
CAK
A   26
CAI
A   27
CAW
A   28
FAG
A   29
CAJ
A   30
CAL
A   31
CBC
A   32
OAE
A   33
CBD
A   34
OAF
M  END
>  <InstanceId>
5ULP_KB1_A_301

>  <ChemCompId>
KB1

>  <PdbId>
5ULP

>  <ChainId>
A

>  <ResidueNumber>
301

>  <InsertionCode>


>  <Model>
1

>  <AltIds>


>  <MissingHeavyAtoms>
0

>  <ObservedFormula>
C21 N7 O5 F

>  <Name>
5'-{[(3S)-3-amino-3-carboxypropyl][(4-fluorophenyl)methyl]amino}-5'-deoxyadenosine

>  <SystematicName>
(2~{S})-4-[[(2~{R},3~{S},4~{R},5~{R})-5-(6-aminopurin-9-yl)-3,4-bis(oxidanyl)oxolan-2-yl]methyl-[(4-fluorophenyl)methyl]amino]-2-azanyl-butanoic acid

>  <Synonyms>


>  <Type>
NON-POLYMER

>  <Formula>
C21 H26 F N7 O5

>  <MolecularWeight>
475.473

>  <ModifiedDate>
2017-05-12

>  <Parent>


>  <OneLetterCode>


>  <SubcomponentList>


>  <AmbiguousFlag>
N

>  <InChI>
InChI=1S/C21H26FN7O5/c22-12-3-1-11(2-4-12)7-28(6-5-13(23)21(32)33)8-14-16(30)17(31)20(34-14)29-10-27-15-18(24)25-9-26-19(15)29/h1-4,9-10,13-14,16-17,20,30-31H,5-8,23H2,(H,32,33)(H2,24,25,26)/t13-,14+,16+,17+,20+/m0/s1

>  <InChIKey>
UBYUMSGWGXUICY-SWQDORGXSA-N

>  <SMILES>
c1cc(ccc1CN(CC[C@@H](C(=O)O)N)C[C@@H]2[C@H]([C@H]([C@@H](O2)n3cnc4c3ncnc4N)O)O)F

$$$$
