4Y8X_4GR_A_301


 45 49  0  0  0  0  0  0  0  0999 V2000
   39.9454  -20.8983   28.6248 C   0  0  0  0  0  0  0  0  0  0  0  0
   44.7808  -20.5025   26.9028 Cl  0  0  0  0  0  0  0  0  0  0  0  0
   41.4384  -20.7878   28.5993 C   0  0  0  0  0  0  0  0  0  0  0  0
   42.1758  -20.5469   27.5220 N   0  0  0  0  0  0  0  0  0  0  0  0
   43.4467  -20.6826   27.9741 C   0  0  0  0  0  0  0  0  0  0  0  0
   43.5032  -20.9778   29.3069 C   0  0  0  0  0  0  0  0  0  0  0  0
   42.1908  -21.0366   29.6882 N   0  0  0  0  0  0  0  0  0  0  0  0
   41.8568  -21.2263   30.5947 H   0  0  0  0  0  0  0  0  0  0  0  0
   45.7401  -20.5033   30.3029 C   0  0  0  0  0  0  0  0  0  0  0  0
   44.5826  -21.2869   30.2481 C   0  0  0  0  0  0  0  0  0  0  0  0
   44.4819  -22.3945   31.0845 C   0  0  0  0  0  0  0  0  0  0  0  0
   45.4921  -22.7180   31.9605 C   0  0  0  0  0  0  0  0  0  0  0  0
   46.6741  -21.9728   31.9905 C   0  0  0  0  0  0  0  0  0  0  0  0
   46.7923  -20.8564   31.1447 C   0  0  0  0  0  0  0  0  0  0  0  0
   47.6750  -22.4399   32.8857 N   0  0  0  0  0  0  0  0  0  0  0  0
   49.0200  -22.1906   32.8355 C   0  0  0  0  0  0  0  0  0  0  0  0
   49.5944  -21.5486   31.9871 O   0  0  0  0  0  0  0  0  0  0  0  0
   47.3649  -23.0083   33.6274 H   0  0  0  0  0  0  0  0  0  0  0  0
   49.6247  -22.7489   33.8999 O   0  0  0  0  0  0  0  0  0  0  0  0
   49.3763  -22.1131   35.1999 C   0  0  0  0  0  0  0  0  0  0  0  0
   39.2474  -18.7086   29.4271 C   0  0  0  0  0  0  0  0  0  0  0  0
   39.3194  -19.5901   28.3682 N   0  0  0  0  0  0  0  0  0  0  0  0
   39.7960  -18.9368   30.5092 O   0  0  0  0  0  0  0  0  0  0  0  0
   38.9675  -19.3547   27.4794 H   0  0  0  0  0  0  0  0  0  0  0  0
   37.5089  -17.2399   28.3838 C   0  0  0  0  0  0  0  0  0  0  0  0
   38.5127  -17.4462   29.2207 C   0  0  0  0  0  0  0  0  0  0  0  0
   37.1688  -14.9719   27.3433 C   0  0  0  0  0  0  0  0  0  0  0  0
   36.8070  -15.9543   28.2794 C   0  0  0  0  0  0  0  0  0  0  0  0
   36.5104  -13.7434   27.3393 C   0  0  0  0  0  0  0  0  0  0  0  0
   35.4403  -13.5084   28.2073 C   0  0  0  0  0  0  0  0  0  0  0  0
   35.0292  -14.5103   29.0621 C   0  0  0  0  0  0  0  0  0  0  0  0
   35.7020  -15.7207   29.1211 C   0  0  0  0  0  0  0  0  0  0  0  0
   33.6205  -14.2556   30.0637 Cl  0  0  0  0  0  0  0  0  0  0  0  0
   39.5573  -15.3532   26.4460 C   0  0  0  0  0  0  0  0  0  0  0  0
   38.2391  -15.2122   26.4300 N   0  0  0  0  0  0  0  0  0  0  0  0
   39.9938  -15.7985   25.3050 N   0  0  0  0  0  0  0  0  0  0  0  0
   38.8851  -15.9910   24.5550 N   0  0  0  0  0  0  0  0  0  0  0  0
   37.8184  -15.6484   25.2142 N   0  0  0  0  0  0  0  0  0  0  0  0
   39.4816  -21.9968   27.6541 C   0  0  0  0  0  0  0  0  0  0  0  0
   40.6844  -24.2037   27.3515 C   0  0  0  0  0  0  0  0  0  0  0  0
   39.9596  -23.3482   28.1763 C   0  0  0  0  0  0  0  0  0  0  0  0
   40.3676  -24.8701   30.0325 C   0  0  0  0  0  0  0  0  0  0  0  0
   41.2532  -25.3686   27.8645 C   0  0  0  0  0  0  0  0  0  0  0  0
   41.0917  -25.7010   29.2078 C   0  0  0  0  0  0  0  0  0  0  0  0
   39.8004  -23.7014   29.5190 C   0  0  0  0  0  0  0  0  0  0  0  0
 36 34  2  0  0  0
 36 37  1  0  0  0
 34 35  1  0  0  0
 37 38  2  0  0  0
 35 38  1  0  0  0
 35 27  1  0  0  0
 29 27  2  0  0  0
 29 30  1  0  0  0
 27 28  1  0  0  0
  2  5  1  0  0  0
 40 43  2  0  0  0
 40 41  1  0  0  0
  4  5  1  0  0  0
  4  3  2  0  0  0
 30 31  2  0  0  0
 39 41  1  0  0  0
 39  1  1  0  0  0
 28 25  1  0  0  0
 28 32  2  0  0  0
 43 44  1  0  0  0
 25 26  2  0  0  0
  5  6  2  0  0  0
 41 45  2  0  0  0
 22  1  1  0  0  0
 22 21  1  0  0  0
 31 32  1  0  0  0
 31 33  1  0  0  0
  3  1  1  0  0  0
  3  7  1  0  0  0
 26 21  1  0  0  0
 44 42  2  0  0  0
  6  7  1  0  0  0
  6 10  1  0  0  0
 21 23  2  0  0  0
 45 42  1  0  0  0
  9 10  2  0  0  0
  9 14  1  0  0  0
 10 11  1  0  0  0
 14 13  2  0  0  0
 11 12  2  0  0  0
 13 12  1  0  0  0
 13 15  1  0  0  0
 17 16  2  0  0  0
 15 16  1  0  0  0
 16 19  1  0  0  0
 19 20  1  0  0  0
  7  8  1  0  0  0
 22 24  1  0  0  0
 15 18  1  0  0  0
M  END
> <minimizedAffinity>
-10.63800

$$$$
4Y8X_4GR_A_301


 45 49  0  0  0  0  0  0  0  0999 V2000
   39.8127  -20.9242   28.4619 C   0  0  0  0  0  0  0  0  0  0  0  0
   44.6752  -20.6581   26.7919 Cl  0  0  0  0  0  0  0  0  0  0  0  0
   41.3074  -20.8362   28.4526 C   0  0  0  0  0  0  0  0  0  0  0  0
   42.0622  -20.6435   27.3776 N   0  0  0  0  0  0  0  0  0  0  0  0
   43.3250  -20.7817   27.8509 C   0  0  0  0  0  0  0  0  0  0  0  0
   43.3600  -21.0313   29.1938 C   0  0  0  0  0  0  0  0  0  0  0  0
   42.0420  -21.0579   29.5593 N   0  0  0  0  0  0  0  0  0  0  0  0
   41.6936  -21.2113   30.4673 H   0  0  0  0  0  0  0  0  0  0  0  0
   45.4344  -20.3940   30.4232 C   0  0  0  0  0  0  0  0  0  0  0  0
   44.4225  -21.3232   30.1594 C   0  0  0  0  0  0  0  0  0  0  0  0
   44.4559  -22.5539   30.8079 C   0  0  0  0  0  0  0  0  0  0  0  0
   45.4560  -22.8596   31.7016 C   0  0  0  0  0  0  0  0  0  0  0  0
   46.4996  -21.9602   31.9371 C   0  0  0  0  0  0  0  0  0  0  0  0
   46.4826  -20.7167   31.2820 C   0  0  0  0  0  0  0  0  0  0  0  0
   47.5126  -22.4104   32.8273 N   0  0  0  0  0  0  0  0  0  0  0  0
   48.8658  -22.2461   32.7016 C   0  0  0  0  0  0  0  0  0  0  0  0
   49.4358  -21.7112   31.7793 O   0  0  0  0  0  0  0  0  0  0  0  0
   47.2054  -22.8965   33.6264 H   0  0  0  0  0  0  0  0  0  0  0  0
   49.4862  -22.7497   33.7841 O   0  0  0  0  0  0  0  0  0  0  0  0
   49.1845  -22.1053   35.0685 C   0  0  0  0  0  0  0  0  0  0  0  0
   39.1678  -18.7382   29.3171 C   0  0  0  0  0  0  0  0  0  0  0  0
   39.2091  -19.5993   28.2399 N   0  0  0  0  0  0  0  0  0  0  0  0
   39.7257  -18.9989   30.3871 O   0  0  0  0  0  0  0  0  0  0  0  0
   38.8506  -19.3392   27.3606 H   0  0  0  0  0  0  0  0  0  0  0  0
   37.4699  -17.2053   28.2997 C   0  0  0  0  0  0  0  0  0  0  0  0
   38.4553  -17.4580   29.1457 C   0  0  0  0  0  0  0  0  0  0  0  0
   37.1792  -14.8963   27.3374 C   0  0  0  0  0  0  0  0  0  0  0  0
   36.7886  -15.9063   28.2317 C   0  0  0  0  0  0  0  0  0  0  0  0
   36.5391  -13.6585   27.3683 C   0  0  0  0  0  0  0  0  0  0  0  0
   35.4592  -13.4388   28.2283 C   0  0  0  0  0  0  0  0  0  0  0  0
   35.0203  -14.4646   29.0398 C   0  0  0  0  0  0  0  0  0  0  0  0
   35.6743  -15.6864   29.0647 C   0  0  0  0  0  0  0  0  0  0  0  0
   33.6002  -14.2248   30.0289 Cl  0  0  0  0  0  0  0  0  0  0  0  0
   39.5685  -15.3298   26.4662 C   0  0  0  0  0  0  0  0  0  0  0  0
   38.2598  -15.1196   26.4321 N   0  0  0  0  0  0  0  0  0  0  0  0
   40.0121  -15.7065   25.3035 N   0  0  0  0  0  0  0  0  0  0  0  0
   38.9153  -15.7818   24.5159 N   0  0  0  0  0  0  0  0  0  0  0  0
   37.8500  -15.4368   25.1763 N   0  0  0  0  0  0  0  0  0  0  0  0
   39.3410  -21.9855   27.4544 C   0  0  0  0  0  0  0  0  0  0  0  0
   37.1839  -21.0586   26.5078 C   0  0  0  0  0  0  0  0  0  0  0  0
   38.5463  -21.2960   26.3498 C   0  0  0  0  0  0  0  0  0  0  0  0
   38.4815  -20.0107   24.2829 C   0  0  0  0  0  0  0  0  0  0  0  0
   36.4846  -20.2966   25.5728 C   0  0  0  0  0  0  0  0  0  0  0  0
   37.1368  -19.7741   24.4580 C   0  0  0  0  0  0  0  0  0  0  0  0
   39.1825  -20.7715   25.2215 C   0  0  0  0  0  0  0  0  0  0  0  0
 36 34  2  0  0  0
 36 37  1  0  0  0
 34 35  1  0  0  0
 37 38  2  0  0  0
 35 38  1  0  0  0
 35 27  1  0  0  0
 29 27  2  0  0  0
 29 30  1  0  0  0
 27 28  1  0  0  0
  2  5  1  0  0  0
 40 43  2  0  0  0
 40 41  1  0  0  0
  4  5  1  0  0  0
  4  3  2  0  0  0
 30 31  2  0  0  0
 39 41  1  0  0  0
 39  1  1  0  0  0
 28 25  1  0  0  0
 28 32  2  0  0  0
 43 44  1  0  0  0
 25 26  2  0  0  0
  5  6  2  0  0  0
 41 45  2  0  0  0
 22  1  1  0  0  0
 22 21  1  0  0  0
 31 32  1  0  0  0
 31 33  1  0  0  0
  3  1  1  0  0  0
  3  7  1  0  0  0
 26 21  1  0  0  0
 44 42  2  0  0  0
  6  7  1  0  0  0
  6 10  1  0  0  0
 21 23  2  0  0  0
 45 42  1  0  0  0
  9 10  2  0  0  0
  9 14  1  0  0  0
 10 11  1  0  0  0
 14 13  2  0  0  0
 11 12  2  0  0  0
 13 12  1  0  0  0
 13 15  1  0  0  0
 17 16  2  0  0  0
 15 16  1  0  0  0
 16 19  1  0  0  0
 19 20  1  0  0  0
  7  8  1  0  0  0
 22 24  1  0  0  0
 15 18  1  0  0  0
M  END
> <minimizedAffinity>
-10.49276

$$$$
4Y8X_4GR_A_301


 45 49  0  0  0  0  0  0  0  0999 V2000
   40.1646  -21.0449   28.7863 C   0  0  0  0  0  0  0  0  0  0  0  0
   45.0859  -20.5611   30.2180 Cl  0  0  0  0  0  0  0  0  0  0  0  0
   41.6600  -20.9932   28.7320 C   0  0  0  0  0  0  0  0  0  0  0  0
   42.4680  -20.9192   29.7828 N   0  0  0  0  0  0  0  0  0  0  0  0
   43.6933  -20.7541   29.2265 C   0  0  0  0  0  0  0  0  0  0  0  0
   43.6555  -20.7487   27.8608 C   0  0  0  0  0  0  0  0  0  0  0  0
   42.3292  -20.9088   27.5663 N   0  0  0  0  0  0  0  0  0  0  0  0
   41.9352  -20.9542   26.6653 H   0  0  0  0  0  0  0  0  0  0  0  0
   44.2917  -20.6078   25.4533 C   0  0  0  0  0  0  0  0  0  0  0  0
   44.6487  -20.5403   26.8042 C   0  0  0  0  0  0  0  0  0  0  0  0
   45.9792  -20.3025   27.1355 C   0  0  0  0  0  0  0  0  0  0  0  0
   46.9339  -20.1263   26.1609 C   0  0  0  0  0  0  0  0  0  0  0  0
   46.6001  -20.2402   24.8085 C   0  0  0  0  0  0  0  0  0  0  0  0
   45.2612  -20.4886   24.4602 C   0  0  0  0  0  0  0  0  0  0  0  0
   47.6801  -20.1070   23.8935 N   0  0  0  0  0  0  0  0  0  0  0  0
   48.2920  -18.9512   23.4890 C   0  0  0  0  0  0  0  0  0  0  0  0
   47.9879  -17.8297   23.8227 O   0  0  0  0  0  0  0  0  0  0  0  0
   48.0279  -20.9425   23.5059 H   0  0  0  0  0  0  0  0  0  0  0  0
   49.3194  -19.2443   22.6712 O   0  0  0  0  0  0  0  0  0  0  0  0
   49.0039  -20.0637   21.4943 C   0  0  0  0  0  0  0  0  0  0  0  0
   39.3818  -18.8579   29.5139 C   0  0  0  0  0  0  0  0  0  0  0  0
   39.5835  -19.7304   28.4645 N   0  0  0  0  0  0  0  0  0  0  0  0
   39.7869  -19.0991   30.6549 O   0  0  0  0  0  0  0  0  0  0  0  0
   39.3490  -19.4850   27.5403 H   0  0  0  0  0  0  0  0  0  0  0  0
   37.6217  -17.4232   28.4596 C   0  0  0  0  0  0  0  0  0  0  0  0
   38.6862  -17.5889   29.2276 C   0  0  0  0  0  0  0  0  0  0  0  0
   37.3691  -15.2165   27.2727 C   0  0  0  0  0  0  0  0  0  0  0  0
   36.9688  -16.1218   28.2689 C   0  0  0  0  0  0  0  0  0  0  0  0
   36.7574  -13.9671   27.1861 C   0  0  0  0  0  0  0  0  0  0  0  0
   35.6950  -13.6364   28.0323 C   0  0  0  0  0  0  0  0  0  0  0  0
   35.2449  -14.5647   28.9484 C   0  0  0  0  0  0  0  0  0  0  0  0
   35.8716  -15.7929   29.0887 C   0  0  0  0  0  0  0  0  0  0  0  0
   33.8447  -14.1930   29.9250 Cl  0  0  0  0  0  0  0  0  0  0  0  0
   39.7491  -15.7016   26.4033 C   0  0  0  0  0  0  0  0  0  0  0  0
   38.4315  -15.5553   26.3817 N   0  0  0  0  0  0  0  0  0  0  0  0
   40.1750  -16.2641   25.3111 N   0  0  0  0  0  0  0  0  0  0  0  0
   39.0599  -16.5261   24.5922 N   0  0  0  0  0  0  0  0  0  0  0  0
   37.9998  -16.1115   25.2199 N   0  0  0  0  0  0  0  0  0  0  0  0
   39.6437  -22.1783   27.8873 C   0  0  0  0  0  0  0  0  0  0  0  0
   39.9208  -23.9204   29.7030 C   0  0  0  0  0  0  0  0  0  0  0  0
   40.1916  -23.5057   28.4022 C   0  0  0  0  0  0  0  0  0  0  0  0
   41.2292  -25.6676   27.9804 C   0  0  0  0  0  0  0  0  0  0  0  0
   40.2877  -25.1956   30.1307 C   0  0  0  0  0  0  0  0  0  0  0  0
   40.9446  -26.0686   29.2661 C   0  0  0  0  0  0  0  0  0  0  0  0
   40.8587  -24.3909   27.5512 C   0  0  0  0  0  0  0  0  0  0  0  0
 36 34  2  0  0  0
 36 37  1  0  0  0
 34 35  1  0  0  0
 37 38  2  0  0  0
 35 38  1  0  0  0
 35 27  1  0  0  0
 29 27  2  0  0  0
 29 30  1  0  0  0
 27 28  1  0  0  0
  2  5  1  0  0  0
 40 43  2  0  0  0
 40 41  1  0  0  0
  4  5  1  0  0  0
  4  3  2  0  0  0
 30 31  2  0  0  0
 39 41  1  0  0  0
 39  1  1  0  0  0
 28 25  1  0  0  0
 28 32  2  0  0  0
 43 44  1  0  0  0
 25 26  2  0  0  0
  5  6  2  0  0  0
 41 45  2  0  0  0
 22  1  1  0  0  0
 22 21  1  0  0  0
 31 32  1  0  0  0
 31 33  1  0  0  0
  3  1  1  0  0  0
  3  7  1  0  0  0
 26 21  1  0  0  0
 44 42  2  0  0  0
  6  7  1  0  0  0
  6 10  1  0  0  0
 21 23  2  0  0  0
 45 42  1  0  0  0
  9 10  2  0  0  0
  9 14  1  0  0  0
 10 11  1  0  0  0
 14 13  2  0  0  0
 11 12  2  0  0  0
 13 12  1  0  0  0
 13 15  1  0  0  0
 17 16  2  0  0  0
 15 16  1  0  0  0
 16 19  1  0  0  0
 19 20  1  0  0  0
  7  8  1  0  0  0
 22 24  1  0  0  0
 15 18  1  0  0  0
M  END
> <minimizedAffinity>
-9.73976

$$$$
4Y8X_4GR_A_301


 45 49  0  0  0  0  0  0  0  0999 V2000
   38.3769  -25.0456   25.4468 C   0  0  0  0  0  0  0  0  0  0  0  0
   35.1276  -21.5035   23.6034 Cl  0  0  0  0  0  0  0  0  0  0  0  0
   37.5944  -23.7777   25.2987 C   0  0  0  0  0  0  0  0  0  0  0  0
   36.6169  -23.5721   24.4243 N   0  0  0  0  0  0  0  0  0  0  0  0
   36.3288  -22.2563   24.5781 C   0  0  0  0  0  0  0  0  0  0  0  0
   37.0914  -21.6591   25.5418 C   0  0  0  0  0  0  0  0  0  0  0  0
   37.8992  -22.6658   25.9949 N   0  0  0  0  0  0  0  0  0  0  0  0
   38.5801  -22.5911   26.7020 H   0  0  0  0  0  0  0  0  0  0  0  0
   37.6172  -20.0375   27.3625 C   0  0  0  0  0  0  0  0  0  0  0  0
   37.2317  -20.2891   26.0414 C   0  0  0  0  0  0  0  0  0  0  0  0
   36.9486  -19.2110   25.2083 C   0  0  0  0  0  0  0  0  0  0  0  0
   37.0512  -17.9162   25.6614 C   0  0  0  0  0  0  0  0  0  0  0  0
   37.3872  -17.6522   26.9921 C   0  0  0  0  0  0  0  0  0  0  0  0
   37.6675  -18.7325   27.8468 C   0  0  0  0  0  0  0  0  0  0  0  0
   37.3962  -16.2804   27.3654 N   0  0  0  0  0  0  0  0  0  0  0  0
   36.6149  -15.6681   28.3080 C   0  0  0  0  0  0  0  0  0  0  0  0
   35.7488  -16.1948   28.9668 O   0  0  0  0  0  0  0  0  0  0  0  0
   38.0385  -15.7043   26.8912 H   0  0  0  0  0  0  0  0  0  0  0  0
   36.9707  -14.3755   28.4217 O   0  0  0  0  0  0  0  0  0  0  0  0
   36.6080  -13.4975   27.3021 C   0  0  0  0  0  0  0  0  0  0  0  0
   40.7135  -25.1347   26.1234 C   0  0  0  0  0  0  0  0  0  0  0  0
   39.4040  -24.9076   26.4934 N   0  0  0  0  0  0  0  0  0  0  0  0
   41.0412  -25.3146   24.9469 O   0  0  0  0  0  0  0  0  0  0  0  0
   39.1662  -24.6637   27.4171 H   0  0  0  0  0  0  0  0  0  0  0  0
   41.9569  -24.1628   28.0670 C   0  0  0  0  0  0  0  0  0  0  0  0
   41.7383  -25.1240   27.1845 C   0  0  0  0  0  0  0  0  0  0  0  0
   43.2298  -23.2163   30.0230 C   0  0  0  0  0  0  0  0  0  0  0  0
   42.9759  -24.2613   29.1197 C   0  0  0  0  0  0  0  0  0  0  0  0
   44.2580  -23.3418   30.9557 C   0  0  0  0  0  0  0  0  0  0  0  0
   44.9882  -24.5299   31.0521 C   0  0  0  0  0  0  0  0  0  0  0  0
   44.6734  -25.5872   30.2235 C   0  0  0  0  0  0  0  0  0  0  0  0
   43.6911  -25.4674   29.2531 C   0  0  0  0  0  0  0  0  0  0  0  0
   45.5091  -27.1085   30.4233 Cl  0  0  0  0  0  0  0  0  0  0  0  0
   42.2930  -20.9814   29.1381 C   0  0  0  0  0  0  0  0  0  0  0  0
   42.4694  -22.0103   29.9556 N   0  0  0  0  0  0  0  0  0  0  0  0
   41.2688  -20.2669   29.5002 N   0  0  0  0  0  0  0  0  0  0  0  0
   40.7508  -20.9111   30.5704 N   0  0  0  0  0  0  0  0  0  0  0  0
   41.4555  -21.9648   30.8586 N   0  0  0  0  0  0  0  0  0  0  0  0
   37.4235  -26.2289   25.6807 C   0  0  0  0  0  0  0  0  0  0  0  0
   36.0263  -27.4578   23.9642 C   0  0  0  0  0  0  0  0  0  0  0  0
   37.2770  -27.0076   24.3770 C   0  0  0  0  0  0  0  0  0  0  0  0
   38.1943  -27.7522   22.2481 C   0  0  0  0  0  0  0  0  0  0  0  0
   35.8612  -28.0347   22.7057 C   0  0  0  0  0  0  0  0  0  0  0  0
   36.9494  -28.1824   21.8484 C   0  0  0  0  0  0  0  0  0  0  0  0
   38.3590  -27.1715   23.5078 C   0  0  0  0  0  0  0  0  0  0  0  0
 36 34  2  0  0  0
 36 37  1  0  0  0
 34 35  1  0  0  0
 37 38  2  0  0  0
 35 38  1  0  0  0
 35 27  1  0  0  0
 29 27  2  0  0  0
 29 30  1  0  0  0
 27 28  1  0  0  0
  2  5  1  0  0  0
 40 43  2  0  0  0
 40 41  1  0  0  0
  4  5  1  0  0  0
  4  3  2  0  0  0
 30 31  2  0  0  0
 39 41  1  0  0  0
 39  1  1  0  0  0
 28 25  1  0  0  0
 28 32  2  0  0  0
 43 44  1  0  0  0
 25 26  2  0  0  0
  5  6  2  0  0  0
 41 45  2  0  0  0
 22  1  1  0  0  0
 22 21  1  0  0  0
 31 32  1  0  0  0
 31 33  1  0  0  0
  3  1  1  0  0  0
  3  7  1  0  0  0
 26 21  1  0  0  0
 44 42  2  0  0  0
  6  7  1  0  0  0
  6 10  1  0  0  0
 21 23  2  0  0  0
 45 42  1  0  0  0
  9 10  2  0  0  0
  9 14  1  0  0  0
 10 11  1  0  0  0
 14 13  2  0  0  0
 11 12  2  0  0  0
 13 12  1  0  0  0
 13 15  1  0  0  0
 17 16  2  0  0  0
 15 16  1  0  0  0
 16 19  1  0  0  0
 19 20  1  0  0  0
  7  8  1  0  0  0
 22 24  1  0  0  0
 15 18  1  0  0  0
M  END
> <minimizedAffinity>
-9.46587

$$$$
4Y8X_4GR_A_301


 45 49  0  0  0  0  0  0  0  0999 V2000
   39.9168  -19.7206   27.5848 C   0  0  0  0  0  0  0  0  0  0  0  0
   44.4165  -21.9076   26.3710 Cl  0  0  0  0  0  0  0  0  0  0  0  0
   41.3328  -20.1986   27.6756 C   0  0  0  0  0  0  0  0  0  0  0  0
   42.0383  -20.7151   26.6766 N   0  0  0  0  0  0  0  0  0  0  0  0
   43.1846  -21.1194   27.2771 C   0  0  0  0  0  0  0  0  0  0  0  0
   43.2053  -20.8412   28.6146 C   0  0  0  0  0  0  0  0  0  0  0  0
   41.9974  -20.2423   28.8462 N   0  0  0  0  0  0  0  0  0  0  0  0
   41.6727  -19.9043   29.7120 H   0  0  0  0  0  0  0  0  0  0  0  0
   45.2035  -20.2544   29.9870 C   0  0  0  0  0  0  0  0  0  0  0  0
   44.1386  -21.1180   29.7095 C   0  0  0  0  0  0  0  0  0  0  0  0
   43.9941  -22.2722   30.4733 C   0  0  0  0  0  0  0  0  0  0  0  0
   44.8712  -22.5651   31.4918 C   0  0  0  0  0  0  0  0  0  0  0  0
   45.9674  -21.7367   31.7475 C   0  0  0  0  0  0  0  0  0  0  0  0
   46.1299  -20.5718   30.9777 C   0  0  0  0  0  0  0  0  0  0  0  0
   46.8440  -22.1742   32.7777 N   0  0  0  0  0  0  0  0  0  0  0  0
   48.2074  -22.2832   32.7215 C   0  0  0  0  0  0  0  0  0  0  0  0
   48.9012  -22.0540   31.7583 O   0  0  0  0  0  0  0  0  0  0  0  0
   46.4217  -22.4280   33.6301 H   0  0  0  0  0  0  0  0  0  0  0  0
   48.6818  -22.6635   33.9218 O   0  0  0  0  0  0  0  0  0  0  0  0
   50.0424  -22.2238   34.2553 C   0  0  0  0  0  0  0  0  0  0  0  0
   38.4255  -20.4938   25.8231 C   0  0  0  0  0  0  0  0  0  0  0  0
   39.0459  -20.7678   27.0245 N   0  0  0  0  0  0  0  0  0  0  0  0
   38.6817  -19.4787   25.1689 O   0  0  0  0  0  0  0  0  0  0  0  0
   38.9122  -21.6263   27.4874 H   0  0  0  0  0  0  0  0  0  0  0  0
   37.7269  -22.6453   24.7504 C   0  0  0  0  0  0  0  0  0  0  0  0
   37.4537  -21.4789   25.3119 C   0  0  0  0  0  0  0  0  0  0  0  0
   35.7154  -23.2392   23.3563 C   0  0  0  0  0  0  0  0  0  0  0  0
   36.6864  -23.5836   24.3107 C   0  0  0  0  0  0  0  0  0  0  0  0
   34.7107  -24.1489   23.0311 C   0  0  0  0  0  0  0  0  0  0  0  0
   34.7058  -25.4307   23.5888 C   0  0  0  0  0  0  0  0  0  0  0  0
   35.7147  -25.7956   24.4562 C   0  0  0  0  0  0  0  0  0  0  0  0
   36.6940  -24.8909   24.8351 C   0  0  0  0  0  0  0  0  0  0  0  0
   35.7711  -27.4334   25.0619 Cl  0  0  0  0  0  0  0  0  0  0  0  0
   36.3208  -21.3111   21.7526 C   0  0  0  0  0  0  0  0  0  0  0  0
   35.7288  -21.9443   22.7558 N   0  0  0  0  0  0  0  0  0  0  0  0
   35.7562  -20.1619   21.5267 N   0  0  0  0  0  0  0  0  0  0  0  0
   34.7282  -20.0966   22.4029 N   0  0  0  0  0  0  0  0  0  0  0  0
   34.6912  -21.1605   23.1490 N   0  0  0  0  0  0  0  0  0  0  0  0
   39.4460  -19.2045   28.9545 C   0  0  0  0  0  0  0  0  0  0  0  0
   39.2172  -17.0477   27.6489 C   0  0  0  0  0  0  0  0  0  0  0  0
   38.9084  -17.7866   28.7874 C   0  0  0  0  0  0  0  0  0  0  0  0
   37.3876  -16.0113   29.4684 C   0  0  0  0  0  0  0  0  0  0  0  0
   38.6090  -15.8145   27.4184 C   0  0  0  0  0  0  0  0  0  0  0  0
   37.6938  -15.2967   28.3324 C   0  0  0  0  0  0  0  0  0  0  0  0
   37.9948  -17.2483   29.6976 C   0  0  0  0  0  0  0  0  0  0  0  0
 36 34  2  0  0  0
 36 37  1  0  0  0
 34 35  1  0  0  0
 37 38  2  0  0  0
 35 38  1  0  0  0
 35 27  1  0  0  0
 29 27  2  0  0  0
 29 30  1  0  0  0
 27 28  1  0  0  0
  2  5  1  0  0  0
 40 43  2  0  0  0
 40 41  1  0  0  0
  4  5  1  0  0  0
  4  3  2  0  0  0
 30 31  2  0  0  0
 39 41  1  0  0  0
 39  1  1  0  0  0
 28 25  1  0  0  0
 28 32  2  0  0  0
 43 44  1  0  0  0
 25 26  2  0  0  0
  5  6  2  0  0  0
 41 45  2  0  0  0
 22  1  1  0  0  0
 22 21  1  0  0  0
 31 32  1  0  0  0
 31 33  1  0  0  0
  3  1  1  0  0  0
  3  7  1  0  0  0
 26 21  1  0  0  0
 44 42  2  0  0  0
  6  7  1  0  0  0
  6 10  1  0  0  0
 21 23  2  0  0  0
 45 42  1  0  0  0
  9 10  2  0  0  0
  9 14  1  0  0  0
 10 11  1  0  0  0
 14 13  2  0  0  0
 11 12  2  0  0  0
 13 12  1  0  0  0
 13 15  1  0  0  0
 17 16  2  0  0  0
 15 16  1  0  0  0
 16 19  1  0  0  0
 19 20  1  0  0  0
  7  8  1  0  0  0
 22 24  1  0  0  0
 15 18  1  0  0  0
M  END
> <minimizedAffinity>
-9.23070

$$$$
4Y8X_4GR_A_301


 45 49  0  0  0  0  0  0  0  0999 V2000
   39.4750  -21.1921   26.2307 C   0  0  0  0  0  0  0  0  0  0  0  0
   41.2113  -23.2822   30.6033 Cl  0  0  0  0  0  0  0  0  0  0  0  0
   40.4025  -21.6894   27.2956 C   0  0  0  0  0  0  0  0  0  0  0  0
   40.0455  -22.3962   28.3612 N   0  0  0  0  0  0  0  0  0  0  0  0
   41.1905  -22.4783   29.0824 C   0  0  0  0  0  0  0  0  0  0  0  0
   42.2436  -21.8583   28.4714 C   0  0  0  0  0  0  0  0  0  0  0  0
   41.7081  -21.3594   27.3157 N   0  0  0  0  0  0  0  0  0  0  0  0
   42.1899  -20.8511   26.6238 H   0  0  0  0  0  0  0  0  0  0  0  0
   44.6771  -22.3879   28.3352 C   0  0  0  0  0  0  0  0  0  0  0  0
   43.6380  -21.5973   28.8374 C   0  0  0  0  0  0  0  0  0  0  0  0
   43.9451  -20.5695   29.7239 C   0  0  0  0  0  0  0  0  0  0  0  0
   45.2446  -20.3198   30.1001 C   0  0  0  0  0  0  0  0  0  0  0  0
   46.2863  -21.1326   29.6446 C   0  0  0  0  0  0  0  0  0  0  0  0
   45.9888  -22.1798   28.7552 C   0  0  0  0  0  0  0  0  0  0  0  0
   47.5775  -20.8230   30.1527 N   0  0  0  0  0  0  0  0  0  0  0  0
   48.2528  -21.4615   31.1578 C   0  0  0  0  0  0  0  0  0  0  0  0
   47.8417  -22.3895   31.8146 O   0  0  0  0  0  0  0  0  0  0  0  0
   48.0393  -20.0614   29.7332 H   0  0  0  0  0  0  0  0  0  0  0  0
   49.4757  -20.9184   31.2987 O   0  0  0  0  0  0  0  0  0  0  0  0
   50.4322  -21.1733   30.2143 C   0  0  0  0  0  0  0  0  0  0  0  0
   37.6628  -19.6621   26.7788 C   0  0  0  0  0  0  0  0  0  0  0  0
   39.0107  -19.8282   26.5361 N   0  0  0  0  0  0  0  0  0  0  0  0
   36.8899  -20.6202   26.8716 O   0  0  0  0  0  0  0  0  0  0  0  0
   39.6353  -19.0678   26.5659 H   0  0  0  0  0  0  0  0  0  0  0  0
   37.4807  -17.4494   27.9358 C   0  0  0  0  0  0  0  0  0  0  0  0
   37.1626  -18.2864   26.9618 C   0  0  0  0  0  0  0  0  0  0  0  0
   37.5237  -15.0196   27.2751 C   0  0  0  0  0  0  0  0  0  0  0  0
   36.9638  -16.0769   28.0105 C   0  0  0  0  0  0  0  0  0  0  0  0
   37.0344  -13.7251   27.4413 C   0  0  0  0  0  0  0  0  0  0  0  0
   35.9392  -13.4816   28.2751 C   0  0  0  0  0  0  0  0  0  0  0  0
   35.3344  -14.5381   28.9244 C   0  0  0  0  0  0  0  0  0  0  0  0
   35.8360  -15.8256   28.8161 C   0  0  0  0  0  0  0  0  0  0  0  0
   33.8967  -14.2483   29.8739 Cl  0  0  0  0  0  0  0  0  0  0  0  0
   39.8649  -15.7197   26.4477 C   0  0  0  0  0  0  0  0  0  0  0  0
   38.6219  -15.2610   26.3959 N   0  0  0  0  0  0  0  0  0  0  0  0
   40.3336  -15.9360   25.2544 N   0  0  0  0  0  0  0  0  0  0  0  0
   39.3130  -15.6429   24.4169 N   0  0  0  0  0  0  0  0  0  0  0  0
   38.2725  -15.2389   25.0833 N   0  0  0  0  0  0  0  0  0  0  0  0
   40.1430  -21.3140   24.8512 C   0  0  0  0  0  0  0  0  0  0  0  0
   37.9522  -21.8525   23.7027 C   0  0  0  0  0  0  0  0  0  0  0  0
   39.0942  -21.0599   23.7728 C   0  0  0  0  0  0  0  0  0  0  0  0
   38.1542  -19.6363   22.0355 C   0  0  0  0  0  0  0  0  0  0  0  0
   36.9211  -21.5326   22.8205 C   0  0  0  0  0  0  0  0  0  0  0  0
   37.0255  -20.4226   21.9852 C   0  0  0  0  0  0  0  0  0  0  0  0
   39.1858  -19.9552   22.9217 C   0  0  0  0  0  0  0  0  0  0  0  0
 36 34  2  0  0  0
 36 37  1  0  0  0
 34 35  1  0  0  0
 37 38  2  0  0  0
 35 38  1  0  0  0
 35 27  1  0  0  0
 29 27  2  0  0  0
 29 30  1  0  0  0
 27 28  1  0  0  0
  2  5  1  0  0  0
 40 43  2  0  0  0
 40 41  1  0  0  0
  4  5  1  0  0  0
  4  3  2  0  0  0
 30 31  2  0  0  0
 39 41  1  0  0  0
 39  1  1  0  0  0
 28 25  1  0  0  0
 28 32  2  0  0  0
 43 44  1  0  0  0
 25 26  2  0  0  0
  5  6  2  0  0  0
 41 45  2  0  0  0
 22  1  1  0  0  0
 22 21  1  0  0  0
 31 32  1  0  0  0
 31 33  1  0  0  0
  3  1  1  0  0  0
  3  7  1  0  0  0
 26 21  1  0  0  0
 44 42  2  0  0  0
  6  7  1  0  0  0
  6 10  1  0  0  0
 21 23  2  0  0  0
 45 42  1  0  0  0
  9 10  2  0  0  0
  9 14  1  0  0  0
 10 11  1  0  0  0
 14 13  2  0  0  0
 11 12  2  0  0  0
 13 12  1  0  0  0
 13 15  1  0  0  0
 17 16  2  0  0  0
 15 16  1  0  0  0
 16 19  1  0  0  0
 19 20  1  0  0  0
  7  8  1  0  0  0
 22 24  1  0  0  0
 15 18  1  0  0  0
M  END
> <minimizedAffinity>
-8.85374

$$$$
4Y8X_4GR_A_301


 45 49  0  0  0  0  0  0  0  0999 V2000
   38.8042  -19.5380   27.9634 C   0  0  0  0  0  0  0  0  0  0  0  0
   41.9142  -21.8690   31.3395 Cl  0  0  0  0  0  0  0  0  0  0  0  0
   40.0024  -20.2076   28.5616 C   0  0  0  0  0  0  0  0  0  0  0  0
   40.0448  -20.7928   29.7525 N   0  0  0  0  0  0  0  0  0  0  0  0
   41.3537  -21.1142   29.8986 C   0  0  0  0  0  0  0  0  0  0  0  0
   42.1074  -20.7599   28.8155 C   0  0  0  0  0  0  0  0  0  0  0  0
   41.2087  -20.1788   27.9635 N   0  0  0  0  0  0  0  0  0  0  0  0
   41.4077  -19.8069   27.0739 H   0  0  0  0  0  0  0  0  0  0  0  0
   44.5056  -20.5546   29.4693 C   0  0  0  0  0  0  0  0  0  0  0  0
   43.5359  -20.8108   28.4941 C   0  0  0  0  0  0  0  0  0  0  0  0
   43.9482  -21.0854   27.1937 C   0  0  0  0  0  0  0  0  0  0  0  0
   45.2831  -21.1163   26.8627 C   0  0  0  0  0  0  0  0  0  0  0  0
   46.2599  -20.8139   27.8155 C   0  0  0  0  0  0  0  0  0  0  0  0
   45.8566  -20.5264   29.1310 C   0  0  0  0  0  0  0  0  0  0  0  0
   47.6011  -20.8099   27.3438 N   0  0  0  0  0  0  0  0  0  0  0  0
   48.5141  -21.8270   27.4192 C   0  0  0  0  0  0  0  0  0  0  0  0
   48.3390  -22.9044   27.9391 O   0  0  0  0  0  0  0  0  0  0  0  0
   47.9087  -19.9797   26.9132 H   0  0  0  0  0  0  0  0  0  0  0  0
   49.6503  -21.4635   26.7969 O   0  0  0  0  0  0  0  0  0  0  0  0
   50.3523  -22.5161   26.0519 C   0  0  0  0  0  0  0  0  0  0  0  0
   38.2742  -21.2547   26.3209 C   0  0  0  0  0  0  0  0  0  0  0  0
   37.8633  -20.5341   27.4233 N   0  0  0  0  0  0  0  0  0  0  0  0
   39.4235  -21.1764   25.8770 O   0  0  0  0  0  0  0  0  0  0  0  0
   36.9792  -20.6794   27.8314 H   0  0  0  0  0  0  0  0  0  0  0  0
   37.5595  -23.1482   24.8473 C   0  0  0  0  0  0  0  0  0  0  0  0
   37.2978  -22.1647   25.6927 C   0  0  0  0  0  0  0  0  0  0  0  0
   35.5927  -23.6068   23.3428 C   0  0  0  0  0  0  0  0  0  0  0  0
   36.5209  -24.0342   24.3061 C   0  0  0  0  0  0  0  0  0  0  0  0
   34.5860  -24.4727   22.9191 C   0  0  0  0  0  0  0  0  0  0  0  0
   34.5387  -25.7893   23.3865 C   0  0  0  0  0  0  0  0  0  0  0  0
   35.5078  -26.2319   24.2631 C   0  0  0  0  0  0  0  0  0  0  0  0
   36.4869  -25.3741   24.7391 C   0  0  0  0  0  0  0  0  0  0  0  0
   35.5139  -27.9080   24.7561 Cl  0  0  0  0  0  0  0  0  0  0  0  0
   36.2065  -21.6079   21.8318 C   0  0  0  0  0  0  0  0  0  0  0  0
   35.6503  -22.2745   22.8338 N   0  0  0  0  0  0  0  0  0  0  0  0
   35.7078  -20.4112   21.7324 N   0  0  0  0  0  0  0  0  0  0  0  0
   34.7569  -20.3454   22.6917 N   0  0  0  0  0  0  0  0  0  0  0  0
   34.7030  -21.4572   23.3632 N   0  0  0  0  0  0  0  0  0  0  0  0
   38.1642  -18.5884   28.9893 C   0  0  0  0  0  0  0  0  0  0  0  0
   37.4788  -16.1518   29.0307 C   0  0  0  0  0  0  0  0  0  0  0  0
   37.7885  -17.2871   28.2873 C   0  0  0  0  0  0  0  0  0  0  0  0
   37.6758  -15.9352   26.2655 C   0  0  0  0  0  0  0  0  0  0  0  0
   37.2838  -14.9237   28.4000 C   0  0  0  0  0  0  0  0  0  0  0  0
   37.3815  -14.8182   27.0143 C   0  0  0  0  0  0  0  0  0  0  0  0
   37.8742  -17.1648   26.8978 C   0  0  0  0  0  0  0  0  0  0  0  0
 36 34  2  0  0  0
 36 37  1  0  0  0
 34 35  1  0  0  0
 37 38  2  0  0  0
 35 38  1  0  0  0
 35 27  1  0  0  0
 29 27  2  0  0  0
 29 30  1  0  0  0
 27 28  1  0  0  0
  2  5  1  0  0  0
 40 43  2  0  0  0
 40 41  1  0  0  0
  4  5  1  0  0  0
  4  3  2  0  0  0
 30 31  2  0  0  0
 39 41  1  0  0  0
 39  1  1  0  0  0
 28 25  1  0  0  0
 28 32  2  0  0  0
 43 44  1  0  0  0
 25 26  2  0  0  0
  5  6  2  0  0  0
 41 45  2  0  0  0
 22  1  1  0  0  0
 22 21  1  0  0  0
 31 32  1  0  0  0
 31 33  1  0  0  0
  3  1  1  0  0  0
  3  7  1  0  0  0
 26 21  1  0  0  0
 44 42  2  0  0  0
  6  7  1  0  0  0
  6 10  1  0  0  0
 21 23  2  0  0  0
 45 42  1  0  0  0
  9 10  2  0  0  0
  9 14  1  0  0  0
 10 11  1  0  0  0
 14 13  2  0  0  0
 11 12  2  0  0  0
 13 12  1  0  0  0
 13 15  1  0  0  0
 17 16  2  0  0  0
 15 16  1  0  0  0
 16 19  1  0  0  0
 19 20  1  0  0  0
  7  8  1  0  0  0
 22 24  1  0  0  0
 15 18  1  0  0  0
M  END
> <minimizedAffinity>
-8.47027

$$$$
4Y8X_4GR_A_301


 45 49  0  0  0  0  0  0  0  0999 V2000
   38.6102  -24.9138   24.7055 C   0  0  0  0  0  0  0  0  0  0  0  0
   34.8471  -21.6327   23.4499 Cl  0  0  0  0  0  0  0  0  0  0  0  0
   37.7248  -23.7064   24.6950 C   0  0  0  0  0  0  0  0  0  0  0  0
   36.5998  -23.5808   24.0014 N   0  0  0  0  0  0  0  0  0  0  0  0
   36.2484  -22.2871   24.2035 C   0  0  0  0  0  0  0  0  0  0  0  0
   37.1196  -21.6263   25.0227 C   0  0  0  0  0  0  0  0  0  0  0  0
   38.0633  -22.5679   25.3297 N   0  0  0  0  0  0  0  0  0  0  0  0
   38.8480  -22.4369   25.9096 H   0  0  0  0  0  0  0  0  0  0  0  0
   37.5758  -19.9594   26.8211 C   0  0  0  0  0  0  0  0  0  0  0  0
   37.2444  -20.2441   25.4922 C   0  0  0  0  0  0  0  0  0  0  0  0
   37.0002  -19.1873   24.6204 C   0  0  0  0  0  0  0  0  0  0  0  0
   37.0889  -17.8815   25.0438 C   0  0  0  0  0  0  0  0  0  0  0  0
   37.3706  -17.5839   26.3800 C   0  0  0  0  0  0  0  0  0  0  0  0
   37.6111  -18.6424   27.2732 C   0  0  0  0  0  0  0  0  0  0  0  0
   37.3695  -16.2029   26.7178 N   0  0  0  0  0  0  0  0  0  0  0  0
   38.4386  -15.4368   27.0971 C   0  0  0  0  0  0  0  0  0  0  0  0
   39.5751  -15.8224   27.2432 O   0  0  0  0  0  0  0  0  0  0  0  0
   36.4992  -15.7447   26.6739 H   0  0  0  0  0  0  0  0  0  0  0  0
   38.0460  -14.1605   27.2624 O   0  0  0  0  0  0  0  0  0  0  0  0
   36.6570  -13.9551   27.6916 C   0  0  0  0  0  0  0  0  0  0  0  0
   40.0964  -24.4940   26.5872 C   0  0  0  0  0  0  0  0  0  0  0  0
   39.9491  -24.5764   25.2179 N   0  0  0  0  0  0  0  0  0  0  0  0
   39.1930  -24.8156   27.3647 O   0  0  0  0  0  0  0  0  0  0  0  0
   40.7065  -24.4166   24.6095 H   0  0  0  0  0  0  0  0  0  0  0  0
   41.9126  -22.8215   27.0021 C   0  0  0  0  0  0  0  0  0  0  0  0
   41.3966  -24.0349   27.1114 C   0  0  0  0  0  0  0  0  0  0  0  0
   43.3033  -21.5098   28.6414 C   0  0  0  0  0  0  0  0  0  0  0  0
   43.2005  -22.4444   27.5983 C   0  0  0  0  0  0  0  0  0  0  0  0
   44.5596  -21.1399   29.1186 C   0  0  0  0  0  0  0  0  0  0  0  0
   45.7155  -21.7490   28.6215 C   0  0  0  0  0  0  0  0  0  0  0  0
   45.6028  -22.7332   27.6612 C   0  0  0  0  0  0  0  0  0  0  0  0
   44.3687  -23.0798   27.1339 C   0  0  0  0  0  0  0  0  0  0  0  0
   47.0378  -23.5733   27.1250 Cl  0  0  0  0  0  0  0  0  0  0  0  0
   41.0855  -20.1976   28.7652 C   0  0  0  0  0  0  0  0  0  0  0  0
   42.1280  -20.9044   29.1795 N   0  0  0  0  0  0  0  0  0  0  0  0
   40.1796  -20.1122   29.6939 N   0  0  0  0  0  0  0  0  0  0  0  0
   40.6611  -20.8447   30.7237 N   0  0  0  0  0  0  0  0  0  0  0  0
   41.8302  -21.3335   30.4335 N   0  0  0  0  0  0  0  0  0  0  0  0
   37.9324  -26.0576   25.4778 C   0  0  0  0  0  0  0  0  0  0  0  0
   35.9409  -27.4661   24.8006 C   0  0  0  0  0  0  0  0  0  0  0  0
   37.1954  -26.9518   24.4856 C   0  0  0  0  0  0  0  0  0  0  0  0
   36.9507  -27.8602   22.2399 C   0  0  0  0  0  0  0  0  0  0  0  0
   35.1976  -28.1558   23.8437 C   0  0  0  0  0  0  0  0  0  0  0  0
   35.7065  -28.3533   22.5619 C   0  0  0  0  0  0  0  0  0  0  0  0
   37.6939  -27.1665   23.1978 C   0  0  0  0  0  0  0  0  0  0  0  0
 36 34  2  0  0  0
 36 37  1  0  0  0
 34 35  1  0  0  0
 37 38  2  0  0  0
 35 38  1  0  0  0
 35 27  1  0  0  0
 29 27  2  0  0  0
 29 30  1  0  0  0
 27 28  1  0  0  0
  2  5  1  0  0  0
 40 43  2  0  0  0
 40 41  1  0  0  0
  4  5  1  0  0  0
  4  3  2  0  0  0
 30 31  2  0  0  0
 39 41  1  0  0  0
 39  1  1  0  0  0
 28 25  1  0  0  0
 28 32  2  0  0  0
 43 44  1  0  0  0
 25 26  2  0  0  0
  5  6  2  0  0  0
 41 45  2  0  0  0
 22  1  1  0  0  0
 22 21  1  0  0  0
 31 32  1  0  0  0
 31 33  1  0  0  0
  3  1  1  0  0  0
  3  7  1  0  0  0
 26 21  1  0  0  0
 44 42  2  0  0  0
  6  7  1  0  0  0
  6 10  1  0  0  0
 21 23  2  0  0  0
 45 42  1  0  0  0
  9 10  2  0  0  0
  9 14  1  0  0  0
 10 11  1  0  0  0
 14 13  2  0  0  0
 11 12  2  0  0  0
 13 12  1  0  0  0
 13 15  1  0  0  0
 17 16  2  0  0  0
 15 16  1  0  0  0
 16 19  1  0  0  0
 19 20  1  0  0  0
  7  8  1  0  0  0
 22 24  1  0  0  0
 15 18  1  0  0  0
M  END
> <minimizedAffinity>
-8.46886

$$$$
4Y8X_4GR_A_301


 45 49  0  0  0  0  0  0  0  0999 V2000
   42.5888  -21.1862   28.1147 C   0  0  0  0  0  0  0  0  0  0  0  0
   38.7469  -19.9499   24.9187 Cl  0  0  0  0  0  0  0  0  0  0  0  0
   41.3090  -20.6148   27.5879 C   0  0  0  0  0  0  0  0  0  0  0  0
   40.7870  -20.8639   26.3930 N   0  0  0  0  0  0  0  0  0  0  0  0
   39.7272  -20.0208   26.3307 C   0  0  0  0  0  0  0  0  0  0  0  0
   39.5762  -19.2794   27.4683 C   0  0  0  0  0  0  0  0  0  0  0  0
   40.6098  -19.6854   28.2670 N   0  0  0  0  0  0  0  0  0  0  0  0
   40.8069  -19.3576   29.1742 H   0  0  0  0  0  0  0  0  0  0  0  0
   38.5400  -17.8525   29.2322 C   0  0  0  0  0  0  0  0  0  0  0  0
   38.6701  -18.2061   27.8850 C   0  0  0  0  0  0  0  0  0  0  0  0
   37.8960  -17.5411   26.9390 C   0  0  0  0  0  0  0  0  0  0  0  0
   37.0216  -16.5456   27.3087 C   0  0  0  0  0  0  0  0  0  0  0  0
   36.8458  -16.2165   28.6556 C   0  0  0  0  0  0  0  0  0  0  0  0
   37.6154  -16.8866   29.6224 C   0  0  0  0  0  0  0  0  0  0  0  0
   35.8668  -15.2212   28.9246 N   0  0  0  0  0  0  0  0  0  0  0  0
   35.8185  -13.9450   28.4319 C   0  0  0  0  0  0  0  0  0  0  0  0
   36.6333  -13.4326   27.7002 O   0  0  0  0  0  0  0  0  0  0  0  0
   35.1396  -15.4797   29.5359 H   0  0  0  0  0  0  0  0  0  0  0  0
   34.6995  -13.3346   28.8626 O   0  0  0  0  0  0  0  0  0  0  0  0
   33.8496  -14.1020   29.7817 C   0  0  0  0  0  0  0  0  0  0  0  0
   44.4465  -21.3198   26.5473 C   0  0  0  0  0  0  0  0  0  0  0  0
   43.7502  -20.5577   27.4625 N   0  0  0  0  0  0  0  0  0  0  0  0
   44.0500  -22.4302   26.1812 O   0  0  0  0  0  0  0  0  0  0  0  0
   44.0180  -19.6335   27.6707 H   0  0  0  0  0  0  0  0  0  0  0  0
   46.8953  -20.8003   26.5087 C   0  0  0  0  0  0  0  0  0  0  0  0
   45.6835  -20.7508   25.9798 C   0  0  0  0  0  0  0  0  0  0  0  0
   49.3798  -20.7030   26.1089 C   0  0  0  0  0  0  0  0  0  0  0  0
   48.0800  -20.2412   25.8453 C   0  0  0  0  0  0  0  0  0  0  0  0
   50.4710  -20.0852   25.5004 C   0  0  0  0  0  0  0  0  0  0  0  0
   50.2786  -19.0603   24.5695 C   0  0  0  0  0  0  0  0  0  0  0  0
   48.9949  -18.6725   24.2451 C   0  0  0  0  0  0  0  0  0  0  0  0
   47.8968  -19.2356   24.8761 C   0  0  0  0  0  0  0  0  0  0  0  0
   48.7532  -17.4727   22.9982 Cl  0  0  0  0  0  0  0  0  0  0  0  0
   49.9142  -23.0554   27.0236 C   0  0  0  0  0  0  0  0  0  0  0  0
   49.5871  -21.7705   27.0335 N   0  0  0  0  0  0  0  0  0  0  0  0
   50.1861  -23.4779   28.2228 N   0  0  0  0  0  0  0  0  0  0  0  0
   50.0696  -22.3879   29.0149 N   0  0  0  0  0  0  0  0  0  0  0  0
   49.7140  -21.3492   28.3188 N   0  0  0  0  0  0  0  0  0  0  0  0
   42.6206  -21.0820   29.6484 C   0  0  0  0  0  0  0  0  0  0  0  0
   44.9760  -20.3858   30.2614 C   0  0  0  0  0  0  0  0  0  0  0  0
   44.0315  -21.4002   30.1336 C   0  0  0  0  0  0  0  0  0  0  0  0
   45.6124  -22.9365   31.1673 C   0  0  0  0  0  0  0  0  0  0  0  0
   46.2155  -20.6417   30.8461 C   0  0  0  0  0  0  0  0  0  0  0  0
   46.5325  -21.9210   31.2978 C   0  0  0  0  0  0  0  0  0  0  0  0
   44.3694  -22.6791   30.5843 C   0  0  0  0  0  0  0  0  0  0  0  0
 36 34  2  0  0  0
 36 37  1  0  0  0
 34 35  1  0  0  0
 37 38  2  0  0  0
 35 38  1  0  0  0
 35 27  1  0  0  0
 29 27  2  0  0  0
 29 30  1  0  0  0
 27 28  1  0  0  0
  2  5  1  0  0  0
 40 43  2  0  0  0
 40 41  1  0  0  0
  4  5  1  0  0  0
  4  3  2  0  0  0
 30 31  2  0  0  0
 39 41  1  0  0  0
 39  1  1  0  0  0
 28 25  1  0  0  0
 28 32  2  0  0  0
 43 44  1  0  0  0
 25 26  2  0  0  0
  5  6  2  0  0  0
 41 45  2  0  0  0
 22  1  1  0  0  0
 22 21  1  0  0  0
 31 32  1  0  0  0
 31 33  1  0  0  0
  3  1  1  0  0  0
  3  7  1  0  0  0
 26 21  1  0  0  0
 44 42  2  0  0  0
  6  7  1  0  0  0
  6 10  1  0  0  0
 21 23  2  0  0  0
 45 42  1  0  0  0
  9 10  2  0  0  0
  9 14  1  0  0  0
 10 11  1  0  0  0
 14 13  2  0  0  0
 11 12  2  0  0  0
 13 12  1  0  0  0
 13 15  1  0  0  0
 17 16  2  0  0  0
 15 16  1  0  0  0
 16 19  1  0  0  0
 19 20  1  0  0  0
  7  8  1  0  0  0
 22 24  1  0  0  0
 15 18  1  0  0  0
M  END
> <minimizedAffinity>
-8.43107

$$$$
4Y8X_4GR_A_301


 45 49  0  0  0  0  0  0  0  0999 V2000
   42.7546  -22.0013   30.1027 C   0  0  0  0  0  0  0  0  0  0  0  0
   47.4752  -21.7880   28.0600 Cl  0  0  0  0  0  0  0  0  0  0  0  0
   44.2343  -21.8193   29.9644 C   0  0  0  0  0  0  0  0  0  0  0  0
   44.9077  -21.8175   28.8203 N   0  0  0  0  0  0  0  0  0  0  0  0
   46.2028  -21.7652   29.2176 C   0  0  0  0  0  0  0  0  0  0  0  0
   46.3353  -21.7117   30.5764 C   0  0  0  0  0  0  0  0  0  0  0  0
   45.0471  -21.7442   31.0356 N   0  0  0  0  0  0  0  0  0  0  0  0
   44.7652  -21.7175   31.9785 H   0  0  0  0  0  0  0  0  0  0  0  0
   48.6233  -20.9666   31.2326 C   0  0  0  0  0  0  0  0  0  0  0  0
   47.4718  -21.7142   31.5009 C   0  0  0  0  0  0  0  0  0  0  0  0
   47.4315  -22.4942   32.6527 C   0  0  0  0  0  0  0  0  0  0  0  0
   48.4952  -22.5306   33.5242 C   0  0  0  0  0  0  0  0  0  0  0  0
   49.6700  -21.8275   33.2434 C   0  0  0  0  0  0  0  0  0  0  0  0
   49.7272  -21.0423   32.0788 C   0  0  0  0  0  0  0  0  0  0  0  0
   50.7269  -21.9936   34.1797 N   0  0  0  0  0  0  0  0  0  0  0  0
   50.6229  -22.1372   35.5371 C   0  0  0  0  0  0  0  0  0  0  0  0
   49.5992  -22.1119   36.1797 O   0  0  0  0  0  0  0  0  0  0  0  0
   51.6389  -22.0068   33.8090 H   0  0  0  0  0  0  0  0  0  0  0  0
   51.8430  -22.3419   36.0661 O   0  0  0  0  0  0  0  0  0  0  0  0
   52.6717  -23.3668   35.4191 C   0  0  0  0  0  0  0  0  0  0  0  0
   40.9486  -20.6456   29.1938 C   0  0  0  0  0  0  0  0  0  0  0  0
   42.0472  -21.4404   28.9391 N   0  0  0  0  0  0  0  0  0  0  0  0
   40.6391  -20.3014   30.3382 O   0  0  0  0  0  0  0  0  0  0  0  0
   42.3455  -21.6246   28.0191 H   0  0  0  0  0  0  0  0  0  0  0  0
   39.8967  -18.9251   27.7101 C   0  0  0  0  0  0  0  0  0  0  0  0
   40.1560  -20.1799   28.0401 C   0  0  0  0  0  0  0  0  0  0  0  0
   38.0651  -17.6432   26.5508 C   0  0  0  0  0  0  0  0  0  0  0  0
   39.1319  -18.5557   26.5122 C   0  0  0  0  0  0  0  0  0  0  0  0
   37.3318  -17.3859   25.3937 C   0  0  0  0  0  0  0  0  0  0  0  0
   37.6976  -17.9687   24.1769 C   0  0  0  0  0  0  0  0  0  0  0  0
   38.8028  -18.7929   24.1261 C   0  0  0  0  0  0  0  0  0  0  0  0
   39.5153  -19.1052   25.2732 C   0  0  0  0  0  0  0  0  0  0  0  0
   39.3261  -19.4278   22.5848 Cl  0  0  0  0  0  0  0  0  0  0  0  0
   37.3741  -17.3569   29.0198 C   0  0  0  0  0  0  0  0  0  0  0  0
   37.7021  -17.0170   27.7809 N   0  0  0  0  0  0  0  0  0  0  0  0
   37.3667  -16.3191   29.8030 N   0  0  0  0  0  0  0  0  0  0  0  0
   37.7575  -15.2863   29.0225 N   0  0  0  0  0  0  0  0  0  0  0  0
   37.9684  -15.6850   27.8033 N   0  0  0  0  0  0  0  0  0  0  0  0
   42.4275  -23.4816   30.3595 C   0  0  0  0  0  0  0  0  0  0  0  0
   42.5740  -24.5209   28.0559 C   0  0  0  0  0  0  0  0  0  0  0  0
   41.7825  -24.0670   29.1070 C   0  0  0  0  0  0  0  0  0  0  0  0
   39.8292  -24.9549   27.9562 C   0  0  0  0  0  0  0  0  0  0  0  0
   42.0012  -25.1938   26.9774 C   0  0  0  0  0  0  0  0  0  0  0  0
   40.6255  -25.4085   26.9291 C   0  0  0  0  0  0  0  0  0  0  0  0
   40.4036  -24.2835   29.0381 C   0  0  0  0  0  0  0  0  0  0  0  0
 36 34  2  0  0  0
 36 37  1  0  0  0
 34 35  1  0  0  0
 37 38  2  0  0  0
 35 38  1  0  0  0
 35 27  1  0  0  0
 29 27  2  0  0  0
 29 30  1  0  0  0
 27 28  1  0  0  0
  2  5  1  0  0  0
 40 43  2  0  0  0
 40 41  1  0  0  0
  4  5  1  0  0  0
  4  3  2  0  0  0
 30 31  2  0  0  0
 39 41  1  0  0  0
 39  1  1  0  0  0
 28 25  1  0  0  0
 28 32  2  0  0  0
 43 44  1  0  0  0
 25 26  2  0  0  0
  5  6  2  0  0  0
 41 45  2  0  0  0
 22  1  1  0  0  0
 22 21  1  0  0  0
 31 32  1  0  0  0
 31 33  1  0  0  0
  3  1  1  0  0  0
  3  7  1  0  0  0
 26 21  1  0  0  0
 44 42  2  0  0  0
  6  7  1  0  0  0
  6 10  1  0  0  0
 21 23  2  0  0  0
 45 42  1  0  0  0
  9 10  2  0  0  0
  9 14  1  0  0  0
 10 11  1  0  0  0
 14 13  2  0  0  0
 11 12  2  0  0  0
 13 12  1  0  0  0
 13 15  1  0  0  0
 17 16  2  0  0  0
 15 16  1  0  0  0
 16 19  1  0  0  0
 19 20  1  0  0  0
  7  8  1  0  0  0
 22 24  1  0  0  0
 15 18  1  0  0  0
M  END
> <minimizedAffinity>
-8.05467

$$$$
