1R9L_BET_A_1001


  9  8  0  0  0  0  0  0  0  0999 V2000
   25.2211   22.6421   72.2761 C   0  0  0  0  0  0  0  0  0  0  0  0
   26.6708   22.7516   72.5482 N   0  0  0  0  0  0  0  0  0  0  0  0
   27.2742   23.3532   71.3438 C   0  0  0  0  0  0  0  0  0  0  0  0
   26.9591   23.6267   73.7000 C   0  0  0  0  0  0  0  0  0  0  0  0
   27.2093   21.3908   72.7494 C   0  0  0  0  0  0  0  0  0  0  0  0
   24.2598   22.7894   73.4194 C   0  0  0  0  0  0  0  0  0  0  0  0
   23.4546   23.7112   73.3766 O   0  0  0  0  0  0  0  0  0  0  0  0
   24.2884   21.9683   74.4127 O   0  0  0  0  0  0  0  0  0  0  0  0
   24.9128   21.2698   74.4253 H   0  0  0  0  0  0  0  0  0  0  0  0
  2  1  1  0  0  0
  2  3  1  0  0  0
  2  4  1  0  0  0
  2  5  1  0  0  0
  1  6  1  0  0  0
  6  7  2  0  0  0
  6  8  1  0  0  0
  8  9  1  0  0  0
M  CHG 1   2   1
M  END
> <minimizedAffinity>
-4.68002

$$$$
1R9L_BET_A_1001


  9  8  0  0  0  0  0  0  0  0999 V2000
   25.1673   22.6330   72.2504 C   0  0  0  0  0  0  0  0  0  0  0  0
   26.6146   22.8393   72.4744 N   0  0  0  0  0  0  0  0  0  0  0  0
   27.1840   21.5080   72.7573 C   0  0  0  0  0  0  0  0  0  0  0  0
   27.2913   23.3921   71.2861 C   0  0  0  0  0  0  0  0  0  0  0  0
   26.7818   23.7141   73.6530 C   0  0  0  0  0  0  0  0  0  0  0  0
   24.2292   22.7833   73.4125 C   0  0  0  0  0  0  0  0  0  0  0  0
   23.3739   23.6577   73.3498 O   0  0  0  0  0  0  0  0  0  0  0  0
   24.3283   22.0134   74.4416 O   0  0  0  0  0  0  0  0  0  0  0  0
   24.9901   21.3506   74.4689 H   0  0  0  0  0  0  0  0  0  0  0  0
  2  1  1  0  0  0
  2  3  1  0  0  0
  2  4  1  0  0  0
  2  5  1  0  0  0
  1  6  1  0  0  0
  6  7  2  0  0  0
  6  8  1  0  0  0
  8  9  1  0  0  0
M  CHG 1   2   1
M  END
> <minimizedAffinity>
-4.55783

$$$$
1R9L_BET_A_1001


  9  8  0  0  0  0  0  0  0  0999 V2000
   27.5094   22.6439   71.6370 C   0  0  0  0  0  0  0  0  0  0  0  0
   26.6100   22.9043   72.7820 N   0  0  0  0  0  0  0  0  0  0  0  0
   27.0148   21.9683   73.8481 C   0  0  0  0  0  0  0  0  0  0  0  0
   26.7427   24.2806   73.2956 C   0  0  0  0  0  0  0  0  0  0  0  0
   25.2249   22.6113   72.3602 C   0  0  0  0  0  0  0  0  0  0  0  0
   27.6630   23.7038   70.5853 C   0  0  0  0  0  0  0  0  0  0  0  0
   26.7015   23.9401   69.8644 O   0  0  0  0  0  0  0  0  0  0  0  0
   28.7761   24.3396   70.4500 O   0  0  0  0  0  0  0  0  0  0  0  0
   29.4994   24.1429   71.0124 H   0  0  0  0  0  0  0  0  0  0  0  0
  2  1  1  0  0  0
  2  3  1  0  0  0
  2  4  1  0  0  0
  2  5  1  0  0  0
  1  6  1  0  0  0
  6  7  2  0  0  0
  6  8  1  0  0  0
  8  9  1  0  0  0
M  CHG 1   2   1
M  END
> <minimizedAffinity>
-4.07100

$$$$
1R9L_BET_A_1001


  9  8  0  0  0  0  0  0  0  0999 V2000
   27.4321   23.9972   72.1275 C   0  0  0  0  0  0  0  0  0  0  0  0
   26.7947   22.8869   72.8680 N   0  0  0  0  0  0  0  0  0  0  0  0
   25.3401   23.1241   72.7990 C   0  0  0  0  0  0  0  0  0  0  0  0
   27.0814   21.5731   72.2620 C   0  0  0  0  0  0  0  0  0  0  0  0
   27.2441   22.9483   74.2738 C   0  0  0  0  0  0  0  0  0  0  0  0
   27.5690   23.8850   70.6369 C   0  0  0  0  0  0  0  0  0  0  0  0
   28.6990   23.8493   70.1658 O   0  0  0  0  0  0  0  0  0  0  0  0
   26.5250   23.8302   69.8828 O   0  0  0  0  0  0  0  0  0  0  0  0
   25.6696   23.8590   70.2642 H   0  0  0  0  0  0  0  0  0  0  0  0
  2  1  1  0  0  0
  2  3  1  0  0  0
  2  4  1  0  0  0
  2  5  1  0  0  0
  1  6  1  0  0  0
  6  7  2  0  0  0
  6  8  1  0  0  0
  8  9  1  0  0  0
M  CHG 1   2   1
M  END
> <minimizedAffinity>
-3.55521

$$$$
1R9L_BET_A_1001


  9  8  0  0  0  0  0  0  0  0999 V2000
   25.3262   22.8553   73.9533 C   0  0  0  0  0  0  0  0  0  0  0  0
   26.5955   22.8730   73.1941 N   0  0  0  0  0  0  0  0  0  0  0  0
   26.2296   23.0805   71.7800 C   0  0  0  0  0  0  0  0  0  0  0  0
   27.4819   23.9753   73.6122 C   0  0  0  0  0  0  0  0  0  0  0  0
   27.2494   21.5579   73.3525 C   0  0  0  0  0  0  0  0  0  0  0  0
   24.0351   22.7391   73.1967 C   0  0  0  0  0  0  0  0  0  0  0  0
   23.8854   21.7698   72.4632 O   0  0  0  0  0  0  0  0  0  0  0  0
   23.1180   23.6367   73.3190 O   0  0  0  0  0  0  0  0  0  0  0  0
   23.2532   24.3704   73.8858 H   0  0  0  0  0  0  0  0  0  0  0  0
  2  1  1  0  0  0
  2  3  1  0  0  0
  2  4  1  0  0  0
  2  5  1  0  0  0
  1  6  1  0  0  0
  6  7  2  0  0  0
  6  8  1  0  0  0
  8  9  1  0  0  0
M  CHG 1   2   1
M  END
> <minimizedAffinity>
-3.14629

$$$$
1R9L_BET_A_1001


  9  8  0  0  0  0  0  0  0  0999 V2000
   26.8216   22.0438   72.4392 C   0  0  0  0  0  0  0  0  0  0  0  0
   25.7496   22.9478   72.9095 N   0  0  0  0  0  0  0  0  0  0  0  0
   25.1845   22.3249   74.1217 C   0  0  0  0  0  0  0  0  0  0  0  0
   26.2618   24.2837   73.2681 C   0  0  0  0  0  0  0  0  0  0  0  0
   24.7138   23.0252   71.8592 C   0  0  0  0  0  0  0  0  0  0  0  0
   27.2642   20.9232   73.3345 C   0  0  0  0  0  0  0  0  0  0  0  0
   27.6262   21.2052   74.4701 O   0  0  0  0  0  0  0  0  0  0  0  0
   27.2625   19.7050   72.9133 O   0  0  0  0  0  0  0  0  0  0  0  0
   26.9816   19.5114   72.0406 H   0  0  0  0  0  0  0  0  0  0  0  0
  2  1  1  0  0  0
  2  3  1  0  0  0
  2  4  1  0  0  0
  2  5  1  0  0  0
  1  6  1  0  0  0
  6  7  2  0  0  0
  6  8  1  0  0  0
  8  9  1  0  0  0
M  CHG 1   2   1
M  END
> <minimizedAffinity>
-2.36118

$$$$
1R9L_BET_A_1001


  9  8  0  0  0  0  0  0  0  0999 V2000
   26.6545   22.5038   73.4936 C   0  0  0  0  0  0  0  0  0  0  0  0
   25.2776   23.0112   73.3083 N   0  0  0  0  0  0  0  0  0  0  0  0
   25.3291   24.4595   73.5849 C   0  0  0  0  0  0  0  0  0  0  0  0
   24.7910   22.8175   71.9294 C   0  0  0  0  0  0  0  0  0  0  0  0
   24.4012   22.3459   74.2939 C   0  0  0  0  0  0  0  0  0  0  0  0
   27.2543   21.6389   72.4234 C   0  0  0  0  0  0  0  0  0  0  0  0
   27.6940   22.1887   71.4212 O   0  0  0  0  0  0  0  0  0  0  0  0
   27.2997   20.3581   72.5615 O   0  0  0  0  0  0  0  0  0  0  0  0
   26.9575   19.9580   73.3366 H   0  0  0  0  0  0  0  0  0  0  0  0
  2  1  1  0  0  0
  2  3  1  0  0  0
  2  4  1  0  0  0
  2  5  1  0  0  0
  1  6  1  0  0  0
  6  7  2  0  0  0
  6  8  1  0  0  0
  8  9  1  0  0  0
M  CHG 1   2   1
M  END
> <minimizedAffinity>
-1.94866

$$$$
