4L19_1UA_A_307


 20 22  0  0  0  0  0  0  0  0999 V2000
  -25.2577  -14.7273   11.3982 O   0  0  0  0  0  0  0  0  0  0  0  0
  -24.5036  -14.2096   12.2142 C   0  0  0  0  0  0  0  0  0  0  0  0
  -24.9208  -13.9043   13.4397 C   0  0  0  0  0  0  0  0  0  0  0  0
  -24.0832  -13.3354   14.3206 C   0  0  0  0  0  0  0  0  0  0  0  0
  -24.7376  -13.1109   15.5270 C   0  0  0  0  0  0  0  0  0  0  0  0
  -26.1738  -14.0884   14.0113 C   0  0  0  0  0  0  0  0  0  0  0  0
  -26.1897  -13.1510   15.1743 C   0  0  0  0  0  0  0  0  0  0  0  0
  -23.1967  -13.9400   11.8460 N   0  0  0  0  0  0  0  0  0  0  0  0
  -22.3500  -13.3483   12.7653 C   0  0  0  0  0  0  0  0  0  0  0  0
  -22.8124  -13.0629   13.9823 N   0  0  0  0  0  0  0  0  0  0  0  0
  -22.8750  -14.1660   10.9434 H   0  0  0  0  0  0  0  0  0  0  0  0
  -20.7116  -13.0154   12.2812 S   0  0  0  0  0  0  0  0  0  0  0  0
  -20.7937  -11.4426   11.3526 C   0  0  0  0  0  0  0  0  0  0  0  0
  -19.5223  -10.9365   11.0558 C   0  0  0  0  0  0  0  0  0  0  0  0
  -18.4325  -11.2762   11.8435 C   0  0  0  0  0  0  0  0  0  0  0  0
  -17.1700  -10.7770   11.5535 C   0  0  0  0  0  0  0  0  0  0  0  0
  -16.9935   -9.9291   10.4704 C   0  0  0  0  0  0  0  0  0  0  0  0
  -15.7335   -9.4264   10.1749 C   0  0  0  0  0  0  0  0  0  0  0  0
  -18.0831   -9.5846    9.6812 C   0  0  0  0  0  0  0  0  0  0  0  0
  -19.3430  -10.0875    9.9731 C   0  0  0  0  0  0  0  0  0  0  0  0
  5  7  1  0  0  0
  5  4  1  0  0  0
  7  6  1  0  0  0
  4 10  1  0  0  0
  4  3  2  0  0  0
  6  3  1  0  0  0
 10  9  2  0  0  0
  3  2  1  0  0  0
 13 14  1  0  0  0
 13 12  1  0  0  0
 15 14  1  0  0  0
 15 16  2  0  0  0
  9 12  1  0  0  0
  9  8  1  0  0  0
  2  8  1  0  0  0
  2  1  2  0  0  0
 14 20  2  0  0  0
 16 17  1  0  0  0
 20 19  1  0  0  0
 17 19  2  0  0  0
 17 18  1  0  0  0
  8 11  1  0  0  0
M  END
> <minimizedAffinity>
-9.32991

$$$$
4L19_1UA_A_307


 20 22  0  0  0  0  0  0  0  0999 V2000
  -21.8650  -15.7083   15.0130 O   0  0  0  0  0  0  0  0  0  0  0  0
  -22.1665  -14.6835   14.4118 C   0  0  0  0  0  0  0  0  0  0  0  0
  -23.2805  -14.0175   14.7028 C   0  0  0  0  0  0  0  0  0  0  0  0
  -23.5976  -12.8983   14.0334 C   0  0  0  0  0  0  0  0  0  0  0  0
  -24.7972  -12.3799   14.5091 C   0  0  0  0  0  0  0  0  0  0  0  0
  -24.2493  -14.3026   15.6572 C   0  0  0  0  0  0  0  0  0  0  0  0
  -25.4466  -13.5299   15.2092 C   0  0  0  0  0  0  0  0  0  0  0  0
  -21.3286  -14.2181   13.4131 N   0  0  0  0  0  0  0  0  0  0  0  0
  -21.6748  -13.0665   12.7304 C   0  0  0  0  0  0  0  0  0  0  0  0
  -22.7998  -12.4318   13.0591 N   0  0  0  0  0  0  0  0  0  0  0  0
  -20.4988  -14.6997   13.1922 H   0  0  0  0  0  0  0  0  0  0  0  0
  -20.6088  -12.5000   11.4767 S   0  0  0  0  0  0  0  0  0  0  0  0
  -19.1654  -11.7980   12.3522 C   0  0  0  0  0  0  0  0  0  0  0  0
  -18.3414  -11.0522   11.5007 C   0  0  0  0  0  0  0  0  0  0  0  0
  -16.9838  -10.9404   11.7615 C   0  0  0  0  0  0  0  0  0  0  0  0
  -16.1626  -10.2021   10.9204 C   0  0  0  0  0  0  0  0  0  0  0  0
  -16.7006   -9.5669    9.8111 C   0  0  0  0  0  0  0  0  0  0  0  0
  -15.8849   -8.8270    8.9658 C   0  0  0  0  0  0  0  0  0  0  0  0
  -18.0601   -9.6745    9.5484 C   0  0  0  0  0  0  0  0  0  0  0  0
  -18.8772  -10.4153   10.3904 C   0  0  0  0  0  0  0  0  0  0  0  0
  5  7  1  0  0  0
  5  4  1  0  0  0
  7  6  1  0  0  0
  4 10  1  0  0  0
  4  3  2  0  0  0
  6  3  1  0  0  0
 10  9  2  0  0  0
  3  2  1  0  0  0
 13 14  1  0  0  0
 13 12  1  0  0  0
 15 14  1  0  0  0
 15 16  2  0  0  0
  9 12  1  0  0  0
  9  8  1  0  0  0
  2  8  1  0  0  0
  2  1  2  0  0  0
 14 20  2  0  0  0
 16 17  1  0  0  0
 20 19  1  0  0  0
 17 19  2  0  0  0
 17 18  1  0  0  0
  8 11  1  0  0  0
M  END
> <minimizedAffinity>
-9.05849

$$$$
4L19_1UA_A_307


 20 22  0  0  0  0  0  0  0  0999 V2000
  -20.4391  -10.3742    9.2595 O   0  0  0  0  0  0  0  0  0  0  0  0
  -20.0087  -10.8136   10.3198 C   0  0  0  0  0  0  0  0  0  0  0  0
  -18.7194  -10.7168   10.6321 C   0  0  0  0  0  0  0  0  0  0  0  0
  -18.2636  -11.2053   11.7961 C   0  0  0  0  0  0  0  0  0  0  0  0
  -16.8938  -10.9894   11.9021 C   0  0  0  0  0  0  0  0  0  0  0  0
  -17.6802  -10.1511    9.9036 C   0  0  0  0  0  0  0  0  0  0  0  0
  -16.4463  -10.7491   10.4963 C   0  0  0  0  0  0  0  0  0  0  0  0
  -20.8858  -11.4209   11.2019 N   0  0  0  0  0  0  0  0  0  0  0  0
  -20.3968  -11.9233   12.3938 C   0  0  0  0  0  0  0  0  0  0  0  0
  -19.0975  -11.8007   12.6642 N   0  0  0  0  0  0  0  0  0  0  0  0
  -21.8431  -11.4939   10.9841 H   0  0  0  0  0  0  0  0  0  0  0  0
  -21.5159  -12.6853   13.4876 S   0  0  0  0  0  0  0  0  0  0  0  0
  -23.0070  -13.0310   12.4877 C   0  0  0  0  0  0  0  0  0  0  0  0
  -24.1409  -13.2377   13.2828 C   0  0  0  0  0  0  0  0  0  0  0  0
  -25.2326  -13.9289   12.7787 C   0  0  0  0  0  0  0  0  0  0  0  0
  -26.3591  -14.1363   13.5628 C   0  0  0  0  0  0  0  0  0  0  0  0
  -26.3986  -13.6475   14.8600 C   0  0  0  0  0  0  0  0  0  0  0  0
  -27.5221  -13.8517   15.6496 C   0  0  0  0  0  0  0  0  0  0  0  0
  -25.3082  -12.9527   15.3671 C   0  0  0  0  0  0  0  0  0  0  0  0
  -24.1832  -12.7493   14.5808 C   0  0  0  0  0  0  0  0  0  0  0  0
  5  7  1  0  0  0
  5  4  1  0  0  0
  7  6  1  0  0  0
  4 10  1  0  0  0
  4  3  2  0  0  0
  6  3  1  0  0  0
 10  9  2  0  0  0
  3  2  1  0  0  0
 13 14  1  0  0  0
 13 12  1  0  0  0
 15 14  1  0  0  0
 15 16  2  0  0  0
  9 12  1  0  0  0
  9  8  1  0  0  0
  2  8  1  0  0  0
  2  1  2  0  0  0
 14 20  2  0  0  0
 16 17  1  0  0  0
 20 19  1  0  0  0
 17 19  2  0  0  0
 17 18  1  0  0  0
  8 11  1  0  0  0
M  END
> <minimizedAffinity>
-8.88142

$$$$
4L19_1UA_A_307


 20 22  0  0  0  0  0  0  0  0999 V2000
  -13.9496   -7.7267    8.3209 O   0  0  0  0  0  0  0  0  0  0  0  0
  -14.4287   -8.7423    8.8124 C   0  0  0  0  0  0  0  0  0  0  0  0
  -13.6851   -9.8270    9.0119 C   0  0  0  0  0  0  0  0  0  0  0  0
  -14.2254  -10.9319    9.5490 C   0  0  0  0  0  0  0  0  0  0  0  0
  -13.2627  -11.9292    9.6617 C   0  0  0  0  0  0  0  0  0  0  0  0
  -12.3376  -10.0294    8.7397 C   0  0  0  0  0  0  0  0  0  0  0  0
  -12.1867  -11.5152    8.7103 C   0  0  0  0  0  0  0  0  0  0  0  0
  -15.7679   -8.7533    9.1623 N   0  0  0  0  0  0  0  0  0  0  0  0
  -16.3083   -9.9027    9.7090 C   0  0  0  0  0  0  0  0  0  0  0  0
  -15.5233  -10.9641    9.8925 N   0  0  0  0  0  0  0  0  0  0  0  0
  -16.3271   -7.9549    9.0241 H   0  0  0  0  0  0  0  0  0  0  0  0
  -17.9947   -9.8962   10.1396 S   0  0  0  0  0  0  0  0  0  0  0  0
  -18.1334  -11.0374   11.5613 C   0  0  0  0  0  0  0  0  0  0  0  0
  -19.4523  -11.4546   11.7781 C   0  0  0  0  0  0  0  0  0  0  0  0
  -20.4427  -11.1518   10.8556 C   0  0  0  0  0  0  0  0  0  0  0  0
  -21.7518  -11.5630   11.0659 C   0  0  0  0  0  0  0  0  0  0  0  0
  -22.0766  -12.2798   12.2078 C   0  0  0  0  0  0  0  0  0  0  0  0
  -23.3839  -12.6942   12.4242 C   0  0  0  0  0  0  0  0  0  0  0  0
  -21.0879  -12.5825   13.1350 C   0  0  0  0  0  0  0  0  0  0  0  0
  -19.7801  -12.1715   12.9200 C   0  0  0  0  0  0  0  0  0  0  0  0
  5  7  1  0  0  0
  5  4  1  0  0  0
  7  6  1  0  0  0
  4 10  1  0  0  0
  4  3  2  0  0  0
  6  3  1  0  0  0
 10  9  2  0  0  0
  3  2  1  0  0  0
 13 14  1  0  0  0
 13 12  1  0  0  0
 15 14  1  0  0  0
 15 16  2  0  0  0
  9 12  1  0  0  0
  9  8  1  0  0  0
  2  8  1  0  0  0
  2  1  2  0  0  0
 14 20  2  0  0  0
 16 17  1  0  0  0
 20 19  1  0  0  0
 17 19  2  0  0  0
 17 18  1  0  0  0
  8 11  1  0  0  0
M  END
> <minimizedAffinity>
-8.77396

$$$$
4L19_1UA_A_307


 20 22  0  0  0  0  0  0  0  0999 V2000
  -11.9379   -9.9827    8.2542 O   0  0  0  0  0  0  0  0  0  0  0  0
  -12.8686  -10.5893    8.7721 C   0  0  0  0  0  0  0  0  0  0  0  0
  -12.8965  -11.9189    8.7931 C   0  0  0  0  0  0  0  0  0  0  0  0
  -13.9242  -12.5682    9.3620 C   0  0  0  0  0  0  0  0  0  0  0  0
  -13.7348  -13.9425    9.2646 C   0  0  0  0  0  0  0  0  0  0  0  0
  -11.9709  -12.8241    8.2884 C   0  0  0  0  0  0  0  0  0  0  0  0
  -12.7344  -14.1021    8.1655 C   0  0  0  0  0  0  0  0  0  0  0  0
  -13.9057   -9.8711    9.3421 N   0  0  0  0  0  0  0  0  0  0  0  0
  -14.9587  -10.5574    9.9185 C   0  0  0  0  0  0  0  0  0  0  0  0
  -14.9415  -11.8901    9.9177 N   0  0  0  0  0  0  0  0  0  0  0  0
  -13.8937   -8.8867    9.3371 H   0  0  0  0  0  0  0  0  0  0  0  0
  -16.2536   -9.6353   10.6272 S   0  0  0  0  0  0  0  0  0  0  0  0
  -17.7456  -10.0865    9.6714 C   0  0  0  0  0  0  0  0  0  0  0  0
  -18.7503  -10.6271   10.4830 C   0  0  0  0  0  0  0  0  0  0  0  0
  -20.0794  -10.5545   10.0933 C   0  0  0  0  0  0  0  0  0  0  0  0
  -21.0793  -11.0888   10.8944 C   0  0  0  0  0  0  0  0  0  0  0  0
  -20.7512  -11.6980   12.0962 C   0  0  0  0  0  0  0  0  0  0  0  0
  -21.7463  -12.2345   12.9021 C   0  0  0  0  0  0  0  0  0  0  0  0
  -19.4215  -11.7701   12.4909 C   0  0  0  0  0  0  0  0  0  0  0  0
  -18.4248  -11.2367   11.6862 C   0  0  0  0  0  0  0  0  0  0  0  0
  5  7  1  0  0  0
  5  4  1  0  0  0
  7  6  1  0  0  0
  4 10  1  0  0  0
  4  3  2  0  0  0
  6  3  1  0  0  0
 10  9  2  0  0  0
  3  2  1  0  0  0
 13 14  1  0  0  0
 13 12  1  0  0  0
 15 14  1  0  0  0
 15 16  2  0  0  0
  9 12  1  0  0  0
  9  8  1  0  0  0
  2  8  1  0  0  0
  2  1  2  0  0  0
 14 20  2  0  0  0
 16 17  1  0  0  0
 20 19  1  0  0  0
 17 19  2  0  0  0
 17 18  1  0  0  0
  8 11  1  0  0  0
M  END
> <minimizedAffinity>
-8.73100

$$$$
4L19_1UA_A_307


 20 22  0  0  0  0  0  0  0  0999 V2000
  -24.8911  -12.4154   15.6356 O   0  0  0  0  0  0  0  0  0  0  0  0
  -24.1705  -13.2708   15.1339 C   0  0  0  0  0  0  0  0  0  0  0  0
  -24.5102  -14.5565   15.1571 C   0  0  0  0  0  0  0  0  0  0  0  0
  -23.7090  -15.4811   14.6055 C   0  0  0  0  0  0  0  0  0  0  0  0
  -24.2682  -16.7463   14.7494 C   0  0  0  0  0  0  0  0  0  0  0  0
  -25.6425  -15.1554   15.6958 C   0  0  0  0  0  0  0  0  0  0  0  0
  -25.2589  -16.5900   15.8578 C   0  0  0  0  0  0  0  0  0  0  0  0
  -22.9836  -12.8841   14.5357 N   0  0  0  0  0  0  0  0  0  0  0  0
  -22.1682  -13.8516   13.9778 C   0  0  0  0  0  0  0  0  0  0  0  0
  -22.5519  -15.1272   14.0229 N   0  0  0  0  0  0  0  0  0  0  0  0
  -22.7239  -11.9349   14.5079 H   0  0  0  0  0  0  0  0  0  0  0  0
  -20.6791  -13.3445   13.2329 S   0  0  0  0  0  0  0  0  0  0  0  0
  -21.0853  -11.7967   12.3487 C   0  0  0  0  0  0  0  0  0  0  0  0
  -19.9796  -11.2687   11.6711 C   0  0  0  0  0  0  0  0  0  0  0  0
  -18.6986  -11.4576   12.1681 C   0  0  0  0  0  0  0  0  0  0  0  0
  -17.5992  -10.9361   11.5001 C   0  0  0  0  0  0  0  0  0  0  0  0
  -17.7790  -10.2171   10.3279 C   0  0  0  0  0  0  0  0  0  0  0  0
  -16.6836   -9.6930    9.6548 C   0  0  0  0  0  0  0  0  0  0  0  0
  -19.0606  -10.0238    9.8288 C   0  0  0  0  0  0  0  0  0  0  0  0
  -20.1567  -10.5486   10.4983 C   0  0  0  0  0  0  0  0  0  0  0  0
  5  7  1  0  0  0
  5  4  1  0  0  0
  7  6  1  0  0  0
  4 10  1  0  0  0
  4  3  2  0  0  0
  6  3  1  0  0  0
 10  9  2  0  0  0
  3  2  1  0  0  0
 13 14  1  0  0  0
 13 12  1  0  0  0
 15 14  1  0  0  0
 15 16  2  0  0  0
  9 12  1  0  0  0
  9  8  1  0  0  0
  2  8  1  0  0  0
  2  1  2  0  0  0
 14 20  2  0  0  0
 16 17  1  0  0  0
 20 19  1  0  0  0
 17 19  2  0  0  0
 17 18  1  0  0  0
  8 11  1  0  0  0
M  END
> <minimizedAffinity>
-8.64591

$$$$
4L19_1UA_A_307


 20 22  0  0  0  0  0  0  0  0999 V2000
  -25.1133  -14.6995   11.9320 O   0  0  0  0  0  0  0  0  0  0  0  0
  -24.0123  -14.3672   12.3563 C   0  0  0  0  0  0  0  0  0  0  0  0
  -23.5596  -14.8184   13.5227 C   0  0  0  0  0  0  0  0  0  0  0  0
  -22.3527  -14.4431   13.9743 C   0  0  0  0  0  0  0  0  0  0  0  0
  -22.0959  -15.0381   15.2048 C   0  0  0  0  0  0  0  0  0  0  0  0
  -24.1685  -15.6810   14.4260 C   0  0  0  0  0  0  0  0  0  0  0  0
  -23.4436  -15.4418   15.7100 C   0  0  0  0  0  0  0  0  0  0  0  0
  -23.2329  -13.5063   11.6030 N   0  0  0  0  0  0  0  0  0  0  0  0
  -21.9947  -13.1262   12.0873 C   0  0  0  0  0  0  0  0  0  0  0  0
  -21.5824  -13.6063   13.2603 N   0  0  0  0  0  0  0  0  0  0  0  0
  -23.5552  -13.1697   10.7358 H   0  0  0  0  0  0  0  0  0  0  0  0
  -21.0317  -12.0410   11.1258 S   0  0  0  0  0  0  0  0  0  0  0  0
  -19.5297  -11.7218   12.1182 C   0  0  0  0  0  0  0  0  0  0  0  0
  -18.5595  -11.0153   11.3971 C   0  0  0  0  0  0  0  0  0  0  0  0
  -18.9245  -10.2405   10.3062 C   0  0  0  0  0  0  0  0  0  0  0  0
  -17.9664   -9.5382    9.5880 C   0  0  0  0  0  0  0  0  0  0  0  0
  -16.6322   -9.6117    9.9591 C   0  0  0  0  0  0  0  0  0  0  0  0
  -15.6689   -8.9116    9.2451 C   0  0  0  0  0  0  0  0  0  0  0  0
  -16.2628  -10.3887   11.0493 C   0  0  0  0  0  0  0  0  0  0  0  0
  -17.2238  -11.0874   11.7659 C   0  0  0  0  0  0  0  0  0  0  0  0
  5  7  1  0  0  0
  5  4  1  0  0  0
  7  6  1  0  0  0
  4 10  1  0  0  0
  4  3  2  0  0  0
  6  3  1  0  0  0
 10  9  2  0  0  0
  3  2  1  0  0  0
 13 14  1  0  0  0
 13 12  1  0  0  0
 15 14  1  0  0  0
 15 16  2  0  0  0
  9 12  1  0  0  0
  9  8  1  0  0  0
  2  8  1  0  0  0
  2  1  2  0  0  0
 14 20  2  0  0  0
 16 17  1  0  0  0
 20 19  1  0  0  0
 17 19  2  0  0  0
 17 18  1  0  0  0
  8 11  1  0  0  0
M  END
> <minimizedAffinity>
-8.61914

$$$$
4L19_1UA_A_307


 20 22  0  0  0  0  0  0  0  0999 V2000
  -22.8123  -16.3734   15.1538 O   0  0  0  0  0  0  0  0  0  0  0  0
  -23.3921  -15.4443   14.6032 C   0  0  0  0  0  0  0  0  0  0  0  0
  -24.6573  -15.1540   14.8934 C   0  0  0  0  0  0  0  0  0  0  0  0
  -25.2786  -14.1348   14.2798 C   0  0  0  0  0  0  0  0  0  0  0  0
  -26.5852  -14.0225   14.7426 C   0  0  0  0  0  0  0  0  0  0  0  0
  -25.5149  -15.7723   15.7950 C   0  0  0  0  0  0  0  0  0  0  0  0
  -26.8790  -15.3557   15.3513 C   0  0  0  0  0  0  0  0  0  0  0  0
  -22.7119  -14.6893   13.6633 N   0  0  0  0  0  0  0  0  0  0  0  0
  -23.3704  -13.6468   13.0373 C   0  0  0  0  0  0  0  0  0  0  0  0
  -24.6375  -13.3921   13.3628 N   0  0  0  0  0  0  0  0  0  0  0  0
  -21.7737  -14.8914   13.4438 H   0  0  0  0  0  0  0  0  0  0  0  0
  -22.4978  -12.7117   11.8568 S   0  0  0  0  0  0  0  0  0  0  0  0
  -21.0987  -11.9684   12.7693 C   0  0  0  0  0  0  0  0  0  0  0  0
  -20.1443  -11.4094   11.9107 C   0  0  0  0  0  0  0  0  0  0  0  0
  -20.5413  -10.7554   10.7539 C   0  0  0  0  0  0  0  0  0  0  0  0
  -19.5990  -10.1997    9.8994 C   0  0  0  0  0  0  0  0  0  0  0  0
  -18.2488  -10.2998   10.1995 C   0  0  0  0  0  0  0  0  0  0  0  0
  -17.3012   -9.7460    9.3492 C   0  0  0  0  0  0  0  0  0  0  0  0
  -17.8476  -10.9563   11.3557 C   0  0  0  0  0  0  0  0  0  0  0  0
  -18.7927  -11.5086   12.2084 C   0  0  0  0  0  0  0  0  0  0  0  0
  5  7  1  0  0  0
  5  4  1  0  0  0
  7  6  1  0  0  0
  4 10  1  0  0  0
  4  3  2  0  0  0
  6  3  1  0  0  0
 10  9  2  0  0  0
  3  2  1  0  0  0
 13 14  1  0  0  0
 13 12  1  0  0  0
 15 14  1  0  0  0
 15 16  2  0  0  0
  9 12  1  0  0  0
  9  8  1  0  0  0
  2  8  1  0  0  0
  2  1  2  0  0  0
 14 20  2  0  0  0
 16 17  1  0  0  0
 20 19  1  0  0  0
 17 19  2  0  0  0
 17 18  1  0  0  0
  8 11  1  0  0  0
M  END
> <minimizedAffinity>
-8.61145

$$$$
4L19_1UA_A_307


 20 22  0  0  0  0  0  0  0  0999 V2000
  -27.1554  -14.4209   11.2130 O   0  0  0  0  0  0  0  0  0  0  0  0
  -26.3279  -14.2812   12.1066 C   0  0  0  0  0  0  0  0  0  0  0  0
  -26.6983  -14.2075   13.3819 C   0  0  0  0  0  0  0  0  0  0  0  0
  -25.7800  -14.0520   14.3483 C   0  0  0  0  0  0  0  0  0  0  0  0
  -26.3987  -14.0025   15.5929 C   0  0  0  0  0  0  0  0  0  0  0  0
  -27.9735  -14.2698   13.9304 C   0  0  0  0  0  0  0  0  0  0  0  0
  -27.8216  -13.6621   15.2865 C   0  0  0  0  0  0  0  0  0  0  0  0
  -24.9867  -14.1983   11.7745 N   0  0  0  0  0  0  0  0  0  0  0  0
  -24.0556  -14.0323   12.7833 C   0  0  0  0  0  0  0  0  0  0  0  0
  -24.4741  -13.9664   14.0470 N   0  0  0  0  0  0  0  0  0  0  0  0
  -24.7000  -14.2566   10.8345 H   0  0  0  0  0  0  0  0  0  0  0  0
  -22.3747  -13.9278   12.3440 S   0  0  0  0  0  0  0  0  0  0  0  0
  -21.8006  -12.3259   13.0128 C   0  0  0  0  0  0  0  0  0  0  0  0
  -20.8250  -11.7332   12.2020 C   0  0  0  0  0  0  0  0  0  0  0  0
  -21.1895  -11.0703   11.0395 C   0  0  0  0  0  0  0  0  0  0  0  0
  -20.2261  -10.4811   10.2322 C   0  0  0  0  0  0  0  0  0  0  0  0
  -18.8872  -10.5564   10.5856 C   0  0  0  0  0  0  0  0  0  0  0  0
  -17.9187   -9.9691    9.7827 C   0  0  0  0  0  0  0  0  0  0  0  0
  -18.5184  -11.2217   11.7476 C   0  0  0  0  0  0  0  0  0  0  0  0
  -19.4847  -11.8074   12.5530 C   0  0  0  0  0  0  0  0  0  0  0  0
  5  7  1  0  0  0
  5  4  1  0  0  0
  7  6  1  0  0  0
  4 10  1  0  0  0
  4  3  2  0  0  0
  6  3  1  0  0  0
 10  9  2  0  0  0
  3  2  1  0  0  0
 13 14  1  0  0  0
 13 12  1  0  0  0
 15 14  1  0  0  0
 15 16  2  0  0  0
  9 12  1  0  0  0
  9  8  1  0  0  0
  2  8  1  0  0  0
  2  1  2  0  0  0
 14 20  2  0  0  0
 16 17  1  0  0  0
 20 19  1  0  0  0
 17 19  2  0  0  0
 17 18  1  0  0  0
  8 11  1  0  0  0
M  END
> <minimizedAffinity>
-8.57547

$$$$
4L19_1UA_A_307


 20 22  0  0  0  0  0  0  0  0999 V2000
  -17.0883  -11.6335   12.7138 O   0  0  0  0  0  0  0  0  0  0  0  0
  -17.8385  -11.2110   11.8413 C   0  0  0  0  0  0  0  0  0  0  0  0
  -17.3642  -10.5657   10.7793 C   0  0  0  0  0  0  0  0  0  0  0  0
  -18.1992  -10.1072    9.8339 C   0  0  0  0  0  0  0  0  0  0  0  0
  -17.4799   -9.4719    8.8274 C   0  0  0  0  0  0  0  0  0  0  0  0
  -16.0483  -10.2611   10.4531 C   0  0  0  0  0  0  0  0  0  0  0  0
  -16.1623   -9.1533    9.4575 C   0  0  0  0  0  0  0  0  0  0  0  0
  -19.2019  -11.4118   11.9711 N   0  0  0  0  0  0  0  0  0  0  0  0
  -20.0471  -10.9271   10.9898 C   0  0  0  0  0  0  0  0  0  0  0  0
  -19.5253  -10.2890    9.9425 N   0  0  0  0  0  0  0  0  0  0  0  0
  -19.5644  -11.8924   12.7502 H   0  0  0  0  0  0  0  0  0  0  0  0
  -21.7581  -11.1881   11.1736 S   0  0  0  0  0  0  0  0  0  0  0  0
  -21.9281  -12.9408   11.6653 C   0  0  0  0  0  0  0  0  0  0  0  0
  -23.0587  -13.1596   12.4616 C   0  0  0  0  0  0  0  0  0  0  0  0
  -24.1426  -13.8644   11.9596 C   0  0  0  0  0  0  0  0  0  0  0  0
  -25.2659  -14.0839   12.7450 C   0  0  0  0  0  0  0  0  0  0  0  0
  -25.3100  -13.5935   14.0415 C   0  0  0  0  0  0  0  0  0  0  0  0
  -26.4304  -13.8097   14.8324 C   0  0  0  0  0  0  0  0  0  0  0  0
  -24.2275  -12.8850   14.5466 C   0  0  0  0  0  0  0  0  0  0  0  0
  -23.1057  -12.6697   13.7590 C   0  0  0  0  0  0  0  0  0  0  0  0
  5  7  1  0  0  0
  5  4  1  0  0  0
  7  6  1  0  0  0
  4 10  1  0  0  0
  4  3  2  0  0  0
  6  3  1  0  0  0
 10  9  2  0  0  0
  3  2  1  0  0  0
 13 14  1  0  0  0
 13 12  1  0  0  0
 15 14  1  0  0  0
 15 16  2  0  0  0
  9 12  1  0  0  0
  9  8  1  0  0  0
  2  8  1  0  0  0
  2  1  2  0  0  0
 14 20  2  0  0  0
 16 17  1  0  0  0
 20 19  1  0  0  0
 17 19  2  0  0  0
 17 18  1  0  0  0
  8 11  1  0  0  0
M  END
> <minimizedAffinity>
-8.26349

$$$$
