4AVJ_J73_A_201


 32 34  0  0  0  0  0  0  0  0999 V2000
  -66.1663  -18.7100  -23.3073 C   0  0  0  0  0  0  0  0  0  0  0  0
  -65.4466  -19.2857  -24.3631 C   0  0  0  0  0  0  0  0  0  0  0  0
  -64.1904  -19.8688  -24.2040 C   0  0  0  0  0  0  0  0  0  0  0  0
  -63.6442  -19.8565  -22.9078 C   0  0  0  0  0  0  0  0  0  0  0  0
  -64.4026  -19.2746  -21.8141 C   0  0  0  0  0  0  0  0  0  0  0  0
  -65.6224  -18.7118  -21.9918 C   0  0  0  0  0  0  0  0  0  0  0  0
  -67.4873  -18.1203  -23.5618 C   0  0  0  0  0  0  0  0  0  0  0  0
  -68.3489  -17.9452  -22.3340 C   0  0  0  0  0  0  0  0  0  0  0  0
  -68.7734  -14.4166  -21.5010 C   0  0  0  0  0  0  0  0  0  0  0  0
  -68.6231  -14.9577  -20.2532 N   0  0  0  0  0  0  0  0  0  0  0  0
  -68.4475  -16.3432  -20.3998 N   0  0  0  0  0  0  0  0  0  0  0  0
  -68.6936  -15.4687  -22.4447 C   0  0  0  0  0  0  0  0  0  0  0  0
  -68.4932  -16.6294  -21.7515 N   0  0  0  0  0  0  0  0  0  0  0  0
  -68.2894  -12.0341  -21.2209 O   0  0  0  0  0  0  0  0  0  0  0  0
  -68.9935  -12.9675  -21.8309 C   0  0  0  0  0  0  0  0  0  0  0  0
  -68.5559  -11.1613  -21.5498 H   0  0  0  0  0  0  0  0  0  0  0  0
  -62.4419  -20.3753  -22.5604 O   0  0  0  0  0  0  0  0  0  0  0  0
  -61.1567  -19.7276  -22.7222 C   0  0  0  0  0  0  0  0  0  0  0  0
  -60.3740  -20.5626  -21.7494 C   0  0  0  0  0  0  0  0  0  0  0  0
  -58.9816  -20.4910  -22.0882 O   0  0  0  0  0  0  0  0  0  0  0  0
  -60.6962  -20.1311  -20.3457 C   0  0  0  0  0  0  0  0  0  0  0  0
  -59.9998  -20.9821  -19.4558 O   0  0  0  0  0  0  0  0  0  0  0  0
  -60.4506  -18.7627  -20.1392 C   0  0  0  0  0  0  0  0  0  0  0  0
  -60.7173  -18.4272  -18.8121 O   0  0  0  0  0  0  0  0  0  0  0  0
  -61.3304  -17.9497  -21.0463 C   0  0  0  0  0  0  0  0  0  0  0  0
  -61.1114  -18.3724  -22.4573 O   0  0  0  0  0  0  0  0  0  0  0  0
  -58.6866  -19.5677  -22.0496 H   0  0  0  0  0  0  0  0  0  0  0  0
  -59.0458  -20.9027  -19.6125 H   0  0  0  0  0  0  0  0  0  0  0  0
  -61.6479  -18.6140  -18.6121 H   0  0  0  0  0  0  0  0  0  0  0  0
  -61.0079  -16.5045  -20.9637 C   0  0  0  0  0  0  0  0  0  0  0  0
  -59.6604  -16.2034  -20.8280 O   0  0  0  0  0  0  0  0  0  0  0  0
  -59.3303  -16.5676  -19.9918 H   0  0  0  0  0  0  0  0  0  0  0  0
 14 15  1  0  0  0
 15  9  1  0  0  0
  9 10  1  0  0  0
  9 12  2  0  0  0
 10 11  2  0  0  0
 11 13  1  0  0  0
 12 13  1  0  0  0
 13  8  1  0  0  0
  8  7  1  0  0  0
  7  1  1  0  0  0
  1  2  1  0  0  0
  1  6  2  0  0  0
  2  3  2  0  0  0
  3  4  1  0  0  0
  4  5  2  0  0  0
  4 17  1  0  0  0
  5  6  1  0  0  0
 17 18  1  0  0  0
 18 19  1  0  0  0
 18 26  1  0  0  0
 19 20  1  0  0  0
 19 21  1  0  0  0
 21 22  1  0  0  0
 21 23  1  0  0  0
 23 24  1  0  0  0
 23 25  1  0  0  0
 25 26  1  0  0  0
 25 30  1  0  0  0
 30 31  1  0  0  0
 14 16  1  0  0  0
 20 27  1  0  0  0
 22 28  1  0  0  0
 24 29  1  0  0  0
 31 32  1  0  0  0
M  END
> <minimizedAffinity>
-8.73053

$$$$
4AVJ_J73_A_201


 32 34  0  0  0  0  0  0  0  0999 V2000
  -66.2324  -18.7701  -22.9187 C   0  0  0  0  0  0  0  0  0  0  0  0
  -65.4691  -18.9880  -24.0737 C   0  0  0  0  0  0  0  0  0  0  0  0
  -64.1890  -19.5397  -24.0517 C   0  0  0  0  0  0  0  0  0  0  0  0
  -63.6649  -19.8777  -22.7908 C   0  0  0  0  0  0  0  0  0  0  0  0
  -64.4678  -19.6664  -21.5989 C   0  0  0  0  0  0  0  0  0  0  0  0
  -65.7102  -19.1272  -21.6435 C   0  0  0  0  0  0  0  0  0  0  0  0
  -67.5759  -18.1874  -23.0321 C   0  0  0  0  0  0  0  0  0  0  0  0
  -67.6455  -16.7022  -22.7675 C   0  0  0  0  0  0  0  0  0  0  0  0
  -69.6379  -15.6818  -19.8841 C   0  0  0  0  0  0  0  0  0  0  0  0
  -68.3794  -15.3633  -19.4511 N   0  0  0  0  0  0  0  0  0  0  0  0
  -67.4723  -15.7038  -20.4675 N   0  0  0  0  0  0  0  0  0  0  0  0
  -69.5257  -16.2294  -21.1846 C   0  0  0  0  0  0  0  0  0  0  0  0
  -68.2003  -16.2305  -21.5181 N   0  0  0  0  0  0  0  0  0  0  0  0
  -70.9045  -15.0098  -17.9008 O   0  0  0  0  0  0  0  0  0  0  0  0
  -70.9218  -15.4985  -19.1256 C   0  0  0  0  0  0  0  0  0  0  0  0
  -71.8114  -14.9581  -17.5606 H   0  0  0  0  0  0  0  0  0  0  0  0
  -62.4448  -20.4242  -22.5716 O   0  0  0  0  0  0  0  0  0  0  0  0
  -61.1705  -19.7578  -22.7432 C   0  0  0  0  0  0  0  0  0  0  0  0
  -60.3690  -20.5792  -21.7743 C   0  0  0  0  0  0  0  0  0  0  0  0
  -58.9801  -20.4876  -22.1227 O   0  0  0  0  0  0  0  0  0  0  0  0
  -60.6880  -20.1498  -20.3692 C   0  0  0  0  0  0  0  0  0  0  0  0
  -59.9730  -20.9887  -19.4826 O   0  0  0  0  0  0  0  0  0  0  0  0
  -60.4614  -18.7775  -20.1669 C   0  0  0  0  0  0  0  0  0  0  0  0
  -60.7240  -18.4435  -18.8387 O   0  0  0  0  0  0  0  0  0  0  0  0
  -61.3592  -17.9794  -21.0695 C   0  0  0  0  0  0  0  0  0  0  0  0
  -61.1435  -18.4016  -22.4812 O   0  0  0  0  0  0  0  0  0  0  0  0
  -58.6985  -19.5600  -22.0878 H   0  0  0  0  0  0  0  0  0  0  0  0
  -59.0214  -20.8955  -19.6459 H   0  0  0  0  0  0  0  0  0  0  0  0
  -61.6504  -18.6437  -18.6320 H   0  0  0  0  0  0  0  0  0  0  0  0
  -61.0576  -16.5295  -20.9918 C   0  0  0  0  0  0  0  0  0  0  0  0
  -59.7207  -16.2100  -20.8041 O   0  0  0  0  0  0  0  0  0  0  0  0
  -59.4214  -16.5600  -19.9504 H   0  0  0  0  0  0  0  0  0  0  0  0
 14 15  1  0  0  0
 15  9  1  0  0  0
  9 10  1  0  0  0
  9 12  2  0  0  0
 10 11  2  0  0  0
 11 13  1  0  0  0
 12 13  1  0  0  0
 13  8  1  0  0  0
  8  7  1  0  0  0
  7  1  1  0  0  0
  1  2  1  0  0  0
  1  6  2  0  0  0
  2  3  2  0  0  0
  3  4  1  0  0  0
  4  5  2  0  0  0
  4 17  1  0  0  0
  5  6  1  0  0  0
 17 18  1  0  0  0
 18 19  1  0  0  0
 18 26  1  0  0  0
 19 20  1  0  0  0
 19 21  1  0  0  0
 21 22  1  0  0  0
 21 23  1  0  0  0
 23 24  1  0  0  0
 23 25  1  0  0  0
 25 26  1  0  0  0
 25 30  1  0  0  0
 30 31  1  0  0  0
 14 16  1  0  0  0
 20 27  1  0  0  0
 22 28  1  0  0  0
 24 29  1  0  0  0
 31 32  1  0  0  0
M  END
> <minimizedAffinity>
-8.58656

$$$$
4AVJ_J73_A_201


 32 34  0  0  0  0  0  0  0  0999 V2000
  -66.0876  -18.8892  -23.2837 C   0  0  0  0  0  0  0  0  0  0  0  0
  -65.2714  -19.2387  -24.3681 C   0  0  0  0  0  0  0  0  0  0  0  0
  -63.9961  -19.7824  -24.2214 C   0  0  0  0  0  0  0  0  0  0  0  0
  -63.5337  -19.9709  -22.9064 C   0  0  0  0  0  0  0  0  0  0  0  0
  -64.3912  -19.6237  -21.7865 C   0  0  0  0  0  0  0  0  0  0  0  0
  -65.6277  -19.0951  -21.9523 C   0  0  0  0  0  0  0  0  0  0  0  0
  -67.4218  -18.3254  -23.5276 C   0  0  0  0  0  0  0  0  0  0  0  0
  -67.7812  -17.1491  -22.6514 C   0  0  0  0  0  0  0  0  0  0  0  0
  -71.2507  -17.4206  -21.5499 C   0  0  0  0  0  0  0  0  0  0  0  0
  -70.7129  -16.6921  -20.5240 N   0  0  0  0  0  0  0  0  0  0  0  0
  -69.3496  -16.4975  -20.7988 N   0  0  0  0  0  0  0  0  0  0  0  0
  -70.2188  -17.6902  -22.4807 C   0  0  0  0  0  0  0  0  0  0  0  0
  -69.0735  -17.1172  -22.0033 N   0  0  0  0  0  0  0  0  0  0  0  0
  -73.0444  -18.6303  -22.6938 O   0  0  0  0  0  0  0  0  0  0  0  0
  -72.6780  -17.8715  -21.6793 C   0  0  0  0  0  0  0  0  0  0  0  0
  -73.9916  -18.8277  -22.6244 H   0  0  0  0  0  0  0  0  0  0  0  0
  -62.3275  -20.4866  -22.5676 O   0  0  0  0  0  0  0  0  0  0  0  0
  -61.0483  -19.8220  -22.7067 C   0  0  0  0  0  0  0  0  0  0  0  0
  -60.2817  -20.6225  -21.6929 C   0  0  0  0  0  0  0  0  0  0  0  0
  -58.8813  -20.5359  -21.9928 O   0  0  0  0  0  0  0  0  0  0  0  0
  -60.6516  -20.1651  -20.3093 C   0  0  0  0  0  0  0  0  0  0  0  0
  -59.9685  -20.9847  -19.3806 O   0  0  0  0  0  0  0  0  0  0  0  0
  -60.4334  -18.7886  -20.1269 C   0  0  0  0  0  0  0  0  0  0  0  0
  -60.7441  -18.4281  -18.8160 O   0  0  0  0  0  0  0  0  0  0  0  0
  -61.2986  -18.0103  -21.0773 C   0  0  0  0  0  0  0  0  0  0  0  0
  -61.0318  -18.4607  -22.4715 O   0  0  0  0  0  0  0  0  0  0  0  0
  -58.6018  -19.6074  -21.9666 H   0  0  0  0  0  0  0  0  0  0  0  0
  -59.0117  -20.8935  -19.5113 H   0  0  0  0  0  0  0  0  0  0  0  0
  -61.6771  -18.6254  -18.6389 H   0  0  0  0  0  0  0  0  0  0  0  0
  -61.0011  -16.5587  -21.0183 C   0  0  0  0  0  0  0  0  0  0  0  0
  -59.6693  -16.2334  -20.8054 O   0  0  0  0  0  0  0  0  0  0  0  0
  -59.3893  -16.5677  -19.9389 H   0  0  0  0  0  0  0  0  0  0  0  0
 14 15  1  0  0  0
 15  9  1  0  0  0
  9 10  1  0  0  0
  9 12  2  0  0  0
 10 11  2  0  0  0
 11 13  1  0  0  0
 12 13  1  0  0  0
 13  8  1  0  0  0
  8  7  1  0  0  0
  7  1  1  0  0  0
  1  2  1  0  0  0
  1  6  2  0  0  0
  2  3  2  0  0  0
  3  4  1  0  0  0
  4  5  2  0  0  0
  4 17  1  0  0  0
  5  6  1  0  0  0
 17 18  1  0  0  0
 18 19  1  0  0  0
 18 26  1  0  0  0
 19 20  1  0  0  0
 19 21  1  0  0  0
 21 22  1  0  0  0
 21 23  1  0  0  0
 23 24  1  0  0  0
 23 25  1  0  0  0
 25 26  1  0  0  0
 25 30  1  0  0  0
 30 31  1  0  0  0
 14 16  1  0  0  0
 20 27  1  0  0  0
 22 28  1  0  0  0
 24 29  1  0  0  0
 31 32  1  0  0  0
M  END
> <minimizedAffinity>
-7.97710

$$$$
4AVJ_J73_A_201


 32 34  0  0  0  0  0  0  0  0999 V2000
  -66.1209  -18.7063  -23.5419 C   0  0  0  0  0  0  0  0  0  0  0  0
  -65.7912  -18.8515  -22.1876 C   0  0  0  0  0  0  0  0  0  0  0  0
  -64.5909  -19.4079  -21.7481 C   0  0  0  0  0  0  0  0  0  0  0  0
  -63.6910  -19.8402  -22.7391 C   0  0  0  0  0  0  0  0  0  0  0  0
  -64.0305  -19.6705  -24.1412 C   0  0  0  0  0  0  0  0  0  0  0  0
  -65.2042  -19.1278  -24.5461 C   0  0  0  0  0  0  0  0  0  0  0  0
  -67.4069  -18.1047  -23.9185 C   0  0  0  0  0  0  0  0  0  0  0  0
  -68.5073  -19.0964  -24.2120 C   0  0  0  0  0  0  0  0  0  0  0  0
  -69.2451  -21.9971  -22.1224 C   0  0  0  0  0  0  0  0  0  0  0  0
  -69.6167  -20.9790  -21.2871 N   0  0  0  0  0  0  0  0  0  0  0  0
  -69.3885  -19.7651  -21.9552 N   0  0  0  0  0  0  0  0  0  0  0  0
  -68.7766  -21.4225  -23.3283 C   0  0  0  0  0  0  0  0  0  0  0  0
  -68.8755  -20.0651  -23.2034 N   0  0  0  0  0  0  0  0  0  0  0  0
  -68.1962  -24.1701  -21.7136 O   0  0  0  0  0  0  0  0  0  0  0  0
  -69.3074  -23.4690  -21.8273 C   0  0  0  0  0  0  0  0  0  0  0  0
  -68.4159  -25.0957  -21.5237 H   0  0  0  0  0  0  0  0  0  0  0  0
  -62.4801  -20.4010  -22.5054 O   0  0  0  0  0  0  0  0  0  0  0  0
  -61.1950  -19.7592  -22.6900 C   0  0  0  0  0  0  0  0  0  0  0  0
  -60.4009  -20.5922  -21.7248 C   0  0  0  0  0  0  0  0  0  0  0  0
  -59.0135  -20.5278  -22.0850 O   0  0  0  0  0  0  0  0  0  0  0  0
  -60.7001  -20.1521  -20.3187 C   0  0  0  0  0  0  0  0  0  0  0  0
  -59.9936  -21.0011  -19.4350 O   0  0  0  0  0  0  0  0  0  0  0  0
  -60.4462  -18.7835  -20.1232 C   0  0  0  0  0  0  0  0  0  0  0  0
  -60.6915  -18.4401  -18.7940 O   0  0  0  0  0  0  0  0  0  0  0  0
  -61.3365  -17.9719  -21.0212 C   0  0  0  0  0  0  0  0  0  0  0  0
  -61.1405  -18.4029  -22.4331 O   0  0  0  0  0  0  0  0  0  0  0  0
  -58.7144  -19.6055  -22.0558 H   0  0  0  0  0  0  0  0  0  0  0  0
  -59.0419  -20.9263  -19.6065 H   0  0  0  0  0  0  0  0  0  0  0  0
  -61.6197  -18.6222  -18.5791 H   0  0  0  0  0  0  0  0  0  0  0  0
  -61.0072  -16.5276  -20.9512 C   0  0  0  0  0  0  0  0  0  0  0  0
  -59.6586  -16.2316  -20.8159 O   0  0  0  0  0  0  0  0  0  0  0  0
  -59.3316  -16.5897  -19.9758 H   0  0  0  0  0  0  0  0  0  0  0  0
 14 15  1  0  0  0
 15  9  1  0  0  0
  9 10  1  0  0  0
  9 12  2  0  0  0
 10 11  2  0  0  0
 11 13  1  0  0  0
 12 13  1  0  0  0
 13  8  1  0  0  0
  8  7  1  0  0  0
  7  1  1  0  0  0
  1  2  1  0  0  0
  1  6  2  0  0  0
  2  3  2  0  0  0
  3  4  1  0  0  0
  4  5  2  0  0  0
  4 17  1  0  0  0
  5  6  1  0  0  0
 17 18  1  0  0  0
 18 19  1  0  0  0
 18 26  1  0  0  0
 19 20  1  0  0  0
 19 21  1  0  0  0
 21 22  1  0  0  0
 21 23  1  0  0  0
 23 24  1  0  0  0
 23 25  1  0  0  0
 25 26  1  0  0  0
 25 30  1  0  0  0
 30 31  1  0  0  0
 14 16  1  0  0  0
 20 27  1  0  0  0
 22 28  1  0  0  0
 24 29  1  0  0  0
 31 32  1  0  0  0
M  END
> <minimizedAffinity>
-7.80593

$$$$
4AVJ_J73_A_201


 32 34  0  0  0  0  0  0  0  0999 V2000
  -66.0701  -18.6265  -23.2167 C   0  0  0  0  0  0  0  0  0  0  0  0
  -65.5882  -18.7636  -21.9079 C   0  0  0  0  0  0  0  0  0  0  0  0
  -64.3618  -19.3517  -21.6021 C   0  0  0  0  0  0  0  0  0  0  0  0
  -63.5977  -19.8258  -22.6839 C   0  0  0  0  0  0  0  0  0  0  0  0
  -64.0942  -19.6647  -24.0394 C   0  0  0  0  0  0  0  0  0  0  0  0
  -65.2906  -19.0906  -24.3137 C   0  0  0  0  0  0  0  0  0  0  0  0
  -67.3729  -17.9897  -23.4508 C   0  0  0  0  0  0  0  0  0  0  0  0
  -67.5936  -16.7033  -22.6911 C   0  0  0  0  0  0  0  0  0  0  0  0
  -70.3596  -14.8284  -24.1605 C   0  0  0  0  0  0  0  0  0  0  0  0
  -70.4354  -14.4172  -22.8576 N   0  0  0  0  0  0  0  0  0  0  0  0
  -69.4165  -15.0634  -22.1392 N   0  0  0  0  0  0  0  0  0  0  0  0
  -69.2847  -15.7433  -24.2669 C   0  0  0  0  0  0  0  0  0  0  0  0
  -68.7258  -15.8682  -23.0259 N   0  0  0  0  0  0  0  0  0  0  0  0
  -72.5638  -14.5060  -25.1739 O   0  0  0  0  0  0  0  0  0  0  0  0
  -71.2542  -14.4029  -25.2901 C   0  0  0  0  0  0  0  0  0  0  0  0
  -72.9865  -14.1900  -25.9877 H   0  0  0  0  0  0  0  0  0  0  0  0
  -62.3851  -20.4215  -22.5837 O   0  0  0  0  0  0  0  0  0  0  0  0
  -61.1010  -19.7663  -22.7222 C   0  0  0  0  0  0  0  0  0  0  0  0
  -60.3388  -20.5774  -21.7135 C   0  0  0  0  0  0  0  0  0  0  0  0
  -58.9382  -20.5004  -22.0156 O   0  0  0  0  0  0  0  0  0  0  0  0
  -60.7025  -20.1235  -20.3271 C   0  0  0  0  0  0  0  0  0  0  0  0
  -60.0242  -20.9527  -19.4034 O   0  0  0  0  0  0  0  0  0  0  0  0
  -60.4732  -18.7496  -20.1388 C   0  0  0  0  0  0  0  0  0  0  0  0
  -60.7786  -18.3927  -18.8258 O   0  0  0  0  0  0  0  0  0  0  0  0
  -61.3341  -17.9602  -21.0840 C   0  0  0  0  0  0  0  0  0  0  0  0
  -61.0733  -18.4063  -22.4808 O   0  0  0  0  0  0  0  0  0  0  0  0
  -58.6514  -19.5742  -21.9857 H   0  0  0  0  0  0  0  0  0  0  0  0
  -59.0669  -20.8683  -19.5355 H   0  0  0  0  0  0  0  0  0  0  0  0
  -61.7129  -18.5835  -18.6478 H   0  0  0  0  0  0  0  0  0  0  0  0
  -61.0250  -16.5112  -21.0189 C   0  0  0  0  0  0  0  0  0  0  0  0
  -59.6926  -16.1975  -20.7931 O   0  0  0  0  0  0  0  0  0  0  0  0
  -59.4234  -16.5361  -19.9249 H   0  0  0  0  0  0  0  0  0  0  0  0
 14 15  1  0  0  0
 15  9  1  0  0  0
  9 10  1  0  0  0
  9 12  2  0  0  0
 10 11  2  0  0  0
 11 13  1  0  0  0
 12 13  1  0  0  0
 13  8  1  0  0  0
  8  7  1  0  0  0
  7  1  1  0  0  0
  1  2  1  0  0  0
  1  6  2  0  0  0
  2  3  2  0  0  0
  3  4  1  0  0  0
  4  5  2  0  0  0
  4 17  1  0  0  0
  5  6  1  0  0  0
 17 18  1  0  0  0
 18 19  1  0  0  0
 18 26  1  0  0  0
 19 20  1  0  0  0
 19 21  1  0  0  0
 21 22  1  0  0  0
 21 23  1  0  0  0
 23 24  1  0  0  0
 23 25  1  0  0  0
 25 26  1  0  0  0
 25 30  1  0  0  0
 30 31  1  0  0  0
 14 16  1  0  0  0
 20 27  1  0  0  0
 22 28  1  0  0  0
 24 29  1  0  0  0
 31 32  1  0  0  0
M  END
> <minimizedAffinity>
-7.73292

$$$$
4AVJ_J73_A_201


 32 34  0  0  0  0  0  0  0  0999 V2000
  -67.1007  -17.8674  -23.1993 C   0  0  0  0  0  0  0  0  0  0  0  0
  -66.3546  -18.6919  -24.0523 C   0  0  0  0  0  0  0  0  0  0  0  0
  -65.0751  -19.1521  -23.7449 C   0  0  0  0  0  0  0  0  0  0  0  0
  -64.5331  -18.7452  -22.5122 C   0  0  0  0  0  0  0  0  0  0  0  0
  -65.3183  -17.9056  -21.6243 C   0  0  0  0  0  0  0  0  0  0  0  0
  -66.5604  -17.4686  -21.9441 C   0  0  0  0  0  0  0  0  0  0  0  0
  -68.4449  -17.4310  -23.5993 C   0  0  0  0  0  0  0  0  0  0  0  0
  -69.1725  -16.5996  -22.5697 C   0  0  0  0  0  0  0  0  0  0  0  0
  -69.0459  -12.9625  -22.2868 C   0  0  0  0  0  0  0  0  0  0  0  0
  -69.4613  -13.1039  -23.5829 N   0  0  0  0  0  0  0  0  0  0  0  0
  -69.5607  -14.4772  -23.8588 N   0  0  0  0  0  0  0  0  0  0  0  0
  -68.8798  -14.2570  -21.7387 C   0  0  0  0  0  0  0  0  0  0  0  0
  -69.2007  -15.1608  -22.7124 N   0  0  0  0  0  0  0  0  0  0  0  0
  -67.5948  -11.3962  -21.0908 O   0  0  0  0  0  0  0  0  0  0  0  0
  -68.7963  -11.6717  -21.5595 C   0  0  0  0  0  0  0  0  0  0  0  0
  -67.6092  -10.5309  -20.6528 H   0  0  0  0  0  0  0  0  0  0  0  0
  -63.3107  -19.0921  -22.0424 O   0  0  0  0  0  0  0  0  0  0  0  0
  -62.9853  -20.3144  -21.3370 C   0  0  0  0  0  0  0  0  0  0  0  0
  -62.8219  -19.7297  -19.9632 C   0  0  0  0  0  0  0  0  0  0  0  0
  -63.0143  -20.7659  -18.9895 O   0  0  0  0  0  0  0  0  0  0  0  0
  -61.4955  -19.0278  -19.8715 C   0  0  0  0  0  0  0  0  0  0  0  0
  -61.4047  -18.4294  -18.5930 O   0  0  0  0  0  0  0  0  0  0  0  0
  -60.4202  -19.8777  -20.1834 C   0  0  0  0  0  0  0  0  0  0  0  0
  -59.2147  -19.1925  -20.0345 O   0  0  0  0  0  0  0  0  0  0  0  0
  -60.5506  -20.3566  -21.6016 C   0  0  0  0  0  0  0  0  0  0  0  0
  -61.8773  -21.0080  -21.7840 O   0  0  0  0  0  0  0  0  0  0  0  0
  -62.3625  -21.4697  -19.1333 H   0  0  0  0  0  0  0  0  0  0  0  0
  -61.4604  -19.1159  -17.9100 H   0  0  0  0  0  0  0  0  0  0  0  0
  -59.1991  -18.4312  -20.6354 H   0  0  0  0  0  0  0  0  0  0  0  0
  -59.5148  -21.3654  -21.9317 C   0  0  0  0  0  0  0  0  0  0  0  0
  -58.2113  -20.8913  -21.9594 O   0  0  0  0  0  0  0  0  0  0  0  0
  -58.1243  -20.2253  -22.6592 H   0  0  0  0  0  0  0  0  0  0  0  0
 14 15  1  0  0  0
 15  9  1  0  0  0
  9 10  1  0  0  0
  9 12  2  0  0  0
 10 11  2  0  0  0
 11 13  1  0  0  0
 12 13  1  0  0  0
 13  8  1  0  0  0
  8  7  1  0  0  0
  7  1  1  0  0  0
  1  2  1  0  0  0
  1  6  2  0  0  0
  2  3  2  0  0  0
  3  4  1  0  0  0
  4  5  2  0  0  0
  4 17  1  0  0  0
  5  6  1  0  0  0
 17 18  1  0  0  0
 18 19  1  0  0  0
 18 26  1  0  0  0
 19 20  1  0  0  0
 19 21  1  0  0  0
 21 22  1  0  0  0
 21 23  1  0  0  0
 23 24  1  0  0  0
 23 25  1  0  0  0
 25 26  1  0  0  0
 25 30  1  0  0  0
 30 31  1  0  0  0
 14 16  1  0  0  0
 20 27  1  0  0  0
 22 28  1  0  0  0
 24 29  1  0  0  0
 31 32  1  0  0  0
M  END
> <minimizedAffinity>
-7.68035

$$$$
4AVJ_J73_A_201


 32 34  0  0  0  0  0  0  0  0999 V2000
  -68.1853  -16.4489  -23.0763 C   0  0  0  0  0  0  0  0  0  0  0  0
  -67.6243  -17.4820  -23.8393 C   0  0  0  0  0  0  0  0  0  0  0  0
  -66.5837  -18.2904  -23.3843 C   0  0  0  0  0  0  0  0  0  0  0  0
  -66.0916  -18.0254  -22.0934 C   0  0  0  0  0  0  0  0  0  0  0  0
  -66.6891  -16.9652  -21.3004 C   0  0  0  0  0  0  0  0  0  0  0  0
  -67.6998  -16.1904  -21.7633 C   0  0  0  0  0  0  0  0  0  0  0  0
  -69.2836  -15.6468  -23.6312 C   0  0  0  0  0  0  0  0  0  0  0  0
  -69.9499  -14.7183  -22.6441 C   0  0  0  0  0  0  0  0  0  0  0  0
  -68.5032  -11.3669  -22.6597 C   0  0  0  0  0  0  0  0  0  0  0  0
  -68.4834  -11.6478  -21.3206 N   0  0  0  0  0  0  0  0  0  0  0  0
  -69.0218  -12.9320  -21.1391 N   0  0  0  0  0  0  0  0  0  0  0  0
  -69.0599  -12.4821  -23.3307 C   0  0  0  0  0  0  0  0  0  0  0  0
  -69.3652  -13.4211  -22.3858 N   0  0  0  0  0  0  0  0  0  0  0  0
  -66.9305   -9.5074  -22.9010 O   0  0  0  0  0  0  0  0  0  0  0  0
  -68.0308  -10.1023  -23.3191 C   0  0  0  0  0  0  0  0  0  0  0  0
  -66.7719   -8.7110  -23.4316 H   0  0  0  0  0  0  0  0  0  0  0  0
  -65.0902  -18.7038  -21.4833 O   0  0  0  0  0  0  0  0  0  0  0  0
  -63.8934  -19.2112  -22.1219 C   0  0  0  0  0  0  0  0  0  0  0  0
  -63.5934  -20.3232  -21.1578 C   0  0  0  0  0  0  0  0  0  0  0  0
  -62.7819  -21.3058  -21.8173 O   0  0  0  0  0  0  0  0  0  0  0  0
  -62.9858  -19.7519  -19.9069 C   0  0  0  0  0  0  0  0  0  0  0  0
  -62.7824  -20.8140  -18.9950 O   0  0  0  0  0  0  0  0  0  0  0  0
  -61.8307  -18.9964  -20.1725 C   0  0  0  0  0  0  0  0  0  0  0  0
  -61.2809  -18.5333  -18.9774 O   0  0  0  0  0  0  0  0  0  0  0  0
  -62.1832  -17.8262  -21.0465 C   0  0  0  0  0  0  0  0  0  0  0  0
  -62.8535  -18.3161  -22.2828 O   0  0  0  0  0  0  0  0  0  0  0  0
  -61.9575  -20.8939  -22.1200 H   0  0  0  0  0  0  0  0  0  0  0  0
  -62.1780  -21.4644  -19.3857 H   0  0  0  0  0  0  0  0  0  0  0  0
  -61.9266  -17.9718  -18.5206 H   0  0  0  0  0  0  0  0  0  0  0  0
  -60.9735  -17.0786  -21.4674 C   0  0  0  0  0  0  0  0  0  0  0  0
  -60.6243  -16.0086  -20.6564 O   0  0  0  0  0  0  0  0  0  0  0  0
  -61.3311  -15.3445  -20.6750 H   0  0  0  0  0  0  0  0  0  0  0  0
 14 15  1  0  0  0
 15  9  1  0  0  0
  9 10  1  0  0  0
  9 12  2  0  0  0
 10 11  2  0  0  0
 11 13  1  0  0  0
 12 13  1  0  0  0
 13  8  1  0  0  0
  8  7  1  0  0  0
  7  1  1  0  0  0
  1  2  1  0  0  0
  1  6  2  0  0  0
  2  3  2  0  0  0
  3  4  1  0  0  0
  4  5  2  0  0  0
  4 17  1  0  0  0
  5  6  1  0  0  0
 17 18  1  0  0  0
 18 19  1  0  0  0
 18 26  1  0  0  0
 19 20  1  0  0  0
 19 21  1  0  0  0
 21 22  1  0  0  0
 21 23  1  0  0  0
 23 24  1  0  0  0
 23 25  1  0  0  0
 25 26  1  0  0  0
 25 30  1  0  0  0
 30 31  1  0  0  0
 14 16  1  0  0  0
 20 27  1  0  0  0
 22 28  1  0  0  0
 24 29  1  0  0  0
 31 32  1  0  0  0
M  END
> <minimizedAffinity>
-7.62701

$$$$
4AVJ_J73_A_201


 32 34  0  0  0  0  0  0  0  0999 V2000
  -65.9429  -19.2505  -22.5740 C   0  0  0  0  0  0  0  0  0  0  0  0
  -65.1376  -19.0604  -23.7052 C   0  0  0  0  0  0  0  0  0  0  0  0
  -63.8285  -19.5304  -23.7998 C   0  0  0  0  0  0  0  0  0  0  0  0
  -63.3194  -20.2202  -22.6845 C   0  0  0  0  0  0  0  0  0  0  0  0
  -64.1648  -20.4299  -21.5221 C   0  0  0  0  0  0  0  0  0  0  0  0
  -65.4348  -19.9630  -21.4512 C   0  0  0  0  0  0  0  0  0  0  0  0
  -67.3146  -18.7255  -22.5593 C   0  0  0  0  0  0  0  0  0  0  0  0
  -68.3818  -19.7529  -22.2659 C   0  0  0  0  0  0  0  0  0  0  0  0
  -69.1350  -21.9533  -25.0794 C   0  0  0  0  0  0  0  0  0  0  0  0
  -68.7974  -22.8699  -24.1210 N   0  0  0  0  0  0  0  0  0  0  0  0
  -68.4704  -22.1703  -22.9482 N   0  0  0  0  0  0  0  0  0  0  0  0
  -69.0194  -20.6632  -24.5084 C   0  0  0  0  0  0  0  0  0  0  0  0
  -68.6162  -20.8211  -23.2121 N   0  0  0  0  0  0  0  0  0  0  0  0
  -70.0946  -23.4052  -26.8000 O   0  0  0  0  0  0  0  0  0  0  0  0
  -69.5490  -22.2442  -26.4940 C   0  0  0  0  0  0  0  0  0  0  0  0
  -70.2999  -23.4263  -27.7478 H   0  0  0  0  0  0  0  0  0  0  0  0
  -62.0757  -20.7496  -22.5929 O   0  0  0  0  0  0  0  0  0  0  0  0
  -60.8298  -20.0180  -22.6923 C   0  0  0  0  0  0  0  0  0  0  0  0
  -60.0747  -20.7363  -21.6107 C   0  0  0  0  0  0  0  0  0  0  0  0
  -58.6673  -20.5802  -21.8421 O   0  0  0  0  0  0  0  0  0  0  0  0
  -60.5422  -20.2519  -20.2664 C   0  0  0  0  0  0  0  0  0  0  0  0
  -59.8648  -20.9972  -19.2732 O   0  0  0  0  0  0  0  0  0  0  0  0
  -60.4107  -18.8595  -20.1265 C   0  0  0  0  0  0  0  0  0  0  0  0
  -60.8100  -18.4708  -18.8481 O   0  0  0  0  0  0  0  0  0  0  0  0
  -61.2663  -18.1666  -21.1490 C   0  0  0  0  0  0  0  0  0  0  0  0
  -60.9014  -18.6505  -22.5094 O   0  0  0  0  0  0  0  0  0  0  0  0
  -58.4416  -19.6368  -21.8377 H   0  0  0  0  0  0  0  0  0  0  0  0
  -58.9090  -20.8558  -19.3585 H   0  0  0  0  0  0  0  0  0  0  0  0
  -61.7387  -18.7150  -18.7112 H   0  0  0  0  0  0  0  0  0  0  0  0
  -61.0534  -16.6991  -21.1311 C   0  0  0  0  0  0  0  0  0  0  0  0
  -59.7730  -16.2887  -20.7892 O   0  0  0  0  0  0  0  0  0  0  0  0
  -59.5757  -16.5675  -19.8813 H   0  0  0  0  0  0  0  0  0  0  0  0
 14 15  1  0  0  0
 15  9  1  0  0  0
  9 10  1  0  0  0
  9 12  2  0  0  0
 10 11  2  0  0  0
 11 13  1  0  0  0
 12 13  1  0  0  0
 13  8  1  0  0  0
  8  7  1  0  0  0
  7  1  1  0  0  0
  1  2  1  0  0  0
  1  6  2  0  0  0
  2  3  2  0  0  0
  3  4  1  0  0  0
  4  5  2  0  0  0
  4 17  1  0  0  0
  5  6  1  0  0  0
 17 18  1  0  0  0
 18 19  1  0  0  0
 18 26  1  0  0  0
 19 20  1  0  0  0
 19 21  1  0  0  0
 21 22  1  0  0  0
 21 23  1  0  0  0
 23 24  1  0  0  0
 23 25  1  0  0  0
 25 26  1  0  0  0
 25 30  1  0  0  0
 30 31  1  0  0  0
 14 16  1  0  0  0
 20 27  1  0  0  0
 22 28  1  0  0  0
 24 29  1  0  0  0
 31 32  1  0  0  0
M  END
> <minimizedAffinity>
-7.32594

$$$$
4AVJ_J73_A_201


 32 34  0  0  0  0  0  0  0  0999 V2000
  -64.3680  -21.5180  -25.9302 C   0  0  0  0  0  0  0  0  0  0  0  0
  -64.0836  -22.5768  -25.0571 C   0  0  0  0  0  0  0  0  0  0  0  0
  -63.2890  -22.4381  -23.9201 C   0  0  0  0  0  0  0  0  0  0  0  0
  -62.7571  -21.1602  -23.6693 C   0  0  0  0  0  0  0  0  0  0  0  0
  -63.0701  -20.0626  -24.5677 C   0  0  0  0  0  0  0  0  0  0  0  0
  -63.8444  -20.2204  -25.6685 C   0  0  0  0  0  0  0  0  0  0  0  0
  -65.2191  -21.7503  -27.1046 C   0  0  0  0  0  0  0  0  0  0  0  0
  -66.5916  -21.1255  -27.0244 C   0  0  0  0  0  0  0  0  0  0  0  0
  -68.2634  -20.4817  -23.8439 C   0  0  0  0  0  0  0  0  0  0  0  0
  -68.4285  -21.8359  -23.9502 N   0  0  0  0  0  0  0  0  0  0  0  0
  -67.8295  -22.2528  -25.1498 N   0  0  0  0  0  0  0  0  0  0  0  0
  -67.5552  -20.0381  -24.9865 C   0  0  0  0  0  0  0  0  0  0  0  0
  -67.3009  -21.1328  -25.7642 N   0  0  0  0  0  0  0  0  0  0  0  0
  -69.2755  -20.1385  -21.6423 O   0  0  0  0  0  0  0  0  0  0  0  0
  -68.7478  -19.6029  -22.7257 C   0  0  0  0  0  0  0  0  0  0  0  0
  -69.5331  -19.4349  -21.0263 H   0  0  0  0  0  0  0  0  0  0  0  0
  -61.9684  -20.8338  -22.6172 O   0  0  0  0  0  0  0  0  0  0  0  0
  -60.7310  -20.0840  -22.6815 C   0  0  0  0  0  0  0  0  0  0  0  0
  -60.0084  -20.7698  -21.5574 C   0  0  0  0  0  0  0  0  0  0  0  0
  -58.5955  -20.5952  -21.7361 O   0  0  0  0  0  0  0  0  0  0  0  0
  -60.5363  -20.2682  -20.2421 C   0  0  0  0  0  0  0  0  0  0  0  0
  -59.8875  -20.9839  -19.2088 O   0  0  0  0  0  0  0  0  0  0  0  0
  -60.4321  -18.8715  -20.1238 C   0  0  0  0  0  0  0  0  0  0  0  0
  -60.8878  -18.4657  -18.8697 O   0  0  0  0  0  0  0  0  0  0  0  0
  -61.2570  -18.2117  -21.1923 C   0  0  0  0  0  0  0  0  0  0  0  0
  -60.8310  -18.7147  -22.5277 O   0  0  0  0  0  0  0  0  0  0  0  0
  -58.3848  -19.6483  -21.7408 H   0  0  0  0  0  0  0  0  0  0  0  0
  -58.9313  -20.8286  -19.2591 H   0  0  0  0  0  0  0  0  0  0  0  0
  -61.8173  -18.7223  -18.7649 H   0  0  0  0  0  0  0  0  0  0  0  0
  -61.0677  -16.7408  -21.1942 C   0  0  0  0  0  0  0  0  0  0  0  0
  -59.8260  -16.3011  -20.7588 O   0  0  0  0  0  0  0  0  0  0  0  0
  -59.7003  -16.5546  -19.8310 H   0  0  0  0  0  0  0  0  0  0  0  0
 14 15  1  0  0  0
 15  9  1  0  0  0
  9 10  1  0  0  0
  9 12  2  0  0  0
 10 11  2  0  0  0
 11 13  1  0  0  0
 12 13  1  0  0  0
 13  8  1  0  0  0
  8  7  1  0  0  0
  7  1  1  0  0  0
  1  2  1  0  0  0
  1  6  2  0  0  0
  2  3  2  0  0  0
  3  4  1  0  0  0
  4  5  2  0  0  0
  4 17  1  0  0  0
  5  6  1  0  0  0
 17 18  1  0  0  0
 18 19  1  0  0  0
 18 26  1  0  0  0
 19 20  1  0  0  0
 19 21  1  0  0  0
 21 22  1  0  0  0
 21 23  1  0  0  0
 23 24  1  0  0  0
 23 25  1  0  0  0
 25 26  1  0  0  0
 25 30  1  0  0  0
 30 31  1  0  0  0
 14 16  1  0  0  0
 20 27  1  0  0  0
 22 28  1  0  0  0
 24 29  1  0  0  0
 31 32  1  0  0  0
M  END
> <minimizedAffinity>
-7.07491

$$$$
4AVJ_J73_A_201


 32 34  0  0  0  0  0  0  0  0999 V2000
  -66.7610  -18.3790  -24.0922 C   0  0  0  0  0  0  0  0  0  0  0  0
  -65.7324  -19.0390  -24.7781 C   0  0  0  0  0  0  0  0  0  0  0  0
  -64.5024  -19.3479  -24.1991 C   0  0  0  0  0  0  0  0  0  0  0  0
  -64.3152  -18.9585  -22.8604 C   0  0  0  0  0  0  0  0  0  0  0  0
  -65.3915  -18.2909  -22.1491 C   0  0  0  0  0  0  0  0  0  0  0  0
  -66.5792  -17.9993  -22.7323 C   0  0  0  0  0  0  0  0  0  0  0  0
  -68.0291  -18.0957  -24.7772 C   0  0  0  0  0  0  0  0  0  0  0  0
  -69.2558  -18.6465  -24.0900 C   0  0  0  0  0  0  0  0  0  0  0  0
  -71.3585  -17.0361  -21.5780 C   0  0  0  0  0  0  0  0  0  0  0  0
  -71.0042  -15.9588  -22.3438 N   0  0  0  0  0  0  0  0  0  0  0  0
  -70.1727  -16.4172  -23.3784 N   0  0  0  0  0  0  0  0  0  0  0  0
  -70.7451  -18.1852  -22.1321 C   0  0  0  0  0  0  0  0  0  0  0  0
  -70.0315  -17.7840  -23.2265 N   0  0  0  0  0  0  0  0  0  0  0  0
  -71.7168  -17.2507  -19.1666 O   0  0  0  0  0  0  0  0  0  0  0  0
  -72.2346  -17.0212  -20.3576 C   0  0  0  0  0  0  0  0  0  0  0  0
  -72.4157  -17.2039  -18.4957 H   0  0  0  0  0  0  0  0  0  0  0  0
  -63.1929  -19.1738  -22.1326 O   0  0  0  0  0  0  0  0  0  0  0  0
  -62.8845  -20.3707  -21.3779 C   0  0  0  0  0  0  0  0  0  0  0  0
  -62.7569  -19.7393  -20.0211 C   0  0  0  0  0  0  0  0  0  0  0  0
  -62.9731  -20.7422  -19.0179 O   0  0  0  0  0  0  0  0  0  0  0  0
  -61.4339  -19.0323  -19.9195 C   0  0  0  0  0  0  0  0  0  0  0  0
  -61.3765  -18.3905  -18.6603 O   0  0  0  0  0  0  0  0  0  0  0  0
  -60.3502  -19.8903  -20.1747 C   0  0  0  0  0  0  0  0  0  0  0  0
  -59.1496  -19.1982  -20.0186 O   0  0  0  0  0  0  0  0  0  0  0  0
  -60.4438  -20.4174  -21.5786 C   0  0  0  0  0  0  0  0  0  0  0  0
  -61.7647  -21.0772  -21.7725 O   0  0  0  0  0  0  0  0  0  0  0  0
  -62.3171  -21.4492  -19.1209 H   0  0  0  0  0  0  0  0  0  0  0  0
  -61.4490  -19.0534  -17.9559 H   0  0  0  0  0  0  0  0  0  0  0  0
  -59.1194  -18.4577  -20.6444 H   0  0  0  0  0  0  0  0  0  0  0  0
  -59.3990  -21.4349  -21.8476 C   0  0  0  0  0  0  0  0  0  0  0  0
  -58.1542  -20.9307  -22.1956 O   0  0  0  0  0  0  0  0  0  0  0  0
  -58.2259  -20.4392  -23.0288 H   0  0  0  0  0  0  0  0  0  0  0  0
 14 15  1  0  0  0
 15  9  1  0  0  0
  9 10  1  0  0  0
  9 12  2  0  0  0
 10 11  2  0  0  0
 11 13  1  0  0  0
 12 13  1  0  0  0
 13  8  1  0  0  0
  8  7  1  0  0  0
  7  1  1  0  0  0
  1  2  1  0  0  0
  1  6  2  0  0  0
  2  3  2  0  0  0
  3  4  1  0  0  0
  4  5  2  0  0  0
  4 17  1  0  0  0
  5  6  1  0  0  0
 17 18  1  0  0  0
 18 19  1  0  0  0
 18 26  1  0  0  0
 19 20  1  0  0  0
 19 21  1  0  0  0
 21 22  1  0  0  0
 21 23  1  0  0  0
 23 24  1  0  0  0
 23 25  1  0  0  0
 25 26  1  0  0  0
 25 30  1  0  0  0
 30 31  1  0  0  0
 14 16  1  0  0  0
 20 27  1  0  0  0
 22 28  1  0  0  0
 24 29  1  0  0  0
 31 32  1  0  0  0
M  END
> <minimizedAffinity>
-7.06089

$$$$
