2XYE_CXG_B_1200
  RCSB PDB12061707313D
Coordinates from PDB:2XYE:B:1200 Model:1 without hydrogens
 51 53  0  0  0  0            999 V2000
   13.1970   23.5400    5.0280   C 0  0  0  0  0  0  0  0  0  0  0  0
   10.6860   24.2160    5.6020   C 0  0  0  0  0  0  0  0  0  0  0  0
   10.3950   23.2330    6.2920   O 0  0  0  0  0  0  0  0  0  0  0  0
    9.9920   25.3750    5.6420   N 0  0  0  0  0  0  0  0  0  0  0  0
    8.7460   25.7570    6.4860   C 0  0  0  0  0  0  0  0  0  0  0  0
    8.9740   26.3380    8.0220   C 0  0  0  0  0  0  0  0  0  0  0  0
    9.7680   27.6550    8.0530   C 0  0  0  0  0  0  0  0  0  0  0  0
    7.6150   26.6570    8.7410   C 0  0  0  0  0  0  0  0  0  0  0  0
    9.7570   25.3520    8.8960   C 0  0  0  0  0  0  0  0  0  0  0  0
    7.9630   26.7340    5.6300   C 0  0  0  0  0  0  0  0  0  0  0  0
    8.3490   27.8220    5.1970   O 0  0  0  0  0  0  0  0  0  0  0  0
    6.7300   26.1980    5.4040   N 0  0  0  0  0  0  0  0  0  0  0  0
   11.3300   23.4990    3.2570   C 0  0  0  0  0  0  0  0  0  0  0  0
    9.9750   24.0630    2.7090   C 0  0  0  0  0  0  0  0  0  0  0  0
    8.7500   23.2810    2.9220   C 0  0  0  0  0  0  0  0  0  0  0  0
    7.4770   23.7770    2.4380   C 0  0  0  0  0  0  0  0  0  0  0  0
    7.4090   25.0520    1.7400   C 0  0  0  0  0  0  0  0  0  0  0  0
    8.6170   25.8280    1.5250   C 0  0  0  0  0  0  0  0  0  0  0  0
    9.8920   25.3340    2.0090   C 0  0  0  0  0  0  0  0  0  0  0  0
   12.2780   25.5200    4.2370   O 0  0  0  0  0  0  0  0  0  0  0  0
   15.2250   23.7030    6.5960   C 0  0  0  0  0  0  0  0  0  0  0  0
   15.3430   22.3930    7.1420   N 0  0  0  0  0  0  0  0  0  0  0  0
   15.9450   21.4810    6.0940   N 0  0  0  0  0  0  0  0  0  0  0  0
   15.2770   20.4460    5.5630   C 0  0  0  0  0  0  0  0  0  0  0  0
   14.1020   20.1620    5.8940   O 0  0  0  0  0  0  0  0  0  0  0  0
   16.0370   19.6210    4.5190   C 0  0  0  0  0  0  0  0  0  0  0  0
   15.3450   18.7360    3.4170   C 0  0  0  0  0  0  0  0  0  0  0  0
   16.4320   18.0770    2.5610   C 0  0  0  0  0  0  0  0  0  0  0  0
   14.5100   19.5470    2.4460   C 0  0  0  0  0  0  0  0  0  0  0  0
   14.5230   17.5970    4.0130   C 0  0  0  0  0  0  0  0  0  0  0  0
   16.8460   18.8330    5.4870   N 0  0  0  0  0  0  0  0  0  0  0  0
   18.1720   18.9470    5.6570   C 0  0  0  0  0  0  0  0  0  0  0  0
   18.9430   19.7040    5.0620   O 0  0  0  0  0  0  0  0  0  0  0  0
   18.5870   18.0410    6.6580   O 0  0  0  0  0  0  0  0  0  0  0  0
   19.3220   16.8740    6.2620   C 0  0  0  0  0  0  0  0  0  0  0  0
   16.2060   22.3900    8.3090   C 0  0  0  0  0  0  0  0  0  0  0  0
   16.4120   21.0240    8.9890   C 0  0  0  0  0  0  0  0  0  0  0  0
   15.2500   20.2360    9.3820   C 0  0  0  0  0  0  0  0  0  0  0  0
   15.4270   18.9500   10.0210   C 0  0  0  0  0  0  0  0  0  0  0  0
   17.7580   20.5230    9.2320   C 0  0  0  0  0  0  0  0  0  0  0  0
   17.9410   19.2230    9.8800   C 0  0  0  0  0  0  0  0  0  0  0  0
   16.7700   18.4440   10.2720   C 0  0  0  0  0  0  0  0  0  0  0  0
   16.8600   17.0770   10.9610   C 0  0  0  0  0  0  0  0  0  0  0  0
   16.7560   15.8200   10.2360   C 0  0  0  0  0  0  0  0  0  0  0  0
   11.8670   24.1950    4.5810   C 0  0  0  0  0  0  0  0  0  0  0  0
   16.8430   14.5410   10.9370   C 0  0  0  0  0  0  0  0  0  0  0  0
    5.6440   26.8010    4.6200   C 0  0  0  0  0  0  0  0  0  0  0  0
   17.0330   14.5120   12.3770   C 0  0  0  0  0  0  0  0  0  0  0  0
   13.7550   24.0280    6.3920   C 0  0  0  0  0  0  0  0  0  0  0  0
   17.1400   15.7500   13.1160   C 0  0  0  0  0  0  0  0  0  0  0  0
   17.0550   17.0290   12.4130   C 0  0  0  0  0  0  0  0  0  0  0  0
  1 45  1  0  0  0  0
  1 49  1  0  0  0  0
  2  3  2  0  0  0  0
  2  4  1  0  0  0  0
  2 45  1  0  0  0  0
  4  5  1  0  0  0  0
  5  6  1  0  0  0  0
  5 10  1  0  0  0  0
  6  8  1  0  0  0  0
  6  9  1  0  0  0  0
  6  7  1  0  0  0  0
 10 11  2  0  0  0  0
 10 12  1  0  0  0  0
 12 47  1  0  0  0  0
 13 14  1  0  0  0  0
 13 45  1  0  0  0  0
 14 15  1  0  0  0  0
 14 19  2  0  0  0  0
 15 16  2  0  0  0  0
 16 17  1  0  0  0  0
 17 18  2  0  0  0  0
 18 19  1  0  0  0  0
 20 45  1  0  0  0  0
 21 22  1  0  0  0  0
 21 49  1  0  0  0  0
 22 23  1  0  0  0  0
 22 36  1  0  0  0  0
 23 24  1  0  0  0  0
 24 25  2  0  0  0  0
 24 26  1  0  0  0  0
 26 27  1  0  0  0  0
 26 31  1  0  0  0  0
 27 30  1  0  0  0  0
 27 28  1  0  0  0  0
 27 29  1  0  0  0  0
 31 32  1  0  0  0  0
 32 33  2  0  0  0  0
 32 34  1  0  0  0  0
 34 35  1  0  0  0  0
 36 37  1  0  0  0  0
 37 38  1  0  0  0  0
 37 40  2  0  0  0  0
 38 39  2  0  0  0  0
 39 42  1  0  0  0  0
 40 41  1  0  0  0  0
 41 42  2  0  0  0  0
 42 43  1  0  0  0  0
 43 44  1  0  0  0  0
 43 51  2  0  0  0  0
 44 46  2  0  0  0  0
 46 48  1  0  0  0  0
 48 50  2  0  0  0  0
 50 51  1  0  0  0  0
A    1
CAA
A    2
CBK
A    3
OAI
A    4
N
A    5
CA
A    6
CB
A    7
CG1
A    8
CAE
A    9
CG2
A   10
C
A   11
O
A   12
NBG
A   13
CBA
A   14
CBO
A   15
CAT
A   16
CAP
A   17
CAN
A   18
CAQ
A   19
CAU
A   20
OAM
A   21
CBC
A   22
NBW
A   23
NBH
A   24
CBN
A   25
OAL
A   26
CBV
A   27
CBY
A   28
CAF
A   29
CAG
A   30
CAH
A   31
NBF
A   32
CBL
A   33
OAJ
A   34
OBJ
A   35
CAB
A   36
CBB
A   37
CBP
A   38
CAW
A   39
CAY
A   40
CAX
A   41
CAZ
A   42
CBQ
A   43
CBR
A   44
CAV
A   45
C1
A   46
CAR
A   47
C9
A   48
CAO
A   49
C24
A   50
CAS
A   51
C53
M  END
>  <InstanceId>
2XYE_CXG_B_1200

>  <ChemCompId>
CXG

>  <PdbId>
2XYE

>  <ChainId>
B

>  <ResidueNumber>
1200

>  <InsertionCode>


>  <Model>
1

>  <AltIds>


>  <MissingHeavyAtoms>
0

>  <ObservedFormula>
C40 N5 O6

>  <Name>
METHYL N-[(2S)-1-[2-[(4R)-5-[[(2S)-3,3-DIMETHYL-1-METHYLAMINO-1-OXO-BUTAN-2-YL]AMINO]-4-HYDROXY-5-OXO-4-(PHENYLMETHYL)PENTYL]-2-[(4-PHENYLPHENYL)METHYL]HYDRAZINYL]-3,3-DIMETHYL-1-OXO-BUTAN-2-YL]CARBAMATE

>  <SystematicName>
methyl N-[(2S)-1-[2-[(4R)-5-[[(2S)-3,3-dimethyl-1-methylamino-1-oxo-butan-2-yl]amino]-4-hydroxy-5-oxo-4-(phenylmethyl)pentyl]-2-[(4-phenylphenyl)methyl]hydrazinyl]-3,3-dimethyl-1-oxo-butan-2-yl]carbamate

>  <Synonyms>


>  <Type>
non-polymer

>  <Formula>
C40 H55 N5 O6

>  <MolecularWeight>
701.895

>  <ModifiedDate>
2011-12-02

>  <Parent>


>  <OneLetterCode>


>  <SubcomponentList>


>  <AmbiguousFlag>
N

>  <InChI>
InChI=1S/C40H55N5O6/c1-38(2,3)32(34(46)41-7)42-36(48)40(50,26-28-16-11-9-12-17-28)24-15-25-45(44-35(47)33(39(4,5)6)43-37(49)51-8)27-29-20-22-31(23-21-29)30-18-13-10-14-19-30/h9-14,16-23,32-33,50H,15,24-27H2,1-8H3,(H,41,46)(H,42,48)(H,43,49)(H,44,47)/t32-,33-,40-/m1/s1

>  <InChIKey>
TXYBNSUGKNIMSP-UBNGCCFSSA-N

>  <SMILES>
CC(C)(C)[C@@H](C(=O)NC)NC(=O)[C@@](CCC[N@](Cc1ccc(cc1)c2ccccc2)NC(=O)[C@H](C(C)(C)C)NC(=O)OC)(Cc3ccccc3)O

$$$$
