2XYE_CXG_B_1200


 56 58  0  0  0  0  0  0  0  0999 V2000
   15.0840   22.2804    6.0857 N   0  0  0  0  0  0  0  0  0  0  0  0
   15.8683   21.3351    5.2004 N   0  0  0  0  0  0  0  0  0  0  0  0
   15.4721   20.0781    4.9510 C   0  0  0  0  0  0  0  0  0  0  0  0
   14.4191   19.5964    5.4306 O   0  0  0  0  0  0  0  0  0  0  0  0
   16.7038   21.6565    4.7907 H   0  0  0  0  0  0  0  0  0  0  0  0
   16.3870   19.2544    4.0384 C   0  0  0  0  0  0  0  0  0  0  0  0
   15.8717   18.3075    2.8920 C   0  0  0  0  0  0  0  0  0  0  0  0
   14.9896   17.2186    3.5124 C   0  0  0  0  0  0  0  0  0  0  0  0
   16.9914   17.5628    2.1924 C   0  0  0  0  0  0  0  0  0  0  0  0
   14.9963   19.0390    1.8787 C   0  0  0  0  0  0  0  0  0  0  0  0
   17.0989   18.5314    5.1260 N   0  0  0  0  0  0  0  0  0  0  0  0
   18.2642   18.9121    5.6714 C   0  0  0  0  0  0  0  0  0  0  0  0
   18.9403   19.9026    5.3826 O   0  0  0  0  0  0  0  0  0  0  0  0
   16.6827   17.7094    5.4728 H   0  0  0  0  0  0  0  0  0  0  0  0
   18.6304   17.9825    6.6698 O   0  0  0  0  0  0  0  0  0  0  0  0
   19.3056   16.7809    6.2708 C   0  0  0  0  0  0  0  0  0  0  0  0
   15.9010   22.6228    7.2355 C   0  0  0  0  0  0  0  0  0  0  0  0
   16.2463   21.4606    8.1846 C   0  0  0  0  0  0  0  0  0  0  0  0
   15.1726   20.6484    8.7442 C   0  0  0  0  0  0  0  0  0  0  0  0
   15.4808   19.5522    9.6368 C   0  0  0  0  0  0  0  0  0  0  0  0
   17.6356   21.1738    8.5153 C   0  0  0  0  0  0  0  0  0  0  0  0
   17.9512   20.0665    9.4196 C   0  0  0  0  0  0  0  0  0  0  0  0
   16.8676   19.2619    9.9763 C   0  0  0  0  0  0  0  0  0  0  0  0
   17.0976   18.0878   10.9355 C   0  0  0  0  0  0  0  0  0  0  0  0
   17.9585   18.1814   12.1046 C   0  0  0  0  0  0  0  0  0  0  0  0
   18.1508   17.0333   12.9876 C   0  0  0  0  0  0  0  0  0  0  0  0
   17.4810   15.7760   12.7028 C   0  0  0  0  0  0  0  0  0  0  0  0
   16.6202   15.6625   11.5467 C   0  0  0  0  0  0  0  0  0  0  0  0
   16.4269   16.8127   10.6653 C   0  0  0  0  0  0  0  0  0  0  0  0
   14.7483   23.4413    5.3323 C   0  0  0  0  0  0  0  0  0  0  0  0
   13.9753   23.0252    4.0923 C   0  0  0  0  0  0  0  0  0  0  0  0
   12.5776   22.4270    4.4064 C   0  0  0  0  0  0  0  0  0  0  0  0
   12.0290   24.6072    3.8264 O   0  0  0  0  0  0  0  0  0  0  0  0
   11.3882   23.4091    4.2699 C   0  0  0  0  0  0  0  0  0  0  0  0
   12.6340   24.9243    4.5152 H   0  0  0  0  0  0  0  0  0  0  0  0
   10.5111   23.6712    5.5346 C   0  0  0  0  0  0  0  0  0  0  0  0
   10.2342   22.7763    6.3406 O   0  0  0  0  0  0  0  0  0  0  0  0
   10.0537   24.9373    5.6546 N   0  0  0  0  0  0  0  0  0  0  0  0
   10.3490   25.5572    4.9491 H   0  0  0  0  0  0  0  0  0  0  0  0
    9.1326   25.5613    6.7376 C   0  0  0  0  0  0  0  0  0  0  0  0
    8.3301   26.6287    6.0185 C   0  0  0  0  0  0  0  0  0  0  0  0
    8.7501   27.4600    5.2106 O   0  0  0  0  0  0  0  0  0  0  0  0
    7.0308   26.5143    6.4153 N   0  0  0  0  0  0  0  0  0  0  0  0
    5.9034   27.3435    5.9692 C   0  0  0  0  0  0  0  0  0  0  0  0
    6.8277   25.8044    7.0665 H   0  0  0  0  0  0  0  0  0  0  0  0
    9.8228   26.1483    8.1261 C   0  0  0  0  0  0  0  0  0  0  0  0
   11.3497   25.9654    8.1601 C   0  0  0  0  0  0  0  0  0  0  0  0
    9.5868   27.6913    8.2967 C   0  0  0  0  0  0  0  0  0  0  0  0
    9.2848   25.4416    9.3752 C   0  0  0  0  0  0  0  0  0  0  0  0
   10.4105   22.9297    3.1123 C   0  0  0  0  0  0  0  0  0  0  0  0
    9.2241   23.9025    2.7952 C   0  0  0  0  0  0  0  0  0  0  0  0
    7.8814   23.5557    3.2794 C   0  0  0  0  0  0  0  0  0  0  0  0
    6.7621   24.4374    3.0138 C   0  0  0  0  0  0  0  0  0  0  0  0
    6.9658   25.6696    2.2670 C   0  0  0  0  0  0  0  0  0  0  0  0
    8.2904   26.0162    1.7844 C   0  0  0  0  0  0  0  0  0  0  0  0
    9.4122   25.1357    2.0495 C   0  0  0  0  0  0  0  0  0  0  0  0
 32 34  1  0  0  0
 32 31  1  0  0  0
 36 37  2  0  0  0
 36 38  1  0  0  0
 36 34  1  0  0  0
 38 40  1  0  0  0
 40 46  1  0  0  0
 40 41  1  0  0  0
 46 48  1  0  0  0
 46 49  1  0  0  0
 46 47  1  0  0  0
 41 42  2  0  0  0
 41 43  1  0  0  0
 43 44  1  0  0  0
 50 51  1  0  0  0
 50 34  1  0  0  0
 51 52  1  0  0  0
 51 56  2  0  0  0
 52 53  2  0  0  0
 53 54  1  0  0  0
 54 55  2  0  0  0
 55 56  1  0  0  0
 33 34  1  0  0  0
 30  1  1  0  0  0
 30 31  1  0  0  0
  1  2  1  0  0  0
  1 17  1  0  0  0
  2  3  1  0  0  0
  3  4  2  0  0  0
  3  6  1  0  0  0
  6  7  1  0  0  0
  6 11  1  0  0  0
  7 10  1  0  0  0
  7  8  1  0  0  0
  7  9  1  0  0  0
 11 12  1  0  0  0
 12 13  2  0  0  0
 12 15  1  0  0  0
 15 16  1  0  0  0
 17 18  1  0  0  0
 18 19  1  0  0  0
 18 21  2  0  0  0
 19 20  2  0  0  0
 20 23  1  0  0  0
 21 22  1  0  0  0
 22 23  2  0  0  0
 23 24  1  0  0  0
 24 25  1  0  0  0
 24 29  2  0  0  0
 25 26  2  0  0  0
 26 27  1  0  0  0
 27 28  2  0  0  0
 28 29  1  0  0  0
 38 39  1  0  0  0
 43 45  1  0  0  0
 33 35  1  0  0  0
  2  5  1  0  0  0
 11 14  1  0  0  0
M  END
> <minimizedAffinity>
-10.31406

$$$$
2XYE_CXG_B_1200


 56 58  0  0  0  0  0  0  0  0999 V2000
   14.6331   22.4372    5.8863 N   0  0  0  0  0  0  0  0  0  0  0  0
   15.4940   21.5115    5.0531 N   0  0  0  0  0  0  0  0  0  0  0  0
   15.1815   20.2241    4.8424 C   0  0  0  0  0  0  0  0  0  0  0  0
   14.1493   19.6954    5.3177 O   0  0  0  0  0  0  0  0  0  0  0  0
   16.3174   21.8693    4.6491 H   0  0  0  0  0  0  0  0  0  0  0  0
   16.1658   19.4267    3.9801 C   0  0  0  0  0  0  0  0  0  0  0  0
   15.7401   18.4884    2.7907 C   0  0  0  0  0  0  0  0  0  0  0  0
   14.9942   17.2776    3.3619 C   0  0  0  0  0  0  0  0  0  0  0  0
   16.9240   17.9101    2.0412 C   0  0  0  0  0  0  0  0  0  0  0  0
   14.7728   19.1688    1.8266 C   0  0  0  0  0  0  0  0  0  0  0  0
   16.8176   18.6993    5.1019 N   0  0  0  0  0  0  0  0  0  0  0  0
   18.0478   18.9523    5.5740 C   0  0  0  0  0  0  0  0  0  0  0  0
   18.8421   19.8095    5.1793 O   0  0  0  0  0  0  0  0  0  0  0  0
   16.3065   17.9758    5.5315 H   0  0  0  0  0  0  0  0  0  0  0  0
   18.3247   18.0632    6.6361 O   0  0  0  0  0  0  0  0  0  0  0  0
   18.7039   16.7161    6.3191 C   0  0  0  0  0  0  0  0  0  0  0  0
   15.3979   22.8635    7.0439 C   0  0  0  0  0  0  0  0  0  0  0  0
   15.8638   21.7428    7.9914 C   0  0  0  0  0  0  0  0  0  0  0  0
   14.8729   20.8820    8.6261 C   0  0  0  0  0  0  0  0  0  0  0  0
   15.2949   19.8239    9.5181 C   0  0  0  0  0  0  0  0  0  0  0  0
   17.2841   21.5430    8.2460 C   0  0  0  0  0  0  0  0  0  0  0  0
   17.7147   20.4745    9.1494 C   0  0  0  0  0  0  0  0  0  0  0  0
   16.7133   19.6206    9.7818 C   0  0  0  0  0  0  0  0  0  0  0  0
   17.0656   18.4816   10.7461 C   0  0  0  0  0  0  0  0  0  0  0  0
   16.5235   17.1383   10.6117 C   0  0  0  0  0  0  0  0  0  0  0  0
   16.8848   16.0859   11.5587 C   0  0  0  0  0  0  0  0  0  0  0  0
   17.7942   16.3740   12.6544 C   0  0  0  0  0  0  0  0  0  0  0  0
   18.3450   17.7022   12.8050 C   0  0  0  0  0  0  0  0  0  0  0  0
   17.9844   18.7536   11.8554 C   0  0  0  0  0  0  0  0  0  0  0  0
   14.2515   23.5518    5.0861 C   0  0  0  0  0  0  0  0  0  0  0  0
   12.8506   23.3214    4.5452 C   0  0  0  0  0  0  0  0  0  0  0  0
   11.9971   24.6158    4.4670 C   0  0  0  0  0  0  0  0  0  0  0  0
   10.4545   23.3760    5.6810 O   0  0  0  0  0  0  0  0  0  0  0  0
   10.4800   24.4277    4.7135 C   0  0  0  0  0  0  0  0  0  0  0  0
   10.8222   22.5680    5.2900 H   0  0  0  0  0  0  0  0  0  0  0  0
    9.5788   24.0882    3.4846 C   0  0  0  0  0  0  0  0  0  0  0  0
    9.7018   23.0355    2.8492 O   0  0  0  0  0  0  0  0  0  0  0  0
    8.6862   25.0477    3.1541 N   0  0  0  0  0  0  0  0  0  0  0  0
    8.6842   25.8374    3.7420 H   0  0  0  0  0  0  0  0  0  0  0  0
    7.6634   25.0920    1.9868 C   0  0  0  0  0  0  0  0  0  0  0  0
    7.8401   26.4558    1.3471 C   0  0  0  0  0  0  0  0  0  0  0  0
    8.1577   27.5071    1.9076 O   0  0  0  0  0  0  0  0  0  0  0  0
    7.5906   26.3281    0.0129 N   0  0  0  0  0  0  0  0  0  0  0  0
    7.6473   27.3960   -0.9941 C   0  0  0  0  0  0  0  0  0  0  0  0
    7.3478   25.4296   -0.3080 H   0  0  0  0  0  0  0  0  0  0  0  0
    6.0696   24.7731    2.3138 C   0  0  0  0  0  0  0  0  0  0  0  0
    5.2916   26.0176    2.7741 C   0  0  0  0  0  0  0  0  0  0  0  0
    5.3004   24.2482    1.0495 C   0  0  0  0  0  0  0  0  0  0  0  0
    5.9115   23.7381    3.4331 C   0  0  0  0  0  0  0  0  0  0  0  0
    9.8700   25.7258    5.3981 C   0  0  0  0  0  0  0  0  0  0  0  0
    9.9332   25.7472    6.9633 C   0  0  0  0  0  0  0  0  0  0  0  0
    8.7070   25.4639    7.7208 C   0  0  0  0  0  0  0  0  0  0  0  0
    8.7308   25.4646    9.1701 C   0  0  0  0  0  0  0  0  0  0  0  0
    9.9702   25.7454    9.8788 C   0  0  0  0  0  0  0  0  0  0  0  0
   11.1846   26.0280    9.1351 C   0  0  0  0  0  0  0  0  0  0  0  0
   11.1634   26.0273    7.6847 C   0  0  0  0  0  0  0  0  0  0  0  0
 32 34  1  0  0  0
 32 31  1  0  0  0
 36 37  2  0  0  0
 36 38  1  0  0  0
 36 34  1  0  0  0
 38 40  1  0  0  0
 40 46  1  0  0  0
 40 41  1  0  0  0
 46 48  1  0  0  0
 46 49  1  0  0  0
 46 47  1  0  0  0
 41 42  2  0  0  0
 41 43  1  0  0  0
 43 44  1  0  0  0
 50 51  1  0  0  0
 50 34  1  0  0  0
 51 52  1  0  0  0
 51 56  2  0  0  0
 52 53  2  0  0  0
 53 54  1  0  0  0
 54 55  2  0  0  0
 55 56  1  0  0  0
 33 34  1  0  0  0
 30  1  1  0  0  0
 30 31  1  0  0  0
  1  2  1  0  0  0
  1 17  1  0  0  0
  2  3  1  0  0  0
  3  4  2  0  0  0
  3  6  1  0  0  0
  6  7  1  0  0  0
  6 11  1  0  0  0
  7 10  1  0  0  0
  7  8  1  0  0  0
  7  9  1  0  0  0
 11 12  1  0  0  0
 12 13  2  0  0  0
 12 15  1  0  0  0
 15 16  1  0  0  0
 17 18  1  0  0  0
 18 19  1  0  0  0
 18 21  2  0  0  0
 19 20  2  0  0  0
 20 23  1  0  0  0
 21 22  1  0  0  0
 22 23  2  0  0  0
 23 24  1  0  0  0
 24 25  1  0  0  0
 24 29  2  0  0  0
 25 26  2  0  0  0
 26 27  1  0  0  0
 27 28  2  0  0  0
 28 29  1  0  0  0
 38 39  1  0  0  0
 43 45  1  0  0  0
 33 35  1  0  0  0
  2  5  1  0  0  0
 11 14  1  0  0  0
M  END
> <minimizedAffinity>
-10.12624

$$$$
2XYE_CXG_B_1200


 56 58  0  0  0  0  0  0  0  0999 V2000
   14.2873   22.2545    5.8182 N   0  0  0  0  0  0  0  0  0  0  0  0
   15.1942   21.3943    4.9638 N   0  0  0  0  0  0  0  0  0  0  0  0
   14.9654   20.0902    4.7485 C   0  0  0  0  0  0  0  0  0  0  0  0
   13.9793   19.4901    5.2367 O   0  0  0  0  0  0  0  0  0  0  0  0
   15.9847   21.8094    4.5490 H   0  0  0  0  0  0  0  0  0  0  0  0
   15.9862   19.3666    3.8640 C   0  0  0  0  0  0  0  0  0  0  0  0
   15.6056   18.4520    2.6412 C   0  0  0  0  0  0  0  0  0  0  0  0
   16.8806   17.7929    2.1040 C   0  0  0  0  0  0  0  0  0  0  0  0
   15.0381   19.2334    1.4728 C   0  0  0  0  0  0  0  0  0  0  0  0
   14.6691   17.3126    3.0325 C   0  0  0  0  0  0  0  0  0  0  0  0
   16.6656   18.6300    4.9633 N   0  0  0  0  0  0  0  0  0  0  0  0
   17.8565   18.9551    5.4890 C   0  0  0  0  0  0  0  0  0  0  0  0
   18.5863   19.8969    5.1698 O   0  0  0  0  0  0  0  0  0  0  0  0
   16.2056   17.8425    5.3340 H   0  0  0  0  0  0  0  0  0  0  0  0
   18.1777   18.0304    6.5072 O   0  0  0  0  0  0  0  0  0  0  0  0
   19.5268   17.9909    6.9944 C   0  0  0  0  0  0  0  0  0  0  0  0
   15.0578   22.7742    6.9331 C   0  0  0  0  0  0  0  0  0  0  0  0
   15.6512   21.7223    7.8882 C   0  0  0  0  0  0  0  0  0  0  0  0
   14.7584   20.8190    8.6042 C   0  0  0  0  0  0  0  0  0  0  0  0
   15.3006   19.8245    9.5044 C   0  0  0  0  0  0  0  0  0  0  0  0
   17.0935   21.6291    8.0693 C   0  0  0  0  0  0  0  0  0  0  0  0
   17.6457   20.6252    8.9808 C   0  0  0  0  0  0  0  0  0  0  0  0
   16.7419   19.7280    9.6949 C   0  0  0  0  0  0  0  0  0  0  0  0
   17.2242   18.6507   10.6738 C   0  0  0  0  0  0  0  0  0  0  0  0
   18.0641   18.9489   11.8236 C   0  0  0  0  0  0  0  0  0  0  0  0
   18.5032   17.8874   12.7265 C   0  0  0  0  0  0  0  0  0  0  0  0
   18.1042   16.5122   12.4812 C   0  0  0  0  0  0  0  0  0  0  0  0
   17.2687   16.1949   11.3447 C   0  0  0  0  0  0  0  0  0  0  0  0
   16.8283   17.2583   10.4434 C   0  0  0  0  0  0  0  0  0  0  0  0
   13.7701   23.3118    5.0165 C   0  0  0  0  0  0  0  0  0  0  0  0
   12.5763   23.9339    5.7207 C   0  0  0  0  0  0  0  0  0  0  0  0
   11.2178   23.5997    5.0478 C   0  0  0  0  0  0  0  0  0  0  0  0
    9.3574   23.9780    6.3843 O   0  0  0  0  0  0  0  0  0  0  0  0
   10.0747   24.6080    5.3207 C   0  0  0  0  0  0  0  0  0  0  0  0
    8.9829   23.1402    6.0700 H   0  0  0  0  0  0  0  0  0  0  0  0
    9.1256   24.9716    4.1355 C   0  0  0  0  0  0  0  0  0  0  0  0
    9.4755   24.8639    2.9553 O   0  0  0  0  0  0  0  0  0  0  0  0
    7.9141   25.4439    4.5041 N   0  0  0  0  0  0  0  0  0  0  0  0
    7.7560   25.4771    5.4752 H   0  0  0  0  0  0  0  0  0  0  0  0
    6.7342   25.9421    3.6264 C   0  0  0  0  0  0  0  0  0  0  0  0
    5.8768   26.7898    4.5465 C   0  0  0  0  0  0  0  0  0  0  0  0
    5.2369   27.8007    4.2484 O   0  0  0  0  0  0  0  0  0  0  0  0
    5.9232   26.2352    5.7910 N   0  0  0  0  0  0  0  0  0  0  0  0
    5.2368   26.7254    6.9936 C   0  0  0  0  0  0  0  0  0  0  0  0
    6.4720   25.4244    5.8941 H   0  0  0  0  0  0  0  0  0  0  0  0
    5.8268   24.8236    2.8052 C   0  0  0  0  0  0  0  0  0  0  0  0
    6.3925   24.4987    1.4123 C   0  0  0  0  0  0  0  0  0  0  0  0
    5.7632   23.4468    3.5575 C   0  0  0  0  0  0  0  0  0  0  0  0
    4.3913   25.3092    2.5754 C   0  0  0  0  0  0  0  0  0  0  0  0
   10.6677   25.9715    5.8819 C   0  0  0  0  0  0  0  0  0  0  0  0
   10.1439   26.3949    7.2964 C   0  0  0  0  0  0  0  0  0  0  0  0
    9.0046   27.3185    7.3772 C   0  0  0  0  0  0  0  0  0  0  0  0
    8.4868   27.7236    8.6690 C   0  0  0  0  0  0  0  0  0  0  0  0
    9.0941   27.2155    9.8898 C   0  0  0  0  0  0  0  0  0  0  0  0
   10.2216   26.3040    9.8157 C   0  0  0  0  0  0  0  0  0  0  0  0
   10.7412   25.8967    8.5242 C   0  0  0  0  0  0  0  0  0  0  0  0
 32 34  1  0  0  0
 32 31  1  0  0  0
 36 37  2  0  0  0
 36 38  1  0  0  0
 36 34  1  0  0  0
 38 40  1  0  0  0
 40 46  1  0  0  0
 40 41  1  0  0  0
 46 48  1  0  0  0
 46 49  1  0  0  0
 46 47  1  0  0  0
 41 42  2  0  0  0
 41 43  1  0  0  0
 43 44  1  0  0  0
 50 51  1  0  0  0
 50 34  1  0  0  0
 51 52  1  0  0  0
 51 56  2  0  0  0
 52 53  2  0  0  0
 53 54  1  0  0  0
 54 55  2  0  0  0
 55 56  1  0  0  0
 33 34  1  0  0  0
 30  1  1  0  0  0
 30 31  1  0  0  0
  1  2  1  0  0  0
  1 17  1  0  0  0
  2  3  1  0  0  0
  3  4  2  0  0  0
  3  6  1  0  0  0
  6  7  1  0  0  0
  6 11  1  0  0  0
  7 10  1  0  0  0
  7  8  1  0  0  0
  7  9  1  0  0  0
 11 12  1  0  0  0
 12 13  2  0  0  0
 12 15  1  0  0  0
 15 16  1  0  0  0
 17 18  1  0  0  0
 18 19  1  0  0  0
 18 21  2  0  0  0
 19 20  2  0  0  0
 20 23  1  0  0  0
 21 22  1  0  0  0
 22 23  2  0  0  0
 23 24  1  0  0  0
 24 25  1  0  0  0
 24 29  2  0  0  0
 25 26  2  0  0  0
 26 27  1  0  0  0
 27 28  2  0  0  0
 28 29  1  0  0  0
 38 39  1  0  0  0
 43 45  1  0  0  0
 33 35  1  0  0  0
  2  5  1  0  0  0
 11 14  1  0  0  0
M  END
> <minimizedAffinity>
-10.06230

$$$$
2XYE_CXG_B_1200


 56 58  0  0  0  0  0  0  0  0999 V2000
   15.8701   21.4020    6.9810 N   0  0  0  0  0  0  0  0  0  0  0  0
   16.1698   20.3535    5.9306 N   0  0  0  0  0  0  0  0  0  0  0  0
   15.9997   20.5723    4.6181 C   0  0  0  0  0  0  0  0  0  0  0  0
   15.5838   21.6648    4.1660 O   0  0  0  0  0  0  0  0  0  0  0  0
   16.5035   19.4746    6.2230 H   0  0  0  0  0  0  0  0  0  0  0  0
   16.3450   19.4013    3.6920 C   0  0  0  0  0  0  0  0  0  0  0  0
   15.2761   18.5148    2.9517 C   0  0  0  0  0  0  0  0  0  0  0  0
   14.1445   19.4209    2.4545 C   0  0  0  0  0  0  0  0  0  0  0  0
   14.6076   17.5077    3.8664 C   0  0  0  0  0  0  0  0  0  0  0  0
   15.8441   17.8248    1.7149 C   0  0  0  0  0  0  0  0  0  0  0  0
   17.1591   18.6432    4.6794 N   0  0  0  0  0  0  0  0  0  0  0  0
   18.2655   17.9413    4.3904 C   0  0  0  0  0  0  0  0  0  0  0  0
   18.7979   17.7996    3.2868 O   0  0  0  0  0  0  0  0  0  0  0  0
   16.8631   18.6576    5.6182 H   0  0  0  0  0  0  0  0  0  0  0  0
   18.7638   17.3591    5.5768 O   0  0  0  0  0  0  0  0  0  0  0  0
   18.7583   15.9287    5.6913 C   0  0  0  0  0  0  0  0  0  0  0  0
   14.5021   21.2264    7.4330 C   0  0  0  0  0  0  0  0  0  0  0  0
   13.4191   21.9117    6.5795 C   0  0  0  0  0  0  0  0  0  0  0  0
   13.4086   23.3652    6.4662 C   0  0  0  0  0  0  0  0  0  0  0  0
   12.3982   24.0241    5.6672 C   0  0  0  0  0  0  0  0  0  0  0  0
   12.4174   21.1118    5.8879 C   0  0  0  0  0  0  0  0  0  0  0  0
   11.3923   21.7751    5.0800 C   0  0  0  0  0  0  0  0  0  0  0  0
   11.3898   23.2314    4.9762 C   0  0  0  0  0  0  0  0  0  0  0  0
   10.3548   24.0158    4.1606 C   0  0  0  0  0  0  0  0  0  0  0  0
   10.5004   24.2677    2.7352 C   0  0  0  0  0  0  0  0  0  0  0  0
    9.4895   25.0250    2.0008 C   0  0  0  0  0  0  0  0  0  0  0  0
    8.3209   25.5403    2.6932 C   0  0  0  0  0  0  0  0  0  0  0  0
    8.1567   25.3000    4.1093 C   0  0  0  0  0  0  0  0  0  0  0  0
    9.1679   24.5402    4.8425 C   0  0  0  0  0  0  0  0  0  0  0  0
   16.7889   21.2471    8.0580 C   0  0  0  0  0  0  0  0  0  0  0  0
   16.2587   20.1966    9.0190 C   0  0  0  0  0  0  0  0  0  0  0  0
   17.3735   19.4742    9.8224 C   0  0  0  0  0  0  0  0  0  0  0  0
   17.4551   18.2936    7.8248 O   0  0  0  0  0  0  0  0  0  0  0  0
   17.9441   18.1940    9.1641 C   0  0  0  0  0  0  0  0  0  0  0  0
   16.4860   18.2511    7.8304 H   0  0  0  0  0  0  0  0  0  0  0  0
   17.5711   16.8186    9.8019 C   0  0  0  0  0  0  0  0  0  0  0  0
   16.5706   16.6723   10.5123 O   0  0  0  0  0  0  0  0  0  0  0  0
   18.4443   15.8195    9.5453 N   0  0  0  0  0  0  0  0  0  0  0  0
   19.1990   16.0633    8.9621 H   0  0  0  0  0  0  0  0  0  0  0  0
   18.4363   14.3451   10.0319 C   0  0  0  0  0  0  0  0  0  0  0  0
   18.8987   14.3941   11.4755 C   0  0  0  0  0  0  0  0  0  0  0  0
   20.0451   14.5891   11.8854 O   0  0  0  0  0  0  0  0  0  0  0  0
   17.8108   14.1885   12.2710 N   0  0  0  0  0  0  0  0  0  0  0  0
   17.7940   14.1569   13.7395 C   0  0  0  0  0  0  0  0  0  0  0  0
   16.9497   14.0469   11.8153 H   0  0  0  0  0  0  0  0  0  0  0  0
   19.2793   13.2153    9.1590 C   0  0  0  0  0  0  0  0  0  0  0  0
   20.6656   13.7127    8.7155 C   0  0  0  0  0  0  0  0  0  0  0  0
   19.5536   11.9111    9.9894 C   0  0  0  0  0  0  0  0  0  0  0  0
   18.5423   12.8181    7.8752 C   0  0  0  0  0  0  0  0  0  0  0  0
   19.5305   18.2681    9.1037 C   0  0  0  0  0  0  0  0  0  0  0  0
   20.1684   19.5078    9.8183 C   0  0  0  0  0  0  0  0  0  0  0  0
   20.2817   20.7683    9.0727 C   0  0  0  0  0  0  0  0  0  0  0  0
   20.8569   21.9386    9.7055 C   0  0  0  0  0  0  0  0  0  0  0  0
   21.3233   21.8680   11.0821 C   0  0  0  0  0  0  0  0  0  0  0  0
   21.2155   20.6241   11.8229 C   0  0  0  0  0  0  0  0  0  0  0  0
   20.6397   19.4519   11.1920 C   0  0  0  0  0  0  0  0  0  0  0  0
 32 34  1  0  0  0
 32 31  1  0  0  0
 36 37  2  0  0  0
 36 38  1  0  0  0
 36 34  1  0  0  0
 38 40  1  0  0  0
 40 46  1  0  0  0
 40 41  1  0  0  0
 46 48  1  0  0  0
 46 49  1  0  0  0
 46 47  1  0  0  0
 41 42  2  0  0  0
 41 43  1  0  0  0
 43 44  1  0  0  0
 50 51  1  0  0  0
 50 34  1  0  0  0
 51 52  1  0  0  0
 51 56  2  0  0  0
 52 53  2  0  0  0
 53 54  1  0  0  0
 54 55  2  0  0  0
 55 56  1  0  0  0
 33 34  1  0  0  0
 30  1  1  0  0  0
 30 31  1  0  0  0
  1  2  1  0  0  0
  1 17  1  0  0  0
  2  3  1  0  0  0
  3  4  2  0  0  0
  3  6  1  0  0  0
  6  7  1  0  0  0
  6 11  1  0  0  0
  7 10  1  0  0  0
  7  8  1  0  0  0
  7  9  1  0  0  0
 11 12  1  0  0  0
 12 13  2  0  0  0
 12 15  1  0  0  0
 15 16  1  0  0  0
 17 18  1  0  0  0
 18 19  1  0  0  0
 18 21  2  0  0  0
 19 20  2  0  0  0
 20 23  1  0  0  0
 21 22  1  0  0  0
 22 23  2  0  0  0
 23 24  1  0  0  0
 24 25  1  0  0  0
 24 29  2  0  0  0
 25 26  2  0  0  0
 26 27  1  0  0  0
 27 28  2  0  0  0
 28 29  1  0  0  0
 38 39  1  0  0  0
 43 45  1  0  0  0
 33 35  1  0  0  0
  2  5  1  0  0  0
 11 14  1  0  0  0
M  END
> <minimizedAffinity>
-9.36014

$$$$
2XYE_CXG_B_1200


 56 58  0  0  0  0  0  0  0  0999 V2000
   15.7805   20.8438    6.8536 N   0  0  0  0  0  0  0  0  0  0  0  0
   15.8193   19.7938    5.7634 N   0  0  0  0  0  0  0  0  0  0  0  0
   16.9024   19.5786    5.0018 C   0  0  0  0  0  0  0  0  0  0  0  0
   17.9639   20.2300    5.1417 O   0  0  0  0  0  0  0  0  0  0  0  0
   15.0163   19.2461    5.6071 H   0  0  0  0  0  0  0  0  0  0  0  0
   16.7693   18.4817    3.9401 C   0  0  0  0  0  0  0  0  0  0  0  0
   15.5083   18.2922    3.0179 C   0  0  0  0  0  0  0  0  0  0  0  0
   15.9502   17.6247    1.7111 C   0  0  0  0  0  0  0  0  0  0  0  0
   14.8780   19.6063    2.6011 C   0  0  0  0  0  0  0  0  0  0  0  0
   14.4648   17.3672    3.6373 C   0  0  0  0  0  0  0  0  0  0  0  0
   17.0089   17.3344    4.8558 N   0  0  0  0  0  0  0  0  0  0  0  0
   18.0210   16.4601    4.7487 C   0  0  0  0  0  0  0  0  0  0  0  0
   18.9144   16.4462    3.8983 O   0  0  0  0  0  0  0  0  0  0  0  0
   16.3755   17.2065    5.5986 H   0  0  0  0  0  0  0  0  0  0  0  0
   17.9225   15.5123    5.7913 O   0  0  0  0  0  0  0  0  0  0  0  0
   18.9683   14.5401    5.9328 C   0  0  0  0  0  0  0  0  0  0  0  0
   17.0676   20.8626    7.5241 C   0  0  0  0  0  0  0  0  0  0  0  0
   17.2347   19.8661    8.6860 C   0  0  0  0  0  0  0  0  0  0  0  0
   16.0534   19.3760    9.3860 C   0  0  0  0  0  0  0  0  0  0  0  0
   16.1937   18.4385   10.4791 C   0  0  0  0  0  0  0  0  0  0  0  0
   18.5630   19.4143    9.0774 C   0  0  0  0  0  0  0  0  0  0  0  0
   18.7090   18.4672   10.1842 C   0  0  0  0  0  0  0  0  0  0  0  0
   17.5192   17.9855   10.8799 C   0  0  0  0  0  0  0  0  0  0  0  0
   17.5709   16.9993   12.0530 C   0  0  0  0  0  0  0  0  0  0  0  0
   16.9255   15.6960   12.0168 C   0  0  0  0  0  0  0  0  0  0  0  0
   16.9982   14.7916   13.1620 C   0  0  0  0  0  0  0  0  0  0  0  0
   17.7194   15.1894   14.3587 C   0  0  0  0  0  0  0  0  0  0  0  0
   18.3688   16.4799   14.4146 C   0  0  0  0  0  0  0  0  0  0  0  0
   18.2971   17.3830   13.2672 C   0  0  0  0  0  0  0  0  0  0  0  0
   15.4927   22.1072    6.2627 C   0  0  0  0  0  0  0  0  0  0  0  0
   13.9938   22.3507    6.3109 C   0  0  0  0  0  0  0  0  0  0  0  0
   13.2926   22.1669    4.9382 C   0  0  0  0  0  0  0  0  0  0  0  0
   12.9043   24.3890    4.3885 O   0  0  0  0  0  0  0  0  0  0  0  0
   12.1698   23.1856    4.6233 C   0  0  0  0  0  0  0  0  0  0  0  0
   13.3624   24.6521    5.2021 H   0  0  0  0  0  0  0  0  0  0  0  0
   11.0592   23.4013    5.6993 C   0  0  0  0  0  0  0  0  0  0  0  0
   10.4782   22.4565    6.2440 O   0  0  0  0  0  0  0  0  0  0  0  0
   10.7630   24.6946    5.9565 N   0  0  0  0  0  0  0  0  0  0  0  0
   11.3003   25.3534    5.4600 H   0  0  0  0  0  0  0  0  0  0  0  0
    9.7029   25.2978    6.9174 C   0  0  0  0  0  0  0  0  0  0  0  0
    8.8806   26.2466    6.0664 C   0  0  0  0  0  0  0  0  0  0  0  0
    9.2886   26.9895    5.1710 O   0  0  0  0  0  0  0  0  0  0  0  0
    7.5790   26.1386    6.4573 N   0  0  0  0  0  0  0  0  0  0  0  0
    6.4346   26.8729    5.9016 C   0  0  0  0  0  0  0  0  0  0  0  0
    7.3867   25.5046    7.1856 H   0  0  0  0  0  0  0  0  0  0  0  0
   10.2190   26.0236    8.3158 C   0  0  0  0  0  0  0  0  0  0  0  0
    9.8660   27.5193    8.3804 C   0  0  0  0  0  0  0  0  0  0  0  0
    9.5591   25.3871    9.5905 C   0  0  0  0  0  0  0  0  0  0  0  0
   11.7413   25.9417    8.4745 C   0  0  0  0  0  0  0  0  0  0  0  0
   11.4392   22.7956    3.2669 C   0  0  0  0  0  0  0  0  0  0  0  0
   10.1178   23.5833    2.9702 C   0  0  0  0  0  0  0  0  0  0  0  0
   10.2081   24.8679    2.2637 C   0  0  0  0  0  0  0  0  0  0  0  0
    9.0054   25.6188    1.9630 C   0  0  0  0  0  0  0  0  0  0  0  0
    7.7045   25.1015    2.3600 C   0  0  0  0  0  0  0  0  0  0  0  0
    7.6097   23.8334    3.0603 C   0  0  0  0  0  0  0  0  0  0  0  0
    8.8118   23.0798    3.3617 C   0  0  0  0  0  0  0  0  0  0  0  0
 32 34  1  0  0  0
 32 31  1  0  0  0
 36 37  2  0  0  0
 36 38  1  0  0  0
 36 34  1  0  0  0
 38 40  1  0  0  0
 40 46  1  0  0  0
 40 41  1  0  0  0
 46 48  1  0  0  0
 46 49  1  0  0  0
 46 47  1  0  0  0
 41 42  2  0  0  0
 41 43  1  0  0  0
 43 44  1  0  0  0
 50 51  1  0  0  0
 50 34  1  0  0  0
 51 52  1  0  0  0
 51 56  2  0  0  0
 52 53  2  0  0  0
 53 54  1  0  0  0
 54 55  2  0  0  0
 55 56  1  0  0  0
 33 34  1  0  0  0
 30  1  1  0  0  0
 30 31  1  0  0  0
  1  2  1  0  0  0
  1 17  1  0  0  0
  2  3  1  0  0  0
  3  4  2  0  0  0
  3  6  1  0  0  0
  6  7  1  0  0  0
  6 11  1  0  0  0
  7 10  1  0  0  0
  7  8  1  0  0  0
  7  9  1  0  0  0
 11 12  1  0  0  0
 12 13  2  0  0  0
 12 15  1  0  0  0
 15 16  1  0  0  0
 17 18  1  0  0  0
 18 19  1  0  0  0
 18 21  2  0  0  0
 19 20  2  0  0  0
 20 23  1  0  0  0
 21 22  1  0  0  0
 22 23  2  0  0  0
 23 24  1  0  0  0
 24 25  1  0  0  0
 24 29  2  0  0  0
 25 26  2  0  0  0
 26 27  1  0  0  0
 27 28  2  0  0  0
 28 29  1  0  0  0
 38 39  1  0  0  0
 43 45  1  0  0  0
 33 35  1  0  0  0
  2  5  1  0  0  0
 11 14  1  0  0  0
M  END
> <minimizedAffinity>
-9.31664

$$$$
2XYE_CXG_B_1200


 56 58  0  0  0  0  0  0  0  0999 V2000
   17.9163   19.2692    7.9948 N   0  0  0  0  0  0  0  0  0  0  0  0
   18.3248   18.5921    9.2859 N   0  0  0  0  0  0  0  0  0  0  0  0
   18.4096   17.2592    9.4107 C   0  0  0  0  0  0  0  0  0  0  0  0
   18.1606   16.4771    8.4634 O   0  0  0  0  0  0  0  0  0  0  0  0
   18.5369   19.1534   10.0664 H   0  0  0  0  0  0  0  0  0  0  0  0
   18.8316   16.7394   10.7891 C   0  0  0  0  0  0  0  0  0  0  0  0
   17.8469   16.0805   11.8249 C   0  0  0  0  0  0  0  0  0  0  0  0
   16.4133   16.2289   11.3040 C   0  0  0  0  0  0  0  0  0  0  0  0
   17.8553   16.7747   13.1724 C   0  0  0  0  0  0  0  0  0  0  0  0
   18.0877   14.5828   11.9893 C   0  0  0  0  0  0  0  0  0  0  0  0
   19.4297   18.0132   11.2708 N   0  0  0  0  0  0  0  0  0  0  0  0
   20.7417   18.2935   11.2825 C   0  0  0  0  0  0  0  0  0  0  0  0
   21.6674   17.5704   10.9062 O   0  0  0  0  0  0  0  0  0  0  0  0
   18.8149   18.7046   11.6074 H   0  0  0  0  0  0  0  0  0  0  0  0
   20.9302   19.5911   11.8078 O   0  0  0  0  0  0  0  0  0  0  0  0
   20.6948   20.7170   10.9500 C   0  0  0  0  0  0  0  0  0  0  0  0
   17.0290   20.3732    8.3117 C   0  0  0  0  0  0  0  0  0  0  0  0
   15.9475   20.6889    7.2622 C   0  0  0  0  0  0  0  0  0  0  0  0
   14.6174   21.0925    7.7020 C   0  0  0  0  0  0  0  0  0  0  0  0
   13.5906   21.3934    6.7281 C   0  0  0  0  0  0  0  0  0  0  0  0
   16.2548   20.5891    5.8418 C   0  0  0  0  0  0  0  0  0  0  0  0
   15.2178   20.8911    4.8534 C   0  0  0  0  0  0  0  0  0  0  0  0
   13.8885   21.2913    5.3056 C   0  0  0  0  0  0  0  0  0  0  0  0
   12.7370   21.6209    4.3480 C   0  0  0  0  0  0  0  0  0  0  0  0
   11.4267   22.0529    4.8093 C   0  0  0  0  0  0  0  0  0  0  0  0
   10.3581   22.3513    3.8585 C   0  0  0  0  0  0  0  0  0  0  0  0
   10.5951   22.2157    2.4316 C   0  0  0  0  0  0  0  0  0  0  0  0
   11.8906   21.7889    1.9524 C   0  0  0  0  0  0  0  0  0  0  0  0
   12.9595   21.4928    2.9048 C   0  0  0  0  0  0  0  0  0  0  0  0
   19.0878   19.7291    7.3282 C   0  0  0  0  0  0  0  0  0  0  0  0
   19.5404   18.6761    6.3310 C   0  0  0  0  0  0  0  0  0  0  0  0
   18.3999   18.1660    5.4096 C   0  0  0  0  0  0  0  0  0  0  0  0
   17.4088   16.1031    5.8005 O   0  0  0  0  0  0  0  0  0  0  0  0
   18.4724   16.6666    5.0298 C   0  0  0  0  0  0  0  0  0  0  0  0
   17.6030   16.2083    6.7451 H   0  0  0  0  0  0  0  0  0  0  0  0
   19.8165   15.9144    5.2855 C   0  0  0  0  0  0  0  0  0  0  0  0
   20.7627   15.9695    4.4926 O   0  0  0  0  0  0  0  0  0  0  0  0
   19.8462   15.1757    6.4169 N   0  0  0  0  0  0  0  0  0  0  0  0
   19.0302   15.2189    6.9660 H   0  0  0  0  0  0  0  0  0  0  0  0
   20.9735   14.2692    6.9809 C   0  0  0  0  0  0  0  0  0  0  0  0
   21.2863   13.2793    5.8753 C   0  0  0  0  0  0  0  0  0  0  0  0
   20.5200   12.4528    5.3752 O   0  0  0  0  0  0  0  0  0  0  0  0
   22.5867   13.4590    5.5077 N   0  0  0  0  0  0  0  0  0  0  0  0
   23.3130   12.7169    4.4687 C   0  0  0  0  0  0  0  0  0  0  0  0
   23.0898   14.1565    5.9869 H   0  0  0  0  0  0  0  0  0  0  0  0
   20.7285   13.5060    8.4323 C   0  0  0  0  0  0  0  0  0  0  0  0
   19.2477   13.1870    8.6993 C   0  0  0  0  0  0  0  0  0  0  0  0
   21.4694   12.1235    8.5055 C   0  0  0  0  0  0  0  0  0  0  0  0
   21.1961   14.3619    9.6146 C   0  0  0  0  0  0  0  0  0  0  0  0
   18.1101   16.4708    3.4948 C   0  0  0  0  0  0  0  0  0  0  0  0
   16.7977   17.1842    3.0226 C   0  0  0  0  0  0  0  0  0  0  0  0
   16.7974   17.8683    1.7228 C   0  0  0  0  0  0  0  0  0  0  0  0
   15.5978   18.5298    1.2492 C   0  0  0  0  0  0  0  0  0  0  0  0
   14.3897   18.5173    2.0603 C   0  0  0  0  0  0  0  0  0  0  0  0
   14.3851   17.8443    3.3467 C   0  0  0  0  0  0  0  0  0  0  0  0
   15.5841   17.1811    3.8225 C   0  0  0  0  0  0  0  0  0  0  0  0
 32 34  1  0  0  0
 32 31  1  0  0  0
 36 37  2  0  0  0
 36 38  1  0  0  0
 36 34  1  0  0  0
 38 40  1  0  0  0
 40 46  1  0  0  0
 40 41  1  0  0  0
 46 48  1  0  0  0
 46 49  1  0  0  0
 46 47  1  0  0  0
 41 42  2  0  0  0
 41 43  1  0  0  0
 43 44  1  0  0  0
 50 51  1  0  0  0
 50 34  1  0  0  0
 51 52  1  0  0  0
 51 56  2  0  0  0
 52 53  2  0  0  0
 53 54  1  0  0  0
 54 55  2  0  0  0
 55 56  1  0  0  0
 33 34  1  0  0  0
 30  1  1  0  0  0
 30 31  1  0  0  0
  1  2  1  0  0  0
  1 17  1  0  0  0
  2  3  1  0  0  0
  3  4  2  0  0  0
  3  6  1  0  0  0
  6  7  1  0  0  0
  6 11  1  0  0  0
  7 10  1  0  0  0
  7  8  1  0  0  0
  7  9  1  0  0  0
 11 12  1  0  0  0
 12 13  2  0  0  0
 12 15  1  0  0  0
 15 16  1  0  0  0
 17 18  1  0  0  0
 18 19  1  0  0  0
 18 21  2  0  0  0
 19 20  2  0  0  0
 20 23  1  0  0  0
 21 22  1  0  0  0
 22 23  2  0  0  0
 23 24  1  0  0  0
 24 25  1  0  0  0
 24 29  2  0  0  0
 25 26  2  0  0  0
 26 27  1  0  0  0
 27 28  2  0  0  0
 28 29  1  0  0  0
 38 39  1  0  0  0
 43 45  1  0  0  0
 33 35  1  0  0  0
  2  5  1  0  0  0
 11 14  1  0  0  0
M  END
> <minimizedAffinity>
-9.21466

$$$$
2XYE_CXG_B_1200


 56 58  0  0  0  0  0  0  0  0999 V2000
   15.4489   21.4106    6.6235 N   0  0  0  0  0  0  0  0  0  0  0  0
   15.7688   20.3960    5.5461 N   0  0  0  0  0  0  0  0  0  0  0  0
   15.6403   20.6623    4.2377 C   0  0  0  0  0  0  0  0  0  0  0  0
   15.2495   21.7746    3.8123 O   0  0  0  0  0  0  0  0  0  0  0  0
   16.0844   19.5037    5.8172 H   0  0  0  0  0  0  0  0  0  0  0  0
   16.0007   19.5204    3.2816 C   0  0  0  0  0  0  0  0  0  0  0  0
   14.9473   18.6938    2.4549 C   0  0  0  0  0  0  0  0  0  0  0  0
   14.4077   17.5626    3.3369 C   0  0  0  0  0  0  0  0  0  0  0  0
   15.5524   18.0042    1.2481 C   0  0  0  0  0  0  0  0  0  0  0  0
   13.7379   19.5299    2.0469 C   0  0  0  0  0  0  0  0  0  0  0  0
   16.7460   18.7014    4.2747 N   0  0  0  0  0  0  0  0  0  0  0  0
   17.8950   18.0522    4.0324 C   0  0  0  0  0  0  0  0  0  0  0  0
   18.5284   18.0160    2.9746 O   0  0  0  0  0  0  0  0  0  0  0  0
   16.3667   18.6301    5.1803 H   0  0  0  0  0  0  0  0  0  0  0  0
   18.3027   17.3843    5.2083 O   0  0  0  0  0  0  0  0  0  0  0  0
   18.2486   15.9507    5.2343 C   0  0  0  0  0  0  0  0  0  0  0  0
   14.0703   21.2259    7.0384 C   0  0  0  0  0  0  0  0  0  0  0  0
   13.0212   22.0513    6.2711 C   0  0  0  0  0  0  0  0  0  0  0  0
   13.0142   23.5032    6.4032 C   0  0  0  0  0  0  0  0  0  0  0  0
   12.0354   24.2929    5.6878 C   0  0  0  0  0  0  0  0  0  0  0  0
   12.0477   21.3849    5.4167 C   0  0  0  0  0  0  0  0  0  0  0  0
   11.0546   22.1805    4.6927 C   0  0  0  0  0  0  0  0  0  0  0  0
   11.0553   23.6336    4.8350 C   0  0  0  0  0  0  0  0  0  0  0  0
   10.0525   24.5499    4.1235 C   0  0  0  0  0  0  0  0  0  0  0  0
    9.1868   25.4763    4.8368 C   0  0  0  0  0  0  0  0  0  0  0  0
    8.2428   26.3268    4.1153 C   0  0  0  0  0  0  0  0  0  0  0  0
    8.1570   26.2528    2.6669 C   0  0  0  0  0  0  0  0  0  0  0  0
    9.0094   25.3397    1.9391 C   0  0  0  0  0  0  0  0  0  0  0  0
    9.9550   24.4910    2.6621 C   0  0  0  0  0  0  0  0  0  0  0  0
   16.3424   21.2167    7.7153 C   0  0  0  0  0  0  0  0  0  0  0  0
   17.0865   19.9059    7.5243 C   0  0  0  0  0  0  0  0  0  0  0  0
   18.5806   20.0921    7.1462 C   0  0  0  0  0  0  0  0  0  0  0  0
   20.7846   20.3692    7.8217 O   0  0  0  0  0  0  0  0  0  0  0  0
   19.5987   19.6910    8.2419 C   0  0  0  0  0  0  0  0  0  0  0  0
   21.0732   20.0157    6.9657 H   0  0  0  0  0  0  0  0  0  0  0  0
   19.8663   18.1692    8.4659 C   0  0  0  0  0  0  0  0  0  0  0  0
   20.4280   17.4680    7.6175 O   0  0  0  0  0  0  0  0  0  0  0  0
   19.4045   17.6791    9.6376 N   0  0  0  0  0  0  0  0  0  0  0  0
   18.9794   18.3412   10.2294 H   0  0  0  0  0  0  0  0  0  0  0  0
   19.4436   16.2289   10.1910 C   0  0  0  0  0  0  0  0  0  0  0  0
   18.9265   15.3535    9.0655 C   0  0  0  0  0  0  0  0  0  0  0  0
   17.7831   15.3287    8.6050 O   0  0  0  0  0  0  0  0  0  0  0  0
   19.9604   14.5804    8.6275 N   0  0  0  0  0  0  0  0  0  0  0  0
   19.9133   13.5866    7.5468 C   0  0  0  0  0  0  0  0  0  0  0  0
   20.8259   14.7002    9.0812 H   0  0  0  0  0  0  0  0  0  0  0  0
   18.6717   15.9030   11.6217 C   0  0  0  0  0  0  0  0  0  0  0  0
   17.3436   16.6640   11.7732 C   0  0  0  0  0  0  0  0  0  0  0  0
   18.2964   14.3844   11.7581 C   0  0  0  0  0  0  0  0  0  0  0  0
   19.5240   16.2952   12.8336 C   0  0  0  0  0  0  0  0  0  0  0  0
   19.1660   20.3024    9.6436 C   0  0  0  0  0  0  0  0  0  0  0  0
   20.3241   20.9539   10.4736 C   0  0  0  0  0  0  0  0  0  0  0  0
   20.8833   20.2066   11.6077 C   0  0  0  0  0  0  0  0  0  0  0  0
   21.9626   20.7739   12.3914 C   0  0  0  0  0  0  0  0  0  0  0  0
   22.4958   22.0857   12.0560 C   0  0  0  0  0  0  0  0  0  0  0  0
   21.9454   22.8294   10.9373 C   0  0  0  0  0  0  0  0  0  0  0  0
   20.8657   22.2635   10.1512 C   0  0  0  0  0  0  0  0  0  0  0  0
 32 34  1  0  0  0
 32 31  1  0  0  0
 36 37  2  0  0  0
 36 38  1  0  0  0
 36 34  1  0  0  0
 38 40  1  0  0  0
 40 46  1  0  0  0
 40 41  1  0  0  0
 46 48  1  0  0  0
 46 49  1  0  0  0
 46 47  1  0  0  0
 41 42  2  0  0  0
 41 43  1  0  0  0
 43 44  1  0  0  0
 50 51  1  0  0  0
 50 34  1  0  0  0
 51 52  1  0  0  0
 51 56  2  0  0  0
 52 53  2  0  0  0
 53 54  1  0  0  0
 54 55  2  0  0  0
 55 56  1  0  0  0
 33 34  1  0  0  0
 30  1  1  0  0  0
 30 31  1  0  0  0
  1  2  1  0  0  0
  1 17  1  0  0  0
  2  3  1  0  0  0
  3  4  2  0  0  0
  3  6  1  0  0  0
  6  7  1  0  0  0
  6 11  1  0  0  0
  7 10  1  0  0  0
  7  8  1  0  0  0
  7  9  1  0  0  0
 11 12  1  0  0  0
 12 13  2  0  0  0
 12 15  1  0  0  0
 15 16  1  0  0  0
 17 18  1  0  0  0
 18 19  1  0  0  0
 18 21  2  0  0  0
 19 20  2  0  0  0
 20 23  1  0  0  0
 21 22  1  0  0  0
 22 23  2  0  0  0
 23 24  1  0  0  0
 24 25  1  0  0  0
 24 29  2  0  0  0
 25 26  2  0  0  0
 26 27  1  0  0  0
 27 28  2  0  0  0
 28 29  1  0  0  0
 38 39  1  0  0  0
 43 45  1  0  0  0
 33 35  1  0  0  0
  2  5  1  0  0  0
 11 14  1  0  0  0
M  END
> <minimizedAffinity>
-9.14712

$$$$
2XYE_CXG_B_1200


 56 58  0  0  0  0  0  0  0  0999 V2000
   15.9491   21.2006    7.0503 N   0  0  0  0  0  0  0  0  0  0  0  0
   16.2075   20.2034    5.9407 N   0  0  0  0  0  0  0  0  0  0  0  0
   16.0043   20.4899    4.6461 C   0  0  0  0  0  0  0  0  0  0  0  0
   15.5893   21.6081    4.2611 O   0  0  0  0  0  0  0  0  0  0  0  0
   16.5384   19.3074    6.1792 H   0  0  0  0  0  0  0  0  0  0  0  0
   16.3101   19.3635    3.6531 C   0  0  0  0  0  0  0  0  0  0  0  0
   15.2112   18.5400    2.8845 C   0  0  0  0  0  0  0  0  0  0  0  0
   14.1282   19.5055    2.3911 C   0  0  0  0  0  0  0  0  0  0  0  0
   14.4865   17.5484    3.7730 C   0  0  0  0  0  0  0  0  0  0  0  0
   15.7624   17.8469    1.6420 C   0  0  0  0  0  0  0  0  0  0  0  0
   17.1233   18.5371    4.5849 N   0  0  0  0  0  0  0  0  0  0  0  0
   18.2421   17.8752    4.2529 C   0  0  0  0  0  0  0  0  0  0  0  0
   18.7888   17.8313    3.1481 O   0  0  0  0  0  0  0  0  0  0  0  0
   16.8166   18.4706    5.5181 H   0  0  0  0  0  0  0  0  0  0  0  0
   18.7349   17.2037    5.3936 O   0  0  0  0  0  0  0  0  0  0  0  0
   18.7704   15.7693    5.3807 C   0  0  0  0  0  0  0  0  0  0  0  0
   14.5900   21.0206    7.5271 C   0  0  0  0  0  0  0  0  0  0  0  0
   13.4971   21.7658    6.7390 C   0  0  0  0  0  0  0  0  0  0  0  0
   13.4638   23.2232    6.7622 C   0  0  0  0  0  0  0  0  0  0  0  0
   12.4437   23.9380    6.0260 C   0  0  0  0  0  0  0  0  0  0  0  0
   12.5087   21.0186    5.9732 C   0  0  0  0  0  0  0  0  0  0  0  0
   11.4740   21.7384    5.2285 C   0  0  0  0  0  0  0  0  0  0  0  0
   11.4485   23.1979    5.2615 C   0  0  0  0  0  0  0  0  0  0  0  0
   10.4020   24.0388    4.5205 C   0  0  0  0  0  0  0  0  0  0  0  0
    9.7246   25.1722    5.1313 C   0  0  0  0  0  0  0  0  0  0  0  0
    8.7302   25.9413    4.3867 C   0  0  0  0  0  0  0  0  0  0  0  0
    8.4037   25.5769    3.0188 C   0  0  0  0  0  0  0  0  0  0  0  0
    9.0664   24.4547    2.3929 C   0  0  0  0  0  0  0  0  0  0  0  0
   10.0628   23.6874    3.1385 C   0  0  0  0  0  0  0  0  0  0  0  0
   16.8915   20.9783    8.0946 C   0  0  0  0  0  0  0  0  0  0  0  0
   16.3153   19.9780    9.0822 C   0  0  0  0  0  0  0  0  0  0  0  0
   17.3962   19.1349    9.8107 C   0  0  0  0  0  0  0  0  0  0  0  0
   17.4406   18.2074    7.6827 O   0  0  0  0  0  0  0  0  0  0  0  0
   18.0750   18.0393    8.9525 C   0  0  0  0  0  0  0  0  0  0  0  0
   16.4938   18.0139    7.7662 H   0  0  0  0  0  0  0  0  0  0  0  0
   17.9732   16.5611    9.4446 C   0  0  0  0  0  0  0  0  0  0  0  0
   17.8670   15.6121    8.6602 O   0  0  0  0  0  0  0  0  0  0  0  0
   17.9739   16.4096   10.7876 N   0  0  0  0  0  0  0  0  0  0  0  0
   18.0686   17.2434   11.3024 H   0  0  0  0  0  0  0  0  0  0  0  0
   17.8479   15.1185   11.6407 C   0  0  0  0  0  0  0  0  0  0  0  0
   17.2629   15.5664   12.9664 C   0  0  0  0  0  0  0  0  0  0  0  0
   17.7125   16.4256   13.7279 O   0  0  0  0  0  0  0  0  0  0  0  0
   16.1235   14.8503   13.1847 N   0  0  0  0  0  0  0  0  0  0  0  0
   15.2307   14.9589   14.3461 C   0  0  0  0  0  0  0  0  0  0  0  0
   15.8739   14.1943   12.4944 H   0  0  0  0  0  0  0  0  0  0  0  0
   19.1929   14.1731   11.8554 C   0  0  0  0  0  0  0  0  0  0  0  0
   19.1446   13.3476   13.1523 C   0  0  0  0  0  0  0  0  0  0  0  0
   19.3668   13.1220   10.7019 C   0  0  0  0  0  0  0  0  0  0  0  0
   20.4739   15.0109   11.9354 C   0  0  0  0  0  0  0  0  0  0  0  0
   19.6190   18.3661    8.7657 C   0  0  0  0  0  0  0  0  0  0  0  0
   20.1791   19.4963    9.6949 C   0  0  0  0  0  0  0  0  0  0  0  0
   20.5649   19.1503   11.0693 C   0  0  0  0  0  0  0  0  0  0  0  0
   21.0967   20.1682   11.9536 C   0  0  0  0  0  0  0  0  0  0  0  0
   21.2505   21.5361   11.4818 C   0  0  0  0  0  0  0  0  0  0  0  0
   20.8688   21.8839   10.1250 C   0  0  0  0  0  0  0  0  0  0  0  0
   20.3370   20.8669    9.2379 C   0  0  0  0  0  0  0  0  0  0  0  0
 32 34  1  0  0  0
 32 31  1  0  0  0
 36 37  2  0  0  0
 36 38  1  0  0  0
 36 34  1  0  0  0
 38 40  1  0  0  0
 40 46  1  0  0  0
 40 41  1  0  0  0
 46 48  1  0  0  0
 46 49  1  0  0  0
 46 47  1  0  0  0
 41 42  2  0  0  0
 41 43  1  0  0  0
 43 44  1  0  0  0
 50 51  1  0  0  0
 50 34  1  0  0  0
 51 52  1  0  0  0
 51 56  2  0  0  0
 52 53  2  0  0  0
 53 54  1  0  0  0
 54 55  2  0  0  0
 55 56  1  0  0  0
 33 34  1  0  0  0
 30  1  1  0  0  0
 30 31  1  0  0  0
  1  2  1  0  0  0
  1 17  1  0  0  0
  2  3  1  0  0  0
  3  4  2  0  0  0
  3  6  1  0  0  0
  6  7  1  0  0  0
  6 11  1  0  0  0
  7 10  1  0  0  0
  7  8  1  0  0  0
  7  9  1  0  0  0
 11 12  1  0  0  0
 12 13  2  0  0  0
 12 15  1  0  0  0
 15 16  1  0  0  0
 17 18  1  0  0  0
 18 19  1  0  0  0
 18 21  2  0  0  0
 19 20  2  0  0  0
 20 23  1  0  0  0
 21 22  1  0  0  0
 22 23  2  0  0  0
 23 24  1  0  0  0
 24 25  1  0  0  0
 24 29  2  0  0  0
 25 26  2  0  0  0
 26 27  1  0  0  0
 27 28  2  0  0  0
 28 29  1  0  0  0
 38 39  1  0  0  0
 43 45  1  0  0  0
 33 35  1  0  0  0
  2  5  1  0  0  0
 11 14  1  0  0  0
M  END
> <minimizedAffinity>
-9.12715

$$$$
2XYE_CXG_B_1200


 56 58  0  0  0  0  0  0  0  0999 V2000
   15.8631   21.3253    7.0195 N   0  0  0  0  0  0  0  0  0  0  0  0
   16.1646   20.2866    5.9600 N   0  0  0  0  0  0  0  0  0  0  0  0
   16.0099   20.5221    4.6485 C   0  0  0  0  0  0  0  0  0  0  0  0
   15.6080   21.6233    4.2051 O   0  0  0  0  0  0  0  0  0  0  0  0
   16.4877   19.4015    6.2455 H   0  0  0  0  0  0  0  0  0  0  0  0
   16.3546   19.3589    3.7123 C   0  0  0  0  0  0  0  0  0  0  0  0
   15.2895   18.5300    2.9030 C   0  0  0  0  0  0  0  0  0  0  0  0
   14.6681   17.4843    3.8351 C   0  0  0  0  0  0  0  0  0  0  0  0
   15.8989   17.7369    1.7640 C   0  0  0  0  0  0  0  0  0  0  0  0
   14.1355   19.3929    2.4011 C   0  0  0  0  0  0  0  0  0  0  0  0
   17.0927   18.5493    4.7183 N   0  0  0  0  0  0  0  0  0  0  0  0
   18.2166   17.8573    4.4773 C   0  0  0  0  0  0  0  0  0  0  0  0
   18.8291   17.7677    3.4104 O   0  0  0  0  0  0  0  0  0  0  0  0
   16.7281   18.5187    5.6323 H   0  0  0  0  0  0  0  0  0  0  0  0
   18.6253   17.2148    5.6670 O   0  0  0  0  0  0  0  0  0  0  0  0
   18.5978   15.7810    5.7141 C   0  0  0  0  0  0  0  0  0  0  0  0
   14.4862   21.1624    7.4487 C   0  0  0  0  0  0  0  0  0  0  0  0
   13.4356   21.9586    6.6531 C   0  0  0  0  0  0  0  0  0  0  0  0
   12.4237   21.2430    5.8852 C   0  0  0  0  0  0  0  0  0  0  0  0
   11.4290   21.9769    5.1332 C   0  0  0  0  0  0  0  0  0  0  0  0
   13.4516   23.4150    6.6732 C   0  0  0  0  0  0  0  0  0  0  0  0
   12.4478   24.1610    5.9120 C   0  0  0  0  0  0  0  0  0  0  0  0
   11.4411   23.4337    5.1442 C   0  0  0  0  0  0  0  0  0  0  0  0
   10.3548   24.1255    4.3118 C   0  0  0  0  0  0  0  0  0  0  0  0
    9.1478   24.6859    4.8998 C   0  0  0  0  0  0  0  0  0  0  0  0
    8.1376   25.3319    4.0650 C   0  0  0  0  0  0  0  0  0  0  0  0
    8.3290   25.4192    2.6275 C   0  0  0  0  0  0  0  0  0  0  0  0
    9.5221   24.8697    2.0235 C   0  0  0  0  0  0  0  0  0  0  0  0
   10.5331   24.2255    2.8603 C   0  0  0  0  0  0  0  0  0  0  0  0
   16.7634   21.1440    8.1080 C   0  0  0  0  0  0  0  0  0  0  0  0
   16.2464   20.0306    9.0030 C   0  0  0  0  0  0  0  0  0  0  0  0
   17.3519   19.3701    9.8700 C   0  0  0  0  0  0  0  0  0  0  0  0
   17.4866   18.0423    7.9701 O   0  0  0  0  0  0  0  0  0  0  0  0
   18.2591   18.3558    9.1311 C   0  0  0  0  0  0  0  0  0  0  0  0
   16.6629   17.6057    8.2380 H   0  0  0  0  0  0  0  0  0  0  0  0
   18.6800   17.0620    9.8970 C   0  0  0  0  0  0  0  0  0  0  0  0
   19.5041   16.2640    9.4376 O   0  0  0  0  0  0  0  0  0  0  0  0
   18.0475   16.8703   11.0759 N   0  0  0  0  0  0  0  0  0  0  0  0
   17.4166   17.5812   11.3324 H   0  0  0  0  0  0  0  0  0  0  0  0
   18.1662   15.6976   12.0865 C   0  0  0  0  0  0  0  0  0  0  0  0
   16.7393   15.3106   12.4248 C   0  0  0  0  0  0  0  0  0  0  0  0
   16.3517   14.6760   13.4084 O   0  0  0  0  0  0  0  0  0  0  0  0
   15.9293   15.7963   11.4417 N   0  0  0  0  0  0  0  0  0  0  0  0
   14.4690   15.6585   11.3632 C   0  0  0  0  0  0  0  0  0  0  0  0
   16.3673   16.2892   10.7106 H   0  0  0  0  0  0  0  0  0  0  0  0
   19.0799   15.9151   13.4529 C   0  0  0  0  0  0  0  0  0  0  0  0
   20.4218   16.6123   13.1719 C   0  0  0  0  0  0  0  0  0  0  0  0
   18.3554   16.8225   14.5100 C   0  0  0  0  0  0  0  0  0  0  0  0
   19.4287   14.5829   14.1257 C   0  0  0  0  0  0  0  0  0  0  0  0
   19.5939   19.0671    8.6430 C   0  0  0  0  0  0  0  0  0  0  0  0
   20.2834   19.9918    9.7031 C   0  0  0  0  0  0  0  0  0  0  0  0
   20.5340   21.3965    9.3545 C   0  0  0  0  0  0  0  0  0  0  0  0
   21.1604   22.2836   10.3144 C   0  0  0  0  0  0  0  0  0  0  0  0
   21.5423   21.7849   11.6270 C   0  0  0  0  0  0  0  0  0  0  0  0
   21.2988   20.3969   11.9760 C   0  0  0  0  0  0  0  0  0  0  0  0
   20.6715   19.5074   11.0173 C   0  0  0  0  0  0  0  0  0  0  0  0
 32 34  1  0  0  0
 32 31  1  0  0  0
 36 37  2  0  0  0
 36 38  1  0  0  0
 36 34  1  0  0  0
 38 40  1  0  0  0
 40 46  1  0  0  0
 40 41  1  0  0  0
 46 48  1  0  0  0
 46 49  1  0  0  0
 46 47  1  0  0  0
 41 42  2  0  0  0
 41 43  1  0  0  0
 43 44  1  0  0  0
 50 51  1  0  0  0
 50 34  1  0  0  0
 51 52  1  0  0  0
 51 56  2  0  0  0
 52 53  2  0  0  0
 53 54  1  0  0  0
 54 55  2  0  0  0
 55 56  1  0  0  0
 33 34  1  0  0  0
 30  1  1  0  0  0
 30 31  1  0  0  0
  1  2  1  0  0  0
  1 17  1  0  0  0
  2  3  1  0  0  0
  3  4  2  0  0  0
  3  6  1  0  0  0
  6  7  1  0  0  0
  6 11  1  0  0  0
  7 10  1  0  0  0
  7  8  1  0  0  0
  7  9  1  0  0  0
 11 12  1  0  0  0
 12 13  2  0  0  0
 12 15  1  0  0  0
 15 16  1  0  0  0
 17 18  1  0  0  0
 18 19  1  0  0  0
 18 21  2  0  0  0
 19 20  2  0  0  0
 20 23  1  0  0  0
 21 22  1  0  0  0
 22 23  2  0  0  0
 23 24  1  0  0  0
 24 25  1  0  0  0
 24 29  2  0  0  0
 25 26  2  0  0  0
 26 27  1  0  0  0
 27 28  2  0  0  0
 28 29  1  0  0  0
 38 39  1  0  0  0
 43 45  1  0  0  0
 33 35  1  0  0  0
  2  5  1  0  0  0
 11 14  1  0  0  0
M  END
> <minimizedAffinity>
-9.08568

$$$$
2XYE_CXG_B_1200


 56 58  0  0  0  0  0  0  0  0999 V2000
   16.3790   20.7292    6.7261 N   0  0  0  0  0  0  0  0  0  0  0  0
   16.4447   19.5446    5.7854 N   0  0  0  0  0  0  0  0  0  0  0  0
   17.5037   19.3007    4.9990 C   0  0  0  0  0  0  0  0  0  0  0  0
   18.5191   20.0354    4.9900 O   0  0  0  0  0  0  0  0  0  0  0  0
   15.6784   18.9276    5.7495 H   0  0  0  0  0  0  0  0  0  0  0  0
   17.4031   18.0620    4.1025 C   0  0  0  0  0  0  0  0  0  0  0  0
   16.2121   17.7813    3.1130 C   0  0  0  0  0  0  0  0  0  0  0  0
   15.7440   19.1129    2.5161 C   0  0  0  0  0  0  0  0  0  0  0  0
   14.9929   17.2038    3.8043 C   0  0  0  0  0  0  0  0  0  0  0  0
   16.6262   16.9073    1.9327 C   0  0  0  0  0  0  0  0  0  0  0  0
   17.5130   17.0576    5.1942 N   0  0  0  0  0  0  0  0  0  0  0  0
   18.2729   15.9527    5.1523 C   0  0  0  0  0  0  0  0  0  0  0  0
   19.0007   15.5764    4.2301 O   0  0  0  0  0  0  0  0  0  0  0  0
   16.9870   17.2160    6.0112 H   0  0  0  0  0  0  0  0  0  0  0  0
   18.1218   15.2442    6.3648 O   0  0  0  0  0  0  0  0  0  0  0  0
   19.2633   15.1064    7.2232 C   0  0  0  0  0  0  0  0  0  0  0  0
   15.0677   20.7543    7.3478 C   0  0  0  0  0  0  0  0  0  0  0  0
   13.9618   21.4749    6.5551 C   0  0  0  0  0  0  0  0  0  0  0  0
   13.7631   22.9072    6.7413 C   0  0  0  0  0  0  0  0  0  0  0  0
   12.7288   23.5990    6.0030 C   0  0  0  0  0  0  0  0  0  0  0  0
   13.1255   20.7304    5.6234 C   0  0  0  0  0  0  0  0  0  0  0  0
   12.0767   21.4266    4.8760 C   0  0  0  0  0  0  0  0  0  0  0  0
   11.8849   22.8606    5.0728 C   0  0  0  0  0  0  0  0  0  0  0  0
   10.8105   23.6747    4.3418 C   0  0  0  0  0  0  0  0  0  0  0  0
   10.6992   23.7111    2.8917 C   0  0  0  0  0  0  0  0  0  0  0  0
    9.6611   24.5059    2.2394 C   0  0  0  0  0  0  0  0  0  0  0  0
    8.7241   25.2760    3.0391 C   0  0  0  0  0  0  0  0  0  0  0  0
    8.8169   25.2524    4.4817 C   0  0  0  0  0  0  0  0  0  0  0  0
    9.8547   24.4550    5.1331 C   0  0  0  0  0  0  0  0  0  0  0  0
   17.4064   20.5957    7.7033 C   0  0  0  0  0  0  0  0  0  0  0  0
   17.0657   19.4418    8.6309 C   0  0  0  0  0  0  0  0  0  0  0  0
   18.1208   18.3031    8.6151 C   0  0  0  0  0  0  0  0  0  0  0  0
   20.3288   19.0207    8.6038 O   0  0  0  0  0  0  0  0  0  0  0  0
   19.3539   18.5265    9.5247 C   0  0  0  0  0  0  0  0  0  0  0  0
   20.5299   18.3356    7.9472 H   0  0  0  0  0  0  0  0  0  0  0  0
   19.9005   17.3021   10.3246 C   0  0  0  0  0  0  0  0  0  0  0  0
   21.0736   16.9253   10.2307 O   0  0  0  0  0  0  0  0  0  0  0  0
   18.9842   16.6722   11.0928 N   0  0  0  0  0  0  0  0  0  0  0  0
   18.0851   17.0733   11.0848 H   0  0  0  0  0  0  0  0  0  0  0  0
   19.1360   15.4113   11.9860 C   0  0  0  0  0  0  0  0  0  0  0  0
   19.3216   14.2546   11.0227 C   0  0  0  0  0  0  0  0  0  0  0  0
   18.4714   13.7583   10.2803 O   0  0  0  0  0  0  0  0  0  0  0  0
   20.6187   13.8435   11.1069 N   0  0  0  0  0  0  0  0  0  0  0  0
   21.2414   12.7508   10.3480 C   0  0  0  0  0  0  0  0  0  0  0  0
   21.1963   14.3277   11.7402 H   0  0  0  0  0  0  0  0  0  0  0  0
   17.9610   15.0871   13.1099 C   0  0  0  0  0  0  0  0  0  0  0  0
   16.5378   15.3074   12.5698 C   0  0  0  0  0  0  0  0  0  0  0  0
   17.9959   13.5915   13.5867 C   0  0  0  0  0  0  0  0  0  0  0  0
   18.0879   15.9855   14.3452 C   0  0  0  0  0  0  0  0  0  0  0  0
   19.0580   19.6800   10.5771 C   0  0  0  0  0  0  0  0  0  0  0  0
   20.2774   20.6038   10.9151 C   0  0  0  0  0  0  0  0  0  0  0  0
   20.4789   21.8220   10.1195 C   0  0  0  0  0  0  0  0  0  0  0  0
   21.5903   22.7056   10.4109 C   0  0  0  0  0  0  0  0  0  0  0  0
   22.5095   22.3883   11.4934 C   0  0  0  0  0  0  0  0  0  0  0  0
   22.3162   21.1846   12.2816 C   0  0  0  0  0  0  0  0  0  0  0  0
   21.2043   20.2991   11.9923 C   0  0  0  0  0  0  0  0  0  0  0  0
 32 34  1  0  0  0
 32 31  1  0  0  0
 36 37  2  0  0  0
 36 38  1  0  0  0
 36 34  1  0  0  0
 38 40  1  0  0  0
 40 46  1  0  0  0
 40 41  1  0  0  0
 46 48  1  0  0  0
 46 49  1  0  0  0
 46 47  1  0  0  0
 41 42  2  0  0  0
 41 43  1  0  0  0
 43 44  1  0  0  0
 50 51  1  0  0  0
 50 34  1  0  0  0
 51 52  1  0  0  0
 51 56  2  0  0  0
 52 53  2  0  0  0
 53 54  1  0  0  0
 54 55  2  0  0  0
 55 56  1  0  0  0
 33 34  1  0  0  0
 30  1  1  0  0  0
 30 31  1  0  0  0
  1  2  1  0  0  0
  1 17  1  0  0  0
  2  3  1  0  0  0
  3  4  2  0  0  0
  3  6  1  0  0  0
  6  7  1  0  0  0
  6 11  1  0  0  0
  7 10  1  0  0  0
  7  8  1  0  0  0
  7  9  1  0  0  0
 11 12  1  0  0  0
 12 13  2  0  0  0
 12 15  1  0  0  0
 15 16  1  0  0  0
 17 18  1  0  0  0
 18 19  1  0  0  0
 18 21  2  0  0  0
 19 20  2  0  0  0
 20 23  1  0  0  0
 21 22  1  0  0  0
 22 23  2  0  0  0
 23 24  1  0  0  0
 24 25  1  0  0  0
 24 29  2  0  0  0
 25 26  2  0  0  0
 26 27  1  0  0  0
 27 28  2  0  0  0
 28 29  1  0  0  0
 38 39  1  0  0  0
 43 45  1  0  0  0
 33 35  1  0  0  0
  2  5  1  0  0  0
 11 14  1  0  0  0
M  END
> <minimizedAffinity>
-8.93579

$$$$
