4L2L_1V6_A_702


 21 23  0  0  0  0  0  0  0  0999 V2000
   13.9939  -13.6142   16.9031 C   0  0  0  0  0  0  0  0  0  0  0  0
   13.0919  -13.5859   15.8480 C   0  0  0  0  0  0  0  0  0  0  0  0
   11.8812  -14.2733   15.8223 C   0  0  0  0  0  0  0  0  0  0  0  0
   13.6496  -14.4619   17.9359 C   0  0  0  0  0  0  0  0  0  0  0  0
   12.4360  -15.1741   17.8947 C   0  0  0  0  0  0  0  0  0  0  0  0
   11.4812  -15.0673   16.8785 C   0  0  0  0  0  0  0  0  0  0  0  0
   10.3036  -15.8109   16.7996 C   0  0  0  0  0  0  0  0  0  0  0  0
    9.3240  -15.8165   17.6994 N   0  0  0  0  0  0  0  0  0  0  0  0
    8.2298  -16.6011   17.4224 C   0  0  0  0  0  0  0  0  0  0  0  0
    7.1437  -16.8361   18.1545 N   0  0  0  0  0  0  0  0  0  0  0  0
    8.4111  -17.4974   16.0213 S   0  0  0  0  0  0  0  0  0  0  0  0
   10.0448  -16.6534   15.8016 C   0  0  0  0  0  0  0  0  0  0  0  0
    6.9934  -16.3334   18.9875 H   0  0  0  0  0  0  0  0  0  0  0  0
    6.4906  -17.5126   17.8631 H   0  0  0  0  0  0  0  0  0  0  0  0
   15.2545  -12.8836   16.8460 C   0  0  0  0  0  0  0  0  0  0  0  0
   14.5898  -10.5468   16.2884 C   0  0  0  0  0  0  0  0  0  0  0  0
   14.6645   -9.4728   15.4286 C   0  0  0  0  0  0  0  0  0  0  0  0
   15.4798   -9.4680   14.3264 C   0  0  0  0  0  0  0  0  0  0  0  0
   16.1842  -10.6489   14.0374 C   0  0  0  0  0  0  0  0  0  0  0  0
   16.0404  -11.7586   14.8409 C   0  0  0  0  0  0  0  0  0  0  0  0
   15.3551  -11.6894   16.0393 C   0  0  0  0  0  0  0  0  0  0  0  0
 17 18  2  0  0  0
 17 16  1  0  0  0
 18 19  1  0  0  0
 16 21  2  0  0  0
 19 20  2  0  0  0
  4  5  2  0  0  0
  4  1  1  0  0  0
  5  6  1  0  0  0
 21 20  1  0  0  0
 21 15  1  0  0  0
 10  9  1  0  0  0
  8  9  2  0  0  0
  8  7  1  0  0  0
 15  1  1  0  0  0
  9 11  1  0  0  0
  1  2  2  0  0  0
  6  7  1  0  0  0
  6  3  2  0  0  0
  7 12  2  0  0  0
  2  3  1  0  0  0
 11 12  1  0  0  0
 10 13  1  0  0  0
 10 14  1  0  0  0
M  END
> <minimizedAffinity>
-11.51900

$$$$
4L2L_1V6_A_702


 21 23  0  0  0  0  0  0  0  0999 V2000
   14.0173  -13.6468   16.7173 C   0  0  0  0  0  0  0  0  0  0  0  0
   13.6393  -14.3487   17.8539 C   0  0  0  0  0  0  0  0  0  0  0  0
   12.4437  -15.0492   17.9912 C   0  0  0  0  0  0  0  0  0  0  0  0
   13.0675  -13.6107   15.7171 C   0  0  0  0  0  0  0  0  0  0  0  0
   11.8496  -14.3000   15.8699 C   0  0  0  0  0  0  0  0  0  0  0  0
   11.5118  -15.0899   16.9735 C   0  0  0  0  0  0  0  0  0  0  0  0
   10.2862  -15.7293   17.1602 C   0  0  0  0  0  0  0  0  0  0  0  0
    9.6380  -16.4521   16.2509 N   0  0  0  0  0  0  0  0  0  0  0  0
    8.4508  -17.0239   16.6423 C   0  0  0  0  0  0  0  0  0  0  0  0
    7.5795  -17.7424   15.9385 N   0  0  0  0  0  0  0  0  0  0  0  0
    8.0004  -16.5886   18.1937 S   0  0  0  0  0  0  0  0  0  0  0  0
    9.5920  -15.6473   18.2935 C   0  0  0  0  0  0  0  0  0  0  0  0
    7.7998  -18.0223   15.0207 H   0  0  0  0  0  0  0  0  0  0  0  0
    6.7145  -17.9941   16.3357 H   0  0  0  0  0  0  0  0  0  0  0  0
   15.2786  -12.9176   16.6579 C   0  0  0  0  0  0  0  0  0  0  0  0
   14.5490  -10.5739   16.2247 C   0  0  0  0  0  0  0  0  0  0  0  0
   14.6041   -9.4494   15.4304 C   0  0  0  0  0  0  0  0  0  0  0  0
   15.4378   -9.3545   14.3462 C   0  0  0  0  0  0  0  0  0  0  0  0
   16.1846  -10.4939   14.0025 C   0  0  0  0  0  0  0  0  0  0  0  0
   16.0626  -11.6528   14.7372 C   0  0  0  0  0  0  0  0  0  0  0  0
   15.3548  -11.6755   15.9242 C   0  0  0  0  0  0  0  0  0  0  0  0
 17 18  2  0  0  0
 17 16  1  0  0  0
 18 19  1  0  0  0
 16 21  2  0  0  0
 19 20  2  0  0  0
  4  5  2  0  0  0
  4  1  1  0  0  0
  5  6  1  0  0  0
 21 20  1  0  0  0
 21 15  1  0  0  0
 10  9  1  0  0  0
  8  9  2  0  0  0
  8  7  1  0  0  0
 15  1  1  0  0  0
  9 11  1  0  0  0
  1  2  2  0  0  0
  6  7  1  0  0  0
  6  3  2  0  0  0
  7 12  2  0  0  0
  2  3  1  0  0  0
 11 12  1  0  0  0
 10 13  1  0  0  0
 10 14  1  0  0  0
M  END
> <minimizedAffinity>
-11.37755

$$$$
4L2L_1V6_A_702


 21 23  0  0  0  0  0  0  0  0999 V2000
   12.7850  -15.0390   17.4974 C   0  0  0  0  0  0  0  0  0  0  0  0
   12.5075  -14.5833   16.2157 C   0  0  0  0  0  0  0  0  0  0  0  0
   13.1532  -13.5157   15.5975 C   0  0  0  0  0  0  0  0  0  0  0  0
   13.7190  -14.2933   18.1870 C   0  0  0  0  0  0  0  0  0  0  0  0
   14.3518  -13.1993   17.5666 C   0  0  0  0  0  0  0  0  0  0  0  0
   14.1450  -12.8033   16.2415 C   0  0  0  0  0  0  0  0  0  0  0  0
   14.7230  -11.6874   15.6358 C   0  0  0  0  0  0  0  0  0  0  0  0
   15.7619  -11.7024   14.8053 N   0  0  0  0  0  0  0  0  0  0  0  0
   16.1654  -10.4924   14.2927 C   0  0  0  0  0  0  0  0  0  0  0  0
   17.1902  -10.2059   13.4935 N   0  0  0  0  0  0  0  0  0  0  0  0
   15.3093   -9.2012   14.9243 S   0  0  0  0  0  0  0  0  0  0  0  0
   14.3079  -10.4432   15.8645 C   0  0  0  0  0  0  0  0  0  0  0  0
   17.7240  -10.9324   13.0979 H   0  0  0  0  0  0  0  0  0  0  0  0
   17.4145   -9.2675   13.2980 H   0  0  0  0  0  0  0  0  0  0  0  0
   12.0483  -16.1515   18.0854 C   0  0  0  0  0  0  0  0  0  0  0  0
   10.7967  -17.2965   16.2589 C   0  0  0  0  0  0  0  0  0  0  0  0
    9.5891  -17.6195   15.6796 C   0  0  0  0  0  0  0  0  0  0  0  0
    8.3873  -17.2969   16.2549 C   0  0  0  0  0  0  0  0  0  0  0  0
    8.4184  -16.5294   17.4315 C   0  0  0  0  0  0  0  0  0  0  0  0
    9.6217  -16.1225   17.9645 C   0  0  0  0  0  0  0  0  0  0  0  0
   10.8206  -16.6025   17.4718 C   0  0  0  0  0  0  0  0  0  0  0  0
 17 18  2  0  0  0
 17 16  1  0  0  0
 18 19  1  0  0  0
 16 21  2  0  0  0
 19 20  2  0  0  0
  4  5  2  0  0  0
  4  1  1  0  0  0
  5  6  1  0  0  0
 21 20  1  0  0  0
 21 15  1  0  0  0
 10  9  1  0  0  0
  8  9  2  0  0  0
  8  7  1  0  0  0
 15  1  1  0  0  0
  9 11  1  0  0  0
  1  2  2  0  0  0
  6  7  1  0  0  0
  6  3  2  0  0  0
  7 12  2  0  0  0
  2  3  1  0  0  0
 11 12  1  0  0  0
 10 13  1  0  0  0
 10 14  1  0  0  0
M  END
> <minimizedAffinity>
-11.29811

$$$$
4L2L_1V6_A_702


 21 23  0  0  0  0  0  0  0  0999 V2000
   12.7091  -15.0101   17.5287 C   0  0  0  0  0  0  0  0  0  0  0  0
   12.4074  -14.5453   16.2558 C   0  0  0  0  0  0  0  0  0  0  0  0
   13.0759  -13.5068   15.6127 C   0  0  0  0  0  0  0  0  0  0  0  0
   13.6965  -14.3031   18.1838 C   0  0  0  0  0  0  0  0  0  0  0  0
   14.3530  -13.2377   17.5390 C   0  0  0  0  0  0  0  0  0  0  0  0
   14.1180  -12.8355   16.2204 C   0  0  0  0  0  0  0  0  0  0  0  0
   14.7213  -11.7459   15.5920 C   0  0  0  0  0  0  0  0  0  0  0  0
   14.2476  -10.5033   15.5624 N   0  0  0  0  0  0  0  0  0  0  0  0
   15.0090   -9.5632   14.9097 C   0  0  0  0  0  0  0  0  0  0  0  0
   14.7606   -8.2759   14.6818 N   0  0  0  0  0  0  0  0  0  0  0  0
   16.3598  -10.2193   14.1722 S   0  0  0  0  0  0  0  0  0  0  0  0
   15.8525  -11.8461   14.8970 C   0  0  0  0  0  0  0  0  0  0  0  0
   13.9771   -7.8452   15.0940 H   0  0  0  0  0  0  0  0  0  0  0  0
   15.3603   -7.7541   14.1010 H   0  0  0  0  0  0  0  0  0  0  0  0
   11.9469  -16.0897   18.1449 C   0  0  0  0  0  0  0  0  0  0  0  0
   10.7794  -17.2838   16.2944 C   0  0  0  0  0  0  0  0  0  0  0  0
    9.5980  -17.6455   15.6847 C   0  0  0  0  0  0  0  0  0  0  0  0
    8.3720  -17.3528   16.2239 C   0  0  0  0  0  0  0  0  0  0  0  0
    8.3487  -16.5757   17.3943 C   0  0  0  0  0  0  0  0  0  0  0  0
    9.5248  -16.1306   17.9568 C   0  0  0  0  0  0  0  0  0  0  0  0
   10.7500  -16.5801   17.5016 C   0  0  0  0  0  0  0  0  0  0  0  0
 17 18  2  0  0  0
 17 16  1  0  0  0
 18 19  1  0  0  0
 16 21  2  0  0  0
 19 20  2  0  0  0
  4  5  2  0  0  0
  4  1  1  0  0  0
  5  6  1  0  0  0
 21 20  1  0  0  0
 21 15  1  0  0  0
 10  9  1  0  0  0
  8  9  2  0  0  0
  8  7  1  0  0  0
 15  1  1  0  0  0
  9 11  1  0  0  0
  1  2  2  0  0  0
  6  7  1  0  0  0
  6  3  2  0  0  0
  7 12  2  0  0  0
  2  3  1  0  0  0
 11 12  1  0  0  0
 10 13  1  0  0  0
 10 14  1  0  0  0
M  END
> <minimizedAffinity>
-10.98416

$$$$
