5ZO8_4C5_A_602
  RCSB PDB10131806183D
Coordinates from PDB:5ZO8:A:602 Model:1 without hydrogens
 28 30  0  0  0  0            999 V2000
   38.2240   -6.6540   25.6890   O 0  0  0  0  0  0  0  0  0  0  0  0
   39.0650   -6.9880   24.8790   C 0  0  0  0  0  0  0  0  0  0  0  0
   40.3240   -6.7880   25.2640   O 0  0  0  0  0  0  0  0  0  0  0  0
   38.6970   -7.5660   23.5000   C 0  0  0  0  0  0  0  0  0  0  0  0
   37.2570   -7.3870   23.2660   N 0  0  0  0  0  0  0  0  0  0  0  0
   39.4430   -6.8730   22.3710   C 0  0  0  0  0  0  0  0  0  0  0  0
   39.4490   -7.7200   20.7900   S 0  0  0  0  0  0  0  0  0  0  0  0
   40.5380   -6.8050   19.6610   C 0  0  0  0  0  0  0  0  0  0  0  0
   40.5170   -7.4030   18.2960   C 0  0  0  0  0  0  0  0  0  0  0  0
   40.7850   -6.6130   17.1820   C 0  0  0  0  0  0  0  0  0  0  0  0
   40.7190   -7.1990   15.9390   C 0  0  0  0  0  0  0  0  0  0  0  0
   40.4440   -8.5560   15.7570   C 0  0  0  0  0  0  0  0  0  0  0  0
   40.1620   -9.3470   16.8410   C 0  0  0  0  0  0  0  0  0  0  0  0
   40.1890   -8.7650   18.1070   C 0  0  0  0  0  0  0  0  0  0  0  0
   42.0010   -6.8290   20.0900   C 0  0  0  0  0  0  0  0  0  0  0  0
   42.4960   -7.7470   21.0170   C 0  0  0  0  0  0  0  0  0  0  0  0
   43.8410   -7.7610   21.3580   C 0  0  0  0  0  0  0  0  0  0  0  0
   44.7240   -6.8620   20.7990   C 0  0  0  0  0  0  0  0  0  0  0  0
   44.2540   -5.9310   19.9020   C 0  0  0  0  0  0  0  0  0  0  0  0
   42.9140   -5.9310   19.5360   C 0  0  0  0  0  0  0  0  0  0  0  0
   39.8860   -5.4600   19.7900   C 0  0  0  0  0  0  0  0  0  0  0  0
   40.3860   -4.4390   20.6270   C 0  0  0  0  0  0  0  0  0  0  0  0
   39.7030   -3.2370   20.7670   C 0  0  0  0  0  0  0  0  0  0  0  0
   38.4700   -3.0670   20.1210   C 0  0  0  0  0  0  0  0  0  0  0  0
   37.7460   -1.9410   20.2030   O 0  0  0  0  0  0  0  0  0  0  0  0
   37.8360   -1.0140   21.2590   C 0  0  0  0  0  0  0  0  0  0  0  0
   37.9700   -4.0490   19.2970   C 0  0  0  0  0  0  0  0  0  0  0  0
   38.6780   -5.2450   19.1520   C 0  0  0  0  0  0  0  0  0  0  0  0
 12 11  2  0  0  0  0
 12 13  1  0  0  0  0
 11 10  1  0  0  0  0
 13 14  2  0  0  0  0
 10  9  2  0  0  0  0
 14  9  1  0  0  0  0
  9  8  1  0  0  0  0
 28 27  2  0  0  0  0
 28 21  1  0  0  0  0
 27 24  1  0  0  0  0
 20 19  2  0  0  0  0
 20 15  1  0  0  0  0
  8 21  1  0  0  0  0
  8 15  1  0  0  0  0
  8  7  1  0  0  0  0
 21 22  2  0  0  0  0
 19 18  1  0  0  0  0
 15 16  2  0  0  0  0
 24 25  1  0  0  0  0
 24 23  2  0  0  0  0
 25 26  1  0  0  0  0
 22 23  1  0  0  0  0
 18 17  2  0  0  0  0
  7  6  1  0  0  0  0
 16 17  1  0  0  0  0
  6  4  1  0  0  0  0
  5  4  1  0  0  0  0
  4  2  1  0  0  0  0
  2  3  2  0  0  0  0
  2  1  1  0  0  0  0
A    1
O1
A    2
C1
A    3
O2
A    4
C2
A    5
N
A    6
C3
A    7
S
A    8
C4
A    9
C12
A   10
C17
A   11
C16
A   12
C15
A   13
C14
A   14
C13
A   15
C18
A   16
C23
A   17
C22
A   18
C21
A   19
C20
A   20
C19
A   21
C5
A   22
C11
A   23
C10
A   24
C8
A   25
O3
A   26
C9
A   27
C7
A   28
C6
M  END
>  <InstanceId>
5ZO8_4C5_A_602

>  <ChemCompId>
4C5

>  <PdbId>
5ZO8

>  <ChainId>
A

>  <ResidueNumber>
602

>  <InsertionCode>


>  <Model>
1

>  <AltIds>


>  <MissingHeavyAtoms>
0

>  <ObservedFormula>
C23 N O3 S

>  <Name>
(2R)-2-azanyl-3-[(4-methoxyphenyl)-diphenyl-methyl]sulfanyl-propanoic acid

>  <SystematicName>
(2~{R})-2-azanyl-3-[(4-methoxyphenyl)-diphenyl-methyl]sulfanyl-propanoic acid

>  <Synonyms>


>  <Type>
NON-POLYMER

>  <Formula>
C23 H23 N O3 S

>  <MolecularWeight>
393.499

>  <ModifiedDate>
2018-10-05

>  <Parent>


>  <OneLetterCode>


>  <SubcomponentList>


>  <AmbiguousFlag>
N

>  <InChI>
InChI=1S/C23H23NO3S/c1-27-20-14-12-19(13-15-20)23(17-8-4-2-5-9-17,18-10-6-3-7-11-18)28-16-21(24)22(25)26/h2-15,21H,16,24H2,1H3,(H,25,26)/t21-/m0/s1

>  <InChIKey>
QAINHNNAIDVCEZ-NRFANRHFSA-N

>  <SMILES>
COc1ccc(cc1)C(c2ccccc2)(c3ccccc3)SC[C@@H](C(=O)O)N

$$$$
