6EX1_N19_A_302
  RCSB PDB10131806223D
Coordinates from PDB:6EX1:A:302 Model:1 without hydrogens
 25 27  0  0  0  0            999 V2000
   12.8190   34.3820   18.0860   C 0  0  0  0  0  0  0  0  0  0  0  0
   13.2480   35.0530   19.2180   C 0  0  0  0  0  0  0  0  0  0  0  0
   14.2700   35.9860   19.1120   C 0  0  0  0  0  0  0  0  0  0  0  0
   14.8410   36.2740   17.8840   C 0  0  0  0  0  0  0  0  0  0  0  0
   14.4120   35.5890   16.7580   C 0  0  0  0  0  0  0  0  0  0  0  0
   13.4080   34.6230   16.8490   C 0  0  0  0  0  0  0  0  0  0  0  0
   13.0520   33.7570   15.6830   C 0  0  0  0  0  0  0  0  0  0  0  0
   12.9140   32.5600   15.8600   O 0  0  0  0  0  0  0  0  0  0  0  0
   13.0060   34.3040   14.4530   N 0  0  0  0  0  0  0  0  0  0  0  0
   12.9180   33.4060   13.2960   C 0  0  0  0  0  0  0  0  0  0  0  0
   12.2810   34.0720   12.0980   C 0  0  0  0  0  0  0  0  0  0  0  0
   12.6200   35.4710   11.8150   N 0  0  0  0  0  0  0  0  0  0  0  0
   13.4840   36.0900   12.8220   C 0  0  0  0  0  0  0  0  0  0  0  0
   12.9780   35.7570   14.2160   C 0  0  0  0  0  0  0  0  0  0  0  0
   14.9090   36.7320   20.5820   S 0  0  0  0  0  0  0  0  0  0  0  0
   15.1450   35.6750   21.5160   O 0  0  0  0  0  0  0  0  0  0  0  0
   14.0080   37.7830   20.9560   O 0  0  0  0  0  0  0  0  0  0  0  0
   16.3200   37.4130   20.2590   N 0  0  0  0  0  0  0  0  0  0  0  0
   10.7620   33.8430   12.1240   C 0  0  0  0  0  0  0  0  0  0  0  0
   10.0230   34.3810   13.3270   C 0  0  0  0  0  0  0  0  0  0  0  0
    9.4640   35.6540   13.3050   C 0  0  0  0  0  0  0  0  0  0  0  0
    8.7610   36.1370   14.3990   C 0  0  0  0  0  0  0  0  0  0  0  0
    8.6120   35.3570   15.5280   C 0  0  0  0  0  0  0  0  0  0  0  0
    9.1600   34.0910   15.5620   C 0  0  0  0  0  0  0  0  0  0  0  0
    9.8590   33.6040   14.4680   C 0  0  0  0  0  0  0  0  0  0  0  0
 12 11  1  0  0  0  0
 12 13  1  0  0  0  0
 19 11  1  0  0  0  0
 19 20  1  0  0  0  0
 11 10  1  0  0  0  0
 13 14  1  0  0  0  0
 20 21  2  0  0  0  0
 20 25  1  0  0  0  0
 21 22  1  0  0  0  0
 10  9  1  0  0  0  0
 14  9  1  0  0  0  0
 25 24  2  0  0  0  0
 22 23  2  0  0  0  0
  9  7  1  0  0  0  0
 24 23  1  0  0  0  0
  7  8  2  0  0  0  0
  7  6  1  0  0  0  0
  5  6  2  0  0  0  0
  5  4  1  0  0  0  0
  6  1  1  0  0  0  0
  4  3  2  0  0  0  0
  1  2  2  0  0  0  0
  3  2  1  0  0  0  0
  3 15  1  0  0  0  0
 18 15  1  0  0  0  0
 15 17  2  0  0  0  0
 15 16  2  0  0  0  0
A    1
C3
A    2
C4
A    3
C5
A    4
C6
A    5
C7
A    6
C8
A    7
C9
A    8
O11
A    9
N18
A   10
C19
A   11
C20
A   12
N21
A   13
C22
A   14
C23
A   15
S24
A   16
O25
A   17
O27
A   18
N28
A   19
C41
A   20
C43
A   21
C44
A   22
C45
A   23
C46
A   24
C47
A   25
C48
M  END
>  <InstanceId>
6EX1_N19_A_302

>  <ChemCompId>
N19

>  <PdbId>
6EX1

>  <ChainId>
A

>  <ResidueNumber>
302

>  <InsertionCode>


>  <Model>
1

>  <AltIds>


>  <MissingHeavyAtoms>
0

>  <ObservedFormula>
C18 N3 O3 S

>  <Name>
4-[(3~{R})-3-(phenylmethyl)piperazin-1-yl]carbonylbenzenesulfonamide

>  <SystematicName>
4-[(3~{R})-3-(phenylmethyl)piperazin-1-yl]carbonylbenzenesulfonamide

>  <Synonyms>


>  <Type>
NON-POLYMER

>  <Formula>
C18 H21 N3 O3 S

>  <MolecularWeight>
359.443

>  <ModifiedDate>
2018-10-05

>  <Parent>


>  <OneLetterCode>


>  <SubcomponentList>


>  <AmbiguousFlag>
N

>  <InChI>
InChI=1S/C18H21N3O3S/c19-25(23,24)17-8-6-15(7-9-17)18(22)21-11-10-20-16(13-21)12-14-4-2-1-3-5-14/h1-9,16,20H,10-13H2,(H2,19,23,24)/t16-/m1/s1

>  <InChIKey>
PUFUKRGYJIGJDK-MRXNPFEDSA-N

>  <SMILES>
c1ccc(cc1)C[C@@H]2CN(CCN2)C(=O)c3ccc(cc3)S(=O)(=O)N

$$$$
