6EX1_N19_A_302


 28 30  0  0  0  0  0  0  0  0999 V2000
   12.8035   33.9675   15.7273 C   0  0  0  0  0  0  0  0  0  0  0  0
   12.8424   32.7739   15.4889 O   0  0  0  0  0  0  0  0  0  0  0  0
   12.4229   34.8661   14.7989 N   0  0  0  0  0  0  0  0  0  0  0  0
   12.1783   34.3920   13.4321 C   0  0  0  0  0  0  0  0  0  0  0  0
   11.2194   35.2834   12.6769 C   0  0  0  0  0  0  0  0  0  0  0  0
   11.3290   36.7355   12.8550 N   0  0  0  0  0  0  0  0  0  0  0  0
   12.3223   37.1401   13.8516 C   0  0  0  0  0  0  0  0  0  0  0  0
   12.1814   36.2868   15.1015 C   0  0  0  0  0  0  0  0  0  0  0  0
   10.4189   37.0925   13.1460 H   0  0  0  0  0  0  0  0  0  0  0  0
   14.3772   35.3532   17.0774 C   0  0  0  0  0  0  0  0  0  0  0  0
   14.7630   35.9526   18.2638 C   0  0  0  0  0  0  0  0  0  0  0  0
   14.0860   35.6449   19.4356 C   0  0  0  0  0  0  0  0  0  0  0  0
   13.0525   34.7235   19.4349 C   0  0  0  0  0  0  0  0  0  0  0  0
   12.6664   34.1367   18.2401 C   0  0  0  0  0  0  0  0  0  0  0  0
   13.3131   34.4577   17.0450 C   0  0  0  0  0  0  0  0  0  0  0  0
   14.4899   36.5208   20.9173 S   0  0  0  0  0  0  0  0  0  0  0  0
   15.1573   35.5949   21.7790 O   0  0  0  0  0  0  0  0  0  0  0  0
   13.2875   37.1444   21.3881 O   0  0  0  0  0  0  0  0  0  0  0  0
   15.5250   37.6912   20.5742 N   0  0  0  0  0  0  0  0  0  0  0  0
   15.0780   38.3708   19.9587 H   0  0  0  0  0  0  0  0  0  0  0  0
   16.3422   37.2966   20.1084 H   0  0  0  0  0  0  0  0  0  0  0  0
    9.7798   34.7868   12.8805 C   0  0  0  0  0  0  0  0  0  0  0  0
    9.3520   34.5367   14.3078 C   0  0  0  0  0  0  0  0  0  0  0  0
    9.4017   33.2569   14.8492 C   0  0  0  0  0  0  0  0  0  0  0  0
    9.0361   33.0320   16.1683 C   0  0  0  0  0  0  0  0  0  0  0  0
    8.6129   34.0806   16.9599 C   0  0  0  0  0  0  0  0  0  0  0  0
    8.5610   35.3560   16.4356 C   0  0  0  0  0  0  0  0  0  0  0  0
    8.9305   35.5842   15.1188 C   0  0  0  0  0  0  0  0  0  0  0  0
  6  5  1  0  0  0
  6  7  1  0  0  0
 22  5  1  0  0  0
 22 23  1  0  0  0
  5  4  1  0  0  0
  7  8  1  0  0  0
 23 24  2  0  0  0
 23 28  1  0  0  0
 24 25  1  0  0  0
  4  3  1  0  0  0
  8  3  1  0  0  0
 28 27  2  0  0  0
 25 26  2  0  0  0
  3  1  1  0  0  0
 27 26  1  0  0  0
  1  2  2  0  0  0
  1 15  1  0  0  0
 14 15  2  0  0  0
 14 13  1  0  0  0
 15 10  1  0  0  0
 13 12  2  0  0  0
 10 11  2  0  0  0
 12 11  1  0  0  0
 12 16  1  0  0  0
 19 16  1  0  0  0
 16 18  2  0  0  0
 16 17  2  0  0  0
  6  9  1  0  0  0
 19 20  1  0  0  0
 19 21  1  0  0  0
M  END
> <minimizedAffinity>
-8.27952

$$$$
6EX1_N19_A_302


 28 30  0  0  0  0  0  0  0  0999 V2000
   11.2607   34.1757   16.4437 C   0  0  0  0  0  0  0  0  0  0  0  0
   10.0899   34.3976   16.6955 O   0  0  0  0  0  0  0  0  0  0  0  0
   11.6298   33.3786   15.4227 N   0  0  0  0  0  0  0  0  0  0  0  0
   10.5821   32.6623   14.6864 C   0  0  0  0  0  0  0  0  0  0  0  0
   11.0010   32.3225   13.2744 C   0  0  0  0  0  0  0  0  0  0  0  0
   12.3807   31.8807   13.0430 N   0  0  0  0  0  0  0  0  0  0  0  0
   13.2279   31.9236   14.2363 C   0  0  0  0  0  0  0  0  0  0  0  0
   13.0243   33.2385   14.9710 C   0  0  0  0  0  0  0  0  0  0  0  0
   12.7958   32.4841   12.3331 H   0  0  0  0  0  0  0  0  0  0  0  0
   12.9852   35.8732   17.0469 C   0  0  0  0  0  0  0  0  0  0  0  0
   13.8389   36.4735   17.9560 C   0  0  0  0  0  0  0  0  0  0  0  0
   14.0315   35.8890   19.2000 C   0  0  0  0  0  0  0  0  0  0  0  0
   13.4047   34.6987   19.5275 C   0  0  0  0  0  0  0  0  0  0  0  0
   12.5433   34.1109   18.6144 C   0  0  0  0  0  0  0  0  0  0  0  0
   12.3105   34.7004   17.3703 C   0  0  0  0  0  0  0  0  0  0  0  0
   15.0086   36.7357   20.4058 S   0  0  0  0  0  0  0  0  0  0  0  0
   16.0228   37.4488   19.6930 O   0  0  0  0  0  0  0  0  0  0  0  0
   15.4151   35.7690   21.3839 O   0  0  0  0  0  0  0  0  0  0  0  0
   14.1000   37.8155   21.1591 N   0  0  0  0  0  0  0  0  0  0  0  0
   13.3641   37.3373   21.6790 H   0  0  0  0  0  0  0  0  0  0  0  0
   13.6794   38.4433   20.4740 H   0  0  0  0  0  0  0  0  0  0  0  0
   10.5953   33.4602   12.3250 C   0  0  0  0  0  0  0  0  0  0  0  0
    9.4535   34.3388   12.7803 C   0  0  0  0  0  0  0  0  0  0  0  0
    9.6987   35.5926   13.3293 C   0  0  0  0  0  0  0  0  0  0  0  0
    8.6493   36.4109   13.7210 C   0  0  0  0  0  0  0  0  0  0  0  0
    7.3445   35.9855   13.5731 C   0  0  0  0  0  0  0  0  0  0  0  0
    7.0874   34.7443   13.0276 C   0  0  0  0  0  0  0  0  0  0  0  0
    8.1344   33.9264   12.6309 C   0  0  0  0  0  0  0  0  0  0  0  0
  6  5  1  0  0  0
  6  7  1  0  0  0
 22  5  1  0  0  0
 22 23  1  0  0  0
  5  4  1  0  0  0
  7  8  1  0  0  0
 23 24  2  0  0  0
 23 28  1  0  0  0
 24 25  1  0  0  0
  4  3  1  0  0  0
  8  3  1  0  0  0
 28 27  2  0  0  0
 25 26  2  0  0  0
  3  1  1  0  0  0
 27 26  1  0  0  0
  1  2  2  0  0  0
  1 15  1  0  0  0
 14 15  2  0  0  0
 14 13  1  0  0  0
 15 10  1  0  0  0
 13 12  2  0  0  0
 10 11  2  0  0  0
 12 11  1  0  0  0
 12 16  1  0  0  0
 19 16  1  0  0  0
 16 18  2  0  0  0
 16 17  2  0  0  0
  6  9  1  0  0  0
 19 20  1  0  0  0
 19 21  1  0  0  0
M  END
> <minimizedAffinity>
-8.26162

$$$$
6EX1_N19_A_302


 28 30  0  0  0  0  0  0  0  0999 V2000
   12.9579   34.3359   15.6780 C   0  0  0  0  0  0  0  0  0  0  0  0
   13.8717   33.6763   15.2165 O   0  0  0  0  0  0  0  0  0  0  0  0
   11.8534   34.6201   14.9613 N   0  0  0  0  0  0  0  0  0  0  0  0
   11.8229   34.2296   13.5474 C   0  0  0  0  0  0  0  0  0  0  0  0
   10.4146   34.0337   13.0349 C   0  0  0  0  0  0  0  0  0  0  0  0
    9.3746   34.9693   13.4769 N   0  0  0  0  0  0  0  0  0  0  0  0
    9.8328   35.9441   14.4687 C   0  0  0  0  0  0  0  0  0  0  0  0
   10.6539   35.2471   15.5411 C   0  0  0  0  0  0  0  0  0  0  0  0
    8.6112   34.4305   13.8857 H   0  0  0  0  0  0  0  0  0  0  0  0
   12.8253   34.2040   18.1648 C   0  0  0  0  0  0  0  0  0  0  0  0
   13.1243   34.6832   19.4284 C   0  0  0  0  0  0  0  0  0  0  0  0
   13.7174   35.9308   19.5625 C   0  0  0  0  0  0  0  0  0  0  0  0
   13.9830   36.7115   18.4503 C   0  0  0  0  0  0  0  0  0  0  0  0
   13.6898   36.2184   17.1885 C   0  0  0  0  0  0  0  0  0  0  0  0
   13.1234   34.9521   17.0304 C   0  0  0  0  0  0  0  0  0  0  0  0
   14.2266   36.4728   21.1664 S   0  0  0  0  0  0  0  0  0  0  0  0
   15.0796   35.4553   21.6979 O   0  0  0  0  0  0  0  0  0  0  0  0
   13.0429   36.8198   21.8976 O   0  0  0  0  0  0  0  0  0  0  0  0
   15.0994   37.8056   21.0218 N   0  0  0  0  0  0  0  0  0  0  0  0
   14.5178   38.5535   20.6438 H   0  0  0  0  0  0  0  0  0  0  0  0
   15.8826   37.6324   20.3917 H   0  0  0  0  0  0  0  0  0  0  0  0
    9.9906   32.5699   13.2296 C   0  0  0  0  0  0  0  0  0  0  0  0
   11.0525   31.5249   12.9783 C   0  0  0  0  0  0  0  0  0  0  0  0
   11.7686   30.9731   14.0349 C   0  0  0  0  0  0  0  0  0  0  0  0
   12.7236   29.9931   13.8070 C   0  0  0  0  0  0  0  0  0  0  0  0
   12.9774   29.5564   12.5225 C   0  0  0  0  0  0  0  0  0  0  0  0
   12.2722   30.0941   11.4652 C   0  0  0  0  0  0  0  0  0  0  0  0
   11.3137   31.0704   11.6908 C   0  0  0  0  0  0  0  0  0  0  0  0
  6  5  1  0  0  0
  6  7  1  0  0  0
 22  5  1  0  0  0
 22 23  1  0  0  0
  5  4  1  0  0  0
  7  8  1  0  0  0
 23 24  2  0  0  0
 23 28  1  0  0  0
 24 25  1  0  0  0
  4  3  1  0  0  0
  8  3  1  0  0  0
 28 27  2  0  0  0
 25 26  2  0  0  0
  3  1  1  0  0  0
 27 26  1  0  0  0
  1  2  2  0  0  0
  1 15  1  0  0  0
 14 15  2  0  0  0
 14 13  1  0  0  0
 15 10  1  0  0  0
 13 12  2  0  0  0
 10 11  2  0  0  0
 12 11  1  0  0  0
 12 16  1  0  0  0
 19 16  1  0  0  0
 16 18  2  0  0  0
 16 17  2  0  0  0
  6  9  1  0  0  0
 19 20  1  0  0  0
 19 21  1  0  0  0
M  END
> <minimizedAffinity>
-8.14103

$$$$
6EX1_N19_A_302


 28 30  0  0  0  0  0  0  0  0999 V2000
   12.3850   33.8860   15.8694 C   0  0  0  0  0  0  0  0  0  0  0  0
   12.9792   32.8659   15.5703 O   0  0  0  0  0  0  0  0  0  0  0  0
   11.4580   34.4325   15.0593 N   0  0  0  0  0  0  0  0  0  0  0  0
   11.2650   33.8453   13.7286 C   0  0  0  0  0  0  0  0  0  0  0  0
    9.8792   34.1014   13.1823 C   0  0  0  0  0  0  0  0  0  0  0  0
    9.2711   35.4168   13.4105 N   0  0  0  0  0  0  0  0  0  0  0  0
   10.0739   36.3063   14.2520 C   0  0  0  0  0  0  0  0  0  0  0  0
   10.5882   35.5491   15.4654 C   0  0  0  0  0  0  0  0  0  0  0  0
    8.3669   35.2783   13.8616 H   0  0  0  0  0  0  0  0  0  0  0  0
   12.4600   34.0891   18.3538 C   0  0  0  0  0  0  0  0  0  0  0  0
   12.9586   34.6510   19.5163 C   0  0  0  0  0  0  0  0  0  0  0  0
   13.7844   35.7637   19.4367 C   0  0  0  0  0  0  0  0  0  0  0  0
   14.0876   36.3340   18.2121 C   0  0  0  0  0  0  0  0  0  0  0  0
   13.5923   35.7576   17.0530 C   0  0  0  0  0  0  0  0  0  0  0  0
   12.7868   34.6185   17.1096 C   0  0  0  0  0  0  0  0  0  0  0  0
   14.5318   36.3870   20.9128 S   0  0  0  0  0  0  0  0  0  0  0  0
   15.1234   35.2706   21.5828 O   0  0  0  0  0  0  0  0  0  0  0  0
   13.5363   37.1496   21.6083 O   0  0  0  0  0  0  0  0  0  0  0  0
   15.7113   37.3950   20.5232 N   0  0  0  0  0  0  0  0  0  0  0  0
   15.3210   38.2052   20.0419 H   0  0  0  0  0  0  0  0  0  0  0  0
   16.3742   36.9216   19.9094 H   0  0  0  0  0  0  0  0  0  0  0  0
    8.9405   32.9560   13.5915 C   0  0  0  0  0  0  0  0  0  0  0  0
    8.4236   32.0805   12.4738 C   0  0  0  0  0  0  0  0  0  0  0  0
    9.3047   31.4030   11.6383 C   0  0  0  0  0  0  0  0  0  0  0  0
    8.8299   30.5768   10.6302 C   0  0  0  0  0  0  0  0  0  0  0  0
    7.4713   30.4212   10.4422 C   0  0  0  0  0  0  0  0  0  0  0  0
    6.5861   31.0862   11.2659 C   0  0  0  0  0  0  0  0  0  0  0  0
    7.0581   31.9088   12.2773 C   0  0  0  0  0  0  0  0  0  0  0  0
  6  5  1  0  0  0
  6  7  1  0  0  0
 22  5  1  0  0  0
 22 23  1  0  0  0
  5  4  1  0  0  0
  7  8  1  0  0  0
 23 24  2  0  0  0
 23 28  1  0  0  0
 24 25  1  0  0  0
  4  3  1  0  0  0
  8  3  1  0  0  0
 28 27  2  0  0  0
 25 26  2  0  0  0
  3  1  1  0  0  0
 27 26  1  0  0  0
  1  2  2  0  0  0
  1 15  1  0  0  0
 14 15  2  0  0  0
 14 13  1  0  0  0
 15 10  1  0  0  0
 13 12  2  0  0  0
 10 11  2  0  0  0
 12 11  1  0  0  0
 12 16  1  0  0  0
 19 16  1  0  0  0
 16 18  2  0  0  0
 16 17  2  0  0  0
  6  9  1  0  0  0
 19 20  1  0  0  0
 19 21  1  0  0  0
M  END
> <minimizedAffinity>
-8.03724

$$$$
6EX1_N19_A_302


 28 30  0  0  0  0  0  0  0  0999 V2000
   13.0022   34.0925   15.6205 C   0  0  0  0  0  0  0  0  0  0  0  0
   13.2745   32.9087   15.5336 O   0  0  0  0  0  0  0  0  0  0  0  0
   12.6488   34.8218   14.5446 N   0  0  0  0  0  0  0  0  0  0  0  0
   12.7259   34.1913   13.2220 C   0  0  0  0  0  0  0  0  0  0  0  0
   11.7818   34.8254   12.2265 C   0  0  0  0  0  0  0  0  0  0  0  0
   11.6224   36.2837   12.2469 N   0  0  0  0  0  0  0  0  0  0  0  0
   12.3482   36.9471   13.3317 C   0  0  0  0  0  0  0  0  0  0  0  0
   12.1318   36.1975   14.6360 C   0  0  0  0  0  0  0  0  0  0  0  0
   10.6299   36.4964   12.3481 H   0  0  0  0  0  0  0  0  0  0  0  0
   12.5642   34.2734   18.0689 C   0  0  0  0  0  0  0  0  0  0  0  0
   12.8477   34.7851   19.3233 C   0  0  0  0  0  0  0  0  0  0  0  0
   13.7571   35.8264   19.4459 C   0  0  0  0  0  0  0  0  0  0  0  0
   14.3575   36.3773   18.3266 C   0  0  0  0  0  0  0  0  0  0  0  0
   14.0753   35.8509   17.0758 C   0  0  0  0  0  0  0  0  0  0  0  0
   13.1885   34.7818   16.9344 C   0  0  0  0  0  0  0  0  0  0  0  0
   14.2212   36.3769   21.0606 S   0  0  0  0  0  0  0  0  0  0  0  0
   15.0390   35.3513   21.6305 O   0  0  0  0  0  0  0  0  0  0  0  0
   13.0195   36.7506   21.7481 O   0  0  0  0  0  0  0  0  0  0  0  0
   15.1202   37.6938   20.9322 N   0  0  0  0  0  0  0  0  0  0  0  0
   14.5641   38.4470   20.5275 H   0  0  0  0  0  0  0  0  0  0  0  0
   15.9211   37.5014   20.3306 H   0  0  0  0  0  0  0  0  0  0  0  0
   10.4284   34.0991   12.2599 C   0  0  0  0  0  0  0  0  0  0  0  0
    9.2099   34.9614   12.4936 C   0  0  0  0  0  0  0  0  0  0  0  0
    8.8065   35.2843   13.7845 C   0  0  0  0  0  0  0  0  0  0  0  0
    7.7046   36.0994   13.9984 C   0  0  0  0  0  0  0  0  0  0  0  0
    6.9910   36.5974   12.9269 C   0  0  0  0  0  0  0  0  0  0  0  0
    7.3820   36.2864   11.6406 C   0  0  0  0  0  0  0  0  0  0  0  0
    8.4859   35.4758   11.4241 C   0  0  0  0  0  0  0  0  0  0  0  0
  6  5  1  0  0  0
  6  7  1  0  0  0
 22  5  1  0  0  0
 22 23  1  0  0  0
  5  4  1  0  0  0
  7  8  1  0  0  0
 23 24  2  0  0  0
 23 28  1  0  0  0
 24 25  1  0  0  0
  4  3  1  0  0  0
  8  3  1  0  0  0
 28 27  2  0  0  0
 25 26  2  0  0  0
  3  1  1  0  0  0
 27 26  1  0  0  0
  1  2  2  0  0  0
  1 15  1  0  0  0
 14 15  2  0  0  0
 14 13  1  0  0  0
 15 10  1  0  0  0
 13 12  2  0  0  0
 10 11  2  0  0  0
 12 11  1  0  0  0
 12 16  1  0  0  0
 19 16  1  0  0  0
 16 18  2  0  0  0
 16 17  2  0  0  0
  6  9  1  0  0  0
 19 20  1  0  0  0
 19 21  1  0  0  0
M  END
> <minimizedAffinity>
-7.61336

$$$$
6EX1_N19_A_302


 28 30  0  0  0  0  0  0  0  0999 V2000
   11.1564   36.1990   13.8982 C   0  0  0  0  0  0  0  0  0  0  0  0
   11.8026   37.0429   13.3035 O   0  0  0  0  0  0  0  0  0  0  0  0
   11.7004   35.4402   14.8690 N   0  0  0  0  0  0  0  0  0  0  0  0
   13.1426   35.5541   15.1140 C   0  0  0  0  0  0  0  0  0  0  0  0
   13.5181   35.1704   16.5269 C   0  0  0  0  0  0  0  0  0  0  0  0
   12.8392   34.0251   17.1429 N   0  0  0  0  0  0  0  0  0  0  0  0
   11.7795   33.4453   16.3155 C   0  0  0  0  0  0  0  0  0  0  0  0
   10.9107   34.5493   15.7354 C   0  0  0  0  0  0  0  0  0  0  0  0
   12.4264   34.3326   18.0235 H   0  0  0  0  0  0  0  0  0  0  0  0
    8.6908   36.5006   14.1204 C   0  0  0  0  0  0  0  0  0  0  0  0
    7.4005   36.3903   13.6320 C   0  0  0  0  0  0  0  0  0  0  0  0
    7.1711   35.6727   12.4664 C   0  0  0  0  0  0  0  0  0  0  0  0
    8.2123   35.0417   11.8071 C   0  0  0  0  0  0  0  0  0  0  0  0
    9.5024   35.1669   12.2981 C   0  0  0  0  0  0  0  0  0  0  0  0
    9.7587   35.9119   13.4508 C   0  0  0  0  0  0  0  0  0  0  0  0
    5.5452   35.6574   11.7721 S   0  0  0  0  0  0  0  0  0  0  0  0
    5.6506   35.0549   10.4794 O   0  0  0  0  0  0  0  0  0  0  0  0
    5.0282   36.9920   11.8615 O   0  0  0  0  0  0  0  0  0  0  0  0
    4.5988   34.7244   12.6625 N   0  0  0  0  0  0  0  0  0  0  0  0
    4.5028   35.1280   13.5943 H   0  0  0  0  0  0  0  0  0  0  0  0
    5.0102   33.7939   12.7357 H   0  0  0  0  0  0  0  0  0  0  0  0
   13.4811   36.4134   17.4292 C   0  0  0  0  0  0  0  0  0  0  0  0
   13.9875   36.2327   18.8411 C   0  0  0  0  0  0  0  0  0  0  0  0
   14.6808   37.2535   19.4820 C   0  0  0  0  0  0  0  0  0  0  0  0
   15.1209   37.0982   20.7884 C   0  0  0  0  0  0  0  0  0  0  0  0
   14.8778   35.9214   21.4676 C   0  0  0  0  0  0  0  0  0  0  0  0
   14.1890   34.9013   20.8439 C   0  0  0  0  0  0  0  0  0  0  0  0
   13.7438   35.0558   19.5398 C   0  0  0  0  0  0  0  0  0  0  0  0
  6  5  1  0  0  0
  6  7  1  0  0  0
 22  5  1  0  0  0
 22 23  1  0  0  0
  5  4  1  0  0  0
  7  8  1  0  0  0
 23 24  2  0  0  0
 23 28  1  0  0  0
 24 25  1  0  0  0
  4  3  1  0  0  0
  8  3  1  0  0  0
 28 27  2  0  0  0
 25 26  2  0  0  0
  3  1  1  0  0  0
 27 26  1  0  0  0
  1  2  2  0  0  0
  1 15  1  0  0  0
 14 15  2  0  0  0
 14 13  1  0  0  0
 15 10  1  0  0  0
 13 12  2  0  0  0
 10 11  2  0  0  0
 12 11  1  0  0  0
 12 16  1  0  0  0
 19 16  1  0  0  0
 16 18  2  0  0  0
 16 17  2  0  0  0
  6  9  1  0  0  0
 19 20  1  0  0  0
 19 21  1  0  0  0
M  END
> <minimizedAffinity>
-7.42659

$$$$
6EX1_N19_A_302


 28 30  0  0  0  0  0  0  0  0999 V2000
    9.9529   35.2241   14.6849 C   0  0  0  0  0  0  0  0  0  0  0  0
    9.5058   36.2637   15.1350 O   0  0  0  0  0  0  0  0  0  0  0  0
   11.2272   34.8454   14.9013 N   0  0  0  0  0  0  0  0  0  0  0  0
   12.1238   35.7825   15.5874 C   0  0  0  0  0  0  0  0  0  0  0  0
   13.2600   35.0791   16.2937 C   0  0  0  0  0  0  0  0  0  0  0  0
   13.8947   33.9363   15.6279 N   0  0  0  0  0  0  0  0  0  0  0  0
   13.2570   33.5519   14.3672 C   0  0  0  0  0  0  0  0  0  0  0  0
   11.7472   33.5164   14.5386 C   0  0  0  0  0  0  0  0  0  0  0  0
   13.8613   33.1372   16.2609 H   0  0  0  0  0  0  0  0  0  0  0  0
    9.3810   34.4035   12.4005 C   0  0  0  0  0  0  0  0  0  0  0  0
    8.7216   33.5366   11.5464 C   0  0  0  0  0  0  0  0  0  0  0  0
    7.7614   32.6744   12.0570 C   0  0  0  0  0  0  0  0  0  0  0  0
    7.4352   32.6950   13.4024 C   0  0  0  0  0  0  0  0  0  0  0  0
    8.1087   33.5591   14.2515 C   0  0  0  0  0  0  0  0  0  0  0  0
    9.1012   34.4111   13.7631 C   0  0  0  0  0  0  0  0  0  0  0  0
    7.0284   31.4730   10.9869 S   0  0  0  0  0  0  0  0  0  0  0  0
    8.0856   30.9158   10.2012 O   0  0  0  0  0  0  0  0  0  0  0  0
    5.9388   32.1116   10.3078 O   0  0  0  0  0  0  0  0  0  0  0  0
    6.4075   30.2900   11.8667 N   0  0  0  0  0  0  0  0  0  0  0  0
    5.6479   30.6559   12.4407 H   0  0  0  0  0  0  0  0  0  0  0  0
    7.1312   29.8987   12.4696 H   0  0  0  0  0  0  0  0  0  0  0  0
   12.8479   34.7472   17.7361 C   0  0  0  0  0  0  0  0  0  0  0  0
   13.5759   35.4926   18.8301 C   0  0  0  0  0  0  0  0  0  0  0  0
   13.6500   34.9698   20.1165 C   0  0  0  0  0  0  0  0  0  0  0  0
   14.3427   35.6403   21.1139 C   0  0  0  0  0  0  0  0  0  0  0  0
   14.9651   36.8415   20.8398 C   0  0  0  0  0  0  0  0  0  0  0  0
   14.9011   37.3703   19.5668 C   0  0  0  0  0  0  0  0  0  0  0  0
   14.2134   36.6996   18.5668 C   0  0  0  0  0  0  0  0  0  0  0  0
  6  5  1  0  0  0
  6  7  1  0  0  0
 22  5  1  0  0  0
 22 23  1  0  0  0
  5  4  1  0  0  0
  7  8  1  0  0  0
 23 24  2  0  0  0
 23 28  1  0  0  0
 24 25  1  0  0  0
  4  3  1  0  0  0
  8  3  1  0  0  0
 28 27  2  0  0  0
 25 26  2  0  0  0
  3  1  1  0  0  0
 27 26  1  0  0  0
  1  2  2  0  0  0
  1 15  1  0  0  0
 14 15  2  0  0  0
 14 13  1  0  0  0
 15 10  1  0  0  0
 13 12  2  0  0  0
 10 11  2  0  0  0
 12 11  1  0  0  0
 12 16  1  0  0  0
 19 16  1  0  0  0
 16 18  2  0  0  0
 16 17  2  0  0  0
  6  9  1  0  0  0
 19 20  1  0  0  0
 19 21  1  0  0  0
M  END
> <minimizedAffinity>
-7.24634

$$$$
6EX1_N19_A_302


 28 30  0  0  0  0  0  0  0  0999 V2000
   12.9276   33.9717   14.9849 C   0  0  0  0  0  0  0  0  0  0  0  0
   12.9814   32.7729   15.1926 O   0  0  0  0  0  0  0  0  0  0  0  0
   12.4102   34.4738   13.8471 N   0  0  0  0  0  0  0  0  0  0  0  0
   12.0265   33.5367   12.7854 C   0  0  0  0  0  0  0  0  0  0  0  0
   10.9553   34.1003   11.8801 C   0  0  0  0  0  0  0  0  0  0  0  0
   11.0326   35.5165   11.5051 N   0  0  0  0  0  0  0  0  0  0  0  0
   12.1193   36.2475   12.1596 C   0  0  0  0  0  0  0  0  0  0  0  0
   12.1545   35.9092   13.6409 C   0  0  0  0  0  0  0  0  0  0  0  0
   10.1500   35.9629   11.7545 H   0  0  0  0  0  0  0  0  0  0  0  0
   12.7732   35.7770   16.6985 C   0  0  0  0  0  0  0  0  0  0  0  0
   13.3120   36.5308   17.7267 C   0  0  0  0  0  0  0  0  0  0  0  0
   14.6647   36.4208   18.0171 C   0  0  0  0  0  0  0  0  0  0  0  0
   15.4838   35.5910   17.2705 C   0  0  0  0  0  0  0  0  0  0  0  0
   14.9328   34.8320   16.2499 C   0  0  0  0  0  0  0  0  0  0  0  0
   13.5682   34.9036   15.9634 C   0  0  0  0  0  0  0  0  0  0  0  0
   15.3150   37.2763   19.4210 S   0  0  0  0  0  0  0  0  0  0  0  0
   14.4150   38.3502   19.7073 O   0  0  0  0  0  0  0  0  0  0  0  0
   16.6839   37.5928   19.1341 O   0  0  0  0  0  0  0  0  0  0  0  0
   15.3125   36.2961   20.6853 N   0  0  0  0  0  0  0  0  0  0  0  0
   15.9471   35.5165   20.5123 H   0  0  0  0  0  0  0  0  0  0  0  0
   14.3691   35.9393   20.8370 H   0  0  0  0  0  0  0  0  0  0  0  0
    9.5677   33.7245   12.4221 C   0  0  0  0  0  0  0  0  0  0  0  0
    9.2770   34.1173   13.8517 C   0  0  0  0  0  0  0  0  0  0  0  0
    8.8771   35.4119   14.1641 C   0  0  0  0  0  0  0  0  0  0  0  0
    8.5826   35.7650   15.4729 C   0  0  0  0  0  0  0  0  0  0  0  0
    8.6882   34.8317   16.4844 C   0  0  0  0  0  0  0  0  0  0  0  0
    9.0819   33.5429   16.1875 C   0  0  0  0  0  0  0  0  0  0  0  0
    9.3721   33.1861   14.8794 C   0  0  0  0  0  0  0  0  0  0  0  0
  6  5  1  0  0  0
  6  7  1  0  0  0
 22  5  1  0  0  0
 22 23  1  0  0  0
  5  4  1  0  0  0
  7  8  1  0  0  0
 23 24  2  0  0  0
 23 28  1  0  0  0
 24 25  1  0  0  0
  4  3  1  0  0  0
  8  3  1  0  0  0
 28 27  2  0  0  0
 25 26  2  0  0  0
  3  1  1  0  0  0
 27 26  1  0  0  0
  1  2  2  0  0  0
  1 15  1  0  0  0
 14 15  2  0  0  0
 14 13  1  0  0  0
 15 10  1  0  0  0
 13 12  2  0  0  0
 10 11  2  0  0  0
 12 11  1  0  0  0
 12 16  1  0  0  0
 19 16  1  0  0  0
 16 18  2  0  0  0
 16 17  2  0  0  0
  6  9  1  0  0  0
 19 20  1  0  0  0
 19 21  1  0  0  0
M  END
> <minimizedAffinity>
-7.16884

$$$$
6EX1_N19_A_302


 28 30  0  0  0  0  0  0  0  0999 V2000
   11.5196   35.1292   15.7362 C   0  0  0  0  0  0  0  0  0  0  0  0
   10.3433   35.0424   16.0394 O   0  0  0  0  0  0  0  0  0  0  0  0
   11.9636   34.7997   14.5080 N   0  0  0  0  0  0  0  0  0  0  0  0
   11.0147   34.1981   13.5643 C   0  0  0  0  0  0  0  0  0  0  0  0
   11.4094   34.4316   12.1241 C   0  0  0  0  0  0  0  0  0  0  0  0
   12.8297   34.3453   11.7669 N   0  0  0  0  0  0  0  0  0  0  0  0
   13.7197   34.1349   12.9103 C   0  0  0  0  0  0  0  0  0  0  0  0
   13.3356   35.0689   14.0462 C   0  0  0  0  0  0  0  0  0  0  0  0
   13.0982   35.2153   11.3073 H   0  0  0  0  0  0  0  0  0  0  0  0
   12.9557   36.8048   16.8978 C   0  0  0  0  0  0  0  0  0  0  0  0
   13.7423   37.2057   17.9637 C   0  0  0  0  0  0  0  0  0  0  0  0
   14.1025   36.2794   18.9324 C   0  0  0  0  0  0  0  0  0  0  0  0
   13.7103   34.9558   18.8266 C   0  0  0  0  0  0  0  0  0  0  0  0
   12.9138   34.5664   17.7613 C   0  0  0  0  0  0  0  0  0  0  0  0
   12.5132   35.4901   16.7939 C   0  0  0  0  0  0  0  0  0  0  0  0
   14.9846   36.8296   20.3624 S   0  0  0  0  0  0  0  0  0  0  0  0
   16.1544   37.5063   19.8946 O   0  0  0  0  0  0  0  0  0  0  0  0
   15.1522   35.6965   21.2251 O   0  0  0  0  0  0  0  0  0  0  0  0
   14.0948   37.8976   21.1540 N   0  0  0  0  0  0  0  0  0  0  0  0
   13.2496   37.4448   21.5020 H   0  0  0  0  0  0  0  0  0  0  0  0
   13.8385   38.6591   20.5257 H   0  0  0  0  0  0  0  0  0  0  0  0
   10.7669   35.7308   11.6143 C   0  0  0  0  0  0  0  0  0  0  0  0
   11.6716   36.6741   10.8564 C   0  0  0  0  0  0  0  0  0  0  0  0
   11.7889   36.5865    9.4736 C   0  0  0  0  0  0  0  0  0  0  0  0
   12.5975   37.4708    8.7747 C   0  0  0  0  0  0  0  0  0  0  0  0
   13.3009   38.4490    9.4482 C   0  0  0  0  0  0  0  0  0  0  0  0
   13.1916   38.5483   10.8202 C   0  0  0  0  0  0  0  0  0  0  0  0
   12.3803   37.6686   11.5207 C   0  0  0  0  0  0  0  0  0  0  0  0
  6  5  1  0  0  0
  6  7  1  0  0  0
 22  5  1  0  0  0
 22 23  1  0  0  0
  5  4  1  0  0  0
  7  8  1  0  0  0
 23 24  2  0  0  0
 23 28  1  0  0  0
 24 25  1  0  0  0
  4  3  1  0  0  0
  8  3  1  0  0  0
 28 27  2  0  0  0
 25 26  2  0  0  0
  3  1  1  0  0  0
 27 26  1  0  0  0
  1  2  2  0  0  0
  1 15  1  0  0  0
 14 15  2  0  0  0
 14 13  1  0  0  0
 15 10  1  0  0  0
 13 12  2  0  0  0
 10 11  2  0  0  0
 12 11  1  0  0  0
 12 16  1  0  0  0
 19 16  1  0  0  0
 16 18  2  0  0  0
 16 17  2  0  0  0
  6  9  1  0  0  0
 19 20  1  0  0  0
 19 21  1  0  0  0
M  END
> <minimizedAffinity>
-7.11458

$$$$
6EX1_N19_A_302


 28 30  0  0  0  0  0  0  0  0999 V2000
   11.1896   34.2335   15.3335 C   0  0  0  0  0  0  0  0  0  0  0  0
    9.9953   34.4467   15.2267 O   0  0  0  0  0  0  0  0  0  0  0  0
   11.7913   33.2174   14.6857 N   0  0  0  0  0  0  0  0  0  0  0  0
   10.9507   32.2735   13.9405 C   0  0  0  0  0  0  0  0  0  0  0  0
   11.7020   31.5974   12.8167 C   0  0  0  0  0  0  0  0  0  0  0  0
   13.0914   31.1897   13.0523 N   0  0  0  0  0  0  0  0  0  0  0  0
   13.6179   31.5944   14.3571 C   0  0  0  0  0  0  0  0  0  0  0  0
   13.2526   33.0428   14.6381 C   0  0  0  0  0  0  0  0  0  0  0  0
   13.6754   31.6068   12.3274 H   0  0  0  0  0  0  0  0  0  0  0  0
   12.4736   34.4390   17.4615 C   0  0  0  0  0  0  0  0  0  0  0  0
   13.3477   35.1119   18.2975 C   0  0  0  0  0  0  0  0  0  0  0  0
   13.7278   36.4097   17.9852 C   0  0  0  0  0  0  0  0  0  0  0  0
   13.2183   37.0467   16.8665 C   0  0  0  0  0  0  0  0  0  0  0  0
   12.3521   36.3607   16.0297 C   0  0  0  0  0  0  0  0  0  0  0  0
   11.9833   35.0433   16.3085 C   0  0  0  0  0  0  0  0  0  0  0  0
   14.9533   37.2090   18.9777 S   0  0  0  0  0  0  0  0  0  0  0  0
   14.8929   36.6106   20.2751 O   0  0  0  0  0  0  0  0  0  0  0  0
   14.7381   38.6226   18.8688 O   0  0  0  0  0  0  0  0  0  0  0  0
   16.4032   36.9048   18.3742 N   0  0  0  0  0  0  0  0  0  0  0  0
   16.4789   37.3198   17.4455 H   0  0  0  0  0  0  0  0  0  0  0  0
   16.5391   35.8960   18.3079 H   0  0  0  0  0  0  0  0  0  0  0  0
   11.5553   32.4189   11.5268 C   0  0  0  0  0  0  0  0  0  0  0  0
   12.8221   33.0256   10.9701 C   0  0  0  0  0  0  0  0  0  0  0  0
   13.2303   34.2966   11.3594 C   0  0  0  0  0  0  0  0  0  0  0  0
   14.4082   34.8421   10.8702 C   0  0  0  0  0  0  0  0  0  0  0  0
   15.1890   34.1274    9.9843 C   0  0  0  0  0  0  0  0  0  0  0  0
   14.7963   32.8642    9.5915 C   0  0  0  0  0  0  0  0  0  0  0  0
   13.6219   32.3146   10.0828 C   0  0  0  0  0  0  0  0  0  0  0  0
  6  5  1  0  0  0
  6  7  1  0  0  0
 22  5  1  0  0  0
 22 23  1  0  0  0
  5  4  1  0  0  0
  7  8  1  0  0  0
 23 24  2  0  0  0
 23 28  1  0  0  0
 24 25  1  0  0  0
  4  3  1  0  0  0
  8  3  1  0  0  0
 28 27  2  0  0  0
 25 26  2  0  0  0
  3  1  1  0  0  0
 27 26  1  0  0  0
  1  2  2  0  0  0
  1 15  1  0  0  0
 14 15  2  0  0  0
 14 13  1  0  0  0
 15 10  1  0  0  0
 13 12  2  0  0  0
 10 11  2  0  0  0
 12 11  1  0  0  0
 12 16  1  0  0  0
 19 16  1  0  0  0
 16 18  2  0  0  0
 16 17  2  0  0  0
  6  9  1  0  0  0
 19 20  1  0  0  0
 19 21  1  0  0  0
M  END
> <minimizedAffinity>
-6.91373

$$$$
