4R74_F6P_A_401


 22 22  0  0  0  0  0  0  0  0999 V2000
   -9.6592   23.4524   -8.8536 C   0  0  0  0  0  0  0  0  0  0  0  0
   -9.9084   23.6588   -7.5028 O   0  0  0  0  0  0  0  0  0  0  0  0
   -8.3756   24.0515   -9.1851 C   0  0  0  0  0  0  0  0  0  0  0  0
   -8.0155   25.0024   -8.2541 O   0  0  0  0  0  0  0  0  0  0  0  0
   -7.4504   22.9047   -9.1358 C   0  0  0  0  0  0  0  0  0  0  0  0
   -6.3576   23.1766   -9.9225 O   0  0  0  0  0  0  0  0  0  0  0  0
   -8.2976   21.8376   -9.7379 C   0  0  0  0  0  0  0  0  0  0  0  0
   -9.5450   22.0114   -9.1594 O   0  0  0  0  0  0  0  0  0  0  0  0
   -9.9788   24.6104   -7.3287 H   0  0  0  0  0  0  0  0  0  0  0  0
   -7.9930   24.5992   -7.3722 H   0  0  0  0  0  0  0  0  0  0  0  0
   -6.6528   23.4092  -10.8168 H   0  0  0  0  0  0  0  0  0  0  0  0
  -11.8028   24.6093   -8.9192 O   0  0  0  0  0  0  0  0  0  0  0  0
  -10.7826   24.0401   -9.6560 C   0  0  0  0  0  0  0  0  0  0  0  0
  -12.4788   24.9600   -9.5200 H   0  0  0  0  0  0  0  0  0  0  0  0
   -7.8409   20.4293   -9.5351 C   0  0  0  0  0  0  0  0  0  0  0  0
   -7.0485   19.9712  -10.5695 O   0  0  0  0  0  0  0  0  0  0  0  0
   -5.5096   19.7762  -10.4338 P   0  0  0  0  0  0  0  0  0  0  0  0
   -4.7953   20.9350  -11.0855 O   0  0  0  0  0  0  0  0  0  0  0  0
   -5.1219   19.6890   -8.9787 O   0  0  0  0  0  0  0  0  0  0  0  0
   -5.1281   18.4920  -11.1336 O   0  0  0  0  0  0  0  0  0  0  0  0
   -5.3665   20.5129   -8.5290 H   0  0  0  0  0  0  0  0  0  0  0  0
   -5.3772   18.5474  -12.0695 H   0  0  0  0  0  0  0  0  0  0  0  0
 12 13  1  0  0  0
 13  1  1  0  0  0
  1  2  1  0  0  0
  1  3  1  0  0  0
  1  8  1  0  0  0
  3  4  1  0  0  0
  3  5  1  0  0  0
  5  6  1  0  0  0
  5  7  1  0  0  0
  7  8  1  0  0  0
  7 15  1  0  0  0
 15 16  1  0  0  0
 16 17  1  0  0  0
 17 18  2  0  0  0
 17 19  1  0  0  0
 17 20  1  0  0  0
 12 14  1  0  0  0
  2  9  1  0  0  0
  4 10  1  0  0  0
  6 11  1  0  0  0
 19 21  1  0  0  0
 20 22  1  0  0  0
M  END
> <minimizedAffinity>
-9.37600

$$$$
4R74_F6P_A_401


 22 22  0  0  0  0  0  0  0  0999 V2000
   -9.9665   23.4010   -9.6151 C   0  0  0  0  0  0  0  0  0  0  0  0
  -11.2301   22.9169   -9.3016 O   0  0  0  0  0  0  0  0  0  0  0  0
   -9.1046   23.2325   -8.4553 C   0  0  0  0  0  0  0  0  0  0  0  0
   -9.8456   23.0966   -7.3007 O   0  0  0  0  0  0  0  0  0  0  0  0
   -8.3832   21.9823   -8.7555 C   0  0  0  0  0  0  0  0  0  0  0  0
   -7.1960   21.9731   -8.0644 O   0  0  0  0  0  0  0  0  0  0  0  0
   -8.1549   22.1375  -10.2194 C   0  0  0  0  0  0  0  0  0  0  0  0
   -9.3559   22.6226  -10.7126 O   0  0  0  0  0  0  0  0  0  0  0  0
  -11.6083   23.4436   -8.5802 H   0  0  0  0  0  0  0  0  0  0  0  0
  -10.4537   22.3466   -7.3932 H   0  0  0  0  0  0  0  0  0  0  0  0
   -6.6958   22.7783   -8.2702 H   0  0  0  0  0  0  0  0  0  0  0  0
  -11.2703   25.1859  -10.6408 O   0  0  0  0  0  0  0  0  0  0  0  0
  -10.0801   24.8377  -10.0324 C   0  0  0  0  0  0  0  0  0  0  0  0
  -11.2511   26.1274  -10.8734 H   0  0  0  0  0  0  0  0  0  0  0  0
   -7.7651   20.9044  -10.9682 C   0  0  0  0  0  0  0  0  0  0  0  0
   -7.0394   20.0184  -10.1960 O   0  0  0  0  0  0  0  0  0  0  0  0
   -5.4955   19.8577  -10.3183 P   0  0  0  0  0  0  0  0  0  0  0  0
   -5.1775   18.5502  -11.0018 O   0  0  0  0  0  0  0  0  0  0  0  0
   -4.9134   21.0030  -11.1086 O   0  0  0  0  0  0  0  0  0  0  0  0
   -4.9046   19.8552   -8.9271 O   0  0  0  0  0  0  0  0  0  0  0  0
   -5.2923   21.0052  -12.0016 H   0  0  0  0  0  0  0  0  0  0  0  0
   -5.2785   19.1188   -8.4184 H   0  0  0  0  0  0  0  0  0  0  0  0
 12 13  1  0  0  0
 13  1  1  0  0  0
  1  2  1  0  0  0
  1  3  1  0  0  0
  1  8  1  0  0  0
  3  4  1  0  0  0
  3  5  1  0  0  0
  5  6  1  0  0  0
  5  7  1  0  0  0
  7  8  1  0  0  0
  7 15  1  0  0  0
 15 16  1  0  0  0
 16 17  1  0  0  0
 17 18  2  0  0  0
 17 19  1  0  0  0
 17 20  1  0  0  0
 12 14  1  0  0  0
  2  9  1  0  0  0
  4 10  1  0  0  0
  6 11  1  0  0  0
 19 21  1  0  0  0
 20 22  1  0  0  0
M  END
> <minimizedAffinity>
-8.91906

$$$$
4R74_F6P_A_401


 22 22  0  0  0  0  0  0  0  0999 V2000
   -6.0335   20.7104  -10.9972 C   0  0  0  0  0  0  0  0  0  0  0  0
   -4.9677   21.4774  -11.4499 O   0  0  0  0  0  0  0  0  0  0  0  0
   -6.0763   20.7873   -9.5450 C   0  0  0  0  0  0  0  0  0  0  0  0
   -4.8567   21.1741   -9.0315 O   0  0  0  0  0  0  0  0  0  0  0  0
   -7.0934   21.8252   -9.2965 C   0  0  0  0  0  0  0  0  0  0  0  0
   -7.6273   21.6386   -8.0446 O   0  0  0  0  0  0  0  0  0  0  0  0
   -8.0853   21.5032  -10.3603 C   0  0  0  0  0  0  0  0  0  0  0  0
   -7.3204   21.2461  -11.4872 O   0  0  0  0  0  0  0  0  0  0  0  0
   -4.1366   21.1057  -11.1151 H   0  0  0  0  0  0  0  0  0  0  0  0
   -4.5993   22.0263   -9.4168 H   0  0  0  0  0  0  0  0  0  0  0  0
   -7.9605   20.7309   -7.9673 H   0  0  0  0  0  0  0  0  0  0  0  0
   -5.2869   18.4275  -10.5865 O   0  0  0  0  0  0  0  0  0  0  0  0
   -5.8672   19.3013  -11.4851 C   0  0  0  0  0  0  0  0  0  0  0  0
   -5.2215   17.5470  -10.9881 H   0  0  0  0  0  0  0  0  0  0  0  0
   -9.0979   22.5578  -10.6697 C   0  0  0  0  0  0  0  0  0  0  0  0
   -9.9621   22.7922   -9.6180 O   0  0  0  0  0  0  0  0  0  0  0  0
  -10.1061   24.1845   -8.9358 P   0  0  0  0  0  0  0  0  0  0  0  0
   -9.4184   25.2317   -9.7775 O   0  0  0  0  0  0  0  0  0  0  0  0
  -11.5637   24.5360   -8.7718 O   0  0  0  0  0  0  0  0  0  0  0  0
   -9.4484   24.1198   -7.5764 O   0  0  0  0  0  0  0  0  0  0  0  0
  -11.9863   24.5777   -9.6439 H   0  0  0  0  0  0  0  0  0  0  0  0
   -8.5110   23.8937   -7.6812 H   0  0  0  0  0  0  0  0  0  0  0  0
 12 13  1  0  0  0
 13  1  1  0  0  0
  1  2  1  0  0  0
  1  3  1  0  0  0
  1  8  1  0  0  0
  3  4  1  0  0  0
  3  5  1  0  0  0
  5  6  1  0  0  0
  5  7  1  0  0  0
  7  8  1  0  0  0
  7 15  1  0  0  0
 15 16  1  0  0  0
 16 17  1  0  0  0
 17 18  2  0  0  0
 17 19  1  0  0  0
 17 20  1  0  0  0
 12 14  1  0  0  0
  2  9  1  0  0  0
  4 10  1  0  0  0
  6 11  1  0  0  0
 19 21  1  0  0  0
 20 22  1  0  0  0
M  END
> <minimizedAffinity>
-8.74651

$$$$
4R74_F6P_A_401


 22 22  0  0  0  0  0  0  0  0999 V2000
   -6.6428   20.4172  -11.9458 C   0  0  0  0  0  0  0  0  0  0  0  0
   -5.8848   21.1041  -12.8853 O   0  0  0  0  0  0  0  0  0  0  0  0
   -6.0754   20.6566  -10.6277 C   0  0  0  0  0  0  0  0  0  0  0  0
   -4.7634   21.0699  -10.7188 O   0  0  0  0  0  0  0  0  0  0  0  0
   -6.9215   21.7389  -10.0927 C   0  0  0  0  0  0  0  0  0  0  0  0
   -6.8770   21.7054   -8.7201 O   0  0  0  0  0  0  0  0  0  0  0  0
   -8.2590   21.3233  -10.6002 C   0  0  0  0  0  0  0  0  0  0  0  0
   -8.0300   20.9245  -11.9077 O   0  0  0  0  0  0  0  0  0  0  0  0
   -4.9806   20.7529  -12.8906 H   0  0  0  0  0  0  0  0  0  0  0  0
   -4.7131   21.8676  -11.2684 H   0  0  0  0  0  0  0  0  0  0  0  0
   -7.1235   20.8200   -8.4101 H   0  0  0  0  0  0  0  0  0  0  0  0
   -5.6446   18.2033  -11.7453 O   0  0  0  0  0  0  0  0  0  0  0  0
   -6.6597   18.9590  -12.2988 C   0  0  0  0  0  0  0  0  0  0  0  0
   -5.7377   17.2801  -12.0281 H   0  0  0  0  0  0  0  0  0  0  0  0
   -9.3350   22.3599  -10.5717 C   0  0  0  0  0  0  0  0  0  0  0  0
   -8.9773   23.4802   -9.8473 O   0  0  0  0  0  0  0  0  0  0  0  0
   -9.7227   23.9252   -8.5547 P   0  0  0  0  0  0  0  0  0  0  0  0
   -9.4287   22.9488   -7.4419 O   0  0  0  0  0  0  0  0  0  0  0  0
   -9.2825   25.3100   -8.1500 O   0  0  0  0  0  0  0  0  0  0  0  0
  -11.2073   23.9325   -8.8387 O   0  0  0  0  0  0  0  0  0  0  0  0
   -8.3298   25.3060   -7.9675 H   0  0  0  0  0  0  0  0  0  0  0  0
  -11.4910   23.0422   -9.0990 H   0  0  0  0  0  0  0  0  0  0  0  0
 12 13  1  0  0  0
 13  1  1  0  0  0
  1  2  1  0  0  0
  1  3  1  0  0  0
  1  8  1  0  0  0
  3  4  1  0  0  0
  3  5  1  0  0  0
  5  6  1  0  0  0
  5  7  1  0  0  0
  7  8  1  0  0  0
  7 15  1  0  0  0
 15 16  1  0  0  0
 16 17  1  0  0  0
 17 18  2  0  0  0
 17 19  1  0  0  0
 17 20  1  0  0  0
 12 14  1  0  0  0
  2  9  1  0  0  0
  4 10  1  0  0  0
  6 11  1  0  0  0
 19 21  1  0  0  0
 20 22  1  0  0  0
M  END
> <minimizedAffinity>
-8.65103

$$$$
4R74_F6P_A_401


 22 22  0  0  0  0  0  0  0  0999 V2000
   -9.2987   23.4422   -9.7525 C   0  0  0  0  0  0  0  0  0  0  0  0
   -9.6179   23.1630  -11.0751 O   0  0  0  0  0  0  0  0  0  0  0  0
   -9.7018   22.3121   -8.9298 C   0  0  0  0  0  0  0  0  0  0  0  0
  -10.6516   21.5448   -9.5699 O   0  0  0  0  0  0  0  0  0  0  0  0
   -8.4480   21.5533   -8.7693 C   0  0  0  0  0  0  0  0  0  0  0  0
   -8.5248   20.7981   -7.6243 O   0  0  0  0  0  0  0  0  0  0  0  0
   -7.4675   22.6646   -8.6187 C   0  0  0  0  0  0  0  0  0  0  0  0
   -7.8393   23.5933   -9.5780 O   0  0  0  0  0  0  0  0  0  0  0  0
  -10.5793   23.0687  -11.1628 H   0  0  0  0  0  0  0  0  0  0  0  0
  -10.3033   21.2455  -10.4242 H   0  0  0  0  0  0  0  0  0  0  0  0
   -8.7396   21.3719   -6.8723 H   0  0  0  0  0  0  0  0  0  0  0  0
  -11.2226   24.5593   -8.7582 O   0  0  0  0  0  0  0  0  0  0  0  0
   -9.9797   24.7141   -9.3405 C   0  0  0  0  0  0  0  0  0  0  0  0
  -11.5821   25.4301   -8.5270 H   0  0  0  0  0  0  0  0  0  0  0  0
   -6.0261   22.3109   -8.7932 C   0  0  0  0  0  0  0  0  0  0  0  0
   -5.7707   21.6956  -10.0032 O   0  0  0  0  0  0  0  0  0  0  0  0
   -5.3514   20.2006  -10.1201 P   0  0  0  0  0  0  0  0  0  0  0  0
   -5.1739   19.6175   -8.7394 O   0  0  0  0  0  0  0  0  0  0  0  0
   -6.4014   19.4224  -10.8731 O   0  0  0  0  0  0  0  0  0  0  0  0
   -4.0401   20.1301  -10.8686 O   0  0  0  0  0  0  0  0  0  0  0  0
   -7.2432   19.4672  -10.3932 H   0  0  0  0  0  0  0  0  0  0  0  0
   -3.3644   20.6304  -10.3849 H   0  0  0  0  0  0  0  0  0  0  0  0
 12 13  1  0  0  0
 13  1  1  0  0  0
  1  2  1  0  0  0
  1  3  1  0  0  0
  1  8  1  0  0  0
  3  4  1  0  0  0
  3  5  1  0  0  0
  5  6  1  0  0  0
  5  7  1  0  0  0
  7  8  1  0  0  0
  7 15  1  0  0  0
 15 16  1  0  0  0
 16 17  1  0  0  0
 17 18  2  0  0  0
 17 19  1  0  0  0
 17 20  1  0  0  0
 12 14  1  0  0  0
  2  9  1  0  0  0
  4 10  1  0  0  0
  6 11  1  0  0  0
 19 21  1  0  0  0
 20 22  1  0  0  0
M  END
> <minimizedAffinity>
-8.27486

$$$$
4R74_F6P_A_401


 22 22  0  0  0  0  0  0  0  0999 V2000
   -8.9175   23.4446   -9.6357 C   0  0  0  0  0  0  0  0  0  0  0  0
  -10.0740   24.1880   -9.8337 O   0  0  0  0  0  0  0  0  0  0  0  0
   -9.0490   22.7057   -8.3895 C   0  0  0  0  0  0  0  0  0  0  0  0
  -10.0027   23.2744   -7.5725 O   0  0  0  0  0  0  0  0  0  0  0  0
   -9.4839   21.3705   -8.8385 C   0  0  0  0  0  0  0  0  0  0  0  0
   -9.1373   20.4428   -7.8865 O   0  0  0  0  0  0  0  0  0  0  0  0
   -8.6641   21.2110  -10.0720 C   0  0  0  0  0  0  0  0  0  0  0  0
   -8.7404   22.4412  -10.7058 O   0  0  0  0  0  0  0  0  0  0  0  0
  -10.1669   24.8378   -9.1196 H   0  0  0  0  0  0  0  0  0  0  0  0
  -10.8498   23.3142   -8.0434 H   0  0  0  0  0  0  0  0  0  0  0  0
   -8.1874   20.5085   -7.7017 H   0  0  0  0  0  0  0  0  0  0  0  0
   -7.4200   24.9125   -8.3946 O   0  0  0  0  0  0  0  0  0  0  0  0
   -7.7353   24.3685   -9.6244 C   0  0  0  0  0  0  0  0  0  0  0  0
   -6.6476   25.4922   -8.4860 H   0  0  0  0  0  0  0  0  0  0  0  0
   -9.0834   20.1317  -11.0168 C   0  0  0  0  0  0  0  0  0  0  0  0
   -8.1227   19.1505  -11.1658 O   0  0  0  0  0  0  0  0  0  0  0  0
   -6.8253   19.3570  -12.0018 P   0  0  0  0  0  0  0  0  0  0  0  0
   -5.6215   19.0243  -11.1544 O   0  0  0  0  0  0  0  0  0  0  0  0
   -6.8486   18.4760  -13.2259 O   0  0  0  0  0  0  0  0  0  0  0  0
   -6.7571   20.8060  -12.4263 O   0  0  0  0  0  0  0  0  0  0  0  0
   -6.8924   17.5459  -12.9541 H   0  0  0  0  0  0  0  0  0  0  0  0
   -6.7420   21.3731  -11.6395 H   0  0  0  0  0  0  0  0  0  0  0  0
 12 13  1  0  0  0
 13  1  1  0  0  0
  1  2  1  0  0  0
  1  3  1  0  0  0
  1  8  1  0  0  0
  3  4  1  0  0  0
  3  5  1  0  0  0
  5  6  1  0  0  0
  5  7  1  0  0  0
  7  8  1  0  0  0
  7 15  1  0  0  0
 15 16  1  0  0  0
 16 17  1  0  0  0
 17 18  2  0  0  0
 17 19  1  0  0  0
 17 20  1  0  0  0
 12 14  1  0  0  0
  2  9  1  0  0  0
  4 10  1  0  0  0
  6 11  1  0  0  0
 19 21  1  0  0  0
 20 22  1  0  0  0
M  END
> <minimizedAffinity>
-8.25314

$$$$
4R74_F6P_A_401


 22 22  0  0  0  0  0  0  0  0999 V2000
   -8.5222   23.6179   -9.5326 C   0  0  0  0  0  0  0  0  0  0  0  0
   -8.1004   24.6899  -10.3085 O   0  0  0  0  0  0  0  0  0  0  0  0
   -9.8519   23.2229   -9.9712 C   0  0  0  0  0  0  0  0  0  0  0  0
  -10.4744   24.2460  -10.6541 O   0  0  0  0  0  0  0  0  0  0  0  0
   -9.5815   22.0893  -10.8742 C   0  0  0  0  0  0  0  0  0  0  0  0
  -10.6971   21.2902  -10.9365 O   0  0  0  0  0  0  0  0  0  0  0  0
   -8.4720   21.4123  -10.1464 C   0  0  0  0  0  0  0  0  0  0  0  0
   -7.6466   22.4436   -9.7267 O   0  0  0  0  0  0  0  0  0  0  0  0
   -8.6903   25.4461  -10.1631 H   0  0  0  0  0  0  0  0  0  0  0  0
   -9.9253   24.5127  -11.4078 H   0  0  0  0  0  0  0  0  0  0  0  0
  -10.9580   21.0287  -10.0396 H   0  0  0  0  0  0  0  0  0  0  0  0
   -9.2818   25.1078   -7.7603 O   0  0  0  0  0  0  0  0  0  0  0  0
   -8.4983   24.0181   -8.0867 C   0  0  0  0  0  0  0  0  0  0  0  0
   -9.2026   25.2902   -6.8109 H   0  0  0  0  0  0  0  0  0  0  0  0
   -7.6752   20.4149  -10.9233 C   0  0  0  0  0  0  0  0  0  0  0  0
   -6.6055   19.9132  -10.2079 O   0  0  0  0  0  0  0  0  0  0  0  0
   -5.1673   20.5008  -10.3131 P   0  0  0  0  0  0  0  0  0  0  0  0
   -4.2106   19.4170  -10.7467 O   0  0  0  0  0  0  0  0  0  0  0  0
   -5.1395   21.6355  -11.3065 O   0  0  0  0  0  0  0  0  0  0  0  0
   -4.7615   21.0150   -8.9509 O   0  0  0  0  0  0  0  0  0  0  0  0
   -5.3999   21.3061  -12.1809 H   0  0  0  0  0  0  0  0  0  0  0  0
   -4.7792   20.2857   -8.3116 H   0  0  0  0  0  0  0  0  0  0  0  0
 12 13  1  0  0  0
 13  1  1  0  0  0
  1  2  1  0  0  0
  1  3  1  0  0  0
  1  8  1  0  0  0
  3  4  1  0  0  0
  3  5  1  0  0  0
  5  6  1  0  0  0
  5  7  1  0  0  0
  7  8  1  0  0  0
  7 15  1  0  0  0
 15 16  1  0  0  0
 16 17  1  0  0  0
 17 18  2  0  0  0
 17 19  1  0  0  0
 17 20  1  0  0  0
 12 14  1  0  0  0
  2  9  1  0  0  0
  4 10  1  0  0  0
  6 11  1  0  0  0
 19 21  1  0  0  0
 20 22  1  0  0  0
M  END
> <minimizedAffinity>
-8.20861

$$$$
4R74_F6P_A_401


 22 22  0  0  0  0  0  0  0  0999 V2000
   -6.3181   20.5556   -9.9860 C   0  0  0  0  0  0  0  0  0  0  0  0
   -6.0162   19.3313   -9.4035 O   0  0  0  0  0  0  0  0  0  0  0  0
   -7.4292   20.3696  -10.9065 C   0  0  0  0  0  0  0  0  0  0  0  0
   -7.5496   19.0481  -11.2800 O   0  0  0  0  0  0  0  0  0  0  0  0
   -8.5960   20.7887  -10.1086 C   0  0  0  0  0  0  0  0  0  0  0  0
   -9.6019   21.1812  -10.9580 O   0  0  0  0  0  0  0  0  0  0  0  0
   -8.0264   21.9515   -9.3720 C   0  0  0  0  0  0  0  0  0  0  0  0
   -6.7680   21.5309   -8.9713 O   0  0  0  0  0  0  0  0  0  0  0  0
   -5.7241   18.7104  -10.0891 H   0  0  0  0  0  0  0  0  0  0  0  0
   -7.6581   18.4971  -10.4891 H   0  0  0  0  0  0  0  0  0  0  0  0
   -9.2681   21.8642  -11.5605 H   0  0  0  0  0  0  0  0  0  0  0  0
   -3.9888   20.2615  -10.6386 O   0  0  0  0  0  0  0  0  0  0  0  0
   -5.0954   21.0873  -10.6742 C   0  0  0  0  0  0  0  0  0  0  0  0
   -3.2528   20.6868  -11.1059 H   0  0  0  0  0  0  0  0  0  0  0  0
   -8.7973   22.4323   -8.1856 C   0  0  0  0  0  0  0  0  0  0  0  0
  -10.0815   22.8259   -8.5078 O   0  0  0  0  0  0  0  0  0  0  0  0
  -10.4017   24.1842   -9.1987 P   0  0  0  0  0  0  0  0  0  0  0  0
  -10.3278   24.0172  -10.6969 O   0  0  0  0  0  0  0  0  0  0  0  0
  -11.7782   24.6578   -8.8038 O   0  0  0  0  0  0  0  0  0  0  0  0
   -9.3739   25.1993   -8.7541 O   0  0  0  0  0  0  0  0  0  0  0  0
  -12.4383   24.0067   -9.0889 H   0  0  0  0  0  0  0  0  0  0  0  0
   -8.4884   24.8953   -9.0078 H   0  0  0  0  0  0  0  0  0  0  0  0
 12 13  1  0  0  0
 13  1  1  0  0  0
  1  2  1  0  0  0
  1  3  1  0  0  0
  1  8  1  0  0  0
  3  4  1  0  0  0
  3  5  1  0  0  0
  5  6  1  0  0  0
  5  7  1  0  0  0
  7  8  1  0  0  0
  7 15  1  0  0  0
 15 16  1  0  0  0
 16 17  1  0  0  0
 17 18  2  0  0  0
 17 19  1  0  0  0
 17 20  1  0  0  0
 12 14  1  0  0  0
  2  9  1  0  0  0
  4 10  1  0  0  0
  6 11  1  0  0  0
 19 21  1  0  0  0
 20 22  1  0  0  0
M  END
> <minimizedAffinity>
-8.19092

$$$$
4R74_F6P_A_401


 22 22  0  0  0  0  0  0  0  0999 V2000
   -7.8106   23.7069   -9.3369 C   0  0  0  0  0  0  0  0  0  0  0  0
   -7.3234   24.8542   -9.9498 O   0  0  0  0  0  0  0  0  0  0  0  0
   -9.1628   23.9698   -8.8690 C   0  0  0  0  0  0  0  0  0  0  0  0
   -9.3904   25.3235   -8.7415 O   0  0  0  0  0  0  0  0  0  0  0  0
  -10.0019   23.4042   -9.9411 C   0  0  0  0  0  0  0  0  0  0  0  0
  -11.2354   23.0888   -9.4253 O   0  0  0  0  0  0  0  0  0  0  0  0
   -9.2288   22.1771  -10.2815 C   0  0  0  0  0  0  0  0  0  0  0  0
   -7.9057   22.5893  -10.2988 O   0  0  0  0  0  0  0  0  0  0  0  0
   -7.2708   25.5712   -9.2987 H   0  0  0  0  0  0  0  0  0  0  0  0
   -9.2262   25.7605   -9.5918 H   0  0  0  0  0  0  0  0  0  0  0  0
  -11.1256   22.5049   -8.6586 H   0  0  0  0  0  0  0  0  0  0  0  0
   -6.2511   22.1033   -8.3705 O   0  0  0  0  0  0  0  0  0  0  0  0
   -6.8896   23.3185   -8.2180 C   0  0  0  0  0  0  0  0  0  0  0  0
   -5.6809   21.9390   -7.6031 H   0  0  0  0  0  0  0  0  0  0  0  0
   -9.5660   21.5142  -11.5776 C   0  0  0  0  0  0  0  0  0  0  0  0
   -8.4573   20.9898  -12.2128 O   0  0  0  0  0  0  0  0  0  0  0  0
   -7.7901   19.6504  -11.7818 P   0  0  0  0  0  0  0  0  0  0  0  0
   -8.8389   18.7242  -11.2159 O   0  0  0  0  0  0  0  0  0  0  0  0
   -7.1169   18.9996  -12.9643 O   0  0  0  0  0  0  0  0  0  0  0  0
   -6.7585   19.9518  -10.7190 O   0  0  0  0  0  0  0  0  0  0  0  0
   -7.7785   18.8059  -13.6467 H   0  0  0  0  0  0  0  0  0  0  0  0
   -7.1909   20.3704   -9.9582 H   0  0  0  0  0  0  0  0  0  0  0  0
 12 13  1  0  0  0
 13  1  1  0  0  0
  1  2  1  0  0  0
  1  3  1  0  0  0
  1  8  1  0  0  0
  3  4  1  0  0  0
  3  5  1  0  0  0
  5  6  1  0  0  0
  5  7  1  0  0  0
  7  8  1  0  0  0
  7 15  1  0  0  0
 15 16  1  0  0  0
 16 17  1  0  0  0
 17 18  2  0  0  0
 17 19  1  0  0  0
 17 20  1  0  0  0
 12 14  1  0  0  0
  2  9  1  0  0  0
  4 10  1  0  0  0
  6 11  1  0  0  0
 19 21  1  0  0  0
 20 22  1  0  0  0
M  END
> <minimizedAffinity>
-8.07036

$$$$
4R74_F6P_A_401


 22 22  0  0  0  0  0  0  0  0999 V2000
   -7.9407   23.4630   -9.4195 C   0  0  0  0  0  0  0  0  0  0  0  0
   -7.6376   24.5611  -10.2142 O   0  0  0  0  0  0  0  0  0  0  0  0
   -9.3548   23.5116   -9.0812 C   0  0  0  0  0  0  0  0  0  0  0  0
   -9.8571   24.7872   -9.2267 O   0  0  0  0  0  0  0  0  0  0  0  0
   -9.9645   22.6013  -10.0676 C   0  0  0  0  0  0  0  0  0  0  0  0
  -11.1523   22.1276   -9.5658 O   0  0  0  0  0  0  0  0  0  0  0  0
   -8.9357   21.5256  -10.1268 C   0  0  0  0  0  0  0  0  0  0  0  0
   -7.7247   22.1991  -10.1538 O   0  0  0  0  0  0  0  0  0  0  0  0
   -7.7874   25.3762   -9.7102 H   0  0  0  0  0  0  0  0  0  0  0  0
   -9.7069   25.0922  -10.1351 H   0  0  0  0  0  0  0  0  0  0  0  0
  -10.9985   21.7246   -8.6970 H   0  0  0  0  0  0  0  0  0  0  0  0
   -6.2188   22.3995   -8.0623 O   0  0  0  0  0  0  0  0  0  0  0  0
   -7.0658   23.4818   -8.2008 C   0  0  0  0  0  0  0  0  0  0  0  0
   -5.6966   22.4994   -7.2510 H   0  0  0  0  0  0  0  0  0  0  0  0
   -9.0161   20.5886  -11.2881 C   0  0  0  0  0  0  0  0  0  0  0  0
   -8.1355   19.5298  -11.1812 O   0  0  0  0  0  0  0  0  0  0  0  0
   -6.8212   19.4356  -12.0109 P   0  0  0  0  0  0  0  0  0  0  0  0
   -7.0419   18.5383  -13.2042 O   0  0  0  0  0  0  0  0  0  0  0  0
   -6.3978   20.8074  -12.4735 O   0  0  0  0  0  0  0  0  0  0  0  0
   -5.7428   18.8466  -11.1308 O   0  0  0  0  0  0  0  0  0  0  0  0
   -7.0895   21.1860  -13.0383 H   0  0  0  0  0  0  0  0  0  0  0  0
   -6.0146   17.9644  -10.8329 H   0  0  0  0  0  0  0  0  0  0  0  0
 12 13  1  0  0  0
 13  1  1  0  0  0
  1  2  1  0  0  0
  1  3  1  0  0  0
  1  8  1  0  0  0
  3  4  1  0  0  0
  3  5  1  0  0  0
  5  6  1  0  0  0
  5  7  1  0  0  0
  7  8  1  0  0  0
  7 15  1  0  0  0
 15 16  1  0  0  0
 16 17  1  0  0  0
 17 18  2  0  0  0
 17 19  1  0  0  0
 17 20  1  0  0  0
 12 14  1  0  0  0
  2  9  1  0  0  0
  4 10  1  0  0  0
  6 11  1  0  0  0
 19 21  1  0  0  0
 20 22  1  0  0  0
M  END
> <minimizedAffinity>
-8.01623

$$$$
