3D2E_ATP_A_1001
  RCSB PDB12061708153D
Coordinates from PDB:3D2E:A:1001 Model:1 without hydrogens
 31 33  0  0  0  0            999 V2000
   88.2830   75.8590  182.1110   P 0  0  0  0  0  0  0  0  0  0  0  0
   89.2420   75.5350  183.2250   O 0  0  0  0  0  0  0  0  0  0  0  0
   88.8280   75.3100  180.8380   O 0  0  0  0  0  0  0  0  0  0  0  0
   86.8260   75.5800  182.3340   O 0  0  0  0  0  0  0  0  0  0  0  0
   87.5300   78.6660  182.7590   P 0  0  0  0  0  0  0  0  0  0  0  0
   88.5480   79.4760  183.4680   O 0  0  0  0  0  0  0  0  0  0  0  0
   86.4020   78.0720  183.5760   O 0  0  0  0  0  0  0  0  0  0  0  0
   88.3630   77.4920  181.9610   O 0  0  0  0  0  0  0  0  0  0  0  0
   85.6650   80.3020  181.2070   P 0  0  0  0  0  0  0  0  0  0  0  0
   85.4640   81.2220  182.3710   O 0  0  0  0  0  0  0  0  0  0  0  0
   84.5300   79.3940  180.7310   O 0  0  0  0  0  0  0  0  0  0  0  0
   86.9870   79.4280  181.4420   O 0  0  0  0  0  0  0  0  0  0  0  0
   85.9990   81.1680  179.9120   O 0  0  0  0  0  0  0  0  0  0  0  0
   87.1140   82.0470  179.8260   C 0  0  0  0  0  0  0  0  0  0  0  0
   87.5510   81.9130  178.3820   C 0  0  0  0  0  0  0  0  0  0  0  0
   86.4420   82.3220  177.5560   O 0  0  0  0  0  0  0  0  0  0  0  0
   88.7260   82.8150  178.0450   C 0  0  0  0  0  0  0  0  0  0  0  0
   89.5530   82.1360  177.1060   O 0  0  0  0  0  0  0  0  0  0  0  0
   88.0670   83.9860  177.3480   C 0  0  0  0  0  0  0  0  0  0  0  0
   88.9230   84.5660  176.3980   O 0  0  0  0  0  0  0  0  0  0  0  0
   86.9080   83.3340  176.6360   C 0  0  0  0  0  0  0  0  0  0  0  0
   85.8820   84.3400  176.3080   N 0  0  0  0  0  0  0  0  0  0  0  0
   85.2140   85.0830  177.2090   C 0  0  0  0  0  0  0  0  0  0  0  0
   84.3390   85.9070  176.6020   N 0  0  0  0  0  0  0  0  0  0  0  0
   84.4510   85.7020  175.2710   C 0  0  0  0  0  0  0  0  0  0  0  0
   83.8020   86.2510  174.0490   C 0  0  0  0  0  0  0  0  0  0  0  0
   82.8480   87.2040  174.1490   N 0  0  0  0  0  0  0  0  0  0  0  0
   84.2040   85.7600  172.8510   N 0  0  0  0  0  0  0  0  0  0  0  0
   85.1610   84.7920  172.7490   C 0  0  0  0  0  0  0  0  0  0  0  0
   85.7740   84.2390  173.8150   N 0  0  0  0  0  0  0  0  0  0  0  0
   85.4700   84.6520  175.0790   C 0  0  0  0  0  0  0  0  0  0  0  0
  1  2  2  0  0  0  0
  1  3  1  0  0  0  0
  1  4  1  0  0  0  0
  1  8  1  0  0  0  0
  5  6  2  0  0  0  0
  5  7  1  0  0  0  0
  5  8  1  0  0  0  0
  5 12  1  0  0  0  0
  9 10  2  0  0  0  0
  9 11  1  0  0  0  0
  9 12  1  0  0  0  0
  9 13  1  0  0  0  0
 13 14  1  0  0  0  0
 14 15  1  0  0  0  0
 15 16  1  0  0  0  0
 15 17  1  0  0  0  0
 16 21  1  0  0  0  0
 17 18  1  0  0  0  0
 17 19  1  0  0  0  0
 19 20  1  0  0  0  0
 19 21  1  0  0  0  0
 21 22  1  0  0  0  0
 22 23  1  0  0  0  0
 22 31  1  0  0  0  0
 23 24  2  0  0  0  0
 24 25  1  0  0  0  0
 25 26  1  0  0  0  0
 25 31  2  0  0  0  0
 26 27  1  0  0  0  0
 26 28  2  0  0  0  0
 28 29  1  0  0  0  0
 29 30  2  0  0  0  0
 30 31  1  0  0  0  0
A    1
PG
A    2
O1G
A    3
O2G
A    4
O3G
A    5
PB
A    6
O1B
A    7
O2B
A    8
O3B
A    9
PA
A   10
O1A
A   11
O2A
A   12
O3A
A   13
O5'
A   14
C5'
A   15
C4'
A   16
O4'
A   17
C3'
A   18
O3'
A   19
C2'
A   20
O2'
A   21
C1'
A   22
N9
A   23
C8
A   24
N7
A   25
C5
A   26
C6
A   27
N6
A   28
N1
A   29
C2
A   30
N3
A   31
C4
M  END
>  <InstanceId>
3D2E_ATP_A_1001

>  <ChemCompId>
ATP

>  <PdbId>
3D2E

>  <ChainId>
A

>  <ResidueNumber>
1001

>  <InsertionCode>


>  <Model>
1

>  <AltIds>


>  <MissingHeavyAtoms>
0

>  <ObservedFormula>
C10 N5 O13 P3

>  <Name>
ADENOSINE-5'-TRIPHOSPHATE

>  <SystematicName>
[[(2R,3S,4R,5R)-5-(6-aminopurin-9-yl)-3,4-dihydroxy-oxolan-2-yl]methoxy-hydroxy-phosphoryl] phosphono hydrogen phosphate

>  <Synonyms>


>  <Type>
NON-POLYMER

>  <Formula>
C10 H16 N5 O13 P3

>  <MolecularWeight>
507.181

>  <ModifiedDate>
2011-06-04

>  <Parent>


>  <OneLetterCode>


>  <SubcomponentList>


>  <AmbiguousFlag>
N

>  <InChI>
InChI=1S/C10H16N5O13P3/c11-8-5-9(13-2-12-8)15(3-14-5)10-7(17)6(16)4(26-10)1-25-30(21,22)28-31(23,24)27-29(18,19)20/h2-4,6-7,10,16-17H,1H2,(H,21,22)(H,23,24)(H2,11,12,13)(H2,18,19,20)/t4-,6-,7-,10-/m1/s1

>  <InChIKey>
ZKHQWZAMYRWXGA-KQYNXXCUSA-N

>  <SMILES>
c1nc(c2c(n1)n(cn2)[C@H]3[C@@H]([C@@H]([C@H](O3)CO[P@@](=O)(O)O[P@](=O)(O)OP(=O)(O)O)O)O)N

$$$$
