5KAB_OTA_A_306


 22 23  0  0  0  0  0  0  0  0999 V2000
   34.6940  -11.9603  -18.4171 N   0  0  0  0  0  0  0  0  0  0  0  0
   33.7646  -11.2051  -17.6216 C   0  0  0  0  0  0  0  0  0  0  0  0
   32.4313  -11.8456  -17.2495 C   0  0  0  0  0  0  0  0  0  0  0  0
   32.0776  -13.0301  -17.9631 C   0  0  0  0  0  0  0  0  0  0  0  0
   32.9495  -13.6089  -19.0116 C   0  0  0  0  0  0  0  0  0  0  0  0
   34.1661  -12.8727  -19.4230 C   0  0  0  0  0  0  0  0  0  0  0  0
   31.3066  -11.4743  -16.2174 S   0  0  0  0  0  0  0  0  0  0  0  0
   30.2458  -12.6084  -16.4069 C   0  0  0  0  0  0  0  0  0  0  0  0
   30.6836  -13.5042  -17.4280 C   0  0  0  0  0  0  0  0  0  0  0  0
   35.2594  -12.5150  -17.7744 H   0  0  0  0  0  0  0  0  0  0  0  0
   29.9121  -14.7524  -17.9664 C   0  0  0  0  0  0  0  0  0  0  0  0
   29.4640  -15.5988  -17.1416 O   0  0  0  0  0  0  0  0  0  0  0  0
   29.7171  -14.8904  -19.2550 O   0  0  0  0  0  0  0  0  0  0  0  0
   29.6136  -15.4832  -16.2239 H   0  0  0  0  0  0  0  0  0  0  0  0
   28.9915  -12.7766  -15.7642 N   0  0  0  0  0  0  0  0  0  0  0  0
   28.6682  -12.5951  -14.4075 C   0  0  0  0  0  0  0  0  0  0  0  0
   29.4976  -12.3010  -13.4948 O   0  0  0  0  0  0  0  0  0  0  0  0
   28.2486  -13.0578  -16.3458 H   0  0  0  0  0  0  0  0  0  0  0  0
   27.1946  -12.8019  -14.0929 C   0  0  0  0  0  0  0  0  0  0  0  0
   26.8700  -13.9732  -13.6309 O   0  0  0  0  0  0  0  0  0  0  0  0
   26.3664  -11.8473  -14.2558 O   0  0  0  0  0  0  0  0  0  0  0  0
   27.5248  -14.6363  -13.5333 H   0  0  0  0  0  0  0  0  0  0  0  0
  1  2  1  0  0  0
  1  6  1  0  0  0
  2  3  1  0  0  0
  3  4  2  0  0  0
  3  7  1  0  0  0
  4  5  1  0  0  0
  4  9  1  0  0  0
  5  6  1  0  0  0
  7  8  1  0  0  0
  8  9  2  0  0  0
  8 15  1  0  0  0
  9 11  1  0  0  0
 11 12  1  0  0  0
 11 13  2  0  0  0
 15 16  1  0  0  0
 16 19  1  0  0  0
 16 17  2  0  0  0
 19 20  1  0  0  0
 19 21  2  0  0  0
  1 10  1  0  0  0
 12 14  1  0  0  0
 15 18  1  0  0  0
 20 22  1  0  0  0
M  END
> <minimizedAffinity>
-6.77583

$$$$
5KAB_OTA_A_306


 22 23  0  0  0  0  0  0  0  0999 V2000
   31.5751  -10.7172  -17.5689 N   0  0  0  0  0  0  0  0  0  0  0  0
   30.3353  -10.7828  -18.2938 C   0  0  0  0  0  0  0  0  0  0  0  0
   29.0851  -11.2615  -17.5628 C   0  0  0  0  0  0  0  0  0  0  0  0
   29.2935  -11.8907  -16.2987 C   0  0  0  0  0  0  0  0  0  0  0  0
   30.6462  -12.0765  -15.7239 C   0  0  0  0  0  0  0  0  0  0  0  0
   31.8293  -11.7129  -16.5359 C   0  0  0  0  0  0  0  0  0  0  0  0
   27.5527  -11.2229  -17.9069 S   0  0  0  0  0  0  0  0  0  0  0  0
   26.8812  -11.9018  -16.6677 C   0  0  0  0  0  0  0  0  0  0  0  0
   27.8890  -12.3025  -15.7398 C   0  0  0  0  0  0  0  0  0  0  0  0
   31.6140   -9.8017  -17.1209 H   0  0  0  0  0  0  0  0  0  0  0  0
   27.6653  -13.0530  -14.3872 C   0  0  0  0  0  0  0  0  0  0  0  0
   26.7041  -12.7042  -13.6443 O   0  0  0  0  0  0  0  0  0  0  0  0
   28.4546  -14.0455  -14.0560 O   0  0  0  0  0  0  0  0  0  0  0  0
   26.1505  -11.9921  -13.8979 H   0  0  0  0  0  0  0  0  0  0  0  0
   25.5091  -12.1794  -16.4338 N   0  0  0  0  0  0  0  0  0  0  0  0
   24.8299  -13.4061  -16.5426 C   0  0  0  0  0  0  0  0  0  0  0  0
   25.3474  -14.4912  -16.9456 O   0  0  0  0  0  0  0  0  0  0  0  0
   24.9592  -11.4104  -16.1588 H   0  0  0  0  0  0  0  0  0  0  0  0
   23.3640  -13.3358  -16.1434 C   0  0  0  0  0  0  0  0  0  0  0  0
   22.7047  -14.4551  -16.1980 O   0  0  0  0  0  0  0  0  0  0  0  0
   22.8604  -12.2321  -15.7533 O   0  0  0  0  0  0  0  0  0  0  0  0
   23.1303  -15.2356  -16.4941 H   0  0  0  0  0  0  0  0  0  0  0  0
  1  2  1  0  0  0
  1  6  1  0  0  0
  2  3  1  0  0  0
  3  4  2  0  0  0
  3  7  1  0  0  0
  4  5  1  0  0  0
  4  9  1  0  0  0
  5  6  1  0  0  0
  7  8  1  0  0  0
  8  9  2  0  0  0
  8 15  1  0  0  0
  9 11  1  0  0  0
 11 12  1  0  0  0
 11 13  2  0  0  0
 15 16  1  0  0  0
 16 19  1  0  0  0
 16 17  2  0  0  0
 19 20  1  0  0  0
 19 21  2  0  0  0
  1 10  1  0  0  0
 12 14  1  0  0  0
 15 18  1  0  0  0
 20 22  1  0  0  0
M  END
> <minimizedAffinity>
-6.73346

$$$$
5KAB_OTA_A_306


 22 23  0  0  0  0  0  0  0  0999 V2000
   31.3161  -10.9816  -17.1787 N   0  0  0  0  0  0  0  0  0  0  0  0
   30.5350  -11.7081  -18.1425 C   0  0  0  0  0  0  0  0  0  0  0  0
   29.1792  -12.2623  -17.7170 C   0  0  0  0  0  0  0  0  0  0  0  0
   28.9141  -12.2777  -16.3146 C   0  0  0  0  0  0  0  0  0  0  0  0
   29.8979  -11.7888  -15.3208 C   0  0  0  0  0  0  0  0  0  0  0  0
   31.2462  -11.3865  -15.7808 C   0  0  0  0  0  0  0  0  0  0  0  0
   27.9580  -12.8531  -18.5095 S   0  0  0  0  0  0  0  0  0  0  0  0
   26.9282  -13.2067  -17.3862 C   0  0  0  0  0  0  0  0  0  0  0  0
   27.4851  -12.8871  -16.1116 C   0  0  0  0  0  0  0  0  0  0  0  0
   31.0206  -10.0065  -17.2250 H   0  0  0  0  0  0  0  0  0  0  0  0
   26.8155  -13.1160  -14.7180 C   0  0  0  0  0  0  0  0  0  0  0  0
   27.0827  -14.1710  -14.0754 O   0  0  0  0  0  0  0  0  0  0  0  0
   26.0130  -12.2049  -14.2246 O   0  0  0  0  0  0  0  0  0  0  0  0
   27.6589  -14.8112  -14.4446 H   0  0  0  0  0  0  0  0  0  0  0  0
   25.6479  -13.8082  -17.5034 N   0  0  0  0  0  0  0  0  0  0  0  0
   25.3116  -15.1732  -17.4636 C   0  0  0  0  0  0  0  0  0  0  0  0
   26.1440  -16.1256  -17.3761 O   0  0  0  0  0  0  0  0  0  0  0  0
   24.8947  -13.1869  -17.6295 H   0  0  0  0  0  0  0  0  0  0  0  0
   23.8174  -15.4420  -17.5543 C   0  0  0  0  0  0  0  0  0  0  0  0
   23.4147  -16.5846  -17.0824 O   0  0  0  0  0  0  0  0  0  0  0  0
   23.0379  -14.5592  -18.0411 O   0  0  0  0  0  0  0  0  0  0  0  0
   24.0368  -17.1942  -16.7369 H   0  0  0  0  0  0  0  0  0  0  0  0
  1  2  1  0  0  0
  1  6  1  0  0  0
  2  3  1  0  0  0
  3  4  2  0  0  0
  3  7  1  0  0  0
  4  5  1  0  0  0
  4  9  1  0  0  0
  5  6  1  0  0  0
  7  8  1  0  0  0
  8  9  2  0  0  0
  8 15  1  0  0  0
  9 11  1  0  0  0
 11 12  1  0  0  0
 11 13  2  0  0  0
 15 16  1  0  0  0
 16 19  1  0  0  0
 16 17  2  0  0  0
 19 20  1  0  0  0
 19 21  2  0  0  0
  1 10  1  0  0  0
 12 14  1  0  0  0
 15 18  1  0  0  0
 20 22  1  0  0  0
M  END
> <minimizedAffinity>
-6.71729

$$$$
5KAB_OTA_A_306


 22 23  0  0  0  0  0  0  0  0999 V2000
   32.7243  -10.3316  -18.0980 N   0  0  0  0  0  0  0  0  0  0  0  0
   31.5196  -10.7628  -18.7534 C   0  0  0  0  0  0  0  0  0  0  0  0
   30.3959  -11.3503  -17.9057 C   0  0  0  0  0  0  0  0  0  0  0  0
   30.7339  -11.7040  -16.5648 C   0  0  0  0  0  0  0  0  0  0  0  0
   32.0992  -11.5182  -16.0206 C   0  0  0  0  0  0  0  0  0  0  0  0
   33.1800  -11.0689  -16.9268 C   0  0  0  0  0  0  0  0  0  0  0  0
   28.8855  -11.6750  -18.1912 S   0  0  0  0  0  0  0  0  0  0  0  0
   28.3718  -12.2555  -16.8324 C   0  0  0  0  0  0  0  0  0  0  0  0
   29.4447  -12.2864  -15.8916 C   0  0  0  0  0  0  0  0  0  0  0  0
   32.5797   -9.3645  -17.8077 H   0  0  0  0  0  0  0  0  0  0  0  0
   29.3845  -12.8282  -14.4268 C   0  0  0  0  0  0  0  0  0  0  0  0
   29.0558  -14.0329  -14.2318 O   0  0  0  0  0  0  0  0  0  0  0  0
   29.7001  -12.0399  -13.4284 O   0  0  0  0  0  0  0  0  0  0  0  0
   28.8334  -14.5813  -14.9583 H   0  0  0  0  0  0  0  0  0  0  0  0
   27.0854  -12.7566  -16.5029 N   0  0  0  0  0  0  0  0  0  0  0  0
   25.8477  -12.0894  -16.5361 C   0  0  0  0  0  0  0  0  0  0  0  0
   25.6892  -10.8634  -16.8176 O   0  0  0  0  0  0  0  0  0  0  0  0
   27.0554  -13.6967  -16.2123 H   0  0  0  0  0  0  0  0  0  0  0  0
   24.6624  -12.9729  -16.1787 C   0  0  0  0  0  0  0  0  0  0  0  0
   23.6191  -12.3604  -15.7021 O   0  0  0  0  0  0  0  0  0  0  0  0
   24.7184  -14.2297  -16.3809 O   0  0  0  0  0  0  0  0  0  0  0  0
   23.6381  -11.4323  -15.5752 H   0  0  0  0  0  0  0  0  0  0  0  0
  1  2  1  0  0  0
  1  6  1  0  0  0
  2  3  1  0  0  0
  3  4  2  0  0  0
  3  7  1  0  0  0
  4  5  1  0  0  0
  4  9  1  0  0  0
  5  6  1  0  0  0
  7  8  1  0  0  0
  8  9  2  0  0  0
  8 15  1  0  0  0
  9 11  1  0  0  0
 11 12  1  0  0  0
 11 13  2  0  0  0
 15 16  1  0  0  0
 16 19  1  0  0  0
 16 17  2  0  0  0
 19 20  1  0  0  0
 19 21  2  0  0  0
  1 10  1  0  0  0
 12 14  1  0  0  0
 15 18  1  0  0  0
 20 22  1  0  0  0
M  END
> <minimizedAffinity>
-6.45428

$$$$
5KAB_OTA_A_306


 22 23  0  0  0  0  0  0  0  0999 V2000
   24.2862  -17.2010  -18.8038 N   0  0  0  0  0  0  0  0  0  0  0  0
   25.6872  -16.8791  -18.7801 C   0  0  0  0  0  0  0  0  0  0  0  0
   26.1660  -15.7645  -17.8555 C   0  0  0  0  0  0  0  0  0  0  0  0
   25.1542  -14.9233  -17.3023 C   0  0  0  0  0  0  0  0  0  0  0  0
   23.7171  -15.1128  -17.6080 C   0  0  0  0  0  0  0  0  0  0  0  0
   23.3228  -16.1245  -18.6141 C   0  0  0  0  0  0  0  0  0  0  0  0
   27.5853  -15.3092  -17.3592 S   0  0  0  0  0  0  0  0  0  0  0  0
   27.2748  -14.0932  -16.4253 C   0  0  0  0  0  0  0  0  0  0  0  0
   25.8673  -13.8583  -16.4012 C   0  0  0  0  0  0  0  0  0  0  0  0
   24.1220  -17.8858  -18.0658 H   0  0  0  0  0  0  0  0  0  0  0  0
   25.1256  -12.7186  -15.6306 C   0  0  0  0  0  0  0  0  0  0  0  0
   25.6165  -12.2909  -14.5473 O   0  0  0  0  0  0  0  0  0  0  0  0
   24.0269  -12.2055  -16.1279 O   0  0  0  0  0  0  0  0  0  0  0  0
   26.4029  -12.6703  -14.2073 H   0  0  0  0  0  0  0  0  0  0  0  0
   28.1763  -13.2535  -15.7204 N   0  0  0  0  0  0  0  0  0  0  0  0
   28.8327  -13.4971  -14.5007 C   0  0  0  0  0  0  0  0  0  0  0  0
   28.6653  -14.5243  -13.7766 O   0  0  0  0  0  0  0  0  0  0  0  0
   28.3677  -12.3844  -16.1416 H   0  0  0  0  0  0  0  0  0  0  0  0
   29.7855  -12.3879  -14.0821 C   0  0  0  0  0  0  0  0  0  0  0  0
   30.1107  -12.3616  -12.8235 O   0  0  0  0  0  0  0  0  0  0  0  0
   30.2399  -11.5742  -14.9512 O   0  0  0  0  0  0  0  0  0  0  0  0
   29.7427  -12.9875  -12.2313 H   0  0  0  0  0  0  0  0  0  0  0  0
  1  2  1  0  0  0
  1  6  1  0  0  0
  2  3  1  0  0  0
  3  4  2  0  0  0
  3  7  1  0  0  0
  4  5  1  0  0  0
  4  9  1  0  0  0
  5  6  1  0  0  0
  7  8  1  0  0  0
  8  9  2  0  0  0
  8 15  1  0  0  0
  9 11  1  0  0  0
 11 12  1  0  0  0
 11 13  2  0  0  0
 15 16  1  0  0  0
 16 19  1  0  0  0
 16 17  2  0  0  0
 19 20  1  0  0  0
 19 21  2  0  0  0
  1 10  1  0  0  0
 12 14  1  0  0  0
 15 18  1  0  0  0
 20 22  1  0  0  0
M  END
> <minimizedAffinity>
-6.44412

$$$$
5KAB_OTA_A_306


 22 23  0  0  0  0  0  0  0  0999 V2000
   24.6485  -12.5040  -17.4509 N   0  0  0  0  0  0  0  0  0  0  0  0
   25.6106  -11.6405  -18.0798 C   0  0  0  0  0  0  0  0  0  0  0  0
   27.0411  -11.6314  -17.5508 C   0  0  0  0  0  0  0  0  0  0  0  0
   27.2512  -12.2559  -16.2846 C   0  0  0  0  0  0  0  0  0  0  0  0
   26.1456  -12.8766  -15.5185 C   0  0  0  0  0  0  0  0  0  0  0  0
   24.7586  -12.7390  -16.0172 C   0  0  0  0  0  0  0  0  0  0  0  0
   28.3936  -11.0573  -18.1069 S   0  0  0  0  0  0  0  0  0  0  0  0
   29.4355  -11.4398  -17.0044 C   0  0  0  0  0  0  0  0  0  0  0  0
   28.7737  -12.1227  -15.9402 C   0  0  0  0  0  0  0  0  0  0  0  0
   24.7129  -13.4122  -17.9108 H   0  0  0  0  0  0  0  0  0  0  0  0
   29.4267  -12.6460  -14.6200 C   0  0  0  0  0  0  0  0  0  0  0  0
   29.8701  -11.8100  -13.7823 O   0  0  0  0  0  0  0  0  0  0  0  0
   29.4806  -13.9347  -14.3876 O   0  0  0  0  0  0  0  0  0  0  0  0
   29.8228  -10.8924  -13.9661 H   0  0  0  0  0  0  0  0  0  0  0  0
   30.8233  -11.1481  -16.9453 N   0  0  0  0  0  0  0  0  0  0  0  0
   31.9126  -12.0202  -17.1206 C   0  0  0  0  0  0  0  0  0  0  0  0
   31.8210  -13.2713  -17.3045 O   0  0  0  0  0  0  0  0  0  0  0  0
   31.0542  -10.2099  -16.7563 H   0  0  0  0  0  0  0  0  0  0  0  0
   33.2680  -11.3333  -17.0542 C   0  0  0  0  0  0  0  0  0  0  0  0
   33.2708  -10.1246  -16.5751 O   0  0  0  0  0  0  0  0  0  0  0  0
   34.3174  -11.9535  -17.4254 O   0  0  0  0  0  0  0  0  0  0  0  0
   32.4653   -9.7204  -16.3187 H   0  0  0  0  0  0  0  0  0  0  0  0
  1  2  1  0  0  0
  1  6  1  0  0  0
  2  3  1  0  0  0
  3  4  2  0  0  0
  3  7  1  0  0  0
  4  5  1  0  0  0
  4  9  1  0  0  0
  5  6  1  0  0  0
  7  8  1  0  0  0
  8  9  2  0  0  0
  8 15  1  0  0  0
  9 11  1  0  0  0
 11 12  1  0  0  0
 11 13  2  0  0  0
 15 16  1  0  0  0
 16 19  1  0  0  0
 16 17  2  0  0  0
 19 20  1  0  0  0
 19 21  2  0  0  0
  1 10  1  0  0  0
 12 14  1  0  0  0
 15 18  1  0  0  0
 20 22  1  0  0  0
M  END
> <minimizedAffinity>
-6.01371

$$$$
5KAB_OTA_A_306


 22 23  0  0  0  0  0  0  0  0999 V2000
   23.3669  -15.2533  -21.3468 N   0  0  0  0  0  0  0  0  0  0  0  0
   24.5915  -15.5536  -20.6561 C   0  0  0  0  0  0  0  0  0  0  0  0
   24.8704  -14.8600  -19.3266 C   0  0  0  0  0  0  0  0  0  0  0  0
   24.0394  -13.7438  -19.0090 C   0  0  0  0  0  0  0  0  0  0  0  0
   22.9666  -13.2758  -19.9171 C   0  0  0  0  0  0  0  0  0  0  0  0
   22.8286  -13.9026  -21.2510 C   0  0  0  0  0  0  0  0  0  0  0  0
   25.9176  -15.1038  -18.1811 S   0  0  0  0  0  0  0  0  0  0  0  0
   25.5838  -13.9890  -17.1356 C   0  0  0  0  0  0  0  0  0  0  0  0
   24.5044  -13.1903  -17.6190 C   0  0  0  0  0  0  0  0  0  0  0  0
   22.6542  -15.8878  -20.9862 H   0  0  0  0  0  0  0  0  0  0  0  0
   23.8780  -11.9442  -16.9134 C   0  0  0  0  0  0  0  0  0  0  0  0
   24.2241  -10.7884  -17.2896 O   0  0  0  0  0  0  0  0  0  0  0  0
   22.9877  -12.1124  -15.9664 O   0  0  0  0  0  0  0  0  0  0  0  0
   24.8623  -10.6881  -17.9683 H   0  0  0  0  0  0  0  0  0  0  0  0
   26.2282  -13.6942  -15.9057 N   0  0  0  0  0  0  0  0  0  0  0  0
   27.2756  -12.7890  -15.6576 C   0  0  0  0  0  0  0  0  0  0  0  0
   27.8770  -12.1111  -16.5443 O   0  0  0  0  0  0  0  0  0  0  0  0
   25.8978  -14.1895  -15.1217 H   0  0  0  0  0  0  0  0  0  0  0  0
   27.6668  -12.6872  -14.1913 C   0  0  0  0  0  0  0  0  0  0  0  0
   26.7595  -13.0499  -13.3335 O   0  0  0  0  0  0  0  0  0  0  0  0
   28.8356  -12.2961  -13.8676 O   0  0  0  0  0  0  0  0  0  0  0  0
   25.9165  -13.3285  -13.6329 H   0  0  0  0  0  0  0  0  0  0  0  0
  1  2  1  0  0  0
  1  6  1  0  0  0
  2  3  1  0  0  0
  3  4  2  0  0  0
  3  7  1  0  0  0
  4  5  1  0  0  0
  4  9  1  0  0  0
  5  6  1  0  0  0
  7  8  1  0  0  0
  8  9  2  0  0  0
  8 15  1  0  0  0
  9 11  1  0  0  0
 11 12  1  0  0  0
 11 13  2  0  0  0
 15 16  1  0  0  0
 16 19  1  0  0  0
 16 17  2  0  0  0
 19 20  1  0  0  0
 19 21  2  0  0  0
  1 10  1  0  0  0
 12 14  1  0  0  0
 15 18  1  0  0  0
 20 22  1  0  0  0
M  END
> <minimizedAffinity>
-5.93439

$$$$
5KAB_OTA_A_306


 22 23  0  0  0  0  0  0  0  0999 V2000
   23.0544  -15.5041  -17.5580 N   0  0  0  0  0  0  0  0  0  0  0  0
   24.3472  -15.6786  -18.1624 C   0  0  0  0  0  0  0  0  0  0  0  0
   25.5291  -14.8953  -17.6004 C   0  0  0  0  0  0  0  0  0  0  0  0
   25.2128  -13.8250  -16.7105 C   0  0  0  0  0  0  0  0  0  0  0  0
   23.8165  -13.4846  -16.3515 C   0  0  0  0  0  0  0  0  0  0  0  0
   22.7064  -14.1917  -17.0291 C   0  0  0  0  0  0  0  0  0  0  0  0
   27.0844  -15.0012  -17.7951 S   0  0  0  0  0  0  0  0  0  0  0  0
   27.6465  -13.8573  -16.8880 C   0  0  0  0  0  0  0  0  0  0  0  0
   26.5631  -13.1647  -16.2686 C   0  0  0  0  0  0  0  0  0  0  0  0
   22.9913  -16.1667  -16.7852 H   0  0  0  0  0  0  0  0  0  0  0  0
   26.6690  -11.9294  -15.3169 C   0  0  0  0  0  0  0  0  0  0  0  0
   26.0896  -11.9689  -14.1944 O   0  0  0  0  0  0  0  0  0  0  0  0
   27.3751  -10.8869  -15.6808 O   0  0  0  0  0  0  0  0  0  0  0  0
   25.5892  -12.7230  -13.9518 H   0  0  0  0  0  0  0  0  0  0  0  0
   28.9921  -13.4507  -16.6917 N   0  0  0  0  0  0  0  0  0  0  0  0
   29.7889  -12.6273  -17.5073 C   0  0  0  0  0  0  0  0  0  0  0  0
   29.4340  -12.1497  -18.6269 O   0  0  0  0  0  0  0  0  0  0  0  0
   29.4257  -13.7905  -15.8757 H   0  0  0  0  0  0  0  0  0  0  0  0
   31.1721  -12.3509  -16.9384 C   0  0  0  0  0  0  0  0  0  0  0  0
   31.3894  -11.1337  -16.5361 O   0  0  0  0  0  0  0  0  0  0  0  0
   32.0261  -13.2924  -16.8491 O   0  0  0  0  0  0  0  0  0  0  0  0
   30.7212  -10.4834  -16.6285 H   0  0  0  0  0  0  0  0  0  0  0  0
  1  2  1  0  0  0
  1  6  1  0  0  0
  2  3  1  0  0  0
  3  4  2  0  0  0
  3  7  1  0  0  0
  4  5  1  0  0  0
  4  9  1  0  0  0
  5  6  1  0  0  0
  7  8  1  0  0  0
  8  9  2  0  0  0
  8 15  1  0  0  0
  9 11  1  0  0  0
 11 12  1  0  0  0
 11 13  2  0  0  0
 15 16  1  0  0  0
 16 19  1  0  0  0
 16 17  2  0  0  0
 19 20  1  0  0  0
 19 21  2  0  0  0
  1 10  1  0  0  0
 12 14  1  0  0  0
 15 18  1  0  0  0
 20 22  1  0  0  0
M  END
> <minimizedAffinity>
-5.68211

$$$$
5KAB_OTA_A_306


 22 23  0  0  0  0  0  0  0  0999 V2000
   23.0232  -12.1631  -18.1687 N   0  0  0  0  0  0  0  0  0  0  0  0
   24.1789  -11.3858  -18.5249 C   0  0  0  0  0  0  0  0  0  0  0  0
   25.4934  -11.6549  -17.7995 C   0  0  0  0  0  0  0  0  0  0  0  0
   25.4118  -12.4497  -16.6167 C   0  0  0  0  0  0  0  0  0  0  0  0
   24.1250  -12.9832  -16.1125 C   0  0  0  0  0  0  0  0  0  0  0  0
   22.8674  -12.5803  -16.7813 C   0  0  0  0  0  0  0  0  0  0  0  0
   26.9814  -11.2291  -18.0690 S   0  0  0  0  0  0  0  0  0  0  0  0
   27.7715  -11.8921  -16.8928 C   0  0  0  0  0  0  0  0  0  0  0  0
   26.8623  -12.5890  -16.0414 C   0  0  0  0  0  0  0  0  0  0  0  0
   23.0424  -13.0096  -18.7374 H   0  0  0  0  0  0  0  0  0  0  0  0
   27.2183  -13.3574  -14.7277 C   0  0  0  0  0  0  0  0  0  0  0  0
   28.0499  -14.3077  -14.7796 O   0  0  0  0  0  0  0  0  0  0  0  0
   26.6749  -12.9913  -13.5926 O   0  0  0  0  0  0  0  0  0  0  0  0
   28.4279  -14.5551  -15.6005 H   0  0  0  0  0  0  0  0  0  0  0  0
   29.1573  -11.8217  -16.5941 N   0  0  0  0  0  0  0  0  0  0  0  0
   30.1943  -12.6646  -17.0322 C   0  0  0  0  0  0  0  0  0  0  0  0
   30.0373  -13.7025  -17.7432 O   0  0  0  0  0  0  0  0  0  0  0  0
   29.4288  -11.0843  -16.0010 H   0  0  0  0  0  0  0  0  0  0  0  0
   31.5756  -12.2376  -16.5600 C   0  0  0  0  0  0  0  0  0  0  0  0
   32.5652  -12.9906  -16.9400 O   0  0  0  0  0  0  0  0  0  0  0  0
   31.7138  -11.1801  -15.8626 O   0  0  0  0  0  0  0  0  0  0  0  0
   32.4004  -13.7575  -17.4525 H   0  0  0  0  0  0  0  0  0  0  0  0
  1  2  1  0  0  0
  1  6  1  0  0  0
  2  3  1  0  0  0
  3  4  2  0  0  0
  3  7  1  0  0  0
  4  5  1  0  0  0
  4  9  1  0  0  0
  5  6  1  0  0  0
  7  8  1  0  0  0
  8  9  2  0  0  0
  8 15  1  0  0  0
  9 11  1  0  0  0
 11 12  1  0  0  0
 11 13  2  0  0  0
 15 16  1  0  0  0
 16 19  1  0  0  0
 16 17  2  0  0  0
 19 20  1  0  0  0
 19 21  2  0  0  0
  1 10  1  0  0  0
 12 14  1  0  0  0
 15 18  1  0  0  0
 20 22  1  0  0  0
M  END
> <minimizedAffinity>
-5.59347

$$$$
5KAB_OTA_A_306


 22 23  0  0  0  0  0  0  0  0999 V2000
   24.1831  -10.9672  -21.7346 N   0  0  0  0  0  0  0  0  0  0  0  0
   25.2280  -10.5793  -20.8265 C   0  0  0  0  0  0  0  0  0  0  0  0
   25.3187  -11.2789  -19.4742 C   0  0  0  0  0  0  0  0  0  0  0  0
   24.1860  -12.0563  -19.0870 C   0  0  0  0  0  0  0  0  0  0  0  0
   22.9833  -12.1780  -19.9433 C   0  0  0  0  0  0  0  0  0  0  0  0
   22.8971  -11.3718  -21.1818 C   0  0  0  0  0  0  0  0  0  0  0  0
   26.4241  -11.3327  -18.3591 S   0  0  0  0  0  0  0  0  0  0  0  0
   25.7974  -12.2595  -17.2656 C   0  0  0  0  0  0  0  0  0  0  0  0
   24.4942  -12.6695  -17.6786 C   0  0  0  0  0  0  0  0  0  0  0  0
   24.5359  -11.7520  -22.2822 H   0  0  0  0  0  0  0  0  0  0  0  0
   23.4995  -13.5652  -16.8716 C   0  0  0  0  0  0  0  0  0  0  0  0
   23.0737  -14.6338  -17.3953 O   0  0  0  0  0  0  0  0  0  0  0  0
   23.1439  -13.2136  -15.6602 O   0  0  0  0  0  0  0  0  0  0  0  0
   23.3391  -14.8685  -18.2627 H   0  0  0  0  0  0  0  0  0  0  0  0
   26.3278  -12.6418  -16.0058 N   0  0  0  0  0  0  0  0  0  0  0  0
   27.1656  -13.7289  -15.6986 C   0  0  0  0  0  0  0  0  0  0  0  0
   27.5435  -14.6128  -16.5252 O   0  0  0  0  0  0  0  0  0  0  0  0
   26.0755  -12.0695  -15.2454 H   0  0  0  0  0  0  0  0  0  0  0  0
   27.5919  -13.7844  -14.2397 C   0  0  0  0  0  0  0  0  0  0  0  0
   26.8108  -13.1788  -13.3948 O   0  0  0  0  0  0  0  0  0  0  0  0
   28.6414  -14.4248  -13.9047 O   0  0  0  0  0  0  0  0  0  0  0  0
   26.0518  -12.7233  -13.7020 H   0  0  0  0  0  0  0  0  0  0  0  0
  1  2  1  0  0  0
  1  6  1  0  0  0
  2  3  1  0  0  0
  3  4  2  0  0  0
  3  7  1  0  0  0
  4  5  1  0  0  0
  4  9  1  0  0  0
  5  6  1  0  0  0
  7  8  1  0  0  0
  8  9  2  0  0  0
  8 15  1  0  0  0
  9 11  1  0  0  0
 11 12  1  0  0  0
 11 13  2  0  0  0
 15 16  1  0  0  0
 16 19  1  0  0  0
 16 17  2  0  0  0
 19 20  1  0  0  0
 19 21  2  0  0  0
  1 10  1  0  0  0
 12 14  1  0  0  0
 15 18  1  0  0  0
 20 22  1  0  0  0
M  END
> <minimizedAffinity>
-5.49945

$$$$
