3Q7Q_GNP_A_1
  RCSB PDB12061710233D
Coordinates from PDB:3Q7Q:A:1 Model:1 without hydrogens
 32 34  0  0  0  0            999 V2000
   -4.3560  -16.0850    1.3970   P 0  0  0  0  0  0  0  0  0  0  0  0
   -3.8420  -16.0280   -0.0230   O 0  0  0  0  0  0  0  0  0  0  0  0
   -5.5150  -17.0220    1.6390   O 0  0  0  0  0  0  0  0  0  0  0  0
   -4.6200  -14.6500    1.7440   O 0  0  0  0  0  0  0  0  0  0  0  0
   -3.2080  -16.6010    2.3660   N 0  0  0  0  0  0  0  0  0  0  0  0
   -2.0110  -15.7160    2.9180   P 0  0  0  0  0  0  0  0  0  0  0  0
   -0.9220  -15.6540    1.9160   O 0  0  0  0  0  0  0  0  0  0  0  0
   -2.5470  -14.4370    3.4370   O 0  0  0  0  0  0  0  0  0  0  0  0
   -1.4510  -16.4650    4.1160   O 0  0  0  0  0  0  0  0  0  0  0  0
   -1.8920  -16.1360    5.5330   P 0  0  0  0  0  0  0  0  0  0  0  0
   -3.3660  -16.0170    5.5190   O 0  0  0  0  0  0  0  0  0  0  0  0
   -1.1170  -15.0010    6.0720   O 0  0  0  0  0  0  0  0  0  0  0  0
   -1.5460  -17.4090    6.3920   O 0  0  0  0  0  0  0  0  0  0  0  0
   -2.0170  -18.6720    5.9580   C 0  0  0  0  0  0  0  0  0  0  0  0
   -1.8550  -19.7210    7.0420   C 0  0  0  0  0  0  0  0  0  0  0  0
   -0.4510  -20.0430    7.1910   O 0  0  0  0  0  0  0  0  0  0  0  0
   -2.3420  -19.3130    8.4280   C 0  0  0  0  0  0  0  0  0  0  0  0
   -2.9020  -20.4330    9.0940   O 0  0  0  0  0  0  0  0  0  0  0  0
   -1.0680  -18.8660    9.1290   C 0  0  0  0  0  0  0  0  0  0  0  0
   -1.1580  -19.0340   10.5320   O 0  0  0  0  0  0  0  0  0  0  0  0
   -0.0630  -19.8440    8.5350   C 0  0  0  0  0  0  0  0  0  0  0  0
    1.3110  -19.3540    8.5370   N 0  0  0  0  0  0  0  0  0  0  0  0
    1.7860  -18.1880    7.9890   C 0  0  0  0  0  0  0  0  0  0  0  0
    3.0720  -18.0340    8.1510   N 0  0  0  0  0  0  0  0  0  0  0  0
    3.4740  -19.1690    8.8470   C 0  0  0  0  0  0  0  0  0  0  0  0
    4.7510  -19.5660    9.3090   C 0  0  0  0  0  0  0  0  0  0  0  0
    5.8290  -18.9690    9.1930   O 0  0  0  0  0  0  0  0  0  0  0  0
    4.7020  -20.7950    9.9640   N 0  0  0  0  0  0  0  0  0  0  0  0
    3.5630  -21.5430   10.1540   C 0  0  0  0  0  0  0  0  0  0  0  0
    3.7040  -22.7000   10.8130   N 0  0  0  0  0  0  0  0  0  0  0  0
    2.3620  -21.1850    9.7300   N 0  0  0  0  0  0  0  0  0  0  0  0
    2.3960  -19.9910    9.0900   C 0  0  0  0  0  0  0  0  0  0  0  0
  1  2  2  0  0  0  0
  1  3  1  0  0  0  0
  1  4  1  0  0  0  0
  1  5  1  0  0  0  0
  5  6  1  0  0  0  0
  6  7  2  0  0  0  0
  6  8  1  0  0  0  0
  6  9  1  0  0  0  0
  9 10  1  0  0  0  0
 10 11  2  0  0  0  0
 10 12  1  0  0  0  0
 10 13  1  0  0  0  0
 13 14  1  0  0  0  0
 14 15  1  0  0  0  0
 15 16  1  0  0  0  0
 15 17  1  0  0  0  0
 16 21  1  0  0  0  0
 17 18  1  0  0  0  0
 17 19  1  0  0  0  0
 19 20  1  0  0  0  0
 19 21  1  0  0  0  0
 21 22  1  0  0  0  0
 22 23  1  0  0  0  0
 22 32  1  0  0  0  0
 23 24  2  0  0  0  0
 24 25  1  0  0  0  0
 25 26  1  0  0  0  0
 25 32  2  0  0  0  0
 26 27  2  0  0  0  0
 26 28  1  0  0  0  0
 28 29  1  0  0  0  0
 29 30  1  0  0  0  0
 29 31  2  0  0  0  0
 31 32  1  0  0  0  0
A    1
PG
A    2
O1G
A    3
O2G
A    4
O3G
A    5
N3B
A    6
PB
A    7
O1B
A    8
O2B
A    9
O3A
A   10
PA
A   11
O1A
A   12
O2A
A   13
O5'
A   14
C5'
A   15
C4'
A   16
O4'
A   17
C3'
A   18
O3'
A   19
C2'
A   20
O2'
A   21
C1'
A   22
N9
A   23
C8
A   24
N7
A   25
C5
A   26
C6
A   27
O6
A   28
N1
A   29
C2
A   30
N2
A   31
N3
A   32
C4
M  END
>  <InstanceId>
3Q7Q_GNP_A_1

>  <ChemCompId>
GNP

>  <PdbId>
3Q7Q

>  <ChainId>
A

>  <ResidueNumber>
1

>  <InsertionCode>


>  <Model>
1

>  <AltIds>


>  <MissingHeavyAtoms>
0

>  <ObservedFormula>
C10 N6 O13 P3

>  <Name>
PHOSPHOAMINOPHOSPHONIC ACID-GUANYLATE ESTER

>  <SystematicName>
[[[[(2R,3S,4R,5R)-5-(2-amino-6-oxo-1H-purin-9-yl)-3,4-dihydroxy-oxolan-2-yl]methoxy-hydroxy-phosphoryl]oxy-hydroxy-phosphoryl]amino]phosphonic acid

>  <Synonyms>


>  <Type>
NON-POLYMER

>  <Formula>
C10 H17 N6 O13 P3

>  <MolecularWeight>
522.196

>  <ModifiedDate>
2011-06-04

>  <Parent>


>  <OneLetterCode>


>  <SubcomponentList>


>  <AmbiguousFlag>
N

>  <InChI>
InChI=1S/C10H17N6O13P3/c11-10-13-7-4(8(19)14-10)12-2-16(7)9-6(18)5(17)3(28-9)1-27-32(25,26)29-31(23,24)15-30(20,21)22/h2-3,5-6,9,17-18H,1H2,(H,25,26)(H3,11,13,14,19)(H4,15,20,21,22,23,24)/t3-,5-,6-,9-/m1/s1

>  <InChIKey>
UQABYHGXWYXDTK-UUOKFMHZSA-N

>  <SMILES>
c1nc2c(n1[C@H]3[C@@H]([C@@H]([C@H](O3)CO[P@](=O)(O)O[P@@](=O)(NP(=O)(O)O)O)O)O)N=C(NC2=O)N

$$$$
