4W9D_3JK_C_301
  RCSB PDB12061715553D
Coordinates from PDB:4W9D:C:301 Model:1 without hydrogens
 29 31  0  0  0  0            999 V2000
   11.4360   52.1870   94.2600   C 0  0  0  0  0  0  0  0  0  0  0  0
   12.8600   52.8120   94.2470   C 0  0  0  0  0  0  0  0  0  0  0  0
   13.7990   51.9350   93.3950   C 0  0  0  0  0  0  0  0  0  0  0  0
   13.3630   52.8960   95.7170   C 0  0  0  0  0  0  0  0  0  0  0  0
   12.8060   54.2270   93.7260   C 0  0  0  0  0  0  0  0  0  0  0  0
   12.3390   54.2440   92.2190   C 0  0  0  0  0  0  0  0  0  0  0  0
   11.1420   54.0890   91.9660   O 0  0  0  0  0  0  0  0  0  0  0  0
   13.2630   54.5110   91.2420   N 0  0  0  0  0  0  0  0  0  0  0  0
   14.7220   54.7930   91.3600   C 0  0  0  0  0  0  0  0  0  0  0  0
   15.0400   55.6790   90.1700   C 0  0  0  0  0  0  0  0  0  0  0  0
   14.6950   57.0480   90.4410   O 0  0  0  0  0  0  0  0  0  0  0  0
   14.1590   55.1140   89.0940   C 0  0  0  0  0  0  0  0  0  0  0  0
   12.8510   54.6730   89.7970   C 0  0  0  0  0  0  0  0  0  0  0  0
   12.3720   53.5010   89.1900   C 0  0  0  0  0  0  0  0  0  0  0  0
   12.8640   52.4170   89.4980   O 0  0  0  0  0  0  0  0  0  0  0  0
   11.4500   53.6370   88.1940   N 0  0  0  0  0  0  0  0  0  0  0  0
   10.9730   52.4610   87.4350   C 0  0  0  0  0  0  0  0  0  0  0  0
   11.7910   52.2310   86.2660   C 0  0  0  0  0  0  0  0  0  0  0  0
   11.5420   51.0970   85.4650   C 0  0  0  0  0  0  0  0  0  0  0  0
   12.3110   50.8060   84.3270   C 0  0  0  0  0  0  0  0  0  0  0  0
   12.8460   53.0650   85.8700   C 0  0  0  0  0  0  0  0  0  0  0  0
   13.6190   52.7790   84.7210   C 0  0  0  0  0  0  0  0  0  0  0  0
   13.3550   51.6650   83.9170   C 0  0  0  0  0  0  0  0  0  0  0  0
   14.1320   51.4410   82.8310   C 0  0  0  0  0  0  0  0  0  0  0  0
   15.4420   51.8020   82.7620   O 0  0  0  0  0  0  0  0  0  0  0  0
   15.9210   51.4150   81.5540   C 0  0  0  0  0  0  0  0  0  0  0  0
   14.9480   50.8380   80.8750   N 0  0  0  0  0  0  0  0  0  0  0  0
   13.8520   50.8580   81.6520   C 0  0  0  0  0  0  0  0  0  0  0  0
   12.5140   50.2620   81.1760   C 0  0  0  0  0  0  0  0  0  0  0  0
 27 26  2  0  0  0  0
 27 28  1  0  0  0  0
 29 28  1  0  0  0  0
 26 25  1  0  0  0  0
 28 24  2  0  0  0  0
 25 24  1  0  0  0  0
 24 23  1  0  0  0  0
 23 20  2  0  0  0  0
 23 22  1  0  0  0  0
 20 19  1  0  0  0  0
 22 21  2  0  0  0  0
 19 18  2  0  0  0  0
 21 18  1  0  0  0  0
 18 17  1  0  0  0  0
 17 16  1  0  0  0  0
 16 14  1  0  0  0  0
 12 13  1  0  0  0  0
 12 10  1  0  0  0  0
 14 15  2  0  0  0  0
 14 13  1  0  0  0  0
 13  8  1  0  0  0  0
 10 11  1  0  0  0  0
 10  9  1  0  0  0  0
  8  9  1  0  0  0  0
  8  6  1  0  0  0  0
  7  6  2  0  0  0  0
  6  5  1  0  0  0  0
  3  2  1  0  0  0  0
  5  2  1  0  0  0  0
  2  1  1  0  0  0  0
  2  4  1  0  0  0  0
A    1
CAB
A    2
CBC
A    3
CAC
A    4
CAD
A    5
CAN
A    6
CAT
A    7
OAE
A    8
N
A    9
CD2
A   10
CG
A   11
OD1
A   12
CB
A   13
CA
A   14
C
A   15
O
A   16
NAR
A   17
CAM
A   18
CAV
A   19
CAI
A   20
CAK
A   21
CAH
A   22
CAJ
A   23
CAX
A   24
CAY
A   25
OAS
A   26
CAL
A   27
NAQ
A   28
CAW
A   29
CAA
M  END
>  <InstanceId>
4W9D_3JK_C_301

>  <ChemCompId>
3JK

>  <PdbId>
4W9D

>  <ChainId>
C

>  <ResidueNumber>
301

>  <InsertionCode>


>  <Model>
1

>  <AltIds>


>  <MissingHeavyAtoms>
0

>  <ObservedFormula>
C22 N3 O4

>  <Name>
(4R)-1-(3,3-dimethylbutanoyl)-4-hydroxy-N-[4-(4-methyl-1,3-oxazol-5-yl)benzyl]-L-prolinamide

>  <SystematicName>
(2S,4R)-1-(3,3-dimethylbutanoyl)-N-[[4-(4-methyl-1,3-oxazol-5-yl)phenyl]methyl]-4-oxidanyl-pyrrolidine-2-carboxamide

>  <Synonyms>


>  <Type>
NON-POLYMER

>  <Formula>
C22 H29 N3 O4

>  <MolecularWeight>
399.483

>  <ModifiedDate>
2014-09-05

>  <Parent>


>  <OneLetterCode>


>  <SubcomponentList>


>  <AmbiguousFlag>
N

>  <InChI>
InChI=1S/C22H29N3O4/c1-14-20(29-13-24-14)16-7-5-15(6-8-16)11-23-21(28)18-9-17(26)12-25(18)19(27)10-22(2,3)4/h5-8,13,17-18,26H,9-12H2,1-4H3,(H,23,28)/t17-,18+/m1/s1

>  <InChIKey>
MHBMGYUTFNIVKQ-MSOLQXFVSA-N

>  <SMILES>
Cc1c(ocn1)c2ccc(cc2)CNC(=O)[C@@H]3C[C@H](CN3C(=O)CC(C)(C)C)O

$$$$
