3F5K_CE5_A_1000


 73 77  0  0  0  0  0  0  0  0999 V2000
    1.6330    0.5821   43.8583 C   0  0  0  0  0  0  0  0  0  0  0  0
    0.3404    0.2121   44.5710 C   0  0  0  0  0  0  0  0  0  0  0  0
    0.5537    0.0106   45.9627 O   0  0  0  0  0  0  0  0  0  0  0  0
    2.2352    1.8176   44.5359 C   0  0  0  0  0  0  0  0  0  0  0  0
    3.5185    2.1603   43.9665 O   0  0  0  0  0  0  0  0  0  0  0  0
    2.3755    1.6000   46.0374 C   0  0  0  0  0  0  0  0  0  0  0  0
    2.7863    2.7921   46.7010 O   0  0  0  0  0  0  0  0  0  0  0  0
    1.0354    1.1735   46.6292 C   0  0  0  0  0  0  0  0  0  0  0  0
    4.1419    1.4315   44.1122 H   0  0  0  0  0  0  0  0  0  0  0  0
    2.1161    3.4813   46.5720 H   0  0  0  0  0  0  0  0  0  0  0  0
   -0.3023   -1.0538   44.0358 C   0  0  0  0  0  0  0  0  0  0  0  0
   -1.1343   -0.5660   42.9856 O   0  0  0  0  0  0  0  0  0  0  0  0
   -1.7542    0.0893   43.3422 H   0  0  0  0  0  0  0  0  0  0  0  0
    1.2683    0.9735   42.5450 O   0  0  0  0  0  0  0  0  0  0  0  0
    3.5654    0.9935   38.9983 C   0  0  0  0  0  0  0  0  0  0  0  0
    4.1617    0.9693   40.4029 C   0  0  0  0  0  0  0  0  0  0  0  0
    3.1681    1.4662   41.3055 O   0  0  0  0  0  0  0  0  0  0  0  0
    2.2654    0.1816   39.0121 C   0  0  0  0  0  0  0  0  0  0  0  0
    1.6119    0.3558   37.7454 O   0  0  0  0  0  0  0  0  0  0  0  0
    1.3321    0.4985   40.1839 C   0  0  0  0  0  0  0  0  0  0  0  0
    0.3012   -0.4873   40.3315 O   0  0  0  0  0  0  0  0  0  0  0  0
    2.1217    0.5284   41.4907 C   0  0  0  0  0  0  0  0  0  0  0  0
    1.3841    1.2909   37.6250 H   0  0  0  0  0  0  0  0  0  0  0  0
    0.7031   -1.3494   40.5219 H   0  0  0  0  0  0  0  0  0  0  0  0
    5.4302    1.7744   40.6070 C   0  0  0  0  0  0  0  0  0  0  0  0
    5.2229    2.6192   41.7626 O   0  0  0  0  0  0  0  0  0  0  0  0
    4.4594    3.1972   41.6078 H   0  0  0  0  0  0  0  0  0  0  0  0
    4.4142    0.3375   38.0603 O   0  0  0  0  0  0  0  0  0  0  0  0
    7.1217   -0.0106   35.7679 O   0  0  0  0  0  0  0  0  0  0  0  0
    5.6916    0.1932   35.9155 C   0  0  0  0  0  0  0  0  0  0  0  0
    5.1666    0.7000   34.5769 C   0  0  0  0  0  0  0  0  0  0  0  0
    5.0961   -0.4034   33.6608 O   0  0  0  0  0  0  0  0  0  0  0  0
    3.8105    1.3842   34.8312 C   0  0  0  0  0  0  0  0  0  0  0  0
    3.2038    1.7168   33.5905 O   0  0  0  0  0  0  0  0  0  0  0  0
    4.1418    2.6898   35.5589 C   0  0  0  0  0  0  0  0  0  0  0  0
    4.7459    2.4169   36.8427 O   0  0  0  0  0  0  0  0  0  0  0  0
    5.2745    1.0866   37.1377 C   0  0  0  0  0  0  0  0  0  0  0  0
    7.2904   -0.5700   34.9936 H   0  0  0  0  0  0  0  0  0  0  0  0
    4.5171   -1.0905   34.0262 H   0  0  0  0  0  0  0  0  0  0  0  0
    3.7987    2.2911   33.0834 H   0  0  0  0  0  0  0  0  0  0  0  0
    2.9795    3.6601   35.8116 C   0  0  0  0  0  0  0  0  0  0  0  0
    2.1208    3.1587   36.8750 O   0  0  0  0  0  0  0  0  0  0  0  0
    1.7552    2.2981   36.6167 H   0  0  0  0  0  0  0  0  0  0  0  0
    1.1608    0.9483   48.0422 O   0  0  0  0  0  0  0  0  0  0  0  0
    0.7101   -0.3507   48.4197 C   0  0  0  0  0  0  0  0  0  0  0  0
   -0.3302   -0.2437   49.5567 C   0  0  0  0  0  0  0  0  0  0  0  0
   -0.5092   -1.4867   50.2530 O   0  0  0  0  0  0  0  0  0  0  0  0
    1.9397   -1.2108   48.7208 C   0  0  0  0  0  0  0  0  0  0  0  0
    2.6548   -1.4993   47.5146 O   0  0  0  0  0  0  0  0  0  0  0  0
    1.5005   -2.5379   49.3028 C   0  0  0  0  0  0  0  0  0  0  0  0
    2.6545   -3.2984   49.6616 O   0  0  0  0  0  0  0  0  0  0  0  0
    0.6250   -2.3164   50.5281 C   0  0  0  0  0  0  0  0  0  0  0  0
    2.0786   -1.9876   46.9060 H   0  0  0  0  0  0  0  0  0  0  0  0
    3.1686   -2.8122   50.3250 H   0  0  0  0  0  0  0  0  0  0  0  0
   -1.6832    0.1203   48.9396 C   0  0  0  0  0  0  0  0  0  0  0  0
   -1.7723    1.5032   48.5935 O   0  0  0  0  0  0  0  0  0  0  0  0
   -1.6753    2.0436   49.3932 H   0  0  0  0  0  0  0  0  0  0  0  0
    0.1275   -3.6120   50.8655 O   0  0  0  0  0  0  0  0  0  0  0  0
    0.1700   -3.9288   52.2448 C   0  0  0  0  0  0  0  0  0  0  0  0
    1.4496   -3.3409   52.8399 C   0  0  0  0  0  0  0  0  0  0  0  0
    2.6023   -4.0294   52.3316 O   0  0  0  0  0  0  0  0  0  0  0  0
    1.4063   -3.4390   54.3594 C   0  0  0  0  0  0  0  0  0  0  0  0
    2.5624   -2.8191   54.9345 O   0  0  0  0  0  0  0  0  0  0  0  0
    0.1306   -2.7687   54.8631 C   0  0  0  0  0  0  0  0  0  0  0  0
    0.0975   -2.8176   56.2979 O   0  0  0  0  0  0  0  0  0  0  0  0
   -1.0128   -3.4329   54.3081 O   0  0  0  0  0  0  0  0  0  0  0  0
   -1.0910   -3.3424   52.8795 C   0  0  0  0  0  0  0  0  0  0  0  0
    2.5547   -4.9660   52.5791 H   0  0  0  0  0  0  0  0  0  0  0  0
    2.5856   -1.8824   54.6835 H   0  0  0  0  0  0  0  0  0  0  0  0
    0.1123   -3.7423   56.5904 H   0  0  0  0  0  0  0  0  0  0  0  0
   -2.3213   -4.0584   52.2899 C   0  0  0  0  0  0  0  0  0  0  0  0
   -2.7140   -3.4808   50.9793 O   0  0  0  0  0  0  0  0  0  0  0  0
   -2.9463   -2.5461   51.0945 H   0  0  0  0  0  0  0  0  0  0  0  0
 29 30  1  0  0  0
 30 31  1  0  0  0
 30 37  1  0  0  0
 31 32  1  0  0  0
 31 33  1  0  0  0
 33 34  1  0  0  0
 33 35  1  0  0  0
 35 41  1  0  0  0
 35 36  1  0  0  0
 41 42  1  0  0  0
 36 37  1  0  0  0
 37 28  1  0  0  0
 28 15  1  0  0  0
 15 16  1  0  0  0
 15 18  1  0  0  0
 16 25  1  0  0  0
 16 17  1  0  0  0
 17 22  1  0  0  0
 25 26  1  0  0  0
 18 19  1  0  0  0
 18 20  1  0  0  0
 20 22  1  0  0  0
 20 21  1  0  0  0
 22 14  1  0  0  0
 14  1  1  0  0  0
  1  4  1  0  0  0
  1  2  1  0  0  0
  2 11  1  0  0  0
  2  3  1  0  0  0
  3  8  1  0  0  0
 11 12  1  0  0  0
  4  5  1  0  0  0
  4  6  1  0  0  0
  6  7  1  0  0  0
  6  8  1  0  0  0
  8 44  1  0  0  0
 44 45  1  0  0  0
 45 48  1  0  0  0
 45 46  1  0  0  0
 46 55  1  0  0  0
 46 47  1  0  0  0
 47 52  1  0  0  0
 55 56  1  0  0  0
 48 49  1  0  0  0
 48 50  1  0  0  0
 50 51  1  0  0  0
 50 52  1  0  0  0
 52 58  1  0  0  0
 58 59  1  0  0  0
 59 60  1  0  0  0
 59 67  1  0  0  0
 60 61  1  0  0  0
 60 62  1  0  0  0
 62 63  1  0  0  0
 62 64  1  0  0  0
 64 66  1  0  0  0
 64 65  1  0  0  0
 66 67  1  0  0  0
 67 71  1  0  0  0
 71 72  1  0  0  0
 29 38  1  0  0  0
 32 39  1  0  0  0
 34 40  1  0  0  0
 42 43  1  0  0  0
 26 27  1  0  0  0
 19 23  1  0  0  0
 21 24  1  0  0  0
 12 13  1  0  0  0
  5  9  1  0  0  0
  7 10  1  0  0  0
 56 57  1  0  0  0
 49 53  1  0  0  0
 51 54  1  0  0  0
 61 68  1  0  0  0
 63 69  1  0  0  0
 65 70  1  0  0  0
 72 73  1  0  0  0
M  END
> <minimizedAffinity>
-11.81053

$$$$
3F5K_CE5_A_1000


 73 77  0  0  0  0  0  0  0  0999 V2000
    1.5576    0.5163   43.8327 C   0  0  0  0  0  0  0  0  0  0  0  0
    0.2578    0.1856   44.5516 C   0  0  0  0  0  0  0  0  0  0  0  0
    0.4654    0.0143   45.9481 O   0  0  0  0  0  0  0  0  0  0  0  0
    2.1797    1.7574   44.4815 C   0  0  0  0  0  0  0  0  0  0  0  0
    3.4695    2.0644   43.9065 O   0  0  0  0  0  0  0  0  0  0  0  0
    2.3138    1.5739   45.9880 C   0  0  0  0  0  0  0  0  0  0  0  0
    2.7438    2.7745   46.6234 O   0  0  0  0  0  0  0  0  0  0  0  0
    0.9657    1.1847   46.5873 C   0  0  0  0  0  0  0  0  0  0  0  0
    4.0801    1.3289   44.0710 H   0  0  0  0  0  0  0  0  0  0  0  0
    2.0856    3.4718   46.4764 H   0  0  0  0  0  0  0  0  0  0  0  0
   -0.4055   -1.0818   44.0458 C   0  0  0  0  0  0  0  0  0  0  0  0
    0.6553   -1.7404   43.3574 O   0  0  0  0  0  0  0  0  0  0  0  0
    1.0040   -1.1562   42.6660 H   0  0  0  0  0  0  0  0  0  0  0  0
    1.2018    0.8819   42.5096 O   0  0  0  0  0  0  0  0  0  0  0  0
    3.5554    0.9331   39.0005 C   0  0  0  0  0  0  0  0  0  0  0  0
    4.1289    0.9383   40.4147 C   0  0  0  0  0  0  0  0  0  0  0  0
    3.1073    1.4157   41.2963 O   0  0  0  0  0  0  0  0  0  0  0  0
    2.2783    0.0857   39.0010 C   0  0  0  0  0  0  0  0  0  0  0  0
    1.6411    0.2301   37.7224 O   0  0  0  0  0  0  0  0  0  0  0  0
    1.3174    0.3872   40.1545 C   0  0  0  0  0  0  0  0  0  0  0  0
    0.3118   -0.6253   40.2948 O   0  0  0  0  0  0  0  0  0  0  0  0
    2.0843    0.4510   41.4735 C   0  0  0  0  0  0  0  0  0  0  0  0
    1.3896    1.1574   37.5893 H   0  0  0  0  0  0  0  0  0  0  0  0
    0.7341   -1.4741   40.5000 H   0  0  0  0  0  0  0  0  0  0  0  0
    5.3713    1.7801   40.6317 C   0  0  0  0  0  0  0  0  0  0  0  0
    5.7435    1.6481   42.0231 O   0  0  0  0  0  0  0  0  0  0  0  0
    5.0113    1.9490   42.5836 H   0  0  0  0  0  0  0  0  0  0  0  0
    4.4373    0.2924   38.0827 O   0  0  0  0  0  0  0  0  0  0  0  0
    7.1323   -0.0134   35.7697 O   0  0  0  0  0  0  0  0  0  0  0  0
    5.7015    0.1766   35.9284 C   0  0  0  0  0  0  0  0  0  0  0  0
    5.1632    0.6895   34.5975 C   0  0  0  0  0  0  0  0  0  0  0  0
    5.0962   -0.4071   33.6729 O   0  0  0  0  0  0  0  0  0  0  0  0
    3.8029    1.3596   34.8663 C   0  0  0  0  0  0  0  0  0  0  0  0
    3.1850    1.6967   33.6323 O   0  0  0  0  0  0  0  0  0  0  0  0
    4.1276    2.6621   35.6023 C   0  0  0  0  0  0  0  0  0  0  0  0
    4.7426    2.3843   36.8798 O   0  0  0  0  0  0  0  0  0  0  0  0
    5.2848    1.0565   37.1605 C   0  0  0  0  0  0  0  0  0  0  0  0
    7.3007   -0.5651   34.9898 H   0  0  0  0  0  0  0  0  0  0  0  0
    4.5258   -1.1023   34.0366 H   0  0  0  0  0  0  0  0  0  0  0  0
    3.7714    2.2803   33.1259 H   0  0  0  0  0  0  0  0  0  0  0  0
    2.9585    3.6201   35.8705 C   0  0  0  0  0  0  0  0  0  0  0  0
    2.0963    3.0895   36.9168 O   0  0  0  0  0  0  0  0  0  0  0  0
    1.7370    2.2333   36.6365 H   0  0  0  0  0  0  0  0  0  0  0  0
    1.0850    0.9916   48.0056 O   0  0  0  0  0  0  0  0  0  0  0  0
    0.6732   -0.3137   48.4051 C   0  0  0  0  0  0  0  0  0  0  0  0
   -0.3371   -0.2199   49.5699 C   0  0  0  0  0  0  0  0  0  0  0  0
   -0.4698   -1.4609   50.2801 O   0  0  0  0  0  0  0  0  0  0  0  0
    1.9289   -1.1448   48.6779 C   0  0  0  0  0  0  0  0  0  0  0  0
    2.6163   -1.4275   47.4543 O   0  0  0  0  0  0  0  0  0  0  0  0
    1.5349   -2.4764   49.2818 C   0  0  0  0  0  0  0  0  0  0  0  0
    2.7146   -3.2091   49.6136 O   0  0  0  0  0  0  0  0  0  0  0  0
    0.6893   -2.2639   50.5294 C   0  0  0  0  0  0  0  0  0  0  0  0
    2.0341   -1.9329   46.8657 H   0  0  0  0  0  0  0  0  0  0  0  0
    3.2364   -2.7067   50.2588 H   0  0  0  0  0  0  0  0  0  0  0  0
   -1.7144    0.1101   48.9883 C   0  0  0  0  0  0  0  0  0  0  0  0
   -1.8678   -0.3563   47.6470 O   0  0  0  0  0  0  0  0  0  0  0  0
   -1.2127    0.0765   47.0773 H   0  0  0  0  0  0  0  0  0  0  0  0
    0.2295   -3.5672   50.8901 O   0  0  0  0  0  0  0  0  0  0  0  0
   -0.9596   -3.5907   51.6582 C   0  0  0  0  0  0  0  0  0  0  0  0
   -2.0204   -4.3781   50.8889 C   0  0  0  0  0  0  0  0  0  0  0  0
   -2.4277   -3.6581   49.7155 O   0  0  0  0  0  0  0  0  0  0  0  0
   -3.2220   -4.6420   51.7873 C   0  0  0  0  0  0  0  0  0  0  0  0
   -4.1897   -5.4484   51.1054 O   0  0  0  0  0  0  0  0  0  0  0  0
   -2.7456   -5.3360   53.0608 C   0  0  0  0  0  0  0  0  0  0  0  0
   -3.8746   -5.6280   53.8988 O   0  0  0  0  0  0  0  0  0  0  0  0
   -1.8111   -4.4922   53.7473 O   0  0  0  0  0  0  0  0  0  0  0  0
   -0.6146   -4.2355   53.0007 C   0  0  0  0  0  0  0  0  0  0  0  0
   -2.8113   -2.8061   49.9759 H   0  0  0  0  0  0  0  0  0  0  0  0
   -3.7895   -6.2981   50.8632 H   0  0  0  0  0  0  0  0  0  0  0  0
   -4.3264   -4.8020   54.1321 H   0  0  0  0  0  0  0  0  0  0  0  0
    0.3846   -3.3281   53.7437 C   0  0  0  0  0  0  0  0  0  0  0  0
    1.7901   -3.7026   53.4445 O   0  0  0  0  0  0  0  0  0  0  0  0
    1.9506   -4.6142   53.7345 H   0  0  0  0  0  0  0  0  0  0  0  0
 29 30  1  0  0  0
 30 31  1  0  0  0
 30 37  1  0  0  0
 31 32  1  0  0  0
 31 33  1  0  0  0
 33 34  1  0  0  0
 33 35  1  0  0  0
 35 41  1  0  0  0
 35 36  1  0  0  0
 41 42  1  0  0  0
 36 37  1  0  0  0
 37 28  1  0  0  0
 28 15  1  0  0  0
 15 16  1  0  0  0
 15 18  1  0  0  0
 16 25  1  0  0  0
 16 17  1  0  0  0
 17 22  1  0  0  0
 25 26  1  0  0  0
 18 19  1  0  0  0
 18 20  1  0  0  0
 20 22  1  0  0  0
 20 21  1  0  0  0
 22 14  1  0  0  0
 14  1  1  0  0  0
  1  4  1  0  0  0
  1  2  1  0  0  0
  2 11  1  0  0  0
  2  3  1  0  0  0
  3  8  1  0  0  0
 11 12  1  0  0  0
  4  5  1  0  0  0
  4  6  1  0  0  0
  6  7  1  0  0  0
  6  8  1  0  0  0
  8 44  1  0  0  0
 44 45  1  0  0  0
 45 48  1  0  0  0
 45 46  1  0  0  0
 46 55  1  0  0  0
 46 47  1  0  0  0
 47 52  1  0  0  0
 55 56  1  0  0  0
 48 49  1  0  0  0
 48 50  1  0  0  0
 50 51  1  0  0  0
 50 52  1  0  0  0
 52 58  1  0  0  0
 58 59  1  0  0  0
 59 60  1  0  0  0
 59 67  1  0  0  0
 60 61  1  0  0  0
 60 62  1  0  0  0
 62 63  1  0  0  0
 62 64  1  0  0  0
 64 66  1  0  0  0
 64 65  1  0  0  0
 66 67  1  0  0  0
 67 71  1  0  0  0
 71 72  1  0  0  0
 29 38  1  0  0  0
 32 39  1  0  0  0
 34 40  1  0  0  0
 42 43  1  0  0  0
 26 27  1  0  0  0
 19 23  1  0  0  0
 21 24  1  0  0  0
 12 13  1  0  0  0
  5  9  1  0  0  0
  7 10  1  0  0  0
 56 57  1  0  0  0
 49 53  1  0  0  0
 51 54  1  0  0  0
 61 68  1  0  0  0
 63 69  1  0  0  0
 65 70  1  0  0  0
 72 73  1  0  0  0
M  END
> <minimizedAffinity>
-11.64156

$$$$
3F5K_CE5_A_1000


 73 77  0  0  0  0  0  0  0  0999 V2000
    1.6781    0.5079   43.8733 C   0  0  0  0  0  0  0  0  0  0  0  0
    0.3782    0.2414   44.6180 C   0  0  0  0  0  0  0  0  0  0  0  0
    0.6095    0.0165   46.0032 O   0  0  0  0  0  0  0  0  0  0  0  0
    2.3965    1.6867   44.5385 C   0  0  0  0  0  0  0  0  0  0  0  0
    3.6887    1.9260   43.9372 O   0  0  0  0  0  0  0  0  0  0  0  0
    2.5566    1.4513   46.0353 C   0  0  0  0  0  0  0  0  0  0  0  0
    3.0803    2.6026   46.6913 O   0  0  0  0  0  0  0  0  0  0  0  0
    1.2015    1.1330   46.6602 C   0  0  0  0  0  0  0  0  0  0  0  0
    4.2538    1.1480   44.0649 H   0  0  0  0  0  0  0  0  0  0  0  0
    2.4657    3.3449   46.5814 H   0  0  0  0  0  0  0  0  0  0  0  0
   -0.3794   -0.9652   44.0961 C   0  0  0  0  0  0  0  0  0  0  0  0
    0.6393   -1.7198   43.4435 O   0  0  0  0  0  0  0  0  0  0  0  0
    1.0598   -1.1732   42.7614 H   0  0  0  0  0  0  0  0  0  0  0  0
    1.3135    0.9340   42.5708 O   0  0  0  0  0  0  0  0  0  0  0  0
    3.5238    0.9671   38.9695 C   0  0  0  0  0  0  0  0  0  0  0  0
    4.1538    0.9806   40.3594 C   0  0  0  0  0  0  0  0  0  0  0  0
    3.1682    1.4622   41.2788 O   0  0  0  0  0  0  0  0  0  0  0  0
    2.2484    0.1189   39.0262 C   0  0  0  0  0  0  0  0  0  0  0  0
    1.5601    0.2558   37.7735 O   0  0  0  0  0  0  0  0  0  0  0  0
    1.3345    0.4263   40.2158 C   0  0  0  0  0  0  0  0  0  0  0  0
    0.3363   -0.5861   40.4021 O   0  0  0  0  0  0  0  0  0  0  0  0
    2.1539    0.4979   41.5025 C   0  0  0  0  0  0  0  0  0  0  0  0
    1.3027    1.1823   37.6455 H   0  0  0  0  0  0  0  0  0  0  0  0
    0.7672   -1.4334   40.5948 H   0  0  0  0  0  0  0  0  0  0  0  0
    5.4032    1.8243   40.5214 C   0  0  0  0  0  0  0  0  0  0  0  0
    5.9005    1.6047   41.8617 O   0  0  0  0  0  0  0  0  0  0  0  0
    5.2192    1.8563   42.5046 H   0  0  0  0  0  0  0  0  0  0  0  0
    4.3684    0.3219   38.0204 O   0  0  0  0  0  0  0  0  0  0  0  0
    7.1062   -0.0036   35.7609 O   0  0  0  0  0  0  0  0  0  0  0  0
    5.6747    0.2021   35.8916 C   0  0  0  0  0  0  0  0  0  0  0  0
    5.1694    0.7276   34.5527 C   0  0  0  0  0  0  0  0  0  0  0  0
    5.1088   -0.3636   33.6214 O   0  0  0  0  0  0  0  0  0  0  0  0
    3.8117    1.4120   34.7973 C   0  0  0  0  0  0  0  0  0  0  0  0
    3.2228    1.7623   33.5529 O   0  0  0  0  0  0  0  0  0  0  0  0
    4.1362    2.7071   35.5464 C   0  0  0  0  0  0  0  0  0  0  0  0
    4.7219    2.4160   36.8347 O   0  0  0  0  0  0  0  0  0  0  0  0
    5.2432    1.0807   37.1195 C   0  0  0  0  0  0  0  0  0  0  0  0
    7.2841   -0.5533   34.9818 H   0  0  0  0  0  0  0  0  0  0  0  0
    4.5231   -1.0539   33.9698 H   0  0  0  0  0  0  0  0  0  0  0  0
    3.8260    2.3416   33.0615 H   0  0  0  0  0  0  0  0  0  0  0  0
    2.9729    3.6772   35.7958 C   0  0  0  0  0  0  0  0  0  0  0  0
    2.1011    3.1666   36.8442 O   0  0  0  0  0  0  0  0  0  0  0  0
    1.7369    2.3095   36.5729 H   0  0  0  0  0  0  0  0  0  0  0  0
    1.3439    0.8915   48.0689 O   0  0  0  0  0  0  0  0  0  0  0  0
    0.2895    1.4847   48.8234 C   0  0  0  0  0  0  0  0  0  0  0  0
   -0.8115    0.4403   49.1120 C   0  0  0  0  0  0  0  0  0  0  0  0
   -2.0565    1.0480   49.4895 O   0  0  0  0  0  0  0  0  0  0  0  0
   -0.1667    2.7479   48.0896 C   0  0  0  0  0  0  0  0  0  0  0  0
    0.8411    3.7618   48.1669 O   0  0  0  0  0  0  0  0  0  0  0  0
   -1.4059    3.3040   48.7589 C   0  0  0  0  0  0  0  0  0  0  0  0
   -1.8749    4.4303   48.0172 O   0  0  0  0  0  0  0  0  0  0  0  0
   -2.4933    2.2413   48.8293 C   0  0  0  0  0  0  0  0  0  0  0  0
    1.0028    3.9868   49.0965 H   0  0  0  0  0  0  0  0  0  0  0  0
   -2.0956    4.1536   47.1141 H   0  0  0  0  0  0  0  0  0  0  0  0
   -0.3602   -0.4222   50.2937 C   0  0  0  0  0  0  0  0  0  0  0  0
    0.8016   -1.1970   49.9932 O   0  0  0  0  0  0  0  0  0  0  0  0
    0.6052   -1.8043   49.2628 H   0  0  0  0  0  0  0  0  0  0  0  0
   -3.5209    2.8176   49.6368 O   0  0  0  0  0  0  0  0  0  0  0  0
   -4.8127    2.2722   49.4404 C   0  0  0  0  0  0  0  0  0  0  0  0
   -5.2114    1.5002   50.6982 C   0  0  0  0  0  0  0  0  0  0  0  0
   -4.4010    0.3241   50.8437 O   0  0  0  0  0  0  0  0  0  0  0  0
   -6.6842    1.1181   50.6258 C   0  0  0  0  0  0  0  0  0  0  0  0
   -7.0922    0.4647   51.8335 O   0  0  0  0  0  0  0  0  0  0  0  0
   -7.5123    2.3790   50.3910 C   0  0  0  0  0  0  0  0  0  0  0  0
   -8.9070    2.0383   50.3622 O   0  0  0  0  0  0  0  0  0  0  0  0
   -7.1158    2.9914   49.1564 O   0  0  0  0  0  0  0  0  0  0  0  0
   -5.7545    3.4409   49.1507 C   0  0  0  0  0  0  0  0  0  0  0  0
   -4.5321   -0.2557   50.0772 H   0  0  0  0  0  0  0  0  0  0  0  0
   -6.9625    1.0641   52.5851 H   0  0  0  0  0  0  0  0  0  0  0  0
   -9.0709    1.4071   49.6441 H   0  0  0  0  0  0  0  0  0  0  0  0
   -5.3350    4.0974   47.8214 C   0  0  0  0  0  0  0  0  0  0  0  0
   -4.5007    5.3050   48.0474 O   0  0  0  0  0  0  0  0  0  0  0  0
   -5.0097    5.9602   48.5499 H   0  0  0  0  0  0  0  0  0  0  0  0
 29 30  1  0  0  0
 30 31  1  0  0  0
 30 37  1  0  0  0
 31 32  1  0  0  0
 31 33  1  0  0  0
 33 34  1  0  0  0
 33 35  1  0  0  0
 35 41  1  0  0  0
 35 36  1  0  0  0
 41 42  1  0  0  0
 36 37  1  0  0  0
 37 28  1  0  0  0
 28 15  1  0  0  0
 15 16  1  0  0  0
 15 18  1  0  0  0
 16 25  1  0  0  0
 16 17  1  0  0  0
 17 22  1  0  0  0
 25 26  1  0  0  0
 18 19  1  0  0  0
 18 20  1  0  0  0
 20 22  1  0  0  0
 20 21  1  0  0  0
 22 14  1  0  0  0
 14  1  1  0  0  0
  1  4  1  0  0  0
  1  2  1  0  0  0
  2 11  1  0  0  0
  2  3  1  0  0  0
  3  8  1  0  0  0
 11 12  1  0  0  0
  4  5  1  0  0  0
  4  6  1  0  0  0
  6  7  1  0  0  0
  6  8  1  0  0  0
  8 44  1  0  0  0
 44 45  1  0  0  0
 45 48  1  0  0  0
 45 46  1  0  0  0
 46 55  1  0  0  0
 46 47  1  0  0  0
 47 52  1  0  0  0
 55 56  1  0  0  0
 48 49  1  0  0  0
 48 50  1  0  0  0
 50 51  1  0  0  0
 50 52  1  0  0  0
 52 58  1  0  0  0
 58 59  1  0  0  0
 59 60  1  0  0  0
 59 67  1  0  0  0
 60 61  1  0  0  0
 60 62  1  0  0  0
 62 63  1  0  0  0
 62 64  1  0  0  0
 64 66  1  0  0  0
 64 65  1  0  0  0
 66 67  1  0  0  0
 67 71  1  0  0  0
 71 72  1  0  0  0
 29 38  1  0  0  0
 32 39  1  0  0  0
 34 40  1  0  0  0
 42 43  1  0  0  0
 26 27  1  0  0  0
 19 23  1  0  0  0
 21 24  1  0  0  0
 12 13  1  0  0  0
  5  9  1  0  0  0
  7 10  1  0  0  0
 56 57  1  0  0  0
 49 53  1  0  0  0
 51 54  1  0  0  0
 61 68  1  0  0  0
 63 69  1  0  0  0
 65 70  1  0  0  0
 72 73  1  0  0  0
M  END
> <minimizedAffinity>
-11.22934

$$$$
3F5K_CE5_A_1000


 73 77  0  0  0  0  0  0  0  0999 V2000
   -1.1398   -0.8915   41.0783 C   0  0  0  0  0  0  0  0  0  0  0  0
   -2.5873   -0.4859   41.3144 C   0  0  0  0  0  0  0  0  0  0  0  0
   -3.1914   -1.2817   42.3266 O   0  0  0  0  0  0  0  0  0  0  0  0
   -0.3806   -0.8112   42.4070 C   0  0  0  0  0  0  0  0  0  0  0  0
    0.9790   -1.2810   42.2684 O   0  0  0  0  0  0  0  0  0  0  0  0
   -1.0965   -1.6073   43.4910 C   0  0  0  0  0  0  0  0  0  0  0  0
   -0.4898   -1.4151   44.7658 O   0  0  0  0  0  0  0  0  0  0  0  0
   -2.5509   -1.1576   43.5927 C   0  0  0  0  0  0  0  0  0  0  0  0
    0.9733   -2.2152   42.0072 H   0  0  0  0  0  0  0  0  0  0  0  0
   -0.5459   -0.4787   45.0127 H   0  0  0  0  0  0  0  0  0  0  0  0
   -3.4578   -0.6101   40.0779 C   0  0  0  0  0  0  0  0  0  0  0  0
   -2.6778   -1.4450   39.2250 O   0  0  0  0  0  0  0  0  0  0  0  0
   -1.8109   -1.0358   39.0767 H   0  0  0  0  0  0  0  0  0  0  0  0
   -0.5807    0.0962   40.2280 O   0  0  0  0  0  0  0  0  0  0  0  0
    3.1355    0.6493   38.2942 C   0  0  0  0  0  0  0  0  0  0  0  0
    2.9690    0.5221   39.8059 C   0  0  0  0  0  0  0  0  0  0  0  0
    1.6122    0.8500   40.1228 O   0  0  0  0  0  0  0  0  0  0  0  0
    2.0960   -0.2508   37.6170 C   0  0  0  0  0  0  0  0  0  0  0  0
    2.1287    0.0068   36.2048 O   0  0  0  0  0  0  0  0  0  0  0  0
    0.6804   -0.1251   38.1873 C   0  0  0  0  0  0  0  0  0  0  0  0
   -0.1716   -1.1922   37.7498 O   0  0  0  0  0  0  0  0  0  0  0  0
    0.7228   -0.1746   39.7130 C   0  0  0  0  0  0  0  0  0  0  0  0
    1.8840    0.9306   36.0389 H   0  0  0  0  0  0  0  0  0  0  0  0
    0.1812   -2.0384   38.0668 H   0  0  0  0  0  0  0  0  0  0  0  0
    3.8757    1.3905   40.6561 C   0  0  0  0  0  0  0  0  0  0  0  0
    5.1796    0.7647   40.6730 O   0  0  0  0  0  0  0  0  0  0  0  0
    5.1039   -0.1304   41.0391 H   0  0  0  0  0  0  0  0  0  0  0  0
    4.4023    0.1569   37.8661 O   0  0  0  0  0  0  0  0  0  0  0  0
    7.1440   -0.0899   35.6013 O   0  0  0  0  0  0  0  0  0  0  0  0
    5.7154    0.1314   35.7382 C   0  0  0  0  0  0  0  0  0  0  0  0
    5.2240    0.7366   34.4281 C   0  0  0  0  0  0  0  0  0  0  0  0
    5.1499   -0.3015   33.4388 O   0  0  0  0  0  0  0  0  0  0  0  0
    3.8763    1.4285   34.7050 C   0  0  0  0  0  0  0  0  0  0  0  0
    3.2982    1.8550   33.4794 O   0  0  0  0  0  0  0  0  0  0  0  0
    4.2182    2.6759   35.5241 C   0  0  0  0  0  0  0  0  0  0  0  0
    4.7939    2.3061   36.7966 O   0  0  0  0  0  0  0  0  0  0  0  0
    5.2928    0.9491   37.0105 C   0  0  0  0  0  0  0  0  0  0  0  0
    7.3163   -0.5994   34.7941 H   0  0  0  0  0  0  0  0  0  0  0  0
    4.5519   -1.0002   33.7475 H   0  0  0  0  0  0  0  0  0  0  0  0
    3.9125    2.4502   33.0220 H   0  0  0  0  0  0  0  0  0  0  0  0
    3.0694    3.6496   35.8219 C   0  0  0  0  0  0  0  0  0  0  0  0
    3.0864    4.0423   37.2237 O   0  0  0  0  0  0  0  0  0  0  0  0
    2.9783    3.2559   37.7812 H   0  0  0  0  0  0  0  0  0  0  0  0
   -3.2400   -1.9148   44.6002 O   0  0  0  0  0  0  0  0  0  0  0  0
   -3.5353   -1.1289   45.7527 C   0  0  0  0  0  0  0  0  0  0  0  0
   -3.3821    0.3732   45.4261 C   0  0  0  0  0  0  0  0  0  0  0  0
   -3.2562    1.1797   46.6075 O   0  0  0  0  0  0  0  0  0  0  0  0
   -2.6829   -1.6485   46.9126 C   0  0  0  0  0  0  0  0  0  0  0  0
   -3.1387   -2.9407   47.3275 O   0  0  0  0  0  0  0  0  0  0  0  0
   -2.8289   -0.7246   48.1034 C   0  0  0  0  0  0  0  0  0  0  0  0
   -1.9643   -1.1671   49.1500 O   0  0  0  0  0  0  0  0  0  0  0  0
   -2.4793    0.7043   47.7125 C   0  0  0  0  0  0  0  0  0  0  0  0
   -4.0596   -2.8784   47.6256 H   0  0  0  0  0  0  0  0  0  0  0  0
   -1.0453   -1.1474   48.8403 H   0  0  0  0  0  0  0  0  0  0  0  0
   -4.6466    0.8403   44.7004 C   0  0  0  0  0  0  0  0  0  0  0  0
   -4.5200    2.1636   44.1775 O   0  0  0  0  0  0  0  0  0  0  0  0
   -4.3697    2.7861   44.9061 H   0  0  0  0  0  0  0  0  0  0  0  0
   -2.8337    1.4949   48.8480 O   0  0  0  0  0  0  0  0  0  0  0  0
   -1.9224    2.5316   49.1633 C   0  0  0  0  0  0  0  0  0  0  0  0
   -0.5011    1.9780   49.0605 C   0  0  0  0  0  0  0  0  0  0  0  0
   -0.2561    1.0258   50.1067 O   0  0  0  0  0  0  0  0  0  0  0  0
    0.5056    3.1184   49.1413 C   0  0  0  0  0  0  0  0  0  0  0  0
    1.8382    2.6236   48.9653 O   0  0  0  0  0  0  0  0  0  0  0  0
    0.1704    4.1522   48.0692 C   0  0  0  0  0  0  0  0  0  0  0  0
    1.1372    5.2133   48.1072 O   0  0  0  0  0  0  0  0  0  0  0  0
   -1.1508    4.6638   48.2911 O   0  0  0  0  0  0  0  0  0  0  0  0
   -2.1774    3.6699   48.1753 C   0  0  0  0  0  0  0  0  0  0  0  0
   -0.3510    1.4607   50.9685 H   0  0  0  0  0  0  0  0  0  0  0  0
    1.9143    2.2021   48.0950 H   0  0  0  0  0  0  0  0  0  0  0  0
    1.1185    5.6367   48.9797 H   0  0  0  0  0  0  0  0  0  0  0  0
   -3.5941    4.2261   48.4153 C   0  0  0  0  0  0  0  0  0  0  0  0
   -4.5760    3.6515   47.4608 O   0  0  0  0  0  0  0  0  0  0  0  0
   -4.3198    3.8837   46.5545 H   0  0  0  0  0  0  0  0  0  0  0  0
 29 30  1  0  0  0
 30 31  1  0  0  0
 30 37  1  0  0  0
 31 32  1  0  0  0
 31 33  1  0  0  0
 33 34  1  0  0  0
 33 35  1  0  0  0
 35 41  1  0  0  0
 35 36  1  0  0  0
 41 42  1  0  0  0
 36 37  1  0  0  0
 37 28  1  0  0  0
 28 15  1  0  0  0
 15 16  1  0  0  0
 15 18  1  0  0  0
 16 25  1  0  0  0
 16 17  1  0  0  0
 17 22  1  0  0  0
 25 26  1  0  0  0
 18 19  1  0  0  0
 18 20  1  0  0  0
 20 22  1  0  0  0
 20 21  1  0  0  0
 22 14  1  0  0  0
 14  1  1  0  0  0
  1  4  1  0  0  0
  1  2  1  0  0  0
  2 11  1  0  0  0
  2  3  1  0  0  0
  3  8  1  0  0  0
 11 12  1  0  0  0
  4  5  1  0  0  0
  4  6  1  0  0  0
  6  7  1  0  0  0
  6  8  1  0  0  0
  8 44  1  0  0  0
 44 45  1  0  0  0
 45 48  1  0  0  0
 45 46  1  0  0  0
 46 55  1  0  0  0
 46 47  1  0  0  0
 47 52  1  0  0  0
 55 56  1  0  0  0
 48 49  1  0  0  0
 48 50  1  0  0  0
 50 51  1  0  0  0
 50 52  1  0  0  0
 52 58  1  0  0  0
 58 59  1  0  0  0
 59 60  1  0  0  0
 59 67  1  0  0  0
 60 61  1  0  0  0
 60 62  1  0  0  0
 62 63  1  0  0  0
 62 64  1  0  0  0
 64 66  1  0  0  0
 64 65  1  0  0  0
 66 67  1  0  0  0
 67 71  1  0  0  0
 71 72  1  0  0  0
 29 38  1  0  0  0
 32 39  1  0  0  0
 34 40  1  0  0  0
 42 43  1  0  0  0
 26 27  1  0  0  0
 19 23  1  0  0  0
 21 24  1  0  0  0
 12 13  1  0  0  0
  5  9  1  0  0  0
  7 10  1  0  0  0
 56 57  1  0  0  0
 49 53  1  0  0  0
 51 54  1  0  0  0
 61 68  1  0  0  0
 63 69  1  0  0  0
 65 70  1  0  0  0
 72 73  1  0  0  0
M  END
> <minimizedAffinity>
-10.23480

$$$$
3F5K_CE5_A_1000


 73 77  0  0  0  0  0  0  0  0999 V2000
   -5.2043   -1.3916   42.7094 C   0  0  0  0  0  0  0  0  0  0  0  0
   -4.1562   -2.3552   42.1721 C   0  0  0  0  0  0  0  0  0  0  0  0
   -4.1652   -2.3928   40.7503 O   0  0  0  0  0  0  0  0  0  0  0  0
   -4.9673   -0.0089   42.0928 C   0  0  0  0  0  0  0  0  0  0  0  0
   -5.9931    0.9292   42.4879 O   0  0  0  0  0  0  0  0  0  0  0  0
   -4.9011   -0.0955   40.5731 C   0  0  0  0  0  0  0  0  0  0  0  0
   -4.5266    1.1520   39.9954 O   0  0  0  0  0  0  0  0  0  0  0  0
   -3.8645   -1.1342   40.1553 C   0  0  0  0  0  0  0  0  0  0  0  0
   -6.8540    0.6231   42.1620 H   0  0  0  0  0  0  0  0  0  0  0  0
   -3.6425    1.4005   40.3078 H   0  0  0  0  0  0  0  0  0  0  0  0
   -4.3463   -3.7819   42.6520 C   0  0  0  0  0  0  0  0  0  0  0  0
   -3.3168   -3.9268   43.6278 O   0  0  0  0  0  0  0  0  0  0  0  0
   -2.4563   -3.7428   43.2198 H   0  0  0  0  0  0  0  0  0  0  0  0
   -4.9576   -1.2664   44.1003 O   0  0  0  0  0  0  0  0  0  0  0  0
   -1.5701   -0.0897   46.3354 C   0  0  0  0  0  0  0  0  0  0  0  0
   -1.5037   -0.9113   45.0510 C   0  0  0  0  0  0  0  0  0  0  0  0
   -2.7812   -1.5289   44.8635 O   0  0  0  0  0  0  0  0  0  0  0  0
   -2.7354    0.8987   46.2160 C   0  0  0  0  0  0  0  0  0  0  0  0
   -2.9136    1.5410   47.4879 O   0  0  0  0  0  0  0  0  0  0  0  0
   -4.0391    0.2831   45.7001 C   0  0  0  0  0  0  0  0  0  0  0  0
   -4.9882    1.2843   45.3093 O   0  0  0  0  0  0  0  0  0  0  0  0
   -3.7613   -0.5825   44.4731 C   0  0  0  0  0  0  0  0  0  0  0  0
   -3.1464    0.8770   48.1556 H   0  0  0  0  0  0  0  0  0  0  0  0
   -4.6222    1.8100   44.5809 H   0  0  0  0  0  0  0  0  0  0  0  0
   -0.4437   -1.9944   45.0016 C   0  0  0  0  0  0  0  0  0  0  0  0
   -0.3131   -2.5306   46.3385 O   0  0  0  0  0  0  0  0  0  0  0  0
   -0.0626   -1.8196   46.9490 H   0  0  0  0  0  0  0  0  0  0  0  0
   -0.4048    0.7135   46.5014 O   0  0  0  0  0  0  0  0  0  0  0  0
    2.4164   -1.2470   47.4521 O   0  0  0  0  0  0  0  0  0  0  0  0
    1.9515    0.0607   47.0253 C   0  0  0  0  0  0  0  0  0  0  0  0
    3.0619    1.0585   47.3346 C   0  0  0  0  0  0  0  0  0  0  0  0
    4.1018    0.9104   46.3556 O   0  0  0  0  0  0  0  0  0  0  0  0
    2.4355    2.4650   47.3680 C   0  0  0  0  0  0  0  0  0  0  0  0
    3.4612    3.4415   47.4798 O   0  0  0  0  0  0  0  0  0  0  0  0
    1.6002    2.5098   48.6501 C   0  0  0  0  0  0  0  0  0  0  0  0
    0.5232    1.5487   48.5888 O   0  0  0  0  0  0  0  0  0  0  0  0
    0.5483    0.4801   47.5921 C   0  0  0  0  0  0  0  0  0  0  0  0
    3.2849   -1.4257   47.0588 H   0  0  0  0  0  0  0  0  0  0  0  0
    3.7353    1.0583   45.4697 H   0  0  0  0  0  0  0  0  0  0  0  0
    3.9852    3.2701   48.2779 H   0  0  0  0  0  0  0  0  0  0  0  0
    0.9712    3.8592   49.0243 C   0  0  0  0  0  0  0  0  0  0  0  0
    0.7923    4.6832   47.8374 O   0  0  0  0  0  0  0  0  0  0  0  0
    1.6547    4.8473   47.4247 H   0  0  0  0  0  0  0  0  0  0  0  0
   -3.8069   -1.2366   38.7237 O   0  0  0  0  0  0  0  0  0  0  0  0
   -2.4914   -1.0089   38.2229 C   0  0  0  0  0  0  0  0  0  0  0  0
   -1.4686   -1.8608   39.0067 C   0  0  0  0  0  0  0  0  0  0  0  0
   -0.1233   -1.3848   38.8466 O   0  0  0  0  0  0  0  0  0  0  0  0
   -2.2389    0.5005   38.2213 C   0  0  0  0  0  0  0  0  0  0  0  0
   -3.0372    1.1393   37.2192 O   0  0  0  0  0  0  0  0  0  0  0  0
   -0.7906    0.7723   37.8727 C   0  0  0  0  0  0  0  0  0  0  0  0
   -0.5422    2.1757   37.9588 O   0  0  0  0  0  0  0  0  0  0  0  0
    0.1334    0.0238   38.8228 C   0  0  0  0  0  0  0  0  0  0  0  0
   -2.8035    0.7867   36.3463 H   0  0  0  0  0  0  0  0  0  0  0  0
   -0.7165    2.4800   38.8632 H   0  0  0  0  0  0  0  0  0  0  0  0
   -1.5050   -3.2880   38.4537 C   0  0  0  0  0  0  0  0  0  0  0  0
   -0.2883   -3.6527   37.8003 O   0  0  0  0  0  0  0  0  0  0  0  0
   -0.1381   -3.0637   37.0444 H   0  0  0  0  0  0  0  0  0  0  0  0
    1.4433    0.2043   38.2825 O   0  0  0  0  0  0  0  0  0  0  0  0
    2.2812    1.0732   39.0225 C   0  0  0  0  0  0  0  0  0  0  0  0
    2.4444    0.5073   40.4332 C   0  0  0  0  0  0  0  0  0  0  0  0
    1.2053    0.5892   41.1537 O   0  0  0  0  0  0  0  0  0  0  0  0
    3.5347    1.2707   41.1741 C   0  0  0  0  0  0  0  0  0  0  0  0
    3.7548    0.6993   42.4690 O   0  0  0  0  0  0  0  0  0  0  0  0
    4.8163    1.2332   40.3455 C   0  0  0  0  0  0  0  0  0  0  0  0
    5.8645    1.9144   41.0523 O   0  0  0  0  0  0  0  0  0  0  0  0
    4.5831    1.8485   39.0713 O   0  0  0  0  0  0  0  0  0  0  0  0
    3.6104    1.1620   38.2727 C   0  0  0  0  0  0  0  0  0  0  0  0
    0.9355    1.5179   41.2284 H   0  0  0  0  0  0  0  0  0  0  0  0
    4.0330   -0.2248   42.3716 H   0  0  0  0  0  0  0  0  0  0  0  0
    5.6059    2.8369   41.2037 H   0  0  0  0  0  0  0  0  0  0  0  0
    3.3643    1.8284   36.9055 C   0  0  0  0  0  0  0  0  0  0  0  0
    2.2233    2.7775   36.9573 O   0  0  0  0  0  0  0  0  0  0  0  0
    1.4152    2.2988   37.1995 H   0  0  0  0  0  0  0  0  0  0  0  0
 29 30  1  0  0  0
 30 31  1  0  0  0
 30 37  1  0  0  0
 31 32  1  0  0  0
 31 33  1  0  0  0
 33 34  1  0  0  0
 33 35  1  0  0  0
 35 41  1  0  0  0
 35 36  1  0  0  0
 41 42  1  0  0  0
 36 37  1  0  0  0
 37 28  1  0  0  0
 28 15  1  0  0  0
 15 16  1  0  0  0
 15 18  1  0  0  0
 16 25  1  0  0  0
 16 17  1  0  0  0
 17 22  1  0  0  0
 25 26  1  0  0  0
 18 19  1  0  0  0
 18 20  1  0  0  0
 20 22  1  0  0  0
 20 21  1  0  0  0
 22 14  1  0  0  0
 14  1  1  0  0  0
  1  4  1  0  0  0
  1  2  1  0  0  0
  2 11  1  0  0  0
  2  3  1  0  0  0
  3  8  1  0  0  0
 11 12  1  0  0  0
  4  5  1  0  0  0
  4  6  1  0  0  0
  6  7  1  0  0  0
  6  8  1  0  0  0
  8 44  1  0  0  0
 44 45  1  0  0  0
 45 48  1  0  0  0
 45 46  1  0  0  0
 46 55  1  0  0  0
 46 47  1  0  0  0
 47 52  1  0  0  0
 55 56  1  0  0  0
 48 49  1  0  0  0
 48 50  1  0  0  0
 50 51  1  0  0  0
 50 52  1  0  0  0
 52 58  1  0  0  0
 58 59  1  0  0  0
 59 60  1  0  0  0
 59 67  1  0  0  0
 60 61  1  0  0  0
 60 62  1  0  0  0
 62 63  1  0  0  0
 62 64  1  0  0  0
 64 66  1  0  0  0
 64 65  1  0  0  0
 66 67  1  0  0  0
 67 71  1  0  0  0
 71 72  1  0  0  0
 29 38  1  0  0  0
 32 39  1  0  0  0
 34 40  1  0  0  0
 42 43  1  0  0  0
 26 27  1  0  0  0
 19 23  1  0  0  0
 21 24  1  0  0  0
 12 13  1  0  0  0
  5  9  1  0  0  0
  7 10  1  0  0  0
 56 57  1  0  0  0
 49 53  1  0  0  0
 51 54  1  0  0  0
 61 68  1  0  0  0
 63 69  1  0  0  0
 65 70  1  0  0  0
 72 73  1  0  0  0
M  END
> <minimizedAffinity>
-10.02732

$$$$
3F5K_CE5_A_1000


 73 77  0  0  0  0  0  0  0  0999 V2000
    1.5246   -0.3097   44.7785 C   0  0  0  0  0  0  0  0  0  0  0  0
    0.1151   -0.8145   45.0501 C   0  0  0  0  0  0  0  0  0  0  0  0
    0.1206   -1.9052   45.9629 O   0  0  0  0  0  0  0  0  0  0  0  0
    2.1847    0.0559   46.1123 C   0  0  0  0  0  0  0  0  0  0  0  0
    3.5633    0.4491   45.9299 O   0  0  0  0  0  0  0  0  0  0  0  0
    2.1023   -1.1049   47.0957 C   0  0  0  0  0  0  0  0  0  0  0  0
    2.5704   -0.7282   48.3877 O   0  0  0  0  0  0  0  0  0  0  0  0
    0.6544   -1.5645   47.2387 C   0  0  0  0  0  0  0  0  0  0  0  0
    4.0665   -0.2958   45.5654 H   0  0  0  0  0  0  0  0  0  0  0  0
    2.0140   -0.0149   48.7378 H   0  0  0  0  0  0  0  0  0  0  0  0
   -0.6069   -1.2877   43.8023 C   0  0  0  0  0  0  0  0  0  0  0  0
   -1.1914   -0.0875   43.3012 O   0  0  0  0  0  0  0  0  0  0  0  0
   -1.7618    0.3029   43.9817 H   0  0  0  0  0  0  0  0  0  0  0  0
    1.3839    0.8976   44.0480 O   0  0  0  0  0  0  0  0  0  0  0  0
    3.6929   -0.2399   40.6968 C   0  0  0  0  0  0  0  0  0  0  0  0
    2.1671   -0.2497   40.7268 C   0  0  0  0  0  0  0  0  0  0  0  0
    1.7596   -0.3041   42.0979 O   0  0  0  0  0  0  0  0  0  0  0  0
    4.1845    0.9372   41.5464 C   0  0  0  0  0  0  0  0  0  0  0  0
    5.6117    0.8390   41.6695 O   0  0  0  0  0  0  0  0  0  0  0  0
    3.5015    1.0633   42.9112 C   0  0  0  0  0  0  0  0  0  0  0  0
    3.7569    2.3342   43.5243 O   0  0  0  0  0  0  0  0  0  0  0  0
    1.9882    0.9307   42.7551 C   0  0  0  0  0  0  0  0  0  0  0  0
    5.8407    0.0164   42.1297 H   0  0  0  0  0  0  0  0  0  0  0  0
    3.3953    3.0407   42.9666 H   0  0  0  0  0  0  0  0  0  0  0  0
    1.4889   -1.3864   39.9872 C   0  0  0  0  0  0  0  0  0  0  0  0
    0.0614   -1.1996   40.1260 O   0  0  0  0  0  0  0  0  0  0  0  0
   -0.1748   -1.2005   41.0668 H   0  0  0  0  0  0  0  0  0  0  0  0
    4.1868    0.0061   39.3830 O   0  0  0  0  0  0  0  0  0  0  0  0
    1.2534    1.5672   38.0927 O   0  0  0  0  0  0  0  0  0  0  0  0
    2.7020    1.4919   38.0264 C   0  0  0  0  0  0  0  0  0  0  0  0
    3.1309    2.1672   36.7286 C   0  0  0  0  0  0  0  0  0  0  0  0
    3.0335    3.5902   36.8943 O   0  0  0  0  0  0  0  0  0  0  0  0
    4.5508    1.6769   36.3893 C   0  0  0  0  0  0  0  0  0  0  0  0
    5.0578    2.4114   35.2840 O   0  0  0  0  0  0  0  0  0  0  0  0
    4.3858    0.2194   35.9510 C   0  0  0  0  0  0  0  0  0  0  0  0
    3.8900   -0.5866   37.0427 O   0  0  0  0  0  0  0  0  0  0  0  0
    3.2978    0.0515   38.2167 C   0  0  0  0  0  0  0  0  0  0  0  0
    0.9713    2.4865   37.9659 H   0  0  0  0  0  0  0  0  0  0  0  0
    3.5940    3.8685   37.6354 H   0  0  0  0  0  0  0  0  0  0  0  0
    4.4597    2.3102   34.5270 H   0  0  0  0  0  0  0  0  0  0  0  0
    5.6338   -0.4892   35.4062 C   0  0  0  0  0  0  0  0  0  0  0  0
    6.8413    0.1378   35.9243 O   0  0  0  0  0  0  0  0  0  0  0  0
    6.8672    1.0672   35.6477 H   0  0  0  0  0  0  0  0  0  0  0  0
    0.5678   -2.6710   48.1506 O   0  0  0  0  0  0  0  0  0  0  0  0
    0.4530   -2.2409   49.5052 C   0  0  0  0  0  0  0  0  0  0  0  0
    0.9131   -3.3639   50.4610 C   0  0  0  0  0  0  0  0  0  0  0  0
    0.4448   -3.1653   51.8038 O   0  0  0  0  0  0  0  0  0  0  0  0
   -0.9718   -1.7255   49.7203 C   0  0  0  0  0  0  0  0  0  0  0  0
   -1.1695   -0.4951   49.0156 O   0  0  0  0  0  0  0  0  0  0  0  0
   -1.1893   -1.4332   51.1901 C   0  0  0  0  0  0  0  0  0  0  0  0
   -2.5456   -1.0367   51.3945 O   0  0  0  0  0  0  0  0  0  0  0  0
   -0.8783   -2.6654   52.0279 C   0  0  0  0  0  0  0  0  0  0  0  0
   -0.5474    0.1711   49.3473 H   0  0  0  0  0  0  0  0  0  0  0  0
   -3.1372   -1.7547   51.1198 H   0  0  0  0  0  0  0  0  0  0  0  0
    2.4431   -3.3532   50.5165 C   0  0  0  0  0  0  0  0  0  0  0  0
    2.9412   -3.2221   51.8488 O   0  0  0  0  0  0  0  0  0  0  0  0
    2.6419   -2.3794   52.2244 H   0  0  0  0  0  0  0  0  0  0  0  0
   -0.9348   -2.2150   53.3821 O   0  0  0  0  0  0  0  0  0  0  0  0
   -0.9408   -3.2435   54.3550 C   0  0  0  0  0  0  0  0  0  0  0  0
    0.3628   -3.1689   55.1501 C   0  0  0  0  0  0  0  0  0  0  0  0
    1.4773   -3.5359   54.3230 O   0  0  0  0  0  0  0  0  0  0  0  0
    0.2829   -4.0878   56.3625 C   0  0  0  0  0  0  0  0  0  0  0  0
    1.4658   -3.9673   57.1612 O   0  0  0  0  0  0  0  0  0  0  0  0
   -0.9555   -3.7251   57.1783 C   0  0  0  0  0  0  0  0  0  0  0  0
   -1.0203   -4.5569   58.3471 O   0  0  0  0  0  0  0  0  0  0  0  0
   -2.1290   -3.8943   56.3717 O   0  0  0  0  0  0  0  0  0  0  0  0
   -2.1726   -3.0241   55.2333 C   0  0  0  0  0  0  0  0  0  0  0  0
    1.3629   -4.4476   54.0122 H   0  0  0  0  0  0  0  0  0  0  0  0
    1.5559   -3.0520   57.4695 H   0  0  0  0  0  0  0  0  0  0  0  0
   -1.0725   -5.4877   58.0791 H   0  0  0  0  0  0  0  0  0  0  0  0
   -3.4356   -3.2114   54.3709 C   0  0  0  0  0  0  0  0  0  0  0  0
   -3.8961   -1.9250   53.7891 O   0  0  0  0  0  0  0  0  0  0  0  0
   -4.1182   -1.3080   54.5038 H   0  0  0  0  0  0  0  0  0  0  0  0
 29 30  1  0  0  0
 30 31  1  0  0  0
 30 37  1  0  0  0
 31 32  1  0  0  0
 31 33  1  0  0  0
 33 34  1  0  0  0
 33 35  1  0  0  0
 35 41  1  0  0  0
 35 36  1  0  0  0
 41 42  1  0  0  0
 36 37  1  0  0  0
 37 28  1  0  0  0
 28 15  1  0  0  0
 15 16  1  0  0  0
 15 18  1  0  0  0
 16 25  1  0  0  0
 16 17  1  0  0  0
 17 22  1  0  0  0
 25 26  1  0  0  0
 18 19  1  0  0  0
 18 20  1  0  0  0
 20 22  1  0  0  0
 20 21  1  0  0  0
 22 14  1  0  0  0
 14  1  1  0  0  0
  1  4  1  0  0  0
  1  2  1  0  0  0
  2 11  1  0  0  0
  2  3  1  0  0  0
  3  8  1  0  0  0
 11 12  1  0  0  0
  4  5  1  0  0  0
  4  6  1  0  0  0
  6  7  1  0  0  0
  6  8  1  0  0  0
  8 44  1  0  0  0
 44 45  1  0  0  0
 45 48  1  0  0  0
 45 46  1  0  0  0
 46 55  1  0  0  0
 46 47  1  0  0  0
 47 52  1  0  0  0
 55 56  1  0  0  0
 48 49  1  0  0  0
 48 50  1  0  0  0
 50 51  1  0  0  0
 50 52  1  0  0  0
 52 58  1  0  0  0
 58 59  1  0  0  0
 59 60  1  0  0  0
 59 67  1  0  0  0
 60 61  1  0  0  0
 60 62  1  0  0  0
 62 63  1  0  0  0
 62 64  1  0  0  0
 64 66  1  0  0  0
 64 65  1  0  0  0
 66 67  1  0  0  0
 67 71  1  0  0  0
 71 72  1  0  0  0
 29 38  1  0  0  0
 32 39  1  0  0  0
 34 40  1  0  0  0
 42 43  1  0  0  0
 26 27  1  0  0  0
 19 23  1  0  0  0
 21 24  1  0  0  0
 12 13  1  0  0  0
  5  9  1  0  0  0
  7 10  1  0  0  0
 56 57  1  0  0  0
 49 53  1  0  0  0
 51 54  1  0  0  0
 61 68  1  0  0  0
 63 69  1  0  0  0
 65 70  1  0  0  0
 72 73  1  0  0  0
M  END
> <minimizedAffinity>
-9.96372

$$$$
3F5K_CE5_A_1000


 73 77  0  0  0  0  0  0  0  0999 V2000
   -0.2894   -0.2283   45.7764 C   0  0  0  0  0  0  0  0  0  0  0  0
    0.8647    0.3620   44.9795 C   0  0  0  0  0  0  0  0  0  0  0  0
    1.1032   -0.3750   43.7866 O   0  0  0  0  0  0  0  0  0  0  0  0
   -1.5293   -0.2917   44.8782 C   0  0  0  0  0  0  0  0  0  0  0  0
   -2.6354   -0.9367   45.5483 O   0  0  0  0  0  0  0  0  0  0  0  0
   -1.2194   -1.0160   43.5741 C   0  0  0  0  0  0  0  0  0  0  0  0
   -2.3149   -0.9462   42.6656 O   0  0  0  0  0  0  0  0  0  0  0  0
   -0.0100   -0.3769   42.8981 C   0  0  0  0  0  0  0  0  0  0  0  0
   -2.3965   -1.8532   45.7578 H   0  0  0  0  0  0  0  0  0  0  0  0
   -2.4925   -0.0187   42.4439 H   0  0  0  0  0  0  0  0  0  0  0  0
    2.1733    0.3941   45.7468 C   0  0  0  0  0  0  0  0  0  0  0  0
    2.4107   -0.9842   46.0242 O   0  0  0  0  0  0  0  0  0  0  0  0
    1.6573   -1.3500   46.5136 H   0  0  0  0  0  0  0  0  0  0  0  0
   -0.5796    0.6999   46.8085 O   0  0  0  0  0  0  0  0  0  0  0  0
   -0.3881   -1.8201   50.1951 C   0  0  0  0  0  0  0  0  0  0  0  0
    0.8346   -1.3255   49.4272 C   0  0  0  0  0  0  0  0  0  0  0  0
    0.4011   -0.9481   48.1163 O   0  0  0  0  0  0  0  0  0  0  0  0
   -1.4488   -0.7138   50.1772 C   0  0  0  0  0  0  0  0  0  0  0  0
   -2.6610   -1.2428   50.7365 O   0  0  0  0  0  0  0  0  0  0  0  0
   -1.6832   -0.0818   48.8023 C   0  0  0  0  0  0  0  0  0  0  0  0
   -2.4335    1.1368   48.8920 O   0  0  0  0  0  0  0  0  0  0  0  0
   -0.3467    0.2555   48.1449 C   0  0  0  0  0  0  0  0  0  0  0  0
   -2.9781   -1.9758   50.1861 H   0  0  0  0  0  0  0  0  0  0  0  0
   -1.9359    1.7852   49.4143 H   0  0  0  0  0  0  0  0  0  0  0  0
    1.9784   -2.3101   49.2813 C   0  0  0  0  0  0  0  0  0  0  0  0
    3.1635   -1.5481   48.9543 O   0  0  0  0  0  0  0  0  0  0  0  0
    3.0148   -1.0559   48.1318 H   0  0  0  0  0  0  0  0  0  0  0  0
   -0.0870   -2.0369   51.5709 O   0  0  0  0  0  0  0  0  0  0  0  0
    0.8231   -3.8280   54.5154 O   0  0  0  0  0  0  0  0  0  0  0  0
   -0.2715   -3.3699   53.6784 C   0  0  0  0  0  0  0  0  0  0  0  0
   -1.5084   -4.1684   54.0744 C   0  0  0  0  0  0  0  0  0  0  0  0
   -2.0093   -3.6570   55.3192 O   0  0  0  0  0  0  0  0  0  0  0  0
   -2.5178   -4.0794   52.9148 C   0  0  0  0  0  0  0  0  0  0  0  0
   -3.7515   -4.6620   53.3104 O   0  0  0  0  0  0  0  0  0  0  0  0
   -1.9286   -4.9392   51.7934 C   0  0  0  0  0  0  0  0  0  0  0  0
   -0.6768   -4.3846   51.3322 O   0  0  0  0  0  0  0  0  0  0  0  0
    0.0249   -3.3860   52.1364 C   0  0  0  0  0  0  0  0  0  0  0  0
    0.5571   -3.7859   55.4473 H   0  0  0  0  0  0  0  0  0  0  0  0
   -2.2177   -2.7148   55.2212 H   0  0  0  0  0  0  0  0  0  0  0  0
   -3.6032   -5.5823   53.5786 H   0  0  0  0  0  0  0  0  0  0  0  0
   -2.8031   -5.1573   50.5508 C   0  0  0  0  0  0  0  0  0  0  0  0
   -3.1049   -3.8844   49.9118 O   0  0  0  0  0  0  0  0  0  0  0  0
   -3.5864   -3.3166   50.5337 H   0  0  0  0  0  0  0  0  0  0  0  0
    0.3018   -1.0641   41.6759 O   0  0  0  0  0  0  0  0  0  0  0  0
    0.5589   -0.1600   40.6037 C   0  0  0  0  0  0  0  0  0  0  0  0
    0.1234   -0.7884   39.2614 C   0  0  0  0  0  0  0  0  0  0  0  0
    0.7183   -0.1318   38.1314 O   0  0  0  0  0  0  0  0  0  0  0  0
    2.0234    0.2756   40.6910 C   0  0  0  0  0  0  0  0  0  0  0  0
    2.2259    1.1213   41.8284 O   0  0  0  0  0  0  0  0  0  0  0  0
    2.3851    1.0884   39.4656 C   0  0  0  0  0  0  0  0  0  0  0  0
    3.7739    1.4162   39.5126 O   0  0  0  0  0  0  0  0  0  0  0  0
    2.0815    0.3016   38.1985 C   0  0  0  0  0  0  0  0  0  0  0  0
    1.6730    1.9139   41.7445 H   0  0  0  0  0  0  0  0  0  0  0  0
    4.2986    0.6004   39.5221 H   0  0  0  0  0  0  0  0  0  0  0  0
   -1.3928   -0.6275   39.1230 C   0  0  0  0  0  0  0  0  0  0  0  0
   -1.9438    0.2389   40.1159 O   0  0  0  0  0  0  0  0  0  0  0  0
   -1.7815   -0.1341   40.9965 H   0  0  0  0  0  0  0  0  0  0  0  0
    2.2818    1.2293   37.1310 O   0  0  0  0  0  0  0  0  0  0  0  0
    3.6119    1.3138   36.6535 C   0  0  0  0  0  0  0  0  0  0  0  0
    4.1007   -0.0964   36.3225 C   0  0  0  0  0  0  0  0  0  0  0  0
    4.2545   -0.8692   37.5226 O   0  0  0  0  0  0  0  0  0  0  0  0
    5.4241   -0.0225   35.5716 C   0  0  0  0  0  0  0  0  0  0  0  0
    5.8539   -1.3327   35.1840 O   0  0  0  0  0  0  0  0  0  0  0  0
    5.2490    0.8701   34.3456 C   0  0  0  0  0  0  0  0  0  0  0  0
    6.4788    0.9150   33.6056 O   0  0  0  0  0  0  0  0  0  0  0  0
    4.8606    2.1866   34.7611 O   0  0  0  0  0  0  0  0  0  0  0  0
    3.5919    2.2266   35.4273 C   0  0  0  0  0  0  0  0  0  0  0  0
    4.9121   -0.4469   38.0971 H   0  0  0  0  0  0  0  0  0  0  0  0
    5.1881   -1.7327   34.6030 H   0  0  0  0  0  0  0  0  0  0  0  0
    7.1819    1.2753   34.1684 H   0  0  0  0  0  0  0  0  0  0  0  0
    3.1810    3.6436   35.8713 C   0  0  0  0  0  0  0  0  0  0  0  0
    3.4590    3.8670   37.3128 O   0  0  0  0  0  0  0  0  0  0  0  0
    2.9487    3.2346   37.8424 H   0  0  0  0  0  0  0  0  0  0  0  0
 29 30  1  0  0  0
 30 31  1  0  0  0
 30 37  1  0  0  0
 31 32  1  0  0  0
 31 33  1  0  0  0
 33 34  1  0  0  0
 33 35  1  0  0  0
 35 41  1  0  0  0
 35 36  1  0  0  0
 41 42  1  0  0  0
 36 37  1  0  0  0
 37 28  1  0  0  0
 28 15  1  0  0  0
 15 16  1  0  0  0
 15 18  1  0  0  0
 16 25  1  0  0  0
 16 17  1  0  0  0
 17 22  1  0  0  0
 25 26  1  0  0  0
 18 19  1  0  0  0
 18 20  1  0  0  0
 20 22  1  0  0  0
 20 21  1  0  0  0
 22 14  1  0  0  0
 14  1  1  0  0  0
  1  4  1  0  0  0
  1  2  1  0  0  0
  2 11  1  0  0  0
  2  3  1  0  0  0
  3  8  1  0  0  0
 11 12  1  0  0  0
  4  5  1  0  0  0
  4  6  1  0  0  0
  6  7  1  0  0  0
  6  8  1  0  0  0
  8 44  1  0  0  0
 44 45  1  0  0  0
 45 48  1  0  0  0
 45 46  1  0  0  0
 46 55  1  0  0  0
 46 47  1  0  0  0
 47 52  1  0  0  0
 55 56  1  0  0  0
 48 49  1  0  0  0
 48 50  1  0  0  0
 50 51  1  0  0  0
 50 52  1  0  0  0
 52 58  1  0  0  0
 58 59  1  0  0  0
 59 60  1  0  0  0
 59 67  1  0  0  0
 60 61  1  0  0  0
 60 62  1  0  0  0
 62 63  1  0  0  0
 62 64  1  0  0  0
 64 66  1  0  0  0
 64 65  1  0  0  0
 66 67  1  0  0  0
 67 71  1  0  0  0
 71 72  1  0  0  0
 29 38  1  0  0  0
 32 39  1  0  0  0
 34 40  1  0  0  0
 42 43  1  0  0  0
 26 27  1  0  0  0
 19 23  1  0  0  0
 21 24  1  0  0  0
 12 13  1  0  0  0
  5  9  1  0  0  0
  7 10  1  0  0  0
 56 57  1  0  0  0
 49 53  1  0  0  0
 51 54  1  0  0  0
 61 68  1  0  0  0
 63 69  1  0  0  0
 65 70  1  0  0  0
 72 73  1  0  0  0
M  END
> <minimizedAffinity>
-9.92442

$$$$
3F5K_CE5_A_1000


 73 77  0  0  0  0  0  0  0  0999 V2000
    0.8285    0.9819   48.0990 C   0  0  0  0  0  0  0  0  0  0  0  0
    0.4607    2.1383   47.1808 C   0  0  0  0  0  0  0  0  0  0  0  0
    1.5615    2.5272   46.3684 O   0  0  0  0  0  0  0  0  0  0  0  0
    1.3566   -0.1773   47.2472 C   0  0  0  0  0  0  0  0  0  0  0  0
    1.8172   -1.2718   48.0709 O   0  0  0  0  0  0  0  0  0  0  0  0
    2.4799    0.2899   46.3299 C   0  0  0  0  0  0  0  0  0  0  0  0
    2.8738   -0.7363   45.4233 O   0  0  0  0  0  0  0  0  0  0  0  0
    2.0159    1.4880   45.5069 C   0  0  0  0  0  0  0  0  0  0  0  0
    2.5568   -0.9723   48.6224 H   0  0  0  0  0  0  0  0  0  0  0  0
    2.1221   -0.9748   44.8585 H   0  0  0  0  0  0  0  0  0  0  0  0
    0.0032    3.3782   47.9261 C   0  0  0  0  0  0  0  0  0  0  0  0
    0.5652    3.1924   49.2233 O   0  0  0  0  0  0  0  0  0  0  0  0
    0.2524    2.3524   49.5940 H   0  0  0  0  0  0  0  0  0  0  0  0
   -0.3825    0.5374   48.6880 O   0  0  0  0  0  0  0  0  0  0  0  0
   -1.2139   -1.9536   51.9986 C   0  0  0  0  0  0  0  0  0  0  0  0
   -0.0277   -2.1487   51.0584 C   0  0  0  0  0  0  0  0  0  0  0  0
   -0.3340   -1.4838   49.8284 O   0  0  0  0  0  0  0  0  0  0  0  0
   -1.4720   -0.4497   52.1436 C   0  0  0  0  0  0  0  0  0  0  0  0
   -2.6942   -0.2708   52.8759 O   0  0  0  0  0  0  0  0  0  0  0  0
   -1.4808    0.3228   50.8215 C   0  0  0  0  0  0  0  0  0  0  0  0
   -1.4082    1.7401   51.0269 O   0  0  0  0  0  0  0  0  0  0  0  0
   -0.2752   -0.0751   49.9730 C   0  0  0  0  0  0  0  0  0  0  0  0
   -3.4300   -0.6580   52.3763 H   0  0  0  0  0  0  0  0  0  0  0  0
   -0.5746    1.9601   51.4713 H   0  0  0  0  0  0  0  0  0  0  0  0
    0.3465   -3.5831   50.7395 C   0  0  0  0  0  0  0  0  0  0  0  0
    1.6911   -3.5692   50.2067 O   0  0  0  0  0  0  0  0  0  0  0  0
    1.7185   -3.0127   49.4127 H   0  0  0  0  0  0  0  0  0  0  0  0
   -0.9190   -2.4179   53.3132 O   0  0  0  0  0  0  0  0  0  0  0  0
   -1.6618   -5.8082   54.1257 O   0  0  0  0  0  0  0  0  0  0  0  0
   -1.1228   -4.5484   54.6062 C   0  0  0  0  0  0  0  0  0  0  0  0
   -1.0756   -4.6278   56.1279 C   0  0  0  0  0  0  0  0  0  0  0  0
    0.0332   -5.4549   56.5130 O   0  0  0  0  0  0  0  0  0  0  0  0
   -0.9966   -3.1895   56.6725 C   0  0  0  0  0  0  0  0  0  0  0  0
   -0.7754   -3.2219   58.0754 O   0  0  0  0  0  0  0  0  0  0  0  0
   -2.3810   -2.5834   56.4275 C   0  0  0  0  0  0  0  0  0  0  0  0
   -2.6579   -2.5044   55.0118 O   0  0  0  0  0  0  0  0  0  0  0  0
   -1.8512   -3.2681   54.0619 C   0  0  0  0  0  0  0  0  0  0  0  0
   -1.1570   -6.5428   54.5083 H   0  0  0  0  0  0  0  0  0  0  0  0
    0.8544   -5.0814   56.1565 H   0  0  0  0  0  0  0  0  0  0  0  0
   -1.4876   -3.7222   58.5035 H   0  0  0  0  0  0  0  0  0  0  0  0
   -2.6429   -1.1876   57.0104 C   0  0  0  0  0  0  0  0  0  0  0  0
   -1.4814   -0.3308   56.8190 O   0  0  0  0  0  0  0  0  0  0  0  0
   -0.7162   -0.7173   57.2727 H   0  0  0  0  0  0  0  0  0  0  0  0
    3.0739    1.9478   44.6512 O   0  0  0  0  0  0  0  0  0  0  0  0
    3.2116    1.1368   43.4866 C   0  0  0  0  0  0  0  0  0  0  0  0
    4.4059    1.6241   42.6366 C   0  0  0  0  0  0  0  0  0  0  0  0
    4.3500    1.1396   41.2860 O   0  0  0  0  0  0  0  0  0  0  0  0
    1.8583    1.0975   42.7729 C   0  0  0  0  0  0  0  0  0  0  0  0
    0.9135    0.3389   43.5354 O   0  0  0  0  0  0  0  0  0  0  0  0
    2.0093    0.4013   41.4367 C   0  0  0  0  0  0  0  0  0  0  0  0
    0.7636    0.4462   40.7404 O   0  0  0  0  0  0  0  0  0  0  0  0
    3.0915    1.0762   40.6059 C   0  0  0  0  0  0  0  0  0  0  0  0
    1.2352   -0.5706   43.6363 H   0  0  0  0  0  0  0  0  0  0  0  0
    0.5088    1.3705   40.5929 H   0  0  0  0  0  0  0  0  0  0  0  0
    5.6940    1.0737   43.2545 C   0  0  0  0  0  0  0  0  0  0  0  0
    5.4918    0.5566   44.5706 O   0  0  0  0  0  0  0  0  0  0  0  0
    5.1838    1.2679   45.1537 H   0  0  0  0  0  0  0  0  0  0  0  0
    3.2683    0.2276   39.4706 O   0  0  0  0  0  0  0  0  0  0  0  0
    2.9126    0.8075   38.2290 C   0  0  0  0  0  0  0  0  0  0  0  0
    4.0981    1.6254   37.7165 C   0  0  0  0  0  0  0  0  0  0  0  0
    4.3079    2.7792   38.5447 O   0  0  0  0  0  0  0  0  0  0  0  0
    3.8487    2.0513   36.2753 C   0  0  0  0  0  0  0  0  0  0  0  0
    4.9861    2.7496   35.7553 O   0  0  0  0  0  0  0  0  0  0  0  0
    3.5502    0.8110   35.4367 C   0  0  0  0  0  0  0  0  0  0  0  0
    3.3539    1.1942   34.0668 O   0  0  0  0  0  0  0  0  0  0  0  0
    2.3838    0.1531   35.9499 O   0  0  0  0  0  0  0  0  0  0  0  0
    2.5444   -0.3386   37.2868 C   0  0  0  0  0  0  0  0  0  0  0  0
    3.5180    3.3418   38.5215 H   0  0  0  0  0  0  0  0  0  0  0  0
    5.7614    2.1670   35.7782 H   0  0  0  0  0  0  0  0  0  0  0  0
    2.6072    1.8105   34.0072 H   0  0  0  0  0  0  0  0  0  0  0  0
    1.2876   -1.0438   37.8320 C   0  0  0  0  0  0  0  0  0  0  0  0
    1.6185   -1.9642   38.9494 O   0  0  0  0  0  0  0  0  0  0  0  0
    2.2260   -2.6513   38.6332 H   0  0  0  0  0  0  0  0  0  0  0  0
 29 30  1  0  0  0
 30 31  1  0  0  0
 30 37  1  0  0  0
 31 32  1  0  0  0
 31 33  1  0  0  0
 33 34  1  0  0  0
 33 35  1  0  0  0
 35 41  1  0  0  0
 35 36  1  0  0  0
 41 42  1  0  0  0
 36 37  1  0  0  0
 37 28  1  0  0  0
 28 15  1  0  0  0
 15 16  1  0  0  0
 15 18  1  0  0  0
 16 25  1  0  0  0
 16 17  1  0  0  0
 17 22  1  0  0  0
 25 26  1  0  0  0
 18 19  1  0  0  0
 18 20  1  0  0  0
 20 22  1  0  0  0
 20 21  1  0  0  0
 22 14  1  0  0  0
 14  1  1  0  0  0
  1  4  1  0  0  0
  1  2  1  0  0  0
  2 11  1  0  0  0
  2  3  1  0  0  0
  3  8  1  0  0  0
 11 12  1  0  0  0
  4  5  1  0  0  0
  4  6  1  0  0  0
  6  7  1  0  0  0
  6  8  1  0  0  0
  8 44  1  0  0  0
 44 45  1  0  0  0
 45 48  1  0  0  0
 45 46  1  0  0  0
 46 55  1  0  0  0
 46 47  1  0  0  0
 47 52  1  0  0  0
 55 56  1  0  0  0
 48 49  1  0  0  0
 48 50  1  0  0  0
 50 51  1  0  0  0
 50 52  1  0  0  0
 52 58  1  0  0  0
 58 59  1  0  0  0
 59 60  1  0  0  0
 59 67  1  0  0  0
 60 61  1  0  0  0
 60 62  1  0  0  0
 62 63  1  0  0  0
 62 64  1  0  0  0
 64 66  1  0  0  0
 64 65  1  0  0  0
 66 67  1  0  0  0
 67 71  1  0  0  0
 71 72  1  0  0  0
 29 38  1  0  0  0
 32 39  1  0  0  0
 34 40  1  0  0  0
 42 43  1  0  0  0
 26 27  1  0  0  0
 19 23  1  0  0  0
 21 24  1  0  0  0
 12 13  1  0  0  0
  5  9  1  0  0  0
  7 10  1  0  0  0
 56 57  1  0  0  0
 49 53  1  0  0  0
 51 54  1  0  0  0
 61 68  1  0  0  0
 63 69  1  0  0  0
 65 70  1  0  0  0
 72 73  1  0  0  0
M  END
> <minimizedAffinity>
-9.76606

$$$$
3F5K_CE5_A_1000


 73 77  0  0  0  0  0  0  0  0999 V2000
    0.3111   -0.0120   46.2970 C   0  0  0  0  0  0  0  0  0  0  0  0
    1.4571    0.4921   45.4321 C   0  0  0  0  0  0  0  0  0  0  0  0
    1.5693   -0.2585   44.2292 O   0  0  0  0  0  0  0  0  0  0  0  0
   -0.9809    0.0189   45.4735 C   0  0  0  0  0  0  0  0  0  0  0  0
   -2.0905   -0.5430   46.2093 O   0  0  0  0  0  0  0  0  0  0  0  0
   -0.8031   -0.7242   44.1553 C   0  0  0  0  0  0  0  0  0  0  0  0
   -1.9419   -0.5712   43.3128 O   0  0  0  0  0  0  0  0  0  0  0  0
    0.4087   -0.1759   43.4077 C   0  0  0  0  0  0  0  0  0  0  0  0
   -1.9087   -1.4751   46.4067 H   0  0  0  0  0  0  0  0  0  0  0  0
   -2.0626    0.3673   43.0995 H   0  0  0  0  0  0  0  0  0  0  0  0
    2.8073    0.4251   46.1210 C   0  0  0  0  0  0  0  0  0  0  0  0
    2.6715   -0.7105   46.9724 O   0  0  0  0  0  0  0  0  0  0  0  0
    1.9147   -0.5815   47.5653 H   0  0  0  0  0  0  0  0  0  0  0  0
    0.1521    0.9335   47.3420 O   0  0  0  0  0  0  0  0  0  0  0  0
   -0.9889   -1.2591   50.7693 C   0  0  0  0  0  0  0  0  0  0  0  0
    0.2362   -1.5801   49.9179 C   0  0  0  0  0  0  0  0  0  0  0  0
    0.0334   -0.9961   48.6269 O   0  0  0  0  0  0  0  0  0  0  0  0
   -1.1774    0.2619   50.7893 C   0  0  0  0  0  0  0  0  0  0  0  0
   -2.4277    0.5526   51.4328 O   0  0  0  0  0  0  0  0  0  0  0  0
   -1.0730    0.9321   49.4164 C   0  0  0  0  0  0  0  0  0  0  0  0
   -0.9394    2.3558   49.5224 O   0  0  0  0  0  0  0  0  0  0  0  0
    0.1562    0.4152   48.6721 C   0  0  0  0  0  0  0  0  0  0  0  0
   -3.1534    0.1638   50.9199 H   0  0  0  0  0  0  0  0  0  0  0  0
   -0.1217    2.5693   49.9985 H   0  0  0  0  0  0  0  0  0  0  0  0
    0.5537   -3.0503   49.7266 C   0  0  0  0  0  0  0  0  0  0  0  0
    1.2967   -3.4854   50.8887 O   0  0  0  0  0  0  0  0  0  0  0  0
    2.1064   -2.9576   50.9710 H   0  0  0  0  0  0  0  0  0  0  0  0
   -0.7920   -1.6363   52.1293 O   0  0  0  0  0  0  0  0  0  0  0  0
   -1.5362   -5.0303   52.9255 O   0  0  0  0  0  0  0  0  0  0  0  0
   -1.0298   -3.7633   53.4224 C   0  0  0  0  0  0  0  0  0  0  0  0
   -1.0461   -3.8358   54.9451 C   0  0  0  0  0  0  0  0  0  0  0  0
    0.0533   -4.6505   55.3804 O   0  0  0  0  0  0  0  0  0  0  0  0
   -1.0038   -2.3945   55.4859 C   0  0  0  0  0  0  0  0  0  0  0  0
   -0.8416   -2.4189   56.8970 O   0  0  0  0  0  0  0  0  0  0  0  0
   -2.3823   -1.8029   55.1801 C   0  0  0  0  0  0  0  0  0  0  0  0
   -2.6000   -1.7326   53.7535 O   0  0  0  0  0  0  0  0  0  0  0  0
   -1.7468   -2.4924   52.8420 C   0  0  0  0  0  0  0  0  0  0  0  0
   -1.0409   -5.7584   53.3324 H   0  0  0  0  0  0  0  0  0  0  0  0
    0.8852   -4.2706   55.0571 H   0  0  0  0  0  0  0  0  0  0  0  0
   -1.5664   -2.9243   57.2971 H   0  0  0  0  0  0  0  0  0  0  0  0
   -2.6817   -0.4073   55.7449 C   0  0  0  0  0  0  0  0  0  0  0  0
   -1.5077    0.1321   56.4160 O   0  0  0  0  0  0  0  0  0  0  0  0
   -1.2576   -0.4517   57.1492 H   0  0  0  0  0  0  0  0  0  0  0  0
    0.5959   -0.8821   42.1710 O   0  0  0  0  0  0  0  0  0  0  0  0
    0.8057    0.0045   41.0743 C   0  0  0  0  0  0  0  0  0  0  0  0
    0.2112   -0.5975   39.7818 C   0  0  0  0  0  0  0  0  0  0  0  0
    0.7366    0.0220   38.5977 O   0  0  0  0  0  0  0  0  0  0  0  0
    2.2952    0.3521   41.0232 C   0  0  0  0  0  0  0  0  0  0  0  0
    2.6520    1.1847   42.1318 O   0  0  0  0  0  0  0  0  0  0  0  0
    2.5893    1.1412   39.7647 C   0  0  0  0  0  0  0  0  0  0  0  0
    3.9936    1.3857   39.6811 O   0  0  0  0  0  0  0  0  0  0  0  0
    2.1235    0.3733   38.5358 C   0  0  0  0  0  0  0  0  0  0  0  0
    2.1418    2.0088   42.0947 H   0  0  0  0  0  0  0  0  0  0  0  0
    4.4675    0.5401   39.6469 H   0  0  0  0  0  0  0  0  0  0  0  0
   -1.2991   -0.3466   39.7833 C   0  0  0  0  0  0  0  0  0  0  0  0
   -2.0046   -1.2604   40.6245 O   0  0  0  0  0  0  0  0  0  0  0  0
   -1.8719   -2.1654   40.3016 H   0  0  0  0  0  0  0  0  0  0  0  0
    2.2786    1.2869   37.4489 O   0  0  0  0  0  0  0  0  0  0  0  0
    3.5754    1.3280   36.8823 C   0  0  0  0  0  0  0  0  0  0  0  0
    3.9714   -0.0898   36.4696 C   0  0  0  0  0  0  0  0  0  0  0  0
    4.1693   -0.9134   37.6287 O   0  0  0  0  0  0  0  0  0  0  0  0
    5.2422   -0.0488   35.6307 C   0  0  0  0  0  0  0  0  0  0  0  0
    5.5803   -1.3619   35.1691 O   0  0  0  0  0  0  0  0  0  0  0  0
    5.0271    0.8964   34.4513 C   0  0  0  0  0  0  0  0  0  0  0  0
    6.2040    0.9124   33.6287 O   0  0  0  0  0  0  0  0  0  0  0  0
    4.7324    2.2129   34.9379 O   0  0  0  0  0  0  0  0  0  0  0  0
    3.5158    2.2861   35.6926 C   0  0  0  0  0  0  0  0  0  0  0  0
    4.8844   -0.5437   38.1698 H   0  0  0  0  0  0  0  0  0  0  0  0
    4.8576   -1.7087   34.6229 H   0  0  0  0  0  0  0  0  0  0  0  0
    6.9607    1.2185   34.1527 H   0  0  0  0  0  0  0  0  0  0  0  0
    3.2055    3.7029   36.2127 C   0  0  0  0  0  0  0  0  0  0  0  0
    3.5205    3.8360   37.6578 O   0  0  0  0  0  0  0  0  0  0  0  0
    2.9783    3.2122   38.1656 H   0  0  0  0  0  0  0  0  0  0  0  0
 29 30  1  0  0  0
 30 31  1  0  0  0
 30 37  1  0  0  0
 31 32  1  0  0  0
 31 33  1  0  0  0
 33 34  1  0  0  0
 33 35  1  0  0  0
 35 41  1  0  0  0
 35 36  1  0  0  0
 41 42  1  0  0  0
 36 37  1  0  0  0
 37 28  1  0  0  0
 28 15  1  0  0  0
 15 16  1  0  0  0
 15 18  1  0  0  0
 16 25  1  0  0  0
 16 17  1  0  0  0
 17 22  1  0  0  0
 25 26  1  0  0  0
 18 19  1  0  0  0
 18 20  1  0  0  0
 20 22  1  0  0  0
 20 21  1  0  0  0
 22 14  1  0  0  0
 14  1  1  0  0  0
  1  4  1  0  0  0
  1  2  1  0  0  0
  2 11  1  0  0  0
  2  3  1  0  0  0
  3  8  1  0  0  0
 11 12  1  0  0  0
  4  5  1  0  0  0
  4  6  1  0  0  0
  6  7  1  0  0  0
  6  8  1  0  0  0
  8 44  1  0  0  0
 44 45  1  0  0  0
 45 48  1  0  0  0
 45 46  1  0  0  0
 46 55  1  0  0  0
 46 47  1  0  0  0
 47 52  1  0  0  0
 55 56  1  0  0  0
 48 49  1  0  0  0
 48 50  1  0  0  0
 50 51  1  0  0  0
 50 52  1  0  0  0
 52 58  1  0  0  0
 58 59  1  0  0  0
 59 60  1  0  0  0
 59 67  1  0  0  0
 60 61  1  0  0  0
 60 62  1  0  0  0
 62 63  1  0  0  0
 62 64  1  0  0  0
 64 66  1  0  0  0
 64 65  1  0  0  0
 66 67  1  0  0  0
 67 71  1  0  0  0
 71 72  1  0  0  0
 29 38  1  0  0  0
 32 39  1  0  0  0
 34 40  1  0  0  0
 42 43  1  0  0  0
 26 27  1  0  0  0
 19 23  1  0  0  0
 21 24  1  0  0  0
 12 13  1  0  0  0
  5  9  1  0  0  0
  7 10  1  0  0  0
 56 57  1  0  0  0
 49 53  1  0  0  0
 51 54  1  0  0  0
 61 68  1  0  0  0
 63 69  1  0  0  0
 65 70  1  0  0  0
 72 73  1  0  0  0
M  END
> <minimizedAffinity>
-9.68521

$$$$
3F5K_CE5_A_1000


 73 77  0  0  0  0  0  0  0  0999 V2000
   -0.5952   -1.5532   48.5801 C   0  0  0  0  0  0  0  0  0  0  0  0
   -1.2558   -1.7009   47.2173 C   0  0  0  0  0  0  0  0  0  0  0  0
   -0.8652   -0.6563   46.3346 O   0  0  0  0  0  0  0  0  0  0  0  0
    0.9242   -1.4950   48.3896 C   0  0  0  0  0  0  0  0  0  0  0  0
    1.6053   -1.2547   49.6413 O   0  0  0  0  0  0  0  0  0  0  0  0
    1.3044   -0.4213   47.3777 C   0  0  0  0  0  0  0  0  0  0  0  0
    2.6959   -0.4606   47.0737 O   0  0  0  0  0  0  0  0  0  0  0  0
    0.5355   -0.6356   46.0773 C   0  0  0  0  0  0  0  0  0  0  0  0
    1.3361   -0.3927   49.9955 H   0  0  0  0  0  0  0  0  0  0  0  0
    2.9165   -1.3186   46.6787 H   0  0  0  0  0  0  0  0  0  0  0  0
   -2.7718   -1.6837   47.2769 C   0  0  0  0  0  0  0  0  0  0  0  0
   -3.0320   -1.0175   48.5104 O   0  0  0  0  0  0  0  0  0  0  0  0
   -2.5986   -1.4963   49.2342 H   0  0  0  0  0  0  0  0  0  0  0  0
   -0.8723   -2.7485   49.2912 O   0  0  0  0  0  0  0  0  0  0  0  0
   -0.3502   -3.9448   53.3101 C   0  0  0  0  0  0  0  0  0  0  0  0
    0.6788   -3.1456   52.5155 C   0  0  0  0  0  0  0  0  0  0  0  0
    0.4141   -3.3574   51.1249 O   0  0  0  0  0  0  0  0  0  0  0  0
   -1.7498   -3.5090   52.8625 C   0  0  0  0  0  0  0  0  0  0  0  0
   -2.7109   -4.3848   53.4718 O   0  0  0  0  0  0  0  0  0  0  0  0
   -1.9337   -3.4280   51.3444 C   0  0  0  0  0  0  0  0  0  0  0  0
   -3.1304   -2.7246   50.9850 O   0  0  0  0  0  0  0  0  0  0  0  0
   -0.7612   -2.6809   50.7128 C   0  0  0  0  0  0  0  0  0  0  0  0
   -2.5626   -5.2924   53.1631 H   0  0  0  0  0  0  0  0  0  0  0  0
   -3.0778   -1.8113   51.3074 H   0  0  0  0  0  0  0  0  0  0  0  0
    2.1346   -3.4804   52.7756 C   0  0  0  0  0  0  0  0  0  0  0  0
    2.8787   -3.1167   51.5898 O   0  0  0  0  0  0  0  0  0  0  0  0
    2.5342   -3.6090   50.8283 H   0  0  0  0  0  0  0  0  0  0  0  0
   -0.2839   -3.6426   54.7011 O   0  0  0  0  0  0  0  0  0  0  0  0
    1.7222   -4.1320   57.6067 O   0  0  0  0  0  0  0  0  0  0  0  0
    0.3741   -3.9747   57.0905 C   0  0  0  0  0  0  0  0  0  0  0  0
   -0.5846   -4.4422   58.1798 C   0  0  0  0  0  0  0  0  0  0  0  0
   -0.6620   -3.4280   59.1934 O   0  0  0  0  0  0  0  0  0  0  0  0
   -1.9363   -4.7593   57.5135 C   0  0  0  0  0  0  0  0  0  0  0  0
   -2.9087   -5.0310   58.5128 O   0  0  0  0  0  0  0  0  0  0  0  0
   -1.7069   -6.0462   56.7166 C   0  0  0  0  0  0  0  0  0  0  0  0
   -0.7381   -5.8283   55.6672 O   0  0  0  0  0  0  0  0  0  0  0  0
    0.1195   -4.6451   55.6935 C   0  0  0  0  0  0  0  0  0  0  0  0
    1.7923   -3.6908   58.4677 H   0  0  0  0  0  0  0  0  0  0  0  0
   -0.9630   -2.5960   58.7959 H   0  0  0  0  0  0  0  0  0  0  0  0
   -2.6068   -5.7686   59.0657 H   0  0  0  0  0  0  0  0  0  0  0  0
   -2.9376   -6.6868   56.0597 C   0  0  0  0  0  0  0  0  0  0  0  0
   -3.9424   -5.6746   55.7671 O   0  0  0  0  0  0  0  0  0  0  0  0
   -4.2194   -5.2462   56.5921 H   0  0  0  0  0  0  0  0  0  0  0  0
    0.8735    0.3825   45.1221 O   0  0  0  0  0  0  0  0  0  0  0  0
    1.4404   -0.1649   43.9338 C   0  0  0  0  0  0  0  0  0  0  0  0
    2.4778    0.8133   43.3393 C   0  0  0  0  0  0  0  0  0  0  0  0
    2.7721    0.5286   41.9630 O   0  0  0  0  0  0  0  0  0  0  0  0
    0.2943   -0.5670   43.0028 C   0  0  0  0  0  0  0  0  0  0  0  0
   -0.4038   -1.7000   43.5307 O   0  0  0  0  0  0  0  0  0  0  0  0
    0.8541   -0.9797   41.6577 C   0  0  0  0  0  0  0  0  0  0  0  0
   -0.2250   -1.2691   40.7687 O   0  0  0  0  0  0  0  0  0  0  0  0
    1.7180    0.1318   41.0788 C   0  0  0  0  0  0  0  0  0  0  0  0
    0.2075   -2.4491   43.6083 H   0  0  0  0  0  0  0  0  0  0  0  0
   -0.7738   -0.4770   40.6577 H   0  0  0  0  0  0  0  0  0  0  0  0
    3.7877    0.6581   44.1165 C   0  0  0  0  0  0  0  0  0  0  0  0
    3.7807    1.3788   45.3497 O   0  0  0  0  0  0  0  0  0  0  0  0
    3.6728    2.3259   45.1701 H   0  0  0  0  0  0  0  0  0  0  0  0
    2.3309   -0.4411   39.9228 O   0  0  0  0  0  0  0  0  0  0  0  0
    2.5852    0.4681   38.8678 C   0  0  0  0  0  0  0  0  0  0  0  0
    4.0865    0.7530   38.8221 C   0  0  0  0  0  0  0  0  0  0  0  0
    4.4907    1.5033   39.9774 O   0  0  0  0  0  0  0  0  0  0  0  0
    4.4294    1.5195   37.5511 C   0  0  0  0  0  0  0  0  0  0  0  0
    5.8440    1.7229   37.4551 O   0  0  0  0  0  0  0  0  0  0  0  0
    3.9164    0.7354   36.3459 C   0  0  0  0  0  0  0  0  0  0  0  0
    4.2698    1.4269   35.1380 O   0  0  0  0  0  0  0  0  0  0  0  0
    2.4939    0.5815   36.4427 O   0  0  0  0  0  0  0  0  0  0  0  0
    2.0760   -0.1824   37.5815 C   0  0  0  0  0  0  0  0  0  0  0  0
    4.0209    2.3518   39.9925 H   0  0  0  0  0  0  0  0  0  0  0  0
    6.2934    0.8636   37.4314 H   0  0  0  0  0  0  0  0  0  0  0  0
    3.8688    2.3101   35.1420 H   0  0  0  0  0  0  0  0  0  0  0  0
    0.5468   -0.3434   37.6796 C   0  0  0  0  0  0  0  0  0  0  0  0
    0.1646   -1.7369   38.0220 O   0  0  0  0  0  0  0  0  0  0  0  0
    0.4786   -2.3380   37.3284 H   0  0  0  0  0  0  0  0  0  0  0  0
 29 30  1  0  0  0
 30 31  1  0  0  0
 30 37  1  0  0  0
 31 32  1  0  0  0
 31 33  1  0  0  0
 33 34  1  0  0  0
 33 35  1  0  0  0
 35 41  1  0  0  0
 35 36  1  0  0  0
 41 42  1  0  0  0
 36 37  1  0  0  0
 37 28  1  0  0  0
 28 15  1  0  0  0
 15 16  1  0  0  0
 15 18  1  0  0  0
 16 25  1  0  0  0
 16 17  1  0  0  0
 17 22  1  0  0  0
 25 26  1  0  0  0
 18 19  1  0  0  0
 18 20  1  0  0  0
 20 22  1  0  0  0
 20 21  1  0  0  0
 22 14  1  0  0  0
 14  1  1  0  0  0
  1  4  1  0  0  0
  1  2  1  0  0  0
  2 11  1  0  0  0
  2  3  1  0  0  0
  3  8  1  0  0  0
 11 12  1  0  0  0
  4  5  1  0  0  0
  4  6  1  0  0  0
  6  7  1  0  0  0
  6  8  1  0  0  0
  8 44  1  0  0  0
 44 45  1  0  0  0
 45 48  1  0  0  0
 45 46  1  0  0  0
 46 55  1  0  0  0
 46 47  1  0  0  0
 47 52  1  0  0  0
 55 56  1  0  0  0
 48 49  1  0  0  0
 48 50  1  0  0  0
 50 51  1  0  0  0
 50 52  1  0  0  0
 52 58  1  0  0  0
 58 59  1  0  0  0
 59 60  1  0  0  0
 59 67  1  0  0  0
 60 61  1  0  0  0
 60 62  1  0  0  0
 62 63  1  0  0  0
 62 64  1  0  0  0
 64 66  1  0  0  0
 64 65  1  0  0  0
 66 67  1  0  0  0
 67 71  1  0  0  0
 71 72  1  0  0  0
 29 38  1  0  0  0
 32 39  1  0  0  0
 34 40  1  0  0  0
 42 43  1  0  0  0
 26 27  1  0  0  0
 19 23  1  0  0  0
 21 24  1  0  0  0
 12 13  1  0  0  0
  5  9  1  0  0  0
  7 10  1  0  0  0
 56 57  1  0  0  0
 49 53  1  0  0  0
 51 54  1  0  0  0
 61 68  1  0  0  0
 63 69  1  0  0  0
 65 70  1  0  0  0
 72 73  1  0  0  0
M  END
> <minimizedAffinity>
-9.53431

$$$$
