3F5K_CE5_A_1000
  RCSB PDB12061708333D
Coordinates from PDB:3F5K:A:1000 Model:1 without hydrogens
 56 60  0  0  0  0            999 V2000
    7.2560    0.2800   35.5230   O 0  0  0  0  0  0  0  0  0  0  0  0
    5.8370    0.3660   35.8190   C 0  0  0  0  0  0  0  0  0  0  0  0
    5.1380    0.8380   34.5490   C 0  0  0  0  0  0  0  0  0  0  0  0
    5.0620   -0.2610   33.6280   O 0  0  0  0  0  0  0  0  0  0  0  0
    3.7650    1.4080   34.9510   C 0  0  0  0  0  0  0  0  0  0  0  0
    3.0090    1.6990   33.7840   O 0  0  0  0  0  0  0  0  0  0  0  0
    4.0640    2.7310   35.6610   C 0  0  0  0  0  0  0  0  0  0  0  0
    2.8600    3.6020   36.0460   C 0  0  0  0  0  0  0  0  0  0  0  0
    1.9430    2.8550   36.8950   O 0  0  0  0  0  0  0  0  0  0  0  0
    4.8170    2.4990   36.8720   O 0  0  0  0  0  0  0  0  0  0  0  0
    5.4780    1.2140   37.0910   C 0  0  0  0  0  0  0  0  0  0  0  0
    4.7800    0.3910   38.0850   O 0  0  0  0  0  0  0  0  0  0  0  0
    3.8750    0.9570   39.0290   C 0  0  0  0  0  0  0  0  0  0  0  0
    4.4750    0.9820   40.4320   C 0  0  0  0  0  0  0  0  0  0  0  0
    3.4410    1.3760   41.3400   O 0  0  0  0  0  0  0  0  0  0  0  0
    5.6610    1.9040   40.6380   C 0  0  0  0  0  0  0  0  0  0  0  0
    5.9260    1.9540   42.0590   O 0  0  0  0  0  0  0  0  0  0  0  0
    2.6590    0.0240   39.0410   C 0  0  0  0  0  0  0  0  0  0  0  0
    1.9880    0.1420   37.7770   O 0  0  0  0  0  0  0  0  0  0  0  0
    1.7030    0.2430   40.2170   C 0  0  0  0  0  0  0  0  0  0  0  0
    0.7720   -0.8380   40.3610   O 0  0  0  0  0  0  0  0  0  0  0  0
    2.4900    0.3410   41.5220   C 0  0  0  0  0  0  0  0  0  0  0  0
    1.6010    0.6960   42.5810   O 0  0  0  0  0  0  0  0  0  0  0  0
    2.0050    0.3330   43.8910   C 0  0  0  0  0  0  0  0  0  0  0  0
    0.7930   -0.3060   44.5530   C 0  0  0  0  0  0  0  0  0  0  0  0
    1.0100   -0.5150   45.9430   O 0  0  0  0  0  0  0  0  0  0  0  0
    0.4200   -1.6510   43.9580   C 0  0  0  0  0  0  0  0  0  0  0  0
   -0.9080   -1.8510   44.4370   O 0  0  0  0  0  0  0  0  0  0  0  0
    2.3410    1.6350   44.6260   C 0  0  0  0  0  0  0  0  0  0  0  0
    3.5460    2.2400   44.1060   O 0  0  0  0  0  0  0  0  0  0  0  0
    2.4870    1.3920   46.1230   C 0  0  0  0  0  0  0  0  0  0  0  0
    2.6440    2.6150   46.8370   O 0  0  0  0  0  0  0  0  0  0  0  0
    1.2420    0.6930   46.6610   C 0  0  0  0  0  0  0  0  0  0  0  0
    1.3770    0.4430   48.0690   O 0  0  0  0  0  0  0  0  0  0  0  0
    0.1670   -0.0440   48.6450   C 0  0  0  0  0  0  0  0  0  0  0  0
   -0.5480    1.0870   49.4170   C 0  0  0  0  0  0  0  0  0  0  0  0
   -1.5230    0.5850   50.3440   O 0  0  0  0  0  0  0  0  0  0  0  0
   -1.3000    1.9590   48.4080   C 0  0  0  0  0  0  0  0  0  0  0  0
   -1.4720    3.3010   48.8660   O 0  0  0  0  0  0  0  0  0  0  0  0
    0.4990   -1.2980   49.4570   C 0  0  0  0  0  0  0  0  0  0  0  0
    0.8520   -2.3780   48.5860   O 0  0  0  0  0  0  0  0  0  0  0  0
   -0.7240   -1.7380   50.2340   C 0  0  0  0  0  0  0  0  0  0  0  0
   -0.3820   -2.8550   51.0550   O 0  0  0  0  0  0  0  0  0  0  0  0
   -1.2410   -0.5980   51.1000   C 0  0  0  0  0  0  0  0  0  0  0  0
   -2.4830   -1.0680   51.6260   O 0  0  0  0  0  0  0  0  0  0  0  0
   -2.8000   -0.5970   52.9230   C 0  0  0  0  0  0  0  0  0  0  0  0
   -3.9690    0.3820   52.8130   C 0  0  0  0  0  0  0  0  0  0  0  0
   -3.5570    1.5830   52.1430   O 0  0  0  0  0  0  0  0  0  0  0  0
   -4.5010    0.7110   54.2020   C 0  0  0  0  0  0  0  0  0  0  0  0
   -5.6480    1.5640   54.1100   O 0  0  0  0  0  0  0  0  0  0  0  0
   -4.8550   -0.5900   54.9180   C 0  0  0  0  0  0  0  0  0  0  0  0
   -5.3970   -0.2920   56.2140   O 0  0  0  0  0  0  0  0  0  0  0  0
   -3.6830   -1.4080   55.0360   O 0  0  0  0  0  0  0  0  0  0  0  0
   -3.1420   -1.8200   53.7740   C 0  0  0  0  0  0  0  0  0  0  0  0
   -1.8830   -2.6980   53.9080   C 0  0  0  0  0  0  0  0  0  0  0  0
   -1.4060   -2.7590   55.3130   O 0  0  0  0  0  0  0  0  0  0  0  0
  1  2  1  0  0  0  0
  2  3  1  0  0  0  0
  2 11  1  0  0  0  0
  3  4  1  0  0  0  0
  3  5  1  0  0  0  0
  5  6  1  0  0  0  0
  5  7  1  0  0  0  0
  7  8  1  0  0  0  0
  7 10  1  0  0  0  0
  8  9  1  0  0  0  0
 10 11  1  0  0  0  0
 11 12  1  0  0  0  0
 12 13  1  0  0  0  0
 13 14  1  0  0  0  0
 13 18  1  0  0  0  0
 14 16  1  0  0  0  0
 14 15  1  0  0  0  0
 15 22  1  0  0  0  0
 16 17  1  0  0  0  0
 18 19  1  0  0  0  0
 18 20  1  0  0  0  0
 20 22  1  0  0  0  0
 20 21  1  0  0  0  0
 22 23  1  0  0  0  0
 23 24  1  0  0  0  0
 24 29  1  0  0  0  0
 24 25  1  0  0  0  0
 25 27  1  0  0  0  0
 25 26  1  0  0  0  0
 26 33  1  0  0  0  0
 27 28  1  0  0  0  0
 29 30  1  0  0  0  0
 29 31  1  0  0  0  0
 31 32  1  0  0  0  0
 31 33  1  0  0  0  0
 33 34  1  0  0  0  0
 34 35  1  0  0  0  0
 35 40  1  0  0  0  0
 35 36  1  0  0  0  0
 36 38  1  0  0  0  0
 36 37  1  0  0  0  0
 37 44  1  0  0  0  0
 38 39  1  0  0  0  0
 40 41  1  0  0  0  0
 40 42  1  0  0  0  0
 42 43  1  0  0  0  0
 42 44  1  0  0  0  0
 44 45  1  0  0  0  0
 45 46  1  0  0  0  0
 46 47  1  0  0  0  0
 46 54  1  0  0  0  0
 47 48  1  0  0  0  0
 47 49  1  0  0  0  0
 49 50  1  0  0  0  0
 49 51  1  0  0  0  0
 51 53  1  0  0  0  0
 51 52  1  0  0  0  0
 53 54  1  0  0  0  0
 54 55  1  0  0  0  0
 55 56  1  0  0  0  0
A    1
O2E
A    2
C2E
A    3
C3E
A    4
O3E
A    5
C4E
A    6
O4E
A    7
C5E
A    8
C6E
A    9
O6E
A   10
O5E
A   11
C1E
A   12
O4D
A   13
C4D
A   14
C5D
A   15
O5D
A   16
C6D
A   17
O6D
A   18
C3D
A   19
O3D
A   20
C2D
A   21
O2D
A   22
C1D
A   23
O4C
A   24
C4C
A   25
C5C
A   26
O5C
A   27
C6C
A   28
O6C
A   29
C3C
A   30
O3C
A   31
C2C
A   32
O2C
A   33
C1C
A   34
O4B
A   35
C4B
A   36
C5B
A   37
O5B
A   38
C6B
A   39
O6B
A   40
C3B
A   41
O3B
A   42
C2B
A   43
O2B
A   44
C1B
A   45
O4A
A   46
C4A
A   47
C3A
A   48
O3A
A   49
C2A
A   50
O2A
A   51
C1A
A   52
O1A
A   53
O5A
A   54
C5A
A   55
C6A
A   56
O6A
M  END
>  <InstanceId>
3F5K_CE5_A_1000

>  <ChemCompId>
CE5

>  <PdbId>
3F5K

>  <ChainId>
A

>  <ResidueNumber>
1000

>  <InsertionCode>


>  <Model>
1

>  <AltIds>


>  <MissingHeavyAtoms>
0

>  <ObservedFormula>
C30 O26

>  <Name>
CELLOPENTAOSE

>  <SystematicName>
(2S,3R,4S,5S,6R)-2-[(2R,3S,4R,5R,6S)-6-[(2R,3S,4R,5R,6S)-6-[(2R,3S,4R,5R,6S)-4,5-dihydroxy-2-(hydroxymethyl)-6-[(2R,3S,4R,5R,6R)-4,5,6-trihydroxy-2-(hydroxymethyl)oxan-3-yl]oxy-oxan-3-yl]oxy-4,5-dihydroxy-2-(hydroxymethyl)oxan-3-yl]oxy-4,5-dihydroxy-2-(hydroxymethyl)oxan-3-yl]oxy-6-(hydroxymethyl)oxane-3,4,5-triol

>  <Synonyms>


>  <Type>
NON-POLYMER

>  <Formula>
C30 H52 O26

>  <MolecularWeight>
828.718

>  <ModifiedDate>
2011-06-04

>  <Parent>


>  <OneLetterCode>


>  <SubcomponentList>


>  <AmbiguousFlag>


>  <InChI>
InChI=1S/C30H52O26/c31-1-6-11(36)12(37)18(43)27(49-6)54-23-8(3-33)51-29(20(45)14(23)39)56-25-10(5-35)52-30(21(46)16(25)41)55-24-9(4-34)50-28(19(44)15(24)40)53-22-7(2-32)48-26(47)17(42)13(22)38/h6-47H,1-5H2/t6-,7-,8-,9-,10-,11-,12+,13-,14-,15-,16-,17-,18-,19-,20-,21-,22-,23-,24-,25-,26-,27+,28+,29+,30+/m1/s1

>  <InChIKey>
FTNIPWXXIGNQQF-FFFJRYSISA-N

>  <SMILES>
C([C@@H]1[C@H]([C@@H]([C@H]([C@@H](O1)O[C@@H]2[C@H](O[C@H]([C@@H]([C@H]2O)O)O[C@@H]3[C@H](O[C@H]([C@@H]([C@H]3O)O)O[C@@H]4[C@H](O[C@H]([C@@H]([C@H]4O)O)O[C@@H]5[C@H](O[C@H]([C@@H]([C@H]5O)O)O)CO)CO)CO)CO)O)O)O)O

$$$$
