4F5Y_C2E_A_402


 56 62  0  0  0  0  0  0  0  0999 V2000
   20.3916   19.9804   21.0397 P   0  0  0  0  0  0  0  0  0  0  0  0
   20.3823   19.3943   19.5836 O   0  0  0  0  0  0  0  0  0  0  0  0
   21.5888   19.3346   21.7765 O   0  0  0  0  0  0  0  0  0  0  0  0
   20.6155   21.5365   20.9557 O   0  0  0  0  0  0  0  0  0  0  0  0
   20.8524   22.2066   22.1773 C   0  0  0  0  0  0  0  0  0  0  0  0
   20.6859   23.7187   21.9698 C   0  0  0  0  0  0  0  0  0  0  0  0
   21.8584   24.2320   21.3510 O   0  0  0  0  0  0  0  0  0  0  0  0
   19.5457   24.2050   21.1058 C   0  0  0  0  0  0  0  0  0  0  0  0
   18.3810   24.3358   21.8612 O   0  0  0  0  0  0  0  0  0  0  0  0
   20.0474   25.5009   20.6451 C   0  0  0  0  0  0  0  0  0  0  0  0
   19.9508   26.4722   21.6396 O   0  0  0  0  0  0  0  0  0  0  0  0
   21.5008   25.1995   20.3708 C   0  0  0  0  0  0  0  0  0  0  0  0
   16.9439   23.9825   21.3117 P   0  0  0  0  0  0  0  0  0  0  0  0
   15.9057   24.5690   22.2739 O   0  0  0  0  0  0  0  0  0  0  0  0
   16.7530   24.5561   19.8848 O   0  0  0  0  0  0  0  0  0  0  0  0
   16.7921   22.3998   21.2744 O   0  0  0  0  0  0  0  0  0  0  0  0
   16.6627   21.6558   22.4895 C   0  0  0  0  0  0  0  0  0  0  0  0
   16.7305   20.1741   22.1353 C   0  0  0  0  0  0  0  0  0  0  0  0
   15.5728   19.7490   21.5043 O   0  0  0  0  0  0  0  0  0  0  0  0
   17.8335   19.8699   21.1939 C   0  0  0  0  0  0  0  0  0  0  0  0
   19.0265   19.6909   21.8074 O   0  0  0  0  0  0  0  0  0  0  0  0
   17.3292   18.5682   20.6325 C   0  0  0  0  0  0  0  0  0  0  0  0
   17.6421   17.4541   21.4251 O   0  0  0  0  0  0  0  0  0  0  0  0
   15.8744   18.7901   20.5290 C   0  0  0  0  0  0  0  0  0  0  0  0
   21.2278   19.5906   19.1506 H   0  0  0  0  0  0  0  0  0  0  0  0
   20.4305   26.1757   22.4288 H   0  0  0  0  0  0  0  0  0  0  0  0
   16.0409   24.1988   23.1602 H   0  0  0  0  0  0  0  0  0  0  0  0
   17.2639   17.5708   22.3107 H   0  0  0  0  0  0  0  0  0  0  0  0
   21.6855   24.8116   18.9911 N   0  0  0  0  0  0  0  0  0  0  0  0
   21.6104   23.5514   18.4436 C   0  0  0  0  0  0  0  0  0  0  0  0
   21.8418   23.6020   17.0942 N   0  0  0  0  0  0  0  0  0  0  0  0
   22.0804   24.9594   16.7485 C   0  0  0  0  0  0  0  0  0  0  0  0
   22.3881   25.6915   15.5497 C   0  0  0  0  0  0  0  0  0  0  0  0
   22.5025   25.0470   14.3410 O   0  0  0  0  0  0  0  0  0  0  0  0
   22.5735   27.0965   15.5867 N   0  0  0  0  0  0  0  0  0  0  0  0
   22.4662   27.7932   16.8075 C   0  0  0  0  0  0  0  0  0  0  0  0
   22.6666   29.2258   16.8427 N   0  0  0  0  0  0  0  0  0  0  0  0
   22.1723   27.1103   17.9657 N   0  0  0  0  0  0  0  0  0  0  0  0
   21.9759   25.7200   17.9830 C   0  0  0  0  0  0  0  0  0  0  0  0
   22.7777   27.5869   14.7578 H   0  0  0  0  0  0  0  0  0  0  0  0
   22.8768   29.7139   16.0140 H   0  0  0  0  0  0  0  0  0  0  0  0
   22.5927   29.7124   17.6953 H   0  0  0  0  0  0  0  0  0  0  0  0
   15.6248   19.2993   19.2192 N   0  0  0  0  0  0  0  0  0  0  0  0
   15.4741   20.5895   18.8498 C   0  0  0  0  0  0  0  0  0  0  0  0
   15.2813   20.6895   17.4898 N   0  0  0  0  0  0  0  0  0  0  0  0
   15.3190   19.3963   16.9843 C   0  0  0  0  0  0  0  0  0  0  0  0
   15.1834   18.7765   15.6624 C   0  0  0  0  0  0  0  0  0  0  0  0
   14.9643   19.6230   14.5473 O   0  0  0  0  0  0  0  0  0  0  0  0
   15.2708   17.4027   15.5421 N   0  0  0  0  0  0  0  0  0  0  0  0
   15.4943   16.5651   16.7158 C   0  0  0  0  0  0  0  0  0  0  0  0
   15.5862   15.1273   16.6209 N   0  0  0  0  0  0  0  0  0  0  0  0
   15.6183   17.1315   17.9565 N   0  0  0  0  0  0  0  0  0  0  0  0
   15.5396   18.5149   18.1054 C   0  0  0  0  0  0  0  0  0  0  0  0
   15.1815   16.9847   14.6552 H   0  0  0  0  0  0  0  0  0  0  0  0
   15.5017   14.6854   15.7452 H   0  0  0  0  0  0  0  0  0  0  0  0
   15.7333   14.5888   17.4319 H   0  0  0  0  0  0  0  0  0  0  0  0
  1  2  1  0  0  0
  3  1  2  0  0  0
  4  1  1  0  0  0
  5  4  1  0  0  0
  6  7  1  0  0  0
  6  5  1  0  0  0
  8  6  1  0  0  0
  9 13  1  0  0  0
  9  8  1  0  0  0
 10  8  1  0  0  0
 10 12  1  0  0  0
 11 10  1  0  0  0
 12  7  1  0  0  0
 12 29  1  0  0  0
 29 39  1  0  0  0
 29 30  1  0  0  0
 30 31  2  0  0  0
 32 31  1  0  0  0
 32 33  1  0  0  0
 33 34  2  0  0  0
 35 33  1  0  0  0
 36 35  1  0  0  0
 37 36  1  0  0  0
 38 36  2  0  0  0
 38 39  1  0  0  0
 39 32  2  0  0  0
 13 14  1  0  0  0
 13 16  1  0  0  0
 15 13  2  0  0  0
 17 16  1  0  0  0
 17 18  1  0  0  0
 18 19  1  0  0  0
 18 20  1  0  0  0
 19 24  1  0  0  0
 20 22  1  0  0  0
 21 20  1  0  0  0
 21  1  1  0  0  0
 22 23  1  0  0  0
 24 22  1  0  0  0
 24 43  1  0  0  0
 43 53  1  0  0  0
 44 45  2  0  0  0
 44 43  1  0  0  0
 45 46  1  0  0  0
 46 53  2  0  0  0
 46 47  1  0  0  0
 47 48  2  0  0  0
 47 49  1  0  0  0
 50 49  1  0  0  0
 50 51  1  0  0  0
 52 50  2  0  0  0
 53 52  1  0  0  0
  2 25  1  0  0  0
 11 26  1  0  0  0
 35 40  1  0  0  0
 37 41  1  0  0  0
 37 42  1  0  0  0
 14 27  1  0  0  0
 23 28  1  0  0  0
 49 54  1  0  0  0
 51 55  1  0  0  0
 51 56  1  0  0  0
M  END
> <minimizedAffinity>
-13.31301

$$$$
4F5Y_C2E_A_402


 56 62  0  0  0  0  0  0  0  0999 V2000
   18.1912   22.2649   22.3862 P   0  0  0  0  0  0  0  0  0  0  0  0
   16.6810   22.1609   21.9708 O   0  0  0  0  0  0  0  0  0  0  0  0
   18.3510   21.4689   23.7031 O   0  0  0  0  0  0  0  0  0  0  0  0
   19.0698   21.5922   21.2664 O   0  0  0  0  0  0  0  0  0  0  0  0
   20.4402   21.4132   21.5621 C   0  0  0  0  0  0  0  0  0  0  0  0
   21.2036   21.0956   20.2685 C   0  0  0  0  0  0  0  0  0  0  0  0
   20.9992   19.7287   19.9351 O   0  0  0  0  0  0  0  0  0  0  0  0
   20.8443   21.8592   19.0151 C   0  0  0  0  0  0  0  0  0  0  0  0
   21.5501   23.0603   18.9552 O   0  0  0  0  0  0  0  0  0  0  0  0
   21.2592   20.9278   17.9646 C   0  0  0  0  0  0  0  0  0  0  0  0
   22.6418   20.9316   17.7914 O   0  0  0  0  0  0  0  0  0  0  0  0
   20.8230   19.5976   18.5292 C   0  0  0  0  0  0  0  0  0  0  0  0
   20.9341   24.4042   18.4015 P   0  0  0  0  0  0  0  0  0  0  0  0
   22.0788   25.3956   18.1688 O   0  0  0  0  0  0  0  0  0  0  0  0
   20.1597   24.1434   17.0846 O   0  0  0  0  0  0  0  0  0  0  0  0
   19.9415   24.9935   19.4954 O   0  0  0  0  0  0  0  0  0  0  0  0
   20.4518   25.5628   20.7046 C   0  0  0  0  0  0  0  0  0  0  0  0
   19.2648   25.8560   21.6161 C   0  0  0  0  0  0  0  0  0  0  0  0
   18.5336   26.9425   21.1644 O   0  0  0  0  0  0  0  0  0  0  0  0
   18.3073   24.7267   21.6749 C   0  0  0  0  0  0  0  0  0  0  0  0
   18.6548   23.7769   22.5742 O   0  0  0  0  0  0  0  0  0  0  0  0
   17.0801   25.4652   22.1359 C   0  0  0  0  0  0  0  0  0  0  0  0
   17.0193   25.6440   23.5258 O   0  0  0  0  0  0  0  0  0  0  0  0
   17.1687   26.7466   21.4103 C   0  0  0  0  0  0  0  0  0  0  0  0
   16.4379   21.2277   21.8664 H   0  0  0  0  0  0  0  0  0  0  0  0
   23.0738   20.7188   18.6335 H   0  0  0  0  0  0  0  0  0  0  0  0
   22.5509   25.5459   19.0027 H   0  0  0  0  0  0  0  0  0  0  0  0
   17.8006   26.1362   23.8229 H   0  0  0  0  0  0  0  0  0  0  0  0
   19.4897   19.2695   18.0789 N   0  0  0  0  0  0  0  0  0  0  0  0
   19.0230   19.1893   16.7869 C   0  0  0  0  0  0  0  0  0  0  0  0
   17.6975   18.8427   16.7781 N   0  0  0  0  0  0  0  0  0  0  0  0
   17.2825   18.6924   18.1287 C   0  0  0  0  0  0  0  0  0  0  0  0
   16.0622   18.3624   18.8140 C   0  0  0  0  0  0  0  0  0  0  0  0
   14.9140   18.0829   18.1118 O   0  0  0  0  0  0  0  0  0  0  0  0
   16.0179   18.3113   20.2301 N   0  0  0  0  0  0  0  0  0  0  0  0
   17.1741   18.5935   20.9855 C   0  0  0  0  0  0  0  0  0  0  0  0
   17.1220   18.5504   22.4309 N   0  0  0  0  0  0  0  0  0  0  0  0
   18.3517   18.9112   20.3480 N   0  0  0  0  0  0  0  0  0  0  0  0
   18.4500   18.9721   18.9486 C   0  0  0  0  0  0  0  0  0  0  0  0
   15.1776   18.0781   20.6870 H   0  0  0  0  0  0  0  0  0  0  0  0
   16.2794   18.3231   22.8865 H   0  0  0  0  0  0  0  0  0  0  0  0
   17.9291   18.7484   22.9587 H   0  0  0  0  0  0  0  0  0  0  0  0
   16.4493   26.5820   20.1887 N   0  0  0  0  0  0  0  0  0  0  0  0
   16.8865   26.0173   19.0426 C   0  0  0  0  0  0  0  0  0  0  0  0
   15.8913   26.0092   18.0906 N   0  0  0  0  0  0  0  0  0  0  0  0
   14.7746   26.5939   18.6743 C   0  0  0  0  0  0  0  0  0  0  0  0
   13.4067   26.9089   18.2510 C   0  0  0  0  0  0  0  0  0  0  0  0
   13.0193   26.5631   16.9325 O   0  0  0  0  0  0  0  0  0  0  0  0
   12.5448   27.5268   19.1369 N   0  0  0  0  0  0  0  0  0  0  0  0
   12.9832   27.8697   20.4857 C   0  0  0  0  0  0  0  0  0  0  0  0
   12.1060   28.5188   21.4313 N   0  0  0  0  0  0  0  0  0  0  0  0
   14.2596   27.5846   20.8918 N   0  0  0  0  0  0  0  0  0  0  0  0
   15.1476   26.9569   20.0203 C   0  0  0  0  0  0  0  0  0  0  0  0
   11.6254   27.7379   18.8551 H   0  0  0  0  0  0  0  0  0  0  0  0
   11.1816   28.7390   21.1742 H   0  0  0  0  0  0  0  0  0  0  0  0
   12.4325   28.7413   22.3331 H   0  0  0  0  0  0  0  0  0  0  0  0
  1  2  1  0  0  0
  3  1  2  0  0  0
  4  1  1  0  0  0
  5  4  1  0  0  0
  6  7  1  0  0  0
  6  5  1  0  0  0
  8  6  1  0  0  0
  9 13  1  0  0  0
  9  8  1  0  0  0
 10  8  1  0  0  0
 10 12  1  0  0  0
 11 10  1  0  0  0
 12  7  1  0  0  0
 12 29  1  0  0  0
 29 39  1  0  0  0
 29 30  1  0  0  0
 30 31  2  0  0  0
 32 31  1  0  0  0
 32 33  1  0  0  0
 33 34  2  0  0  0
 35 33  1  0  0  0
 36 35  1  0  0  0
 37 36  1  0  0  0
 38 36  2  0  0  0
 38 39  1  0  0  0
 39 32  2  0  0  0
 13 14  1  0  0  0
 13 16  1  0  0  0
 15 13  2  0  0  0
 17 16  1  0  0  0
 17 18  1  0  0  0
 18 19  1  0  0  0
 18 20  1  0  0  0
 19 24  1  0  0  0
 20 22  1  0  0  0
 21 20  1  0  0  0
 21  1  1  0  0  0
 22 23  1  0  0  0
 24 22  1  0  0  0
 24 43  1  0  0  0
 43 53  1  0  0  0
 44 45  2  0  0  0
 44 43  1  0  0  0
 45 46  1  0  0  0
 46 53  2  0  0  0
 46 47  1  0  0  0
 47 48  2  0  0  0
 47 49  1  0  0  0
 50 49  1  0  0  0
 50 51  1  0  0  0
 52 50  2  0  0  0
 53 52  1  0  0  0
  2 25  1  0  0  0
 11 26  1  0  0  0
 35 40  1  0  0  0
 37 41  1  0  0  0
 37 42  1  0  0  0
 14 27  1  0  0  0
 23 28  1  0  0  0
 49 54  1  0  0  0
 51 55  1  0  0  0
 51 56  1  0  0  0
M  END
> <minimizedAffinity>
-12.84393

$$$$
4F5Y_C2E_A_402


 56 62  0  0  0  0  0  0  0  0999 V2000
   21.0166   24.6957   18.7096 P   0  0  0  0  0  0  0  0  0  0  0  0
   20.3436   24.4732   17.3090 O   0  0  0  0  0  0  0  0  0  0  0  0
   22.1104   25.7726   18.5166 O   0  0  0  0  0  0  0  0  0  0  0  0
   19.9296   25.2375   19.7112 O   0  0  0  0  0  0  0  0  0  0  0  0
   20.3968   25.6854   20.9676 C   0  0  0  0  0  0  0  0  0  0  0  0
   19.2100   25.8295   21.9309 C   0  0  0  0  0  0  0  0  0  0  0  0
   18.5278   27.0436   21.6451 O   0  0  0  0  0  0  0  0  0  0  0  0
   18.1361   24.7668   21.9134 C   0  0  0  0  0  0  0  0  0  0  0  0
   18.4856   23.7048   22.7466 O   0  0  0  0  0  0  0  0  0  0  0  0
   16.9759   25.5014   22.4208 C   0  0  0  0  0  0  0  0  0  0  0  0
   17.0408   25.6736   23.8021 O   0  0  0  0  0  0  0  0  0  0  0  0
   17.1226   26.8387   21.7362 C   0  0  0  0  0  0  0  0  0  0  0  0
   18.1779   22.1944   22.4058 P   0  0  0  0  0  0  0  0  0  0  0  0
   18.3846   21.3648   23.6772 O   0  0  0  0  0  0  0  0  0  0  0  0
   16.7273   22.0414   21.8823 O   0  0  0  0  0  0  0  0  0  0  0  0
   19.2012   21.7098   21.2890 O   0  0  0  0  0  0  0  0  0  0  0  0
   20.5794   21.5013   21.6109 C   0  0  0  0  0  0  0  0  0  0  0  0
   21.3245   21.2327   20.3077 C   0  0  0  0  0  0  0  0  0  0  0  0
   21.0332   19.9747   19.8059 O   0  0  0  0  0  0  0  0  0  0  0  0
   20.9494   22.1865   19.2376 C   0  0  0  0  0  0  0  0  0  0  0  0
   21.6381   23.3502   19.2926 O   0  0  0  0  0  0  0  0  0  0  0  0
   21.3645   21.3850   18.0338 C   0  0  0  0  0  0  0  0  0  0  0  0
   22.7265   21.5038   17.7203 O   0  0  0  0  0  0  0  0  0  0  0  0
   20.9945   20.0063   18.4062 C   0  0  0  0  0  0  0  0  0  0  0  0
   19.9784   25.3127   16.9887 H   0  0  0  0  0  0  0  0  0  0  0  0
   17.8664   26.1275   24.0329 H   0  0  0  0  0  0  0  0  0  0  0  0
   19.2966   21.4731   23.9893 H   0  0  0  0  0  0  0  0  0  0  0  0
   23.2590   21.2141   18.4775 H   0  0  0  0  0  0  0  0  0  0  0  0
   16.3914   26.8519   20.4898 N   0  0  0  0  0  0  0  0  0  0  0  0
   16.8107   26.4210   19.2522 C   0  0  0  0  0  0  0  0  0  0  0  0
   15.8189   26.5969   18.3235 N   0  0  0  0  0  0  0  0  0  0  0  0
   14.7024   27.1711   18.9890 C   0  0  0  0  0  0  0  0  0  0  0  0
   13.3820   27.6079   18.6235 C   0  0  0  0  0  0  0  0  0  0  0  0
   12.9360   27.4931   17.3283 O   0  0  0  0  0  0  0  0  0  0  0  0
   12.5079   28.1607   19.5930 N   0  0  0  0  0  0  0  0  0  0  0  0
   12.9295   28.2967   20.9313 C   0  0  0  0  0  0  0  0  0  0  0  0
   12.0378   28.8711   21.9155 N   0  0  0  0  0  0  0  0  0  0  0  0
   14.1894   27.8844   21.3008 N   0  0  0  0  0  0  0  0  0  0  0  0
   15.0923   27.3274   20.3808 C   0  0  0  0  0  0  0  0  0  0  0  0
   11.6041   28.4503   19.3310 H   0  0  0  0  0  0  0  0  0  0  0  0
   11.1366   29.1659   21.6507 H   0  0  0  0  0  0  0  0  0  0  0  0
   12.3324   28.9671   22.8500 H   0  0  0  0  0  0  0  0  0  0  0  0
   19.6672   19.7897   17.9281 N   0  0  0  0  0  0  0  0  0  0  0  0
   19.1747   20.0716   16.7027 C   0  0  0  0  0  0  0  0  0  0  0  0
   17.8559   19.6866   16.6051 N   0  0  0  0  0  0  0  0  0  0  0  0
   17.5097   19.1313   17.8304 C   0  0  0  0  0  0  0  0  0  0  0  0
   16.3025   18.5412   18.4171 C   0  0  0  0  0  0  0  0  0  0  0  0
   15.1393   18.4608   17.6118 O   0  0  0  0  0  0  0  0  0  0  0  0
   16.3316   18.0868   19.7218 N   0  0  0  0  0  0  0  0  0  0  0  0
   17.5490   18.1904   20.5195 C   0  0  0  0  0  0  0  0  0  0  0  0
   17.6076   17.7276   21.8859 N   0  0  0  0  0  0  0  0  0  0  0  0
   18.6818   18.7434   19.9844 N   0  0  0  0  0  0  0  0  0  0  0  0
   18.6816   19.2047   18.6693 C   0  0  0  0  0  0  0  0  0  0  0  0
   15.5225   17.6889   20.1172 H   0  0  0  0  0  0  0  0  0  0  0  0
   16.8125   17.3245   22.3037 H   0  0  0  0  0  0  0  0  0  0  0  0
   18.4427   17.8151   22.3999 H   0  0  0  0  0  0  0  0  0  0  0  0
  1  2  1  0  0  0
  3  1  2  0  0  0
  4  1  1  0  0  0
  5  4  1  0  0  0
  6  7  1  0  0  0
  6  5  1  0  0  0
  8  6  1  0  0  0
  9 13  1  0  0  0
  9  8  1  0  0  0
 10  8  1  0  0  0
 10 12  1  0  0  0
 11 10  1  0  0  0
 12  7  1  0  0  0
 12 29  1  0  0  0
 29 39  1  0  0  0
 29 30  1  0  0  0
 30 31  2  0  0  0
 32 31  1  0  0  0
 32 33  1  0  0  0
 33 34  2  0  0  0
 35 33  1  0  0  0
 36 35  1  0  0  0
 37 36  1  0  0  0
 38 36  2  0  0  0
 38 39  1  0  0  0
 39 32  2  0  0  0
 13 14  1  0  0  0
 13 16  1  0  0  0
 15 13  2  0  0  0
 17 16  1  0  0  0
 17 18  1  0  0  0
 18 19  1  0  0  0
 18 20  1  0  0  0
 19 24  1  0  0  0
 20 22  1  0  0  0
 21 20  1  0  0  0
 21  1  1  0  0  0
 22 23  1  0  0  0
 24 22  1  0  0  0
 24 43  1  0  0  0
 43 53  1  0  0  0
 44 45  2  0  0  0
 44 43  1  0  0  0
 45 46  1  0  0  0
 46 53  2  0  0  0
 46 47  1  0  0  0
 47 48  2  0  0  0
 47 49  1  0  0  0
 50 49  1  0  0  0
 50 51  1  0  0  0
 52 50  2  0  0  0
 53 52  1  0  0  0
  2 25  1  0  0  0
 11 26  1  0  0  0
 35 40  1  0  0  0
 37 41  1  0  0  0
 37 42  1  0  0  0
 14 27  1  0  0  0
 23 28  1  0  0  0
 49 54  1  0  0  0
 51 55  1  0  0  0
 51 56  1  0  0  0
M  END
> <minimizedAffinity>
-12.75653

$$$$
4F5Y_C2E_A_402


 56 62  0  0  0  0  0  0  0  0999 V2000
   16.2600   22.0522   21.1607 P   0  0  0  0  0  0  0  0  0  0  0  0
   15.0591   22.3269   20.1879 O   0  0  0  0  0  0  0  0  0  0  0  0
   15.8434   20.8691   22.0663 O   0  0  0  0  0  0  0  0  0  0  0  0
   17.5146   21.6325   20.3074 O   0  0  0  0  0  0  0  0  0  0  0  0
   18.6338   21.1528   21.0248 C   0  0  0  0  0  0  0  0  0  0  0  0
   19.8619   21.1384   20.1035 C   0  0  0  0  0  0  0  0  0  0  0  0
   19.7932   19.9961   19.2600 O   0  0  0  0  0  0  0  0  0  0  0  0
   20.0702   22.3033   19.1640 C   0  0  0  0  0  0  0  0  0  0  0  0
   20.7558   23.3334   19.8068 O   0  0  0  0  0  0  0  0  0  0  0  0
   20.8703   21.6940   18.1002 C   0  0  0  0  0  0  0  0  0  0  0  0
   22.1991   21.5303   18.4864 O   0  0  0  0  0  0  0  0  0  0  0  0
   20.2172   20.3418   17.9464 C   0  0  0  0  0  0  0  0  0  0  0  0
   20.4483   24.8634   19.5692 P   0  0  0  0  0  0  0  0  0  0  0  0
   21.6015   25.6811   20.1601 O   0  0  0  0  0  0  0  0  0  0  0  0
   20.2895   25.1558   18.0556 O   0  0  0  0  0  0  0  0  0  0  0  0
   19.0995   25.2315   20.3273 O   0  0  0  0  0  0  0  0  0  0  0  0
   19.0683   25.3039   21.7558 C   0  0  0  0  0  0  0  0  0  0  0  0
   17.6142   25.4831   22.1791 C   0  0  0  0  0  0  0  0  0  0  0  0
   17.1554   26.7587   21.8939 O   0  0  0  0  0  0  0  0  0  0  0  0
   16.7015   24.5609   21.4636 C   0  0  0  0  0  0  0  0  0  0  0  0
   16.6271   23.3345   22.0312 O   0  0  0  0  0  0  0  0  0  0  0  0
   15.4058   25.3043   21.6437 C   0  0  0  0  0  0  0  0  0  0  0  0
   14.7739   25.0462   22.8690 O   0  0  0  0  0  0  0  0  0  0  0  0
   15.8094   26.7169   21.5090 C   0  0  0  0  0  0  0  0  0  0  0  0
   14.8667   21.5250   19.6773 H   0  0  0  0  0  0  0  0  0  0  0  0
   22.2372   20.9982   19.2966 H   0  0  0  0  0  0  0  0  0  0  0  0
   21.6852   25.4850   21.1064 H   0  0  0  0  0  0  0  0  0  0  0  0
   15.3679   25.2888   23.5965 H   0  0  0  0  0  0  0  0  0  0  0  0
   19.1880   20.3893   16.9331 N   0  0  0  0  0  0  0  0  0  0  0  0
   19.2474   20.9669   15.6857 C   0  0  0  0  0  0  0  0  0  0  0  0
   18.0626   20.7909   15.0205 N   0  0  0  0  0  0  0  0  0  0  0  0
   17.1911   20.0659   15.8773 C   0  0  0  0  0  0  0  0  0  0  0  0
   15.8428   19.5700   15.8155 C   0  0  0  0  0  0  0  0  0  0  0  0
   15.0734   19.7606   14.6924 O   0  0  0  0  0  0  0  0  0  0  0  0
   15.2790   18.8668   16.9098 N   0  0  0  0  0  0  0  0  0  0  0  0
   16.0356   18.6529   18.0798 C   0  0  0  0  0  0  0  0  0  0  0  0
   15.4528   17.9439   19.1984 N   0  0  0  0  0  0  0  0  0  0  0  0
   17.3279   19.1198   18.1582 N   0  0  0  0  0  0  0  0  0  0  0  0
   17.9344   19.8187   17.1020 C   0  0  0  0  0  0  0  0  0  0  0  0
   14.3567   18.5271   16.8524 H   0  0  0  0  0  0  0  0  0  0  0  0
   14.5283   17.6101   19.1419 H   0  0  0  0  0  0  0  0  0  0  0  0
   15.9807   17.7953   20.0160 H   0  0  0  0  0  0  0  0  0  0  0  0
   15.6622   27.0607   20.1316 N   0  0  0  0  0  0  0  0  0  0  0  0
   16.6274   27.1268   19.1894 C   0  0  0  0  0  0  0  0  0  0  0  0
   16.0931   27.4594   17.9643 N   0  0  0  0  0  0  0  0  0  0  0  0
   14.7241   27.6027   18.1507 C   0  0  0  0  0  0  0  0  0  0  0  0
   13.5751   27.9437   17.3061 C   0  0  0  0  0  0  0  0  0  0  0  0
   13.8093   28.2033   15.9329 O   0  0  0  0  0  0  0  0  0  0  0  0
   12.3127   28.0028   17.8651 N   0  0  0  0  0  0  0  0  0  0  0  0
   12.1136   27.7316   19.2849 C   0  0  0  0  0  0  0  0  0  0  0  0
   10.8071   27.7895   19.8969 N   0  0  0  0  0  0  0  0  0  0  0  0
   13.1792   27.4162   20.0852 N   0  0  0  0  0  0  0  0  0  0  0  0
   14.4623   27.3445   19.5461 C   0  0  0  0  0  0  0  0  0  0  0  0
   11.5397   28.2301   17.2995 H   0  0  0  0  0  0  0  0  0  0  0  0
   10.0179   28.0131   19.3524 H   0  0  0  0  0  0  0  0  0  0  0  0
   10.7054   27.6054   20.8587 H   0  0  0  0  0  0  0  0  0  0  0  0
  1  2  1  0  0  0
  3  1  2  0  0  0
  4  1  1  0  0  0
  5  4  1  0  0  0
  6  7  1  0  0  0
  6  5  1  0  0  0
  8  6  1  0  0  0
  9 13  1  0  0  0
  9  8  1  0  0  0
 10  8  1  0  0  0
 10 12  1  0  0  0
 11 10  1  0  0  0
 12  7  1  0  0  0
 12 29  1  0  0  0
 29 39  1  0  0  0
 29 30  1  0  0  0
 30 31  2  0  0  0
 32 31  1  0  0  0
 32 33  1  0  0  0
 33 34  2  0  0  0
 35 33  1  0  0  0
 36 35  1  0  0  0
 37 36  1  0  0  0
 38 36  2  0  0  0
 38 39  1  0  0  0
 39 32  2  0  0  0
 13 14  1  0  0  0
 13 16  1  0  0  0
 15 13  2  0  0  0
 17 16  1  0  0  0
 17 18  1  0  0  0
 18 19  1  0  0  0
 18 20  1  0  0  0
 19 24  1  0  0  0
 20 22  1  0  0  0
 21 20  1  0  0  0
 21  1  1  0  0  0
 22 23  1  0  0  0
 24 22  1  0  0  0
 24 43  1  0  0  0
 43 53  1  0  0  0
 44 45  2  0  0  0
 44 43  1  0  0  0
 45 46  1  0  0  0
 46 53  2  0  0  0
 46 47  1  0  0  0
 47 48  2  0  0  0
 47 49  1  0  0  0
 50 49  1  0  0  0
 50 51  1  0  0  0
 52 50  2  0  0  0
 53 52  1  0  0  0
  2 25  1  0  0  0
 11 26  1  0  0  0
 35 40  1  0  0  0
 37 41  1  0  0  0
 37 42  1  0  0  0
 14 27  1  0  0  0
 23 28  1  0  0  0
 49 54  1  0  0  0
 51 55  1  0  0  0
 51 56  1  0  0  0
M  END
> <minimizedAffinity>
-12.59144

$$$$
4F5Y_C2E_A_402


 56 62  0  0  0  0  0  0  0  0999 V2000
   17.9903   22.1255   22.6519 P   0  0  0  0  0  0  0  0  0  0  0  0
   16.4760   22.1697   22.2409 O   0  0  0  0  0  0  0  0  0  0  0  0
   18.0695   21.3611   23.9946 O   0  0  0  0  0  0  0  0  0  0  0  0
   18.7877   21.3262   21.5548 O   0  0  0  0  0  0  0  0  0  0  0  0
   20.1323   21.0119   21.8558 C   0  0  0  0  0  0  0  0  0  0  0  0
   20.8524   20.5721   20.5731 C   0  0  0  0  0  0  0  0  0  0  0  0
   20.5020   19.2246   20.2856 O   0  0  0  0  0  0  0  0  0  0  0  0
   20.5716   21.3278   19.2952 C   0  0  0  0  0  0  0  0  0  0  0  0
   21.4012   22.4440   19.1949 O   0  0  0  0  0  0  0  0  0  0  0  0
   20.8806   20.3232   18.2761 C   0  0  0  0  0  0  0  0  0  0  0  0
   22.2551   20.1736   18.1023 O   0  0  0  0  0  0  0  0  0  0  0  0
   20.3073   19.0665   18.8849 C   0  0  0  0  0  0  0  0  0  0  0  0
   20.9298   23.8269   18.5970 P   0  0  0  0  0  0  0  0  0  0  0  0
   22.1727   24.6823   18.3309 O   0  0  0  0  0  0  0  0  0  0  0  0
   20.1268   23.6069   17.2899 O   0  0  0  0  0  0  0  0  0  0  0  0
   20.0100   24.5546   19.6711 O   0  0  0  0  0  0  0  0  0  0  0  0
   20.5829   25.1059   20.8605 C   0  0  0  0  0  0  0  0  0  0  0  0
   19.4376   25.5541   21.7621 C   0  0  0  0  0  0  0  0  0  0  0  0
   18.8246   26.6970   21.2748 O   0  0  0  0  0  0  0  0  0  0  0  0
   18.3654   24.5360   21.8590 C   0  0  0  0  0  0  0  0  0  0  0  0
   18.6132   23.5849   22.7893 O   0  0  0  0  0  0  0  0  0  0  0  0
   17.2258   25.4161   22.2956 C   0  0  0  0  0  0  0  0  0  0  0  0
   17.1900   25.6463   23.6788 O   0  0  0  0  0  0  0  0  0  0  0  0
   17.4476   26.6560   21.5277 C   0  0  0  0  0  0  0  0  0  0  0  0
   16.1343   21.2648   22.1678 H   0  0  0  0  0  0  0  0  0  0  0  0
   22.6652   19.9439   18.9508 H   0  0  0  0  0  0  0  0  0  0  0  0
   22.6615   24.8089   19.1591 H   0  0  0  0  0  0  0  0  0  0  0  0
   18.0204   26.0619   23.9590 H   0  0  0  0  0  0  0  0  0  0  0  0
   18.9448   18.8678   18.4463 N   0  0  0  0  0  0  0  0  0  0  0  0
   17.7981   18.8606   19.2067 C   0  0  0  0  0  0  0  0  0  0  0  0
   16.7008   18.6453   18.4150 N   0  0  0  0  0  0  0  0  0  0  0  0
   17.1564   18.5040   17.0765 C   0  0  0  0  0  0  0  0  0  0  0  0
   16.5586   18.2583   15.7920 C   0  0  0  0  0  0  0  0  0  0  0  0
   15.1978   18.1104   15.6656 O   0  0  0  0  0  0  0  0  0  0  0  0
   17.3594   18.1699   14.6255 N   0  0  0  0  0  0  0  0  0  0  0  0
   18.7588   18.3141   14.7145 C   0  0  0  0  0  0  0  0  0  0  0  0
   19.5735   18.2128   13.5230 N   0  0  0  0  0  0  0  0  0  0  0  0
   19.3498   18.5499   15.9349 N   0  0  0  0  0  0  0  0  0  0  0  0
   18.6022   18.6497   17.1194 C   0  0  0  0  0  0  0  0  0  0  0  0
   16.9371   18.0074   13.7511 H   0  0  0  0  0  0  0  0  0  0  0  0
   19.1503   18.0442   12.6502 H   0  0  0  0  0  0  0  0  0  0  0  0
   20.5510   18.3125   13.5851 H   0  0  0  0  0  0  0  0  0  0  0  0
   16.7099   26.5288   20.3125 N   0  0  0  0  0  0  0  0  0  0  0  0
   17.1282   25.9954   19.1446 C   0  0  0  0  0  0  0  0  0  0  0  0
   16.1193   26.0179   18.2074 N   0  0  0  0  0  0  0  0  0  0  0  0
   15.0135   26.5896   18.8238 C   0  0  0  0  0  0  0  0  0  0  0  0
   13.6408   26.9213   18.4296 C   0  0  0  0  0  0  0  0  0  0  0  0
   13.2330   26.6145   17.1076 O   0  0  0  0  0  0  0  0  0  0  0  0
   12.7943   27.5167   19.3452 N   0  0  0  0  0  0  0  0  0  0  0  0
   13.2535   27.8195   20.6967 C   0  0  0  0  0  0  0  0  0  0  0  0
   12.3927   28.4445   21.6731 N   0  0  0  0  0  0  0  0  0  0  0  0
   14.5346   27.5186   21.0758 N   0  0  0  0  0  0  0  0  0  0  0  0
   15.4074   26.9129   20.1739 C   0  0  0  0  0  0  0  0  0  0  0  0
   11.8717   27.7390   19.0830 H   0  0  0  0  0  0  0  0  0  0  0  0
   11.4654   28.6750   21.4360 H   0  0  0  0  0  0  0  0  0  0  0  0
   12.7331   28.6400   22.5760 H   0  0  0  0  0  0  0  0  0  0  0  0
  1  2  1  0  0  0
  3  1  2  0  0  0
  4  1  1  0  0  0
  5  4  1  0  0  0
  6  7  1  0  0  0
  6  5  1  0  0  0
  8  6  1  0  0  0
  9 13  1  0  0  0
  9  8  1  0  0  0
 10  8  1  0  0  0
 10 12  1  0  0  0
 11 10  1  0  0  0
 12  7  1  0  0  0
 12 29  1  0  0  0
 29 39  1  0  0  0
 29 30  1  0  0  0
 30 31  2  0  0  0
 32 31  1  0  0  0
 32 33  1  0  0  0
 33 34  2  0  0  0
 35 33  1  0  0  0
 36 35  1  0  0  0
 37 36  1  0  0  0
 38 36  2  0  0  0
 38 39  1  0  0  0
 39 32  2  0  0  0
 13 14  1  0  0  0
 13 16  1  0  0  0
 15 13  2  0  0  0
 17 16  1  0  0  0
 17 18  1  0  0  0
 18 19  1  0  0  0
 18 20  1  0  0  0
 19 24  1  0  0  0
 20 22  1  0  0  0
 21 20  1  0  0  0
 21  1  1  0  0  0
 22 23  1  0  0  0
 24 22  1  0  0  0
 24 43  1  0  0  0
 43 53  1  0  0  0
 44 45  2  0  0  0
 44 43  1  0  0  0
 45 46  1  0  0  0
 46 53  2  0  0  0
 46 47  1  0  0  0
 47 48  2  0  0  0
 47 49  1  0  0  0
 50 49  1  0  0  0
 50 51  1  0  0  0
 52 50  2  0  0  0
 53 52  1  0  0  0
  2 25  1  0  0  0
 11 26  1  0  0  0
 35 40  1  0  0  0
 37 41  1  0  0  0
 37 42  1  0  0  0
 14 27  1  0  0  0
 23 28  1  0  0  0
 49 54  1  0  0  0
 51 55  1  0  0  0
 51 56  1  0  0  0
M  END
> <minimizedAffinity>
-12.50447

$$$$
4F5Y_C2E_A_402


 56 62  0  0  0  0  0  0  0  0999 V2000
   15.9650   21.7283   21.0645 P   0  0  0  0  0  0  0  0  0  0  0  0
   15.1039   22.3330   19.8997 O   0  0  0  0  0  0  0  0  0  0  0  0
   15.0791   20.6826   21.7823 O   0  0  0  0  0  0  0  0  0  0  0  0
   17.2173   21.0046   20.4429 O   0  0  0  0  0  0  0  0  0  0  0  0
   18.0012   20.2292   21.3270 C   0  0  0  0  0  0  0  0  0  0  0  0
   19.3471   19.9043   20.6636 C   0  0  0  0  0  0  0  0  0  0  0  0
   19.1621   18.8385   19.7412 O   0  0  0  0  0  0  0  0  0  0  0  0
   20.0387   20.9888   19.8707 C   0  0  0  0  0  0  0  0  0  0  0  0
   20.8185   21.7853   20.7085 O   0  0  0  0  0  0  0  0  0  0  0  0
   20.8568   20.2082   18.9410 C   0  0  0  0  0  0  0  0  0  0  0  0
   21.9886   19.6874   19.5651 O   0  0  0  0  0  0  0  0  0  0  0  0
   19.9234   19.0833   18.5642 C   0  0  0  0  0  0  0  0  0  0  0  0
   20.9723   23.3461   20.5289 P   0  0  0  0  0  0  0  0  0  0  0  0
   22.1493   23.8137   21.3912 O   0  0  0  0  0  0  0  0  0  0  0  0
   21.2112   23.6993   19.0390 O   0  0  0  0  0  0  0  0  0  0  0  0
   19.6375   24.0470   21.0352 O   0  0  0  0  0  0  0  0  0  0  0  0
   19.3310   24.0977   22.4317 C   0  0  0  0  0  0  0  0  0  0  0  0
   17.9174   24.6513   22.5763 C   0  0  0  0  0  0  0  0  0  0  0  0
   17.8727   26.0085   22.3019 O   0  0  0  0  0  0  0  0  0  0  0  0
   16.9662   24.0209   21.6311 C   0  0  0  0  0  0  0  0  0  0  0  0
   16.4621   22.8485   22.0816 O   0  0  0  0  0  0  0  0  0  0  0  0
   15.8981   25.0804   21.6100 C   0  0  0  0  0  0  0  0  0  0  0  0
   14.9816   24.9774   22.6667 O   0  0  0  0  0  0  0  0  0  0  0  0
   16.6713   26.3358   21.6606 C   0  0  0  0  0  0  0  0  0  0  0  0
   14.8212   21.6217   19.3038 H   0  0  0  0  0  0  0  0  0  0  0  0
   21.7195   19.1491   20.3258 H   0  0  0  0  0  0  0  0  0  0  0  0
   21.9818   23.5843   22.3187 H   0  0  0  0  0  0  0  0  0  0  0  0
   15.4541   25.0381   23.5117 H   0  0  0  0  0  0  0  0  0  0  0  0
   19.1741   19.4239   17.3764 N   0  0  0  0  0  0  0  0  0  0  0  0
   19.5662   20.2130   16.3195 C   0  0  0  0  0  0  0  0  0  0  0  0
   18.5693   20.2870   15.3826 N   0  0  0  0  0  0  0  0  0  0  0  0
   17.4766   19.5105   15.8539 C   0  0  0  0  0  0  0  0  0  0  0  0
   16.1571   19.1772   15.3894 C   0  0  0  0  0  0  0  0  0  0  0  0
   15.6943   19.6511   14.1850 O   0  0  0  0  0  0  0  0  0  0  0  0
   15.3063   18.3462   16.1609 N   0  0  0  0  0  0  0  0  0  0  0  0
   15.7442   17.8422   17.4025 C   0  0  0  0  0  0  0  0  0  0  0  0
   14.8687   17.0029   18.1916 N   0  0  0  0  0  0  0  0  0  0  0  0
   17.0036   18.1498   17.8641 N   0  0  0  0  0  0  0  0  0  0  0  0
   17.8864   18.9652   17.1377 C   0  0  0  0  0  0  0  0  0  0  0  0
   14.4074   18.1205   15.8287 H   0  0  0  0  0  0  0  0  0  0  0  0
   13.9678   16.7831   17.8609 H   0  0  0  0  0  0  0  0  0  0  0  0
   15.1739   16.6516   19.0592 H   0  0  0  0  0  0  0  0  0  0  0  0
   16.9063   26.7328   20.3099 N   0  0  0  0  0  0  0  0  0  0  0  0
   17.9472   26.3943   19.5190 C   0  0  0  0  0  0  0  0  0  0  0  0
   17.8074   26.9447   18.2643 N   0  0  0  0  0  0  0  0  0  0  0  0
   16.6158   27.6587   18.2712 C   0  0  0  0  0  0  0  0  0  0  0  0
   15.8697   28.4742   17.3079 C   0  0  0  0  0  0  0  0  0  0  0  0
   16.4089   28.6314   16.0069 O   0  0  0  0  0  0  0  0  0  0  0  0
   14.6779   29.0598   17.6902 N   0  0  0  0  0  0  0  0  0  0  0  0
   14.1576   28.8763   19.0410 C   0  0  0  0  0  0  0  0  0  0  0  0
   12.9174   29.4790   19.4695 N   0  0  0  0  0  0  0  0  0  0  0  0
   14.8472   28.1205   19.9513 N   0  0  0  0  0  0  0  0  0  0  0  0
   16.0489   27.5141   19.5904 C   0  0  0  0  0  0  0  0  0  0  0  0
   14.1746   29.6066   17.0445 H   0  0  0  0  0  0  0  0  0  0  0  0
   12.3948   30.0289   18.8421 H   0  0  0  0  0  0  0  0  0  0  0  0
   12.5945   29.3400   20.3891 H   0  0  0  0  0  0  0  0  0  0  0  0
  1  2  1  0  0  0
  3  1  2  0  0  0
  4  1  1  0  0  0
  5  4  1  0  0  0
  6  7  1  0  0  0
  6  5  1  0  0  0
  8  6  1  0  0  0
  9 13  1  0  0  0
  9  8  1  0  0  0
 10  8  1  0  0  0
 10 12  1  0  0  0
 11 10  1  0  0  0
 12  7  1  0  0  0
 12 29  1  0  0  0
 29 39  1  0  0  0
 29 30  1  0  0  0
 30 31  2  0  0  0
 32 31  1  0  0  0
 32 33  1  0  0  0
 33 34  2  0  0  0
 35 33  1  0  0  0
 36 35  1  0  0  0
 37 36  1  0  0  0
 38 36  2  0  0  0
 38 39  1  0  0  0
 39 32  2  0  0  0
 13 14  1  0  0  0
 13 16  1  0  0  0
 15 13  2  0  0  0
 17 16  1  0  0  0
 17 18  1  0  0  0
 18 19  1  0  0  0
 18 20  1  0  0  0
 19 24  1  0  0  0
 20 22  1  0  0  0
 21 20  1  0  0  0
 21  1  1  0  0  0
 22 23  1  0  0  0
 24 22  1  0  0  0
 24 43  1  0  0  0
 43 53  1  0  0  0
 44 45  2  0  0  0
 44 43  1  0  0  0
 45 46  1  0  0  0
 46 53  2  0  0  0
 46 47  1  0  0  0
 47 48  2  0  0  0
 47 49  1  0  0  0
 50 49  1  0  0  0
 50 51  1  0  0  0
 52 50  2  0  0  0
 53 52  1  0  0  0
  2 25  1  0  0  0
 11 26  1  0  0  0
 35 40  1  0  0  0
 37 41  1  0  0  0
 37 42  1  0  0  0
 14 27  1  0  0  0
 23 28  1  0  0  0
 49 54  1  0  0  0
 51 55  1  0  0  0
 51 56  1  0  0  0
M  END
> <minimizedAffinity>
-12.45982

$$$$
4F5Y_C2E_A_402


 56 62  0  0  0  0  0  0  0  0999 V2000
   21.0227   23.4867   18.6389 P   0  0  0  0  0  0  0  0  0  0  0  0
   20.3063   23.1619   17.2804 O   0  0  0  0  0  0  0  0  0  0  0  0
   22.2494   24.3667   18.3009 O   0  0  0  0  0  0  0  0  0  0  0  0
   20.0331   24.3073   19.5475 O   0  0  0  0  0  0  0  0  0  0  0  0
   20.5741   24.8606   20.7301 C   0  0  0  0  0  0  0  0  0  0  0  0
   19.4313   25.2993   21.6568 C   0  0  0  0  0  0  0  0  0  0  0  0
   18.9156   26.5421   21.1978 O   0  0  0  0  0  0  0  0  0  0  0  0
   18.2233   24.4007   21.7845 C   0  0  0  0  0  0  0  0  0  0  0  0
   18.4374   23.4295   22.7619 O   0  0  0  0  0  0  0  0  0  0  0  0
   17.1804   25.3504   22.1762 C   0  0  0  0  0  0  0  0  0  0  0  0
   17.2872   25.7057   23.5194 O   0  0  0  0  0  0  0  0  0  0  0  0
   17.4970   26.5451   21.3095 C   0  0  0  0  0  0  0  0  0  0  0  0
   17.9235   21.9421   22.6372 P   0  0  0  0  0  0  0  0  0  0  0  0
   18.0337   21.2803   24.0146 O   0  0  0  0  0  0  0  0  0  0  0  0
   16.4584   21.9153   22.1329 O   0  0  0  0  0  0  0  0  0  0  0  0
   18.8561   21.1700   21.6060 O   0  0  0  0  0  0  0  0  0  0  0  0
   20.1979   20.8238   21.9619 C   0  0  0  0  0  0  0  0  0  0  0  0
   20.8815   20.2749   20.7140 C   0  0  0  0  0  0  0  0  0  0  0  0
   20.4157   19.0100   20.3942 O   0  0  0  0  0  0  0  0  0  0  0  0
   20.6240   21.1099   19.5173 C   0  0  0  0  0  0  0  0  0  0  0  0
   21.4645   22.1652   19.4104 O   0  0  0  0  0  0  0  0  0  0  0  0
   20.9100   20.0974   18.4417 C   0  0  0  0  0  0  0  0  0  0  0  0
   22.2710   19.9845   18.1220 O   0  0  0  0  0  0  0  0  0  0  0  0
   20.3620   18.8484   19.0040 C   0  0  0  0  0  0  0  0  0  0  0  0
   20.0536   23.9896   16.8422 H   0  0  0  0  0  0  0  0  0  0  0  0
   18.1698   26.0713   23.6879 H   0  0  0  0  0  0  0  0  0  0  0  0
   18.9563   21.3066   24.3131 H   0  0  0  0  0  0  0  0  0  0  0  0
   22.7700   19.7350   18.9156 H   0  0  0  0  0  0  0  0  0  0  0  0
   16.7571   26.4813   20.0699 N   0  0  0  0  0  0  0  0  0  0  0  0
   17.1904   26.0376   18.8416 C   0  0  0  0  0  0  0  0  0  0  0  0
   16.1835   26.1312   17.9172 N   0  0  0  0  0  0  0  0  0  0  0  0
   15.0420   26.6626   18.5757 C   0  0  0  0  0  0  0  0  0  0  0  0
   13.6968   27.0151   18.2095 C   0  0  0  0  0  0  0  0  0  0  0  0
   13.2483   26.8378   16.9223 O   0  0  0  0  0  0  0  0  0  0  0  0
   12.8006   27.5474   19.1704 N   0  0  0  0  0  0  0  0  0  0  0  0
   13.2240   27.7459   20.5003 C   0  0  0  0  0  0  0  0  0  0  0  0
   12.3093   28.2992   21.4754 N   0  0  0  0  0  0  0  0  0  0  0  0
   14.5075   27.4146   20.8703 N   0  0  0  0  0  0  0  0  0  0  0  0
   15.4329   26.8812   19.9588 C   0  0  0  0  0  0  0  0  0  0  0  0
   11.8804   27.7790   18.9082 H   0  0  0  0  0  0  0  0  0  0  0  0
   11.3912   28.5361   21.2102 H   0  0  0  0  0  0  0  0  0  0  0  0
   12.6050   28.4389   22.4040 H   0  0  0  0  0  0  0  0  0  0  0  0
   19.0111   18.7488   18.5543 N   0  0  0  0  0  0  0  0  0  0  0  0
   17.8873   18.7826   19.3022 C   0  0  0  0  0  0  0  0  0  0  0  0
   16.7670   18.6921   18.5062 N   0  0  0  0  0  0  0  0  0  0  0  0
   17.2148   18.6025   17.1943 C   0  0  0  0  0  0  0  0  0  0  0  0
   16.5907   18.4773   15.8735 C   0  0  0  0  0  0  0  0  0  0  0  0
   15.1759   18.4369   15.8045 O   0  0  0  0  0  0  0  0  0  0  0  0
   17.3884   18.4021   14.7477 N   0  0  0  0  0  0  0  0  0  0  0  0
   18.8425   18.4441   14.8612 C   0  0  0  0  0  0  0  0  0  0  0  0
   19.7010   18.3638   13.7030 N   0  0  0  0  0  0  0  0  0  0  0  0
   19.4376   18.5565   16.0895 N   0  0  0  0  0  0  0  0  0  0  0  0
   18.6566   18.6397   17.2407 C   0  0  0  0  0  0  0  0  0  0  0  0
   16.9713   18.3194   13.8597 H   0  0  0  0  0  0  0  0  0  0  0  0
   19.3083   18.2823   12.8039 H   0  0  0  0  0  0  0  0  0  0  0  0
   20.6790   18.3906   13.8124 H   0  0  0  0  0  0  0  0  0  0  0  0
  1  2  1  0  0  0
  3  1  2  0  0  0
  4  1  1  0  0  0
  5  4  1  0  0  0
  6  7  1  0  0  0
  6  5  1  0  0  0
  8  6  1  0  0  0
  9 13  1  0  0  0
  9  8  1  0  0  0
 10  8  1  0  0  0
 10 12  1  0  0  0
 11 10  1  0  0  0
 12  7  1  0  0  0
 12 29  1  0  0  0
 29 39  1  0  0  0
 29 30  1  0  0  0
 30 31  2  0  0  0
 32 31  1  0  0  0
 32 33  1  0  0  0
 33 34  2  0  0  0
 35 33  1  0  0  0
 36 35  1  0  0  0
 37 36  1  0  0  0
 38 36  2  0  0  0
 38 39  1  0  0  0
 39 32  2  0  0  0
 13 14  1  0  0  0
 13 16  1  0  0  0
 15 13  2  0  0  0
 17 16  1  0  0  0
 17 18  1  0  0  0
 18 19  1  0  0  0
 18 20  1  0  0  0
 19 24  1  0  0  0
 20 22  1  0  0  0
 21 20  1  0  0  0
 21  1  1  0  0  0
 22 23  1  0  0  0
 24 22  1  0  0  0
 24 43  1  0  0  0
 43 53  1  0  0  0
 44 45  2  0  0  0
 44 43  1  0  0  0
 45 46  1  0  0  0
 46 53  2  0  0  0
 46 47  1  0  0  0
 47 48  2  0  0  0
 47 49  1  0  0  0
 50 49  1  0  0  0
 50 51  1  0  0  0
 52 50  2  0  0  0
 53 52  1  0  0  0
  2 25  1  0  0  0
 11 26  1  0  0  0
 35 40  1  0  0  0
 37 41  1  0  0  0
 37 42  1  0  0  0
 14 27  1  0  0  0
 23 28  1  0  0  0
 49 54  1  0  0  0
 51 55  1  0  0  0
 51 56  1  0  0  0
M  END
> <minimizedAffinity>
-12.43187

$$$$
4F5Y_C2E_A_402


 56 62  0  0  0  0  0  0  0  0999 V2000
   21.2936   21.8955   17.1709 P   0  0  0  0  0  0  0  0  0  0  0  0
   22.2774   21.5958   18.3568 O   0  0  0  0  0  0  0  0  0  0  0  0
   22.0345   21.5189   15.8662 O   0  0  0  0  0  0  0  0  0  0  0  0
   20.0228   20.9792   17.3260 O   0  0  0  0  0  0  0  0  0  0  0  0
   19.1180   20.9664   16.2404 C   0  0  0  0  0  0  0  0  0  0  0  0
   17.7928   20.3340   16.6888 C   0  0  0  0  0  0  0  0  0  0  0  0
   17.9387   18.9199   16.7073 O   0  0  0  0  0  0  0  0  0  0  0  0
   17.2532   20.6870   18.0552 C   0  0  0  0  0  0  0  0  0  0  0  0
   16.4972   21.8570   17.9950 O   0  0  0  0  0  0  0  0  0  0  0  0
   16.4283   19.5180   18.3655 C   0  0  0  0  0  0  0  0  0  0  0  0
   15.2171   19.5466   17.6772 O   0  0  0  0  0  0  0  0  0  0  0  0
   17.2784   18.3831   17.8478 C   0  0  0  0  0  0  0  0  0  0  0  0
   16.4963   22.9514   19.1328 P   0  0  0  0  0  0  0  0  0  0  0  0
   15.3144   23.8952   18.8887 O   0  0  0  0  0  0  0  0  0  0  0  0
   16.3847   22.2838   20.5269 O   0  0  0  0  0  0  0  0  0  0  0  0
   17.8543   23.7743   19.0434 O   0  0  0  0  0  0  0  0  0  0  0  0
   18.0755   24.6921   17.9685 C   0  0  0  0  0  0  0  0  0  0  0  0
   19.5213   25.1691   18.0562 C   0  0  0  0  0  0  0  0  0  0  0  0
   19.7054   26.0402   19.1176 O   0  0  0  0  0  0  0  0  0  0  0  0
   20.4695   24.0538   18.2855 C   0  0  0  0  0  0  0  0  0  0  0  0
   20.8364   23.4209   17.1469 O   0  0  0  0  0  0  0  0  0  0  0  0
   21.6280   24.8260   18.8560 C   0  0  0  0  0  0  0  0  0  0  0  0
   22.4630   25.3910   17.8809 O   0  0  0  0  0  0  0  0  0  0  0  0
   20.9695   25.8494   19.6899 C   0  0  0  0  0  0  0  0  0  0  0  0
   22.5319   20.6600   18.3373 H   0  0  0  0  0  0  0  0  0  0  0  0
   15.3880   19.6070   16.7242 H   0  0  0  0  0  0  0  0  0  0  0  0
   15.4016   24.3028   18.0129 H   0  0  0  0  0  0  0  0  0  0  0  0
   21.9455   25.9890   17.3192 H   0  0  0  0  0  0  0  0  0  0  0  0
   18.1287   17.8685   18.8968 N   0  0  0  0  0  0  0  0  0  0  0  0
   19.1938   17.0049   18.7827 C   0  0  0  0  0  0  0  0  0  0  0  0
   19.7469   16.7629   20.0126 N   0  0  0  0  0  0  0  0  0  0  0  0
   19.0048   17.5031   20.9719 C   0  0  0  0  0  0  0  0  0  0  0  0
   19.0379   17.6908   22.3972 C   0  0  0  0  0  0  0  0  0  0  0  0
   19.9872   17.0629   23.1680 O   0  0  0  0  0  0  0  0  0  0  0  0
   18.0956   18.5336   23.0388 N   0  0  0  0  0  0  0  0  0  0  0  0
   17.1054   19.1933   22.2829 C   0  0  0  0  0  0  0  0  0  0  0  0
   16.1391   20.0444   22.9429 N   0  0  0  0  0  0  0  0  0  0  0  0
   17.0573   19.0265   20.9176 N   0  0  0  0  0  0  0  0  0  0  0  0
   17.9687   18.2062   20.2333 C   0  0  0  0  0  0  0  0  0  0  0  0
   18.1329   18.6584   24.0146 H   0  0  0  0  0  0  0  0  0  0  0  0
   16.1739   20.1634   23.9195 H   0  0  0  0  0  0  0  0  0  0  0  0
   15.4468   20.5044   22.4153 H   0  0  0  0  0  0  0  0  0  0  0  0
   20.8569   25.3040   21.0040 N   0  0  0  0  0  0  0  0  0  0  0  0
   21.7380   24.5064   21.6453 C   0  0  0  0  0  0  0  0  0  0  0  0
   21.2964   24.2122   22.9162 N   0  0  0  0  0  0  0  0  0  0  0  0
   20.0804   24.8639   23.0779 C   0  0  0  0  0  0  0  0  0  0  0  0
   19.0811   24.9819   24.1443 C   0  0  0  0  0  0  0  0  0  0  0  0
   19.3242   24.3050   25.3653 O   0  0  0  0  0  0  0  0  0  0  0  0
   17.9447   25.7388   23.9320 N   0  0  0  0  0  0  0  0  0  0  0  0
   17.7297   26.4183   22.6588 C   0  0  0  0  0  0  0  0  0  0  0  0
   16.5504   27.2127   22.4074 N   0  0  0  0  0  0  0  0  0  0  0  0
   18.6534   26.3124   21.6534 N   0  0  0  0  0  0  0  0  0  0  0  0
   19.8109   25.5599   21.8428 C   0  0  0  0  0  0  0  0  0  0  0  0
   17.2731   25.8205   24.6473 H   0  0  0  0  0  0  0  0  0  0  0  0
   15.8648   27.3112   23.1070 H   0  0  0  0  0  0  0  0  0  0  0  0
   16.4318   27.6558   21.5362 H   0  0  0  0  0  0  0  0  0  0  0  0
  1  2  1  0  0  0
  3  1  2  0  0  0
  4  1  1  0  0  0
  5  4  1  0  0  0
  6  7  1  0  0  0
  6  5  1  0  0  0
  8  6  1  0  0  0
  9 13  1  0  0  0
  9  8  1  0  0  0
 10  8  1  0  0  0
 10 12  1  0  0  0
 11 10  1  0  0  0
 12  7  1  0  0  0
 12 29  1  0  0  0
 29 39  1  0  0  0
 29 30  1  0  0  0
 30 31  2  0  0  0
 32 31  1  0  0  0
 32 33  1  0  0  0
 33 34  2  0  0  0
 35 33  1  0  0  0
 36 35  1  0  0  0
 37 36  1  0  0  0
 38 36  2  0  0  0
 38 39  1  0  0  0
 39 32  2  0  0  0
 13 14  1  0  0  0
 13 16  1  0  0  0
 15 13  2  0  0  0
 17 16  1  0  0  0
 17 18  1  0  0  0
 18 19  1  0  0  0
 18 20  1  0  0  0
 19 24  1  0  0  0
 20 22  1  0  0  0
 21 20  1  0  0  0
 21  1  1  0  0  0
 22 23  1  0  0  0
 24 22  1  0  0  0
 24 43  1  0  0  0
 43 53  1  0  0  0
 44 45  2  0  0  0
 44 43  1  0  0  0
 45 46  1  0  0  0
 46 53  2  0  0  0
 46 47  1  0  0  0
 47 48  2  0  0  0
 47 49  1  0  0  0
 50 49  1  0  0  0
 50 51  1  0  0  0
 52 50  2  0  0  0
 53 52  1  0  0  0
  2 25  1  0  0  0
 11 26  1  0  0  0
 35 40  1  0  0  0
 37 41  1  0  0  0
 37 42  1  0  0  0
 14 27  1  0  0  0
 23 28  1  0  0  0
 49 54  1  0  0  0
 51 55  1  0  0  0
 51 56  1  0  0  0
M  END
> <minimizedAffinity>
-12.41914

$$$$
4F5Y_C2E_A_402


 56 62  0  0  0  0  0  0  0  0999 V2000
   20.8747   23.0207   20.5660 P   0  0  0  0  0  0  0  0  0  0  0  0
   21.1932   23.2330   19.0436 O   0  0  0  0  0  0  0  0  0  0  0  0
   22.0854   23.5675   21.3589 O   0  0  0  0  0  0  0  0  0  0  0  0
   19.5944   23.8591   20.9352 O   0  0  0  0  0  0  0  0  0  0  0  0
   19.2741   23.9497   22.3087 C   0  0  0  0  0  0  0  0  0  0  0  0
   17.8388   24.4721   22.4640 C   0  0  0  0  0  0  0  0  0  0  0  0
   17.8367   25.8808   22.2730 O   0  0  0  0  0  0  0  0  0  0  0  0
   16.7776   23.9507   21.5231 C   0  0  0  0  0  0  0  0  0  0  0  0
   16.2341   22.7623   22.0095 O   0  0  0  0  0  0  0  0  0  0  0  0
   15.8025   25.0426   21.5328 C   0  0  0  0  0  0  0  0  0  0  0  0
   15.0353   25.0359   22.6960 O   0  0  0  0  0  0  0  0  0  0  0  0
   16.6915   26.2624   21.5194 C   0  0  0  0  0  0  0  0  0  0  0  0
   15.8196   21.5527   21.0837 P   0  0  0  0  0  0  0  0  0  0  0  0
   14.9596   20.5904   21.9094 O   0  0  0  0  0  0  0  0  0  0  0  0
   15.0378   22.0605   19.8457 O   0  0  0  0  0  0  0  0  0  0  0  0
   17.1401   20.8037   20.6095 O   0  0  0  0  0  0  0  0  0  0  0  0
   17.8983   20.0177   21.5335 C   0  0  0  0  0  0  0  0  0  0  0  0
   19.1874   19.5970   20.8356 C   0  0  0  0  0  0  0  0  0  0  0  0
   18.9522   18.6254   19.8766 O   0  0  0  0  0  0  0  0  0  0  0  0
   19.8311   20.7211   20.1162 C   0  0  0  0  0  0  0  0  0  0  0  0
   20.6120   21.4884   20.9117 O   0  0  0  0  0  0  0  0  0  0  0  0
   20.6741   19.9428   19.1428 C   0  0  0  0  0  0  0  0  0  0  0  0
   21.9031   19.5229   19.6724 O   0  0  0  0  0  0  0  0  0  0  0  0
   19.8043   18.8079   18.7800 C   0  0  0  0  0  0  0  0  0  0  0  0
   21.3466   24.1756   18.8737 H   0  0  0  0  0  0  0  0  0  0  0  0
   15.6193   25.0861   23.4688 H   0  0  0  0  0  0  0  0  0  0  0  0
   15.4649   20.2838   22.6784 H   0  0  0  0  0  0  0  0  0  0  0  0
   21.7464   18.9672   20.4518 H   0  0  0  0  0  0  0  0  0  0  0  0
   16.9336   26.6972   20.1627 N   0  0  0  0  0  0  0  0  0  0  0  0
   18.0064   26.4026   19.3528 C   0  0  0  0  0  0  0  0  0  0  0  0
   17.8612   27.0031   18.1299 N   0  0  0  0  0  0  0  0  0  0  0  0
   16.6366   27.7236   18.1464 C   0  0  0  0  0  0  0  0  0  0  0  0
   15.9043   28.5563   17.2309 C   0  0  0  0  0  0  0  0  0  0  0  0
   16.3832   28.8026   15.9662 O   0  0  0  0  0  0  0  0  0  0  0  0
   14.6677   29.1365   17.6103 N   0  0  0  0  0  0  0  0  0  0  0  0
   14.1445   28.9089   18.8994 C   0  0  0  0  0  0  0  0  0  0  0  0
   12.8871   29.5115   19.2862 N   0  0  0  0  0  0  0  0  0  0  0  0
   14.8304   28.1149   19.7899 N   0  0  0  0  0  0  0  0  0  0  0  0
   16.0568   27.5141   19.4630 C   0  0  0  0  0  0  0  0  0  0  0  0
   14.1731   29.6997   16.9720 H   0  0  0  0  0  0  0  0  0  0  0  0
   12.3967   30.0795   18.6488 H   0  0  0  0  0  0  0  0  0  0  0  0
   12.5220   29.3536   20.1867 H   0  0  0  0  0  0  0  0  0  0  0  0
   19.0681   19.2030   17.6228 N   0  0  0  0  0  0  0  0  0  0  0  0
   19.4739   20.0159   16.6238 C   0  0  0  0  0  0  0  0  0  0  0  0
   18.4959   20.1337   15.6612 N   0  0  0  0  0  0  0  0  0  0  0  0
   17.4277   19.3499   16.0784 C   0  0  0  0  0  0  0  0  0  0  0  0
   16.0942   19.0244   15.5629 C   0  0  0  0  0  0  0  0  0  0  0  0
   15.6981   19.5949   14.3277 O   0  0  0  0  0  0  0  0  0  0  0  0
   15.2712   18.1825   16.2863 N   0  0  0  0  0  0  0  0  0  0  0  0
   15.7152   17.6176   17.5563 C   0  0  0  0  0  0  0  0  0  0  0  0
   14.8757   16.7383   18.3354 N   0  0  0  0  0  0  0  0  0  0  0  0
   16.9567   17.9173   18.0506 N   0  0  0  0  0  0  0  0  0  0  0  0
   17.8089   18.7594   17.3387 C   0  0  0  0  0  0  0  0  0  0  0  0
   14.3761   17.9615   15.9413 H   0  0  0  0  0  0  0  0  0  0  0  0
   13.9769   16.5008   18.0112 H   0  0  0  0  0  0  0  0  0  0  0  0
   15.2020   16.3762   19.1908 H   0  0  0  0  0  0  0  0  0  0  0  0
  1  2  1  0  0  0
  3  1  2  0  0  0
  4  1  1  0  0  0
  5  4  1  0  0  0
  6  7  1  0  0  0
  6  5  1  0  0  0
  8  6  1  0  0  0
  9 13  1  0  0  0
  9  8  1  0  0  0
 10  8  1  0  0  0
 10 12  1  0  0  0
 11 10  1  0  0  0
 12  7  1  0  0  0
 12 29  1  0  0  0
 29 39  1  0  0  0
 29 30  1  0  0  0
 30 31  2  0  0  0
 32 31  1  0  0  0
 32 33  1  0  0  0
 33 34  2  0  0  0
 35 33  1  0  0  0
 36 35  1  0  0  0
 37 36  1  0  0  0
 38 36  2  0  0  0
 38 39  1  0  0  0
 39 32  2  0  0  0
 13 14  1  0  0  0
 13 16  1  0  0  0
 15 13  2  0  0  0
 17 16  1  0  0  0
 17 18  1  0  0  0
 18 19  1  0  0  0
 18 20  1  0  0  0
 19 24  1  0  0  0
 20 22  1  0  0  0
 21 20  1  0  0  0
 21  1  1  0  0  0
 22 23  1  0  0  0
 24 22  1  0  0  0
 24 43  1  0  0  0
 43 53  1  0  0  0
 44 45  2  0  0  0
 44 43  1  0  0  0
 45 46  1  0  0  0
 46 53  2  0  0  0
 46 47  1  0  0  0
 47 48  2  0  0  0
 47 49  1  0  0  0
 50 49  1  0  0  0
 50 51  1  0  0  0
 52 50  2  0  0  0
 53 52  1  0  0  0
  2 25  1  0  0  0
 11 26  1  0  0  0
 35 40  1  0  0  0
 37 41  1  0  0  0
 37 42  1  0  0  0
 14 27  1  0  0  0
 23 28  1  0  0  0
 49 54  1  0  0  0
 51 55  1  0  0  0
 51 56  1  0  0  0
M  END
> <minimizedAffinity>
-12.35207

$$$$
4F5Y_C2E_A_402


 56 62  0  0  0  0  0  0  0  0999 V2000
   16.1586   20.0053   17.7859 P   0  0  0  0  0  0  0  0  0  0  0  0
   16.7198   21.4133   17.3777 O   0  0  0  0  0  0  0  0  0  0  0  0
   15.0016   19.6827   16.8109 O   0  0  0  0  0  0  0  0  0  0  0  0
   17.2995   18.9357   17.6052 O   0  0  0  0  0  0  0  0  0  0  0  0
   16.9199   17.5804   17.7339 C   0  0  0  0  0  0  0  0  0  0  0  0
   18.1760   16.7122   17.8935 C   0  0  0  0  0  0  0  0  0  0  0  0
   18.7720   16.5229   16.6167 O   0  0  0  0  0  0  0  0  0  0  0  0
   19.2947   17.2201   18.7731 C   0  0  0  0  0  0  0  0  0  0  0  0
   19.0691   16.8676   20.1033 O   0  0  0  0  0  0  0  0  0  0  0  0
   20.4570   16.5281   18.2134 C   0  0  0  0  0  0  0  0  0  0  0  0
   20.5017   15.1937   18.6122 O   0  0  0  0  0  0  0  0  0  0  0  0
   20.1881   16.6047   16.7300 C   0  0  0  0  0  0  0  0  0  0  0  0
   19.4193   17.8066   21.3230 P   0  0  0  0  0  0  0  0  0  0  0  0
   19.3619   16.9686   22.6044 O   0  0  0  0  0  0  0  0  0  0  0  0
   20.8257   18.4312   21.1401 O   0  0  0  0  0  0  0  0  0  0  0  0
   18.3292   18.9621   21.4005 O   0  0  0  0  0  0  0  0  0  0  0  0
   16.9951   18.6716   21.8276 C   0  0  0  0  0  0  0  0  0  0  0  0
   16.1556   19.9263   21.6115 C   0  0  0  0  0  0  0  0  0  0  0  0
   16.4635   20.9094   22.5378 O   0  0  0  0  0  0  0  0  0  0  0  0
   16.3916   20.5402   20.2838 C   0  0  0  0  0  0  0  0  0  0  0  0
   15.6548   19.9798   19.2966 O   0  0  0  0  0  0  0  0  0  0  0  0
   15.9147   21.9386   20.5684 C   0  0  0  0  0  0  0  0  0  0  0  0
   14.5269   22.0971   20.4416 O   0  0  0  0  0  0  0  0  0  0  0  0
   16.3813   22.1768   21.9474 C   0  0  0  0  0  0  0  0  0  0  0  0
   17.0155   21.3881   16.4542 H   0  0  0  0  0  0  0  0  0  0  0  0
   19.6778   14.7514   18.3544 H   0  0  0  0  0  0  0  0  0  0  0  0
   18.4756   16.5866   22.7015 H   0  0  0  0  0  0  0  0  0  0  0  0
   14.0754   21.4915   21.0502 H   0  0  0  0  0  0  0  0  0  0  0  0
   20.8090   17.7801   16.1633 N   0  0  0  0  0  0  0  0  0  0  0  0
   20.2001   18.9158   15.6807 C   0  0  0  0  0  0  0  0  0  0  0  0
   21.1386   19.8078   15.2329 N   0  0  0  0  0  0  0  0  0  0  0  0
   22.4183   19.2232   15.4322 C   0  0  0  0  0  0  0  0  0  0  0  0
   23.7850   19.5962   15.1853 C   0  0  0  0  0  0  0  0  0  0  0  0
   24.0923   20.8126   14.6238 O   0  0  0  0  0  0  0  0  0  0  0  0
   24.8470   18.7196   15.5222 N   0  0  0  0  0  0  0  0  0  0  0  0
   24.5723   17.4625   16.0980 C   0  0  0  0  0  0  0  0  0  0  0  0
   25.6586   16.5666   16.4308 N   0  0  0  0  0  0  0  0  0  0  0  0
   23.2708   17.0874   16.3422 N   0  0  0  0  0  0  0  0  0  0  0  0
   22.1833   17.9194   16.0307 C   0  0  0  0  0  0  0  0  0  0  0  0
   25.7787   18.9894   15.3537 H   0  0  0  0  0  0  0  0  0  0  0  0
   26.5895   16.8353   16.2560 H   0  0  0  0  0  0  0  0  0  0  0  0
   25.4670   15.6882   16.8320 H   0  0  0  0  0  0  0  0  0  0  0  0
   17.6720   22.7785   21.8504 N   0  0  0  0  0  0  0  0  0  0  0  0
   18.8676   22.1575   21.7586 C   0  0  0  0  0  0  0  0  0  0  0  0
   19.8882   23.0755   21.6467 N   0  0  0  0  0  0  0  0  0  0  0  0
   19.2987   24.3331   21.6642 C   0  0  0  0  0  0  0  0  0  0  0  0
   19.7702   25.7197   21.5943 C   0  0  0  0  0  0  0  0  0  0  0  0
   21.1633   25.9457   21.4668 O   0  0  0  0  0  0  0  0  0  0  0  0
   18.8558   26.7539   21.6546 N   0  0  0  0  0  0  0  0  0  0  0  0
   17.4290   26.4794   21.7891 C   0  0  0  0  0  0  0  0  0  0  0  0
   16.4512   27.5396   21.8585 N   0  0  0  0  0  0  0  0  0  0  0  0
   16.9764   25.1889   21.8598 N   0  0  0  0  0  0  0  0  0  0  0  0
   17.8765   24.1270   21.7959 C   0  0  0  0  0  0  0  0  0  0  0  0
   19.1702   27.6856   21.6064 H   0  0  0  0  0  0  0  0  0  0  0  0
   16.7401   28.4796   21.8108 H   0  0  0  0  0  0  0  0  0  0  0  0
   15.4956   27.3225   21.9534 H   0  0  0  0  0  0  0  0  0  0  0  0
  1  2  1  0  0  0
  3  1  2  0  0  0
  4  1  1  0  0  0
  5  4  1  0  0  0
  6  7  1  0  0  0
  6  5  1  0  0  0
  8  6  1  0  0  0
  9 13  1  0  0  0
  9  8  1  0  0  0
 10  8  1  0  0  0
 10 12  1  0  0  0
 11 10  1  0  0  0
 12  7  1  0  0  0
 12 29  1  0  0  0
 29 39  1  0  0  0
 29 30  1  0  0  0
 30 31  2  0  0  0
 32 31  1  0  0  0
 32 33  1  0  0  0
 33 34  2  0  0  0
 35 33  1  0  0  0
 36 35  1  0  0  0
 37 36  1  0  0  0
 38 36  2  0  0  0
 38 39  1  0  0  0
 39 32  2  0  0  0
 13 14  1  0  0  0
 13 16  1  0  0  0
 15 13  2  0  0  0
 17 16  1  0  0  0
 17 18  1  0  0  0
 18 19  1  0  0  0
 18 20  1  0  0  0
 19 24  1  0  0  0
 20 22  1  0  0  0
 21 20  1  0  0  0
 21  1  1  0  0  0
 22 23  1  0  0  0
 24 22  1  0  0  0
 24 43  1  0  0  0
 43 53  1  0  0  0
 44 45  2  0  0  0
 44 43  1  0  0  0
 45 46  1  0  0  0
 46 53  2  0  0  0
 46 47  1  0  0  0
 47 48  2  0  0  0
 47 49  1  0  0  0
 50 49  1  0  0  0
 50 51  1  0  0  0
 52 50  2  0  0  0
 53 52  1  0  0  0
  2 25  1  0  0  0
 11 26  1  0  0  0
 35 40  1  0  0  0
 37 41  1  0  0  0
 37 42  1  0  0  0
 14 27  1  0  0  0
 23 28  1  0  0  0
 49 54  1  0  0  0
 51 55  1  0  0  0
 51 56  1  0  0  0
M  END
> <minimizedAffinity>
-11.82916

$$$$
