4F5Y_C2E_A_402
  RCSB PDB12061712293D
Coordinates from PDB:4F5Y:A:402 Model:1 without hydrogens
 46 52  0  0  0  0            999 V2000
   20.1830   20.0320   21.1420   P 0  0  0  0  0  0  0  0  0  0  0  0
   20.2840   19.4130   19.7030   O 0  0  0  0  0  0  0  0  0  0  0  0
   21.3250   19.4100   21.9800   O 0  0  0  0  0  0  0  0  0  0  0  0
   20.4060   21.5870   21.0390   O 0  0  0  0  0  0  0  0  0  0  0  0
   20.5490   22.2860   22.2590   C 0  0  0  0  0  0  0  0  0  0  0  0
   20.3920   23.7920   22.0050   C 0  0  0  0  0  0  0  0  0  0  0  0
   21.6050   24.2980   21.4630   O 0  0  0  0  0  0  0  0  0  0  0  0
   19.3170   24.2520   21.0480   C 0  0  0  0  0  0  0  0  0  0  0  0
   18.0990   24.3930   21.7120   O 0  0  0  0  0  0  0  0  0  0  0  0
   19.8460   25.5400   20.5960   C 0  0  0  0  0  0  0  0  0  0  0  0
   19.6720   26.5330   21.5580   O 0  0  0  0  0  0  0  0  0  0  0  0
   21.3170   25.2410   20.4370   C 0  0  0  0  0  0  0  0  0  0  0  0
   21.6050   24.8230   19.0840   N 0  0  0  0  0  0  0  0  0  0  0  0
   21.5310   23.5570   18.5500   C 0  0  0  0  0  0  0  0  0  0  0  0
   21.8790   23.5760   17.2250   N 0  0  0  0  0  0  0  0  0  0  0  0
   22.1960   24.9180   16.8820   C 0  0  0  0  0  0  0  0  0  0  0  0
   22.6320   25.6180   15.7040   C 0  0  0  0  0  0  0  0  0  0  0  0
   22.8260   24.9490   14.5190   O 0  0  0  0  0  0  0  0  0  0  0  0
   22.8650   27.0160   15.7370   N 0  0  0  0  0  0  0  0  0  0  0  0
   22.6790   27.7370   16.9340   C 0  0  0  0  0  0  0  0  0  0  0  0
   22.9280   29.1620   16.9660   N 0  0  0  0  0  0  0  0  0  0  0  0
   22.2620   27.0850   18.0720   N 0  0  0  0  0  0  0  0  0  0  0  0
   22.0140   25.7030   18.0920   C 0  0  0  0  0  0  0  0  0  0  0  0
   16.7080   24.0190   21.0660   P 0  0  0  0  0  0  0  0  0  0  0  0
   15.5990   24.6210   21.9350   O 0  0  0  0  0  0  0  0  0  0  0  0
   16.6210   24.5590   19.6160   O 0  0  0  0  0  0  0  0  0  0  0  0
   16.5660   22.4350   21.0540   O 0  0  0  0  0  0  0  0  0  0  0  0
   16.3500   21.7180   22.2730   C 0  0  0  0  0  0  0  0  0  0  0  0
   16.4500   20.2290   21.9590   C 0  0  0  0  0  0  0  0  0  0  0  0
   15.3440   19.7830   21.2540   O 0  0  0  0  0  0  0  0  0  0  0  0
   17.6210   19.9100   21.1090   C 0  0  0  0  0  0  0  0  0  0  0  0
   18.7660   19.7520   21.8130   O 0  0  0  0  0  0  0  0  0  0  0  0
   17.1650   18.5930   20.5420   C 0  0  0  0  0  0  0  0  0  0  0  0
   17.4230   17.4990   21.3810   O 0  0  0  0  0  0  0  0  0  0  0  0
   15.7210   18.8040   20.3260   C 0  0  0  0  0  0  0  0  0  0  0  0
   15.5670   19.2820   18.9900   N 0  0  0  0  0  0  0  0  0  0  0  0
   15.6910   20.5520   18.5480   C 0  0  0  0  0  0  0  0  0  0  0  0
   15.5040   20.6160   17.1850   N 0  0  0  0  0  0  0  0  0  0  0  0
   15.2560   19.3190   16.7540   C 0  0  0  0  0  0  0  0  0  0  0  0
   14.9710   18.6710   15.4700   C 0  0  0  0  0  0  0  0  0  0  0  0
   14.9220   19.4820   14.3090   O 0  0  0  0  0  0  0  0  0  0  0  0
   14.7600   17.3060   15.4280   N 0  0  0  0  0  0  0  0  0  0  0  0
   14.8160   16.5060   16.6470   C 0  0  0  0  0  0  0  0  0  0  0  0
   14.5960   15.0790   16.6340   N 0  0  0  0  0  0  0  0  0  0  0  0
   15.0770   17.1000   17.8530   N 0  0  0  0  0  0  0  0  0  0  0  0
   15.2990   18.4740   17.9230   C 0  0  0  0  0  0  0  0  0  0  0  0
  1  2  1  0  0  0  0
  3  1  2  0  0  0  0
  4  1  1  0  0  0  0
  5  4  1  0  0  0  0
  6  7  1  0  0  0  0
  6  5  1  0  0  0  0
  8  6  1  0  0  0  0
  9 24  1  0  0  0  0
  9  8  1  0  0  0  0
 10  8  1  0  0  0  0
 10 12  1  0  0  0  0
 11 10  1  0  0  0  0
 12  7  1  0  0  0  0
 12 13  1  0  0  0  0
 13 23  1  0  0  0  0
 13 14  1  0  0  0  0
 14 15  2  0  0  0  0
 16 15  1  0  0  0  0
 16 17  1  0  0  0  0
 17 18  2  0  0  0  0
 19 17  1  0  0  0  0
 20 19  1  0  0  0  0
 21 20  1  0  0  0  0
 22 20  2  0  0  0  0
 22 23  1  0  0  0  0
 23 16  2  0  0  0  0
 24 25  1  0  0  0  0
 24 27  1  0  0  0  0
 26 24  2  0  0  0  0
 28 27  1  0  0  0  0
 28 29  1  0  0  0  0
 29 30  1  0  0  0  0
 29 31  1  0  0  0  0
 30 35  1  0  0  0  0
 31 33  1  0  0  0  0
 32 31  1  0  0  0  0
 32  1  1  0  0  0  0
 33 34  1  0  0  0  0
 35 33  1  0  0  0  0
 35 36  1  0  0  0  0
 36 46  1  0  0  0  0
 37 38  2  0  0  0  0
 37 36  1  0  0  0  0
 38 39  1  0  0  0  0
 39 46  2  0  0  0  0
 39 40  1  0  0  0  0
 40 41  2  0  0  0  0
 40 42  1  0  0  0  0
 43 42  1  0  0  0  0
 43 44  1  0  0  0  0
 45 43  2  0  0  0  0
 46 45  1  0  0  0  0
A    1
P1
A    2
O2P
A    3
O1P
A    4
O5'
A    5
C5'
A    6
C4'
A    7
O4'
A    8
C3'
A    9
O3'
A   10
C2'
A   11
O2'
A   12
C1'
A   13
N9
A   14
C8
A   15
N7
A   16
C5
A   17
C6
A   18
O6
A   19
N1
A   20
C2
A   21
N2
A   22
N3
A   23
C4
A   24
P11
A   25
O21
A   26
O11
A   27
O5A
A   28
C5A
A   29
C4A
A   30
O4A
A   31
C3A
A   32
O3A
A   33
C2A
A   34
O2A
A   35
C1A
A   36
N91
A   37
C81
A   38
N71
A   39
C51
A   40
C61
A   41
O61
A   42
N11
A   43
C21
A   44
N21
A   45
N31
A   46
C41
M  END
>  <InstanceId>
4F5Y_C2E_A_402

>  <ChemCompId>
C2E

>  <PdbId>
4F5Y

>  <ChainId>
A

>  <ResidueNumber>
402

>  <InsertionCode>


>  <Model>
1

>  <AltIds>


>  <MissingHeavyAtoms>
0

>  <ObservedFormula>
C20 N10 O14 P2

>  <Name>
9,9'-[(2R,3R,3aS,5S,7aR,9R,10R,10aS,12S,14aR)-3,5,10,12-tetrahydroxy-5,12-dioxidooctahydro-2H,7H-difuro[3,2-d:3',2'-j][1,3,7,9,2,8]tetraoxadiphosphacyclododecine-2,9-diyl]bis(2-amino-1,9-dihydro-6H-purin-6-one)

>  <SystematicName>


>  <Synonyms>
c-di-GMP, Cyclic diguanosine monophosphate

>  <Type>
NON-POLYMER

>  <Formula>
C20 H24 N10 O14 P2

>  <MolecularWeight>
690.411

>  <ModifiedDate>
2011-06-04

>  <Parent>


>  <OneLetterCode>


>  <SubcomponentList>


>  <AmbiguousFlag>
N

>  <InChI>
InChI=1S/C20H24N10O14P2/c21-19-25-13-7(15(33)27-19)23-3-29(13)17-9(31)11-5(41-17)1-39-45(35,36)44-12-6(2-40-46(37,38)43-11)42-18(10(12)32)30-4-24-8-14(30)26-20(22)28-16(8)34/h3-6,9-12,17-18,31-32H,1-2H2,(H,35,36)(H,37,38)(H3,21,25,27,33)(H3,22,26,28,34)/t5-,6-,9-,10-,11-,12-,17-,18-/m1/s1

>  <InChIKey>
PKFDLKSEZWEFGL-MHARETSRSA-N

>  <SMILES>
c1nc2c(n1[C@H]3[C@@H]([C@H]4[C@H](O3)CO[P@@](=O)(O[C@@H]5[C@@H](CO[P@@](=O)(O4)O)O[C@H]([C@@H]5O)n6cnc7c6N=C(NC7=O)N)O)O)N=C(NC2=O)N

$$$$
