3PE1_3NG_A_338
  RCSB PDB12061710153D
Coordinates from PDB:3PE1:A:338 Model:1 without hydrogens
 25 28  0  0  0  0            999 V2000
   22.8240  -31.1000   13.9140   C 0  0  0  0  0  0  0  0  0  0  0  0
   22.9680  -30.9530   12.5510   C 0  0  0  0  0  0  0  0  0  0  0  0
   23.0140  -32.1010   11.7110   C 0  0  0  0  0  0  0  0  0  0  0  0
   22.9010  -33.3760   12.2760   C 0  0  0  0  0  0  0  0  0  0  0  0
   22.7470  -33.5340   13.6650   C 0  0  0  0  0  0  0  0  0  0  0  0
   22.7120  -32.4030   14.4840   C 0  0  0  0  0  0  0  0  0  0  0  0
   23.0290  -28.5330   12.8630   C 0  0  0  0  0  0  0  0  0  0  0  0
   23.0820  -29.6040   11.9900   C 0  0  0  0  0  0  0  0  0  0  0  0
   22.7630  -29.9970   14.7610   N 0  0  0  0  0  0  0  0  0  0  0  0
   22.8630  -28.7490   14.2670   C 0  0  0  0  0  0  0  0  0  0  0  0
   23.2860  -27.0390   10.9500   C 0  0  0  0  0  0  0  0  0  0  0  0
   23.3340  -28.1060   10.1210   N 0  0  0  0  0  0  0  0  0  0  0  0
   23.2310  -29.3630   10.5980   C 0  0  0  0  0  0  0  0  0  0  0  0
   23.1340  -27.2130   12.3230   C 0  0  0  0  0  0  0  0  0  0  0  0
   22.7820  -27.5810   15.0880   N 0  0  0  0  0  0  0  0  0  0  0  0
   22.6370  -27.5510   16.5100   C 0  0  0  0  0  0  0  0  0  0  0  0
   23.0770  -28.5820   17.3350   C 0  0  0  0  0  0  0  0  0  0  0  0
   22.9160  -28.4710   18.7120   C 0  0  0  0  0  0  0  0  0  0  0  0
   22.3210  -27.3460   19.2560   C 0  0  0  0  0  0  0  0  0  0  0  0
   21.8940  -26.3220   18.4330   C 0  0  0  0  0  0  0  0  0  0  0  0
   22.0500  -26.4220   17.0650   C 0  0  0  0  0  0  0  0  0  0  0  0
   23.4190  -29.7360   19.7820  Cl 0  0  0  0  0  0  0  0  0  0  0  0
   22.5630  -34.9060   14.2460   C 0  0  0  0  0  0  0  0  0  0  0  0
   22.7240  -34.9030   15.4900   O 0  0  0  0  0  0  0  0  0  0  0  0
   22.1500  -35.6830   13.3550   O 0  0  0  0  0  0  0  0  0  0  0  0
  1  2  2  0  0  0  0
  1  9  1  0  0  0  0
  1  6  1  0  0  0  0
  2  3  1  0  0  0  0
  8  2  1  0  0  0  0
  3  4  2  0  0  0  0
  4  5  1  0  0  0  0
  5  6  2  0  0  0  0
  5 23  1  0  0  0  0
 14  7  1  0  0  0  0
 10  7  1  0  0  0  0
  7  8  2  0  0  0  0
  8 13  1  0  0  0  0
 10  9  2  0  0  0  0
 15 10  1  0  0  0  0
 14 11  2  0  0  0  0
 11 12  1  0  0  0  0
 12 13  2  0  0  0  0
 16 15  1  0  0  0  0
 21 16  2  0  0  0  0
 16 17  1  0  0  0  0
 18 17  2  0  0  0  0
 19 18  1  0  0  0  0
 18 22  1  0  0  0  0
 20 19  2  0  0  0  0
 20 21  1  0  0  0  0
 24 23  2  0  0  0  0
 23 25  1  0  0  0  0
A    1
C1
A    2
C2
A    3
C3
A    4
C4
A    5
C5
A    6
C6
A    7
C7
A    8
C8
A    9
N9
A   10
C10
A   11
C11
A   12
N12
A   13
C13
A   14
C14
A   15
N15
A   16
C16
A   17
C17
A   18
C18
A   19
C19
A   20
C20
A   21
C21
A   22
CL22
A   23
C23
A   24
O24
A   25
O25
M  END
>  <InstanceId>
3PE1_3NG_A_338

>  <ChemCompId>
3NG

>  <PdbId>
3PE1

>  <ChainId>
A

>  <ResidueNumber>
338

>  <InsertionCode>


>  <Model>
1

>  <AltIds>


>  <MissingHeavyAtoms>
0

>  <ObservedFormula>
C19 N3 O2 Cl

>  <Name>
5-[(3-chlorophenyl)amino]benzo[c][2,6]naphthyridine-8-carboxylic acid

>  <SystematicName>
5-[(3-chlorophenyl)amino]benzo[c][2,6]naphthyridine-8-carboxylic acid

>  <Synonyms>


>  <Type>
NON-POLYMER

>  <Formula>
C19 H12 Cl N3 O2

>  <MolecularWeight>
349.77

>  <ModifiedDate>
2011-06-04

>  <Parent>


>  <OneLetterCode>


>  <SubcomponentList>


>  <AmbiguousFlag>
N

>  <InChI>
InChI=1S/C19H12ClN3O2/c20-12-2-1-3-13(9-12)22-18-15-6-7-21-10-16(15)14-5-4-11(19(24)25)8-17(14)23-18/h1-10H,(H,22,23)(H,24,25)

>  <InChIKey>
MUOKSQABCJCOPU-UHFFFAOYSA-N

>  <SMILES>
c1cc(cc(c1)Cl)Nc2c3ccncc3c4ccc(cc4n2)C(=O)O

$$$$
