3PE1_3NG_A_338


 27 30  0  0  0  0  0  0  0  0999 V2000
   22.9024  -31.2906   13.7748 C   0  0  0  0  0  0  0  0  0  0  0  0
   22.9502  -30.9874   12.4310 C   0  0  0  0  0  0  0  0  0  0  0  0
   22.8804  -32.0279   11.4624 C   0  0  0  0  0  0  0  0  0  0  0  0
   22.7520  -33.3562   11.8827 C   0  0  0  0  0  0  0  0  0  0  0  0
   22.6956  -33.6731   13.2518 C   0  0  0  0  0  0  0  0  0  0  0  0
   22.7740  -32.6474   14.1968 C   0  0  0  0  0  0  0  0  0  0  0  0
   23.1451  -28.6258   13.0160 C   0  0  0  0  0  0  0  0  0  0  0  0
   23.0834  -29.5862   12.0231 C   0  0  0  0  0  0  0  0  0  0  0  0
   22.9557  -30.2951   14.7463 N   0  0  0  0  0  0  0  0  0  0  0  0
   23.0753  -29.0016   14.3942 C   0  0  0  0  0  0  0  0  0  0  0  0
   23.3258  -26.9246   11.2750 C   0  0  0  0  0  0  0  0  0  0  0  0
   23.2626  -27.8861   10.3266 N   0  0  0  0  0  0  0  0  0  0  0  0
   23.1383  -29.1864   10.6611 C   0  0  0  0  0  0  0  0  0  0  0  0
   23.2695  -27.2555   12.6263 C   0  0  0  0  0  0  0  0  0  0  0  0
   22.4932  -35.0969   13.6824 C   0  0  0  0  0  0  0  0  0  0  0  0
   22.7663  -35.2524   14.8968 O   0  0  0  0  0  0  0  0  0  0  0  0
   21.9609  -35.7417   12.7501 O   0  0  0  0  0  0  0  0  0  0  0  0
   21.8854  -35.3581   11.8986 H   0  0  0  0  0  0  0  0  0  0  0  0
   23.1097  -27.9377   15.3491 N   0  0  0  0  0  0  0  0  0  0  0  0
   23.3252  -27.0404   15.0060 H   0  0  0  0  0  0  0  0  0  0  0  0
   22.8620  -28.0483   16.7528 C   0  0  0  0  0  0  0  0  0  0  0  0
   22.9530  -29.2540   17.4421 C   0  0  0  0  0  0  0  0  0  0  0  0
   22.7144  -29.2773   18.8121 C   0  0  0  0  0  0  0  0  0  0  0  0
   22.3868  -28.1117   19.4827 C   0  0  0  0  0  0  0  0  0  0  0  0
   22.3064  -26.9164   18.7950 C   0  0  0  0  0  0  0  0  0  0  0  0
   22.5423  -26.8824   17.4352 C   0  0  0  0  0  0  0  0  0  0  0  0
   22.7858  -30.7541   19.7133 Cl  0  0  0  0  0  0  0  0  0  0  0  0
  1  2  2  0  0  0
  1  9  1  0  0  0
  1  6  1  0  0  0
  2  3  1  0  0  0
  8  2  1  0  0  0
  3  4  2  0  0  0
  4  5  1  0  0  0
  5  6  2  0  0  0
  5 15  1  0  0  0
 14  7  1  0  0  0
 10  7  1  0  0  0
  7  8  2  0  0  0
  8 13  1  0  0  0
 10  9  2  0  0  0
 19 10  1  0  0  0
 14 11  2  0  0  0
 11 12  1  0  0  0
 12 13  2  0  0  0
 21 19  1  0  0  0
 26 21  2  0  0  0
 21 22  1  0  0  0
 23 22  2  0  0  0
 24 23  1  0  0  0
 23 27  1  0  0  0
 25 24  2  0  0  0
 25 26  1  0  0  0
 16 15  2  0  0  0
 15 17  1  0  0  0
 19 20  1  0  0  0
 17 18  1  0  0  0
M  END
> <minimizedAffinity>
-11.18696

$$$$
3PE1_3NG_A_338


 27 30  0  0  0  0  0  0  0  0999 V2000
   22.8697  -31.1225   13.9493 C   0  0  0  0  0  0  0  0  0  0  0  0
   22.9438  -30.9801   12.5802 C   0  0  0  0  0  0  0  0  0  0  0  0
   22.9245  -32.1299   11.7417 C   0  0  0  0  0  0  0  0  0  0  0  0
   22.8189  -33.4019   12.3150 C   0  0  0  0  0  0  0  0  0  0  0  0
   22.7361  -33.5551   13.7106 C   0  0  0  0  0  0  0  0  0  0  0  0
   22.7648  -32.4225   14.5276 C   0  0  0  0  0  0  0  0  0  0  0  0
   23.0646  -28.5611   12.8828 C   0  0  0  0  0  0  0  0  0  0  0  0
   23.0519  -29.6342   12.0107 C   0  0  0  0  0  0  0  0  0  0  0  0
   22.8735  -30.0174   14.7957 N   0  0  0  0  0  0  0  0  0  0  0  0
   22.9695  -28.7721   14.2941 C   0  0  0  0  0  0  0  0  0  0  0  0
   23.2463  -27.0748   10.9552 C   0  0  0  0  0  0  0  0  0  0  0  0
   23.2311  -28.1436   10.1274 N   0  0  0  0  0  0  0  0  0  0  0  0
   23.1311  -29.3979   10.6122 C   0  0  0  0  0  0  0  0  0  0  0  0
   23.1644  -27.2440   12.3348 C   0  0  0  0  0  0  0  0  0  0  0  0
   22.5586  -34.9227   14.3038 C   0  0  0  0  0  0  0  0  0  0  0  0
   22.5672  -34.8838   15.5576 O   0  0  0  0  0  0  0  0  0  0  0  0
   22.3000  -35.7412   13.3920 O   0  0  0  0  0  0  0  0  0  0  0  0
   22.3846  -35.4851   12.4947 H   0  0  0  0  0  0  0  0  0  0  0  0
   22.9531  -27.6016   15.1154 N   0  0  0  0  0  0  0  0  0  0  0  0
   23.0508  -26.7362   14.6564 H   0  0  0  0  0  0  0  0  0  0  0  0
   22.8090  -27.5640   16.5374 C   0  0  0  0  0  0  0  0  0  0  0  0
   22.0427  -26.6046   17.1927 C   0  0  0  0  0  0  0  0  0  0  0  0
   21.9368  -26.6451   18.5789 C   0  0  0  0  0  0  0  0  0  0  0  0
   22.5903  -27.6296   19.2996 C   0  0  0  0  0  0  0  0  0  0  0  0
   23.3425  -28.5844   18.6432 C   0  0  0  0  0  0  0  0  0  0  0  0
   23.4532  -28.5535   17.2675 C   0  0  0  0  0  0  0  0  0  0  0  0
   21.0204  -25.4598   19.4468 Cl  0  0  0  0  0  0  0  0  0  0  0  0
  1  2  2  0  0  0
  1  9  1  0  0  0
  1  6  1  0  0  0
  2  3  1  0  0  0
  8  2  1  0  0  0
  3  4  2  0  0  0
  4  5  1  0  0  0
  5  6  2  0  0  0
  5 15  1  0  0  0
 14  7  1  0  0  0
 10  7  1  0  0  0
  7  8  2  0  0  0
  8 13  1  0  0  0
 10  9  2  0  0  0
 19 10  1  0  0  0
 14 11  2  0  0  0
 11 12  1  0  0  0
 12 13  2  0  0  0
 21 19  1  0  0  0
 26 21  2  0  0  0
 21 22  1  0  0  0
 23 22  2  0  0  0
 24 23  1  0  0  0
 23 27  1  0  0  0
 25 24  2  0  0  0
 25 26  1  0  0  0
 16 15  2  0  0  0
 15 17  1  0  0  0
 19 20  1  0  0  0
 17 18  1  0  0  0
M  END
> <minimizedAffinity>
-10.83550

$$$$
3PE1_3NG_A_338


 27 30  0  0  0  0  0  0  0  0999 V2000
   22.6308  -30.1849   13.4814 C   0  0  0  0  0  0  0  0  0  0  0  0
   22.6309  -31.3295   12.7134 C   0  0  0  0  0  0  0  0  0  0  0  0
   22.6476  -31.2353   11.2934 C   0  0  0  0  0  0  0  0  0  0  0  0
   22.6752  -29.9759   10.6844 C   0  0  0  0  0  0  0  0  0  0  0  0
   22.6822  -28.8035   11.4611 C   0  0  0  0  0  0  0  0  0  0  0  0
   22.6563  -28.9038   12.8541 C   0  0  0  0  0  0  0  0  0  0  0  0
   22.5887  -32.6524   14.7641 C   0  0  0  0  0  0  0  0  0  0  0  0
   22.6034  -32.6335   13.3816 C   0  0  0  0  0  0  0  0  0  0  0  0
   22.6274  -30.2434   14.8722 N   0  0  0  0  0  0  0  0  0  0  0  0
   22.6048  -31.4302   15.5067 C   0  0  0  0  0  0  0  0  0  0  0  0
   22.5611  -35.0913   14.6699 C   0  0  0  0  0  0  0  0  0  0  0  0
   22.5764  -35.0409   13.3188 N   0  0  0  0  0  0  0  0  0  0  0  0
   22.6035  -33.8610   12.6667 C   0  0  0  0  0  0  0  0  0  0  0  0
   22.5674  -33.9210   15.4240 C   0  0  0  0  0  0  0  0  0  0  0  0
   22.7767  -27.4631   10.7916 C   0  0  0  0  0  0  0  0  0  0  0  0
   23.7874  -27.3897   10.0523 O   0  0  0  0  0  0  0  0  0  0  0  0
   21.7381  -26.8053   11.0294 O   0  0  0  0  0  0  0  0  0  0  0  0
   21.1239  -27.1135   11.6664 H   0  0  0  0  0  0  0  0  0  0  0  0
   22.6253  -31.5485   16.9316 N   0  0  0  0  0  0  0  0  0  0  0  0
   22.6571  -32.4607   17.3006 H   0  0  0  0  0  0  0  0  0  0  0  0
   22.6041  -30.4730   17.8733 C   0  0  0  0  0  0  0  0  0  0  0  0
   22.2449  -30.6451   19.2070 C   0  0  0  0  0  0  0  0  0  0  0  0
   22.2662  -29.5520   20.0667 C   0  0  0  0  0  0  0  0  0  0  0  0
   22.6389  -28.3040   19.5986 C   0  0  0  0  0  0  0  0  0  0  0  0
   23.0027  -28.1408   18.2760 C   0  0  0  0  0  0  0  0  0  0  0  0
   22.9858  -29.2195   17.4148 C   0  0  0  0  0  0  0  0  0  0  0  0
   21.8014  -29.7040   21.7277 Cl  0  0  0  0  0  0  0  0  0  0  0  0
  1  2  2  0  0  0
  1  9  1  0  0  0
  1  6  1  0  0  0
  2  3  1  0  0  0
  8  2  1  0  0  0
  3  4  2  0  0  0
  4  5  1  0  0  0
  5  6  2  0  0  0
  5 15  1  0  0  0
 14  7  1  0  0  0
 10  7  1  0  0  0
  7  8  2  0  0  0
  8 13  1  0  0  0
 10  9  2  0  0  0
 19 10  1  0  0  0
 14 11  2  0  0  0
 11 12  1  0  0  0
 12 13  2  0  0  0
 21 19  1  0  0  0
 26 21  2  0  0  0
 21 22  1  0  0  0
 23 22  2  0  0  0
 24 23  1  0  0  0
 23 27  1  0  0  0
 25 24  2  0  0  0
 25 26  1  0  0  0
 16 15  2  0  0  0
 15 17  1  0  0  0
 19 20  1  0  0  0
 17 18  1  0  0  0
M  END
> <minimizedAffinity>
-10.25778

$$$$
3PE1_3NG_A_338


 27 30  0  0  0  0  0  0  0  0999 V2000
   22.7793  -30.6276   16.6228 C   0  0  0  0  0  0  0  0  0  0  0  0
   22.4933  -31.9653   16.7930 C   0  0  0  0  0  0  0  0  0  0  0  0
   22.1536  -32.4633   18.0822 C   0  0  0  0  0  0  0  0  0  0  0  0
   22.1011  -31.5856   19.1706 C   0  0  0  0  0  0  0  0  0  0  0  0
   22.3849  -30.2183   19.0038 C   0  0  0  0  0  0  0  0  0  0  0  0
   22.7266  -29.7385   17.7372 C   0  0  0  0  0  0  0  0  0  0  0  0
   22.8915  -32.3083   14.4094 C   0  0  0  0  0  0  0  0  0  0  0  0
   22.5554  -32.8583   15.6327 C   0  0  0  0  0  0  0  0  0  0  0  0
   23.1027  -30.1074   15.3728 N   0  0  0  0  0  0  0  0  0  0  0  0
   23.1630  -30.9089   14.2932 C   0  0  0  0  0  0  0  0  0  0  0  0
   22.6700  -34.5280   13.4188 C   0  0  0  0  0  0  0  0  0  0  0  0
   22.3437  -35.0370   14.6282 N   0  0  0  0  0  0  0  0  0  0  0  0
   22.2742  -34.2480   15.7195 C   0  0  0  0  0  0  0  0  0  0  0  0
   22.9489  -33.1720   13.2711 C   0  0  0  0  0  0  0  0  0  0  0  0
   22.2609  -29.2808   20.1698 C   0  0  0  0  0  0  0  0  0  0  0  0
   22.6601  -29.8148   21.2324 O   0  0  0  0  0  0  0  0  0  0  0  0
   21.9242  -28.1472   19.7581 O   0  0  0  0  0  0  0  0  0  0  0  0
   21.6552  -28.0329   18.8678 H   0  0  0  0  0  0  0  0  0  0  0  0
   23.4657  -30.4235   12.9826 N   0  0  0  0  0  0  0  0  0  0  0  0
   24.0508  -30.9859   12.4254 H   0  0  0  0  0  0  0  0  0  0  0  0
   23.0026  -29.2020   12.4016 C   0  0  0  0  0  0  0  0  0  0  0  0
   23.4325  -27.9507   12.8335 C   0  0  0  0  0  0  0  0  0  0  0  0
   22.9490  -26.8079   12.2053 C   0  0  0  0  0  0  0  0  0  0  0  0
   22.0463  -26.9150   11.1617 C   0  0  0  0  0  0  0  0  0  0  0  0
   21.6297  -28.1598   10.7315 C   0  0  0  0  0  0  0  0  0  0  0  0
   22.1043  -29.3003   11.3477 C   0  0  0  0  0  0  0  0  0  0  0  0
   23.4283  -25.2260   12.7211 Cl  0  0  0  0  0  0  0  0  0  0  0  0
  1  2  2  0  0  0
  1  9  1  0  0  0
  1  6  1  0  0  0
  2  3  1  0  0  0
  8  2  1  0  0  0
  3  4  2  0  0  0
  4  5  1  0  0  0
  5  6  2  0  0  0
  5 15  1  0  0  0
 14  7  1  0  0  0
 10  7  1  0  0  0
  7  8  2  0  0  0
  8 13  1  0  0  0
 10  9  2  0  0  0
 19 10  1  0  0  0
 14 11  2  0  0  0
 11 12  1  0  0  0
 12 13  2  0  0  0
 21 19  1  0  0  0
 26 21  2  0  0  0
 21 22  1  0  0  0
 23 22  2  0  0  0
 24 23  1  0  0  0
 23 27  1  0  0  0
 25 24  2  0  0  0
 25 26  1  0  0  0
 16 15  2  0  0  0
 15 17  1  0  0  0
 19 20  1  0  0  0
 17 18  1  0  0  0
M  END
> <minimizedAffinity>
-10.24092

$$$$
3PE1_3NG_A_338


 27 30  0  0  0  0  0  0  0  0999 V2000
   22.4911  -30.6694   17.7480 C   0  0  0  0  0  0  0  0  0  0  0  0
   22.5093  -29.4742   18.4346 C   0  0  0  0  0  0  0  0  0  0  0  0
   22.4851  -29.4690   19.8576 C   0  0  0  0  0  0  0  0  0  0  0  0
   22.4543  -30.6827   20.5529 C   0  0  0  0  0  0  0  0  0  0  0  0
   22.4425  -31.9064   19.8598 C   0  0  0  0  0  0  0  0  0  0  0  0
   22.4570  -31.9034   18.4630 C   0  0  0  0  0  0  0  0  0  0  0  0
   22.5659  -28.2978   16.2967 C   0  0  0  0  0  0  0  0  0  0  0  0
   22.5433  -28.2202   17.6771 C   0  0  0  0  0  0  0  0  0  0  0  0
   22.5265  -30.7085   16.3570 N   0  0  0  0  0  0  0  0  0  0  0  0
   22.5607  -29.5690   15.6414 C   0  0  0  0  0  0  0  0  0  0  0  0
   22.6177  -25.8587   16.2210 C   0  0  0  0  0  0  0  0  0  0  0  0
   22.5955  -25.8146   17.5721 N   0  0  0  0  0  0  0  0  0  0  0  0
   22.5656  -26.9461   18.3049 C   0  0  0  0  0  0  0  0  0  0  0  0
   22.6047  -27.0787   15.5502 C   0  0  0  0  0  0  0  0  0  0  0  0
   22.4742  -33.1988   20.6230 C   0  0  0  0  0  0  0  0  0  0  0  0
   21.3715  -33.7939   20.5640 O   0  0  0  0  0  0  0  0  0  0  0  0
   23.6443  -33.4269   21.0062 O   0  0  0  0  0  0  0  0  0  0  0  0
   24.3013  -32.7636   20.9261 H   0  0  0  0  0  0  0  0  0  0  0  0
   22.6229  -29.5517   14.2129 N   0  0  0  0  0  0  0  0  0  0  0  0
   22.5616  -28.6712   13.7768 H   0  0  0  0  0  0  0  0  0  0  0  0
   22.7653  -30.6868   13.3554 C   0  0  0  0  0  0  0  0  0  0  0  0
   22.6064  -31.9951   13.8031 C   0  0  0  0  0  0  0  0  0  0  0  0
   22.7435  -33.0464   12.9030 C   0  0  0  0  0  0  0  0  0  0  0  0
   23.0378  -32.7931   11.5745 C   0  0  0  0  0  0  0  0  0  0  0  0
   23.1859  -31.4923   11.1340 C   0  0  0  0  0  0  0  0  0  0  0  0
   23.0510  -30.4416   12.0192 C   0  0  0  0  0  0  0  0  0  0  0  0
   22.5846  -34.6938   13.4121 Cl  0  0  0  0  0  0  0  0  0  0  0  0
  1  2  2  0  0  0
  1  9  1  0  0  0
  1  6  1  0  0  0
  2  3  1  0  0  0
  8  2  1  0  0  0
  3  4  2  0  0  0
  4  5  1  0  0  0
  5  6  2  0  0  0
  5 15  1  0  0  0
 14  7  1  0  0  0
 10  7  1  0  0  0
  7  8  2  0  0  0
  8 13  1  0  0  0
 10  9  2  0  0  0
 19 10  1  0  0  0
 14 11  2  0  0  0
 11 12  1  0  0  0
 12 13  2  0  0  0
 21 19  1  0  0  0
 26 21  2  0  0  0
 21 22  1  0  0  0
 23 22  2  0  0  0
 24 23  1  0  0  0
 23 27  1  0  0  0
 25 24  2  0  0  0
 25 26  1  0  0  0
 16 15  2  0  0  0
 15 17  1  0  0  0
 19 20  1  0  0  0
 17 18  1  0  0  0
M  END
> <minimizedAffinity>
-10.24052

$$$$
3PE1_3NG_A_338


 27 30  0  0  0  0  0  0  0  0999 V2000
   22.6065  -30.9381   16.3203 C   0  0  0  0  0  0  0  0  0  0  0  0
   22.4155  -32.2928   16.1523 C   0  0  0  0  0  0  0  0  0  0  0  0
   22.1533  -33.1211   17.2797 C   0  0  0  0  0  0  0  0  0  0  0  0
   22.0800  -32.5500   18.5549 C   0  0  0  0  0  0  0  0  0  0  0  0
   22.2670  -31.1676   18.7337 C   0  0  0  0  0  0  0  0  0  0  0  0
   22.5331  -30.3625   17.6236 C   0  0  0  0  0  0  0  0  0  0  0  0
   22.7543  -31.9983   13.7532 C   0  0  0  0  0  0  0  0  0  0  0  0
   22.4970  -32.8600   14.8036 C   0  0  0  0  0  0  0  0  0  0  0  0
   22.8522  -30.0994   15.2368 N   0  0  0  0  0  0  0  0  0  0  0  0
   22.9286  -30.5986   13.9891 C   0  0  0  0  0  0  0  0  0  0  0  0
   22.6463  -33.9094   12.2386 C   0  0  0  0  0  0  0  0  0  0  0  0
   22.3956  -34.7272   13.2857 N   0  0  0  0  0  0  0  0  0  0  0  0
   22.3113  -34.2438   14.5416 C   0  0  0  0  0  0  0  0  0  0  0  0
   22.8299  -32.5430   12.4331 C   0  0  0  0  0  0  0  0  0  0  0  0
   22.1211  -30.5635   20.1002 C   0  0  0  0  0  0  0  0  0  0  0  0
   23.2370  -30.2811   20.5987 O   0  0  0  0  0  0  0  0  0  0  0  0
   20.9085  -30.3597   20.3376 O   0  0  0  0  0  0  0  0  0  0  0  0
   20.2540  -30.7089   19.7652 H   0  0  0  0  0  0  0  0  0  0  0  0
   23.1539  -29.7798   12.8386 N   0  0  0  0  0  0  0  0  0  0  0  0
   23.3352  -30.2463   11.9908 H   0  0  0  0  0  0  0  0  0  0  0  0
   23.1419  -28.3508   12.7978 C   0  0  0  0  0  0  0  0  0  0  0  0
   22.7484  -27.5686   13.8797 C   0  0  0  0  0  0  0  0  0  0  0  0
   22.7811  -26.1826   13.7683 C   0  0  0  0  0  0  0  0  0  0  0  0
   23.1990  -25.5874   12.5908 C   0  0  0  0  0  0  0  0  0  0  0  0
   23.5967  -26.3686   11.5232 C   0  0  0  0  0  0  0  0  0  0  0  0
   23.5687  -27.7452   11.6238 C   0  0  0  0  0  0  0  0  0  0  0  0
   22.2753  -25.1625   15.0728 Cl  0  0  0  0  0  0  0  0  0  0  0  0
  1  2  2  0  0  0
  1  9  1  0  0  0
  1  6  1  0  0  0
  2  3  1  0  0  0
  8  2  1  0  0  0
  3  4  2  0  0  0
  4  5  1  0  0  0
  5  6  2  0  0  0
  5 15  1  0  0  0
 14  7  1  0  0  0
 10  7  1  0  0  0
  7  8  2  0  0  0
  8 13  1  0  0  0
 10  9  2  0  0  0
 19 10  1  0  0  0
 14 11  2  0  0  0
 11 12  1  0  0  0
 12 13  2  0  0  0
 21 19  1  0  0  0
 26 21  2  0  0  0
 21 22  1  0  0  0
 23 22  2  0  0  0
 24 23  1  0  0  0
 23 27  1  0  0  0
 25 24  2  0  0  0
 25 26  1  0  0  0
 16 15  2  0  0  0
 15 17  1  0  0  0
 19 20  1  0  0  0
 17 18  1  0  0  0
M  END
> <minimizedAffinity>
-10.15761

$$$$
3PE1_3NG_A_338


 27 30  0  0  0  0  0  0  0  0999 V2000
   22.2768  -32.6764   16.6353 C   0  0  0  0  0  0  0  0  0  0  0  0
   22.6087  -31.4228   16.1680 C   0  0  0  0  0  0  0  0  0  0  0  0
   22.9279  -31.2356   14.7937 C   0  0  0  0  0  0  0  0  0  0  0  0
   22.8915  -32.3282   13.9205 C   0  0  0  0  0  0  0  0  0  0  0  0
   22.5472  -33.6091   14.3882 C   0  0  0  0  0  0  0  0  0  0  0  0
   22.2441  -33.7868   15.7402 C   0  0  0  0  0  0  0  0  0  0  0  0
   22.3146  -30.5508   18.4287 C   0  0  0  0  0  0  0  0  0  0  0  0
   22.6360  -30.2986   17.1077 C   0  0  0  0  0  0  0  0  0  0  0  0
   21.9475  -32.8900   17.9708 N   0  0  0  0  0  0  0  0  0  0  0  0
   21.9636  -31.8715   18.8505 C   0  0  0  0  0  0  0  0  0  0  0  0
   22.6715  -28.1835   18.9042 C   0  0  0  0  0  0  0  0  0  0  0  0
   22.9808  -27.9676   17.6058 N   0  0  0  0  0  0  0  0  0  0  0  0
   22.9654  -28.9752   16.7100 C   0  0  0  0  0  0  0  0  0  0  0  0
   22.3336  -29.4581   19.3510 C   0  0  0  0  0  0  0  0  0  0  0  0
   22.4510  -34.7564   13.4248 C   0  0  0  0  0  0  0  0  0  0  0  0
   22.4620  -34.3589   12.2351 O   0  0  0  0  0  0  0  0  0  0  0  0
   22.5311  -35.8360   14.0544 O   0  0  0  0  0  0  0  0  0  0  0  0
   22.4916  -35.8364   14.9905 H   0  0  0  0  0  0  0  0  0  0  0  0
   21.6105  -32.0299   20.2272 N   0  0  0  0  0  0  0  0  0  0  0  0
   22.0548  -31.4319   20.8707 H   0  0  0  0  0  0  0  0  0  0  0  0
   20.6759  -32.9708   20.7612 C   0  0  0  0  0  0  0  0  0  0  0  0
   21.0566  -34.0315   21.5780 C   0  0  0  0  0  0  0  0  0  0  0  0
   20.0853  -34.8949   22.0736 C   0  0  0  0  0  0  0  0  0  0  0  0
   18.7525  -34.7017   21.7546 C   0  0  0  0  0  0  0  0  0  0  0  0
   18.3794  -33.6422   20.9505 C   0  0  0  0  0  0  0  0  0  0  0  0
   19.3356  -32.7790   20.4543 C   0  0  0  0  0  0  0  0  0  0  0  0
   20.5065  -36.2468   23.0701 Cl  0  0  0  0  0  0  0  0  0  0  0  0
  1  2  2  0  0  0
  1  9  1  0  0  0
  1  6  1  0  0  0
  2  3  1  0  0  0
  8  2  1  0  0  0
  3  4  2  0  0  0
  4  5  1  0  0  0
  5  6  2  0  0  0
  5 15  1  0  0  0
 14  7  1  0  0  0
 10  7  1  0  0  0
  7  8  2  0  0  0
  8 13  1  0  0  0
 10  9  2  0  0  0
 19 10  1  0  0  0
 14 11  2  0  0  0
 11 12  1  0  0  0
 12 13  2  0  0  0
 21 19  1  0  0  0
 26 21  2  0  0  0
 21 22  1  0  0  0
 23 22  2  0  0  0
 24 23  1  0  0  0
 23 27  1  0  0  0
 25 24  2  0  0  0
 25 26  1  0  0  0
 16 15  2  0  0  0
 15 17  1  0  0  0
 19 20  1  0  0  0
 17 18  1  0  0  0
M  END
> <minimizedAffinity>
-10.07558

$$$$
3PE1_3NG_A_338


 27 30  0  0  0  0  0  0  0  0999 V2000
   22.6109  -33.4393   17.2388 C   0  0  0  0  0  0  0  0  0  0  0  0
   22.4926  -32.0661   17.2533 C   0  0  0  0  0  0  0  0  0  0  0  0
   22.4314  -31.3427   16.0291 C   0  0  0  0  0  0  0  0  0  0  0  0
   22.4806  -32.0347   14.8141 C   0  0  0  0  0  0  0  0  0  0  0  0
   22.5944  -33.4364   14.7909 C   0  0  0  0  0  0  0  0  0  0  0  0
   22.6633  -34.1386   15.9964 C   0  0  0  0  0  0  0  0  0  0  0  0
   22.5057  -32.1349   19.6931 C   0  0  0  0  0  0  0  0  0  0  0  0
   22.4419  -31.3709   18.5424 C   0  0  0  0  0  0  0  0  0  0  0  0
   22.6606  -34.1765   18.4186 N   0  0  0  0  0  0  0  0  0  0  0  0
   22.6130  -33.5589   19.6135 C   0  0  0  0  0  0  0  0  0  0  0  0
   22.3379  -30.0776   20.9958 C   0  0  0  0  0  0  0  0  0  0  0  0
   22.2771  -29.3572   19.8533 N   0  0  0  0  0  0  0  0  0  0  0  0
   22.3191  -29.9596   18.6477 C   0  0  0  0  0  0  0  0  0  0  0  0
   22.4513  -31.4647   20.9552 C   0  0  0  0  0  0  0  0  0  0  0  0
   22.5811  -34.1664   13.4792 C   0  0  0  0  0  0  0  0  0  0  0  0
   22.9680  -33.4302   12.5402 O   0  0  0  0  0  0  0  0  0  0  0  0
   22.3241  -35.3757   13.6789 O   0  0  0  0  0  0  0  0  0  0  0  0
   22.0384  -35.6605   14.5246 H   0  0  0  0  0  0  0  0  0  0  0  0
   22.6355  -34.2684   20.8548 N   0  0  0  0  0  0  0  0  0  0  0  0
   23.3058  -33.9828   21.5169 H   0  0  0  0  0  0  0  0  0  0  0  0
   21.7808  -35.3515   21.2294 C   0  0  0  0  0  0  0  0  0  0  0  0
   22.0450  -36.6743   20.8864 C   0  0  0  0  0  0  0  0  0  0  0  0
   21.1740  -37.6752   21.3036 C   0  0  0  0  0  0  0  0  0  0  0  0
   20.0534  -37.3573   22.0510 C   0  0  0  0  0  0  0  0  0  0  0  0
   19.8007  -36.0437   22.3959 C   0  0  0  0  0  0  0  0  0  0  0  0
   20.6595  -35.0430   21.9875 C   0  0  0  0  0  0  0  0  0  0  0  0
   21.4393  -39.3332   20.8808 Cl  0  0  0  0  0  0  0  0  0  0  0  0
  1  2  2  0  0  0
  1  9  1  0  0  0
  1  6  1  0  0  0
  2  3  1  0  0  0
  8  2  1  0  0  0
  3  4  2  0  0  0
  4  5  1  0  0  0
  5  6  2  0  0  0
  5 15  1  0  0  0
 14  7  1  0  0  0
 10  7  1  0  0  0
  7  8  2  0  0  0
  8 13  1  0  0  0
 10  9  2  0  0  0
 19 10  1  0  0  0
 14 11  2  0  0  0
 11 12  1  0  0  0
 12 13  2  0  0  0
 21 19  1  0  0  0
 26 21  2  0  0  0
 21 22  1  0  0  0
 23 22  2  0  0  0
 24 23  1  0  0  0
 23 27  1  0  0  0
 25 24  2  0  0  0
 25 26  1  0  0  0
 16 15  2  0  0  0
 15 17  1  0  0  0
 19 20  1  0  0  0
 17 18  1  0  0  0
M  END
> <minimizedAffinity>
-10.05488

$$$$
3PE1_3NG_A_338


 27 30  0  0  0  0  0  0  0  0999 V2000
   22.3204  -32.5166   16.1115 C   0  0  0  0  0  0  0  0  0  0  0  0
   22.6789  -31.3653   15.4434 C   0  0  0  0  0  0  0  0  0  0  0  0
   22.9855  -31.4132   14.0544 C   0  0  0  0  0  0  0  0  0  0  0  0
   22.9097  -32.6319   13.3713 C   0  0  0  0  0  0  0  0  0  0  0  0
   22.5382  -33.8096   14.0444 C   0  0  0  0  0  0  0  0  0  0  0  0
   22.2477  -33.7565   15.4096 C   0  0  0  0  0  0  0  0  0  0  0  0
   22.4361  -30.1293   17.5340 C   0  0  0  0  0  0  0  0  0  0  0  0
   22.7473  -30.1044   16.1869 C   0  0  0  0  0  0  0  0  0  0  0  0
   22.0026  -32.5007   17.4666 N   0  0  0  0  0  0  0  0  0  0  0  0
   22.0562  -31.3535   18.1683 C   0  0  0  0  0  0  0  0  0  0  0  0
   22.8603  -27.7269   17.6142 C   0  0  0  0  0  0  0  0  0  0  0  0
   23.1586  -27.7338   16.2955 N   0  0  0  0  0  0  0  0  0  0  0  0
   23.1058  -28.8730   15.5761 C   0  0  0  0  0  0  0  0  0  0  0  0
   22.4951  -28.9020   18.2656 C   0  0  0  0  0  0  0  0  0  0  0  0
   22.4002  -35.0953   13.2817 C   0  0  0  0  0  0  0  0  0  0  0  0
   22.5241  -36.0911   14.0345 O   0  0  0  0  0  0  0  0  0  0  0  0
   22.0497  -34.8457   12.1057 O   0  0  0  0  0  0  0  0  0  0  0  0
   22.0546  -33.9625   11.7928 H   0  0  0  0  0  0  0  0  0  0  0  0
   21.7165  -31.2759   19.5552 N   0  0  0  0  0  0  0  0  0  0  0  0
   21.9152  -30.4277   20.0138 H   0  0  0  0  0  0  0  0  0  0  0  0
   21.1169  -32.3083   20.3416 C   0  0  0  0  0  0  0  0  0  0  0  0
   21.8253  -33.4154   20.7997 C   0  0  0  0  0  0  0  0  0  0  0  0
   21.1751  -34.3693   21.5754 C   0  0  0  0  0  0  0  0  0  0  0  0
   19.8348  -34.2194   21.8864 C   0  0  0  0  0  0  0  0  0  0  0  0
   19.1389  -33.1143   21.4363 C   0  0  0  0  0  0  0  0  0  0  0  0
   19.7752  -32.1613   20.6665 C   0  0  0  0  0  0  0  0  0  0  0  0
   22.0009  -35.7797   22.1472 Cl  0  0  0  0  0  0  0  0  0  0  0  0
  1  2  2  0  0  0
  1  9  1  0  0  0
  1  6  1  0  0  0
  2  3  1  0  0  0
  8  2  1  0  0  0
  3  4  2  0  0  0
  4  5  1  0  0  0
  5  6  2  0  0  0
  5 15  1  0  0  0
 14  7  1  0  0  0
 10  7  1  0  0  0
  7  8  2  0  0  0
  8 13  1  0  0  0
 10  9  2  0  0  0
 19 10  1  0  0  0
 14 11  2  0  0  0
 11 12  1  0  0  0
 12 13  2  0  0  0
 21 19  1  0  0  0
 26 21  2  0  0  0
 21 22  1  0  0  0
 23 22  2  0  0  0
 24 23  1  0  0  0
 23 27  1  0  0  0
 25 24  2  0  0  0
 25 26  1  0  0  0
 16 15  2  0  0  0
 15 17  1  0  0  0
 19 20  1  0  0  0
 17 18  1  0  0  0
M  END
> <minimizedAffinity>
-9.88267

$$$$
3PE1_3NG_A_338


 27 30  0  0  0  0  0  0  0  0999 V2000
   22.4370  -30.8859   15.7522 C   0  0  0  0  0  0  0  0  0  0  0  0
   22.6453  -31.9750   14.9333 C   0  0  0  0  0  0  0  0  0  0  0  0
   22.6156  -33.2906   15.4752 C   0  0  0  0  0  0  0  0  0  0  0  0
   22.3628  -33.4708   16.8395 C   0  0  0  0  0  0  0  0  0  0  0  0
   22.1425  -32.3651   17.6803 C   0  0  0  0  0  0  0  0  0  0  0  0
   22.1824  -31.0764   17.1430 C   0  0  0  0  0  0  0  0  0  0  0  0
   22.9203  -30.4490   13.0482 C   0  0  0  0  0  0  0  0  0  0  0  0
   22.9059  -31.7529   13.5084 C   0  0  0  0  0  0  0  0  0  0  0  0
   22.4474  -29.5875   15.2506 N   0  0  0  0  0  0  0  0  0  0  0  0
   22.6820  -29.3606   13.9448 C   0  0  0  0  0  0  0  0  0  0  0  0
   23.3876  -31.3077   10.8117 C   0  0  0  0  0  0  0  0  0  0  0  0
   23.3669  -32.5718   11.2908 N   0  0  0  0  0  0  0  0  0  0  0  0
   23.1291  -32.8178   12.5951 C   0  0  0  0  0  0  0  0  0  0  0  0
   23.1683  -30.2240   11.6579 C   0  0  0  0  0  0  0  0  0  0  0  0
   21.8094  -32.5809   19.1282 C   0  0  0  0  0  0  0  0  0  0  0  0
   22.2556  -33.6773   19.5433 O   0  0  0  0  0  0  0  0  0  0  0  0
   21.2931  -31.5403   19.5958 O   0  0  0  0  0  0  0  0  0  0  0  0
   21.0426  -30.8430   19.0221 H   0  0  0  0  0  0  0  0  0  0  0  0
   22.6795  -28.0501   13.3725 N   0  0  0  0  0  0  0  0  0  0  0  0
   22.6384  -27.9950   12.3905 H   0  0  0  0  0  0  0  0  0  0  0  0
   22.7310  -26.8120   14.0856 C   0  0  0  0  0  0  0  0  0  0  0  0
   22.5261  -26.7238   15.4595 C   0  0  0  0  0  0  0  0  0  0  0  0
   22.6102  -25.4841   16.0844 C   0  0  0  0  0  0  0  0  0  0  0  0
   22.8926  -24.3485   15.3454 C   0  0  0  0  0  0  0  0  0  0  0  0
   23.1035  -24.4432   13.9835 C   0  0  0  0  0  0  0  0  0  0  0  0
   23.0232  -25.6691   13.3538 C   0  0  0  0  0  0  0  0  0  0  0  0
   22.3359  -25.3131   17.7855 Cl  0  0  0  0  0  0  0  0  0  0  0  0
  1  2  2  0  0  0
  1  9  1  0  0  0
  1  6  1  0  0  0
  2  3  1  0  0  0
  8  2  1  0  0  0
  3  4  2  0  0  0
  4  5  1  0  0  0
  5  6  2  0  0  0
  5 15  1  0  0  0
 14  7  1  0  0  0
 10  7  1  0  0  0
  7  8  2  0  0  0
  8 13  1  0  0  0
 10  9  2  0  0  0
 19 10  1  0  0  0
 14 11  2  0  0  0
 11 12  1  0  0  0
 12 13  2  0  0  0
 21 19  1  0  0  0
 26 21  2  0  0  0
 21 22  1  0  0  0
 23 22  2  0  0  0
 24 23  1  0  0  0
 23 27  1  0  0  0
 25 24  2  0  0  0
 25 26  1  0  0  0
 16 15  2  0  0  0
 15 17  1  0  0  0
 19 20  1  0  0  0
 17 18  1  0  0  0
M  END
> <minimizedAffinity>
-9.85242

$$$$
