4DEW_LU2_A_201
  RCSB PDB12061712113D
Coordinates from PDB:4DEW:A:201 Model:1 without hydrogens
 21 23  0  0  0  0            999 V2000
   19.4680   41.1430   36.1040   C 0  0  0  0  0  0  0  0  0  0  0  0
   18.2640   40.6470   34.1800   O 0  0  0  0  0  0  0  0  0  0  0  0
   19.3420   41.1790   34.7370   C 0  0  0  0  0  0  0  0  0  0  0  0
   22.3410   42.9580   33.7820   O 0  0  0  0  0  0  0  0  0  0  0  0
   20.3170   41.8010   33.9520   C 0  0  0  0  0  0  0  0  0  0  0  0
   23.4840   43.5640   35.9950   O 0  0  0  0  0  0  0  0  0  0  0  0
   21.4190   42.3770   34.5570   C 0  0  0  0  0  0  0  0  0  0  0  0
   20.6270   41.6620   38.0210   O 0  0  0  0  0  0  0  0  0  0  0  0
   21.5510   42.3450   35.9480   C 0  0  0  0  0  0  0  0  0  0  0  0
   21.3150   39.7780   42.9400   O 0  0  0  0  0  0  0  0  0  0  0  0
   20.5700   41.7380   36.6910   C 0  0  0  0  0  0  0  0  0  0  0  0
   21.5160   42.2990   43.9810   O 0  0  0  0  0  0  0  0  0  0  0  0
   22.6170   42.9270   36.5930   C 0  0  0  0  0  0  0  0  0  0  0  0
   22.6260   42.9240   37.9670   C 0  0  0  0  0  0  0  0  0  0  0  0
   21.6460   42.2440   38.6520   C 0  0  0  0  0  0  0  0  0  0  0  0
   21.6220   42.1920   40.0070   C 0  0  0  0  0  0  0  0  0  0  0  0
   21.5070   40.9710   40.7210   C 0  0  0  0  0  0  0  0  0  0  0  0
   21.4600   40.9430   42.1060   C 0  0  0  0  0  0  0  0  0  0  0  0
   21.5460   42.2130   42.6660   C 0  0  0  0  0  0  0  0  0  0  0  0
   21.6580   43.4160   41.9890   C 0  0  0  0  0  0  0  0  0  0  0  0
   21.6940   43.4170   40.6370   C 0  0  0  0  0  0  0  0  0  0  0  0
  1  3  2  0  0  0  0
  1 11  1  0  0  0  0
  2  3  1  0  0  0  0
  3  5  1  0  0  0  0
  7  4  1  0  0  0  0
  5  7  2  0  0  0  0
 13  6  2  0  0  0  0
  9  7  1  0  0  0  0
  8 11  1  0  0  0  0
  8 15  1  0  0  0  0
 11  9  2  0  0  0  0
  9 13  1  0  0  0  0
 18 10  1  0  0  0  0
 12 19  1  0  0  0  0
 14 13  1  0  0  0  0
 15 14  2  0  0  0  0
 16 15  1  0  0  0  0
 21 16  2  0  0  0  0
 16 17  1  0  0  0  0
 18 17  2  0  0  0  0
 19 18  1  0  0  0  0
 20 19  2  0  0  0  0
 20 21  1  0  0  0  0
A    1
C1
A    2
O1
A    3
C2
A    4
O2
A    5
C3
A    6
O3
A    7
C4
A    8
O4
A    9
C5
A   10
O5
A   11
C6
A   12
O6
A   13
C7
A   14
C8
A   15
C9
A   16
C10
A   17
C11
A   18
C12
A   19
C13
A   20
C14
A   21
C15
M  END
>  <InstanceId>
4DEW_LU2_A_201

>  <ChemCompId>
LU2

>  <PdbId>
4DEW

>  <ChainId>
A

>  <ResidueNumber>
201

>  <InsertionCode>


>  <Model>
1

>  <AltIds>


>  <MissingHeavyAtoms>
0

>  <ObservedFormula>
C15 O6

>  <Name>
2-(3,4-dihydroxyphenyl)-5,7-dihydroxy-4H-chromen-4-one

>  <SystematicName>
2-[3,4-bis(oxidanyl)phenyl]-5,7-bis(oxidanyl)chromen-4-one

>  <Synonyms>
Luteolin

>  <Type>
NON-POLYMER

>  <Formula>
C15 H10 O6

>  <MolecularWeight>
286.236

>  <ModifiedDate>
2012-03-16

>  <Parent>


>  <OneLetterCode>


>  <SubcomponentList>


>  <AmbiguousFlag>
N

>  <InChI>
InChI=1S/C15H10O6/c16-8-4-11(19)15-12(20)6-13(21-14(15)5-8)7-1-2-9(17)10(18)3-7/h1-6,16-19H

>  <InChIKey>
IQPNAANSBPBGFQ-UHFFFAOYSA-N

>  <SMILES>
c1cc(c(cc1C2=CC(=O)c3c(cc(cc3O2)O)O)O)O

$$$$
