4DEW_LU2_A_201


 25 27  0  0  0  0  0  0  0  0999 V2000
   20.3708   40.9636   40.6176 C   0  0  0  0  0  0  0  0  0  0  0  0
   20.6489   40.7944   42.9179 O   0  0  0  0  0  0  0  0  0  0  0  0
   21.0179   41.3406   41.7686 C   0  0  0  0  0  0  0  0  0  0  0  0
   23.4685   43.6706   40.4892 O   0  0  0  0  0  0  0  0  0  0  0  0
   22.0731   42.2561   41.7205 C   0  0  0  0  0  0  0  0  0  0  0  0
   23.1428   43.6439   37.9467 O   0  0  0  0  0  0  0  0  0  0  0  0
   22.4618   42.7905   40.5058 C   0  0  0  0  0  0  0  0  0  0  0  0
   20.1091   41.0886   38.3365 O   0  0  0  0  0  0  0  0  0  0  0  0
   21.8079   42.4086   39.3311 C   0  0  0  0  0  0  0  0  0  0  0  0
   20.7844   41.4980   39.4108 C   0  0  0  0  0  0  0  0  0  0  0  0
   22.1778   42.8952   38.0993 C   0  0  0  0  0  0  0  0  0  0  0  0
   21.5384   42.4030   36.9871 C   0  0  0  0  0  0  0  0  0  0  0  0
   20.4784   41.5396   37.1384 C   0  0  0  0  0  0  0  0  0  0  0  0
   19.9403   40.1817   42.9392 H   0  0  0  0  0  0  0  0  0  0  0  0
   23.8927   43.9124   41.2889 H   0  0  0  0  0  0  0  0  0  0  0  0
   20.0887   40.4061   32.3279 O   0  0  0  0  0  0  0  0  0  0  0  0
   17.5934   39.5950   33.0993 O   0  0  0  0  0  0  0  0  0  0  0  0
   19.8001   41.0427   36.0743 C   0  0  0  0  0  0  0  0  0  0  0  0
   20.3628   40.9811   34.7729 C   0  0  0  0  0  0  0  0  0  0  0  0
   19.6427   40.4916   33.6945 C   0  0  0  0  0  0  0  0  0  0  0  0
   18.3624   40.0832   34.0522 C   0  0  0  0  0  0  0  0  0  0  0  0
   17.7937   40.1350   35.3139 C   0  0  0  0  0  0  0  0  0  0  0  0
   18.5146   40.6242   36.3484 C   0  0  0  0  0  0  0  0  0  0  0  0
   20.9537   40.6843   32.0991 H   0  0  0  0  0  0  0  0  0  0  0  0
   17.9170   39.5322   32.2222 H   0  0  0  0  0  0  0  0  0  0  0  0
  1  3  2  0  0  0
  1 10  1  0  0  0
  2  3  1  0  0  0
  3  5  1  0  0  0
  7  4  1  0  0  0
  5  7  2  0  0  0
 11  6  2  0  0  0
  9  7  1  0  0  0
  8 10  1  0  0  0
  8 13  1  0  0  0
 10  9  2  0  0  0
  9 11  1  0  0  0
 20 16  1  0  0  0
 17 21  1  0  0  0
 12 11  1  0  0  0
 13 12  2  0  0  0
 18 13  1  0  0  0
 23 18  2  0  0  0
 18 19  1  0  0  0
 20 19  2  0  0  0
 21 20  1  0  0  0
 22 21  2  0  0  0
 22 23  1  0  0  0
  2 14  1  0  0  0
  4 15  1  0  0  0
 16 24  1  0  0  0
 17 25  1  0  0  0
M  END
> <minimizedAffinity>
-7.09322

$$$$
4DEW_LU2_A_201


 25 27  0  0  0  0  0  0  0  0999 V2000
   22.7493   43.9256   41.0656 C   0  0  0  0  0  0  0  0  0  0  0  0
   22.4776   44.1859   43.3581 O   0  0  0  0  0  0  0  0  0  0  0  0
   22.1165   43.5828   42.2351 C   0  0  0  0  0  0  0  0  0  0  0  0
   19.7161   41.1436   41.0691 O   0  0  0  0  0  0  0  0  0  0  0  0
   21.0831   42.6415   42.2317 C   0  0  0  0  0  0  0  0  0  0  0  0
   20.0295   41.0700   38.5260 O   0  0  0  0  0  0  0  0  0  0  0  0
   20.7017   42.0470   41.0429 C   0  0  0  0  0  0  0  0  0  0  0  0
   23.0036   43.7100   38.7904 O   0  0  0  0  0  0  0  0  0  0  0  0
   21.3411   42.3940   39.8495 C   0  0  0  0  0  0  0  0  0  0  0  0
   22.3430   43.3308   39.8848 C   0  0  0  0  0  0  0  0  0  0  0  0
   20.9772   41.8469   38.6414 C   0  0  0  0  0  0  0  0  0  0  0  0
   21.5997   42.3063   37.5058 C   0  0  0  0  0  0  0  0  0  0  0  0
   22.6397   43.1999   37.6145 C   0  0  0  0  0  0  0  0  0  0  0  0
   23.1717   44.8154   43.3496 H   0  0  0  0  0  0  0  0  0  0  0  0
   19.3014   40.9262   41.8807 H   0  0  0  0  0  0  0  0  0  0  0  0
   23.1068   43.8847   32.7267 O   0  0  0  0  0  0  0  0  0  0  0  0
   25.4515   45.0684   33.4889 O   0  0  0  0  0  0  0  0  0  0  0  0
   23.3012   43.6669   36.5266 C   0  0  0  0  0  0  0  0  0  0  0  0
   22.7939   43.5285   35.2085 C   0  0  0  0  0  0  0  0  0  0  0  0
   23.4983   43.9919   34.1084 C   0  0  0  0  0  0  0  0  0  0  0  0
   24.7040   44.5877   34.4624 C   0  0  0  0  0  0  0  0  0  0  0  0
   25.2179   44.7327   35.7403 C   0  0  0  0  0  0  0  0  0  0  0  0
   24.5145   44.2650   36.7966 C   0  0  0  0  0  0  0  0  0  0  0  0
   22.2920   43.4812   32.5006 H   0  0  0  0  0  0  0  0  0  0  0  0
   25.1622   45.0029   32.6001 H   0  0  0  0  0  0  0  0  0  0  0  0
  1  3  2  0  0  0
  1 10  1  0  0  0
  2  3  1  0  0  0
  3  5  1  0  0  0
  7  4  1  0  0  0
  5  7  2  0  0  0
 11  6  2  0  0  0
  9  7  1  0  0  0
  8 10  1  0  0  0
  8 13  1  0  0  0
 10  9  2  0  0  0
  9 11  1  0  0  0
 20 16  1  0  0  0
 17 21  1  0  0  0
 12 11  1  0  0  0
 13 12  2  0  0  0
 18 13  1  0  0  0
 23 18  2  0  0  0
 18 19  1  0  0  0
 20 19  2  0  0  0
 21 20  1  0  0  0
 22 21  2  0  0  0
 22 23  1  0  0  0
  2 14  1  0  0  0
  4 15  1  0  0  0
 16 24  1  0  0  0
 17 25  1  0  0  0
M  END
> <minimizedAffinity>
-6.99348

$$$$
4DEW_LU2_A_201


 25 27  0  0  0  0  0  0  0  0999 V2000
   21.7047   44.5940   41.3861 C   0  0  0  0  0  0  0  0  0  0  0  0
   22.2855   46.3106   42.8398 O   0  0  0  0  0  0  0  0  0  0  0  0
   21.9812   45.0341   42.6572 C   0  0  0  0  0  0  0  0  0  0  0  0
   21.4969   42.0159   44.5877 O   0  0  0  0  0  0  0  0  0  0  0  0
   21.9044   44.1570   43.7428 C   0  0  0  0  0  0  0  0  0  0  0  0
   20.7231   40.2601   42.8879 O   0  0  0  0  0  0  0  0  0  0  0  0
   21.5547   42.8357   43.5328 C   0  0  0  0  0  0  0  0  0  0  0  0
   21.0909   42.9158   39.9388 O   0  0  0  0  0  0  0  0  0  0  0  0
   21.2702   42.3832   42.2414 C   0  0  0  0  0  0  0  0  0  0  0  0
   21.3421   43.2725   41.1988 C   0  0  0  0  0  0  0  0  0  0  0  0
   20.8939   41.0846   41.9900 C   0  0  0  0  0  0  0  0  0  0  0  0
   20.5500   40.7447   40.7039 C   0  0  0  0  0  0  0  0  0  0  0  0
   20.7040   41.6648   39.6930 C   0  0  0  0  0  0  0  0  0  0  0  0
   22.3345   46.8903   42.1053 H   0  0  0  0  0  0  0  0  0  0  0  0
   21.6917   42.3408   45.4447 H   0  0  0  0  0  0  0  0  0  0  0  0
   18.0641   39.2733   36.2449 O   0  0  0  0  0  0  0  0  0  0  0  0
   19.7341   40.6275   34.5548 O   0  0  0  0  0  0  0  0  0  0  0  0
   20.3999   41.3724   38.4041 C   0  0  0  0  0  0  0  0  0  0  0  0
   19.3524   40.4824   38.0511 C   0  0  0  0  0  0  0  0  0  0  0  0
   19.0744   40.1789   36.7276 C   0  0  0  0  0  0  0  0  0  0  0  0
   19.9172   40.8422   35.8424 C   0  0  0  0  0  0  0  0  0  0  0  0
   20.9446   41.7133   36.1647 C   0  0  0  0  0  0  0  0  0  0  0  0
   21.2008   41.9871   37.4642 C   0  0  0  0  0  0  0  0  0  0  0  0
   17.5022   38.8321   36.8512 H   0  0  0  0  0  0  0  0  0  0  0  0
   19.0554   40.0485   34.2682 H   0  0  0  0  0  0  0  0  0  0  0  0
  1  3  2  0  0  0
  1 10  1  0  0  0
  2  3  1  0  0  0
  3  5  1  0  0  0
  7  4  1  0  0  0
  5  7  2  0  0  0
 11  6  2  0  0  0
  9  7  1  0  0  0
  8 10  1  0  0  0
  8 13  1  0  0  0
 10  9  2  0  0  0
  9 11  1  0  0  0
 20 16  1  0  0  0
 17 21  1  0  0  0
 12 11  1  0  0  0
 13 12  2  0  0  0
 18 13  1  0  0  0
 23 18  2  0  0  0
 18 19  1  0  0  0
 20 19  2  0  0  0
 21 20  1  0  0  0
 22 21  2  0  0  0
 22 23  1  0  0  0
  2 14  1  0  0  0
  4 15  1  0  0  0
 16 24  1  0  0  0
 17 25  1  0  0  0
M  END
> <minimizedAffinity>
-6.59318

$$$$
4DEW_LU2_A_201


 25 27  0  0  0  0  0  0  0  0999 V2000
   21.5969   40.2571   41.2790 C   0  0  0  0  0  0  0  0  0  0  0  0
   21.0213   38.5577   42.7548 O   0  0  0  0  0  0  0  0  0  0  0  0
   21.3134   39.8344   42.5544 C   0  0  0  0  0  0  0  0  0  0  0  0
   21.7469   42.8882   44.4405 O   0  0  0  0  0  0  0  0  0  0  0  0
   21.3706   40.7295   43.6264 C   0  0  0  0  0  0  0  0  0  0  0  0
   22.5174   44.6250   42.7198 O   0  0  0  0  0  0  0  0  0  0  0  0
   21.7079   42.0510   43.3984 C   0  0  0  0  0  0  0  0  0  0  0  0
   22.2059   41.9186   39.8106 O   0  0  0  0  0  0  0  0  0  0  0  0
   21.9994   42.4860   42.1026 C   0  0  0  0  0  0  0  0  0  0  0  0
   21.9468   41.5794   41.0738 C   0  0  0  0  0  0  0  0  0  0  0  0
   22.3639   43.7844   41.8338 C   0  0  0  0  0  0  0  0  0  0  0  0
   22.7161   44.1075   40.5455 C   0  0  0  0  0  0  0  0  0  0  0  0
   22.5815   43.1697   39.5482 C   0  0  0  0  0  0  0  0  0  0  0  0
   20.9855   37.9658   42.0293 H   0  0  0  0  0  0  0  0  0  0  0  0
   21.5477   42.5749   45.3008 H   0  0  0  0  0  0  0  0  0  0  0  0
   25.2942   45.4572   36.0861 O   0  0  0  0  0  0  0  0  0  0  0  0
   23.5825   44.1456   34.4040 O   0  0  0  0  0  0  0  0  0  0  0  0
   22.8944   43.4448   38.2576 C   0  0  0  0  0  0  0  0  0  0  0  0
   23.9690   44.2996   37.8994 C   0  0  0  0  0  0  0  0  0  0  0  0
   24.2562   44.5864   36.5741 C   0  0  0  0  0  0  0  0  0  0  0  0
   23.3930   43.9444   35.6928 C   0  0  0  0  0  0  0  0  0  0  0  0
   22.3390   43.1077   36.0203 C   0  0  0  0  0  0  0  0  0  0  0  0
   22.0746   42.8498   37.3213 C   0  0  0  0  0  0  0  0  0  0  0  0
   25.8697   45.8842   36.6897 H   0  0  0  0  0  0  0  0  0  0  0  0
   24.2789   44.7014   34.1140 H   0  0  0  0  0  0  0  0  0  0  0  0
  1  3  2  0  0  0
  1 10  1  0  0  0
  2  3  1  0  0  0
  3  5  1  0  0  0
  7  4  1  0  0  0
  5  7  2  0  0  0
 11  6  2  0  0  0
  9  7  1  0  0  0
  8 10  1  0  0  0
  8 13  1  0  0  0
 10  9  2  0  0  0
  9 11  1  0  0  0
 20 16  1  0  0  0
 17 21  1  0  0  0
 12 11  1  0  0  0
 13 12  2  0  0  0
 18 13  1  0  0  0
 23 18  2  0  0  0
 18 19  1  0  0  0
 20 19  2  0  0  0
 21 20  1  0  0  0
 22 21  2  0  0  0
 22 23  1  0  0  0
  2 14  1  0  0  0
  4 15  1  0  0  0
 16 24  1  0  0  0
 17 25  1  0  0  0
M  END
> <minimizedAffinity>
-6.51100

$$$$
4DEW_LU2_A_201


 25 27  0  0  0  0  0  0  0  0999 V2000
   22.6892   40.9229   39.6542 C   0  0  0  0  0  0  0  0  0  0  0  0
   22.4947   39.4564   41.4455 O   0  0  0  0  0  0  0  0  0  0  0  0
   22.0611   40.5366   40.8128 C   0  0  0  0  0  0  0  0  0  0  0  0
   19.5766   43.1360   41.1886 O   0  0  0  0  0  0  0  0  0  0  0  0
   21.0080   41.2936   41.3338 C   0  0  0  0  0  0  0  0  0  0  0  0
   20.0035   44.7462   39.2403 O   0  0  0  0  0  0  0  0  0  0  0  0
   20.5919   42.4349   40.6730 C   0  0  0  0  0  0  0  0  0  0  0  0
   22.9217   42.3874   37.8968 O   0  0  0  0  0  0  0  0  0  0  0  0
   21.2291   42.8336   39.4948 C   0  0  0  0  0  0  0  0  0  0  0  0
   22.2681   42.0757   39.0164 C   0  0  0  0  0  0  0  0  0  0  0  0
   20.8651   43.9747   38.8190 C   0  0  0  0  0  0  0  0  0  0  0  0
   21.5992   44.3393   37.7162 C   0  0  0  0  0  0  0  0  0  0  0  0
   22.5880   43.5040   37.2509 C   0  0  0  0  0  0  0  0  0  0  0  0
   23.2014   38.9558   41.0877 H   0  0  0  0  0  0  0  0  0  0  0  0
   19.1640   42.8501   41.9798 H   0  0  0  0  0  0  0  0  0  0  0  0
   23.0978   44.2386   32.3746 O   0  0  0  0  0  0  0  0  0  0  0  0
   25.7056   44.6586   33.0837 O   0  0  0  0  0  0  0  0  0  0  0  0
   23.3261   43.8070   36.1543 C   0  0  0  0  0  0  0  0  0  0  0  0
   22.7640   43.8794   34.8532 C   0  0  0  0  0  0  0  0  0  0  0  0
   23.5419   44.1671   33.7427 C   0  0  0  0  0  0  0  0  0  0  0  0
   24.8780   44.3724   34.0689 C   0  0  0  0  0  0  0  0  0  0  0  0
   25.4472   44.3061   35.3298 C   0  0  0  0  0  0  0  0  0  0  0  0
   24.6679   44.0160   36.3964 C   0  0  0  0  0  0  0  0  0  0  0  0
   22.1949   44.0984   32.1672 H   0  0  0  0  0  0  0  0  0  0  0  0
   25.3852   44.7187   32.2052 H   0  0  0  0  0  0  0  0  0  0  0  0
  1  3  2  0  0  0
  1 10  1  0  0  0
  2  3  1  0  0  0
  3  5  1  0  0  0
  7  4  1  0  0  0
  5  7  2  0  0  0
 11  6  2  0  0  0
  9  7  1  0  0  0
  8 10  1  0  0  0
  8 13  1  0  0  0
 10  9  2  0  0  0
  9 11  1  0  0  0
 20 16  1  0  0  0
 17 21  1  0  0  0
 12 11  1  0  0  0
 13 12  2  0  0  0
 18 13  1  0  0  0
 23 18  2  0  0  0
 18 19  1  0  0  0
 20 19  2  0  0  0
 21 20  1  0  0  0
 22 21  2  0  0  0
 22 23  1  0  0  0
  2 14  1  0  0  0
  4 15  1  0  0  0
 16 24  1  0  0  0
 17 25  1  0  0  0
M  END
> <minimizedAffinity>
-6.04720

$$$$
4DEW_LU2_A_201


 25 27  0  0  0  0  0  0  0  0999 V2000
   20.4777   43.9046   39.5808 C   0  0  0  0  0  0  0  0  0  0  0  0
   20.6217   45.4030   41.3503 O   0  0  0  0  0  0  0  0  0  0  0  0
   21.0820   44.3198   40.7420 C   0  0  0  0  0  0  0  0  0  0  0  0
   23.6018   41.7675   41.1974 O   0  0  0  0  0  0  0  0  0  0  0  0
   22.1391   43.5885   41.2910 C   0  0  0  0  0  0  0  0  0  0  0  0
   23.2300   40.1191   39.2697 O   0  0  0  0  0  0  0  0  0  0  0  0
   22.5832   42.4436   40.6553 C   0  0  0  0  0  0  0  0  0  0  0  0
   20.2951   42.4082   37.8444 O   0  0  0  0  0  0  0  0  0  0  0  0
   21.9703   42.0155   39.4745 C   0  0  0  0  0  0  0  0  0  0  0  0
   20.9267   42.7486   38.9683 C   0  0  0  0  0  0  0  0  0  0  0  0
   22.3626   40.8696   38.8231 C   0  0  0  0  0  0  0  0  0  0  0  0
   21.6512   40.4753   37.7157 C   0  0  0  0  0  0  0  0  0  0  0  0
   20.6563   41.2868   37.2221 C   0  0  0  0  0  0  0  0  0  0  0  0
   19.9126   45.8862   40.9739 H   0  0  0  0  0  0  0  0  0  0  0  0
   23.9978   42.0728   41.9898 H   0  0  0  0  0  0  0  0  0  0  0  0
   20.1770   40.6638   32.3272 O   0  0  0  0  0  0  0  0  0  0  0  0
   17.6221   39.9916   33.0347 O   0  0  0  0  0  0  0  0  0  0  0  0
   19.9397   40.9541   36.1198 C   0  0  0  0  0  0  0  0  0  0  0  0
   20.4962   40.9730   34.8145 C   0  0  0  0  0  0  0  0  0  0  0  0
   19.7386   40.6524   33.6989 C   0  0  0  0  0  0  0  0  0  0  0  0
   18.4284   40.3190   34.0247 C   0  0  0  0  0  0  0  0  0  0  0  0
   17.8651   40.2947   35.2897 C   0  0  0  0  0  0  0  0  0  0  0  0
   18.6236   40.6192   36.3614 C   0  0  0  0  0  0  0  0  0  0  0  0
   21.0623   40.8901   32.1201 H   0  0  0  0  0  0  0  0  0  0  0  0
   17.9400   39.9879   32.1532 H   0  0  0  0  0  0  0  0  0  0  0  0
  1  3  2  0  0  0
  1 10  1  0  0  0
  2  3  1  0  0  0
  3  5  1  0  0  0
  7  4  1  0  0  0
  5  7  2  0  0  0
 11  6  2  0  0  0
  9  7  1  0  0  0
  8 10  1  0  0  0
  8 13  1  0  0  0
 10  9  2  0  0  0
  9 11  1  0  0  0
 20 16  1  0  0  0
 17 21  1  0  0  0
 12 11  1  0  0  0
 13 12  2  0  0  0
 18 13  1  0  0  0
 23 18  2  0  0  0
 18 19  1  0  0  0
 20 19  2  0  0  0
 21 20  1  0  0  0
 22 21  2  0  0  0
 22 23  1  0  0  0
  2 14  1  0  0  0
  4 15  1  0  0  0
 16 24  1  0  0  0
 17 25  1  0  0  0
M  END
> <minimizedAffinity>
-6.03023

$$$$
4DEW_LU2_A_201


 25 27  0  0  0  0  0  0  0  0999 V2000
   24.5214   45.1215   38.8588 C   0  0  0  0  0  0  0  0  0  0  0  0
   25.9855   46.6850   37.9593 O   0  0  0  0  0  0  0  0  0  0  0  0
   25.0538   45.7628   37.7674 C   0  0  0  0  0  0  0  0  0  0  0  0
   23.3160   44.1287   35.0507 O   0  0  0  0  0  0  0  0  0  0  0  0
   24.6460   45.4192   36.4754 C   0  0  0  0  0  0  0  0  0  0  0  0
   21.8587   42.3447   36.1753 O   0  0  0  0  0  0  0  0  0  0  0  0
   23.6944   44.4319   36.2970 C   0  0  0  0  0  0  0  0  0  0  0  0
   23.1074   43.5498   39.7632 O   0  0  0  0  0  0  0  0  0  0  0  0
   23.1509   43.7747   37.4042 C   0  0  0  0  0  0  0  0  0  0  0  0
   23.5819   44.1263   38.6585 C   0  0  0  0  0  0  0  0  0  0  0  0
   22.2214   42.7698   37.2720 C   0  0  0  0  0  0  0  0  0  0  0  0
   21.8022   42.1186   38.4070 C   0  0  0  0  0  0  0  0  0  0  0  0
   22.2237   42.5604   39.6395 C   0  0  0  0  0  0  0  0  0  0  0  0
   26.2518   46.9080   38.8296 H   0  0  0  0  0  0  0  0  0  0  0  0
   23.6937   44.5823   34.3230 H   0  0  0  0  0  0  0  0  0  0  0  0
   21.8049   38.6289   42.6304 O   0  0  0  0  0  0  0  0  0  0  0  0
   20.4939   40.4344   44.2118 O   0  0  0  0  0  0  0  0  0  0  0  0
   21.8219   41.9664   40.7906 C   0  0  0  0  0  0  0  0  0  0  0  0
   22.0773   40.5992   41.0723 C   0  0  0  0  0  0  0  0  0  0  0  0
   21.6363   40.0061   42.2449 C   0  0  0  0  0  0  0  0  0  0  0  0
   20.9525   40.8964   43.0657 C   0  0  0  0  0  0  0  0  0  0  0  0
   20.6919   42.2325   42.8105 C   0  0  0  0  0  0  0  0  0  0  0  0
   21.1263   42.7856   41.6553 C   0  0  0  0  0  0  0  0  0  0  0  0
   22.2676   38.0385   42.0689 H   0  0  0  0  0  0  0  0  0  0  0  0
   20.6359   39.5384   44.4463 H   0  0  0  0  0  0  0  0  0  0  0  0
  1  3  2  0  0  0
  1 10  1  0  0  0
  2  3  1  0  0  0
  3  5  1  0  0  0
  7  4  1  0  0  0
  5  7  2  0  0  0
 11  6  2  0  0  0
  9  7  1  0  0  0
  8 10  1  0  0  0
  8 13  1  0  0  0
 10  9  2  0  0  0
  9 11  1  0  0  0
 20 16  1  0  0  0
 17 21  1  0  0  0
 12 11  1  0  0  0
 13 12  2  0  0  0
 18 13  1  0  0  0
 23 18  2  0  0  0
 18 19  1  0  0  0
 20 19  2  0  0  0
 21 20  1  0  0  0
 22 21  2  0  0  0
 22 23  1  0  0  0
  2 14  1  0  0  0
  4 15  1  0  0  0
 16 24  1  0  0  0
 17 25  1  0  0  0
M  END
> <minimizedAffinity>
-5.86678

$$$$
4DEW_LU2_A_201


 25 27  0  0  0  0  0  0  0  0999 V2000
   18.7421   39.6650   38.8677 C   0  0  0  0  0  0  0  0  0  0  0  0
   17.2775   38.1000   37.9713 O   0  0  0  0  0  0  0  0  0  0  0  0
   18.2086   39.0225   37.7775 C   0  0  0  0  0  0  0  0  0  0  0  0
   19.9424   40.6551   35.0573 O   0  0  0  0  0  0  0  0  0  0  0  0
   18.6147   39.3652   36.4847 C   0  0  0  0  0  0  0  0  0  0  0  0
   21.4003   42.4407   36.1786 O   0  0  0  0  0  0  0  0  0  0  0  0
   19.5656   40.3528   36.3043 C   0  0  0  0  0  0  0  0  0  0  0  0
   20.1565   41.2380   39.7691 O   0  0  0  0  0  0  0  0  0  0  0  0
   20.1102   41.0112   37.4103 C   0  0  0  0  0  0  0  0  0  0  0  0
   19.6809   40.6603   38.6655 C   0  0  0  0  0  0  0  0  0  0  0  0
   21.0391   42.0163   37.2761 C   0  0  0  0  0  0  0  0  0  0  0  0
   21.4594   42.6687   38.4100 C   0  0  0  0  0  0  0  0  0  0  0  0
   21.0397   42.2277   39.6434 C   0  0  0  0  0  0  0  0  0  0  0  0
   17.0124   37.8777   38.8421 H   0  0  0  0  0  0  0  0  0  0  0  0
   19.5640   40.2008   34.3304 H   0  0  0  0  0  0  0  0  0  0  0  0
   21.4547   46.1603   42.6334 O   0  0  0  0  0  0  0  0  0  0  0  0
   22.7747   44.3585   44.2115 O   0  0  0  0  0  0  0  0  0  0  0  0
   21.4426   42.8228   40.7936 C   0  0  0  0  0  0  0  0  0  0  0  0
   21.1840   44.1893   41.0759 C   0  0  0  0  0  0  0  0  0  0  0  0
   21.6262   44.7836   42.2474 C   0  0  0  0  0  0  0  0  0  0  0  0
   22.3146   43.8952   43.0665 C   0  0  0  0  0  0  0  0  0  0  0  0
   22.5784   42.5599   42.8107 C   0  0  0  0  0  0  0  0  0  0  0  0
   22.1427   42.0055   41.6565 C   0  0  0  0  0  0  0  0  0  0  0  0
   20.9890   46.7495   42.0730 H   0  0  0  0  0  0  0  0  0  0  0  0
   22.6308   45.2541   44.4463 H   0  0  0  0  0  0  0  0  0  0  0  0
  1  3  2  0  0  0
  1 10  1  0  0  0
  2  3  1  0  0  0
  3  5  1  0  0  0
  7  4  1  0  0  0
  5  7  2  0  0  0
 11  6  2  0  0  0
  9  7  1  0  0  0
  8 10  1  0  0  0
  8 13  1  0  0  0
 10  9  2  0  0  0
  9 11  1  0  0  0
 20 16  1  0  0  0
 17 21  1  0  0  0
 12 11  1  0  0  0
 13 12  2  0  0  0
 18 13  1  0  0  0
 23 18  2  0  0  0
 18 19  1  0  0  0
 20 19  2  0  0  0
 21 20  1  0  0  0
 22 21  2  0  0  0
 22 23  1  0  0  0
  2 14  1  0  0  0
  4 15  1  0  0  0
 16 24  1  0  0  0
 17 25  1  0  0  0
M  END
> <minimizedAffinity>
-5.86121

$$$$
4DEW_LU2_A_201


 25 27  0  0  0  0  0  0  0  0999 V2000
   20.8005   40.7938   32.2705 C   0  0  0  0  0  0  0  0  0  0  0  0
   21.1191   40.4252   29.9990 O   0  0  0  0  0  0  0  0  0  0  0  0
   20.3127   40.3966   31.0498 C   0  0  0  0  0  0  0  0  0  0  0  0
   16.9297   39.4450   31.8988 O   0  0  0  0  0  0  0  0  0  0  0  0
   18.9993   39.9340   30.9283 C   0  0  0  0  0  0  0  0  0  0  0  0
   16.7704   39.7624   34.4375 O   0  0  0  0  0  0  0  0  0  0  0  0
   18.1846   39.8836   32.0445 C   0  0  0  0  0  0  0  0  0  0  0  0
   20.5144   41.1258   34.5278 O   0  0  0  0  0  0  0  0  0  0  0  0
   18.6767   40.2846   33.2896 C   0  0  0  0  0  0  0  0  0  0  0  0
   19.9745   40.7216   33.3776 C   0  0  0  0  0  0  0  0  0  0  0  0
   17.9100   40.2272   34.4298 C   0  0  0  0  0  0  0  0  0  0  0  0
   18.4982   40.5600   35.6262 C   0  0  0  0  0  0  0  0  0  0  0  0
   19.7831   41.0507   35.6391 C   0  0  0  0  0  0  0  0  0  0  0  0
   21.9978   40.7372   30.0911 H   0  0  0  0  0  0  0  0  0  0  0  0
   16.6207   39.1811   31.0545 H   0  0  0  0  0  0  0  0  0  0  0  0
   20.2065   41.0449   40.5786 O   0  0  0  0  0  0  0  0  0  0  0  0
   22.3449   42.6588   40.0288 O   0  0  0  0  0  0  0  0  0  0  0  0
   20.4010   41.4140   36.7904 C   0  0  0  0  0  0  0  0  0  0  0  0
   19.9511   40.9834   38.0656 C   0  0  0  0  0  0  0  0  0  0  0  0
   20.5833   41.3866   39.2313 C   0  0  0  0  0  0  0  0  0  0  0  0
   21.6683   42.2211   38.9856 C   0  0  0  0  0  0  0  0  0  0  0  0
   22.1237   42.6537   37.7513 C   0  0  0  0  0  0  0  0  0  0  0  0
   21.4846   42.2522   36.6290 C   0  0  0  0  0  0  0  0  0  0  0  0
   19.4735   40.4816   40.7314 H   0  0  0  0  0  0  0  0  0  0  0  0
   22.0894   42.4038   40.8935 H   0  0  0  0  0  0  0  0  0  0  0  0
  1  3  2  0  0  0
  1 10  1  0  0  0
  2  3  1  0  0  0
  3  5  1  0  0  0
  7  4  1  0  0  0
  5  7  2  0  0  0
 11  6  2  0  0  0
  9  7  1  0  0  0
  8 10  1  0  0  0
  8 13  1  0  0  0
 10  9  2  0  0  0
  9 11  1  0  0  0
 20 16  1  0  0  0
 17 21  1  0  0  0
 12 11  1  0  0  0
 13 12  2  0  0  0
 18 13  1  0  0  0
 23 18  2  0  0  0
 18 19  1  0  0  0
 20 19  2  0  0  0
 21 20  1  0  0  0
 22 21  2  0  0  0
 22 23  1  0  0  0
  2 14  1  0  0  0
  4 15  1  0  0  0
 16 24  1  0  0  0
 17 25  1  0  0  0
M  END
> <minimizedAffinity>
-5.72320

$$$$
4DEW_LU2_A_201


 25 27  0  0  0  0  0  0  0  0999 V2000
   22.4753   43.9714   32.2590 C   0  0  0  0  0  0  0  0  0  0  0  0
   22.1630   44.3241   29.9840 O   0  0  0  0  0  0  0  0  0  0  0  0
   22.9656   44.3628   31.0374 C   0  0  0  0  0  0  0  0  0  0  0  0
   26.3418   45.3337   31.8919 O   0  0  0  0  0  0  0  0  0  0  0  0
   24.2775   44.8300   30.9175 C   0  0  0  0  0  0  0  0  0  0  0  0
   26.4937   45.0332   34.4331 O   0  0  0  0  0  0  0  0  0  0  0  0
   25.0882   44.8909   32.0361 C   0  0  0  0  0  0  0  0  0  0  0  0
   22.7550   43.6550   34.5193 O   0  0  0  0  0  0  0  0  0  0  0  0
   24.5934   44.4958   33.2821 C   0  0  0  0  0  0  0  0  0  0  0  0
   23.2971   44.0541   33.3684 C   0  0  0  0  0  0  0  0  0  0  0  0
   25.3559   44.5636   34.4245 C   0  0  0  0  0  0  0  0  0  0  0  0
   24.7650   44.2361   35.6209 C   0  0  0  0  0  0  0  0  0  0  0  0
   23.4821   43.7402   35.6326 C   0  0  0  0  0  0  0  0  0  0  0  0
   21.2852   44.0092   30.0751 H   0  0  0  0  0  0  0  0  0  0  0  0
   26.6526   45.5934   31.0470 H   0  0  0  0  0  0  0  0  0  0  0  0
   23.0463   43.7694   40.5709 O   0  0  0  0  0  0  0  0  0  0  0  0
   20.9111   42.1505   40.0236 O   0  0  0  0  0  0  0  0  0  0  0  0
   22.8617   43.3818   36.7841 C   0  0  0  0  0  0  0  0  0  0  0  0
   23.3079   43.8191   38.0583 C   0  0  0  0  0  0  0  0  0  0  0  0
   22.6732   43.4208   39.2244 C   0  0  0  0  0  0  0  0  0  0  0  0
   21.5898   42.5839   38.9800 C   0  0  0  0  0  0  0  0  0  0  0  0
   21.1380   42.1448   37.7466 C   0  0  0  0  0  0  0  0  0  0  0  0
   21.7795   42.5416   36.6240 C   0  0  0  0  0  0  0  0  0  0  0  0
   23.7783   44.3342   40.7229 H   0  0  0  0  0  0  0  0  0  0  0  0
   21.1641   42.4099   40.8876 H   0  0  0  0  0  0  0  0  0  0  0  0
  1  3  2  0  0  0
  1 10  1  0  0  0
  2  3  1  0  0  0
  3  5  1  0  0  0
  7  4  1  0  0  0
  5  7  2  0  0  0
 11  6  2  0  0  0
  9  7  1  0  0  0
  8 10  1  0  0  0
  8 13  1  0  0  0
 10  9  2  0  0  0
  9 11  1  0  0  0
 20 16  1  0  0  0
 17 21  1  0  0  0
 12 11  1  0  0  0
 13 12  2  0  0  0
 18 13  1  0  0  0
 23 18  2  0  0  0
 18 19  1  0  0  0
 20 19  2  0  0  0
 21 20  1  0  0  0
 22 21  2  0  0  0
 22 23  1  0  0  0
  2 14  1  0  0  0
  4 15  1  0  0  0
 16 24  1  0  0  0
 17 25  1  0  0  0
M  END
> <minimizedAffinity>
-5.71823

$$$$
