6DJ7_G10_B_201


 44 47  0  0  0  0  0  0  0  0999 V2000
   12.1052   20.1032   15.9957 C   0  0  0  0  0  0  0  0  0  0  0  0
   11.1959   18.9519   15.9968 N   0  0  0  0  0  0  0  0  0  0  0  0
   11.2263   17.9394   16.8748 C   0  0  0  0  0  0  0  0  0  0  0  0
   12.0682   17.9042   17.7946 O   0  0  0  0  0  0  0  0  0  0  0  0
   10.5064   18.9203   15.2948 H   0  0  0  0  0  0  0  0  0  0  0  0
   10.2814   16.9958   16.6346 O   0  0  0  0  0  0  0  0  0  0  0  0
    9.4809   17.1455   15.4503 C   0  0  0  0  0  0  0  0  0  0  0  0
    9.7050   15.9060   14.5846 C   0  0  0  0  0  0  0  0  0  0  0  0
    8.9650   14.8459   15.2007 O   0  0  0  0  0  0  0  0  0  0  0  0
    7.8246   15.4311   15.8187 C   0  0  0  0  0  0  0  0  0  0  0  0
    7.8220   15.0212   17.1874 O   0  0  0  0  0  0  0  0  0  0  0  0
    7.9093   16.1229   18.0901 C   0  0  0  0  0  0  0  0  0  0  0  0
    7.5883   17.3118   17.2106 C   0  0  0  0  0  0  0  0  0  0  0  0
    7.9943   16.9309   15.8103 C   0  0  0  0  0  0  0  0  0  0  0  0
    8.1966   18.4498   17.6147 F   0  0  0  0  0  0  0  0  0  0  0  0
    6.2461   17.5089   17.2742 F   0  0  0  0  0  0  0  0  0  0  0  0
   11.4776   21.2772   16.7580 C   0  0  0  0  0  0  0  0  0  0  0  0
   10.8143   22.1627   15.8369 O   0  0  0  0  0  0  0  0  0  0  0  0
   11.4681   22.5536   15.2365 H   0  0  0  0  0  0  0  0  0  0  0  0
   12.4205   22.0303   17.6843 C   0  0  0  0  0  0  0  0  0  0  0  0
   12.4916   21.4149   18.9867 N   0  0  0  0  0  0  0  0  0  0  0  0
   14.0157   21.3128   19.5781 S   0  0  0  0  0  0  0  0  0  0  0  0
   14.7241   20.1851   19.0032 O   0  0  0  0  0  0  0  0  0  0  0  0
   13.8713   21.3388   21.0410 O   0  0  0  0  0  0  0  0  0  0  0  0
   16.8044   26.2173   17.8857 N   0  0  0  0  0  0  0  0  0  0  0  0
   16.1730   25.1024   18.2628 C   0  0  0  0  0  0  0  0  0  0  0  0
   15.2340   25.1276   19.2871 C   0  0  0  0  0  0  0  0  0  0  0  0
   14.5476   24.0090   19.7228 C   0  0  0  0  0  0  0  0  0  0  0  0
   14.8377   22.7998   19.0892 C   0  0  0  0  0  0  0  0  0  0  0  0
   15.7911   22.7463   18.0863 C   0  0  0  0  0  0  0  0  0  0  0  0
   16.4747   23.8815   17.6575 C   0  0  0  0  0  0  0  0  0  0  0  0
   16.5873   27.0756   18.3163 H   0  0  0  0  0  0  0  0  0  0  0  0
   17.4870   26.1809   17.1771 H   0  0  0  0  0  0  0  0  0  0  0  0
   11.4595   21.6027   19.9722 C   0  0  0  0  0  0  0  0  0  0  0  0
   10.3497   20.5452   19.8705 C   0  0  0  0  0  0  0  0  0  0  0  0
   10.6838   19.3187   20.7237 C   0  0  0  0  0  0  0  0  0  0  0  0
    8.9819   21.1342   20.2672 C   0  0  0  0  0  0  0  0  0  0  0  0
   12.3838   20.4669   14.5318 C   0  0  0  0  0  0  0  0  0  0  0  0
   14.8239   20.3395   15.1079 C   0  0  0  0  0  0  0  0  0  0  0  0
   16.1421   20.7180   14.9634 C   0  0  0  0  0  0  0  0  0  0  0  0
   16.5056   21.6947   14.0341 C   0  0  0  0  0  0  0  0  0  0  0  0
   15.5276   22.2323   13.2098 C   0  0  0  0  0  0  0  0  0  0  0  0
   14.1839   21.8650   13.3467 C   0  0  0  0  0  0  0  0  0  0  0  0
   13.8253   20.9132   14.3082 C   0  0  0  0  0  0  0  0  0  0  0  0
 41 42  2  0  0  0
 41 40  1  0  0  0
 42 43  1  0  0  0
 40 39  2  0  0  0
 25 26  1  0  0  0
 43 44  2  0  0  0
 27 26  2  0  0  0
 27 28  1  0  0  0
 26 31  1  0  0  0
 28 29  2  0  0  0
 39 44  1  0  0  0
 44 38  1  0  0  0
 23 22  2  0  0  0
 31 30  2  0  0  0
 29 30  1  0  0  0
 29 22  1  0  0  0
 38  1  1  0  0  0
 16 13  1  0  0  0
 22 24  2  0  0  0
 22 21  1  0  0  0
 15 13  1  0  0  0
 13 12  1  0  0  0
 13 14  1  0  0  0
  1  2  1  0  0  0
  1 17  1  0  0  0
 12 11  1  0  0  0
 20 21  1  0  0  0
 20 17  1  0  0  0
 21 34  1  0  0  0
  2  3  1  0  0  0
  4  3  2  0  0  0
 17 18  1  0  0  0
  3  6  1  0  0  0
 14 10  1  0  0  0
 14  7  1  0  0  0
 11 10  1  0  0  0
 34 35  1  0  0  0
  6  7  1  0  0  0
 10  9  1  0  0  0
  7  8  1  0  0  0
 36 35  1  0  0  0
 35 37  1  0  0  0
  9  8  1  0  0  0
 25 32  1  0  0  0
 25 33  1  0  0  0
 18 19  1  0  0  0
  2  5  1  0  0  0
M  END
> <minimizedAffinity>
-10.05657

$$$$
6DJ7_G10_B_201


 44 47  0  0  0  0  0  0  0  0999 V2000
   11.5004   19.0402   18.4356 C   0  0  0  0  0  0  0  0  0  0  0  0
   10.7975   17.9019   17.8333 N   0  0  0  0  0  0  0  0  0  0  0  0
   10.3506   17.8453   16.5708 C   0  0  0  0  0  0  0  0  0  0  0  0
   10.5088   18.8001   15.7837 O   0  0  0  0  0  0  0  0  0  0  0  0
   10.6412   17.1147   18.4034 H   0  0  0  0  0  0  0  0  0  0  0  0
    9.7193   16.6801   16.2796 O   0  0  0  0  0  0  0  0  0  0  0  0
    8.8178   16.6762   15.1601 C   0  0  0  0  0  0  0  0  0  0  0  0
    8.9640   15.3269   14.4573 C   0  0  0  0  0  0  0  0  0  0  0  0
    8.2803   14.3709   15.2757 O   0  0  0  0  0  0  0  0  0  0  0  0
    7.1991   15.0500   15.9040 C   0  0  0  0  0  0  0  0  0  0  0  0
    7.3166   14.8319   17.3111 O   0  0  0  0  0  0  0  0  0  0  0  0
    7.4838   16.0458   18.0423 C   0  0  0  0  0  0  0  0  0  0  0  0
    7.0876   17.1068   17.0386 C   0  0  0  0  0  0  0  0  0  0  0  0
    7.3686   16.5322   15.6742 C   0  0  0  0  0  0  0  0  0  0  0  0
    7.7299   18.2816   17.2277 F   0  0  0  0  0  0  0  0  0  0  0  0
    5.7564   17.3280   17.1911 F   0  0  0  0  0  0  0  0  0  0  0  0
   13.0128   18.9087   18.2143 C   0  0  0  0  0  0  0  0  0  0  0  0
   13.5059   17.7301   18.8777 O   0  0  0  0  0  0  0  0  0  0  0  0
   13.3836   17.8232   19.8355 H   0  0  0  0  0  0  0  0  0  0  0  0
   13.8320   20.1404   18.5696 C   0  0  0  0  0  0  0  0  0  0  0  0
   13.6586   21.1934   17.5995 N   0  0  0  0  0  0  0  0  0  0  0  0
   12.8138   22.4750   18.1712 S   0  0  0  0  0  0  0  0  0  0  0  0
   11.8523   22.0604   19.1752 O   0  0  0  0  0  0  0  0  0  0  0  0
   12.2877   23.1601   16.9816 O   0  0  0  0  0  0  0  0  0  0  0  0
   16.7541   25.9853   20.7878 N   0  0  0  0  0  0  0  0  0  0  0  0
   15.8636   25.1835   20.1979 C   0  0  0  0  0  0  0  0  0  0  0  0
   15.2972   25.5257   18.9757 C   0  0  0  0  0  0  0  0  0  0  0  0
   14.3711   24.7394   18.3153 C   0  0  0  0  0  0  0  0  0  0  0  0
   13.9949   23.5465   18.9345 C   0  0  0  0  0  0  0  0  0  0  0  0
   14.5244   23.2001   20.1663 C   0  0  0  0  0  0  0  0  0  0  0  0
   15.4568   24.0021   20.8199 C   0  0  0  0  0  0  0  0  0  0  0  0
   17.0372   26.8173   20.3442 H   0  0  0  0  0  0  0  0  0  0  0  0
   17.1275   25.7442   21.6663 H   0  0  0  0  0  0  0  0  0  0  0  0
   14.6758   21.5083   16.6311 C   0  0  0  0  0  0  0  0  0  0  0  0
   14.5923   20.6201   15.3803 C   0  0  0  0  0  0  0  0  0  0  0  0
   13.3209   20.9193   14.5816 C   0  0  0  0  0  0  0  0  0  0  0  0
   15.8458   20.7819   14.4984 C   0  0  0  0  0  0  0  0  0  0  0  0
   11.1494   19.0587   19.9287 C   0  0  0  0  0  0  0  0  0  0  0  0
    9.0478   18.1807   20.9843 C   0  0  0  0  0  0  0  0  0  0  0  0
    7.6898   18.2047   21.2233 C   0  0  0  0  0  0  0  0  0  0  0  0
    6.8812   19.1842   20.6432 C   0  0  0  0  0  0  0  0  0  0  0  0
    7.4753   20.1746   19.8745 C   0  0  0  0  0  0  0  0  0  0  0  0
    8.8509   20.1624   19.6159 C   0  0  0  0  0  0  0  0  0  0  0  0
    9.6462   19.1533   20.1710 C   0  0  0  0  0  0  0  0  0  0  0  0
 41 42  2  0  0  0
 41 40  1  0  0  0
 42 43  1  0  0  0
 40 39  2  0  0  0
 25 26  1  0  0  0
 43 44  2  0  0  0
 27 26  2  0  0  0
 27 28  1  0  0  0
 26 31  1  0  0  0
 28 29  2  0  0  0
 39 44  1  0  0  0
 44 38  1  0  0  0
 23 22  2  0  0  0
 31 30  2  0  0  0
 29 30  1  0  0  0
 29 22  1  0  0  0
 38  1  1  0  0  0
 16 13  1  0  0  0
 22 24  2  0  0  0
 22 21  1  0  0  0
 15 13  1  0  0  0
 13 12  1  0  0  0
 13 14  1  0  0  0
  1  2  1  0  0  0
  1 17  1  0  0  0
 12 11  1  0  0  0
 20 21  1  0  0  0
 20 17  1  0  0  0
 21 34  1  0  0  0
  2  3  1  0  0  0
  4  3  2  0  0  0
 17 18  1  0  0  0
  3  6  1  0  0  0
 14 10  1  0  0  0
 14  7  1  0  0  0
 11 10  1  0  0  0
 34 35  1  0  0  0
  6  7  1  0  0  0
 10  9  1  0  0  0
  7  8  1  0  0  0
 36 35  1  0  0  0
 35 37  1  0  0  0
  9  8  1  0  0  0
 25 32  1  0  0  0
 25 33  1  0  0  0
 18 19  1  0  0  0
  2  5  1  0  0  0
M  END
> <minimizedAffinity>
-9.96696

$$$$
6DJ7_G10_B_201


 44 47  0  0  0  0  0  0  0  0999 V2000
    9.2855   19.6270   19.7108 C   0  0  0  0  0  0  0  0  0  0  0  0
    9.4590   18.6798   18.6040 N   0  0  0  0  0  0  0  0  0  0  0  0
    8.4776   18.2185   17.8159 C   0  0  0  0  0  0  0  0  0  0  0  0
    7.2942   18.5795   17.9757 O   0  0  0  0  0  0  0  0  0  0  0  0
   10.3714   18.3562   18.4252 H   0  0  0  0  0  0  0  0  0  0  0  0
    8.9136   17.3383   16.8799 O   0  0  0  0  0  0  0  0  0  0  0  0
    9.0457   17.8162   15.5309 C   0  0  0  0  0  0  0  0  0  0  0  0
   10.5015   17.6133   15.1121 C   0  0  0  0  0  0  0  0  0  0  0  0
   10.6535   16.2135   14.8505 O   0  0  0  0  0  0  0  0  0  0  0  0
    9.4051   15.7379   14.3606 C   0  0  0  0  0  0  0  0  0  0  0  0
    9.0197   14.6296   15.1757 O   0  0  0  0  0  0  0  0  0  0  0  0
    7.7849   14.8517   15.8554 C   0  0  0  0  0  0  0  0  0  0  0  0
    7.2023   16.0426   15.1258 C   0  0  0  0  0  0  0  0  0  0  0  0
    8.3692   16.8160   14.5680 C   0  0  0  0  0  0  0  0  0  0  0  0
    6.4209   16.8162   15.9128 F   0  0  0  0  0  0  0  0  0  0  0  0
    6.4325   15.5593   14.1168 F   0  0  0  0  0  0  0  0  0  0  0  0
   10.3708   20.7101   19.6588 C   0  0  0  0  0  0  0  0  0  0  0  0
    9.8552   21.9478   20.1830 O   0  0  0  0  0  0  0  0  0  0  0  0
    9.1351   22.2643   19.6154 H   0  0  0  0  0  0  0  0  0  0  0  0
   11.0323   20.9040   18.3027 C   0  0  0  0  0  0  0  0  0  0  0  0
   12.4688   20.9663   18.4149 N   0  0  0  0  0  0  0  0  0  0  0  0
   13.2336   19.6960   17.7189 S   0  0  0  0  0  0  0  0  0  0  0  0
   12.3273   18.5784   17.5345 O   0  0  0  0  0  0  0  0  0  0  0  0
   14.4300   19.4606   18.5402 O   0  0  0  0  0  0  0  0  0  0  0  0
   15.1102   21.5271   12.4444 N   0  0  0  0  0  0  0  0  0  0  0  0
   14.6904   21.1074   13.6408 C   0  0  0  0  0  0  0  0  0  0  0  0
   13.3439   21.1590   13.9814 C   0  0  0  0  0  0  0  0  0  0  0  0
   12.8475   20.7402   15.2022 C   0  0  0  0  0  0  0  0  0  0  0  0
   13.7699   20.2513   16.1284 C   0  0  0  0  0  0  0  0  0  0  0  0
   15.1198   20.2185   15.8212 C   0  0  0  0  0  0  0  0  0  0  0  0
   15.6056   20.6435   14.5870 C   0  0  0  0  0  0  0  0  0  0  0  0
   14.4598   21.8532   11.7811 H   0  0  0  0  0  0  0  0  0  0  0  0
   16.0699   21.5104   12.2257 H   0  0  0  0  0  0  0  0  0  0  0  0
   13.1805   22.2164   18.3657 C   0  0  0  0  0  0  0  0  0  0  0  0
   14.4453   22.2079   19.2377 C   0  0  0  0  0  0  0  0  0  0  0  0
   15.6234   22.8468   18.4977 C   0  0  0  0  0  0  0  0  0  0  0  0
   14.1964   22.9123   20.5857 C   0  0  0  0  0  0  0  0  0  0  0  0
    9.3529   18.8248   21.0165 C   0  0  0  0  0  0  0  0  0  0  0  0
    7.9402   16.9244   21.8503 C   0  0  0  0  0  0  0  0  0  0  0  0
    6.7380   16.3525   22.2101 C   0  0  0  0  0  0  0  0  0  0  0  0
    5.5501   17.0823   22.1332 C   0  0  0  0  0  0  0  0  0  0  0  0
    5.6060   18.4151   21.7518 C   0  0  0  0  0  0  0  0  0  0  0  0
    6.8161   19.0102   21.3768 C   0  0  0  0  0  0  0  0  0  0  0  0
    7.9955   18.2578   21.4206 C   0  0  0  0  0  0  0  0  0  0  0  0
 41 42  2  0  0  0
 41 40  1  0  0  0
 42 43  1  0  0  0
 40 39  2  0  0  0
 25 26  1  0  0  0
 43 44  2  0  0  0
 27 26  2  0  0  0
 27 28  1  0  0  0
 26 31  1  0  0  0
 28 29  2  0  0  0
 39 44  1  0  0  0
 44 38  1  0  0  0
 23 22  2  0  0  0
 31 30  2  0  0  0
 29 30  1  0  0  0
 29 22  1  0  0  0
 38  1  1  0  0  0
 16 13  1  0  0  0
 22 24  2  0  0  0
 22 21  1  0  0  0
 15 13  1  0  0  0
 13 12  1  0  0  0
 13 14  1  0  0  0
  1  2  1  0  0  0
  1 17  1  0  0  0
 12 11  1  0  0  0
 20 21  1  0  0  0
 20 17  1  0  0  0
 21 34  1  0  0  0
  2  3  1  0  0  0
  4  3  2  0  0  0
 17 18  1  0  0  0
  3  6  1  0  0  0
 14 10  1  0  0  0
 14  7  1  0  0  0
 11 10  1  0  0  0
 34 35  1  0  0  0
  6  7  1  0  0  0
 10  9  1  0  0  0
  7  8  1  0  0  0
 36 35  1  0  0  0
 35 37  1  0  0  0
  9  8  1  0  0  0
 25 32  1  0  0  0
 25 33  1  0  0  0
 18 19  1  0  0  0
  2  5  1  0  0  0
M  END
> <minimizedAffinity>
-9.47317

$$$$
6DJ7_G10_B_201


 44 47  0  0  0  0  0  0  0  0999 V2000
   11.8910   19.6757   18.2452 C   0  0  0  0  0  0  0  0  0  0  0  0
   11.0461   18.5430   17.8506 N   0  0  0  0  0  0  0  0  0  0  0  0
   10.7843   18.1721   16.5893 C   0  0  0  0  0  0  0  0  0  0  0  0
   11.2632   18.7922   15.6186 O   0  0  0  0  0  0  0  0  0  0  0  0
   10.6377   18.0115   18.5717 H   0  0  0  0  0  0  0  0  0  0  0  0
    9.9577   17.0991   16.5090 O   0  0  0  0  0  0  0  0  0  0  0  0
    9.0642   17.0332   15.3851 C   0  0  0  0  0  0  0  0  0  0  0  0
    9.3293   15.7119   14.6642 C   0  0  0  0  0  0  0  0  0  0  0  0
    8.7279   14.6886   15.4657 O   0  0  0  0  0  0  0  0  0  0  0  0
    7.5896   15.2625   16.0980 C   0  0  0  0  0  0  0  0  0  0  0  0
    7.7203   15.0352   17.5025 O   0  0  0  0  0  0  0  0  0  0  0  0
    7.7789   16.2484   18.2514 C   0  0  0  0  0  0  0  0  0  0  0  0
    7.2960   17.2854   17.2607 C   0  0  0  0  0  0  0  0  0  0  0  0
    7.6309   16.7569   15.8898 C   0  0  0  0  0  0  0  0  0  0  0  0
    7.8334   18.5086   17.4693 F   0  0  0  0  0  0  0  0  0  0  0  0
    5.9501   17.3883   17.4095 F   0  0  0  0  0  0  0  0  0  0  0  0
   13.3695   19.3459   18.0028 C   0  0  0  0  0  0  0  0  0  0  0  0
   13.6863   18.0620   18.5719 O   0  0  0  0  0  0  0  0  0  0  0  0
   13.5756   18.0990   19.5349 H   0  0  0  0  0  0  0  0  0  0  0  0
   14.3559   20.4170   18.4435 C   0  0  0  0  0  0  0  0  0  0  0  0
   14.2935   21.5805   17.5935 N   0  0  0  0  0  0  0  0  0  0  0  0
   14.1407   21.2196   16.0031 S   0  0  0  0  0  0  0  0  0  0  0  0
   12.8139   21.5496   15.5182 O   0  0  0  0  0  0  0  0  0  0  0  0
   14.5724   19.8201   15.8752 O   0  0  0  0  0  0  0  0  0  0  0  0
   18.0044   24.5740   13.0850 N   0  0  0  0  0  0  0  0  0  0  0  0
   17.1229   23.8157   13.7423 C   0  0  0  0  0  0  0  0  0  0  0  0
   17.3366   23.4637   15.0698 C   0  0  0  0  0  0  0  0  0  0  0  0
   16.4631   22.6825   15.8037 C   0  0  0  0  0  0  0  0  0  0  0  0
   15.3162   22.2283   15.1509 C   0  0  0  0  0  0  0  0  0  0  0  0
   15.0978   22.5425   13.8199 C   0  0  0  0  0  0  0  0  0  0  0  0
   15.9866   23.3308   13.0930 C   0  0  0  0  0  0  0  0  0  0  0  0
   18.8041   24.9131   13.5484 H   0  0  0  0  0  0  0  0  0  0  0  0
   17.8545   24.7937   12.1371 H   0  0  0  0  0  0  0  0  0  0  0  0
   13.6452   22.7945   18.0150 C   0  0  0  0  0  0  0  0  0  0  0  0
   14.5601   23.6832   18.8713 C   0  0  0  0  0  0  0  0  0  0  0  0
   14.2693   25.1657   18.6237 C   0  0  0  0  0  0  0  0  0  0  0  0
   14.4271   23.3399   20.3679 C   0  0  0  0  0  0  0  0  0  0  0  0
   11.6134   19.9616   19.7264 C   0  0  0  0  0  0  0  0  0  0  0  0
    9.7724   18.7007   20.8768 C   0  0  0  0  0  0  0  0  0  0  0  0
    8.4523   18.4904   21.2156 C   0  0  0  0  0  0  0  0  0  0  0  0
    7.4531   19.3517   20.7580 C   0  0  0  0  0  0  0  0  0  0  0  0
    7.8165   20.4626   20.0105 C   0  0  0  0  0  0  0  0  0  0  0  0
    9.1505   20.6883   19.6517 C   0  0  0  0  0  0  0  0  0  0  0  0
   10.1394   19.7969   20.0835 C   0  0  0  0  0  0  0  0  0  0  0  0
 41 42  2  0  0  0
 41 40  1  0  0  0
 42 43  1  0  0  0
 40 39  2  0  0  0
 25 26  1  0  0  0
 43 44  2  0  0  0
 27 26  2  0  0  0
 27 28  1  0  0  0
 26 31  1  0  0  0
 28 29  2  0  0  0
 39 44  1  0  0  0
 44 38  1  0  0  0
 23 22  2  0  0  0
 31 30  2  0  0  0
 29 30  1  0  0  0
 29 22  1  0  0  0
 38  1  1  0  0  0
 16 13  1  0  0  0
 22 24  2  0  0  0
 22 21  1  0  0  0
 15 13  1  0  0  0
 13 12  1  0  0  0
 13 14  1  0  0  0
  1  2  1  0  0  0
  1 17  1  0  0  0
 12 11  1  0  0  0
 20 21  1  0  0  0
 20 17  1  0  0  0
 21 34  1  0  0  0
  2  3  1  0  0  0
  4  3  2  0  0  0
 17 18  1  0  0  0
  3  6  1  0  0  0
 14 10  1  0  0  0
 14  7  1  0  0  0
 11 10  1  0  0  0
 34 35  1  0  0  0
  6  7  1  0  0  0
 10  9  1  0  0  0
  7  8  1  0  0  0
 36 35  1  0  0  0
 35 37  1  0  0  0
  9  8  1  0  0  0
 25 32  1  0  0  0
 25 33  1  0  0  0
 18 19  1  0  0  0
  2  5  1  0  0  0
M  END
> <minimizedAffinity>
-9.44693

$$$$
6DJ7_G10_B_201


 44 47  0  0  0  0  0  0  0  0999 V2000
    9.7367   19.1092   19.7710 C   0  0  0  0  0  0  0  0  0  0  0  0
    9.5604   18.1249   18.6974 N   0  0  0  0  0  0  0  0  0  0  0  0
    8.5797   18.1401   17.7837 C   0  0  0  0  0  0  0  0  0  0  0  0
    7.7090   19.0333   17.7821 O   0  0  0  0  0  0  0  0  0  0  0  0
   10.2165   17.3929   18.6436 H   0  0  0  0  0  0  0  0  0  0  0  0
    8.6432   17.0997   16.9150 O   0  0  0  0  0  0  0  0  0  0  0  0
    8.6333   17.4068   15.5109 C   0  0  0  0  0  0  0  0  0  0  0  0
    9.9175   16.8390   14.9074 C   0  0  0  0  0  0  0  0  0  0  0  0
    9.7246   15.4232   14.8099 O   0  0  0  0  0  0  0  0  0  0  0  0
    8.3379   15.2013   14.5798 C   0  0  0  0  0  0  0  0  0  0  0  0
    7.8785   14.2911   15.5808 O   0  0  0  0  0  0  0  0  0  0  0  0
    6.8567   14.8515   16.4043 C   0  0  0  0  0  0  0  0  0  0  0  0
    6.4175   16.0704   15.6224 C   0  0  0  0  0  0  0  0  0  0  0  0
    7.6038   16.5018   14.7993 C   0  0  0  0  0  0  0  0  0  0  0  0
    5.9662   17.0719   16.4110 F   0  0  0  0  0  0  0  0  0  0  0  0
    5.3984   15.6834   14.8125 F   0  0  0  0  0  0  0  0  0  0  0  0
   11.0970   19.8056   19.6357 C   0  0  0  0  0  0  0  0  0  0  0  0
   11.8074   19.7432   20.8862 O   0  0  0  0  0  0  0  0  0  0  0  0
   11.3190   20.2405   21.5608 H   0  0  0  0  0  0  0  0  0  0  0  0
   11.0507   21.2224   19.0835 C   0  0  0  0  0  0  0  0  0  0  0  0
   12.1655   21.4895   18.2084 N   0  0  0  0  0  0  0  0  0  0  0  0
   11.8850   21.0746   16.6488 S   0  0  0  0  0  0  0  0  0  0  0  0
   11.0412   22.0547   15.9917 O   0  0  0  0  0  0  0  0  0  0  0  0
   11.3940   19.6896   16.6936 O   0  0  0  0  0  0  0  0  0  0  0  0
   17.1543   20.9559   14.0189 N   0  0  0  0  0  0  0  0  0  0  0  0
   15.9592   20.9754   14.6152 C   0  0  0  0  0  0  0  0  0  0  0  0
   15.1059   22.0620   14.4642 C   0  0  0  0  0  0  0  0  0  0  0  0
   13.8581   22.1421   15.0549 C   0  0  0  0  0  0  0  0  0  0  0  0
   13.4610   21.0642   15.8476 C   0  0  0  0  0  0  0  0  0  0  0  0
   14.3074   19.9845   16.0357 C   0  0  0  0  0  0  0  0  0  0  0  0
   15.5618   19.9174   15.4341 C   0  0  0  0  0  0  0  0  0  0  0  0
   17.4291   21.7051   13.4424 H   0  0  0  0  0  0  0  0  0  0  0  0
   17.7603   20.1921   14.1559 H   0  0  0  0  0  0  0  0  0  0  0  0
   13.0231   22.6298   18.3980 C   0  0  0  0  0  0  0  0  0  0  0  0
   14.3006   22.2818   19.1771 C   0  0  0  0  0  0  0  0  0  0  0  0
   15.5464   22.7538   18.4226 C   0  0  0  0  0  0  0  0  0  0  0  0
   14.2632   22.8734   20.5997 C   0  0  0  0  0  0  0  0  0  0  0  0
    9.6176   18.3606   21.1045 C   0  0  0  0  0  0  0  0  0  0  0  0
    7.1851   18.9563   21.2778 C   0  0  0  0  0  0  0  0  0  0  0  0
    5.8684   18.6726   21.5741 C   0  0  0  0  0  0  0  0  0  0  0  0
    5.5005   17.4127   22.0505 C   0  0  0  0  0  0  0  0  0  0  0  0
    6.4713   16.4274   22.1586 C   0  0  0  0  0  0  0  0  0  0  0  0
    7.8135   16.6992   21.8687 C   0  0  0  0  0  0  0  0  0  0  0  0
    8.1771   17.9772   21.4288 C   0  0  0  0  0  0  0  0  0  0  0  0
 41 42  2  0  0  0
 41 40  1  0  0  0
 42 43  1  0  0  0
 40 39  2  0  0  0
 25 26  1  0  0  0
 43 44  2  0  0  0
 27 26  2  0  0  0
 27 28  1  0  0  0
 26 31  1  0  0  0
 28 29  2  0  0  0
 39 44  1  0  0  0
 44 38  1  0  0  0
 23 22  2  0  0  0
 31 30  2  0  0  0
 29 30  1  0  0  0
 29 22  1  0  0  0
 38  1  1  0  0  0
 16 13  1  0  0  0
 22 24  2  0  0  0
 22 21  1  0  0  0
 15 13  1  0  0  0
 13 12  1  0  0  0
 13 14  1  0  0  0
  1  2  1  0  0  0
  1 17  1  0  0  0
 12 11  1  0  0  0
 20 21  1  0  0  0
 20 17  1  0  0  0
 21 34  1  0  0  0
  2  3  1  0  0  0
  4  3  2  0  0  0
 17 18  1  0  0  0
  3  6  1  0  0  0
 14 10  1  0  0  0
 14  7  1  0  0  0
 11 10  1  0  0  0
 34 35  1  0  0  0
  6  7  1  0  0  0
 10  9  1  0  0  0
  7  8  1  0  0  0
 36 35  1  0  0  0
 35 37  1  0  0  0
  9  8  1  0  0  0
 25 32  1  0  0  0
 25 33  1  0  0  0
 18 19  1  0  0  0
  2  5  1  0  0  0
M  END
> <minimizedAffinity>
-9.44595

$$$$
6DJ7_G10_B_201


 44 47  0  0  0  0  0  0  0  0999 V2000
   12.6457   21.3445   17.3079 C   0  0  0  0  0  0  0  0  0  0  0  0
   13.6516   22.1867   17.9646 N   0  0  0  0  0  0  0  0  0  0  0  0
   14.5896   21.7530   18.8184 C   0  0  0  0  0  0  0  0  0  0  0  0
   14.6769   20.5477   19.1279 O   0  0  0  0  0  0  0  0  0  0  0  0
   13.6365   23.1499   17.7614 H   0  0  0  0  0  0  0  0  0  0  0  0
   15.3810   22.7479   19.2926 O   0  0  0  0  0  0  0  0  0  0  0  0
   14.7321   23.9155   19.8230 C   0  0  0  0  0  0  0  0  0  0  0  0
   14.8351   23.8463   21.3464 C   0  0  0  0  0  0  0  0  0  0  0  0
   16.1851   24.1939   21.6746 O   0  0  0  0  0  0  0  0  0  0  0  0
   16.6332   25.1198   20.6912 C   0  0  0  0  0  0  0  0  0  0  0  0
   17.8474   24.6054   20.1411 O   0  0  0  0  0  0  0  0  0  0  0  0
   17.7516   24.3546   18.7396 C   0  0  0  0  0  0  0  0  0  0  0  0
   16.4964   25.1015   18.3436 C   0  0  0  0  0  0  0  0  0  0  0  0
   15.6228   25.1517   19.5704 C   0  0  0  0  0  0  0  0  0  0  0  0
   15.8534   24.5392   17.2954 F   0  0  0  0  0  0  0  0  0  0  0  0
   16.8715   26.3554   17.9813 F   0  0  0  0  0  0  0  0  0  0  0  0
   11.5733   20.9128   18.3164 C   0  0  0  0  0  0  0  0  0  0  0  0
   11.6728   21.7101   19.5110 O   0  0  0  0  0  0  0  0  0  0  0  0
   12.5260   21.5430   19.9411 H   0  0  0  0  0  0  0  0  0  0  0  0
   11.5384   19.4252   18.6325 C   0  0  0  0  0  0  0  0  0  0  0  0
   10.2451   18.8515   18.3529 N   0  0  0  0  0  0  0  0  0  0  0  0
    9.1310   19.1562   19.5143 S   0  0  0  0  0  0  0  0  0  0  0  0
    8.6601   20.5262   19.4393 O   0  0  0  0  0  0  0  0  0  0  0  0
    9.7529   18.7292   20.7762 O   0  0  0  0  0  0  0  0  0  0  0  0
    4.5450   15.6324   18.3976 N   0  0  0  0  0  0  0  0  0  0  0  0
    5.5829   16.4357   18.6452 C   0  0  0  0  0  0  0  0  0  0  0  0
    6.7271   15.9497   19.2667 C   0  0  0  0  0  0  0  0  0  0  0  0
    7.8333   16.7297   19.5500 C   0  0  0  0  0  0  0  0  0  0  0  0
    7.7690   18.0766   19.1900 C   0  0  0  0  0  0  0  0  0  0  0  0
    6.6274   18.5887   18.5966 C   0  0  0  0  0  0  0  0  0  0  0  0
    5.5205   17.7909   18.3169 C   0  0  0  0  0  0  0  0  0  0  0  0
    4.5949   14.6774   18.6314 H   0  0  0  0  0  0  0  0  0  0  0  0
    3.7300   15.9953   17.9813 H   0  0  0  0  0  0  0  0  0  0  0  0
    9.7288   18.7605   17.0124 C   0  0  0  0  0  0  0  0  0  0  0  0
   10.0664   17.4202   16.3418 C   0  0  0  0  0  0  0  0  0  0  0  0
    8.7981   16.7270   15.8370 C   0  0  0  0  0  0  0  0  0  0  0  0
   11.0807   17.6107   15.1971 C   0  0  0  0  0  0  0  0  0  0  0  0
   13.3774   20.1353   16.7120 C   0  0  0  0  0  0  0  0  0  0  0  0
   13.3613   21.1651   14.4225 C   0  0  0  0  0  0  0  0  0  0  0  0
   13.9430   21.4798   13.2123 C   0  0  0  0  0  0  0  0  0  0  0  0
   15.2556   21.0955   12.9311 C   0  0  0  0  0  0  0  0  0  0  0  0
   15.9899   20.4490   13.9148 C   0  0  0  0  0  0  0  0  0  0  0  0
   15.4139   20.1157   15.1462 C   0  0  0  0  0  0  0  0  0  0  0  0
   14.0849   20.4716   15.4029 C   0  0  0  0  0  0  0  0  0  0  0  0
 41 42  2  0  0  0
 41 40  1  0  0  0
 42 43  1  0  0  0
 40 39  2  0  0  0
 25 26  1  0  0  0
 43 44  2  0  0  0
 27 26  2  0  0  0
 27 28  1  0  0  0
 26 31  1  0  0  0
 28 29  2  0  0  0
 39 44  1  0  0  0
 44 38  1  0  0  0
 23 22  2  0  0  0
 31 30  2  0  0  0
 29 30  1  0  0  0
 29 22  1  0  0  0
 38  1  1  0  0  0
 16 13  1  0  0  0
 22 24  2  0  0  0
 22 21  1  0  0  0
 15 13  1  0  0  0
 13 12  1  0  0  0
 13 14  1  0  0  0
  1  2  1  0  0  0
  1 17  1  0  0  0
 12 11  1  0  0  0
 20 21  1  0  0  0
 20 17  1  0  0  0
 21 34  1  0  0  0
  2  3  1  0  0  0
  4  3  2  0  0  0
 17 18  1  0  0  0
  3  6  1  0  0  0
 14 10  1  0  0  0
 14  7  1  0  0  0
 11 10  1  0  0  0
 34 35  1  0  0  0
  6  7  1  0  0  0
 10  9  1  0  0  0
  7  8  1  0  0  0
 36 35  1  0  0  0
 35 37  1  0  0  0
  9  8  1  0  0  0
 25 32  1  0  0  0
 25 33  1  0  0  0
 18 19  1  0  0  0
  2  5  1  0  0  0
M  END
> <minimizedAffinity>
-9.36292

$$$$
6DJ7_G10_B_201


 44 47  0  0  0  0  0  0  0  0999 V2000
    9.1780   19.8010   19.8441 C   0  0  0  0  0  0  0  0  0  0  0  0
    9.1567   18.8370   18.7383 N   0  0  0  0  0  0  0  0  0  0  0  0
    8.0930   18.5587   17.9714 C   0  0  0  0  0  0  0  0  0  0  0  0
    6.9971   19.1264   18.1524 O   0  0  0  0  0  0  0  0  0  0  0  0
    9.9925   18.3547   18.5435 H   0  0  0  0  0  0  0  0  0  0  0  0
    8.3454   17.6136   17.0312 O   0  0  0  0  0  0  0  0  0  0  0  0
    8.5421   16.2638   17.4840 C   0  0  0  0  0  0  0  0  0  0  0  0
    7.2661   15.8305   18.2051 C   0  0  0  0  0  0  0  0  0  0  0  0
    6.2971   15.5660   17.1843 O   0  0  0  0  0  0  0  0  0  0  0  0
    7.0038   15.0880   16.0455 C   0  0  0  0  0  0  0  0  0  0  0  0
    6.6296   15.9059   14.9353 O   0  0  0  0  0  0  0  0  0  0  0  0
    7.7395   16.5979   14.3650 C   0  0  0  0  0  0  0  0  0  0  0  0
    8.9319   15.8752   14.9532 C   0  0  0  0  0  0  0  0  0  0  0  0
    8.4798   15.3066   16.2735 C   0  0  0  0  0  0  0  0  0  0  0  0
   10.0160   16.6706   15.0970 F   0  0  0  0  0  0  0  0  0  0  0  0
    9.2582   14.8733   14.0964 F   0  0  0  0  0  0  0  0  0  0  0  0
   10.3712   20.7538   19.6959 C   0  0  0  0  0  0  0  0  0  0  0  0
   10.0999   21.9910   20.3801 O   0  0  0  0  0  0  0  0  0  0  0  0
    9.3489   22.4363   19.9575 H   0  0  0  0  0  0  0  0  0  0  0  0
   10.8421   20.9900   18.2688 C   0  0  0  0  0  0  0  0  0  0  0  0
   12.2792   21.0820   18.1905 N   0  0  0  0  0  0  0  0  0  0  0  0
   12.9816   19.7663   17.5134 S   0  0  0  0  0  0  0  0  0  0  0  0
   11.9972   18.7421   17.2198 O   0  0  0  0  0  0  0  0  0  0  0  0
   14.0813   19.3997   18.4176 O   0  0  0  0  0  0  0  0  0  0  0  0
   15.2658   21.6089   12.4062 N   0  0  0  0  0  0  0  0  0  0  0  0
   14.7422   21.1957   13.5634 C   0  0  0  0  0  0  0  0  0  0  0  0
   15.5529   20.6818   14.5686 C   0  0  0  0  0  0  0  0  0  0  0  0
   15.0720   20.2381   15.7868 C   0  0  0  0  0  0  0  0  0  0  0  0
   13.6932   20.3131   15.9902 C   0  0  0  0  0  0  0  0  0  0  0  0
   12.8637   20.7942   14.9911 C   0  0  0  0  0  0  0  0  0  0  0  0
   13.3623   21.2380   13.7687 C   0  0  0  0  0  0  0  0  0  0  0  0
   16.2399   21.5766   12.2673 H   0  0  0  0  0  0  0  0  0  0  0  0
   14.6776   21.9457   11.6922 H   0  0  0  0  0  0  0  0  0  0  0  0
   12.9475   22.3328   17.9441 C   0  0  0  0  0  0  0  0  0  0  0  0
   14.1166   22.5755   18.9107 C   0  0  0  0  0  0  0  0  0  0  0  0
   14.6274   24.0145   18.8000 C   0  0  0  0  0  0  0  0  0  0  0  0
   13.7165   22.2449   20.3619 C   0  0  0  0  0  0  0  0  0  0  0  0
    9.2558   19.0001   21.1500 C   0  0  0  0  0  0  0  0  0  0  0  0
    7.9355   16.9889   21.8671 C   0  0  0  0  0  0  0  0  0  0  0  0
    6.7613   16.3386   22.1837 C   0  0  0  0  0  0  0  0  0  0  0  0
    5.5385   17.0107   22.1337 C   0  0  0  0  0  0  0  0  0  0  0  0
    5.5292   18.3631   21.8243 C   0  0  0  0  0  0  0  0  0  0  0  0
    6.7103   19.0378   21.4938 C   0  0  0  0  0  0  0  0  0  0  0  0
    7.9261   18.3445   21.5095 C   0  0  0  0  0  0  0  0  0  0  0  0
 41 42  2  0  0  0
 41 40  1  0  0  0
 42 43  1  0  0  0
 40 39  2  0  0  0
 25 26  1  0  0  0
 43 44  2  0  0  0
 27 26  2  0  0  0
 27 28  1  0  0  0
 26 31  1  0  0  0
 28 29  2  0  0  0
 39 44  1  0  0  0
 44 38  1  0  0  0
 23 22  2  0  0  0
 31 30  2  0  0  0
 29 30  1  0  0  0
 29 22  1  0  0  0
 38  1  1  0  0  0
 16 13  1  0  0  0
 22 24  2  0  0  0
 22 21  1  0  0  0
 15 13  1  0  0  0
 13 12  1  0  0  0
 13 14  1  0  0  0
  1  2  1  0  0  0
  1 17  1  0  0  0
 12 11  1  0  0  0
 20 21  1  0  0  0
 20 17  1  0  0  0
 21 34  1  0  0  0
  2  3  1  0  0  0
  4  3  2  0  0  0
 17 18  1  0  0  0
  3  6  1  0  0  0
 14 10  1  0  0  0
 14  7  1  0  0  0
 11 10  1  0  0  0
 34 35  1  0  0  0
  6  7  1  0  0  0
 10  9  1  0  0  0
  7  8  1  0  0  0
 36 35  1  0  0  0
 35 37  1  0  0  0
  9  8  1  0  0  0
 25 32  1  0  0  0
 25 33  1  0  0  0
 18 19  1  0  0  0
  2  5  1  0  0  0
M  END
> <minimizedAffinity>
-9.27683

$$$$
6DJ7_G10_B_201


 44 47  0  0  0  0  0  0  0  0999 V2000
    9.5738   19.6863   19.9219 C   0  0  0  0  0  0  0  0  0  0  0  0
    9.3932   18.7453   18.8110 N   0  0  0  0  0  0  0  0  0  0  0  0
    8.2829   18.6229   18.0699 C   0  0  0  0  0  0  0  0  0  0  0  0
    7.2800   19.3335   18.2826 O   0  0  0  0  0  0  0  0  0  0  0  0
   10.1499   18.1549   18.5916 H   0  0  0  0  0  0  0  0  0  0  0  0
    8.3800   17.6614   17.1174 O   0  0  0  0  0  0  0  0  0  0  0  0
    8.4788   16.2975   17.5598 C   0  0  0  0  0  0  0  0  0  0  0  0
    7.1251   15.9074   18.1524 C   0  0  0  0  0  0  0  0  0  0  0  0
    6.2445   15.7005   17.0421 O   0  0  0  0  0  0  0  0  0  0  0  0
    7.0332   15.2109   15.9636 C   0  0  0  0  0  0  0  0  0  0  0  0
    6.7968   16.0614   14.8401 O   0  0  0  0  0  0  0  0  0  0  0  0
    7.9820   16.7146   14.3876 C   0  0  0  0  0  0  0  0  0  0  0  0
    9.0845   15.9326   15.0682 C   0  0  0  0  0  0  0  0  0  0  0  0
    8.4895   15.3631   16.3301 C   0  0  0  0  0  0  0  0  0  0  0  0
   10.1821   16.6790   15.3263 F   0  0  0  0  0  0  0  0  0  0  0  0
    9.4473   14.9315   14.2254 F   0  0  0  0  0  0  0  0  0  0  0  0
   10.8941   20.4508   19.7619 C   0  0  0  0  0  0  0  0  0  0  0  0
   10.6281   21.8334   19.4615 O   0  0  0  0  0  0  0  0  0  0  0  0
   10.1775   21.8972   18.6049 H   0  0  0  0  0  0  0  0  0  0  0  0
   11.8845   19.8411   18.7814 C   0  0  0  0  0  0  0  0  0  0  0  0
   12.5825   20.8549   18.0297 N   0  0  0  0  0  0  0  0  0  0  0  0
   14.2130   20.7207   18.1103 S   0  0  0  0  0  0  0  0  0  0  0  0
   14.8051   20.7496   16.7864 O   0  0  0  0  0  0  0  0  0  0  0  0
   14.4683   19.5294   18.9331 O   0  0  0  0  0  0  0  0  0  0  0  0
   16.1749   25.4387   21.0407 N   0  0  0  0  0  0  0  0  0  0  0  0
   15.7321   24.3719   20.3699 C   0  0  0  0  0  0  0  0  0  0  0  0
   14.7132   23.5795   20.8850 C   0  0  0  0  0  0  0  0  0  0  0  0
   14.2118   22.4638   20.2398 C   0  0  0  0  0  0  0  0  0  0  0  0
   14.7826   22.1319   19.0102 C   0  0  0  0  0  0  0  0  0  0  0  0
   15.8189   22.8904   18.4922 C   0  0  0  0  0  0  0  0  0  0  0  0
   16.3138   24.0120   19.1533 C   0  0  0  0  0  0  0  0  0  0  0  0
   15.7606   25.6877   21.8984 H   0  0  0  0  0  0  0  0  0  0  0  0
   16.9156   25.9760   20.6775 H   0  0  0  0  0  0  0  0  0  0  0  0
   12.0672   21.3689   16.7880 C   0  0  0  0  0  0  0  0  0  0  0  0
   11.8143   20.2621   15.7530 C   0  0  0  0  0  0  0  0  0  0  0  0
   10.3138   20.0386   15.5474 C   0  0  0  0  0  0  0  0  0  0  0  0
   12.5102   20.5816   14.4155 C   0  0  0  0  0  0  0  0  0  0  0  0
    9.5484   18.8724   21.2219 C   0  0  0  0  0  0  0  0  0  0  0  0
    8.0927   16.8857   21.7080 C   0  0  0  0  0  0  0  0  0  0  0  0
    6.8756   16.2832   21.9480 C   0  0  0  0  0  0  0  0  0  0  0  0
    5.6999   17.0360   21.9706 C   0  0  0  0  0  0  0  0  0  0  0  0
    5.7820   18.4121   21.8137 C   0  0  0  0  0  0  0  0  0  0  0  0
    7.0077   19.0398   21.5627 C   0  0  0  0  0  0  0  0  0  0  0  0
    8.1753   18.2702   21.5036 C   0  0  0  0  0  0  0  0  0  0  0  0
 41 42  2  0  0  0
 41 40  1  0  0  0
 42 43  1  0  0  0
 40 39  2  0  0  0
 25 26  1  0  0  0
 43 44  2  0  0  0
 27 26  2  0  0  0
 27 28  1  0  0  0
 26 31  1  0  0  0
 28 29  2  0  0  0
 39 44  1  0  0  0
 44 38  1  0  0  0
 23 22  2  0  0  0
 31 30  2  0  0  0
 29 30  1  0  0  0
 29 22  1  0  0  0
 38  1  1  0  0  0
 16 13  1  0  0  0
 22 24  2  0  0  0
 22 21  1  0  0  0
 15 13  1  0  0  0
 13 12  1  0  0  0
 13 14  1  0  0  0
  1  2  1  0  0  0
  1 17  1  0  0  0
 12 11  1  0  0  0
 20 21  1  0  0  0
 20 17  1  0  0  0
 21 34  1  0  0  0
  2  3  1  0  0  0
  4  3  2  0  0  0
 17 18  1  0  0  0
  3  6  1  0  0  0
 14 10  1  0  0  0
 14  7  1  0  0  0
 11 10  1  0  0  0
 34 35  1  0  0  0
  6  7  1  0  0  0
 10  9  1  0  0  0
  7  8  1  0  0  0
 36 35  1  0  0  0
 35 37  1  0  0  0
  9  8  1  0  0  0
 25 32  1  0  0  0
 25 33  1  0  0  0
 18 19  1  0  0  0
  2  5  1  0  0  0
M  END
> <minimizedAffinity>
-9.26382

$$$$
6DJ7_G10_B_201


 44 47  0  0  0  0  0  0  0  0999 V2000
   12.8873   20.8663   18.7265 C   0  0  0  0  0  0  0  0  0  0  0  0
   11.8075   19.9129   19.0051 N   0  0  0  0  0  0  0  0  0  0  0  0
   10.5007   20.2092   19.0421 C   0  0  0  0  0  0  0  0  0  0  0  0
   10.0928   21.3692   18.8321 O   0  0  0  0  0  0  0  0  0  0  0  0
   12.0639   18.9785   19.1792 H   0  0  0  0  0  0  0  0  0  0  0  0
    9.7193   19.1408   19.3404 O   0  0  0  0  0  0  0  0  0  0  0  0
    9.6978   18.6961   20.7070 C   0  0  0  0  0  0  0  0  0  0  0  0
    9.5556   19.9347   21.5910 C   0  0  0  0  0  0  0  0  0  0  0  0
    8.1884   20.3481   21.4875 O   0  0  0  0  0  0  0  0  0  0  0  0
    7.4068   19.1754   21.2901 C   0  0  0  0  0  0  0  0  0  0  0  0
    6.6212   19.3777   20.1140 O   0  0  0  0  0  0  0  0  0  0  0  0
    6.9037   18.4205   19.0942 C   0  0  0  0  0  0  0  0  0  0  0  0
    7.6668   17.3450   19.8367 C   0  0  0  0  0  0  0  0  0  0  0  0
    8.3391   18.0237   21.0021 C   0  0  0  0  0  0  0  0  0  0  0  0
    8.5582   16.6929   19.0566 F   0  0  0  0  0  0  0  0  0  0  0  0
    6.7571   16.4394   20.2803 F   0  0  0  0  0  0  0  0  0  0  0  0
   14.0184   20.1772   17.9522 C   0  0  0  0  0  0  0  0  0  0  0  0
   14.9588   19.5931   18.8724 O   0  0  0  0  0  0  0  0  0  0  0  0
   15.3806   20.2948   19.3926 H   0  0  0  0  0  0  0  0  0  0  0  0
   14.7120   21.0396   16.9085 C   0  0  0  0  0  0  0  0  0  0  0  0
   14.4314   20.5839   15.5692 N   0  0  0  0  0  0  0  0  0  0  0  0
   12.9721   21.0704   15.0065 S   0  0  0  0  0  0  0  0  0  0  0  0
   13.0096   21.2804   13.5716 O   0  0  0  0  0  0  0  0  0  0  0  0
   12.5922   22.2186   15.8424 O   0  0  0  0  0  0  0  0  0  0  0  0
    9.2840   16.6210   16.1448 N   0  0  0  0  0  0  0  0  0  0  0  0
   10.1258   17.6260   15.8894 C   0  0  0  0  0  0  0  0  0  0  0  0
    9.6736   18.9393   15.8431 C   0  0  0  0  0  0  0  0  0  0  0  0
   10.4941   20.0218   15.5839 C   0  0  0  0  0  0  0  0  0  0  0  0
   11.8439   19.7536   15.3511 C   0  0  0  0  0  0  0  0  0  0  0  0
   12.3105   18.4498   15.3631 C   0  0  0  0  0  0  0  0  0  0  0  0
   11.4722   17.3690   15.6260 C   0  0  0  0  0  0  0  0  0  0  0  0
    8.3354   16.8084   16.3299 H   0  0  0  0  0  0  0  0  0  0  0  0
    9.6120   15.6927   16.1480 H   0  0  0  0  0  0  0  0  0  0  0  0
   15.4661   20.4638   14.5759 C   0  0  0  0  0  0  0  0  0  0  0  0
   16.4029   21.6811   14.5523 C   0  0  0  0  0  0  0  0  0  0  0  0
   17.8591   21.2465   14.3666 C   0  0  0  0  0  0  0  0  0  0  0  0
   15.9853   22.6834   13.4585 C   0  0  0  0  0  0  0  0  0  0  0  0
   13.3779   21.4111   20.0738 C   0  0  0  0  0  0  0  0  0  0  0  0
   13.6784   23.5525   18.7985 C   0  0  0  0  0  0  0  0  0  0  0  0
   14.1997   24.8176   18.6264 C   0  0  0  0  0  0  0  0  0  0  0  0
   15.0433   25.3777   19.5878 C   0  0  0  0  0  0  0  0  0  0  0  0
   15.2967   24.6677   20.7524 C   0  0  0  0  0  0  0  0  0  0  0  0
   14.7816   23.3799   20.9413 C   0  0  0  0  0  0  0  0  0  0  0  0
   13.9684   22.8126   19.9535 C   0  0  0  0  0  0  0  0  0  0  0  0
 41 42  2  0  0  0
 41 40  1  0  0  0
 42 43  1  0  0  0
 40 39  2  0  0  0
 25 26  1  0  0  0
 43 44  2  0  0  0
 27 26  2  0  0  0
 27 28  1  0  0  0
 26 31  1  0  0  0
 28 29  2  0  0  0
 39 44  1  0  0  0
 44 38  1  0  0  0
 23 22  2  0  0  0
 31 30  2  0  0  0
 29 30  1  0  0  0
 29 22  1  0  0  0
 38  1  1  0  0  0
 16 13  1  0  0  0
 22 24  2  0  0  0
 22 21  1  0  0  0
 15 13  1  0  0  0
 13 12  1  0  0  0
 13 14  1  0  0  0
  1  2  1  0  0  0
  1 17  1  0  0  0
 12 11  1  0  0  0
 20 21  1  0  0  0
 20 17  1  0  0  0
 21 34  1  0  0  0
  2  3  1  0  0  0
  4  3  2  0  0  0
 17 18  1  0  0  0
  3  6  1  0  0  0
 14 10  1  0  0  0
 14  7  1  0  0  0
 11 10  1  0  0  0
 34 35  1  0  0  0
  6  7  1  0  0  0
 10  9  1  0  0  0
  7  8  1  0  0  0
 36 35  1  0  0  0
 35 37  1  0  0  0
  9  8  1  0  0  0
 25 32  1  0  0  0
 25 33  1  0  0  0
 18 19  1  0  0  0
  2  5  1  0  0  0
M  END
> <minimizedAffinity>
-9.22774

$$$$
6DJ7_G10_B_201


 44 47  0  0  0  0  0  0  0  0999 V2000
    9.4794   19.8363   19.0621 C   0  0  0  0  0  0  0  0  0  0  0  0
    9.0966   18.7475   18.1564 N   0  0  0  0  0  0  0  0  0  0  0  0
    9.9339   17.8376   17.6388 C   0  0  0  0  0  0  0  0  0  0  0  0
   11.1527   17.8535   17.9038 O   0  0  0  0  0  0  0  0  0  0  0  0
    8.1463   18.6795   17.9082 H   0  0  0  0  0  0  0  0  0  0  0  0
    9.3177   16.9518   16.8162 O   0  0  0  0  0  0  0  0  0  0  0  0
    9.1051   17.3511   15.4520 C   0  0  0  0  0  0  0  0  0  0  0  0
   10.1330   16.6157   14.5926 C   0  0  0  0  0  0  0  0  0  0  0  0
    9.6740   15.2634   14.4853 O   0  0  0  0  0  0  0  0  0  0  0  0
    8.2518   15.2966   14.5197 C   0  0  0  0  0  0  0  0  0  0  0  0
    7.8282   14.4117   15.5584 O   0  0  0  0  0  0  0  0  0  0  0  0
    7.0930   15.0801   16.5825 C   0  0  0  0  0  0  0  0  0  0  0  0
    6.7440   16.4064   15.9427 C   0  0  0  0  0  0  0  0  0  0  0  0
    7.8166   16.6849   14.9216 C   0  0  0  0  0  0  0  0  0  0  0  0
    6.6330   17.4139   16.8378 F   0  0  0  0  0  0  0  0  0  0  0  0
    5.5407   16.2544   15.3319 F   0  0  0  0  0  0  0  0  0  0  0  0
   11.0072   19.9543   19.1358 C   0  0  0  0  0  0  0  0  0  0  0  0
   11.4875   19.3603   20.3560 O   0  0  0  0  0  0  0  0  0  0  0  0
   11.1446   19.8580   21.1148 H   0  0  0  0  0  0  0  0  0  0  0  0
   11.5621   21.3564   18.9345 C   0  0  0  0  0  0  0  0  0  0  0  0
   12.8500   21.3314   18.2859 N   0  0  0  0  0  0  0  0  0  0  0  0
   14.1086   21.4211   19.3303 S   0  0  0  0  0  0  0  0  0  0  0  0
   15.0082   20.2956   19.1614 O   0  0  0  0  0  0  0  0  0  0  0  0
   13.5043   21.6029   20.6582 O   0  0  0  0  0  0  0  0  0  0  0  0
   17.0760   26.3110   17.9236 N   0  0  0  0  0  0  0  0  0  0  0  0
   16.4045   25.1994   18.2359 C   0  0  0  0  0  0  0  0  0  0  0  0
   15.3974   25.2213   19.1935 C   0  0  0  0  0  0  0  0  0  0  0  0
   14.6670   24.1059   19.5604 C   0  0  0  0  0  0  0  0  0  0  0  0
   14.9832   22.9035   18.9264 C   0  0  0  0  0  0  0  0  0  0  0  0
   16.0028   22.8528   17.9907 C   0  0  0  0  0  0  0  0  0  0  0  0
   16.7302   23.9847   17.6307 C   0  0  0  0  0  0  0  0  0  0  0  0
   16.8417   27.1649   18.3539 H   0  0  0  0  0  0  0  0  0  0  0  0
   17.8053   26.2763   17.2632 H   0  0  0  0  0  0  0  0  0  0  0  0
   13.0876   20.5509   17.1001 C   0  0  0  0  0  0  0  0  0  0  0  0
   12.4566   21.1775   15.8474 C   0  0  0  0  0  0  0  0  0  0  0  0
   13.4527   21.1963   14.6850 C   0  0  0  0  0  0  0  0  0  0  0  0
   11.1620   20.4419   15.4494 C   0  0  0  0  0  0  0  0  0  0  0  0
    8.8717   19.5260   20.4359 C   0  0  0  0  0  0  0  0  0  0  0  0
    6.7384   18.6021   21.3833 C   0  0  0  0  0  0  0  0  0  0  0  0
    5.3744   18.3991   21.3704 C   0  0  0  0  0  0  0  0  0  0  0  0
    4.5856   18.9216   20.3435 C   0  0  0  0  0  0  0  0  0  0  0  0
    5.1868   19.7059   19.3697 C   0  0  0  0  0  0  0  0  0  0  0  0
    6.5705   19.9171   19.3631 C   0  0  0  0  0  0  0  0  0  0  0  0
    7.3568   19.3561   20.3760 C   0  0  0  0  0  0  0  0  0  0  0  0
 41 42  2  0  0  0
 41 40  1  0  0  0
 42 43  1  0  0  0
 40 39  2  0  0  0
 25 26  1  0  0  0
 43 44  2  0  0  0
 27 26  2  0  0  0
 27 28  1  0  0  0
 26 31  1  0  0  0
 28 29  2  0  0  0
 39 44  1  0  0  0
 44 38  1  0  0  0
 23 22  2  0  0  0
 31 30  2  0  0  0
 29 30  1  0  0  0
 29 22  1  0  0  0
 38  1  1  0  0  0
 16 13  1  0  0  0
 22 24  2  0  0  0
 22 21  1  0  0  0
 15 13  1  0  0  0
 13 12  1  0  0  0
 13 14  1  0  0  0
  1  2  1  0  0  0
  1 17  1  0  0  0
 12 11  1  0  0  0
 20 21  1  0  0  0
 20 17  1  0  0  0
 21 34  1  0  0  0
  2  3  1  0  0  0
  4  3  2  0  0  0
 17 18  1  0  0  0
  3  6  1  0  0  0
 14 10  1  0  0  0
 14  7  1  0  0  0
 11 10  1  0  0  0
 34 35  1  0  0  0
  6  7  1  0  0  0
 10  9  1  0  0  0
  7  8  1  0  0  0
 36 35  1  0  0  0
 35 37  1  0  0  0
  9  8  1  0  0  0
 25 32  1  0  0  0
 25 33  1  0  0  0
 18 19  1  0  0  0
  2  5  1  0  0  0
M  END
> <minimizedAffinity>
-9.04198

$$$$
