4LHM_AZZ_A_510
  RCSB PDB12061713343D
Coordinates from PDB:4LHM:A:510 Model:1 without hydrogens
 19 20  0  0  0  0            999 V2000
   32.9900  -10.8640   -8.6320   O 0  0  0  0  0  0  0  0  0  0  0  0
   32.9660  -10.2520   -7.3310   C 0  0  0  0  0  0  0  0  0  0  0  0
   31.8090  -10.8030   -6.5100   C 0  0  0  0  0  0  0  0  0  0  0  0
   31.9630  -12.2020   -6.3000   O 0  0  0  0  0  0  0  0  0  0  0  0
   31.6600  -10.1990   -5.1140   C 0  0  0  0  0  0  0  0  0  0  0  0
   30.4780   -9.3600   -5.1250   N 0  0  0  0  0  0  0  0  0  0  0  0
   30.2680   -8.5110   -4.2310   N 0  3  0  0  0  0  0  0  0  0  0  0
   30.0440   -7.6330   -3.3090   N 0  5  0  0  0  0  0  0  0  0  0  0
   31.3520  -11.3590   -4.1890   C 0  0  0  0  0  0  0  0  0  0  0  0
   31.2070  -12.5390   -5.1410   C 0  0  0  0  0  0  0  0  0  0  0  0
   31.7390  -13.7460   -4.5210   N 0  0  0  0  0  0  0  0  0  0  0  0
   30.8500  -14.7400   -4.0500   C 0  0  0  0  0  0  0  0  0  0  0  0
   29.5910  -14.6290   -4.1750   O 0  0  0  0  0  0  0  0  0  0  0  0
   31.3620  -15.8320   -3.4700   N 0  0  0  0  0  0  0  0  0  0  0  0
   32.6830  -16.0230   -3.3310   C 0  0  0  0  0  0  0  0  0  0  0  0
   33.0990  -17.0590   -2.7810   O 0  0  0  0  0  0  0  0  0  0  0  0
   33.6330  -14.9920   -3.8050   C 0  0  0  0  0  0  0  0  0  0  0  0
   35.1220  -15.1580   -3.6670   C 0  0  0  0  0  0  0  0  0  0  0  0
   33.0830  -13.8690   -4.3990   C 0  0  0  0  0  0  0  0  0  0  0  0
  1  2  1  0  0  0  0
  2  3  1  0  0  0  0
  3  4  1  0  0  0  0
  3  5  1  0  0  0  0
  4 10  1  0  0  0  0
  5  6  1  0  0  0  0
  5  9  1  0  0  0  0
  6  7  2  0  0  0  0
  7  8  2  0  0  0  0
  9 10  1  0  0  0  0
 10 11  1  0  0  0  0
 11 12  1  0  0  0  0
 11 19  1  0  0  0  0
 12 13  2  0  0  0  0
 12 14  1  0  0  0  0
 14 15  1  0  0  0  0
 15 16  2  0  0  0  0
 15 17  1  0  0  0  0
 17 18  1  0  0  0  0
 17 19  2  0  0  0  0
M  CHG  2   7   1   8  -1
A    1
O5'
A    2
C5'
A    3
C4'
A    4
O4'
A    5
C3'
A    6
N3'
A    7
N4'
A    8
N5'
A    9
C2'
A   10
C1'
A   11
N1
A   12
C2
A   13
O2
A   14
N3
A   15
C4
A   16
O4
A   17
C5
A   18
C5A
A   19
C6
M  END
>  <InstanceId>
4LHM_AZZ_A_510

>  <ChemCompId>
AZZ

>  <PdbId>
4LHM

>  <ChainId>
A

>  <ResidueNumber>
510

>  <InsertionCode>


>  <Model>
1

>  <AltIds>


>  <MissingHeavyAtoms>
0

>  <ObservedFormula>
C10 N5 O4

>  <Name>
3'-azido-3'-deoxythymidine

>  <SystematicName>
1-[(2R,4S,5S)-4-azido-5-(hydroxymethyl)oxolan-2-yl]-5-methyl-pyrimidine-2,4-dione

>  <Synonyms>
Azidothymidine; Zidovudine

>  <Type>
NON-POLYMER

>  <Formula>
C10 H13 N5 O4

>  <MolecularWeight>
267.241

>  <ModifiedDate>
2012-07-12

>  <Parent>


>  <OneLetterCode>


>  <SubcomponentList>


>  <AmbiguousFlag>
N

>  <InChI>
InChI=1S/C10H13N5O4/c1-5-3-15(10(18)12-9(5)17)8-2-6(13-14-11)7(4-16)19-8/h3,6-8,16H,2,4H2,1H3,(H,12,17,18)/t6-,7+,8+/m0/s1

>  <InChIKey>
HBOMLICNUCNMMY-XLPZGREQSA-N

>  <SMILES>
CC1=CN(C(=O)NC1=O)[C@H]2C[C@@H]([C@H](O2)CO)N=[N+]=[N-]

$$$$
