4LHM_AZZ_A_510


 21 22  0  0  0  0  0  0  0  0999 V2000
   36.0670  -11.4244   -1.6628 C   0  0  0  0  0  0  0  0  0  0  0  0
   34.6797  -11.6473   -1.8882 O   0  0  0  0  0  0  0  0  0  0  0  0
   36.7414  -12.7688   -1.9339 C   0  0  0  0  0  0  0  0  0  0  0  0
   35.6309  -13.7999   -1.9312 C   0  0  0  0  0  0  0  0  0  0  0  0
   34.4050  -12.9952   -1.5196 C   0  0  0  0  0  0  0  0  0  0  0  0
   33.2285  -13.4853   -2.2267 N   0  0  0  0  0  0  0  0  0  0  0  0
   32.3930  -14.4462   -1.6113 C   0  0  0  0  0  0  0  0  0  0  0  0
   32.6190  -14.8812   -0.4397 O   0  0  0  0  0  0  0  0  0  0  0  0
   31.3276  -14.8927   -2.2871 N   0  0  0  0  0  0  0  0  0  0  0  0
   31.0177  -14.4544   -3.5170 C   0  0  0  0  0  0  0  0  0  0  0  0
   30.0141  -14.9089   -4.0960 O   0  0  0  0  0  0  0  0  0  0  0  0
   31.8831  -13.4581   -4.1867 C   0  0  0  0  0  0  0  0  0  0  0  0
   31.5803  -12.9402   -5.5665 C   0  0  0  0  0  0  0  0  0  0  0  0
   32.9815  -13.0116   -3.4720 C   0  0  0  0  0  0  0  0  0  0  0  0
   30.7490  -15.5687   -1.8657 H   0  0  0  0  0  0  0  0  0  0  0  0
   38.0076  -10.2182   -2.4876 O   0  0  0  0  0  0  0  0  0  0  0  0
   36.5707  -10.2670   -2.5131 C   0  0  0  0  0  0  0  0  0  0  0  0
   38.3157   -9.4773   -3.0326 H   0  0  0  0  0  0  0  0  0  0  0  0
   37.5839  -13.0726   -0.7942 N   0  0  0  0  0  0  0  0  0  0  0  0
   38.3347  -12.2113   -0.2855 N   0  0  0  0  0  0  0  0  0  0  0  0
   39.1144  -11.3264    0.2437 N   0  0  0  0  0  0  0  0  0  0  0  0
 16 17  1  0  0  0
 17  1  1  0  0  0
  1  2  1  0  0  0
  1  3  1  0  0  0
  2  5  1  0  0  0
  3 19  1  0  0  0
  3  4  1  0  0  0
 19 20  2  0  0  0
 20 21  2  0  0  0
  4  5  1  0  0  0
  5  6  1  0  0  0
  6  7  1  0  0  0
  6 14  1  0  0  0
  7  8  2  0  0  0
  7  9  1  0  0  0
  9 10  1  0  0  0
 10 11  2  0  0  0
 10 12  1  0  0  0
 12 13  1  0  0  0
 12 14  2  0  0  0
 16 18  1  0  0  0
  9 15  1  0  0  0
M  CHG 1  20   1
M  CHG 1  21  -1
M  END
> <minimizedAffinity>
-6.87675

$$$$
4LHM_AZZ_A_510


 21 22  0  0  0  0  0  0  0  0999 V2000
   35.5825  -12.7319   -0.5083 C   0  0  0  0  0  0  0  0  0  0  0  0
   34.2387  -12.7154   -0.9763 O   0  0  0  0  0  0  0  0  0  0  0  0
   36.3019  -13.7592   -1.3818 C   0  0  0  0  0  0  0  0  0  0  0  0
   35.2125  -14.5622   -2.0633 C   0  0  0  0  0  0  0  0  0  0  0  0
   33.9343  -14.0316   -1.4272 C   0  0  0  0  0  0  0  0  0  0  0  0
   32.8650  -13.9946   -2.4169 N   0  0  0  0  0  0  0  0  0  0  0  0
   31.6288  -14.6208   -2.1340 C   0  0  0  0  0  0  0  0  0  0  0  0
   31.4059  -15.1966   -1.0241 O   0  0  0  0  0  0  0  0  0  0  0  0
   30.6679  -14.5871   -3.0649 N   0  0  0  0  0  0  0  0  0  0  0  0
   30.8297  -13.9726   -4.2469 C   0  0  0  0  0  0  0  0  0  0  0  0
   29.8992  -13.9767   -5.0733 O   0  0  0  0  0  0  0  0  0  0  0  0
   32.1181  -13.3207   -4.5710 C   0  0  0  0  0  0  0  0  0  0  0  0
   32.3493  -12.6237   -5.8842 C   0  0  0  0  0  0  0  0  0  0  0  0
   33.0997  -13.3695   -3.5960 C   0  0  0  0  0  0  0  0  0  0  0  0
   29.8094  -15.0301   -2.8752 H   0  0  0  0  0  0  0  0  0  0  0  0
   35.1328  -10.3454   -0.5685 O   0  0  0  0  0  0  0  0  0  0  0  0
   36.1786  -11.3318   -0.5356 C   0  0  0  0  0  0  0  0  0  0  0  0
   35.5253   -9.4585   -0.5857 H   0  0  0  0  0  0  0  0  0  0  0  0
   36.9934  -14.6765   -0.4977 N   0  0  0  0  0  0  0  0  0  0  0  0
   37.6810  -15.6222   -0.9414 N   0  0  0  0  0  0  0  0  0  0  0  0
   38.3916  -16.6029   -1.3935 N   0  0  0  0  0  0  0  0  0  0  0  0
 16 17  1  0  0  0
 17  1  1  0  0  0
  1  2  1  0  0  0
  1  3  1  0  0  0
  2  5  1  0  0  0
  3 19  1  0  0  0
  3  4  1  0  0  0
 19 20  2  0  0  0
 20 21  2  0  0  0
  4  5  1  0  0  0
  5  6  1  0  0  0
  6  7  1  0  0  0
  6 14  1  0  0  0
  7  8  2  0  0  0
  7  9  1  0  0  0
  9 10  1  0  0  0
 10 11  2  0  0  0
 10 12  1  0  0  0
 12 13  1  0  0  0
 12 14  2  0  0  0
 16 18  1  0  0  0
  9 15  1  0  0  0
M  CHG 1  20   1
M  CHG 1  21  -1
M  END
> <minimizedAffinity>
-6.85375

$$$$
4LHM_AZZ_A_510


 21 22  0  0  0  0  0  0  0  0999 V2000
   36.2903  -14.0227   -1.6924 C   0  0  0  0  0  0  0  0  0  0  0  0
   34.9784  -13.5119   -1.8998 O   0  0  0  0  0  0  0  0  0  0  0  0
   36.3152  -15.3739   -2.4062 C   0  0  0  0  0  0  0  0  0  0  0  0
   34.8665  -15.7352   -2.6646 C   0  0  0  0  0  0  0  0  0  0  0  0
   34.0963  -14.6286   -1.9559 C   0  0  0  0  0  0  0  0  0  0  0  0
   32.8986  -14.2920   -2.7152 N   0  0  0  0  0  0  0  0  0  0  0  0
   31.6268  -14.6455   -2.2075 C   0  0  0  0  0  0  0  0  0  0  0  0
   31.4888  -15.2278   -1.0873 O   0  0  0  0  0  0  0  0  0  0  0  0
   30.5429  -14.3399   -2.9305 N   0  0  0  0  0  0  0  0  0  0  0  0
   30.6179  -13.7017   -4.1087 C   0  0  0  0  0  0  0  0  0  0  0  0
   29.5739  -13.4463   -4.7361 O   0  0  0  0  0  0  0  0  0  0  0  0
   31.9378  -13.3320   -4.6665 C   0  0  0  0  0  0  0  0  0  0  0  0
   32.0737  -12.6207   -5.9853 C   0  0  0  0  0  0  0  0  0  0  0  0
   33.0463  -13.6599   -3.9047 C   0  0  0  0  0  0  0  0  0  0  0  0
   29.6565  -14.5929   -2.5848 H   0  0  0  0  0  0  0  0  0  0  0  0
   38.4642  -13.7143   -2.7320 O   0  0  0  0  0  0  0  0  0  0  0  0
   37.3371  -13.0242   -2.1652 C   0  0  0  0  0  0  0  0  0  0  0  0
   39.1232  -13.0676   -3.0291 H   0  0  0  0  0  0  0  0  0  0  0  0
   36.8197  -16.3552   -1.4661 N   0  0  0  0  0  0  0  0  0  0  0  0
   38.0353  -16.6436   -1.4081 N   0  0  0  0  0  0  0  0  0  0  0  0
   39.2901  -16.9476   -1.3444 N   0  0  0  0  0  0  0  0  0  0  0  0
 16 17  1  0  0  0
 17  1  1  0  0  0
  1  2  1  0  0  0
  1  3  1  0  0  0
  2  5  1  0  0  0
  3 19  1  0  0  0
  3  4  1  0  0  0
 19 20  2  0  0  0
 20 21  2  0  0  0
  4  5  1  0  0  0
  5  6  1  0  0  0
  6  7  1  0  0  0
  6 14  1  0  0  0
  7  8  2  0  0  0
  7  9  1  0  0  0
  9 10  1  0  0  0
 10 11  2  0  0  0
 10 12  1  0  0  0
 12 13  1  0  0  0
 12 14  2  0  0  0
 16 18  1  0  0  0
  9 15  1  0  0  0
M  CHG 1  20   1
M  CHG 1  21  -1
M  END
> <minimizedAffinity>
-6.81340

$$$$
4LHM_AZZ_A_510


 21 22  0  0  0  0  0  0  0  0999 V2000
   31.7649  -10.8656   -6.4895 C   0  0  0  0  0  0  0  0  0  0  0  0
   32.0156  -12.2462   -6.2531 O   0  0  0  0  0  0  0  0  0  0  0  0
   31.6383  -10.2349   -5.1031 C   0  0  0  0  0  0  0  0  0  0  0  0
   31.4442  -11.3867   -4.1378 C   0  0  0  0  0  0  0  0  0  0  0  0
   31.3330  -12.5984   -5.0538 C   0  0  0  0  0  0  0  0  0  0  0  0
   31.9662  -13.7531   -4.4295 N   0  0  0  0  0  0  0  0  0  0  0  0
   31.1639  -14.8051   -3.9296 C   0  0  0  0  0  0  0  0  0  0  0  0
   29.8980  -14.7914   -4.0319 O   0  0  0  0  0  0  0  0  0  0  0  0
   31.7677  -15.8473   -3.3462 N   0  0  0  0  0  0  0  0  0  0  0  0
   33.1017  -15.9359   -3.2301 C   0  0  0  0  0  0  0  0  0  0  0  0
   33.6050  -16.9299   -2.6756 O   0  0  0  0  0  0  0  0  0  0  0  0
   33.9619  -14.8425   -3.7347 C   0  0  0  0  0  0  0  0  0  0  0  0
   35.4615  -14.8934   -3.6231 C   0  0  0  0  0  0  0  0  0  0  0  0
   33.3176  -13.7724   -4.3316 C   0  0  0  0  0  0  0  0  0  0  0  0
   31.2119  -16.5769   -2.9885 H   0  0  0  0  0  0  0  0  0  0  0  0
   32.2685   -9.3584   -8.3269 O   0  0  0  0  0  0  0  0  0  0  0  0
   32.8484  -10.2661   -7.3742 C   0  0  0  0  0  0  0  0  0  0  0  0
   32.9686   -8.9836   -8.8840 H   0  0  0  0  0  0  0  0  0  0  0  0
   30.4064   -9.4713   -5.0814 N   0  0  0  0  0  0  0  0  0  0  0  0
   29.9934   -8.8639   -6.0936 N   0  0  0  0  0  0  0  0  0  0  0  0
   29.5620   -8.2322   -7.1357 N   0  0  0  0  0  0  0  0  0  0  0  0
 16 17  1  0  0  0
 17  1  1  0  0  0
  1  2  1  0  0  0
  1  3  1  0  0  0
  2  5  1  0  0  0
  3 19  1  0  0  0
  3  4  1  0  0  0
 19 20  2  0  0  0
 20 21  2  0  0  0
  4  5  1  0  0  0
  5  6  1  0  0  0
  6  7  1  0  0  0
  6 14  1  0  0  0
  7  8  2  0  0  0
  7  9  1  0  0  0
  9 10  1  0  0  0
 10 11  2  0  0  0
 10 12  1  0  0  0
 12 13  1  0  0  0
 12 14  2  0  0  0
 16 18  1  0  0  0
  9 15  1  0  0  0
M  CHG 1  20   1
M  CHG 1  21  -1
M  END
> <minimizedAffinity>
-6.66713

$$$$
4LHM_AZZ_A_510


 21 22  0  0  0  0  0  0  0  0999 V2000
   31.5457  -10.6798   -6.5416 C   0  0  0  0  0  0  0  0  0  0  0  0
   31.6701  -11.8876   -5.7995 O   0  0  0  0  0  0  0  0  0  0  0  0
   31.1288   -9.6204   -5.5220 C   0  0  0  0  0  0  0  0  0  0  0  0
   30.6616  -10.3815   -4.2979 C   0  0  0  0  0  0  0  0  0  0  0  0
   30.7110  -11.8357   -4.7479 C   0  0  0  0  0  0  0  0  0  0  0  0
   31.1269  -12.6853   -3.6391 N   0  0  0  0  0  0  0  0  0  0  0  0
   30.4026  -13.8659   -3.3532 C   0  0  0  0  0  0  0  0  0  0  0  0
   29.4082  -14.2303   -4.0542 O   0  0  0  0  0  0  0  0  0  0  0  0
   30.7941  -14.6212   -2.3201 N   0  0  0  0  0  0  0  0  0  0  0  0
   31.8520  -14.3068   -1.5566 C   0  0  0  0  0  0  0  0  0  0  0  0
   32.1665  -15.0484   -0.6079 O   0  0  0  0  0  0  0  0  0  0  0  0
   32.6186  -13.0704   -1.8283 C   0  0  0  0  0  0  0  0  0  0  0  0
   33.8084  -12.6728   -0.9976 C   0  0  0  0  0  0  0  0  0  0  0  0
   32.1954  -12.3019   -2.8991 C   0  0  0  0  0  0  0  0  0  0  0  0
   30.2866  -15.4388   -2.1122 H   0  0  0  0  0  0  0  0  0  0  0  0
   32.5485   -9.6081   -8.4774 O   0  0  0  0  0  0  0  0  0  0  0  0
   32.8324  -10.3775   -7.2963 C   0  0  0  0  0  0  0  0  0  0  0  0
   33.3756   -9.4224   -8.9488 H   0  0  0  0  0  0  0  0  0  0  0  0
   29.9626   -8.9407   -6.0504 N   0  0  0  0  0  0  0  0  0  0  0  0
   29.9767   -8.3910   -7.1736 N   0  0  0  0  0  0  0  0  0  0  0  0
   29.9853   -7.8191   -8.3330 N   0  0  0  0  0  0  0  0  0  0  0  0
 16 17  1  0  0  0
 17  1  1  0  0  0
  1  2  1  0  0  0
  1  3  1  0  0  0
  2  5  1  0  0  0
  3 19  1  0  0  0
  3  4  1  0  0  0
 19 20  2  0  0  0
 20 21  2  0  0  0
  4  5  1  0  0  0
  5  6  1  0  0  0
  6  7  1  0  0  0
  6 14  1  0  0  0
  7  8  2  0  0  0
  7  9  1  0  0  0
  9 10  1  0  0  0
 10 11  2  0  0  0
 10 12  1  0  0  0
 12 13  1  0  0  0
 12 14  2  0  0  0
 16 18  1  0  0  0
  9 15  1  0  0  0
M  CHG 1  20   1
M  CHG 1  21  -1
M  END
> <minimizedAffinity>
-6.54717

$$$$
4LHM_AZZ_A_510


 21 22  0  0  0  0  0  0  0  0999 V2000
   36.6813  -11.8903   -1.9890 C   0  0  0  0  0  0  0  0  0  0  0  0
   35.7682  -12.4393   -2.9323 O   0  0  0  0  0  0  0  0  0  0  0  0
   35.8192  -11.4253   -0.8158 C   0  0  0  0  0  0  0  0  0  0  0  0
   34.3952  -11.3920   -1.3329 C   0  0  0  0  0  0  0  0  0  0  0  0
   34.5516  -11.7083   -2.8145 C   0  0  0  0  0  0  0  0  0  0  0  0
   33.4277  -12.5159   -3.2715 N   0  0  0  0  0  0  0  0  0  0  0  0
   32.3113  -11.8858   -3.8689 C   0  0  0  0  0  0  0  0  0  0  0  0
   32.2656  -10.6294   -4.0484 O   0  0  0  0  0  0  0  0  0  0  0  0
   31.2848  -12.6472   -4.2659 N   0  0  0  0  0  0  0  0  0  0  0  0
   31.2817  -13.9822   -4.1297 C   0  0  0  0  0  0  0  0  0  0  0  0
   30.2963  -14.6365   -4.5168 O   0  0  0  0  0  0  0  0  0  0  0  0
   32.4329  -14.6635   -3.4969 C   0  0  0  0  0  0  0  0  0  0  0  0
   32.4738  -16.1568   -3.3173 C   0  0  0  0  0  0  0  0  0  0  0  0
   33.4828  -13.8578   -3.0905 C   0  0  0  0  0  0  0  0  0  0  0  0
   30.5019  -12.2111   -4.6735 H   0  0  0  0  0  0  0  0  0  0  0  0
   38.6389  -12.3637   -0.6307 O   0  0  0  0  0  0  0  0  0  0  0  0
   37.7613  -12.9023   -1.6344 C   0  0  0  0  0  0  0  0  0  0  0  0
   39.3218  -13.0175   -0.4137 H   0  0  0  0  0  0  0  0  0  0  0  0
   36.1808  -10.0519   -0.5254 N   0  0  0  0  0  0  0  0  0  0  0  0
   37.3593   -9.7255   -0.2632 N   0  0  0  0  0  0  0  0  0  0  0  0
   38.5750   -9.3817    0.0106 N   0  0  0  0  0  0  0  0  0  0  0  0
 16 17  1  0  0  0
 17  1  1  0  0  0
  1  2  1  0  0  0
  1  3  1  0  0  0
  2  5  1  0  0  0
  3 19  1  0  0  0
  3  4  1  0  0  0
 19 20  2  0  0  0
 20 21  2  0  0  0
  4  5  1  0  0  0
  5  6  1  0  0  0
  6  7  1  0  0  0
  6 14  1  0  0  0
  7  8  2  0  0  0
  7  9  1  0  0  0
  9 10  1  0  0  0
 10 11  2  0  0  0
 10 12  1  0  0  0
 12 13  1  0  0  0
 12 14  2  0  0  0
 16 18  1  0  0  0
  9 15  1  0  0  0
M  CHG 1  20   1
M  CHG 1  21  -1
M  END
> <minimizedAffinity>
-6.45743

$$$$
4LHM_AZZ_A_510


 21 22  0  0  0  0  0  0  0  0999 V2000
   32.7804  -13.1617   -2.9476 C   0  0  0  0  0  0  0  0  0  0  0  0
   34.1436  -12.8774   -2.6548 O   0  0  0  0  0  0  0  0  0  0  0  0
   32.1501  -13.5411   -1.6080 C   0  0  0  0  0  0  0  0  0  0  0  0
   33.3055  -13.8238   -0.6693 C   0  0  0  0  0  0  0  0  0  0  0  0
   34.5266  -13.7221   -1.5739 C   0  0  0  0  0  0  0  0  0  0  0  0
   35.6408  -13.1347   -0.8406 N   0  0  0  0  0  0  0  0  0  0  0  0
   36.4261  -13.9493    0.0080 C   0  0  0  0  0  0  0  0  0  0  0  0
   36.2091  -15.1943    0.1333 O   0  0  0  0  0  0  0  0  0  0  0  0
   37.4337  -13.3837    0.6831 N   0  0  0  0  0  0  0  0  0  0  0  0
   37.7326  -12.0799    0.5749 C   0  0  0  0  0  0  0  0  0  0  0  0
   38.6813  -11.6111    1.2300 O   0  0  0  0  0  0  0  0  0  0  0  0
   36.9183  -11.2046   -0.2974 C   0  0  0  0  0  0  0  0  0  0  0  0
   37.2107   -9.7364   -0.4476 C   0  0  0  0  0  0  0  0  0  0  0  0
   35.8791  -11.8085   -0.9843 C   0  0  0  0  0  0  0  0  0  0  0  0
   37.9765  -13.9456    1.2821 H   0  0  0  0  0  0  0  0  0  0  0  0
   30.7117  -12.2064   -3.7897 O   0  0  0  0  0  0  0  0  0  0  0  0
   32.1264  -11.9852   -3.6579 C   0  0  0  0  0  0  0  0  0  0  0  0
   30.3071  -11.4505   -4.2434 H   0  0  0  0  0  0  0  0  0  0  0  0
   31.4562  -14.8003   -1.7928 N   0  0  0  0  0  0  0  0  0  0  0  0
   31.9454  -15.7242   -2.4793 N   0  0  0  0  0  0  0  0  0  0  0  0
   32.4446  -16.6823   -3.1891 N   0  0  0  0  0  0  0  0  0  0  0  0
 16 17  1  0  0  0
 17  1  1  0  0  0
  1  2  1  0  0  0
  1  3  1  0  0  0
  2  5  1  0  0  0
  3 19  1  0  0  0
  3  4  1  0  0  0
 19 20  2  0  0  0
 20 21  2  0  0  0
  4  5  1  0  0  0
  5  6  1  0  0  0
  6  7  1  0  0  0
  6 14  1  0  0  0
  7  8  2  0  0  0
  7  9  1  0  0  0
  9 10  1  0  0  0
 10 11  2  0  0  0
 10 12  1  0  0  0
 12 13  1  0  0  0
 12 14  2  0  0  0
 16 18  1  0  0  0
  9 15  1  0  0  0
M  CHG 1  20   1
M  CHG 1  21  -1
M  END
> <minimizedAffinity>
-6.45064

$$$$
4LHM_AZZ_A_510


 21 22  0  0  0  0  0  0  0  0999 V2000
   32.0181  -11.4402   -3.4001 C   0  0  0  0  0  0  0  0  0  0  0  0
   32.7010  -12.5293   -2.7898 O   0  0  0  0  0  0  0  0  0  0  0  0
   32.3339  -10.2256   -2.5279 C   0  0  0  0  0  0  0  0  0  0  0  0
   32.8828  -10.7778   -1.2279 C   0  0  0  0  0  0  0  0  0  0  0  0
   32.7159  -12.2833   -1.3870 C   0  0  0  0  0  0  0  0  0  0  0  0
   33.8354  -12.9762   -0.7619 N   0  0  0  0  0  0  0  0  0  0  0  0
   33.6161  -14.2108   -0.1079 C   0  0  0  0  0  0  0  0  0  0  0  0
   32.4700  -14.7566   -0.0700 O   0  0  0  0  0  0  0  0  0  0  0  0
   34.6569  -14.8200    0.4724 N   0  0  0  0  0  0  0  0  0  0  0  0
   35.8980  -14.3103    0.4456 C   0  0  0  0  0  0  0  0  0  0  0  0
   36.8255  -14.9229    1.0053 O   0  0  0  0  0  0  0  0  0  0  0  0
   36.1505  -13.0140   -0.2221 C   0  0  0  0  0  0  0  0  0  0  0  0
   37.5229  -12.3995   -0.2743 C   0  0  0  0  0  0  0  0  0  0  0  0
   35.0603  -12.3988   -0.8133 C   0  0  0  0  0  0  0  0  0  0  0  0
   34.5062  -15.6749    0.9368 H   0  0  0  0  0  0  0  0  0  0  0  0
   32.0058  -10.0283   -5.3769 O   0  0  0  0  0  0  0  0  0  0  0  0
   32.4187  -11.3059   -4.8622 C   0  0  0  0  0  0  0  0  0  0  0  0
   32.2666   -9.9553   -6.3084 H   0  0  0  0  0  0  0  0  0  0  0  0
   31.0759   -9.5840   -2.2007 N   0  0  0  0  0  0  0  0  0  0  0  0
   30.3760   -9.0283   -3.0756 N   0  0  0  0  0  0  0  0  0  0  0  0
   29.6488   -8.4505   -3.9747 N   0  0  0  0  0  0  0  0  0  0  0  0
 16 17  1  0  0  0
 17  1  1  0  0  0
  1  2  1  0  0  0
  1  3  1  0  0  0
  2  5  1  0  0  0
  3 19  1  0  0  0
  3  4  1  0  0  0
 19 20  2  0  0  0
 20 21  2  0  0  0
  4  5  1  0  0  0
  5  6  1  0  0  0
  6  7  1  0  0  0
  6 14  1  0  0  0
  7  8  2  0  0  0
  7  9  1  0  0  0
  9 10  1  0  0  0
 10 11  2  0  0  0
 10 12  1  0  0  0
 12 13  1  0  0  0
 12 14  2  0  0  0
 16 18  1  0  0  0
  9 15  1  0  0  0
M  CHG 1  20   1
M  CHG 1  21  -1
M  END
> <minimizedAffinity>
-6.43079

$$$$
4LHM_AZZ_A_510


 21 22  0  0  0  0  0  0  0  0999 V2000
   35.2861  -17.1670   -2.2796 C   0  0  0  0  0  0  0  0  0  0  0  0
   36.0409  -16.2759   -1.4666 O   0  0  0  0  0  0  0  0  0  0  0  0
   34.3633  -16.2742   -3.1085 C   0  0  0  0  0  0  0  0  0  0  0  0
   34.3788  -14.9180   -2.4329 C   0  0  0  0  0  0  0  0  0  0  0  0
   35.2041  -15.1606   -1.1761 C   0  0  0  0  0  0  0  0  0  0  0  0
   36.0113  -13.9845   -0.8768 N   0  0  0  0  0  0  0  0  0  0  0  0
   36.6779  -13.8922    0.3671 C   0  0  0  0  0  0  0  0  0  0  0  0
   36.6197  -14.8214    1.2309 O   0  0  0  0  0  0  0  0  0  0  0  0
   37.4000  -12.7954    0.6250 N   0  0  0  0  0  0  0  0  0  0  0  0
   37.5242  -11.7899   -0.2550 C   0  0  0  0  0  0  0  0  0  0  0  0
   38.2085  -10.7941    0.0432 O   0  0  0  0  0  0  0  0  0  0  0  0
   36.8266  -11.8577   -1.5584 C   0  0  0  0  0  0  0  0  0  0  0  0
   36.9308  -10.7539   -2.5754 C   0  0  0  0  0  0  0  0  0  0  0  0
   36.0826  -12.9990   -1.8042 C   0  0  0  0  0  0  0  0  0  0  0  0
   37.8577  -12.7234    1.4937 H   0  0  0  0  0  0  0  0  0  0  0  0
   37.3916  -18.3776   -2.3322 O   0  0  0  0  0  0  0  0  0  0  0  0
   36.2078  -18.0689   -3.0879 C   0  0  0  0  0  0  0  0  0  0  0  0
   37.9700  -18.9521   -2.8578 H   0  0  0  0  0  0  0  0  0  0  0  0
   33.0150  -16.7869   -2.9652 N   0  0  0  0  0  0  0  0  0  0  0  0
   32.0157  -16.0962   -3.2626 N   0  0  0  0  0  0  0  0  0  0  0  0
   30.9785  -15.3870   -3.5663 N   0  0  0  0  0  0  0  0  0  0  0  0
 16 17  1  0  0  0
 17  1  1  0  0  0
  1  2  1  0  0  0
  1  3  1  0  0  0
  2  5  1  0  0  0
  3 19  1  0  0  0
  3  4  1  0  0  0
 19 20  2  0  0  0
 20 21  2  0  0  0
  4  5  1  0  0  0
  5  6  1  0  0  0
  6  7  1  0  0  0
  6 14  1  0  0  0
  7  8  2  0  0  0
  7  9  1  0  0  0
  9 10  1  0  0  0
 10 11  2  0  0  0
 10 12  1  0  0  0
 12 13  1  0  0  0
 12 14  2  0  0  0
 16 18  1  0  0  0
  9 15  1  0  0  0
M  CHG 1  20   1
M  CHG 1  21  -1
M  END
> <minimizedAffinity>
-6.39560

$$$$
4LHM_AZZ_A_510


 21 22  0  0  0  0  0  0  0  0999 V2000
   35.5132  -11.9377   -0.8245 C   0  0  0  0  0  0  0  0  0  0  0  0
   34.1304  -12.1181   -1.1083 O   0  0  0  0  0  0  0  0  0  0  0  0
   36.2522  -12.7760   -1.8670 C   0  0  0  0  0  0  0  0  0  0  0  0
   35.2163  -13.7076   -2.4629 C   0  0  0  0  0  0  0  0  0  0  0  0
   33.9753  -13.4373   -1.6222 C   0  0  0  0  0  0  0  0  0  0  0  0
   32.7826  -13.5204   -2.4558 N   0  0  0  0  0  0  0  0  0  0  0  0
   32.1459  -14.7694   -2.6425 C   0  0  0  0  0  0  0  0  0  0  0  0
   32.5656  -15.8280   -2.0802 O   0  0  0  0  0  0  0  0  0  0  0  0
   31.0617  -14.8230   -3.4252 N   0  0  0  0  0  0  0  0  0  0  0  0
   30.5516  -13.7373   -4.0266 C   0  0  0  0  0  0  0  0  0  0  0  0
   29.5414  -13.8508   -4.7446 O   0  0  0  0  0  0  0  0  0  0  0  0
   31.2069  -12.4213   -3.8564 C   0  0  0  0  0  0  0  0  0  0  0  0
   30.6759  -11.1767   -4.5141 C   0  0  0  0  0  0  0  0  0  0  0  0
   32.3285  -12.3880   -3.0456 C   0  0  0  0  0  0  0  0  0  0  0  0
   30.6214  -15.6924   -3.5651 H   0  0  0  0  0  0  0  0  0  0  0  0
   36.5762  -10.1245    0.3936 O   0  0  0  0  0  0  0  0  0  0  0  0
   35.8714  -10.4586   -0.8145 C   0  0  0  0  0  0  0  0  0  0  0  0
   36.7985   -9.1803    0.3876 H   0  0  0  0  0  0  0  0  0  0  0  0
   37.1991  -13.6161   -1.1605 N   0  0  0  0  0  0  0  0  0  0  0  0
   36.9350  -14.1023   -0.0389 N   0  0  0  0  0  0  0  0  0  0  0  0
   36.6690  -14.6062    1.1214 N   0  0  0  0  0  0  0  0  0  0  0  0
 16 17  1  0  0  0
 17  1  1  0  0  0
  1  2  1  0  0  0
  1  3  1  0  0  0
  2  5  1  0  0  0
  3 19  1  0  0  0
  3  4  1  0  0  0
 19 20  2  0  0  0
 20 21  2  0  0  0
  4  5  1  0  0  0
  5  6  1  0  0  0
  6  7  1  0  0  0
  6 14  1  0  0  0
  7  8  2  0  0  0
  7  9  1  0  0  0
  9 10  1  0  0  0
 10 11  2  0  0  0
 10 12  1  0  0  0
 12 13  1  0  0  0
 12 14  2  0  0  0
 16 18  1  0  0  0
  9 15  1  0  0  0
M  CHG 1  20   1
M  CHG 1  21  -1
M  END
> <minimizedAffinity>
-6.36033

$$$$
