1I7Z_COC_A_301
  RCSB PDB12061702493D
Coordinates from PDB:1I7Z:A:301 Model:1 without hydrogens
 22 24  0  0  0  0            999 V2000
   40.3620    4.8820   50.1180   C 0  0  0  0  0  0  0  0  0  0  0  0
   39.6820    4.2280   49.0120   O 0  0  0  0  0  0  0  0  0  0  0  0
   40.1310    4.4390   47.7590   C 0  0  0  0  0  0  0  0  0  0  0  0
   41.2660    4.7520   47.4970   O 0  0  0  0  0  0  0  0  0  0  0  0
   38.9430    4.2070   46.8010   C 0  0  0  0  0  0  0  0  0  0  0  0
   39.4460    3.4330   45.5100   C 0  0  0  0  0  0  0  0  0  0  0  0
   40.5100    4.2460   44.8810   N 0  0  0  0  0  0  0  0  0  0  0  0
   41.3640    3.4710   43.9470   C 0  0  0  0  0  0  0  0  0  0  0  0
   38.3560    3.2370   44.4180   C 0  0  0  0  0  0  0  0  0  0  0  0
   38.5320    4.4870   43.5100   C 0  0  0  0  0  0  0  0  0  0  0  0
   39.6850    5.2640   44.1930   C 0  0  0  0  0  0  0  0  0  0  0  0
   39.1480    6.2560   45.2890   C 0  0  0  0  0  0  0  0  0  0  0  0
   38.2790    5.5110   46.3060   C 0  0  0  0  0  0  0  0  0  0  0  0
   37.9450    6.3730   47.4520   O 0  0  0  0  0  0  0  0  0  0  0  0
   36.9150    6.0730   48.2820   C 0  0  0  0  0  0  0  0  0  0  0  0
   36.0530    5.2800   48.0160   O 0  0  0  0  0  0  0  0  0  0  0  0
   36.9850    6.8630   49.5910   C 0  0  0  0  0  0  0  0  0  0  0  0
   36.0250    6.5910   50.6020   C 0  0  0  0  0  0  0  0  0  0  0  0
   36.0760    7.3130   51.8230   C 0  0  0  0  0  0  0  0  0  0  0  0
   37.0400    8.2650   52.0360   C 0  0  0  0  0  0  0  0  0  0  0  0
   37.9830    8.5380   51.0520   C 0  0  0  0  0  0  0  0  0  0  0  0
   37.9560    7.8350   49.8230   C 0  0  0  0  0  0  0  0  0  0  0  0
  1  2  1  0  0  0  0
  2  3  1  0  0  0  0
  3  4  2  0  0  0  0
  3  5  1  0  0  0  0
  5  6  1  0  0  0  0
  5 13  1  0  0  0  0
  6  7  1  0  0  0  0
  6  9  1  0  0  0  0
  7  8  1  0  0  0  0
  7 11  1  0  0  0  0
  9 10  1  0  0  0  0
 10 11  1  0  0  0  0
 11 12  1  0  0  0  0
 12 13  1  0  0  0  0
 13 14  1  0  0  0  0
 14 15  1  0  0  0  0
 15 16  2  0  0  0  0
 15 17  1  0  0  0  0
 17 18  2  0  0  0  0
 17 22  1  0  0  0  0
 18 19  1  0  0  0  0
 19 20  2  0  0  0  0
 20 21  1  0  0  0  0
 21 22  2  0  0  0  0
A    1
C1
A    2
O5
A    3
C6
A    4
O7
A    5
C8
A    6
C10
A    7
N12
A    8
C14
A    9
C18
A   10
C21
A   11
C24
A   12
C26
A   13
C29
A   14
O1
A   15
C2
A   16
O3
A   17
C4
A   18
C5
A   19
C7
A   20
C9
A   21
C11
A   22
C13
M  END
>  <InstanceId>
1I7Z_COC_A_301

>  <ChemCompId>
COC

>  <PdbId>
1I7Z

>  <ChainId>
A

>  <ResidueNumber>
301

>  <InsertionCode>


>  <Model>
1

>  <AltIds>


>  <MissingHeavyAtoms>
0

>  <ObservedFormula>
C17 N O4

>  <Name>
COCAINE

>  <SystematicName>
methyl (1R,2R,3S,5S,8S)-8-methyl-3-(phenylcarbonyloxy)-8-azabicyclo[3.2.1]octane-2-carboxylate

>  <Synonyms>


>  <Type>
NON-POLYMER

>  <Formula>
C17 H21 N O4

>  <MolecularWeight>
303.353

>  <ModifiedDate>
2011-06-04

>  <Parent>


>  <OneLetterCode>


>  <SubcomponentList>


>  <AmbiguousFlag>
N

>  <InChI>
InChI=1S/C17H21NO4/c1-18-12-8-9-13(18)15(17(20)21-2)14(10-12)22-16(19)11-6-4-3-5-7-11/h3-7,12-15H,8-10H2,1-2H3/t12-,13+,14-,15+/m0/s1

>  <InChIKey>
ZPUCINDJVBIVPJ-LJISPDSOSA-N

>  <SMILES>
C[N@]1[C@H]2CC[C@@H]1[C@H]([C@H](C2)OC(=O)c3ccccc3)C(=O)OC

$$$$
