3MZC_S6I_A_263
  RCSB PDB12061709503D
Coordinates from PDB:3MZC:A:263 Model:1 without hydrogens
 19 20  0  0  0  0            999 V2000
   -5.0690    2.2280   15.7970   C 0  0  0  0  0  0  0  0  0  0  0  0
   -5.3850   -0.4900   16.1470   N 0  0  0  0  0  0  0  0  0  0  0  0
   -7.3100    1.1610   16.6550   O 0  0  0  0  0  0  0  0  0  0  0  0
   -5.8620    0.9760   16.7700   S 0  0  0  0  0  0  0  0  0  0  0  0
   -5.7650    3.3080   15.3320   C 0  0  0  0  0  0  0  0  0  0  0  0
   -5.3530    1.1050   18.1370   O 0  0  0  0  0  0  0  0  0  0  0  0
   -5.1270    4.2980   14.6120   C 0  0  0  0  0  0  0  0  0  0  0  0
   -3.7750    4.1690   14.3490   C 0  0  0  0  0  0  0  0  0  0  0  0
   -3.0900    3.1030   14.8080   C 0  0  0  0  0  0  0  0  0  0  0  0
   -3.7020    2.1450   15.5090   C 0  0  0  0  0  0  0  0  0  0  0  0
   -2.9260    5.1230   13.6770   N 0  0  0  0  0  0  0  0  0  0  0  0
   -3.2450    6.4550   13.3690   C 0  0  0  0  0  0  0  0  0  0  0  0
   -4.3040    6.9340   13.6480   O 0  0  0  0  0  0  0  0  0  0  0  0
   -2.0960    7.2070   12.9610   N 0  0  0  0  0  0  0  0  0  0  0  0
   -2.1060    8.5580   12.8950   C 0  0  0  0  0  0  0  0  0  0  0  0
   -2.1230    9.0870   14.2700   C 0  0  0  0  0  0  0  0  0  0  0  0
   -0.7180    9.1120   14.7700   C 0  0  0  0  0  0  0  0  0  0  0  0
    0.1500    9.0570   13.5390   C 0  0  0  0  0  0  0  0  0  0  0  0
   -0.7970    9.0040   12.3390   C 0  0  0  0  0  0  0  0  0  0  0  0
  5  1  2  0  0  0  0
 10  1  1  0  0  0  0
  1  4  1  0  0  0  0
  2  4  1  0  0  0  0
  3  4  2  0  0  0  0
  4  6  2  0  0  0  0
  7  5  1  0  0  0  0
  8  7  2  0  0  0  0
 11  8  1  0  0  0  0
  8  9  1  0  0  0  0
  9 10  2  0  0  0  0
 12 11  1  0  0  0  0
 14 12  1  0  0  0  0
 12 13  2  0  0  0  0
 15 14  1  0  0  0  0
 19 15  1  0  0  0  0
 15 16  1  0  0  0  0
 16 17  1  0  0  0  0
 18 17  1  0  0  0  0
 19 18  1  0  0  0  0
A    1
C1
A    2
N1
A    3
O1
A    4
S1
A    5
C2
A    6
O2
A    7
C3
A    8
C4
A    9
C5
A   10
C6
A   11
N7
A   12
C8
A   13
O8
A   14
N9
A   15
C10
A   16
C11
A   17
C12
A   18
C13
A   19
C14
M  END
>  <InstanceId>
3MZC_S6I_A_263

>  <ChemCompId>
S6I

>  <PdbId>
3MZC

>  <ChainId>
A

>  <ResidueNumber>
263

>  <InsertionCode>


>  <Model>
1

>  <AltIds>


>  <MissingHeavyAtoms>
0

>  <ObservedFormula>
C12 N3 O3 S

>  <Name>
4-[(cyclopentylcarbamoyl)amino]benzenesulfonamide

>  <SystematicName>
1-cyclopentyl-3-(4-sulfamoylphenyl)urea

>  <Synonyms>


>  <Type>
NON-POLYMER

>  <Formula>
C12 H17 N3 O3 S

>  <MolecularWeight>
283.347

>  <ModifiedDate>
2011-06-04

>  <Parent>


>  <OneLetterCode>


>  <SubcomponentList>


>  <AmbiguousFlag>
N

>  <InChI>
InChI=1S/C12H17N3O3S/c13-19(17,18)11-7-5-10(6-8-11)15-12(16)14-9-3-1-2-4-9/h5-9H,1-4H2,(H2,13,17,18)(H2,14,15,16)

>  <InChIKey>
QRZYENXYGGOPSS-UHFFFAOYSA-N

>  <SMILES>
c1cc(ccc1NC(=O)NC2CCCC2)S(=O)(=O)N

$$$$
