3MZC_S6I_A_263


 23 24  0  0  0  0  0  0  0  0999 V2000
   -5.4038    2.4275   16.0313 C   0  0  0  0  0  0  0  0  0  0  0  0
   -4.1332    2.5361   15.5408 C   0  0  0  0  0  0  0  0  0  0  0  0
   -3.7788    3.6014   14.7377 C   0  0  0  0  0  0  0  0  0  0  0  0
   -4.7247    4.5703   14.4548 C   0  0  0  0  0  0  0  0  0  0  0  0
   -5.9775    4.4620   14.9396 C   0  0  0  0  0  0  0  0  0  0  0  0
   -6.3263    3.4307   15.7132 C   0  0  0  0  0  0  0  0  0  0  0  0
   -7.5521    0.9983   17.0072 N   0  0  0  0  0  0  0  0  0  0  0  0
   -5.3681    1.2371   18.3719 O   0  0  0  0  0  0  0  0  0  0  0  0
   -5.8899    1.0373   17.0184 S   0  0  0  0  0  0  0  0  0  0  0  0
   -5.3772   -0.1632   16.3549 O   0  0  0  0  0  0  0  0  0  0  0  0
   -7.9149    1.8327   17.4684 H   0  0  0  0  0  0  0  0  0  0  0  0
   -7.8761    0.1679   17.5029 H   0  0  0  0  0  0  0  0  0  0  0  0
   -4.5655    5.7126   13.5873 N   0  0  0  0  0  0  0  0  0  0  0  0
   -4.5716    5.7040   12.1835 C   0  0  0  0  0  0  0  0  0  0  0  0
   -4.7118    4.6961   11.5564 O   0  0  0  0  0  0  0  0  0  0  0  0
   -4.6736    7.0229   11.6339 N   0  0  0  0  0  0  0  0  0  0  0  0
   -4.4398    6.5859   14.0241 H   0  0  0  0  0  0  0  0  0  0  0  0
   -4.5126    7.7970   12.2206 H   0  0  0  0  0  0  0  0  0  0  0  0
   -4.9839    7.2398   10.3353 C   0  0  0  0  0  0  0  0  0  0  0  0
   -6.4279    7.0050   10.1605 C   0  0  0  0  0  0  0  0  0  0  0  0
   -7.1466    8.2523   10.5508 C   0  0  0  0  0  0  0  0  0  0  0  0
   -6.1149    9.3494   10.4888 C   0  0  0  0  0  0  0  0  0  0  0  0
   -4.8044    8.6922   10.0528 C   0  0  0  0  0  0  0  0  0  0  0  0
  2  1  2  0  0  0
  6  1  1  0  0  0
  1  9  1  0  0  0
  7  9  1  0  0  0
  8  9  2  0  0  0
  9 10  2  0  0  0
  3  2  1  0  0  0
  4  3  2  0  0  0
 13  4  1  0  0  0
  4  5  1  0  0  0
  5  6  2  0  0  0
 14 13  1  0  0  0
 16 14  1  0  0  0
 14 15  2  0  0  0
 19 16  1  0  0  0
 23 19  1  0  0  0
 19 20  1  0  0  0
 20 21  1  0  0  0
 22 21  1  0  0  0
 23 22  1  0  0  0
  7 11  1  0  0  0
  7 12  1  0  0  0
 13 17  1  0  0  0
 16 18  1  0  0  0
M  END
> <minimizedAffinity>
-7.43880

$$$$
3MZC_S6I_A_263


 23 24  0  0  0  0  0  0  0  0999 V2000
   -5.2939    2.2920   16.2098 C   0  0  0  0  0  0  0  0  0  0  0  0
   -5.8083    3.2745   15.4115 C   0  0  0  0  0  0  0  0  0  0  0  0
   -4.9873    3.9974   14.5696 C   0  0  0  0  0  0  0  0  0  0  0  0
   -3.6376    3.6967   14.5299 C   0  0  0  0  0  0  0  0  0  0  0  0
   -3.1318    2.7272   15.3176 C   0  0  0  0  0  0  0  0  0  0  0  0
   -3.9214    2.0283   16.1371 C   0  0  0  0  0  0  0  0  0  0  0  0
   -5.6661   -0.1272   17.4820 N   0  0  0  0  0  0  0  0  0  0  0  0
   -7.6754    1.3384   16.7718 O   0  0  0  0  0  0  0  0  0  0  0  0
   -6.3254    1.3923   17.3365 S   0  0  0  0  0  0  0  0  0  0  0  0
   -6.2491    2.0744   18.6300 O   0  0  0  0  0  0  0  0  0  0  0  0
   -5.7167   -0.6073   16.5834 H   0  0  0  0  0  0  0  0  0  0  0  0
   -6.1862   -0.6580   18.1807 H   0  0  0  0  0  0  0  0  0  0  0  0
   -2.6176    4.3797   13.7712 N   0  0  0  0  0  0  0  0  0  0  0  0
   -1.8981    3.8626   12.6823 C   0  0  0  0  0  0  0  0  0  0  0  0
   -2.0762    2.7533   12.2742 O   0  0  0  0  0  0  0  0  0  0  0  0
   -1.1716    4.8787   11.9810 N   0  0  0  0  0  0  0  0  0  0  0  0
   -2.4048    5.3012   14.0448 H   0  0  0  0  0  0  0  0  0  0  0  0
   -1.0488    5.7571   12.4084 H   0  0  0  0  0  0  0  0  0  0  0  0
   -0.6488    4.6710   10.7509 C   0  0  0  0  0  0  0  0  0  0  0  0
   -0.4359    5.9818   10.1127 C   0  0  0  0  0  0  0  0  0  0  0  0
    0.8721    6.5175   10.5889 C   0  0  0  0  0  0  0  0  0  0  0  0
    1.6302    5.3252   11.1138 C   0  0  0  0  0  0  0  0  0  0  0  0
    0.7218    4.1100   10.9191 C   0  0  0  0  0  0  0  0  0  0  0  0
  2  1  2  0  0  0
  6  1  1  0  0  0
  1  9  1  0  0  0
  7  9  1  0  0  0
  8  9  2  0  0  0
  9 10  2  0  0  0
  3  2  1  0  0  0
  4  3  2  0  0  0
 13  4  1  0  0  0
  4  5  1  0  0  0
  5  6  2  0  0  0
 14 13  1  0  0  0
 16 14  1  0  0  0
 14 15  2  0  0  0
 19 16  1  0  0  0
 23 19  1  0  0  0
 19 20  1  0  0  0
 20 21  1  0  0  0
 22 21  1  0  0  0
 23 22  1  0  0  0
  7 11  1  0  0  0
  7 12  1  0  0  0
 13 17  1  0  0  0
 16 18  1  0  0  0
M  END
> <minimizedAffinity>
-6.90230

$$$$
3MZC_S6I_A_263


 23 24  0  0  0  0  0  0  0  0999 V2000
   -5.2090    2.3874   15.9933 C   0  0  0  0  0  0  0  0  0  0  0  0
   -6.0534    3.3659   15.5500 C   0  0  0  0  0  0  0  0  0  0  0  0
   -5.5656    4.4499   14.8482 C   0  0  0  0  0  0  0  0  0  0  0  0
   -4.2101    4.5195   14.5809 C   0  0  0  0  0  0  0  0  0  0  0  0
   -3.3786    3.5533   15.0185 C   0  0  0  0  0  0  0  0  0  0  0  0
   -3.8453    2.5050   15.7019 C   0  0  0  0  0  0  0  0  0  0  0  0
   -7.4709    1.0519   16.8361 N   0  0  0  0  0  0  0  0  0  0  0  0
   -5.3610    1.1900   18.3257 O   0  0  0  0  0  0  0  0  0  0  0  0
   -5.8120    1.0173   16.9433 S   0  0  0  0  0  0  0  0  0  0  0  0
   -5.3151   -0.2029   16.3041 O   0  0  0  0  0  0  0  0  0  0  0  0
   -7.8227    1.9002   17.2800 H   0  0  0  0  0  0  0  0  0  0  0  0
   -7.8592    0.2352   17.3079 H   0  0  0  0  0  0  0  0  0  0  0  0
   -3.5081    5.5969   13.9261 N   0  0  0  0  0  0  0  0  0  0  0  0
   -3.2612    6.8753   14.4512 C   0  0  0  0  0  0  0  0  0  0  0  0
   -3.6357    7.1966   15.5399 O   0  0  0  0  0  0  0  0  0  0  0  0
   -2.3050    7.6053   13.6733 N   0  0  0  0  0  0  0  0  0  0  0  0
   -3.1680    5.4174   13.0198 H   0  0  0  0  0  0  0  0  0  0  0  0
   -2.0779    7.2814   12.7718 H   0  0  0  0  0  0  0  0  0  0  0  0
   -1.7040    8.7249   14.1369 C   0  0  0  0  0  0  0  0  0  0  0  0
   -0.2516    8.5878   13.9312 C   0  0  0  0  0  0  0  0  0  0  0  0
    0.0540    8.9926   12.5286 C   0  0  0  0  0  0  0  0  0  0  0  0
   -1.1280    9.8121   12.0779 C   0  0  0  0  0  0  0  0  0  0  0  0
   -2.1005    9.8611   13.2575 C   0  0  0  0  0  0  0  0  0  0  0  0
  2  1  2  0  0  0
  6  1  1  0  0  0
  1  9  1  0  0  0
  7  9  1  0  0  0
  8  9  2  0  0  0
  9 10  2  0  0  0
  3  2  1  0  0  0
  4  3  2  0  0  0
 13  4  1  0  0  0
  4  5  1  0  0  0
  5  6  2  0  0  0
 14 13  1  0  0  0
 16 14  1  0  0  0
 14 15  2  0  0  0
 19 16  1  0  0  0
 23 19  1  0  0  0
 19 20  1  0  0  0
 20 21  1  0  0  0
 22 21  1  0  0  0
 23 22  1  0  0  0
  7 11  1  0  0  0
  7 12  1  0  0  0
 13 17  1  0  0  0
 16 18  1  0  0  0
M  END
> <minimizedAffinity>
-6.87533

$$$$
3MZC_S6I_A_263


 23 24  0  0  0  0  0  0  0  0999 V2000
   -1.4017    3.1754   10.7427 C   0  0  0  0  0  0  0  0  0  0  0  0
   -1.3699    1.8099   10.7826 C   0  0  0  0  0  0  0  0  0  0  0  0
   -2.1973    1.1127   11.6397 C   0  0  0  0  0  0  0  0  0  0  0  0
   -3.0761    1.8172   12.4428 C   0  0  0  0  0  0  0  0  0  0  0  0
   -3.1066    3.1640   12.4020 C   0  0  0  0  0  0  0  0  0  0  0  0
   -2.3047    3.8431   11.5778 C   0  0  0  0  0  0  0  0  0  0  0  0
   -0.5914    5.6995    9.9799 N   0  0  0  0  0  0  0  0  0  0  0  0
   -0.6130    3.7326    8.3005 O   0  0  0  0  0  0  0  0  0  0  0  0
   -0.3070    4.0875    9.6878 S   0  0  0  0  0  0  0  0  0  0  0  0
    1.0600    3.7594   10.0976 O   0  0  0  0  0  0  0  0  0  0  0  0
   -1.5427    5.9338    9.6962 H   0  0  0  0  0  0  0  0  0  0  0  0
    0.0709    6.2636    9.4473 H   0  0  0  0  0  0  0  0  0  0  0  0
   -3.9643    1.2751   13.4426 N   0  0  0  0  0  0  0  0  0  0  0  0
   -3.7885    1.3277   14.8344 C   0  0  0  0  0  0  0  0  0  0  0  0
   -2.8359    1.8493   15.3338 O   0  0  0  0  0  0  0  0  0  0  0  0
   -4.9746    0.9532   15.5451 N   0  0  0  0  0  0  0  0  0  0  0  0
   -4.7753    0.8226   13.1157 H   0  0  0  0  0  0  0  0  0  0  0  0
   -5.6992    0.4998   15.0565 H   0  0  0  0  0  0  0  0  0  0  0  0
   -5.1318    1.2020   16.8653 C   0  0  0  0  0  0  0  0  0  0  0  0
   -5.5784    2.5972   17.0220 C   0  0  0  0  0  0  0  0  0  0  0  0
   -7.0571    2.6305   16.8297 C   0  0  0  0  0  0  0  0  0  0  0  0
   -7.5240    1.2129   17.0399 C   0  0  0  0  0  0  0  0  0  0  0  0
   -6.2774    0.3852   17.3572 C   0  0  0  0  0  0  0  0  0  0  0  0
  2  1  2  0  0  0
  6  1  1  0  0  0
  1  9  1  0  0  0
  7  9  1  0  0  0
  8  9  2  0  0  0
  9 10  2  0  0  0
  3  2  1  0  0  0
  4  3  2  0  0  0
 13  4  1  0  0  0
  4  5  1  0  0  0
  5  6  2  0  0  0
 14 13  1  0  0  0
 16 14  1  0  0  0
 14 15  2  0  0  0
 19 16  1  0  0  0
 23 19  1  0  0  0
 19 20  1  0  0  0
 20 21  1  0  0  0
 22 21  1  0  0  0
 23 22  1  0  0  0
  7 11  1  0  0  0
  7 12  1  0  0  0
 13 17  1  0  0  0
 16 18  1  0  0  0
M  END
> <minimizedAffinity>
-6.87317

$$$$
3MZC_S6I_A_263


 23 24  0  0  0  0  0  0  0  0999 V2000
   -5.4656    2.0412   15.9983 C   0  0  0  0  0  0  0  0  0  0  0  0
   -5.8000    3.3248   15.6701 C   0  0  0  0  0  0  0  0  0  0  0  0
   -5.1415    3.9838   14.6515 C   0  0  0  0  0  0  0  0  0  0  0  0
   -4.1516    3.3166   13.9524 C   0  0  0  0  0  0  0  0  0  0  0  0
   -3.8232    2.0505   14.2771 C   0  0  0  0  0  0  0  0  0  0  0  0
   -4.4543    1.4104   15.2649 C   0  0  0  0  0  0  0  0  0  0  0  0
   -6.2273    2.2325   18.6428 N   0  0  0  0  0  0  0  0  0  0  0  0
   -5.5187   -0.0308   17.6109 O   0  0  0  0  0  0  0  0  0  0  0  0
   -6.2636    1.2003   17.3397 S   0  0  0  0  0  0  0  0  0  0  0  0
   -7.6553    0.9777   16.9424 O   0  0  0  0  0  0  0  0  0  0  0  0
   -5.2598    2.3912   18.9239 H   0  0  0  0  0  0  0  0  0  0  0  0
   -6.7434    1.8184   19.4190 H   0  0  0  0  0  0  0  0  0  0  0  0
   -3.3118    3.8545   12.9094 N   0  0  0  0  0  0  0  0  0  0  0  0
   -1.9949    4.3192   13.0524 C   0  0  0  0  0  0  0  0  0  0  0  0
   -1.4311    4.3123   14.1064 O   0  0  0  0  0  0  0  0  0  0  0  0
   -1.3510    4.5204   11.7886 N   0  0  0  0  0  0  0  0  0  0  0  0
   -3.7018    3.9002   12.0066 H   0  0  0  0  0  0  0  0  0  0  0  0
   -1.9006    4.5405   10.9721 H   0  0  0  0  0  0  0  0  0  0  0  0
   -0.0126    4.6838   11.6804 C   0  0  0  0  0  0  0  0  0  0  0  0
    0.5224    3.5801   10.8640 C   0  0  0  0  0  0  0  0  0  0  0  0
    0.3517    3.9461    9.4282 C   0  0  0  0  0  0  0  0  0  0  0  0
    0.1665    5.4419    9.4118 C   0  0  0  0  0  0  0  0  0  0  0  0
    0.2402    5.9069   10.8671 C   0  0  0  0  0  0  0  0  0  0  0  0
  2  1  2  0  0  0
  6  1  1  0  0  0
  1  9  1  0  0  0
  7  9  1  0  0  0
  8  9  2  0  0  0
  9 10  2  0  0  0
  3  2  1  0  0  0
  4  3  2  0  0  0
 13  4  1  0  0  0
  4  5  1  0  0  0
  5  6  2  0  0  0
 14 13  1  0  0  0
 16 14  1  0  0  0
 14 15  2  0  0  0
 19 16  1  0  0  0
 23 19  1  0  0  0
 19 20  1  0  0  0
 20 21  1  0  0  0
 22 21  1  0  0  0
 23 22  1  0  0  0
  7 11  1  0  0  0
  7 12  1  0  0  0
 13 17  1  0  0  0
 16 18  1  0  0  0
M  END
> <minimizedAffinity>
-6.74884

$$$$
3MZC_S6I_A_263


 23 24  0  0  0  0  0  0  0  0999 V2000
   -5.7070    2.2406   15.8773 C   0  0  0  0  0  0  0  0  0  0  0  0
   -6.0905    3.5052   15.5294 C   0  0  0  0  0  0  0  0  0  0  0  0
   -5.4971    4.1510   14.4635 C   0  0  0  0  0  0  0  0  0  0  0  0
   -4.5225    3.4894   13.7381 C   0  0  0  0  0  0  0  0  0  0  0  0
   -4.1457    2.2421   14.0822 C   0  0  0  0  0  0  0  0  0  0  0  0
   -4.7137    1.6149   15.1155 C   0  0  0  0  0  0  0  0  0  0  0  0
   -5.5167    0.0479   17.5403 N   0  0  0  0  0  0  0  0  0  0  0  0
   -7.8093    1.0901   16.9512 O   0  0  0  0  0  0  0  0  0  0  0  0
   -6.4201    1.4188   17.2770 S   0  0  0  0  0  0  0  0  0  0  0  0
   -6.2752    2.3168   18.4246 O   0  0  0  0  0  0  0  0  0  0  0  0
   -5.6139   -0.5816   16.7436 H   0  0  0  0  0  0  0  0  0  0  0  0
   -5.8461   -0.4193   18.3850 H   0  0  0  0  0  0  0  0  0  0  0  0
   -3.7460    4.0182   12.6427 N   0  0  0  0  0  0  0  0  0  0  0  0
   -4.0683    3.9475   11.2782 C   0  0  0  0  0  0  0  0  0  0  0  0
   -5.0629    3.4109   10.8888 O   0  0  0  0  0  0  0  0  0  0  0  0
   -3.2442    4.8066   10.4814 N   0  0  0  0  0  0  0  0  0  0  0  0
   -2.9053    4.4745   12.8759 H   0  0  0  0  0  0  0  0  0  0  0  0
   -2.4247    5.1818   10.8776 H   0  0  0  0  0  0  0  0  0  0  0  0
   -3.5549    5.1192    9.2026 C   0  0  0  0  0  0  0  0  0  0  0  0
   -4.1216    6.4791    9.1847 C   0  0  0  0  0  0  0  0  0  0  0  0
   -2.9884    7.4486    9.1567 C   0  0  0  0  0  0  0  0  0  0  0  0
   -1.7957    6.6623    8.6760 C   0  0  0  0  0  0  0  0  0  0  0  0
   -2.2842    5.2335    8.4321 C   0  0  0  0  0  0  0  0  0  0  0  0
  2  1  2  0  0  0
  6  1  1  0  0  0
  1  9  1  0  0  0
  7  9  1  0  0  0
  8  9  2  0  0  0
  9 10  2  0  0  0
  3  2  1  0  0  0
  4  3  2  0  0  0
 13  4  1  0  0  0
  4  5  1  0  0  0
  5  6  2  0  0  0
 14 13  1  0  0  0
 16 14  1  0  0  0
 14 15  2  0  0  0
 19 16  1  0  0  0
 23 19  1  0  0  0
 19 20  1  0  0  0
 20 21  1  0  0  0
 22 21  1  0  0  0
 23 22  1  0  0  0
  7 11  1  0  0  0
  7 12  1  0  0  0
 13 17  1  0  0  0
 16 18  1  0  0  0
M  END
> <minimizedAffinity>
-6.72750

$$$$
3MZC_S6I_A_263


 23 24  0  0  0  0  0  0  0  0999 V2000
   -4.4939    2.9294   15.1232 C   0  0  0  0  0  0  0  0  0  0  0  0
   -5.6599    3.6407   15.1636 C   0  0  0  0  0  0  0  0  0  0  0  0
   -5.8149    4.7796   14.3991 C   0  0  0  0  0  0  0  0  0  0  0  0
   -4.7788    5.1781   13.5736 C   0  0  0  0  0  0  0  0  0  0  0  0
   -3.6296    4.4752   13.5346 C   0  0  0  0  0  0  0  0  0  0  0  0
   -3.4733    3.3753   14.2759 C   0  0  0  0  0  0  0  0  0  0  0  0
   -4.7768    0.1885   15.2535 N   0  0  0  0  0  0  0  0  0  0  0  0
   -5.0547    1.6675   17.3570 O   0  0  0  0  0  0  0  0  0  0  0  0
   -4.2586    1.4963   16.1400 S   0  0  0  0  0  0  0  0  0  0  0  0
   -2.8200    1.3715   16.3834 O   0  0  0  0  0  0  0  0  0  0  0  0
   -5.7787    0.2702   15.0809 H   0  0  0  0  0  0  0  0  0  0  0  0
   -4.5900   -0.6695   15.7725 H   0  0  0  0  0  0  0  0  0  0  0  0
   -4.7266    6.3671   12.7575 N   0  0  0  0  0  0  0  0  0  0  0  0
   -5.0297    6.4565   11.3897 C   0  0  0  0  0  0  0  0  0  0  0  0
   -5.3695    5.5043   10.7521 O   0  0  0  0  0  0  0  0  0  0  0  0
   -5.1527    7.8142   10.9495 N   0  0  0  0  0  0  0  0  0  0  0  0
   -4.4507    7.1994   13.2051 H   0  0  0  0  0  0  0  0  0  0  0  0
   -4.8175    8.5352   11.5302 H   0  0  0  0  0  0  0  0  0  0  0  0
   -5.7142    8.1381    9.7623 C   0  0  0  0  0  0  0  0  0  0  0  0
   -6.7768    9.1284   10.0094 C   0  0  0  0  0  0  0  0  0  0  0  0
   -6.1406   10.4752   10.0872 C   0  0  0  0  0  0  0  0  0  0  0  0
   -4.7999   10.3282    9.4144 C   0  0  0  0  0  0  0  0  0  0  0  0
   -4.6991    8.8726    8.9552 C   0  0  0  0  0  0  0  0  0  0  0  0
  2  1  2  0  0  0
  6  1  1  0  0  0
  1  9  1  0  0  0
  7  9  1  0  0  0
  8  9  2  0  0  0
  9 10  2  0  0  0
  3  2  1  0  0  0
  4  3  2  0  0  0
 13  4  1  0  0  0
  4  5  1  0  0  0
  5  6  2  0  0  0
 14 13  1  0  0  0
 16 14  1  0  0  0
 14 15  2  0  0  0
 19 16  1  0  0  0
 23 19  1  0  0  0
 19 20  1  0  0  0
 20 21  1  0  0  0
 22 21  1  0  0  0
 23 22  1  0  0  0
  7 11  1  0  0  0
  7 12  1  0  0  0
 13 17  1  0  0  0
 16 18  1  0  0  0
M  END
> <minimizedAffinity>
-6.71070

$$$$
3MZC_S6I_A_263


 23 24  0  0  0  0  0  0  0  0999 V2000
   -3.0324    1.9528   11.3289 C   0  0  0  0  0  0  0  0  0  0  0  0
   -3.1139    3.1650   11.9541 C   0  0  0  0  0  0  0  0  0  0  0  0
   -1.9800    3.9225   12.1687 C   0  0  0  0  0  0  0  0  0  0  0  0
   -0.7613    3.4451   11.7209 C   0  0  0  0  0  0  0  0  0  0  0  0
   -0.6826    2.2495   11.1040 C   0  0  0  0  0  0  0  0  0  0  0  0
   -1.7762    1.5110   10.8983 C   0  0  0  0  0  0  0  0  0  0  0  0
   -5.7855    1.9597   11.1547 N   0  0  0  0  0  0  0  0  0  0  0  0
   -4.5105   -0.0472   12.1728 O   0  0  0  0  0  0  0  0  0  0  0  0
   -4.4709    0.9433   11.0950 S   0  0  0  0  0  0  0  0  0  0  0  0
   -4.3756    0.3602    9.7551 O   0  0  0  0  0  0  0  0  0  0  0  0
   -5.8568    2.3689   12.0863 H   0  0  0  0  0  0  0  0  0  0  0  0
   -6.6335    1.4312   10.9497 H   0  0  0  0  0  0  0  0  0  0  0  0
    0.5328    4.0550   11.9097 N   0  0  0  0  0  0  0  0  0  0  0  0
    1.1522    4.9833   11.0579 C   0  0  0  0  0  0  0  0  0  0  0  0
    0.6343    5.3623   10.0496 O   0  0  0  0  0  0  0  0  0  0  0  0
    2.2921    5.6012   11.6671 N   0  0  0  0  0  0  0  0  0  0  0  0
    1.0317    3.7938   12.7173 H   0  0  0  0  0  0  0  0  0  0  0  0
    2.6712    5.2015   12.4830 H   0  0  0  0  0  0  0  0  0  0  0  0
    2.8646    6.7160   11.1580 C   0  0  0  0  0  0  0  0  0  0  0  0
    2.2690    7.8866   11.8255 C   0  0  0  0  0  0  0  0  0  0  0  0
    2.9878    8.0948   13.1157 C   0  0  0  0  0  0  0  0  0  0  0  0
    4.2946    7.3572   12.9738 C   0  0  0  0  0  0  0  0  0  0  0  0
    4.2949    6.7344   11.5768 C   0  0  0  0  0  0  0  0  0  0  0  0
  2  1  2  0  0  0
  6  1  1  0  0  0
  1  9  1  0  0  0
  7  9  1  0  0  0
  8  9  2  0  0  0
  9 10  2  0  0  0
  3  2  1  0  0  0
  4  3  2  0  0  0
 13  4  1  0  0  0
  4  5  1  0  0  0
  5  6  2  0  0  0
 14 13  1  0  0  0
 16 14  1  0  0  0
 14 15  2  0  0  0
 19 16  1  0  0  0
 23 19  1  0  0  0
 19 20  1  0  0  0
 20 21  1  0  0  0
 22 21  1  0  0  0
 23 22  1  0  0  0
  7 11  1  0  0  0
  7 12  1  0  0  0
 13 17  1  0  0  0
 16 18  1  0  0  0
M  END
> <minimizedAffinity>
-6.43010

$$$$
3MZC_S6I_A_263


 23 24  0  0  0  0  0  0  0  0999 V2000
   -2.9392    1.7818   11.6505 C   0  0  0  0  0  0  0  0  0  0  0  0
   -1.7155    1.9880   11.0786 C   0  0  0  0  0  0  0  0  0  0  0  0
   -0.9310    3.0565   11.4639 C   0  0  0  0  0  0  0  0  0  0  0  0
   -1.3935    3.9037   12.4549 C   0  0  0  0  0  0  0  0  0  0  0  0
   -2.6005    3.6987   13.0183 C   0  0  0  0  0  0  0  0  0  0  0  0
   -3.3650    2.6691   12.6455 C   0  0  0  0  0  0  0  0  0  0  0  0
   -5.4990    1.0862   10.8934 N   0  0  0  0  0  0  0  0  0  0  0  0
   -3.9859   -0.5668   12.1849 O   0  0  0  0  0  0  0  0  0  0  0  0
   -3.9822    0.4468   11.1280 S   0  0  0  0  0  0  0  0  0  0  0  0
   -3.4600   -0.0326    9.8466 O   0  0  0  0  0  0  0  0  0  0  0  0
   -5.8679    1.4218   11.7832 H   0  0  0  0  0  0  0  0  0  0  0  0
   -6.1172    0.3664   10.5189 H   0  0  0  0  0  0  0  0  0  0  0  0
   -0.7539    5.1024   12.9410 N   0  0  0  0  0  0  0  0  0  0  0  0
   -0.8697    6.3915   12.3972 C   0  0  0  0  0  0  0  0  0  0  0  0
   -1.5392    6.6148   11.4325 O   0  0  0  0  0  0  0  0  0  0  0  0
   -0.3440    7.3976   13.2712 N   0  0  0  0  0  0  0  0  0  0  0  0
   -0.1782    5.0066   13.7339 H   0  0  0  0  0  0  0  0  0  0  0  0
    0.2242    7.1224   14.0266 H   0  0  0  0  0  0  0  0  0  0  0  0
   -0.6028    8.7132   13.0925 C   0  0  0  0  0  0  0  0  0  0  0  0
   -1.9888    8.9730   13.5194 C   0  0  0  0  0  0  0  0  0  0  0  0
   -1.9856    9.1644   14.9986 C   0  0  0  0  0  0  0  0  0  0  0  0
   -0.5597    9.4926   15.3605 C   0  0  0  0  0  0  0  0  0  0  0  0
    0.2353    9.4845   14.0538 C   0  0  0  0  0  0  0  0  0  0  0  0
  2  1  2  0  0  0
  6  1  1  0  0  0
  1  9  1  0  0  0
  7  9  1  0  0  0
  8  9  2  0  0  0
  9 10  2  0  0  0
  3  2  1  0  0  0
  4  3  2  0  0  0
 13  4  1  0  0  0
  4  5  1  0  0  0
  5  6  2  0  0  0
 14 13  1  0  0  0
 16 14  1  0  0  0
 14 15  2  0  0  0
 19 16  1  0  0  0
 23 19  1  0  0  0
 19 20  1  0  0  0
 20 21  1  0  0  0
 22 21  1  0  0  0
 23 22  1  0  0  0
  7 11  1  0  0  0
  7 12  1  0  0  0
 13 17  1  0  0  0
 16 18  1  0  0  0
M  END
> <minimizedAffinity>
-6.40668

$$$$
3MZC_S6I_A_263


 23 24  0  0  0  0  0  0  0  0999 V2000
   -3.8219    3.5554   14.9948 C   0  0  0  0  0  0  0  0  0  0  0  0
   -4.8634    4.4196   14.8066 C   0  0  0  0  0  0  0  0  0  0  0  0
   -4.6468    5.6767   14.2790 C   0  0  0  0  0  0  0  0  0  0  0  0
   -3.3606    6.0407   13.9226 C   0  0  0  0  0  0  0  0  0  0  0  0
   -2.3344    5.1871   14.1085 C   0  0  0  0  0  0  0  0  0  0  0  0
   -2.5385    3.9715   14.6229 C   0  0  0  0  0  0  0  0  0  0  0  0
   -4.5169    0.9341   14.4892 N   0  0  0  0  0  0  0  0  0  0  0  0
   -5.1366    2.0795   16.7239 O   0  0  0  0  0  0  0  0  0  0  0  0
   -4.0754    1.9586   15.7222 S   0  0  0  0  0  0  0  0  0  0  0  0
   -2.7883    1.5245   16.2693 O   0  0  0  0  0  0  0  0  0  0  0  0
   -5.4133    1.2320   14.1042 H   0  0  0  0  0  0  0  0  0  0  0  0
   -4.6009   -0.0161   14.8503 H   0  0  0  0  0  0  0  0  0  0  0  0
   -2.9279    7.3235   13.4230 N   0  0  0  0  0  0  0  0  0  0  0  0
   -2.5103    8.4223   14.1904 C   0  0  0  0  0  0  0  0  0  0  0  0
   -2.4814    8.3870   15.3848 O   0  0  0  0  0  0  0  0  0  0  0  0
   -1.8831    9.4335   13.3927 N   0  0  0  0  0  0  0  0  0  0  0  0
   -2.9253    7.4398   12.4454 H   0  0  0  0  0  0  0  0  0  0  0  0
   -1.9851    9.3992   12.4141 H   0  0  0  0  0  0  0  0  0  0  0  0
   -1.1554   10.4338   13.9399 C   0  0  0  0  0  0  0  0  0  0  0  0
   -0.1707   10.8871   12.9421 C   0  0  0  0  0  0  0  0  0  0  0  0
   -0.8478   11.8610   12.0379 C   0  0  0  0  0  0  0  0  0  0  0  0
   -2.0651   12.3328   12.7912 C   0  0  0  0  0  0  0  0  0  0  0  0
   -2.0546   11.6060   14.1370 C   0  0  0  0  0  0  0  0  0  0  0  0
  2  1  2  0  0  0
  6  1  1  0  0  0
  1  9  1  0  0  0
  7  9  1  0  0  0
  8  9  2  0  0  0
  9 10  2  0  0  0
  3  2  1  0  0  0
  4  3  2  0  0  0
 13  4  1  0  0  0
  4  5  1  0  0  0
  5  6  2  0  0  0
 14 13  1  0  0  0
 16 14  1  0  0  0
 14 15  2  0  0  0
 19 16  1  0  0  0
 23 19  1  0  0  0
 19 20  1  0  0  0
 20 21  1  0  0  0
 22 21  1  0  0  0
 23 22  1  0  0  0
  7 11  1  0  0  0
  7 12  1  0  0  0
 13 17  1  0  0  0
 16 18  1  0  0  0
M  END
> <minimizedAffinity>
-6.10909

$$$$
