5J6A_P46_A_501


 42 45  0  0  0  0  0  0  0  0999 V2000
  -65.2078   10.9571   10.6105 C   0  0  0  0  0  0  0  0  0  0  0  0
  -65.8219   12.3310   10.8868 C   0  0  0  0  0  0  0  0  0  0  0  0
  -64.9636   13.3127   10.3960 C   0  0  0  0  0  0  0  0  0  0  0  0
  -63.7402   12.6714    9.7780 C   0  0  0  0  0  0  0  0  0  0  0  0
  -65.3065   14.6641   10.5283 C   0  0  0  0  0  0  0  0  0  0  0  0
  -63.8609   11.1800   10.0285 N   0  0  0  0  0  0  0  0  0  0  0  0
  -66.5180   15.0267   11.1575 C   0  0  0  0  0  0  0  0  0  0  0  0
  -67.3907   14.0599   11.6576 C   0  0  0  0  0  0  0  0  0  0  0  0
  -67.0088   12.6758   11.4996 C   0  0  0  0  0  0  0  0  0  0  0  0
  -63.5412   10.3307    7.7801 O   0  0  0  0  0  0  0  0  0  0  0  0
  -63.0672   10.0791    9.0942 S   0  0  0  0  0  0  0  0  0  0  0  0
  -63.2825    8.8120    9.7011 O   0  0  0  0  0  0  0  0  0  0  0  0
  -58.6561   11.0536    9.0615 C   0  0  0  0  0  0  0  0  0  0  0  0
  -59.2626   10.7510   10.2869 C   0  0  0  0  0  0  0  0  0  0  0  0
  -61.4257   10.4162    9.1231 C   0  0  0  0  0  0  0  0  0  0  0  0
  -60.7458   10.7502    7.9436 C   0  0  0  0  0  0  0  0  0  0  0  0
  -60.6361   10.4612   10.2849 C   0  0  0  0  0  0  0  0  0  0  0  0
  -59.3983   11.0601    7.8879 C   0  0  0  0  0  0  0  0  0  0  0  0
  -61.2762   10.1579   11.4820 O   0  0  0  0  0  0  0  0  0  0  0  0
  -57.3385   11.3530    9.0173 O   0  0  0  0  0  0  0  0  0  0  0  0
  -62.1928    9.9636   11.4870 H   0  0  0  0  0  0  0  0  0  0  0  0
  -56.9314   11.5557    8.1980 H   0  0  0  0  0  0  0  0  0  0  0  0
  -68.6229   14.3542   12.2894 N   0  0  0  0  0  0  0  0  0  0  0  0
  -68.7402   15.2705   12.6297 H   0  0  0  0  0  0  0  0  0  0  0  0
  -69.7323   13.4344   12.4845 C   0  0  0  0  0  0  0  0  0  0  0  0
  -71.0866   14.0918   12.9162 C   0  0  0  0  0  0  0  0  0  0  0  0
  -72.1980   13.1019   13.2373 C   0  0  0  0  0  0  0  0  0  0  0  0
  -71.7991   12.1197   14.2630 N   0  0  0  0  0  0  0  0  0  0  0  0
  -70.6058   11.3769   13.8275 C   0  0  0  0  0  0  0  0  0  0  0  0
  -69.4470   12.3268   13.5405 C   0  0  0  0  0  0  0  0  0  0  0  0
  -72.4802   11.9569   15.4761 C   0  0  0  0  0  0  0  0  0  0  0  0
  -72.0475   11.1004   16.2587 O   0  0  0  0  0  0  0  0  0  0  0  0
  -73.7635   12.7712   15.9104 C   0  0  0  0  0  0  0  0  0  0  0  0
  -74.7369   11.8345   16.4529 N   0  0  0  0  0  0  0  0  0  0  0  0
  -74.3410   11.3670   17.2684 H   0  0  0  0  0  0  0  0  0  0  0  0
  -74.9722   11.1400   15.7438 H   0  0  0  0  0  0  0  0  0  0  0  0
  -73.4260   13.8920   16.9625 C   0  0  0  0  0  0  0  0  0  0  0  0
  -73.7062   13.4194   18.3733 C   0  0  0  0  0  0  0  0  0  0  0  0
  -74.6846   13.7957   19.0147 O   0  0  0  0  0  0  0  0  0  0  0  0
  -72.8307   12.5085   18.9574 N   0  0  0  0  0  0  0  0  0  0  0  0
  -72.9933   12.1876   19.8738 H   0  0  0  0  0  0  0  0  0  0  0  0
  -72.0487   12.1852   18.4542 H   0  0  0  0  0  0  0  0  0  0  0  0
 10 11  2  0  0  0
 18 16  2  0  0  0
 18 13  1  0  0  0
 16 15  1  0  0  0
 20 13  1  0  0  0
 13 14  2  0  0  0
 11 15  1  0  0  0
 11 12  2  0  0  0
 11  6  1  0  0  0
 15 17  2  0  0  0
  4  6  1  0  0  0
  4  3  2  0  0  0
  6  1  1  0  0  0
  3  5  1  0  0  0
  3  2  1  0  0  0
 17 14  1  0  0  0
 17 19  1  0  0  0
  5  7  2  0  0  0
  1  2  2  0  0  0
  2  9  1  0  0  0
  7  8  1  0  0  0
  9  8  2  0  0  0
  8 23  1  0  0  0
 23 25  1  0  0  0
 25 26  1  0  0  0
 25 30  1  0  0  0
 26 27  1  0  0  0
 27 28  1  0  0  0
 39 38  2  0  0  0
 30 29  1  0  0  0
 40 38  1  0  0  0
 29 28  1  0  0  0
 28 31  1  0  0  0
 38 37  1  0  0  0
 31 33  1  0  0  0
 31 32  2  0  0  0
 33 37  1  0  0  0
 33 34  1  0  0  0
 23 24  1  0  0  0
 40 41  1  0  0  0
 40 42  1  0  0  0
 34 35  1  0  0  0
 34 36  1  0  0  0
 19 21  1  0  0  0
 20 22  1  0  0  0
M  END
> <minimizedAffinity>
-9.19410

$$$$
5J6A_P46_A_501


 42 45  0  0  0  0  0  0  0  0999 V2000
  -65.1121   10.9034   10.5698 C   0  0  0  0  0  0  0  0  0  0  0  0
  -65.7472   12.2732   10.8171 C   0  0  0  0  0  0  0  0  0  0  0  0
  -64.9006   13.2577   10.3120 C   0  0  0  0  0  0  0  0  0  0  0  0
  -63.6651   12.6226    9.7120 C   0  0  0  0  0  0  0  0  0  0  0  0
  -65.2635   14.6063   10.4169 C   0  0  0  0  0  0  0  0  0  0  0  0
  -63.7656   11.1346    9.9901 N   0  0  0  0  0  0  0  0  0  0  0  0
  -66.4832   14.9632   11.0334 C   0  0  0  0  0  0  0  0  0  0  0  0
  -67.3444   13.9935   11.5475 C   0  0  0  0  0  0  0  0  0  0  0  0
  -66.9420   12.6123   11.4176 C   0  0  0  0  0  0  0  0  0  0  0  0
  -63.4051   10.2632    7.7564 O   0  0  0  0  0  0  0  0  0  0  0  0
  -62.9516   10.0279    9.0807 S   0  0  0  0  0  0  0  0  0  0  0  0
  -63.1707    8.7662    9.6974 O   0  0  0  0  0  0  0  0  0  0  0  0
  -58.5442   11.0193    9.1073 C   0  0  0  0  0  0  0  0  0  0  0  0
  -59.1791   10.7729   10.3308 C   0  0  0  0  0  0  0  0  0  0  0  0
  -61.3123   10.3732    9.1328 C   0  0  0  0  0  0  0  0  0  0  0  0
  -60.6053   10.6536    7.9553 C   0  0  0  0  0  0  0  0  0  0  0  0
  -60.5512   10.4772   10.3097 C   0  0  0  0  0  0  0  0  0  0  0  0
  -59.2578   10.9665    7.9172 C   0  0  0  0  0  0  0  0  0  0  0  0
  -61.2191   10.2285   11.5042 O   0  0  0  0  0  0  0  0  0  0  0  0
  -57.2269   11.3222    9.0803 O   0  0  0  0  0  0  0  0  0  0  0  0
  -62.1349   10.0306   11.4965 H   0  0  0  0  0  0  0  0  0  0  0  0
  -56.8008   11.4873    8.2623 H   0  0  0  0  0  0  0  0  0  0  0  0
  -68.5839   14.2819   12.1678 N   0  0  0  0  0  0  0  0  0  0  0  0
  -68.6250   15.0943   12.7223 H   0  0  0  0  0  0  0  0  0  0  0  0
  -69.8023   13.4945   12.0654 C   0  0  0  0  0  0  0  0  0  0  0  0
  -69.9112   12.2869   13.0566 C   0  0  0  0  0  0  0  0  0  0  0  0
  -71.1331   11.4030   12.8472 C   0  0  0  0  0  0  0  0  0  0  0  0
  -71.2306   10.8938   11.4662 N   0  0  0  0  0  0  0  0  0  0  0  0
  -71.2758   12.0099   10.5083 C   0  0  0  0  0  0  0  0  0  0  0  0
  -70.0434   12.8983   10.6478 C   0  0  0  0  0  0  0  0  0  0  0  0
  -71.2597    9.5292   11.1514 C   0  0  0  0  0  0  0  0  0  0  0  0
  -71.3407    9.2253    9.9537 O   0  0  0  0  0  0  0  0  0  0  0  0
  -71.2131    8.3548   12.2083 C   0  0  0  0  0  0  0  0  0  0  0  0
  -72.4406    7.5819   12.0868 N   0  0  0  0  0  0  0  0  0  0  0  0
  -72.5035    7.1892   11.1475 H   0  0  0  0  0  0  0  0  0  0  0  0
  -73.2427    8.1888   12.2559 H   0  0  0  0  0  0  0  0  0  0  0  0
  -69.9539    7.4311   12.0122 C   0  0  0  0  0  0  0  0  0  0  0  0
  -70.3374    6.1131   11.3734 C   0  0  0  0  0  0  0  0  0  0  0  0
  -70.3854    5.0607   12.0061 O   0  0  0  0  0  0  0  0  0  0  0  0
  -70.6665    6.0986   10.0210 N   0  0  0  0  0  0  0  0  0  0  0  0
  -70.9189    5.2529    9.5848 H   0  0  0  0  0  0  0  0  0  0  0  0
  -70.6469    6.9342    9.5006 H   0  0  0  0  0  0  0  0  0  0  0  0
 10 11  2  0  0  0
 18 16  2  0  0  0
 18 13  1  0  0  0
 16 15  1  0  0  0
 20 13  1  0  0  0
 13 14  2  0  0  0
 11 15  1  0  0  0
 11 12  2  0  0  0
 11  6  1  0  0  0
 15 17  2  0  0  0
  4  6  1  0  0  0
  4  3  2  0  0  0
  6  1  1  0  0  0
  3  5  1  0  0  0
  3  2  1  0  0  0
 17 14  1  0  0  0
 17 19  1  0  0  0
  5  7  2  0  0  0
  1  2  2  0  0  0
  2  9  1  0  0  0
  7  8  1  0  0  0
  9  8  2  0  0  0
  8 23  1  0  0  0
 23 25  1  0  0  0
 25 26  1  0  0  0
 25 30  1  0  0  0
 26 27  1  0  0  0
 27 28  1  0  0  0
 39 38  2  0  0  0
 30 29  1  0  0  0
 40 38  1  0  0  0
 29 28  1  0  0  0
 28 31  1  0  0  0
 38 37  1  0  0  0
 31 33  1  0  0  0
 31 32  2  0  0  0
 33 37  1  0  0  0
 33 34  1  0  0  0
 23 24  1  0  0  0
 40 41  1  0  0  0
 40 42  1  0  0  0
 34 35  1  0  0  0
 34 36  1  0  0  0
 19 21  1  0  0  0
 20 22  1  0  0  0
M  END
> <minimizedAffinity>
-9.12512

$$$$
5J6A_P46_A_501


 42 45  0  0  0  0  0  0  0  0999 V2000
  -63.5676   10.7674    9.3488 C   0  0  0  0  0  0  0  0  0  0  0  0
  -64.5739   11.7916    9.8774 C   0  0  0  0  0  0  0  0  0  0  0  0
  -63.9489   13.0343    9.9569 C   0  0  0  0  0  0  0  0  0  0  0  0
  -62.5100   12.9222    9.5020 C   0  0  0  0  0  0  0  0  0  0  0  0
  -64.6679   14.1450   10.4160 C   0  0  0  0  0  0  0  0  0  0  0  0
  -62.2560   11.4514    9.2304 N   0  0  0  0  0  0  0  0  0  0  0  0
  -66.0207   14.0022   10.7964 C   0  0  0  0  0  0  0  0  0  0  0  0
  -66.6649   12.7668   10.7265 C   0  0  0  0  0  0  0  0  0  0  0  0
  -65.8957   11.6436   10.2435 C   0  0  0  0  0  0  0  0  0  0  0  0
  -61.0494   11.9016    7.1761 O   0  0  0  0  0  0  0  0  0  0  0  0
  -61.0437   10.9531    8.2321 S   0  0  0  0  0  0  0  0  0  0  0  0
  -61.2899    9.5798    7.9603 O   0  0  0  0  0  0  0  0  0  0  0  0
  -57.1446   11.2391   10.4957 C   0  0  0  0  0  0  0  0  0  0  0  0
  -57.1276   11.4451    9.1107 C   0  0  0  0  0  0  0  0  0  0  0  0
  -59.5796   11.0868    9.0368 C   0  0  0  0  0  0  0  0  0  0  0  0
  -59.5047   10.8742   10.4204 C   0  0  0  0  0  0  0  0  0  0  0  0
  -58.3440   11.3422    8.4175 C   0  0  0  0  0  0  0  0  0  0  0  0
  -58.3327   10.9467   11.1525 C   0  0  0  0  0  0  0  0  0  0  0  0
  -58.3690   11.5375    7.0406 O   0  0  0  0  0  0  0  0  0  0  0  0
  -55.9946   11.3141   11.2025 O   0  0  0  0  0  0  0  0  0  0  0  0
  -59.1778   11.4701    6.5725 H   0  0  0  0  0  0  0  0  0  0  0  0
  -56.0045   11.1765   12.1293 H   0  0  0  0  0  0  0  0  0  0  0  0
  -68.0189   12.5568   11.0825 N   0  0  0  0  0  0  0  0  0  0  0  0
  -68.6988   13.0005   10.5255 H   0  0  0  0  0  0  0  0  0  0  0  0
  -68.5031   11.7495   12.1909 C   0  0  0  0  0  0  0  0  0  0  0  0
  -68.5000   10.2019   11.9509 C   0  0  0  0  0  0  0  0  0  0  0  0
  -69.1275    9.3852   13.0723 C   0  0  0  0  0  0  0  0  0  0  0  0
  -70.5046    9.8150   13.3802 N   0  0  0  0  0  0  0  0  0  0  0  0
  -70.5282   11.2385   13.7522 C   0  0  0  0  0  0  0  0  0  0  0  0
  -69.9524   12.1035   12.6351 C   0  0  0  0  0  0  0  0  0  0  0  0
  -71.6110    8.9593   13.3041 C   0  0  0  0  0  0  0  0  0  0  0  0
  -72.7181    9.4379   13.5845 O   0  0  0  0  0  0  0  0  0  0  0  0
  -71.5484    7.4315   12.9039 C   0  0  0  0  0  0  0  0  0  0  0  0
  -72.5551    6.7159   13.6742 N   0  0  0  0  0  0  0  0  0  0  0  0
  -73.4794    7.0859   13.4524 H   0  0  0  0  0  0  0  0  0  0  0  0
  -72.3706    6.8366   14.6701 H   0  0  0  0  0  0  0  0  0  0  0  0
  -71.7714    7.2136   11.3612 C   0  0  0  0  0  0  0  0  0  0  0  0
  -70.4532    7.1856   10.6171 C   0  0  0  0  0  0  0  0  0  0  0  0
  -70.2069    7.9409    9.6795 O   0  0  0  0  0  0  0  0  0  0  0  0
  -69.4766    6.2816   11.0250 N   0  0  0  0  0  0  0  0  0  0  0  0
  -68.6119    6.2460   10.5556 H   0  0  0  0  0  0  0  0  0  0  0  0
  -69.6505    5.6777   11.7828 H   0  0  0  0  0  0  0  0  0  0  0  0
 10 11  2  0  0  0
 18 16  2  0  0  0
 18 13  1  0  0  0
 16 15  1  0  0  0
 20 13  1  0  0  0
 13 14  2  0  0  0
 11 15  1  0  0  0
 11 12  2  0  0  0
 11  6  1  0  0  0
 15 17  2  0  0  0
  4  6  1  0  0  0
  4  3  2  0  0  0
  6  1  1  0  0  0
  3  5  1  0  0  0
  3  2  1  0  0  0
 17 14  1  0  0  0
 17 19  1  0  0  0
  5  7  2  0  0  0
  1  2  2  0  0  0
  2  9  1  0  0  0
  7  8  1  0  0  0
  9  8  2  0  0  0
  8 23  1  0  0  0
 23 25  1  0  0  0
 25 26  1  0  0  0
 25 30  1  0  0  0
 26 27  1  0  0  0
 27 28  1  0  0  0
 39 38  2  0  0  0
 30 29  1  0  0  0
 40 38  1  0  0  0
 29 28  1  0  0  0
 28 31  1  0  0  0
 38 37  1  0  0  0
 31 33  1  0  0  0
 31 32  2  0  0  0
 33 37  1  0  0  0
 33 34  1  0  0  0
 23 24  1  0  0  0
 40 41  1  0  0  0
 40 42  1  0  0  0
 34 35  1  0  0  0
 34 36  1  0  0  0
 19 21  1  0  0  0
 20 22  1  0  0  0
M  END
> <minimizedAffinity>
-8.29816

$$$$
5J6A_P46_A_501


 42 45  0  0  0  0  0  0  0  0999 V2000
  -70.2306    8.8370   10.2440 C   0  0  0  0  0  0  0  0  0  0  0  0
  -69.5512    9.3088    8.9568 C   0  0  0  0  0  0  0  0  0  0  0  0
  -69.7162    8.3308    7.9783 C   0  0  0  0  0  0  0  0  0  0  0  0
  -70.4956    7.1612    8.5390 C   0  0  0  0  0  0  0  0  0  0  0  0
  -69.1799    8.5301    6.7000 C   0  0  0  0  0  0  0  0  0  0  0  0
  -70.7119    7.4524   10.0121 N   0  0  0  0  0  0  0  0  0  0  0  0
  -68.4747    9.7186    6.4077 C   0  0  0  0  0  0  0  0  0  0  0  0
  -68.2963   10.7095    7.3733 C   0  0  0  0  0  0  0  0  0  0  0  0
  -68.8670   10.4741    8.6792 C   0  0  0  0  0  0  0  0  0  0  0  0
  -71.9007    5.3870   10.4585 O   0  0  0  0  0  0  0  0  0  0  0  0
  -71.9341    6.7472   10.8628 S   0  0  0  0  0  0  0  0  0  0  0  0
  -73.0926    7.5353   10.6241 O   0  0  0  0  0  0  0  0  0  0  0  0
  -71.0743    6.9576   15.2927 C   0  0  0  0  0  0  0  0  0  0  0  0
  -70.3409    6.0540   14.5139 C   0  0  0  0  0  0  0  0  0  0  0  0
  -71.5712    6.8077   12.4979 C   0  0  0  0  0  0  0  0  0  0  0  0
  -72.2733    7.6690   13.3524 C   0  0  0  0  0  0  0  0  0  0  0  0
  -70.6257    5.9903   13.1408 C   0  0  0  0  0  0  0  0  0  0  0  0
  -72.0468    7.7626   14.7143 C   0  0  0  0  0  0  0  0  0  0  0  0
  -69.9209    5.1040   12.3332 O   0  0  0  0  0  0  0  0  0  0  0  0
  -70.8441    7.0431   16.6222 O   0  0  0  0  0  0  0  0  0  0  0  0
  -70.1065    5.0569   11.4159 H   0  0  0  0  0  0  0  0  0  0  0  0
  -71.3340    7.6473   17.1446 H   0  0  0  0  0  0  0  0  0  0  0  0
  -67.6096   11.9261    7.1441 N   0  0  0  0  0  0  0  0  0  0  0  0
  -68.1616   12.7326    7.0256 H   0  0  0  0  0  0  0  0  0  0  0  0
  -66.1678   12.1002    7.0667 C   0  0  0  0  0  0  0  0  0  0  0  0
  -65.3178   10.8062    7.3025 C   0  0  0  0  0  0  0  0  0  0  0  0
  -63.8130   11.0347    7.3428 C   0  0  0  0  0  0  0  0  0  0  0  0
  -63.4231   12.0473    8.3421 N   0  0  0  0  0  0  0  0  0  0  0  0
  -64.0957   13.3270    8.0672 C   0  0  0  0  0  0  0  0  0  0  0  0
  -65.6118   13.1567    8.0656 C   0  0  0  0  0  0  0  0  0  0  0  0
  -62.5423   11.7837    9.3988 C   0  0  0  0  0  0  0  0  0  0  0  0
  -62.2938   12.7155   10.1756 O   0  0  0  0  0  0  0  0  0  0  0  0
  -61.8337   10.3955    9.6622 C   0  0  0  0  0  0  0  0  0  0  0  0
  -60.9987   10.5265   10.8474 N   0  0  0  0  0  0  0  0  0  0  0  0
  -61.5818   10.7661   11.6493 H   0  0  0  0  0  0  0  0  0  0  0  0
  -60.3083   11.2622   10.6973 H   0  0  0  0  0  0  0  0  0  0  0  0
  -62.8710    9.2254    9.8408 C   0  0  0  0  0  0  0  0  0  0  0  0
  -63.6014    9.3395   11.1621 C   0  0  0  0  0  0  0  0  0  0  0  0
  -63.0933    9.0045   12.2296 O   0  0  0  0  0  0  0  0  0  0  0  0
  -64.8913    9.8625   11.1676 N   0  0  0  0  0  0  0  0  0  0  0  0
  -65.3851    9.9459   12.0152 H   0  0  0  0  0  0  0  0  0  0  0  0
  -65.3100   10.1489   10.3238 H   0  0  0  0  0  0  0  0  0  0  0  0
 10 11  2  0  0  0
 18 16  2  0  0  0
 18 13  1  0  0  0
 16 15  1  0  0  0
 20 13  1  0  0  0
 13 14  2  0  0  0
 11 15  1  0  0  0
 11 12  2  0  0  0
 11  6  1  0  0  0
 15 17  2  0  0  0
  4  6  1  0  0  0
  4  3  2  0  0  0
  6  1  1  0  0  0
  3  5  1  0  0  0
  3  2  1  0  0  0
 17 14  1  0  0  0
 17 19  1  0  0  0
  5  7  2  0  0  0
  1  2  2  0  0  0
  2  9  1  0  0  0
  7  8  1  0  0  0
  9  8  2  0  0  0
  8 23  1  0  0  0
 23 25  1  0  0  0
 25 26  1  0  0  0
 25 30  1  0  0  0
 26 27  1  0  0  0
 27 28  1  0  0  0
 39 38  2  0  0  0
 30 29  1  0  0  0
 40 38  1  0  0  0
 29 28  1  0  0  0
 28 31  1  0  0  0
 38 37  1  0  0  0
 31 33  1  0  0  0
 31 32  2  0  0  0
 33 37  1  0  0  0
 33 34  1  0  0  0
 23 24  1  0  0  0
 40 41  1  0  0  0
 40 42  1  0  0  0
 34 35  1  0  0  0
 34 36  1  0  0  0
 19 21  1  0  0  0
 20 22  1  0  0  0
M  END
> <minimizedAffinity>
-7.98148

$$$$
5J6A_P46_A_501


 42 45  0  0  0  0  0  0  0  0999 V2000
  -68.9439   10.7934   10.6463 C   0  0  0  0  0  0  0  0  0  0  0  0
  -69.5842    9.6973    9.7921 C   0  0  0  0  0  0  0  0  0  0  0  0
  -68.8626    9.5737    8.6067 C   0  0  0  0  0  0  0  0  0  0  0  0
  -67.7192   10.5649    8.5888 C   0  0  0  0  0  0  0  0  0  0  0  0
  -69.2541    8.6279    7.6509 C   0  0  0  0  0  0  0  0  0  0  0  0
  -67.8589   11.4084    9.8420 N   0  0  0  0  0  0  0  0  0  0  0  0
  -70.3766    7.8048    7.8908 C   0  0  0  0  0  0  0  0  0  0  0  0
  -71.1142    7.9136    9.0699 C   0  0  0  0  0  0  0  0  0  0  0  0
  -70.6797    8.8953   10.0364 C   0  0  0  0  0  0  0  0  0  0  0  0
  -66.7985   12.1572   11.8898 O   0  0  0  0  0  0  0  0  0  0  0  0
  -66.5760   12.2148   10.4890 S   0  0  0  0  0  0  0  0  0  0  0  0
  -66.5187   13.4707    9.8258 O   0  0  0  0  0  0  0  0  0  0  0  0
  -62.7300   10.0393    9.5491 C   0  0  0  0  0  0  0  0  0  0  0  0
  -63.5955    9.4825   10.4987 C   0  0  0  0  0  0  0  0  0  0  0  0
  -65.1693   11.3669   10.1555 C   0  0  0  0  0  0  0  0  0  0  0  0
  -64.2382   11.8654    9.2338 C   0  0  0  0  0  0  0  0  0  0  0  0
  -64.7818   10.1742   10.7900 C   0  0  0  0  0  0  0  0  0  0  0  0
  -63.0468   11.2357    8.9193 C   0  0  0  0  0  0  0  0  0  0  0  0
  -65.6669    9.6554   11.7291 O   0  0  0  0  0  0  0  0  0  0  0  0
  -61.5692    9.4154    9.2472 O   0  0  0  0  0  0  0  0  0  0  0  0
  -66.4604   10.1125   11.9277 H   0  0  0  0  0  0  0  0  0  0  0  0
  -60.9891    9.7869    8.6120 H   0  0  0  0  0  0  0  0  0  0  0  0
  -72.2418    7.1145    9.3769 N   0  0  0  0  0  0  0  0  0  0  0  0
  -73.0193    7.1945    8.7784 H   0  0  0  0  0  0  0  0  0  0  0  0
  -72.3631    6.1871   10.4905 C   0  0  0  0  0  0  0  0  0  0  0  0
  -73.2634    6.6709   11.6771 C   0  0  0  0  0  0  0  0  0  0  0  0
  -73.2747    5.7425   12.8838 C   0  0  0  0  0  0  0  0  0  0  0  0
  -71.9191    5.4691   13.3974 N   0  0  0  0  0  0  0  0  0  0  0  0
  -71.0796    4.8768   12.3440 C   0  0  0  0  0  0  0  0  0  0  0  0
  -70.9984    5.7969   11.1298 C   0  0  0  0  0  0  0  0  0  0  0  0
  -71.5218    5.7601   14.7087 C   0  0  0  0  0  0  0  0  0  0  0  0
  -70.3553    5.4867   15.0215 O   0  0  0  0  0  0  0  0  0  0  0  0
  -72.4530    6.3942   15.8174 C   0  0  0  0  0  0  0  0  0  0  0  0
  -72.3986    5.5462   16.9994 N   0  0  0  0  0  0  0  0  0  0  0  0
  -71.4398    5.5064   17.3453 H   0  0  0  0  0  0  0  0  0  0  0  0
  -72.7123    4.6062   16.7581 H   0  0  0  0  0  0  0  0  0  0  0  0
  -72.0320    7.8686   16.1724 C   0  0  0  0  0  0  0  0  0  0  0  0
  -71.2143    7.9118   17.4459 C   0  0  0  0  0  0  0  0  0  0  0  0
  -71.7058    8.1857   18.5384 O   0  0  0  0  0  0  0  0  0  0  0  0
  -69.8571    7.6103   17.3772 N   0  0  0  0  0  0  0  0  0  0  0  0
  -69.3061    7.6321   18.1927 H   0  0  0  0  0  0  0  0  0  0  0  0
  -69.4482    7.3753   16.5130 H   0  0  0  0  0  0  0  0  0  0  0  0
 10 11  2  0  0  0
 18 16  2  0  0  0
 18 13  1  0  0  0
 16 15  1  0  0  0
 20 13  1  0  0  0
 13 14  2  0  0  0
 11 15  1  0  0  0
 11 12  2  0  0  0
 11  6  1  0  0  0
 15 17  2  0  0  0
  4  6  1  0  0  0
  4  3  2  0  0  0
  6  1  1  0  0  0
  3  5  1  0  0  0
  3  2  1  0  0  0
 17 14  1  0  0  0
 17 19  1  0  0  0
  5  7  2  0  0  0
  1  2  2  0  0  0
  2  9  1  0  0  0
  7  8  1  0  0  0
  9  8  2  0  0  0
  8 23  1  0  0  0
 23 25  1  0  0  0
 25 26  1  0  0  0
 25 30  1  0  0  0
 26 27  1  0  0  0
 27 28  1  0  0  0
 39 38  2  0  0  0
 30 29  1  0  0  0
 40 38  1  0  0  0
 29 28  1  0  0  0
 28 31  1  0  0  0
 38 37  1  0  0  0
 31 33  1  0  0  0
 31 32  2  0  0  0
 33 37  1  0  0  0
 33 34  1  0  0  0
 23 24  1  0  0  0
 40 41  1  0  0  0
 40 42  1  0  0  0
 34 35  1  0  0  0
 34 36  1  0  0  0
 19 21  1  0  0  0
 20 22  1  0  0  0
M  END
> <minimizedAffinity>
-7.95894

$$$$
5J6A_P46_A_501


 42 45  0  0  0  0  0  0  0  0999 V2000
  -63.8849    9.9946   10.3992 C   0  0  0  0  0  0  0  0  0  0  0  0
  -65.0706   10.8814   10.7849 C   0  0  0  0  0  0  0  0  0  0  0  0
  -64.9390   12.1105   10.1420 C   0  0  0  0  0  0  0  0  0  0  0  0
  -63.6775   12.1273    9.3064 C   0  0  0  0  0  0  0  0  0  0  0  0
  -65.9084   13.1026   10.3354 C   0  0  0  0  0  0  0  0  0  0  0  0
  -62.9633   10.8162    9.5756 N   0  0  0  0  0  0  0  0  0  0  0  0
  -67.0133   12.8549   11.1799 C   0  0  0  0  0  0  0  0  0  0  0  0
  -67.1631   11.6321   11.8346 C   0  0  0  0  0  0  0  0  0  0  0  0
  -66.1481   10.6295   11.6086 C   0  0  0  0  0  0  0  0  0  0  0  0
  -62.1444   10.8709    7.2942 O   0  0  0  0  0  0  0  0  0  0  0  0
  -61.8738   10.1901    8.5099 S   0  0  0  0  0  0  0  0  0  0  0  0
  -62.0107    8.7773    8.5834 O   0  0  0  0  0  0  0  0  0  0  0  0
  -57.6883   11.3816    9.7224 C   0  0  0  0  0  0  0  0  0  0  0  0
  -58.5823   10.9785   10.7221 C   0  0  0  0  0  0  0  0  0  0  0  0
  -60.3257   10.6056    8.9995 C   0  0  0  0  0  0  0  0  0  0  0  0
  -59.3755   11.0410    8.0653 C   0  0  0  0  0  0  0  0  0  0  0  0
  -59.8831   10.6218   10.3334 C   0  0  0  0  0  0  0  0  0  0  0  0
  -58.0854   11.4199    8.3923 C   0  0  0  0  0  0  0  0  0  0  0  0
  -60.8018   10.2180   11.2965 O   0  0  0  0  0  0  0  0  0  0  0  0
  -56.4293   11.7479   10.0518 O   0  0  0  0  0  0  0  0  0  0  0  0
  -61.6715    9.9786   11.0432 H   0  0  0  0  0  0  0  0  0  0  0  0
  -55.8300   12.0178    9.3839 H   0  0  0  0  0  0  0  0  0  0  0  0
  -68.2494   11.3158   12.6855 N   0  0  0  0  0  0  0  0  0  0  0  0
  -68.2768   11.7697   13.5587 H   0  0  0  0  0  0  0  0  0  0  0  0
  -69.3287   10.3854   12.3951 C   0  0  0  0  0  0  0  0  0  0  0  0
  -70.4841   10.3406   13.4513 C   0  0  0  0  0  0  0  0  0  0  0  0
  -71.5378    9.2722   13.1935 C   0  0  0  0  0  0  0  0  0  0  0  0
  -70.9542    7.9229   13.0709 N   0  0  0  0  0  0  0  0  0  0  0  0
  -69.9606    7.8887   11.9860 C   0  0  0  0  0  0  0  0  0  0  0  0
  -68.8551    8.9121   12.2269 C   0  0  0  0  0  0  0  0  0  0  0  0
  -71.3133    6.8529   13.9004 C   0  0  0  0  0  0  0  0  0  0  0  0
  -70.7510    5.7677   13.7014 O   0  0  0  0  0  0  0  0  0  0  0  0
  -72.3896    6.9244   15.0558 C   0  0  0  0  0  0  0  0  0  0  0  0
  -73.6669    6.4783   14.5185 N   0  0  0  0  0  0  0  0  0  0  0  0
  -73.5817    5.5147   14.1949 H   0  0  0  0  0  0  0  0  0  0  0  0
  -73.9348    7.0769   13.7373 H   0  0  0  0  0  0  0  0  0  0  0  0
  -71.9786    6.0565   16.3028 C   0  0  0  0  0  0  0  0  0  0  0  0
  -70.6627    6.5264   16.8858 C   0  0  0  0  0  0  0  0  0  0  0  0
  -70.5467    7.5963   17.4792 O   0  0  0  0  0  0  0  0  0  0  0  0
  -69.5465    5.7042   16.7602 N   0  0  0  0  0  0  0  0  0  0  0  0
  -68.6806    5.9896   17.1316 H   0  0  0  0  0  0  0  0  0  0  0  0
  -69.6230    4.8373   16.2998 H   0  0  0  0  0  0  0  0  0  0  0  0
 10 11  2  0  0  0
 18 16  2  0  0  0
 18 13  1  0  0  0
 16 15  1  0  0  0
 20 13  1  0  0  0
 13 14  2  0  0  0
 11 15  1  0  0  0
 11 12  2  0  0  0
 11  6  1  0  0  0
 15 17  2  0  0  0
  4  6  1  0  0  0
  4  3  2  0  0  0
  6  1  1  0  0  0
  3  5  1  0  0  0
  3  2  1  0  0  0
 17 14  1  0  0  0
 17 19  1  0  0  0
  5  7  2  0  0  0
  1  2  2  0  0  0
  2  9  1  0  0  0
  7  8  1  0  0  0
  9  8  2  0  0  0
  8 23  1  0  0  0
 23 25  1  0  0  0
 25 26  1  0  0  0
 25 30  1  0  0  0
 26 27  1  0  0  0
 27 28  1  0  0  0
 39 38  2  0  0  0
 30 29  1  0  0  0
 40 38  1  0  0  0
 29 28  1  0  0  0
 28 31  1  0  0  0
 38 37  1  0  0  0
 31 33  1  0  0  0
 31 32  2  0  0  0
 33 37  1  0  0  0
 33 34  1  0  0  0
 23 24  1  0  0  0
 40 41  1  0  0  0
 40 42  1  0  0  0
 34 35  1  0  0  0
 34 36  1  0  0  0
 19 21  1  0  0  0
 20 22  1  0  0  0
M  END
> <minimizedAffinity>
-7.86858

$$$$
5J6A_P46_A_501


 42 45  0  0  0  0  0  0  0  0999 V2000
  -62.1845   12.2796    9.5679 C   0  0  0  0  0  0  0  0  0  0  0  0
  -63.4961   13.0389    9.3582 C   0  0  0  0  0  0  0  0  0  0  0  0
  -63.7437   13.1368    7.9906 C   0  0  0  0  0  0  0  0  0  0  0  0
  -62.6315   12.4683    7.2121 C   0  0  0  0  0  0  0  0  0  0  0  0
  -64.8953   13.7933    7.5387 C   0  0  0  0  0  0  0  0  0  0  0  0
  -61.5937   12.0324    8.2292 N   0  0  0  0  0  0  0  0  0  0  0  0
  -65.7996   14.3530    8.4683 C   0  0  0  0  0  0  0  0  0  0  0  0
  -65.5697   14.2680    9.8417 C   0  0  0  0  0  0  0  0  0  0  0  0
  -64.3755   13.5795   10.2734 C   0  0  0  0  0  0  0  0  0  0  0  0
  -60.0658   11.1080    6.5892 O   0  0  0  0  0  0  0  0  0  0  0  0
  -60.5181   10.8272    7.9050 S   0  0  0  0  0  0  0  0  0  0  0  0
  -61.1908    9.6065    8.1840 O   0  0  0  0  0  0  0  0  0  0  0  0
  -56.9386   11.2967   10.6208 C   0  0  0  0  0  0  0  0  0  0  0  0
  -58.1172   10.7643   11.1579 C   0  0  0  0  0  0  0  0  0  0  0  0
  -59.2080   10.9670    8.9409 C   0  0  0  0  0  0  0  0  0  0  0  0
  -57.9971   11.5103    8.4894 C   0  0  0  0  0  0  0  0  0  0  0  0
  -59.2255   10.6342   10.3063 C   0  0  0  0  0  0  0  0  0  0  0  0
  -56.8783   11.6769    9.2866 C   0  0  0  0  0  0  0  0  0  0  0  0
  -60.4155   10.1118   10.8021 O   0  0  0  0  0  0  0  0  0  0  0  0
  -55.8502   11.4536   11.4072 O   0  0  0  0  0  0  0  0  0  0  0  0
  -61.1587   10.0226   10.2385 H   0  0  0  0  0  0  0  0  0  0  0  0
  -55.0609   11.8098   11.0492 H   0  0  0  0  0  0  0  0  0  0  0  0
  -66.4386   14.7979   10.8258 N   0  0  0  0  0  0  0  0  0  0  0  0
  -66.4899   15.7788   10.8917 H   0  0  0  0  0  0  0  0  0  0  0  0
  -67.2628   14.0339   11.7488 C   0  0  0  0  0  0  0  0  0  0  0  0
  -66.9654   12.4974   11.8064 C   0  0  0  0  0  0  0  0  0  0  0  0
  -67.9213   11.6990   12.6822 C   0  0  0  0  0  0  0  0  0  0  0  0
  -69.3327   11.8953   12.3007 N   0  0  0  0  0  0  0  0  0  0  0  0
  -69.6919   13.3204   12.3735 C   0  0  0  0  0  0  0  0  0  0  0  0
  -68.7896   14.1568   11.4714 C   0  0  0  0  0  0  0  0  0  0  0  0
  -70.1770   10.8460   11.9158 C   0  0  0  0  0  0  0  0  0  0  0  0
  -71.3424   11.1372   11.6151 O   0  0  0  0  0  0  0  0  0  0  0  0
  -69.7579    9.3232   11.8524 C   0  0  0  0  0  0  0  0  0  0  0  0
  -69.7373    8.7983   13.2100 N   0  0  0  0  0  0  0  0  0  0  0  0
  -70.6686    8.8760   13.6188 H   0  0  0  0  0  0  0  0  0  0  0  0
  -69.0741    9.3327   13.7712 H   0  0  0  0  0  0  0  0  0  0  0  0
  -70.7286    8.4789   10.9457 C   0  0  0  0  0  0  0  0  0  0  0  0
  -70.1021    7.1562   10.5583 C   0  0  0  0  0  0  0  0  0  0  0  0
  -69.7894    6.8863    9.4009 O   0  0  0  0  0  0  0  0  0  0  0  0
  -69.8540    6.2184   11.5565 N   0  0  0  0  0  0  0  0  0  0  0  0
  -69.4473    5.3515   11.3275 H   0  0  0  0  0  0  0  0  0  0  0  0
  -70.0853    6.4219   12.4916 H   0  0  0  0  0  0  0  0  0  0  0  0
 10 11  2  0  0  0
 18 16  2  0  0  0
 18 13  1  0  0  0
 16 15  1  0  0  0
 20 13  1  0  0  0
 13 14  2  0  0  0
 11 15  1  0  0  0
 11 12  2  0  0  0
 11  6  1  0  0  0
 15 17  2  0  0  0
  4  6  1  0  0  0
  4  3  2  0  0  0
  6  1  1  0  0  0
  3  5  1  0  0  0
  3  2  1  0  0  0
 17 14  1  0  0  0
 17 19  1  0  0  0
  5  7  2  0  0  0
  1  2  2  0  0  0
  2  9  1  0  0  0
  7  8  1  0  0  0
  9  8  2  0  0  0
  8 23  1  0  0  0
 23 25  1  0  0  0
 25 26  1  0  0  0
 25 30  1  0  0  0
 26 27  1  0  0  0
 27 28  1  0  0  0
 39 38  2  0  0  0
 30 29  1  0  0  0
 40 38  1  0  0  0
 29 28  1  0  0  0
 28 31  1  0  0  0
 38 37  1  0  0  0
 31 33  1  0  0  0
 31 32  2  0  0  0
 33 37  1  0  0  0
 33 34  1  0  0  0
 23 24  1  0  0  0
 40 41  1  0  0  0
 40 42  1  0  0  0
 34 35  1  0  0  0
 34 36  1  0  0  0
 19 21  1  0  0  0
 20 22  1  0  0  0
M  END
> <minimizedAffinity>
-7.59103

$$$$
5J6A_P46_A_501


 42 45  0  0  0  0  0  0  0  0999 V2000
  -71.3643   10.9248   11.5476 C   0  0  0  0  0  0  0  0  0  0  0  0
  -70.1950   11.8586   11.8667 C   0  0  0  0  0  0  0  0  0  0  0  0
  -69.6202   11.4615   13.0722 C   0  0  0  0  0  0  0  0  0  0  0  0
  -70.3581   10.2638   13.6299 C   0  0  0  0  0  0  0  0  0  0  0  0
  -68.5221   12.1648   13.5828 C   0  0  0  0  0  0  0  0  0  0  0  0
  -71.5337   10.0113   12.7048 N   0  0  0  0  0  0  0  0  0  0  0  0
  -68.0023   13.2719   12.8763 C   0  0  0  0  0  0  0  0  0  0  0  0
  -68.5639   13.6875   11.6688 C   0  0  0  0  0  0  0  0  0  0  0  0
  -69.6918   12.9365   11.1681 C   0  0  0  0  0  0  0  0  0  0  0  0
  -71.8263    8.0066   11.3727 O   0  0  0  0  0  0  0  0  0  0  0  0
  -72.2625    8.5363   12.6153 S   0  0  0  0  0  0  0  0  0  0  0  0
  -73.6463    8.7604   12.8502 O   0  0  0  0  0  0  0  0  0  0  0  0
  -70.7674    5.8777   15.9477 C   0  0  0  0  0  0  0  0  0  0  0  0
  -70.0314    5.9321   14.7576 C   0  0  0  0  0  0  0  0  0  0  0  0
  -71.6636    7.5530   13.8332 C   0  0  0  0  0  0  0  0  0  0  0  0
  -72.3508    7.4246   15.0483 C   0  0  0  0  0  0  0  0  0  0  0  0
  -70.5128    6.7532   13.7258 C   0  0  0  0  0  0  0  0  0  0  0  0
  -71.9325    6.6191   16.0929 C   0  0  0  0  0  0  0  0  0  0  0  0
  -69.8118    6.8329   12.5272 O   0  0  0  0  0  0  0  0  0  0  0  0
  -70.3494    5.0894   16.9633 O   0  0  0  0  0  0  0  0  0  0  0  0
  -70.1282    7.3793   11.8348 H   0  0  0  0  0  0  0  0  0  0  0  0
  -70.8409    5.0519   17.7602 H   0  0  0  0  0  0  0  0  0  0  0  0
  -68.0868   14.7808   10.9065 N   0  0  0  0  0  0  0  0  0  0  0  0
  -68.6152   15.6108   10.9408 H   0  0  0  0  0  0  0  0  0  0  0  0
  -66.8919   14.7971   10.0777 C   0  0  0  0  0  0  0  0  0  0  0  0
  -66.7764   13.6329    9.0366 C   0  0  0  0  0  0  0  0  0  0  0  0
  -65.4620   13.5969    8.2690 C   0  0  0  0  0  0  0  0  0  0  0  0
  -64.2887   13.5529    9.1621 N   0  0  0  0  0  0  0  0  0  0  0  0
  -64.2855   14.7149   10.0648 C   0  0  0  0  0  0  0  0  0  0  0  0
  -65.5660   14.7655   10.8928 C   0  0  0  0  0  0  0  0  0  0  0  0
  -63.3394   12.5233    9.1324 C   0  0  0  0  0  0  0  0  0  0  0  0
  -62.3988   12.5962    9.9344 O   0  0  0  0  0  0  0  0  0  0  0  0
  -63.3721   11.2897    8.1447 C   0  0  0  0  0  0  0  0  0  0  0  0
  -62.0416   10.7003    8.1059 N   0  0  0  0  0  0  0  0  0  0  0  0
  -61.7846   10.3794    9.0394 H   0  0  0  0  0  0  0  0  0  0  0  0
  -61.3692   11.3990    7.7895 H   0  0  0  0  0  0  0  0  0  0  0  0
  -64.4419   10.2172    8.5716 C   0  0  0  0  0  0  0  0  0  0  0  0
  -64.1375    9.6586    9.9455 C   0  0  0  0  0  0  0  0  0  0  0  0
  -63.1378    8.9827   10.1780 O   0  0  0  0  0  0  0  0  0  0  0  0
  -65.0156    9.9389   10.9885 N   0  0  0  0  0  0  0  0  0  0  0  0
  -64.8375    9.5861   11.8902 H   0  0  0  0  0  0  0  0  0  0  0  0
  -65.8148   10.4900   10.8245 H   0  0  0  0  0  0  0  0  0  0  0  0
 10 11  2  0  0  0
 18 16  2  0  0  0
 18 13  1  0  0  0
 16 15  1  0  0  0
 20 13  1  0  0  0
 13 14  2  0  0  0
 11 15  1  0  0  0
 11 12  2  0  0  0
 11  6  1  0  0  0
 15 17  2  0  0  0
  4  6  1  0  0  0
  4  3  2  0  0  0
  6  1  1  0  0  0
  3  5  1  0  0  0
  3  2  1  0  0  0
 17 14  1  0  0  0
 17 19  1  0  0  0
  5  7  2  0  0  0
  1  2  2  0  0  0
  2  9  1  0  0  0
  7  8  1  0  0  0
  9  8  2  0  0  0
  8 23  1  0  0  0
 23 25  1  0  0  0
 25 26  1  0  0  0
 25 30  1  0  0  0
 26 27  1  0  0  0
 27 28  1  0  0  0
 39 38  2  0  0  0
 30 29  1  0  0  0
 40 38  1  0  0  0
 29 28  1  0  0  0
 28 31  1  0  0  0
 38 37  1  0  0  0
 31 33  1  0  0  0
 31 32  2  0  0  0
 33 37  1  0  0  0
 33 34  1  0  0  0
 23 24  1  0  0  0
 40 41  1  0  0  0
 40 42  1  0  0  0
 34 35  1  0  0  0
 34 36  1  0  0  0
 19 21  1  0  0  0
 20 22  1  0  0  0
M  END
> <minimizedAffinity>
-7.57514

$$$$
5J6A_P46_A_501


 42 45  0  0  0  0  0  0  0  0999 V2000
  -64.7079   10.8697   10.0718 C   0  0  0  0  0  0  0  0  0  0  0  0
  -65.8092   11.5528   10.8852 C   0  0  0  0  0  0  0  0  0  0  0  0
  -65.8773   12.8931   10.5107 C   0  0  0  0  0  0  0  0  0  0  0  0
  -64.8412   13.1889    9.4481 C   0  0  0  0  0  0  0  0  0  0  0  0
  -66.8162   13.7367   11.1174 C   0  0  0  0  0  0  0  0  0  0  0  0
  -64.0322   11.9182    9.2678 N   0  0  0  0  0  0  0  0  0  0  0  0
  -67.6885   13.2277   12.1048 C   0  0  0  0  0  0  0  0  0  0  0  0
  -67.6358   11.8896   12.4959 C   0  0  0  0  0  0  0  0  0  0  0  0
  -66.6595   11.0462   11.8461 C   0  0  0  0  0  0  0  0  0  0  0  0
  -63.2566   12.8396    7.1635 O   0  0  0  0  0  0  0  0  0  0  0  0
  -63.1901   11.6183    7.8838 S   0  0  0  0  0  0  0  0  0  0  0  0
  -63.7422   10.4313    7.3302 O   0  0  0  0  0  0  0  0  0  0  0  0
  -58.8972   10.7485    8.9895 C   0  0  0  0  0  0  0  0  0  0  0  0
  -59.1486   11.5018    7.8362 C   0  0  0  0  0  0  0  0  0  0  0  0
  -61.5838   11.3342    8.2689 C   0  0  0  0  0  0  0  0  0  0  0  0
  -61.2451   10.5706    9.3946 C   0  0  0  0  0  0  0  0  0  0  0  0
  -60.4870   11.7554    7.4975 C   0  0  0  0  0  0  0  0  0  0  0  0
  -59.9456   10.2757    9.7677 C   0  0  0  0  0  0  0  0  0  0  0  0
  -60.7788   12.4980    6.3582 O   0  0  0  0  0  0  0  0  0  0  0  0
  -57.6239   10.4674    9.3468 O   0  0  0  0  0  0  0  0  0  0  0  0
  -61.6703   12.6705    6.1270 H   0  0  0  0  0  0  0  0  0  0  0  0
  -57.4542    9.9634   10.1183 H   0  0  0  0  0  0  0  0  0  0  0  0
  -68.4858   11.3138   13.4706 N   0  0  0  0  0  0  0  0  0  0  0  0
  -68.3235   11.5680   14.4077 H   0  0  0  0  0  0  0  0  0  0  0  0
  -69.5755   10.3834   13.2220 C   0  0  0  0  0  0  0  0  0  0  0  0
  -69.1633    9.0184   12.5744 C   0  0  0  0  0  0  0  0  0  0  0  0
  -70.3308    8.1127   12.2070 C   0  0  0  0  0  0  0  0  0  0  0  0
  -71.3068    8.7808   11.3254 N   0  0  0  0  0  0  0  0  0  0  0  0
  -71.8275    9.9996   11.9647 C   0  0  0  0  0  0  0  0  0  0  0  0
  -70.6945   10.9620   12.3075 C   0  0  0  0  0  0  0  0  0  0  0  0
  -71.6526    8.2971   10.0571 C   0  0  0  0  0  0  0  0  0  0  0  0
  -72.4833    8.9480    9.4093 O   0  0  0  0  0  0  0  0  0  0  0  0
  -71.0752    6.9796    9.4020 C   0  0  0  0  0  0  0  0  0  0  0  0
  -71.7348    5.8368   10.0169 N   0  0  0  0  0  0  0  0  0  0  0  0
  -72.7384    5.8892    9.8427 H   0  0  0  0  0  0  0  0  0  0  0  0
  -71.5633    5.8457   11.0223 H   0  0  0  0  0  0  0  0  0  0  0  0
  -71.2713    6.9594    7.8405 C   0  0  0  0  0  0  0  0  0  0  0  0
  -72.6233    6.3896    7.4669 C   0  0  0  0  0  0  0  0  0  0  0  0
  -72.8505    5.1820    7.4510 O   0  0  0  0  0  0  0  0  0  0  0  0
  -73.6528    7.2705    7.1480 N   0  0  0  0  0  0  0  0  0  0  0  0
  -74.5402    6.9222    6.9021 H   0  0  0  0  0  0  0  0  0  0  0  0
  -73.4936    8.2418    7.1683 H   0  0  0  0  0  0  0  0  0  0  0  0
 10 11  2  0  0  0
 18 16  2  0  0  0
 18 13  1  0  0  0
 16 15  1  0  0  0
 20 13  1  0  0  0
 13 14  2  0  0  0
 11 15  1  0  0  0
 11 12  2  0  0  0
 11  6  1  0  0  0
 15 17  2  0  0  0
  4  6  1  0  0  0
  4  3  2  0  0  0
  6  1  1  0  0  0
  3  5  1  0  0  0
  3  2  1  0  0  0
 17 14  1  0  0  0
 17 19  1  0  0  0
  5  7  2  0  0  0
  1  2  2  0  0  0
  2  9  1  0  0  0
  7  8  1  0  0  0
  9  8  2  0  0  0
  8 23  1  0  0  0
 23 25  1  0  0  0
 25 26  1  0  0  0
 25 30  1  0  0  0
 26 27  1  0  0  0
 27 28  1  0  0  0
 39 38  2  0  0  0
 30 29  1  0  0  0
 40 38  1  0  0  0
 29 28  1  0  0  0
 28 31  1  0  0  0
 38 37  1  0  0  0
 31 33  1  0  0  0
 31 32  2  0  0  0
 33 37  1  0  0  0
 33 34  1  0  0  0
 23 24  1  0  0  0
 40 41  1  0  0  0
 40 42  1  0  0  0
 34 35  1  0  0  0
 34 36  1  0  0  0
 19 21  1  0  0  0
 20 22  1  0  0  0
M  END
> <minimizedAffinity>
-7.49745

$$$$
5J6A_P46_A_501


 42 45  0  0  0  0  0  0  0  0999 V2000
  -63.9208    9.9431   10.3660 C   0  0  0  0  0  0  0  0  0  0  0  0
  -65.0990   10.8307   10.7723 C   0  0  0  0  0  0  0  0  0  0  0  0
  -64.9350   12.0868   10.1921 C   0  0  0  0  0  0  0  0  0  0  0  0
  -63.6576   12.1218    9.3815 C   0  0  0  0  0  0  0  0  0  0  0  0
  -65.8915   13.0850   10.4155 C   0  0  0  0  0  0  0  0  0  0  0  0
  -62.9704   10.7871    9.6001 N   0  0  0  0  0  0  0  0  0  0  0  0
  -67.0162   12.8162   11.2265 C   0  0  0  0  0  0  0  0  0  0  0  0
  -67.1986   11.5663   11.8185 C   0  0  0  0  0  0  0  0  0  0  0  0
  -66.1961   10.5582   11.5629 C   0  0  0  0  0  0  0  0  0  0  0  0
  -62.1362   10.9063    7.3266 O   0  0  0  0  0  0  0  0  0  0  0  0
  -61.8711   10.1942    8.5255 S   0  0  0  0  0  0  0  0  0  0  0  0
  -62.0026    8.7794    8.5602 O   0  0  0  0  0  0  0  0  0  0  0  0
  -57.6966   11.3645    9.7954 C   0  0  0  0  0  0  0  0  0  0  0  0
  -58.6127   10.9866   10.7848 C   0  0  0  0  0  0  0  0  0  0  0  0
  -60.3280   10.6025    9.0367 C   0  0  0  0  0  0  0  0  0  0  0  0
  -59.3566   11.0133    8.1132 C   0  0  0  0  0  0  0  0  0  0  0  0
  -59.9097   10.6362   10.3781 C   0  0  0  0  0  0  0  0  0  0  0  0
  -58.0689   11.3848    8.4578 C   0  0  0  0  0  0  0  0  0  0  0  0
  -60.8498   10.2572   11.3306 O   0  0  0  0  0  0  0  0  0  0  0  0
  -56.4401   11.7238   10.1419 O   0  0  0  0  0  0  0  0  0  0  0  0
  -61.7172   10.0223   11.0652 H   0  0  0  0  0  0  0  0  0  0  0  0
  -55.8261   11.9769    9.4809 H   0  0  0  0  0  0  0  0  0  0  0  0
  -68.3061   11.2282   12.6331 N   0  0  0  0  0  0  0  0  0  0  0  0
  -68.3669   11.6750   13.5082 H   0  0  0  0  0  0  0  0  0  0  0  0
  -69.3626   10.2850   12.3027 C   0  0  0  0  0  0  0  0  0  0  0  0
  -70.6370   10.3536   13.2102 C   0  0  0  0  0  0  0  0  0  0  0  0
  -71.6749    9.2759   12.9281 C   0  0  0  0  0  0  0  0  0  0  0  0
  -71.1101    7.9154   13.0052 N   0  0  0  0  0  0  0  0  0  0  0  0
  -69.9945    7.7671   12.0572 C   0  0  0  0  0  0  0  0  0  0  0  0
  -68.9040    8.7977   12.3331 C   0  0  0  0  0  0  0  0  0  0  0  0
  -71.5892    6.9338   13.8822 C   0  0  0  0  0  0  0  0  0  0  0  0
  -71.0306    5.8290   13.8562 O   0  0  0  0  0  0  0  0  0  0  0  0
  -72.7946    7.1269   14.8863 C   0  0  0  0  0  0  0  0  0  0  0  0
  -72.4266    8.1546   15.8494 N   0  0  0  0  0  0  0  0  0  0  0  0
  -72.2505    9.0320   15.3598 H   0  0  0  0  0  0  0  0  0  0  0  0
  -71.5838    7.8680   16.3472 H   0  0  0  0  0  0  0  0  0  0  0  0
  -74.1276    7.5136   14.1442 C   0  0  0  0  0  0  0  0  0  0  0  0
  -74.5161    6.4563   13.1325 C   0  0  0  0  0  0  0  0  0  0  0  0
  -74.7917    5.3027   13.4541 O   0  0  0  0  0  0  0  0  0  0  0  0
  -74.5817    6.8122   11.7884 N   0  0  0  0  0  0  0  0  0  0  0  0
  -74.8322    6.1410   11.1131 H   0  0  0  0  0  0  0  0  0  0  0  0
  -74.3775    7.7351   11.5130 H   0  0  0  0  0  0  0  0  0  0  0  0
 10 11  2  0  0  0
 18 16  2  0  0  0
 18 13  1  0  0  0
 16 15  1  0  0  0
 20 13  1  0  0  0
 13 14  2  0  0  0
 11 15  1  0  0  0
 11 12  2  0  0  0
 11  6  1  0  0  0
 15 17  2  0  0  0
  4  6  1  0  0  0
  4  3  2  0  0  0
  6  1  1  0  0  0
  3  5  1  0  0  0
  3  2  1  0  0  0
 17 14  1  0  0  0
 17 19  1  0  0  0
  5  7  2  0  0  0
  1  2  2  0  0  0
  2  9  1  0  0  0
  7  8  1  0  0  0
  9  8  2  0  0  0
  8 23  1  0  0  0
 23 25  1  0  0  0
 25 26  1  0  0  0
 25 30  1  0  0  0
 26 27  1  0  0  0
 27 28  1  0  0  0
 39 38  2  0  0  0
 30 29  1  0  0  0
 40 38  1  0  0  0
 29 28  1  0  0  0
 28 31  1  0  0  0
 38 37  1  0  0  0
 31 33  1  0  0  0
 31 32  2  0  0  0
 33 37  1  0  0  0
 33 34  1  0  0  0
 23 24  1  0  0  0
 40 41  1  0  0  0
 40 42  1  0  0  0
 34 35  1  0  0  0
 34 36  1  0  0  0
 19 21  1  0  0  0
 20 22  1  0  0  0
M  END
> <minimizedAffinity>
-7.32321

$$$$
