5L8C_908_A_1007
  RCSB PDB03171809513D
Coordinates from PDB:5L8C:A:1007 Model:1 without hydrogens
 35 38  0  0  0  0            999 V2000
   25.2240    8.0280   -7.1020   O 0  0  0  0  0  0  0  0  0  0  0  0
   25.8330    8.6870   -6.2890   C 0  0  0  0  0  0  0  0  0  0  0  0
   25.4570    9.9950   -6.0600   N 0  0  0  0  0  0  0  0  0  0  0  0
   24.5960   10.9200   -6.8400   C 0  0  0  0  0  0  0  0  0  0  0  0
   23.2200   11.0340   -6.1870   C 0  0  0  0  0  0  0  0  0  0  0  0
   24.5260   10.4840   -8.3040   C 0  0  0  0  0  0  0  0  0  0  0  0
   25.8250   10.6410   -4.9000   N 0  0  0  0  0  0  0  0  0  0  0  0
   26.8630    8.0160   -5.3900   C 0  0  0  0  0  0  0  0  0  0  0  0
   26.5960    8.4900   -3.9520   C 0  0  0  0  0  0  0  0  0  0  0  0
   25.3190    7.8390   -3.3840   C 0  0  0  0  0  0  0  0  0  0  0  0
   25.2050    6.3780   -3.7140   C 0  0  0  0  0  0  0  0  0  0  0  0
   25.7950    5.8260   -4.7530   C 0  0  0  0  0  0  0  0  0  0  0  0
   26.9720    6.4840   -5.4210   C 0  0  0  0  0  0  0  0  0  0  0  0
   26.4520    9.9950   -3.9760   C 0  0  0  0  0  0  0  0  0  0  0  0
   27.0780   10.8670   -2.9710   C 0  0  0  0  0  0  0  0  0  0  0  0
   27.1260   10.5100   -1.6240   C 0  0  0  0  0  0  0  0  0  0  0  0
   27.6240   11.3940   -0.6790   C 0  0  0  0  0  0  0  0  0  0  0  0
   27.5460   12.1150   -3.3600   C 0  0  0  0  0  0  0  0  0  0  0  0
   28.0290   13.0280   -2.4320   C 0  0  0  0  0  0  0  0  0  0  0  0
   28.0930   12.6520   -1.0840   C 0  0  0  0  0  0  0  0  0  0  0  0
   28.6840   13.5590   -0.2440   O 0  0  0  0  0  0  0  0  0  0  0  0
   29.2150   13.0790    0.9910   C 0  0  0  0  0  0  0  0  0  0  0  0
   28.3540   14.3860   -2.9440   C 0  0  0  0  0  0  0  0  0  0  0  0
   27.4560   15.4380   -2.7890   C 0  0  0  0  0  0  0  0  0  0  0  0
   27.6960   16.6690   -3.3680   C 0  0  0  0  0  0  0  0  0  0  0  0
   28.8510   16.8810   -4.1150   C 0  0  0  0  0  0  0  0  0  0  0  0
   29.7460   15.8300   -4.2850   C 0  0  0  0  0  0  0  0  0  0  0  0
   29.5030   14.6070   -3.7000   C 0  0  0  0  0  0  0  0  0  0  0  0
   29.1980   18.2110   -4.6770   C 0  0  0  0  0  0  0  0  0  0  0  0
   28.3240   18.9900   -5.0420   O 0  0  0  0  0  0  0  0  0  0  0  0
   30.4980   18.4960   -4.7320   N 0  0  0  0  0  0  0  0  0  0  0  0
   31.0390   19.3680   -5.7420   C 0  0  0  0  0  0  0  0  0  0  0  0
   32.1750   20.1400   -5.1380   C 0  0  0  0  0  0  0  0  0  0  0  0
   33.2860   20.0950   -5.6670   O 0  0  0  0  0  0  0  0  0  0  0  0
   31.9290   20.7880   -4.0070   N 0  0  0  0  0  0  0  0  0  0  0  0
  6  4  1  0  0  0  0
  1  2  2  0  0  0  0
  4  5  1  0  0  0  0
  4  3  1  0  0  0  0
  2  3  1  0  0  0  0
  2  8  1  0  0  0  0
  3  7  1  0  0  0  0
 32 33  1  0  0  0  0
 32 31  1  0  0  0  0
 34 33  2  0  0  0  0
 13  8  1  0  0  0  0
 13 12  1  0  0  0  0
  8  9  1  0  0  0  0
 33 35  1  0  0  0  0
 30 29  2  0  0  0  0
  7 14  2  0  0  0  0
 12 11  2  0  0  0  0
 31 29  1  0  0  0  0
 29 26  1  0  0  0  0
 27 26  2  0  0  0  0
 27 28  1  0  0  0  0
 26 25  1  0  0  0  0
 14  9  1  0  0  0  0
 14 15  1  0  0  0  0
  9 10  1  0  0  0  0
 11 10  1  0  0  0  0
 28 23  2  0  0  0  0
 25 24  2  0  0  0  0
 18 15  2  0  0  0  0
 18 19  1  0  0  0  0
 15 16  1  0  0  0  0
 23 24  1  0  0  0  0
 23 19  1  0  0  0  0
 19 20  2  0  0  0  0
 16 17  2  0  0  0  0
 20 17  1  0  0  0  0
 20 21  1  0  0  0  0
 21 22  1  0  0  0  0
A    1
O3
A    2
C20
A    3
N3
A    4
C17
A    5
C19
A    6
C18
A    7
N2
A    8
C21
A    9
C26
A   10
C25
A   11
C24
A   12
C23
A   13
C22
A   14
C16
A   15
C4
A   16
C3
A   17
C2
A   18
C5
A   19
C6
A   20
C1
A   21
O
A   22
C
A   23
C7
A   24
C12
A   25
C11
A   26
C10
A   27
C9
A   28
C8
A   29
C13
A   30
O1
A   31
N
A   32
C14
A   33
C15
A   34
O2
A   35
N1
M  END
>  <InstanceId>
5L8C_908_A_1007

>  <ChemCompId>
908

>  <PdbId>
5L8C

>  <ChainId>
A

>  <ResidueNumber>
1007

>  <InsertionCode>


>  <Model>
1

>  <AltIds>


>  <MissingHeavyAtoms>
0

>  <ObservedFormula>
C27 N4 O4

>  <Name>
4-[5-[(4~{a}~{R},8~{a}~{S})-4-oxidanylidene-3-propan-2-yl-4~{a},5,8,8~{a}-tetrahydrophthalazin-1-yl]-2-methoxy-phenyl]-~{N}-(2-azanyl-2-oxidanylidene-ethyl)benzamide

>  <SystematicName>
4-[5-[(4~{a}~{R},8~{a}~{S})-4-oxidanylidene-3-propan-2-yl-4~{a},5,8,8~{a}-tetrahydrophthalazin-1-yl]-2-methoxy-phenyl]-~{N}-(2-azanyl-2-oxidanylidene-ethyl)benzamide

>  <Synonyms>


>  <Type>
NON-POLYMER

>  <Formula>
C27 H30 N4 O4

>  <MolecularWeight>
474.552

>  <ModifiedDate>
2018-03-09

>  <Parent>


>  <OneLetterCode>


>  <SubcomponentList>


>  <AmbiguousFlag>
N

>  <InChI>
InChI=1S/C27H30N4O4/c1-16(2)31-27(34)21-7-5-4-6-20(21)25(30-31)19-12-13-23(35-3)22(14-19)17-8-10-18(11-9-17)26(33)29-15-24(28)32/h4-5,8-14,16,20-21H,6-7,15H2,1-3H3,(H2,28,32)(H,29,33)/t20-,21+/m0/s1

>  <InChIKey>
STNWAGAHKRPYDJ-LEWJYISDSA-N

>  <SMILES>
CC(C)N1C(=O)[C@@H]2CC=CC[C@@H]2C(=N1)c3ccc(c(c3)c4ccc(cc4)C(=O)NCC(=O)N)OC

$$$$
