6F9V_D0Z_A_702


 48 49  0  0  0  0  0  0  0  0999 V2000
    8.1584  -14.1934  -20.8477 C   0  0  0  0  0  0  0  0  0  0  0  0
    9.4335  -14.9735  -20.5704 C   0  0  0  0  0  0  0  0  0  0  0  0
   10.1550  -14.7152  -19.5770 O   0  0  0  0  0  0  0  0  0  0  0  0
    9.8444  -15.8508  -21.3632 O   0  0  0  0  0  0  0  0  0  0  0  0
    9.8853  -14.0653  -18.9583 H   0  0  0  0  0  0  0  0  0  0  0  0
    7.2667  -14.0675  -19.5919 C   0  0  0  0  0  0  0  0  0  0  0  0
    5.8665  -14.7026  -19.7445 C   0  0  0  0  0  0  0  0  0  0  0  0
    4.9989  -13.7152  -20.7931 C   0  0  0  0  0  0  0  0  0  0  0  0
    4.0170  -13.1081  -20.0079 C   0  0  0  0  0  0  0  0  0  0  0  0
    3.6795  -14.2001  -18.8796 C   0  0  0  0  0  0  0  0  0  0  0  0
    5.1442  -14.7486  -18.5158 C   0  0  0  0  0  0  0  0  0  0  0  0
    5.9495  -16.0143  -20.5393 C   0  0  0  0  0  0  0  0  0  0  0  0
    5.4963  -15.9452  -21.9061 N   0  0  0  0  0  0  0  0  0  0  0  0
    6.4498  -17.0482  -20.1575 O   0  0  0  0  0  0  0  0  0  0  0  0
    5.0575  -15.1219  -22.2203 H   0  0  0  0  0  0  0  0  0  0  0  0
    5.6652  -17.0514  -22.8379 C   0  0  0  0  0  0  0  0  0  0  0  0
    6.9921  -16.7686  -23.5343 C   0  0  0  0  0  0  0  0  0  0  0  0
    7.2515  -15.5915  -23.8942 O   0  0  0  0  0  0  0  0  0  0  0  0
    7.8579  -17.7156  -23.7664 O   0  0  0  0  0  0  0  0  0  0  0  0
    6.6348  -14.9051  -23.7313 H   0  0  0  0  0  0  0  0  0  0  0  0
    4.5689  -17.0767  -23.9281 C   0  0  0  0  0  0  0  0  0  0  0  0
    3.3099  -16.2509  -23.6212 C   0  0  0  0  0  0  0  0  0  0  0  0
    2.7629  -15.4294  -24.5791 C   0  0  0  0  0  0  0  0  0  0  0  0
    1.5957  -14.7377  -24.2564 C   0  0  0  0  0  0  0  0  0  0  0  0
    1.0191  -14.8891  -23.0048 C   0  0  0  0  0  0  0  0  0  0  0  0
    1.5689  -15.7316  -22.0622 C   0  0  0  0  0  0  0  0  0  0  0  0
    2.7388  -16.4211  -22.3745 C   0  0  0  0  0  0  0  0  0  0  0  0
   -0.1716  -14.1802  -22.6951 O   0  0  0  0  0  0  0  0  0  0  0  0
   -0.5529  -13.6052  -23.3291 H   0  0  0  0  0  0  0  0  0  0  0  0
    8.5070  -12.7569  -21.2500 C   0  0  0  0  0  0  0  0  0  0  0  0
    8.7422  -11.8094  -23.5758 C   0  0  0  0  0  0  0  0  0  0  0  0
    7.9561  -12.5119  -22.5730 N   0  0  0  0  0  0  0  0  0  0  0  0
    9.8497  -11.4507  -23.3484 O   0  0  0  0  0  0  0  0  0  0  0  0
    7.0477  -12.8224  -22.7912 H   0  0  0  0  0  0  0  0  0  0  0  0
    8.1286  -11.5857  -24.9526 C   0  0  0  0  0  0  0  0  0  0  0  0
    6.9183  -12.3762  -25.0228 N   0  0  0  0  0  0  0  0  0  0  0  0
    6.9444  -13.0577  -24.2644 H   0  0  0  0  0  0  0  0  0  0  0  0
    6.0051  -12.1617  -27.7258 C   0  0  0  0  0  0  0  0  0  0  0  0
    7.9579  -13.7964  -26.8598 O   0  0  0  0  0  0  0  0  0  0  0  0
    5.8480  -14.3891  -26.1062 O   0  0  0  0  0  0  0  0  0  0  0  0
    6.6730  -13.2308  -26.4928 S   0  0  0  0  0  0  0  0  0  0  0  0
    7.6788  -10.1293  -25.1270 C   0  0  0  0  0  0  0  0  0  0  0  0
    8.2475   -9.6616  -26.4873 C   0  0  0  0  0  0  0  0  0  0  0  0
    9.7239   -9.9577  -26.5906 C   0  0  0  0  0  0  0  0  0  0  0  0
   10.5748   -8.7766  -26.1698 C   0  0  0  0  0  0  0  0  0  0  0  0
   11.3608   -9.1457  -25.0037 N   0  0  0  0  0  0  0  0  0  0  0  0
   11.9609   -9.9374  -25.2348 H   0  0  0  0  0  0  0  0  0  0  0  0
   10.7357   -9.4043  -24.2403 H   0  0  0  0  0  0  0  0  0  0  0  0
 40 41  2  0  0  0
 38 41  1  0  0  0
 41 39  2  0  0  0
 41 36  1  0  0  0
 36 35  1  0  0  0
 46 45  1  0  0  0
 33 31  2  0  0  0
 35 31  1  0  0  0
 35 42  1  0  0  0
 45 44  1  0  0  0
 43 44  1  0  0  0
 43 42  1  0  0  0
 31 32  1  0  0  0
 32 30  1  0  0  0
 30  1  1  0  0  0
  4  2  2  0  0  0
  1  2  1  0  0  0
  1  6  1  0  0  0
  2  3  1  0  0  0
  6  7  1  0  0  0
  7  8  1  0  0  0
  7 11  1  0  0  0
  7 12  1  0  0  0
 14 12  2  0  0  0
  8  9  1  0  0  0
 11 10  1  0  0  0
  9 10  1  0  0  0
 12 13  1  0  0  0
 13 16  1  0  0  0
 16 17  1  0  0  0
 16 21  1  0  0  0
 19 17  2  0  0  0
 17 18  1  0  0  0
 21 22  1  0  0  0
 23 22  2  0  0  0
 23 24  1  0  0  0
 22 27  1  0  0  0
 24 25  2  0  0  0
 27 26  2  0  0  0
 25 26  1  0  0  0
 25 28  1  0  0  0
 36 37  1  0  0  0
 46 47  1  0  0  0
 46 48  1  0  0  0
 32 34  1  0  0  0
 13 15  1  0  0  0
 28 29  1  0  0  0
 18 20  1  0  0  0
  3  5  1  0  0  0
M  END
> <minimizedAffinity>
-9.30027

$$$$
6F9V_D0Z_A_702


 48 49  0  0  0  0  0  0  0  0999 V2000
    8.1014  -14.4733  -23.5665 C   0  0  0  0  0  0  0  0  0  0  0  0
    9.2611  -14.2050  -24.5122 C   0  0  0  0  0  0  0  0  0  0  0  0
    9.3667  -14.8111  -25.6057 O   0  0  0  0  0  0  0  0  0  0  0  0
   10.1880  -13.4240  -24.1993 O   0  0  0  0  0  0  0  0  0  0  0  0
    8.6955  -15.4052  -25.8787 H   0  0  0  0  0  0  0  0  0  0  0  0
    8.1187  -13.5326  -22.3406 C   0  0  0  0  0  0  0  0  0  0  0  0
    7.9588  -14.2572  -20.9854 C   0  0  0  0  0  0  0  0  0  0  0  0
    8.4848  -13.1874  -19.7996 C   0  0  0  0  0  0  0  0  0  0  0  0
    9.6736  -13.7299  -19.3078 C   0  0  0  0  0  0  0  0  0  0  0  0
    9.4731  -15.3173  -19.4469 C   0  0  0  0  0  0  0  0  0  0  0  0
    8.7687  -15.4267  -20.8858 C   0  0  0  0  0  0  0  0  0  0  0  0
    6.4737  -14.4206  -20.6295 C   0  0  0  0  0  0  0  0  0  0  0  0
    5.8705  -15.6681  -21.0271 N   0  0  0  0  0  0  0  0  0  0  0  0
    5.8116  -13.6546  -19.9662 O   0  0  0  0  0  0  0  0  0  0  0  0
    6.3860  -16.2858  -21.5945 H   0  0  0  0  0  0  0  0  0  0  0  0
    4.5250  -16.0461  -20.6183 C   0  0  0  0  0  0  0  0  0  0  0  0
    4.7233  -17.2631  -19.7210 C   0  0  0  0  0  0  0  0  0  0  0  0
    5.5639  -18.1364  -20.0571 O   0  0  0  0  0  0  0  0  0  0  0  0
    4.0418  -17.4192  -18.6202 O   0  0  0  0  0  0  0  0  0  0  0  0
    6.0577  -18.0320  -20.8466 H   0  0  0  0  0  0  0  0  0  0  0  0
    3.6493  -16.4918  -21.8123 C   0  0  0  0  0  0  0  0  0  0  0  0
    3.4788  -15.4544  -22.9328 C   0  0  0  0  0  0  0  0  0  0  0  0
    3.3725  -14.1158  -22.6351 C   0  0  0  0  0  0  0  0  0  0  0  0
    3.2626  -13.2178  -23.6965 C   0  0  0  0  0  0  0  0  0  0  0  0
    3.2651  -13.6798  -25.0035 C   0  0  0  0  0  0  0  0  0  0  0  0
    3.3921  -15.0231  -25.2861 C   0  0  0  0  0  0  0  0  0  0  0  0
    3.4955  -15.9274  -24.2311 C   0  0  0  0  0  0  0  0  0  0  0  0
    3.1566  -12.7507  -26.0718 O   0  0  0  0  0  0  0  0  0  0  0  0
    3.0699  -11.8356  -25.8899 H   0  0  0  0  0  0  0  0  0  0  0  0
    6.7751  -14.1937  -24.2805 C   0  0  0  0  0  0  0  0  0  0  0  0
    6.7854  -12.9142  -26.4542 C   0  0  0  0  0  0  0  0  0  0  0  0
    6.9073  -12.9399  -25.0046 N   0  0  0  0  0  0  0  0  0  0  0  0
    6.5486  -13.9006  -27.0689 O   0  0  0  0  0  0  0  0  0  0  0  0
    7.0798  -12.1051  -24.5121 H   0  0  0  0  0  0  0  0  0  0  0  0
    6.9191  -11.5754  -27.1698 C   0  0  0  0  0  0  0  0  0  0  0  0
    5.6291  -10.9217  -27.1135 N   0  0  0  0  0  0  0  0  0  0  0  0
    5.0130  -11.4930  -26.5352 H   0  0  0  0  0  0  0  0  0  0  0  0
    4.3241   -9.0004  -28.7842 C   0  0  0  0  0  0  0  0  0  0  0  0
    5.8066  -11.0725  -29.6469 O   0  0  0  0  0  0  0  0  0  0  0  0
    3.8033  -11.7069  -28.6695 O   0  0  0  0  0  0  0  0  0  0  0  0
    4.8544  -10.6747  -28.6268 S   0  0  0  0  0  0  0  0  0  0  0  0
    7.8844  -10.6445  -26.4244 C   0  0  0  0  0  0  0  0  0  0  0  0
    9.3063  -11.1887  -26.6976 C   0  0  0  0  0  0  0  0  0  0  0  0
   10.2388  -10.0826  -27.1279 C   0  0  0  0  0  0  0  0  0  0  0  0
   10.2095   -8.9062  -26.1732 C   0  0  0  0  0  0  0  0  0  0  0  0
   11.2880   -9.0473  -25.2083 N   0  0  0  0  0  0  0  0  0  0  0  0
   12.1820   -9.0707  -25.6987 H   0  0  0  0  0  0  0  0  0  0  0  0
   11.1645   -9.9140  -24.6848 H   0  0  0  0  0  0  0  0  0  0  0  0
 40 41  2  0  0  0
 38 41  1  0  0  0
 41 39  2  0  0  0
 41 36  1  0  0  0
 36 35  1  0  0  0
 46 45  1  0  0  0
 33 31  2  0  0  0
 35 31  1  0  0  0
 35 42  1  0  0  0
 45 44  1  0  0  0
 43 44  1  0  0  0
 43 42  1  0  0  0
 31 32  1  0  0  0
 32 30  1  0  0  0
 30  1  1  0  0  0
  4  2  2  0  0  0
  1  2  1  0  0  0
  1  6  1  0  0  0
  2  3  1  0  0  0
  6  7  1  0  0  0
  7  8  1  0  0  0
  7 11  1  0  0  0
  7 12  1  0  0  0
 14 12  2  0  0  0
  8  9  1  0  0  0
 11 10  1  0  0  0
  9 10  1  0  0  0
 12 13  1  0  0  0
 13 16  1  0  0  0
 16 17  1  0  0  0
 16 21  1  0  0  0
 19 17  2  0  0  0
 17 18  1  0  0  0
 21 22  1  0  0  0
 23 22  2  0  0  0
 23 24  1  0  0  0
 22 27  1  0  0  0
 24 25  2  0  0  0
 27 26  2  0  0  0
 25 26  1  0  0  0
 25 28  1  0  0  0
 36 37  1  0  0  0
 46 47  1  0  0  0
 46 48  1  0  0  0
 32 34  1  0  0  0
 13 15  1  0  0  0
 28 29  1  0  0  0
 18 20  1  0  0  0
  3  5  1  0  0  0
M  END
> <minimizedAffinity>
-8.99787

$$$$
6F9V_D0Z_A_702


 48 49  0  0  0  0  0  0  0  0999 V2000
    8.1183  -14.8653  -20.5318 C   0  0  0  0  0  0  0  0  0  0  0  0
    9.2045  -15.6959  -19.8674 C   0  0  0  0  0  0  0  0  0  0  0  0
   10.1099  -15.1612  -19.1830 O   0  0  0  0  0  0  0  0  0  0  0  0
    9.2739  -16.9338  -20.0407 O   0  0  0  0  0  0  0  0  0  0  0  0
   10.0966  -14.2372  -19.0286 H   0  0  0  0  0  0  0  0  0  0  0  0
    7.1262  -14.2737  -19.5053 C   0  0  0  0  0  0  0  0  0  0  0  0
    5.6674  -14.7478  -19.6904 C   0  0  0  0  0  0  0  0  0  0  0  0
    4.9524  -13.6957  -20.7900 C   0  0  0  0  0  0  0  0  0  0  0  0
    4.0235  -12.9592  -20.0525 C   0  0  0  0  0  0  0  0  0  0  0  0
    3.5275  -13.9747  -18.9114 C   0  0  0  0  0  0  0  0  0  0  0  0
    4.9071  -14.6777  -18.4859 C   0  0  0  0  0  0  0  0  0  0  0  0
    5.6227  -16.0811  -20.4515 C   0  0  0  0  0  0  0  0  0  0  0  0
    5.5060  -15.9777  -21.8846 N   0  0  0  0  0  0  0  0  0  0  0  0
    5.7805  -17.1811  -19.9716 O   0  0  0  0  0  0  0  0  0  0  0  0
    5.3442  -15.0933  -22.2857 H   0  0  0  0  0  0  0  0  0  0  0  0
    5.6192  -17.1363  -22.7594 C   0  0  0  0  0  0  0  0  0  0  0  0
    6.9538  -16.9501  -23.4735 C   0  0  0  0  0  0  0  0  0  0  0  0
    7.2689  -15.8041  -23.8851 O   0  0  0  0  0  0  0  0  0  0  0  0
    7.7698  -17.9484  -23.6686 O   0  0  0  0  0  0  0  0  0  0  0  0
    6.6882  -15.0813  -23.7491 H   0  0  0  0  0  0  0  0  0  0  0  0
    4.5169  -17.1666  -23.8434 C   0  0  0  0  0  0  0  0  0  0  0  0
    3.2420  -16.3745  -23.5146 C   0  0  0  0  0  0  0  0  0  0  0  0
    2.6422  -16.4965  -22.2829 C   0  0  0  0  0  0  0  0  0  0  0  0
    1.5120  -15.7202  -22.0276 C   0  0  0  0  0  0  0  0  0  0  0  0
    1.0259  -14.8568  -22.9971 C   0  0  0  0  0  0  0  0  0  0  0  0
    1.6500  -14.7315  -24.2199 C   0  0  0  0  0  0  0  0  0  0  0  0
    2.7756  -15.5087  -24.4853 C   0  0  0  0  0  0  0  0  0  0  0  0
   -0.1235  -14.0710  -22.7181 O   0  0  0  0  0  0  0  0  0  0  0  0
   -0.5547  -14.1491  -21.8899 H   0  0  0  0  0  0  0  0  0  0  0  0
    8.7469  -13.6598  -21.2379 C   0  0  0  0  0  0  0  0  0  0  0  0
    7.7355  -11.9693  -22.8132 C   0  0  0  0  0  0  0  0  0  0  0  0
    7.9421  -13.3516  -22.4088 N   0  0  0  0  0  0  0  0  0  0  0  0
    8.2383  -11.0735  -22.2201 O   0  0  0  0  0  0  0  0  0  0  0  0
    7.5353  -14.0810  -22.9300 H   0  0  0  0  0  0  0  0  0  0  0  0
    6.8946  -11.6944  -24.0540 C   0  0  0  0  0  0  0  0  0  0  0  0
    6.7444  -12.9468  -24.7635 N   0  0  0  0  0  0  0  0  0  0  0  0
    6.8817  -13.7046  -24.0947 H   0  0  0  0  0  0  0  0  0  0  0  0
    8.5394  -11.6639  -26.5850 C   0  0  0  0  0  0  0  0  0  0  0  0
    8.8131  -14.1580  -25.6154 O   0  0  0  0  0  0  0  0  0  0  0  0
    7.0290  -13.9195  -27.0752 O   0  0  0  0  0  0  0  0  0  0  0  0
    7.8292  -13.1943  -26.0724 S   0  0  0  0  0  0  0  0  0  0  0  0
    5.4719  -11.2647  -23.6731 C   0  0  0  0  0  0  0  0  0  0  0  0
    4.5245  -11.9828  -24.6627 C   0  0  0  0  0  0  0  0  0  0  0  0
    4.1224  -11.0668  -25.7929 C   0  0  0  0  0  0  0  0  0  0  0  0
    3.7324  -11.8344  -27.0399 C   0  0  0  0  0  0  0  0  0  0  0  0
    4.1780  -13.2124  -26.9113 N   0  0  0  0  0  0  0  0  0  0  0  0
    3.7391  -13.6368  -26.0943 H   0  0  0  0  0  0  0  0  0  0  0  0
    5.1919  -13.2330  -26.8018 H   0  0  0  0  0  0  0  0  0  0  0  0
 40 41  2  0  0  0
 38 41  1  0  0  0
 41 39  2  0  0  0
 41 36  1  0  0  0
 36 35  1  0  0  0
 46 45  1  0  0  0
 33 31  2  0  0  0
 35 31  1  0  0  0
 35 42  1  0  0  0
 45 44  1  0  0  0
 43 44  1  0  0  0
 43 42  1  0  0  0
 31 32  1  0  0  0
 32 30  1  0  0  0
 30  1  1  0  0  0
  4  2  2  0  0  0
  1  2  1  0  0  0
  1  6  1  0  0  0
  2  3  1  0  0  0
  6  7  1  0  0  0
  7  8  1  0  0  0
  7 11  1  0  0  0
  7 12  1  0  0  0
 14 12  2  0  0  0
  8  9  1  0  0  0
 11 10  1  0  0  0
  9 10  1  0  0  0
 12 13  1  0  0  0
 13 16  1  0  0  0
 16 17  1  0  0  0
 16 21  1  0  0  0
 19 17  2  0  0  0
 17 18  1  0  0  0
 21 22  1  0  0  0
 23 22  2  0  0  0
 23 24  1  0  0  0
 22 27  1  0  0  0
 24 25  2  0  0  0
 27 26  2  0  0  0
 25 26  1  0  0  0
 25 28  1  0  0  0
 36 37  1  0  0  0
 46 47  1  0  0  0
 46 48  1  0  0  0
 32 34  1  0  0  0
 13 15  1  0  0  0
 28 29  1  0  0  0
 18 20  1  0  0  0
  3  5  1  0  0  0
M  END
> <minimizedAffinity>
-8.98712

$$$$
6F9V_D0Z_A_702


 48 49  0  0  0  0  0  0  0  0999 V2000
    7.7809  -14.0807  -23.9635 C   0  0  0  0  0  0  0  0  0  0  0  0
    8.9765  -14.0025  -24.8992 C   0  0  0  0  0  0  0  0  0  0  0  0
   10.0354  -13.4215  -24.5599 O   0  0  0  0  0  0  0  0  0  0  0  0
    8.9192  -14.4518  -26.0663 O   0  0  0  0  0  0  0  0  0  0  0  0
   10.1208  -13.0702  -23.6955 H   0  0  0  0  0  0  0  0  0  0  0  0
    8.0883  -13.4813  -22.5727 C   0  0  0  0  0  0  0  0  0  0  0  0
    7.9642  -14.4893  -21.4084 C   0  0  0  0  0  0  0  0  0  0  0  0
    8.7745  -13.8168  -20.0976 C   0  0  0  0  0  0  0  0  0  0  0  0
    9.9104  -14.6079  -19.9147 C   0  0  0  0  0  0  0  0  0  0  0  0
    9.4516  -16.0749  -20.3802 C   0  0  0  0  0  0  0  0  0  0  0  0
    8.5883  -15.7399  -21.6920 C   0  0  0  0  0  0  0  0  0  0  0  0
    6.5187  -14.5470  -20.8925 C   0  0  0  0  0  0  0  0  0  0  0  0
    5.8304  -15.7960  -21.1035 N   0  0  0  0  0  0  0  0  0  0  0  0
    5.9585  -13.6911  -20.2455 O   0  0  0  0  0  0  0  0  0  0  0  0
    6.2605  -16.4884  -21.6556 H   0  0  0  0  0  0  0  0  0  0  0  0
    4.5209  -16.0688  -20.5279 C   0  0  0  0  0  0  0  0  0  0  0  0
    4.7418  -17.2784  -19.6258 C   0  0  0  0  0  0  0  0  0  0  0  0
    5.6113  -18.1279  -19.9492 O   0  0  0  0  0  0  0  0  0  0  0  0
    4.0504  -17.4522  -18.5339 O   0  0  0  0  0  0  0  0  0  0  0  0
    6.1124  -18.0106  -20.7322 H   0  0  0  0  0  0  0  0  0  0  0  0
    3.4801  -16.4752  -21.5969 C   0  0  0  0  0  0  0  0  0  0  0  0
    3.3200  -15.4975  -22.7714 C   0  0  0  0  0  0  0  0  0  0  0  0
    3.1273  -14.1552  -22.5415 C   0  0  0  0  0  0  0  0  0  0  0  0
    3.0316  -13.3108  -23.6473 C   0  0  0  0  0  0  0  0  0  0  0  0
    3.1327  -13.8275  -24.9297 C   0  0  0  0  0  0  0  0  0  0  0  0
    3.3453  -15.1727  -25.1431 C   0  0  0  0  0  0  0  0  0  0  0  0
    3.4353  -16.0241  -24.0437 C   0  0  0  0  0  0  0  0  0  0  0  0
    3.0370  -12.9522  -26.0438 O   0  0  0  0  0  0  0  0  0  0  0  0
    2.8926  -12.0363  -25.9089 H   0  0  0  0  0  0  0  0  0  0  0  0
    6.6273  -13.2441  -24.5258 C   0  0  0  0  0  0  0  0  0  0  0  0
    6.6458  -11.4523  -26.3010 C   0  0  0  0  0  0  0  0  0  0  0  0
    7.1835  -12.0172  -25.0727 N   0  0  0  0  0  0  0  0  0  0  0  0
    5.7316  -11.9587  -26.8620 O   0  0  0  0  0  0  0  0  0  0  0  0
    7.9268  -11.5669  -24.6101 H   0  0  0  0  0  0  0  0  0  0  0  0
    7.2520  -10.1584  -26.8306 C   0  0  0  0  0  0  0  0  0  0  0  0
    8.5409  -10.4844  -27.4026 N   0  0  0  0  0  0  0  0  0  0  0  0
    8.5748  -11.4939  -27.5446 H   0  0  0  0  0  0  0  0  0  0  0  0
   10.1012   -8.2848  -26.4469 C   0  0  0  0  0  0  0  0  0  0  0  0
    9.6986  -10.6013  -25.1401 O   0  0  0  0  0  0  0  0  0  0  0  0
   11.0154  -10.8202  -27.0346 O   0  0  0  0  0  0  0  0  0  0  0  0
    9.9064  -10.0373  -26.4609 S   0  0  0  0  0  0  0  0  0  0  0  0
    6.4201   -9.5920  -27.9886 C   0  0  0  0  0  0  0  0  0  0  0  0
    5.5184   -8.4946  -27.3760 C   0  0  0  0  0  0  0  0  0  0  0  0
    4.3518   -8.1810  -28.2810 C   0  0  0  0  0  0  0  0  0  0  0  0
    3.2706   -9.2402  -28.2080 C   0  0  0  0  0  0  0  0  0  0  0  0
    1.9768   -8.5927  -28.0639 N   0  0  0  0  0  0  0  0  0  0  0  0
    1.8097   -7.9847  -28.8657 H   0  0  0  0  0  0  0  0  0  0  0  0
    1.9679   -8.0374  -27.2084 H   0  0  0  0  0  0  0  0  0  0  0  0
 40 41  2  0  0  0
 38 41  1  0  0  0
 41 39  2  0  0  0
 41 36  1  0  0  0
 36 35  1  0  0  0
 46 45  1  0  0  0
 33 31  2  0  0  0
 35 31  1  0  0  0
 35 42  1  0  0  0
 45 44  1  0  0  0
 43 44  1  0  0  0
 43 42  1  0  0  0
 31 32  1  0  0  0
 32 30  1  0  0  0
 30  1  1  0  0  0
  4  2  2  0  0  0
  1  2  1  0  0  0
  1  6  1  0  0  0
  2  3  1  0  0  0
  6  7  1  0  0  0
  7  8  1  0  0  0
  7 11  1  0  0  0
  7 12  1  0  0  0
 14 12  2  0  0  0
  8  9  1  0  0  0
 11 10  1  0  0  0
  9 10  1  0  0  0
 12 13  1  0  0  0
 13 16  1  0  0  0
 16 17  1  0  0  0
 16 21  1  0  0  0
 19 17  2  0  0  0
 17 18  1  0  0  0
 21 22  1  0  0  0
 23 22  2  0  0  0
 23 24  1  0  0  0
 22 27  1  0  0  0
 24 25  2  0  0  0
 27 26  2  0  0  0
 25 26  1  0  0  0
 25 28  1  0  0  0
 36 37  1  0  0  0
 46 47  1  0  0  0
 46 48  1  0  0  0
 32 34  1  0  0  0
 13 15  1  0  0  0
 28 29  1  0  0  0
 18 20  1  0  0  0
  3  5  1  0  0  0
M  END
> <minimizedAffinity>
-8.91372

$$$$
6F9V_D0Z_A_702


 48 49  0  0  0  0  0  0  0  0999 V2000
    5.5684  -15.7398  -19.8462 C   0  0  0  0  0  0  0  0  0  0  0  0
    5.6997  -17.2435  -20.0277 C   0  0  0  0  0  0  0  0  0  0  0  0
    5.0343  -18.0468  -19.3305 O   0  0  0  0  0  0  0  0  0  0  0  0
    6.5292  -17.7318  -20.8281 O   0  0  0  0  0  0  0  0  0  0  0  0
    4.4025  -17.7240  -18.7185 H   0  0  0  0  0  0  0  0  0  0  0  0
    6.0148  -14.9593  -21.1030 C   0  0  0  0  0  0  0  0  0  0  0  0
    7.2906  -14.1116  -20.9006 C   0  0  0  0  0  0  0  0  0  0  0  0
    8.5815  -15.0430  -21.4420 C   0  0  0  0  0  0  0  0  0  0  0  0
    9.3053  -15.3799  -20.2967 C   0  0  0  0  0  0  0  0  0  0  0  0
    9.0964  -14.1282  -19.3124 C   0  0  0  0  0  0  0  0  0  0  0  0
    7.5385  -13.8056  -19.5300 C   0  0  0  0  0  0  0  0  0  0  0  0
    7.3181  -12.9301  -21.8817 C   0  0  0  0  0  0  0  0  0  0  0  0
    6.2381  -12.8861  -22.8355 N   0  0  0  0  0  0  0  0  0  0  0  0
    8.0906  -11.9987  -21.8537 O   0  0  0  0  0  0  0  0  0  0  0  0
    5.6220  -13.6519  -22.8917 H   0  0  0  0  0  0  0  0  0  0  0  0
    6.0270  -11.7477  -23.7188 C   0  0  0  0  0  0  0  0  0  0  0  0
    4.8835  -10.9695  -23.0765 C   0  0  0  0  0  0  0  0  0  0  0  0
    5.0589   -9.7578  -22.7877 O   0  0  0  0  0  0  0  0  0  0  0  0
    3.7349  -11.5304  -22.8185 O   0  0  0  0  0  0  0  0  0  0  0  0
    5.8812   -9.3472  -22.9697 H   0  0  0  0  0  0  0  0  0  0  0  0
    5.5586  -12.1747  -25.1292 C   0  0  0  0  0  0  0  0  0  0  0  0
    5.3632  -11.0315  -26.1371 C   0  0  0  0  0  0  0  0  0  0  0  0
    6.3999  -10.1780  -26.4347 C   0  0  0  0  0  0  0  0  0  0  0  0
    6.1752   -9.1861  -27.3890 C   0  0  0  0  0  0  0  0  0  0  0  0
    4.9394   -9.0819  -28.0084 C   0  0  0  0  0  0  0  0  0  0  0  0
    3.9163   -9.9575  -27.7132 C   0  0  0  0  0  0  0  0  0  0  0  0
    4.1306  -10.9471  -26.7560 C   0  0  0  0  0  0  0  0  0  0  0  0
    4.7298   -8.0684  -28.9806 O   0  0  0  0  0  0  0  0  0  0  0  0
    5.4191   -7.4686  -29.1881 H   0  0  0  0  0  0  0  0  0  0  0  0
    4.0970  -15.3701  -19.6338 C   0  0  0  0  0  0  0  0  0  0  0  0
    2.3669  -14.8068  -21.3807 C   0  0  0  0  0  0  0  0  0  0  0  0
    3.3649  -15.7176  -20.8409 N   0  0  0  0  0  0  0  0  0  0  0  0
    2.1514  -13.7581  -20.8701 O   0  0  0  0  0  0  0  0  0  0  0  0
    3.5452  -16.5724  -21.2948 H   0  0  0  0  0  0  0  0  0  0  0  0
    1.6328  -15.2073  -22.6547 C   0  0  0  0  0  0  0  0  0  0  0  0
    0.2564  -14.7824  -22.5152 N   0  0  0  0  0  0  0  0  0  0  0  0
    0.1122  -14.4994  -21.5459 H   0  0  0  0  0  0  0  0  0  0  0  0
   -2.5027  -15.2056  -23.1430 C   0  0  0  0  0  0  0  0  0  0  0  0
   -0.4446  -16.6638  -24.0777 O   0  0  0  0  0  0  0  0  0  0  0  0
   -0.8307  -16.9486  -21.8104 O   0  0  0  0  0  0  0  0  0  0  0  0
   -0.9290  -15.9640  -22.9025 S   0  0  0  0  0  0  0  0  0  0  0  0
    2.1774  -14.4442  -23.8692 C   0  0  0  0  0  0  0  0  0  0  0  0
    2.8727  -15.4968  -24.7643 C   0  0  0  0  0  0  0  0  0  0  0  0
    4.3289  -15.6467  -24.3970 C   0  0  0  0  0  0  0  0  0  0  0  0
    4.6552  -17.0445  -23.9113 C   0  0  0  0  0  0  0  0  0  0  0  0
    6.0913  -17.1587  -23.7149 N   0  0  0  0  0  0  0  0  0  0  0  0
    6.3954  -16.4739  -23.0228 H   0  0  0  0  0  0  0  0  0  0  0  0
    6.5702  -16.9847  -24.5985 H   0  0  0  0  0  0  0  0  0  0  0  0
 40 41  2  0  0  0
 38 41  1  0  0  0
 41 39  2  0  0  0
 41 36  1  0  0  0
 36 35  1  0  0  0
 46 45  1  0  0  0
 33 31  2  0  0  0
 35 31  1  0  0  0
 35 42  1  0  0  0
 45 44  1  0  0  0
 43 44  1  0  0  0
 43 42  1  0  0  0
 31 32  1  0  0  0
 32 30  1  0  0  0
 30  1  1  0  0  0
  4  2  2  0  0  0
  1  2  1  0  0  0
  1  6  1  0  0  0
  2  3  1  0  0  0
  6  7  1  0  0  0
  7  8  1  0  0  0
  7 11  1  0  0  0
  7 12  1  0  0  0
 14 12  2  0  0  0
  8  9  1  0  0  0
 11 10  1  0  0  0
  9 10  1  0  0  0
 12 13  1  0  0  0
 13 16  1  0  0  0
 16 17  1  0  0  0
 16 21  1  0  0  0
 19 17  2  0  0  0
 17 18  1  0  0  0
 21 22  1  0  0  0
 23 22  2  0  0  0
 23 24  1  0  0  0
 22 27  1  0  0  0
 24 25  2  0  0  0
 27 26  2  0  0  0
 25 26  1  0  0  0
 25 28  1  0  0  0
 36 37  1  0  0  0
 46 47  1  0  0  0
 46 48  1  0  0  0
 32 34  1  0  0  0
 13 15  1  0  0  0
 28 29  1  0  0  0
 18 20  1  0  0  0
  3  5  1  0  0  0
M  END
> <minimizedAffinity>
-8.88408

$$$$
6F9V_D0Z_A_702


 48 49  0  0  0  0  0  0  0  0999 V2000
    5.3633  -15.9225  -20.2079 C   0  0  0  0  0  0  0  0  0  0  0  0
    5.4108  -17.4191  -19.9444 C   0  0  0  0  0  0  0  0  0  0  0  0
    6.0135  -18.2005  -20.7191 O   0  0  0  0  0  0  0  0  0  0  0  0
    4.7892  -17.9305  -18.9857 O   0  0  0  0  0  0  0  0  0  0  0  0
    6.4912  -17.8600  -21.4497 H   0  0  0  0  0  0  0  0  0  0  0  0
    5.7203  -15.5761  -21.6709 C   0  0  0  0  0  0  0  0  0  0  0  0
    7.0083  -14.7369  -21.8257 C   0  0  0  0  0  0  0  0  0  0  0  0
    8.2938  -15.8207  -21.8351 C   0  0  0  0  0  0  0  0  0  0  0  0
    8.9728  -15.6053  -20.6343 C   0  0  0  0  0  0  0  0  0  0  0  0
    8.7618  -14.0418  -20.3338 C   0  0  0  0  0  0  0  0  0  0  0  0
    7.2196  -13.8435  -20.7344 C   0  0  0  0  0  0  0  0  0  0  0  0
    7.0944  -14.1299  -23.2339 C   0  0  0  0  0  0  0  0  0  0  0  0
    7.1141  -12.6896  -23.2923 N   0  0  0  0  0  0  0  0  0  0  0  0
    7.2507  -14.7431  -24.2657 O   0  0  0  0  0  0  0  0  0  0  0  0
    6.9552  -12.1782  -22.4662 H   0  0  0  0  0  0  0  0  0  0  0  0
    7.3609  -11.9651  -24.5311 C   0  0  0  0  0  0  0  0  0  0  0  0
    8.8718  -11.7602  -24.5623 C   0  0  0  0  0  0  0  0  0  0  0  0
    9.4187  -11.1225  -23.6262 O   0  0  0  0  0  0  0  0  0  0  0  0
    9.6049  -12.2264  -25.5348 O   0  0  0  0  0  0  0  0  0  0  0  0
    8.8992  -10.7842  -22.9236 H   0  0  0  0  0  0  0  0  0  0  0  0
    6.7058  -10.5645  -24.5355 C   0  0  0  0  0  0  0  0  0  0  0  0
    5.9513  -10.1897  -25.8206 C   0  0  0  0  0  0  0  0  0  0  0  0
    6.6033  -10.1651  -27.0313 C   0  0  0  0  0  0  0  0  0  0  0  0
    5.8563   -9.8595  -28.1687 C   0  0  0  0  0  0  0  0  0  0  0  0
    4.4998   -9.5946  -28.0614 C   0  0  0  0  0  0  0  0  0  0  0  0
    3.8569   -9.6424  -26.8429 C   0  0  0  0  0  0  0  0  0  0  0  0
    4.5974   -9.9403  -25.7008 C   0  0  0  0  0  0  0  0  0  0  0  0
    3.7542   -9.2893  -29.2307 O   0  0  0  0  0  0  0  0  0  0  0  0
    4.1822   -9.2545  -30.0635 H   0  0  0  0  0  0  0  0  0  0  0  0
    3.9367  -15.4047  -19.9992 C   0  0  0  0  0  0  0  0  0  0  0  0
    1.9933  -15.0816  -21.5743 C   0  0  0  0  0  0  0  0  0  0  0  0
    3.1187  -15.8755  -21.1051 N   0  0  0  0  0  0  0  0  0  0  0  0
    1.7385  -14.0295  -21.0895 O   0  0  0  0  0  0  0  0  0  0  0  0
    3.3272  -16.7347  -21.5381 H   0  0  0  0  0  0  0  0  0  0  0  0
    1.1713  -15.6089  -22.7441 C   0  0  0  0  0  0  0  0  0  0  0  0
   -0.2253  -15.4796  -22.3872 N   0  0  0  0  0  0  0  0  0  0  0  0
   -0.2810  -15.3627  -21.3755 H   0  0  0  0  0  0  0  0  0  0  0  0
   -2.4800  -16.2872  -23.9526 C   0  0  0  0  0  0  0  0  0  0  0  0
   -0.3524  -17.8248  -23.3652 O   0  0  0  0  0  0  0  0  0  0  0  0
   -1.6894  -17.3498  -21.5328 O   0  0  0  0  0  0  0  0  0  0  0  0
   -1.2293  -16.8041  -22.8222 S   0  0  0  0  0  0  0  0  0  0  0  0
    1.3596  -14.7341  -23.9903 C   0  0  0  0  0  0  0  0  0  0  0  0
    2.6213  -15.2697  -24.7072 C   0  0  0  0  0  0  0  0  0  0  0  0
    3.7236  -14.2387  -24.7115 C   0  0  0  0  0  0  0  0  0  0  0  0
    3.9979  -13.7005  -26.1012 C   0  0  0  0  0  0  0  0  0  0  0  0
    2.7620  -13.1820  -26.6649 N   0  0  0  0  0  0  0  0  0  0  0  0
    2.4046  -12.4342  -26.0703 H   0  0  0  0  0  0  0  0  0  0  0  0
    2.0726  -13.9316  -26.7198 H   0  0  0  0  0  0  0  0  0  0  0  0
 40 41  2  0  0  0
 38 41  1  0  0  0
 41 39  2  0  0  0
 41 36  1  0  0  0
 36 35  1  0  0  0
 46 45  1  0  0  0
 33 31  2  0  0  0
 35 31  1  0  0  0
 35 42  1  0  0  0
 45 44  1  0  0  0
 43 44  1  0  0  0
 43 42  1  0  0  0
 31 32  1  0  0  0
 32 30  1  0  0  0
 30  1  1  0  0  0
  4  2  2  0  0  0
  1  2  1  0  0  0
  1  6  1  0  0  0
  2  3  1  0  0  0
  6  7  1  0  0  0
  7  8  1  0  0  0
  7 11  1  0  0  0
  7 12  1  0  0  0
 14 12  2  0  0  0
  8  9  1  0  0  0
 11 10  1  0  0  0
  9 10  1  0  0  0
 12 13  1  0  0  0
 13 16  1  0  0  0
 16 17  1  0  0  0
 16 21  1  0  0  0
 19 17  2  0  0  0
 17 18  1  0  0  0
 21 22  1  0  0  0
 23 22  2  0  0  0
 23 24  1  0  0  0
 22 27  1  0  0  0
 24 25  2  0  0  0
 27 26  2  0  0  0
 25 26  1  0  0  0
 25 28  1  0  0  0
 36 37  1  0  0  0
 46 47  1  0  0  0
 46 48  1  0  0  0
 32 34  1  0  0  0
 13 15  1  0  0  0
 28 29  1  0  0  0
 18 20  1  0  0  0
  3  5  1  0  0  0
M  END
> <minimizedAffinity>
-8.78528

$$$$
6F9V_D0Z_A_702


 48 49  0  0  0  0  0  0  0  0999 V2000
    2.5645  -15.4212  -23.0523 C   0  0  0  0  0  0  0  0  0  0  0  0
    1.0840  -15.7030  -22.8529 C   0  0  0  0  0  0  0  0  0  0  0  0
    0.5553  -16.7565  -23.2826 O   0  0  0  0  0  0  0  0  0  0  0  0
    0.3282  -14.8608  -22.3175 O   0  0  0  0  0  0  0  0  0  0  0  0
    1.0843  -17.4135  -23.6905 H   0  0  0  0  0  0  0  0  0  0  0  0
    3.4561  -16.5267  -22.4431 C   0  0  0  0  0  0  0  0  0  0  0  0
    4.6761  -15.9943  -21.6587 C   0  0  0  0  0  0  0  0  0  0  0  0
    4.8313  -16.9601  -20.2912 C   0  0  0  0  0  0  0  0  0  0  0  0
    4.4929  -16.1392  -19.2137 C   0  0  0  0  0  0  0  0  0  0  0  0
    4.9607  -14.6722  -19.6701 C   0  0  0  0  0  0  0  0  0  0  0  0
    4.5002  -14.6527  -21.2083 C   0  0  0  0  0  0  0  0  0  0  0  0
    5.9798  -16.2982  -22.4117 C   0  0  0  0  0  0  0  0  0  0  0  0
    7.0203  -16.9203  -21.6315 N   0  0  0  0  0  0  0  0  0  0  0  0
    6.1649  -16.1607  -23.5999 O   0  0  0  0  0  0  0  0  0  0  0  0
    6.8968  -17.0083  -20.6588 H   0  0  0  0  0  0  0  0  0  0  0  0
    8.2476  -17.4229  -22.2328 C   0  0  0  0  0  0  0  0  0  0  0  0
    8.5101  -18.7464  -21.5219 C   0  0  0  0  0  0  0  0  0  0  0  0
    8.3931  -19.8184  -22.1694 O   0  0  0  0  0  0  0  0  0  0  0  0
    8.8484  -18.7910  -20.2633 O   0  0  0  0  0  0  0  0  0  0  0  0
    8.1504  -19.7952  -23.0742 H   0  0  0  0  0  0  0  0  0  0  0  0
    9.4594  -16.5031  -21.9561 C   0  0  0  0  0  0  0  0  0  0  0  0
    9.1891  -14.9956  -22.0800 C   0  0  0  0  0  0  0  0  0  0  0  0
    9.3231  -14.3593  -23.2920 C   0  0  0  0  0  0  0  0  0  0  0  0
    9.0227  -12.9987  -23.3515 C   0  0  0  0  0  0  0  0  0  0  0  0
    8.6013  -12.3275  -22.2142 C   0  0  0  0  0  0  0  0  0  0  0  0
    8.4532  -12.9839  -21.0110 C   0  0  0  0  0  0  0  0  0  0  0  0
    8.7578  -14.3418  -20.9416 C   0  0  0  0  0  0  0  0  0  0  0  0
    8.2958  -10.9430  -22.2943 O   0  0  0  0  0  0  0  0  0  0  0  0
    8.3933  -10.4881  -23.1077 H   0  0  0  0  0  0  0  0  0  0  0  0
    2.8923  -15.4067  -24.5487 C   0  0  0  0  0  0  0  0  0  0  0  0
    3.5177  -13.2918  -25.7727 C   0  0  0  0  0  0  0  0  0  0  0  0
    3.8301  -14.3235  -24.7955 N   0  0  0  0  0  0  0  0  0  0  0  0
    2.4886  -13.2949  -26.3624 O   0  0  0  0  0  0  0  0  0  0  0  0
    4.6798  -14.2879  -24.2994 H   0  0  0  0  0  0  0  0  0  0  0  0
    4.5251  -12.1691  -25.9895 C   0  0  0  0  0  0  0  0  0  0  0  0
    5.2238  -11.9644  -24.7388 N   0  0  0  0  0  0  0  0  0  0  0  0
    5.2161  -12.8468  -24.2271 H   0  0  0  0  0  0  0  0  0  0  0  0
    3.4382  -11.4621  -22.5604 C   0  0  0  0  0  0  0  0  0  0  0  0
    5.6982  -10.0976  -23.0767 O   0  0  0  0  0  0  0  0  0  0  0  0
    4.0234   -9.7462  -24.6395 O   0  0  0  0  0  0  0  0  0  0  0  0
    4.5697  -10.7525  -23.7117 S   0  0  0  0  0  0  0  0  0  0  0  0
    5.6034  -12.5819  -26.9998 C   0  0  0  0  0  0  0  0  0  0  0  0
    6.9580  -12.4453  -26.2655 C   0  0  0  0  0  0  0  0  0  0  0  0
    7.9045  -11.5533  -27.0314 C   0  0  0  0  0  0  0  0  0  0  0  0
    7.8243  -10.1101  -26.5766 C   0  0  0  0  0  0  0  0  0  0  0  0
    7.9033  -10.0616  -25.1256 N   0  0  0  0  0  0  0  0  0  0  0  0
    8.7860  -10.4707  -24.8193 H   0  0  0  0  0  0  0  0  0  0  0  0
    7.1272  -10.5886  -24.7251 H   0  0  0  0  0  0  0  0  0  0  0  0
 40 41  2  0  0  0
 38 41  1  0  0  0
 41 39  2  0  0  0
 41 36  1  0  0  0
 36 35  1  0  0  0
 46 45  1  0  0  0
 33 31  2  0  0  0
 35 31  1  0  0  0
 35 42  1  0  0  0
 45 44  1  0  0  0
 43 44  1  0  0  0
 43 42  1  0  0  0
 31 32  1  0  0  0
 32 30  1  0  0  0
 30  1  1  0  0  0
  4  2  2  0  0  0
  1  2  1  0  0  0
  1  6  1  0  0  0
  2  3  1  0  0  0
  6  7  1  0  0  0
  7  8  1  0  0  0
  7 11  1  0  0  0
  7 12  1  0  0  0
 14 12  2  0  0  0
  8  9  1  0  0  0
 11 10  1  0  0  0
  9 10  1  0  0  0
 12 13  1  0  0  0
 13 16  1  0  0  0
 16 17  1  0  0  0
 16 21  1  0  0  0
 19 17  2  0  0  0
 17 18  1  0  0  0
 21 22  1  0  0  0
 23 22  2  0  0  0
 23 24  1  0  0  0
 22 27  1  0  0  0
 24 25  2  0  0  0
 27 26  2  0  0  0
 25 26  1  0  0  0
 25 28  1  0  0  0
 36 37  1  0  0  0
 46 47  1  0  0  0
 46 48  1  0  0  0
 32 34  1  0  0  0
 13 15  1  0  0  0
 28 29  1  0  0  0
 18 20  1  0  0  0
  3  5  1  0  0  0
M  END
> <minimizedAffinity>
-8.78061

$$$$
6F9V_D0Z_A_702


 48 49  0  0  0  0  0  0  0  0999 V2000
    8.9104  -12.5912  -24.5156 C   0  0  0  0  0  0  0  0  0  0  0  0
    8.2945  -13.8194  -25.1662 C   0  0  0  0  0  0  0  0  0  0  0  0
    7.0656  -14.0574  -25.0814 O   0  0  0  0  0  0  0  0  0  0  0  0
    9.0037  -14.6724  -25.7465 O   0  0  0  0  0  0  0  0  0  0  0  0
    6.4983  -13.4455  -24.6551 H   0  0  0  0  0  0  0  0  0  0  0  0
    7.9126  -11.4143  -24.4293 C   0  0  0  0  0  0  0  0  0  0  0  0
    7.8105  -10.5759  -25.7230 C   0  0  0  0  0  0  0  0  0  0  0  0
    9.3236  -10.6285  -26.4545 C   0  0  0  0  0  0  0  0  0  0  0  0
    9.8431   -9.3385  -26.3314 C   0  0  0  0  0  0  0  0  0  0  0  0
    8.5521   -8.3843  -26.3794 C   0  0  0  0  0  0  0  0  0  0  0  0
    7.5133   -9.2043  -25.4700 C   0  0  0  0  0  0  0  0  0  0  0  0
    6.9306  -11.2867  -26.7621 C   0  0  0  0  0  0  0  0  0  0  0  0
    5.5428  -11.4405  -26.4037 N   0  0  0  0  0  0  0  0  0  0  0  0
    7.2720  -11.6247  -27.8730 O   0  0  0  0  0  0  0  0  0  0  0  0
    5.2578  -11.2006  -25.4924 H   0  0  0  0  0  0  0  0  0  0  0  0
    4.5480  -11.9387  -27.3431 C   0  0  0  0  0  0  0  0  0  0  0  0
    4.1979  -10.7325  -28.2081 C   0  0  0  0  0  0  0  0  0  0  0  0
    4.7709  -10.5939  -29.3194 O   0  0  0  0  0  0  0  0  0  0  0  0
    3.3247   -9.8445  -27.8217 O   0  0  0  0  0  0  0  0  0  0  0  0
    5.3996  -11.2274  -29.6045 H   0  0  0  0  0  0  0  0  0  0  0  0
    3.2484  -12.3938  -26.6396 C   0  0  0  0  0  0  0  0  0  0  0  0
    3.4282  -13.4363  -25.5251 C   0  0  0  0  0  0  0  0  0  0  0  0
    3.6299  -13.0397  -24.2237 C   0  0  0  0  0  0  0  0  0  0  0  0
    3.7435  -14.0311  -23.2495 C   0  0  0  0  0  0  0  0  0  0  0  0
    3.6505  -15.3686  -23.6019 C   0  0  0  0  0  0  0  0  0  0  0  0
    3.4286  -15.7494  -24.9081 C   0  0  0  0  0  0  0  0  0  0  0  0
    3.3208  -14.7651  -25.8885 C   0  0  0  0  0  0  0  0  0  0  0  0
    3.7644  -16.3644  -22.5960 O   0  0  0  0  0  0  0  0  0  0  0  0
    3.9152  -16.1155  -21.7054 H   0  0  0  0  0  0  0  0  0  0  0  0
    9.2960  -12.9102  -23.0677 C   0  0  0  0  0  0  0  0  0  0  0  0
    7.5682  -13.7597  -21.4381 C   0  0  0  0  0  0  0  0  0  0  0  0
    8.4271  -13.9747  -22.5927 N   0  0  0  0  0  0  0  0  0  0  0  0
    7.5362  -12.7123  -20.8823 O   0  0  0  0  0  0  0  0  0  0  0  0
    8.4198  -14.8444  -23.0541 H   0  0  0  0  0  0  0  0  0  0  0  0
    6.6653  -14.8998  -20.9832 C   0  0  0  0  0  0  0  0  0  0  0  0
    7.4850  -16.0879  -20.8776 N   0  0  0  0  0  0  0  0  0  0  0  0
    8.4601  -15.8063  -20.9797 H   0  0  0  0  0  0  0  0  0  0  0  0
    8.4879  -18.4824  -22.0803 C   0  0  0  0  0  0  0  0  0  0  0  0
    5.8926  -17.9075  -21.6685 O   0  0  0  0  0  0  0  0  0  0  0  0
    6.8936  -16.5787  -23.2819 O   0  0  0  0  0  0  0  0  0  0  0  0
    7.1660  -17.3163  -22.0354 S   0  0  0  0  0  0  0  0  0  0  0  0
    6.1250  -14.6465  -19.5698 C   0  0  0  0  0  0  0  0  0  0  0  0
    4.6002  -14.8966  -19.6391 C   0  0  0  0  0  0  0  0  0  0  0  0
    3.8336  -13.7665  -18.9962 C   0  0  0  0  0  0  0  0  0  0  0  0
    2.8092  -13.1632  -19.9357 C   0  0  0  0  0  0  0  0  0  0  0  0
    3.2570  -11.8421  -20.3458 N   0  0  0  0  0  0  0  0  0  0  0  0
    4.1562  -11.9202  -20.8210 H   0  0  0  0  0  0  0  0  0  0  0  0
    3.3575  -11.2468  -19.5237 H   0  0  0  0  0  0  0  0  0  0  0  0
 40 41  2  0  0  0
 38 41  1  0  0  0
 41 39  2  0  0  0
 41 36  1  0  0  0
 36 35  1  0  0  0
 46 45  1  0  0  0
 33 31  2  0  0  0
 35 31  1  0  0  0
 35 42  1  0  0  0
 45 44  1  0  0  0
 43 44  1  0  0  0
 43 42  1  0  0  0
 31 32  1  0  0  0
 32 30  1  0  0  0
 30  1  1  0  0  0
  4  2  2  0  0  0
  1  2  1  0  0  0
  1  6  1  0  0  0
  2  3  1  0  0  0
  6  7  1  0  0  0
  7  8  1  0  0  0
  7 11  1  0  0  0
  7 12  1  0  0  0
 14 12  2  0  0  0
  8  9  1  0  0  0
 11 10  1  0  0  0
  9 10  1  0  0  0
 12 13  1  0  0  0
 13 16  1  0  0  0
 16 17  1  0  0  0
 16 21  1  0  0  0
 19 17  2  0  0  0
 17 18  1  0  0  0
 21 22  1  0  0  0
 23 22  2  0  0  0
 23 24  1  0  0  0
 22 27  1  0  0  0
 24 25  2  0  0  0
 27 26  2  0  0  0
 25 26  1  0  0  0
 25 28  1  0  0  0
 36 37  1  0  0  0
 46 47  1  0  0  0
 46 48  1  0  0  0
 32 34  1  0  0  0
 13 15  1  0  0  0
 28 29  1  0  0  0
 18 20  1  0  0  0
  3  5  1  0  0  0
M  END
> <minimizedAffinity>
-8.77749

$$$$
6F9V_D0Z_A_702


 48 49  0  0  0  0  0  0  0  0999 V2000
    2.8657  -15.1226  -23.5182 C   0  0  0  0  0  0  0  0  0  0  0  0
    1.3476  -15.1160  -23.4361 C   0  0  0  0  0  0  0  0  0  0  0  0
    0.6394  -14.8765  -24.4436 O   0  0  0  0  0  0  0  0  0  0  0  0
    0.7548  -15.2776  -22.3454 O   0  0  0  0  0  0  0  0  0  0  0  0
    1.0423  -14.7489  -25.2799 H   0  0  0  0  0  0  0  0  0  0  0  0
    3.4857  -16.3189  -22.7616 C   0  0  0  0  0  0  0  0  0  0  0  0
    4.7110  -15.9523  -21.8949 C   0  0  0  0  0  0  0  0  0  0  0  0
    4.5974  -16.8632  -20.4862 C   0  0  0  0  0  0  0  0  0  0  0  0
    4.3148  -15.9475  -19.4709 C   0  0  0  0  0  0  0  0  0  0  0  0
    5.0516  -14.5985  -19.9366 C   0  0  0  0  0  0  0  0  0  0  0  0
    4.7230  -14.5797  -21.5082 C   0  0  0  0  0  0  0  0  0  0  0  0
    6.0023  -16.4980  -22.5226 C   0  0  0  0  0  0  0  0  0  0  0  0
    7.0673  -16.7971  -21.5981 N   0  0  0  0  0  0  0  0  0  0  0  0
    6.1602  -16.7910  -23.6863 O   0  0  0  0  0  0  0  0  0  0  0  0
    6.9658  -16.5341  -20.6549 H   0  0  0  0  0  0  0  0  0  0  0  0
    8.2880  -17.4749  -22.0116 C   0  0  0  0  0  0  0  0  0  0  0  0
    8.5721  -18.4717  -20.8930 C   0  0  0  0  0  0  0  0  0  0  0  0
    8.2629  -18.1660  -19.7126 O   0  0  0  0  0  0  0  0  0  0  0  0
    9.1286  -19.6266  -21.1315 O   0  0  0  0  0  0  0  0  0  0  0  0
    7.8627  -17.3382  -19.5326 H   0  0  0  0  0  0  0  0  0  0  0  0
    9.4974  -16.5147  -22.0913 C   0  0  0  0  0  0  0  0  0  0  0  0
    9.1551  -15.0168  -22.1002 C   0  0  0  0  0  0  0  0  0  0  0  0
    8.7577  -14.3843  -20.9453 C   0  0  0  0  0  0  0  0  0  0  0  0
    8.5018  -13.0147  -21.0063 C   0  0  0  0  0  0  0  0  0  0  0  0
    8.6516  -12.3301  -22.2023 C   0  0  0  0  0  0  0  0  0  0  0  0
    9.0696  -12.9748  -23.3469 C   0  0  0  0  0  0  0  0  0  0  0  0
    9.3208  -14.3444  -23.2960 C   0  0  0  0  0  0  0  0  0  0  0  0
    8.3906  -10.9349  -22.2448 O   0  0  0  0  0  0  0  0  0  0  0  0
    8.1062  -10.4878  -21.4721 H   0  0  0  0  0  0  0  0  0  0  0  0
    3.3050  -15.2863  -24.9767 C   0  0  0  0  0  0  0  0  0  0  0  0
    3.5349  -13.0800  -26.1772 C   0  0  0  0  0  0  0  0  0  0  0  0
    4.1026  -14.1267  -25.3413 N   0  0  0  0  0  0  0  0  0  0  0  0
    2.4107  -13.1342  -26.5517 O   0  0  0  0  0  0  0  0  0  0  0  0
    5.0305  -14.0495  -25.0212 H   0  0  0  0  0  0  0  0  0  0  0  0
    4.4040  -11.8772  -26.5240 C   0  0  0  0  0  0  0  0  0  0  0  0
    5.4271  -12.3304  -27.4419 N   0  0  0  0  0  0  0  0  0  0  0  0
    5.1607  -13.2565  -27.7761 H   0  0  0  0  0  0  0  0  0  0  0  0
    7.3631  -11.0411  -25.7758 C   0  0  0  0  0  0  0  0  0  0  0  0
    7.0791  -13.6993  -26.0746 O   0  0  0  0  0  0  0  0  0  0  0  0
    7.8768  -12.6314  -27.9705 O   0  0  0  0  0  0  0  0  0  0  0  0
    7.0135  -12.4394  -26.7916 S   0  0  0  0  0  0  0  0  0  0  0  0
    3.6017  -10.8192  -27.2927 C   0  0  0  0  0  0  0  0  0  0  0  0
    3.9228   -9.4626  -26.6224 C   0  0  0  0  0  0  0  0  0  0  0  0
    4.7271   -8.5776  -27.5433 C   0  0  0  0  0  0  0  0  0  0  0  0
    4.8627   -9.1699  -28.9314 C   0  0  0  0  0  0  0  0  0  0  0  0
    6.2377   -9.5958  -29.1366 N   0  0  0  0  0  0  0  0  0  0  0  0
    6.4845  -10.2964  -28.4376 H   0  0  0  0  0  0  0  0  0  0  0  0
    6.8595   -8.7922  -29.0469 H   0  0  0  0  0  0  0  0  0  0  0  0
 40 41  2  0  0  0
 38 41  1  0  0  0
 41 39  2  0  0  0
 41 36  1  0  0  0
 36 35  1  0  0  0
 46 45  1  0  0  0
 33 31  2  0  0  0
 35 31  1  0  0  0
 35 42  1  0  0  0
 45 44  1  0  0  0
 43 44  1  0  0  0
 43 42  1  0  0  0
 31 32  1  0  0  0
 32 30  1  0  0  0
 30  1  1  0  0  0
  4  2  2  0  0  0
  1  2  1  0  0  0
  1  6  1  0  0  0
  2  3  1  0  0  0
  6  7  1  0  0  0
  7  8  1  0  0  0
  7 11  1  0  0  0
  7 12  1  0  0  0
 14 12  2  0  0  0
  8  9  1  0  0  0
 11 10  1  0  0  0
  9 10  1  0  0  0
 12 13  1  0  0  0
 13 16  1  0  0  0
 16 17  1  0  0  0
 16 21  1  0  0  0
 19 17  2  0  0  0
 17 18  1  0  0  0
 21 22  1  0  0  0
 23 22  2  0  0  0
 23 24  1  0  0  0
 22 27  1  0  0  0
 24 25  2  0  0  0
 27 26  2  0  0  0
 25 26  1  0  0  0
 25 28  1  0  0  0
 36 37  1  0  0  0
 46 47  1  0  0  0
 46 48  1  0  0  0
 32 34  1  0  0  0
 13 15  1  0  0  0
 28 29  1  0  0  0
 18 20  1  0  0  0
  3  5  1  0  0  0
M  END
> <minimizedAffinity>
-8.66794

$$$$
6F9V_D0Z_A_702


 48 49  0  0  0  0  0  0  0  0999 V2000
    5.7187  -15.7752  -20.3032 C   0  0  0  0  0  0  0  0  0  0  0  0
    5.8783  -17.2419  -20.6702 C   0  0  0  0  0  0  0  0  0  0  0  0
    5.5156  -18.1545  -19.8894 O   0  0  0  0  0  0  0  0  0  0  0  0
    6.4431  -17.5886  -21.7322 O   0  0  0  0  0  0  0  0  0  0  0  0
    5.0890  -17.9393  -19.0833 H   0  0  0  0  0  0  0  0  0  0  0  0
    6.2399  -14.8358  -21.4140 C   0  0  0  0  0  0  0  0  0  0  0  0
    7.4532  -13.9752  -20.9963 C   0  0  0  0  0  0  0  0  0  0  0  0
    8.8290  -14.8080  -21.4869 C   0  0  0  0  0  0  0  0  0  0  0  0
    9.4452  -15.2376  -20.3100 C   0  0  0  0  0  0  0  0  0  0  0  0
    9.0868  -14.0988  -19.2357 C   0  0  0  0  0  0  0  0  0  0  0  0
    7.5475  -13.8024  -19.5839 C   0  0  0  0  0  0  0  0  0  0  0  0
    7.5330  -12.7001  -21.8489 C   0  0  0  0  0  0  0  0  0  0  0  0
    6.3782  -12.4227  -22.6659 N   0  0  0  0  0  0  0  0  0  0  0  0
    8.4164  -11.8734  -21.8132 O   0  0  0  0  0  0  0  0  0  0  0  0
    5.6674  -13.1009  -22.7303 H   0  0  0  0  0  0  0  0  0  0  0  0
    6.2268  -11.1739  -23.3994 C   0  0  0  0  0  0  0  0  0  0  0  0
    4.7306  -10.8817  -23.3566 C   0  0  0  0  0  0  0  0  0  0  0  0
    4.1857  -10.3497  -24.3577 O   0  0  0  0  0  0  0  0  0  0  0  0
    4.0081  -11.1669  -22.3091 O   0  0  0  0  0  0  0  0  0  0  0  0
    4.6977  -10.1416  -25.1144 H   0  0  0  0  0  0  0  0  0  0  0  0
    6.6269  -11.3114  -24.8867 C   0  0  0  0  0  0  0  0  0  0  0  0
    7.7003  -10.3278  -25.3780 C   0  0  0  0  0  0  0  0  0  0  0  0
    9.0043  -10.7369  -25.5323 C   0  0  0  0  0  0  0  0  0  0  0  0
    9.9251   -9.8111  -26.0223 C   0  0  0  0  0  0  0  0  0  0  0  0
    9.5182   -8.5246  -26.3404 C   0  0  0  0  0  0  0  0  0  0  0  0
    8.2032   -8.1357  -26.1984 C   0  0  0  0  0  0  0  0  0  0  0  0
    7.2784   -9.0527  -25.7031 C   0  0  0  0  0  0  0  0  0  0  0  0
   10.4686   -7.5965  -26.8420 O   0  0  0  0  0  0  0  0  0  0  0  0
   11.3647   -7.8514  -26.9420 H   0  0  0  0  0  0  0  0  0  0  0  0
    4.2324  -15.4395  -20.1447 C   0  0  0  0  0  0  0  0  0  0  0  0
    2.4098  -15.3357  -21.8853 C   0  0  0  0  0  0  0  0  0  0  0  0
    3.5117  -16.0448  -21.2529 N   0  0  0  0  0  0  0  0  0  0  0  0
    2.0971  -14.2468  -21.5340 O   0  0  0  0  0  0  0  0  0  0  0  0
    3.7703  -16.9378  -21.5766 H   0  0  0  0  0  0  0  0  0  0  0  0
    1.6912  -16.0038  -23.0512 C   0  0  0  0  0  0  0  0  0  0  0  0
    0.4745  -15.2593  -23.2961 N   0  0  0  0  0  0  0  0  0  0  0  0
    0.4560  -14.4681  -22.6526 H   0  0  0  0  0  0  0  0  0  0  0  0
   -2.3685  -15.0418  -23.0596 C   0  0  0  0  0  0  0  0  0  0  0  0
   -1.0452  -17.0969  -24.1827 O   0  0  0  0  0  0  0  0  0  0  0  0
   -0.7596  -16.9516  -21.8875 O   0  0  0  0  0  0  0  0  0  0  0  0
   -0.9879  -16.1382  -23.0950 S   0  0  0  0  0  0  0  0  0  0  0  0
    2.5101  -15.8894  -24.3436 C   0  0  0  0  0  0  0  0  0  0  0  0
    1.9544  -14.6594  -25.0993 C   0  0  0  0  0  0  0  0  0  0  0  0
    3.0136  -13.5965  -25.2618 C   0  0  0  0  0  0  0  0  0  0  0  0
    3.2127  -13.2045  -26.7119 C   0  0  0  0  0  0  0  0  0  0  0  0
    3.2393  -11.7544  -26.8152 N   0  0  0  0  0  0  0  0  0  0  0  0
    4.0057  -11.3874  -26.2510 H   0  0  0  0  0  0  0  0  0  0  0  0
    2.3556  -11.3732  -26.4775 H   0  0  0  0  0  0  0  0  0  0  0  0
 40 41  2  0  0  0
 38 41  1  0  0  0
 41 39  2  0  0  0
 41 36  1  0  0  0
 36 35  1  0  0  0
 46 45  1  0  0  0
 33 31  2  0  0  0
 35 31  1  0  0  0
 35 42  1  0  0  0
 45 44  1  0  0  0
 43 44  1  0  0  0
 43 42  1  0  0  0
 31 32  1  0  0  0
 32 30  1  0  0  0
 30  1  1  0  0  0
  4  2  2  0  0  0
  1  2  1  0  0  0
  1  6  1  0  0  0
  2  3  1  0  0  0
  6  7  1  0  0  0
  7  8  1  0  0  0
  7 11  1  0  0  0
  7 12  1  0  0  0
 14 12  2  0  0  0
  8  9  1  0  0  0
 11 10  1  0  0  0
  9 10  1  0  0  0
 12 13  1  0  0  0
 13 16  1  0  0  0
 16 17  1  0  0  0
 16 21  1  0  0  0
 19 17  2  0  0  0
 17 18  1  0  0  0
 21 22  1  0  0  0
 23 22  2  0  0  0
 23 24  1  0  0  0
 22 27  1  0  0  0
 24 25  2  0  0  0
 27 26  2  0  0  0
 25 26  1  0  0  0
 25 28  1  0  0  0
 36 37  1  0  0  0
 46 47  1  0  0  0
 46 48  1  0  0  0
 32 34  1  0  0  0
 13 15  1  0  0  0
 28 29  1  0  0  0
 18 20  1  0  0  0
  3  5  1  0  0  0
M  END
> <minimizedAffinity>
-8.61138

$$$$
