4B9K_TG0_C_1203


 36 39  0  0  0  0  0  0  0  0999 V2000
   -6.8836   35.2406   -0.7322 C   0  0  0  0  0  0  0  0  0  0  0  0
   -7.3733   34.2797    0.2388 N   0  0  0  0  0  0  0  0  0  0  0  0
   -7.5692   34.5559    1.6583 C   0  0  0  0  0  0  0  0  0  0  0  0
   -7.9750   33.2775    2.3117 C   0  0  0  0  0  0  0  0  0  0  0  0
   -8.5839   32.5493    1.1843 C   0  0  0  0  0  0  0  0  0  0  0  0
   -9.9057   32.9616    0.9890 O   0  0  0  0  0  0  0  0  0  0  0  0
   -7.7523   32.8834   -0.0261 C   0  0  0  0  0  0  0  0  0  0  0  0
   -6.6260   36.4030   -0.4090 O   0  0  0  0  0  0  0  0  0  0  0  0
   -9.9246   33.9161    0.8171 H   0  0  0  0  0  0  0  0  0  0  0  0
   -4.3224   33.0455   -4.5139 N   0  0  0  0  0  0  0  0  0  0  0  0
   -5.4686   33.7225   -3.9540 C   0  0  0  0  0  0  0  0  0  0  0  0
   -5.5397   34.1152   -2.5915 C   0  0  0  0  0  0  0  0  0  0  0  0
   -4.3902   33.8809   -1.6484 C   0  0  0  0  0  0  0  0  0  0  0  0
   -6.7188   34.7827   -2.1648 C   0  0  0  0  0  0  0  0  0  0  0  0
   -7.8057   34.9816   -3.0251 C   0  0  0  0  0  0  0  0  0  0  0  0
   -7.7017   34.5993   -4.3645 C   0  0  0  0  0  0  0  0  0  0  0  0
   -6.5543   33.9308   -4.8016 C   0  0  0  0  0  0  0  0  0  0  0  0
   -3.5301   32.8747   -3.9551 H   0  0  0  0  0  0  0  0  0  0  0  0
   -4.3334   32.7549   -5.4545 H   0  0  0  0  0  0  0  0  0  0  0  0
   -6.2902   35.0321    2.3371 C   0  0  0  0  0  0  0  0  0  0  0  0
   -6.4131   35.8956    3.4825 N   0  0  0  0  0  0  0  0  0  0  0  0
   -5.1711   34.6693    1.9499 O   0  0  0  0  0  0  0  0  0  0  0  0
   -7.2911   36.2065    3.8012 H   0  0  0  0  0  0  0  0  0  0  0  0
   -5.1825   36.2867    4.1458 C   0  0  0  0  0  0  0  0  0  0  0  0
   -5.0362   35.4525    5.4173 C   0  0  0  0  0  0  0  0  0  0  0  0
   -6.1567   34.7420    5.8893 C   0  0  0  0  0  0  0  0  0  0  0  0
   -6.0173   33.9532    7.0399 C   0  0  0  0  0  0  0  0  0  0  0  0
   -4.7864   33.8889    7.7234 C   0  0  0  0  0  0  0  0  0  0  0  0
   -3.6859   34.6284    7.2748 C   0  0  0  0  0  0  0  0  0  0  0  0
   -3.7991   35.3632    6.0932 C   0  0  0  0  0  0  0  0  0  0  0  0
   -4.6209   32.9820    8.9201 C   0  0  0  0  0  0  0  0  0  0  0  0
   -4.1547   33.3995   10.2156 C   0  0  0  0  0  0  0  0  0  0  0  0
   -3.6728   34.7584   10.6305 C   0  0  0  0  0  0  0  0  0  0  0  0
   -4.1832   32.2507   11.1324 N   0  0  0  0  0  0  0  0  0  0  0  0
   -4.6842   31.1084   10.5338 C   0  0  0  0  0  0  0  0  0  0  0  0
   -5.0534   31.4233    8.9824 S   0  0  0  0  0  0  0  0  0  0  0  0
 10 11  1  0  0  0
 11 12  1  0  0  0
 11 17  2  0  0  0
 12 13  1  0  0  0
 12 14  2  0  0  0
 14  1  1  0  0  0
 14 15  1  0  0  0
  1  2  1  0  0  0
  1  8  2  0  0  0
  2  3  1  0  0  0
  2  7  1  0  0  0
  3 20  1  0  0  0
  3  4  1  0  0  0
 20 21  1  0  0  0
 20 22  2  0  0  0
 21 24  1  0  0  0
 24 25  1  0  0  0
 25 26  1  0  0  0
 25 30  2  0  0  0
 26 27  2  0  0  0
 27 28  1  0  0  0
 28 31  1  0  0  0
 28 29  2  0  0  0
 31 32  2  0  0  0
 31 36  1  0  0  0
 32 33  1  0  0  0
 32 34  1  0  0  0
 34 35  2  0  0  0
 35 36  1  0  0  0
 29 30  1  0  0  0
  4  5  1  0  0  0
  5  6  1  0  0  0
  5  7  1  0  0  0
 15 16  2  0  0  0
 16 17  1  0  0  0
 10 18  1  0  0  0
 10 19  1  0  0  0
 21 23  1  0  0  0
  6  9  1  0  0  0
M  END
> <minimizedAffinity>
-9.80572

$$$$
4B9K_TG0_C_1203


 36 39  0  0  0  0  0  0  0  0999 V2000
   -6.5469   35.2480   -0.7798 C   0  0  0  0  0  0  0  0  0  0  0  0
   -7.1304   34.3219    0.1729 N   0  0  0  0  0  0  0  0  0  0  0  0
   -7.4257   34.6369    1.5670 C   0  0  0  0  0  0  0  0  0  0  0  0
   -7.9092   33.3838    2.2166 C   0  0  0  0  0  0  0  0  0  0  0  0
   -8.4486   32.6416    1.0633 C   0  0  0  0  0  0  0  0  0  0  0  0
   -9.7421   33.0775    0.7594 O   0  0  0  0  0  0  0  0  0  0  0  0
   -7.5210   32.9280   -0.0881 C   0  0  0  0  0  0  0  0  0  0  0  0
   -6.2871   36.4122   -0.4645 O   0  0  0  0  0  0  0  0  0  0  0  0
   -9.7257   34.0277    0.5649 H   0  0  0  0  0  0  0  0  0  0  0  0
   -7.5511   34.9699   -5.7390 N   0  0  0  0  0  0  0  0  0  0  0  0
   -6.7904   34.6420   -4.5561 C   0  0  0  0  0  0  0  0  0  0  0  0
   -7.1061   35.1577   -3.2716 C   0  0  0  0  0  0  0  0  0  0  0  0
   -8.2943   36.0571   -3.0595 C   0  0  0  0  0  0  0  0  0  0  0  0
   -6.2858   34.7519   -2.1851 C   0  0  0  0  0  0  0  0  0  0  0  0
   -5.1617   33.9384   -2.3738 C   0  0  0  0  0  0  0  0  0  0  0  0
   -4.8842   33.4327   -3.6460 C   0  0  0  0  0  0  0  0  0  0  0  0
   -5.6727   33.8291   -4.7303 C   0  0  0  0  0  0  0  0  0  0  0  0
   -8.3496   35.5414   -5.6680 H   0  0  0  0  0  0  0  0  0  0  0  0
   -7.2713   34.6219   -6.6164 H   0  0  0  0  0  0  0  0  0  0  0  0
   -6.1905   35.1017    2.3294 C   0  0  0  0  0  0  0  0  0  0  0  0
   -6.3836   35.9386    3.4849 N   0  0  0  0  0  0  0  0  0  0  0  0
   -5.0492   34.7515    2.0000 O   0  0  0  0  0  0  0  0  0  0  0  0
   -7.2801   36.2393    3.7589 H   0  0  0  0  0  0  0  0  0  0  0  0
   -5.1954   36.3185    4.2272 C   0  0  0  0  0  0  0  0  0  0  0  0
   -5.0595   35.3833    5.4275 C   0  0  0  0  0  0  0  0  0  0  0  0
   -3.8106   35.2911    6.0716 C   0  0  0  0  0  0  0  0  0  0  0  0
   -3.6909   34.4551    7.1907 C   0  0  0  0  0  0  0  0  0  0  0  0
   -4.7925   33.7053    7.6498 C   0  0  0  0  0  0  0  0  0  0  0  0
   -6.0214   33.7681    6.9828 C   0  0  0  0  0  0  0  0  0  0  0  0
   -6.1655   34.6481    5.9086 C   0  0  0  0  0  0  0  0  0  0  0  0
   -4.6787   32.8621    8.8980 C   0  0  0  0  0  0  0  0  0  0  0  0
   -4.1420   33.3132   10.1544 C   0  0  0  0  0  0  0  0  0  0  0  0
   -3.5273   34.6445   10.4721 C   0  0  0  0  0  0  0  0  0  0  0  0
   -4.2508   32.2304   11.1426 N   0  0  0  0  0  0  0  0  0  0  0  0
   -4.8696   31.1049   10.6283 C   0  0  0  0  0  0  0  0  0  0  0  0
   -5.2497   31.3570    9.0681 S   0  0  0  0  0  0  0  0  0  0  0  0
 10 11  1  0  0  0
 11 12  1  0  0  0
 11 17  2  0  0  0
 12 13  1  0  0  0
 12 14  2  0  0  0
 14  1  1  0  0  0
 14 15  1  0  0  0
  1  2  1  0  0  0
  1  8  2  0  0  0
  2  3  1  0  0  0
  2  7  1  0  0  0
  3 20  1  0  0  0
  3  4  1  0  0  0
 20 21  1  0  0  0
 20 22  2  0  0  0
 21 24  1  0  0  0
 24 25  1  0  0  0
 25 26  1  0  0  0
 25 30  2  0  0  0
 26 27  2  0  0  0
 27 28  1  0  0  0
 28 31  1  0  0  0
 28 29  2  0  0  0
 31 32  2  0  0  0
 31 36  1  0  0  0
 32 33  1  0  0  0
 32 34  1  0  0  0
 34 35  2  0  0  0
 35 36  1  0  0  0
 29 30  1  0  0  0
  4  5  1  0  0  0
  5  6  1  0  0  0
  5  7  1  0  0  0
 15 16  2  0  0  0
 16 17  1  0  0  0
 10 18  1  0  0  0
 10 19  1  0  0  0
 21 23  1  0  0  0
  6  9  1  0  0  0
M  END
> <minimizedAffinity>
-9.19473

$$$$
4B9K_TG0_C_1203


 36 39  0  0  0  0  0  0  0  0999 V2000
   -4.4608   35.3306    7.9416 C   0  0  0  0  0  0  0  0  0  0  0  0
   -3.2654   35.5533    7.1497 N   0  0  0  0  0  0  0  0  0  0  0  0
   -2.7566   36.8645    6.7601 C   0  0  0  0  0  0  0  0  0  0  0  0
   -1.5821   36.6421    5.8674 C   0  0  0  0  0  0  0  0  0  0  0  0
   -1.1242   35.3119    6.3066 C   0  0  0  0  0  0  0  0  0  0  0  0
   -0.3324   35.4187    7.4543 O   0  0  0  0  0  0  0  0  0  0  0  0
   -2.3695   34.5203    6.6076 C   0  0  0  0  0  0  0  0  0  0  0  0
   -5.1250   36.2743    8.3779 O   0  0  0  0  0  0  0  0  0  0  0  0
   -0.8428   35.8444    8.1608 H   0  0  0  0  0  0  0  0  0  0  0  0
   -4.4123   31.1105   10.7466 N   0  0  0  0  0  0  0  0  0  0  0  0
   -4.8197   31.8974    9.6063 C   0  0  0  0  0  0  0  0  0  0  0  0
   -4.3970   33.2379    9.4067 C   0  0  0  0  0  0  0  0  0  0  0  0
   -3.4530   33.9121   10.3659 C   0  0  0  0  0  0  0  0  0  0  0  0
   -4.8604   33.9021    8.2395 C   0  0  0  0  0  0  0  0  0  0  0  0
   -5.7605   33.2956    7.3546 C   0  0  0  0  0  0  0  0  0  0  0  0
   -6.1470   31.9703    7.5673 C   0  0  0  0  0  0  0  0  0  0  0  0
   -5.7110   31.3030    8.7159 C   0  0  0  0  0  0  0  0  0  0  0  0
   -3.7837   31.4862   11.4047 H   0  0  0  0  0  0  0  0  0  0  0  0
   -4.7630   30.1984   10.8659 H   0  0  0  0  0  0  0  0  0  0  0  0
   -3.7827   37.6735    5.9752 C   0  0  0  0  0  0  0  0  0  0  0  0
   -4.7909   36.9560    5.2394 N   0  0  0  0  0  0  0  0  0  0  0  0
   -3.7854   38.9119    5.9866 O   0  0  0  0  0  0  0  0  0  0  0  0
   -4.8017   35.9721    5.2060 H   0  0  0  0  0  0  0  0  0  0  0  0
   -5.7908   37.7502    4.5489 C   0  0  0  0  0  0  0  0  0  0  0  0
   -6.1159   37.0656    3.2225 C   0  0  0  0  0  0  0  0  0  0  0  0
   -7.0606   37.6663    2.3683 C   0  0  0  0  0  0  0  0  0  0  0  0
   -7.3397   37.0550    1.1379 C   0  0  0  0  0  0  0  0  0  0  0  0
   -6.7035   35.8518    0.7716 C   0  0  0  0  0  0  0  0  0  0  0  0
   -5.7954   35.2359    1.6406 C   0  0  0  0  0  0  0  0  0  0  0  0
   -5.4638   35.8732    2.8377 C   0  0  0  0  0  0  0  0  0  0  0  0
   -6.9529   35.2352   -0.5846 C   0  0  0  0  0  0  0  0  0  0  0  0
   -7.5999   33.9703   -0.8114 C   0  0  0  0  0  0  0  0  0  0  0  0
   -8.0823   32.9827    0.2100 C   0  0  0  0  0  0  0  0  0  0  0  0
   -7.7108   33.7371   -2.2586 N   0  0  0  0  0  0  0  0  0  0  0  0
   -7.2175   34.7932   -3.0039 C   0  0  0  0  0  0  0  0  0  0  0  0
   -6.6475   35.9441   -2.0075 S   0  0  0  0  0  0  0  0  0  0  0  0
 10 11  1  0  0  0
 11 12  1  0  0  0
 11 17  2  0  0  0
 12 13  1  0  0  0
 12 14  2  0  0  0
 14  1  1  0  0  0
 14 15  1  0  0  0
  1  2  1  0  0  0
  1  8  2  0  0  0
  2  3  1  0  0  0
  2  7  1  0  0  0
  3 20  1  0  0  0
  3  4  1  0  0  0
 20 21  1  0  0  0
 20 22  2  0  0  0
 21 24  1  0  0  0
 24 25  1  0  0  0
 25 26  1  0  0  0
 25 30  2  0  0  0
 26 27  2  0  0  0
 27 28  1  0  0  0
 28 31  1  0  0  0
 28 29  2  0  0  0
 31 32  2  0  0  0
 31 36  1  0  0  0
 32 33  1  0  0  0
 32 34  1  0  0  0
 34 35  2  0  0  0
 35 36  1  0  0  0
 29 30  1  0  0  0
  4  5  1  0  0  0
  5  6  1  0  0  0
  5  7  1  0  0  0
 15 16  2  0  0  0
 16 17  1  0  0  0
 10 18  1  0  0  0
 10 19  1  0  0  0
 21 23  1  0  0  0
  6  9  1  0  0  0
M  END
> <minimizedAffinity>
-8.16801

$$$$
4B9K_TG0_C_1203


 36 39  0  0  0  0  0  0  0  0999 V2000
   -5.9130   34.8174   -0.3899 C   0  0  0  0  0  0  0  0  0  0  0  0
   -4.4772   34.7606   -0.5922 N   0  0  0  0  0  0  0  0  0  0  0  0
   -3.4965   34.5176    0.4608 C   0  0  0  0  0  0  0  0  0  0  0  0
   -2.1416   34.6496   -0.1496 C   0  0  0  0  0  0  0  0  0  0  0  0
   -2.4205   34.3302   -1.5610 C   0  0  0  0  0  0  0  0  0  0  0  0
   -2.4595   32.9456   -1.7534 O   0  0  0  0  0  0  0  0  0  0  0  0
   -3.7655   34.9344   -1.8677 C   0  0  0  0  0  0  0  0  0  0  0  0
   -6.4113   34.6224    0.7218 O   0  0  0  0  0  0  0  0  0  0  0  0
   -3.1431   32.5592   -1.1839 H   0  0  0  0  0  0  0  0  0  0  0  0
   -8.2294   37.9058   -3.6725 N   0  0  0  0  0  0  0  0  0  0  0  0
   -7.8832   36.6056   -3.1480 C   0  0  0  0  0  0  0  0  0  0  0  0
   -7.0480   36.4318   -2.0133 C   0  0  0  0  0  0  0  0  0  0  0  0
   -6.5003   37.6119   -1.2564 C   0  0  0  0  0  0  0  0  0  0  0  0
   -6.7896   35.1005   -1.5901 C   0  0  0  0  0  0  0  0  0  0  0  0
   -7.2701   33.9944   -2.3019 C   0  0  0  0  0  0  0  0  0  0  0  0
   -8.1027   34.1952   -3.4053 C   0  0  0  0  0  0  0  0  0  0  0  0
   -8.3599   35.4973   -3.8446 C   0  0  0  0  0  0  0  0  0  0  0  0
   -7.9164   38.7200   -3.2160 H   0  0  0  0  0  0  0  0  0  0  0  0
   -8.7783   37.9780   -4.4866 H   0  0  0  0  0  0  0  0  0  0  0  0
   -3.5931   35.5387    1.5884 C   0  0  0  0  0  0  0  0  0  0  0  0
   -4.3250   35.1718    2.7727 N   0  0  0  0  0  0  0  0  0  0  0  0
   -3.0357   36.6425    1.5196 O   0  0  0  0  0  0  0  0  0  0  0  0
   -4.7860   34.3050    2.8454 H   0  0  0  0  0  0  0  0  0  0  0  0
   -4.3517   36.1392    3.8547 C   0  0  0  0  0  0  0  0  0  0  0  0
   -4.4093   35.3781    5.1780 C   0  0  0  0  0  0  0  0  0  0  0  0
   -5.6695   35.0219    5.6958 C   0  0  0  0  0  0  0  0  0  0  0  0
   -5.7238   34.2985    6.8956 C   0  0  0  0  0  0  0  0  0  0  0  0
   -4.5421   33.9529    7.5815 C   0  0  0  0  0  0  0  0  0  0  0  0
   -3.2931   34.3438    7.0852 C   0  0  0  0  0  0  0  0  0  0  0  0
   -3.2284   35.0063    5.8581 C   0  0  0  0  0  0  0  0  0  0  0  0
   -4.6017   33.1120    8.8350 C   0  0  0  0  0  0  0  0  0  0  0  0
   -4.2005   33.5511   10.1450 C   0  0  0  0  0  0  0  0  0  0  0  0
   -3.5840   34.8633   10.5313 C   0  0  0  0  0  0  0  0  0  0  0  0
   -4.4587   32.4768   11.1146 N   0  0  0  0  0  0  0  0  0  0  0  0
   -5.0497   31.3695   10.5325 C   0  0  0  0  0  0  0  0  0  0  0  0
   -5.2373   31.6268    8.9385 S   0  0  0  0  0  0  0  0  0  0  0  0
 10 11  1  0  0  0
 11 12  1  0  0  0
 11 17  2  0  0  0
 12 13  1  0  0  0
 12 14  2  0  0  0
 14  1  1  0  0  0
 14 15  1  0  0  0
  1  2  1  0  0  0
  1  8  2  0  0  0
  2  3  1  0  0  0
  2  7  1  0  0  0
  3 20  1  0  0  0
  3  4  1  0  0  0
 20 21  1  0  0  0
 20 22  2  0  0  0
 21 24  1  0  0  0
 24 25  1  0  0  0
 25 26  1  0  0  0
 25 30  2  0  0  0
 26 27  2  0  0  0
 27 28  1  0  0  0
 28 31  1  0  0  0
 28 29  2  0  0  0
 31 32  2  0  0  0
 31 36  1  0  0  0
 32 33  1  0  0  0
 32 34  1  0  0  0
 34 35  2  0  0  0
 35 36  1  0  0  0
 29 30  1  0  0  0
  4  5  1  0  0  0
  5  6  1  0  0  0
  5  7  1  0  0  0
 15 16  2  0  0  0
 16 17  1  0  0  0
 10 18  1  0  0  0
 10 19  1  0  0  0
 21 23  1  0  0  0
  6  9  1  0  0  0
M  END
> <minimizedAffinity>
-7.89189

$$$$
4B9K_TG0_C_1203


 36 39  0  0  0  0  0  0  0  0999 V2000
   -5.8696   35.6339    6.0517 C   0  0  0  0  0  0  0  0  0  0  0  0
   -4.8258   35.9636    5.0991 N   0  0  0  0  0  0  0  0  0  0  0  0
   -4.8746   37.0832    4.1642 C   0  0  0  0  0  0  0  0  0  0  0  0
   -3.6626   36.9971    3.2984 C   0  0  0  0  0  0  0  0  0  0  0  0
   -2.7279   36.2630    4.1700 C   0  0  0  0  0  0  0  0  0  0  0  0
   -2.1155   37.1329    5.0775 O   0  0  0  0  0  0  0  0  0  0  0  0
   -3.5572   35.2444    4.9069 C   0  0  0  0  0  0  0  0  0  0  0  0
   -6.8846   36.3276    6.1551 O   0  0  0  0  0  0  0  0  0  0  0  0
   -2.7946   37.5716    5.6134 H   0  0  0  0  0  0  0  0  0  0  0  0
   -3.8111   33.2028    9.9927 N   0  0  0  0  0  0  0  0  0  0  0  0
   -4.6682   33.2877    8.8336 C   0  0  0  0  0  0  0  0  0  0  0  0
   -4.7994   34.4705    8.0594 C   0  0  0  0  0  0  0  0  0  0  0  0
   -4.0095   35.7101    8.3840 C   0  0  0  0  0  0  0  0  0  0  0  0
   -5.6682   34.4233    6.9365 C   0  0  0  0  0  0  0  0  0  0  0  0
   -6.4292   33.2856    6.6407 C   0  0  0  0  0  0  0  0  0  0  0  0
   -6.2680   32.1309    7.4100 C   0  0  0  0  0  0  0  0  0  0  0  0
   -5.4265   32.1604    8.5260 C   0  0  0  0  0  0  0  0  0  0  0  0
   -3.2554   33.9731   10.2515 H   0  0  0  0  0  0  0  0  0  0  0  0
   -3.7826   32.3746   10.5242 H   0  0  0  0  0  0  0  0  0  0  0  0
   -6.0947   37.0231    3.2525 C   0  0  0  0  0  0  0  0  0  0  0  0
   -6.3599   35.7906    2.5572 N   0  0  0  0  0  0  0  0  0  0  0  0
   -6.8654   37.9845    3.1284 O   0  0  0  0  0  0  0  0  0  0  0  0
   -5.7552   35.0172    2.6312 H   0  0  0  0  0  0  0  0  0  0  0  0
   -7.5601   35.7410    1.7422 C   0  0  0  0  0  0  0  0  0  0  0  0
   -7.1635   35.3181    0.3287 C   0  0  0  0  0  0  0  0  0  0  0  0
   -6.4799   36.2428   -0.4841 C   0  0  0  0  0  0  0  0  0  0  0  0
   -6.0899   35.8474   -1.7714 C   0  0  0  0  0  0  0  0  0  0  0  0
   -6.3942   34.5575   -2.2510 C   0  0  0  0  0  0  0  0  0  0  0  0
   -7.1095   33.6549   -1.4555 C   0  0  0  0  0  0  0  0  0  0  0  0
   -7.4429   34.0187   -0.1496 C   0  0  0  0  0  0  0  0  0  0  0  0
   -5.9095   34.1114   -3.6104 C   0  0  0  0  0  0  0  0  0  0  0  0
   -6.5645   34.4017   -4.8580 C   0  0  0  0  0  0  0  0  0  0  0  0
   -7.8657   35.1168   -5.0741 C   0  0  0  0  0  0  0  0  0  0  0  0
   -5.7657   33.8512   -5.9624 N   0  0  0  0  0  0  0  0  0  0  0  0
   -4.5973   33.2539   -5.5239 C   0  0  0  0  0  0  0  0  0  0  0  0
   -4.5157   33.3417   -3.9028 S   0  0  0  0  0  0  0  0  0  0  0  0
 10 11  1  0  0  0
 11 12  1  0  0  0
 11 17  2  0  0  0
 12 13  1  0  0  0
 12 14  2  0  0  0
 14  1  1  0  0  0
 14 15  1  0  0  0
  1  2  1  0  0  0
  1  8  2  0  0  0
  2  3  1  0  0  0
  2  7  1  0  0  0
  3 20  1  0  0  0
  3  4  1  0  0  0
 20 21  1  0  0  0
 20 22  2  0  0  0
 21 24  1  0  0  0
 24 25  1  0  0  0
 25 26  1  0  0  0
 25 30  2  0  0  0
 26 27  2  0  0  0
 27 28  1  0  0  0
 28 31  1  0  0  0
 28 29  2  0  0  0
 31 32  2  0  0  0
 31 36  1  0  0  0
 32 33  1  0  0  0
 32 34  1  0  0  0
 34 35  2  0  0  0
 35 36  1  0  0  0
 29 30  1  0  0  0
  4  5  1  0  0  0
  5  6  1  0  0  0
  5  7  1  0  0  0
 15 16  2  0  0  0
 16 17  1  0  0  0
 10 18  1  0  0  0
 10 19  1  0  0  0
 21 23  1  0  0  0
  6  9  1  0  0  0
M  END
> <minimizedAffinity>
-7.88841

$$$$
4B9K_TG0_C_1203


 36 39  0  0  0  0  0  0  0  0999 V2000
   -5.5129   36.3647    1.7339 C   0  0  0  0  0  0  0  0  0  0  0  0
   -6.0991   37.6753    1.9451 N   0  0  0  0  0  0  0  0  0  0  0  0
   -5.3426   38.9187    2.0518 C   0  0  0  0  0  0  0  0  0  0  0  0
   -6.3116   40.0063    2.3746 C   0  0  0  0  0  0  0  0  0  0  0  0
   -7.5631   39.4625    1.8176 C   0  0  0  0  0  0  0  0  0  0  0  0
   -7.6328   39.7000    0.4413 O   0  0  0  0  0  0  0  0  0  0  0  0
   -7.5308   37.9811    2.0872 C   0  0  0  0  0  0  0  0  0  0  0  0
   -4.2955   36.2228    1.5928 O   0  0  0  0  0  0  0  0  0  0  0  0
   -6.8694   39.2919    0.0037 H   0  0  0  0  0  0  0  0  0  0  0  0
   -8.4269   33.0318   -0.7319 N   0  0  0  0  0  0  0  0  0  0  0  0
   -7.8272   33.5895    0.4576 C   0  0  0  0  0  0  0  0  0  0  0  0
   -6.9607   34.7136    0.4271 C   0  0  0  0  0  0  0  0  0  0  0  0
   -6.6451   35.4240   -0.8619 C   0  0  0  0  0  0  0  0  0  0  0  0
   -6.4421   35.1725    1.6675 C   0  0  0  0  0  0  0  0  0  0  0  0
   -6.7058   34.5039    2.8693 C   0  0  0  0  0  0  0  0  0  0  0  0
   -7.5746   33.4101    2.8718 C   0  0  0  0  0  0  0  0  0  0  0  0
   -8.0864   32.9360    1.6602 C   0  0  0  0  0  0  0  0  0  0  0  0
   -8.2736   33.4574   -1.6063 H   0  0  0  0  0  0  0  0  0  0  0  0
   -8.9890   32.2261   -0.6684 H   0  0  0  0  0  0  0  0  0  0  0  0
   -4.3121   38.8746    3.1741 C   0  0  0  0  0  0  0  0  0  0  0  0
   -4.7099   38.3079    4.4363 N   0  0  0  0  0  0  0  0  0  0  0  0
   -3.1523   39.2778    3.0122 O   0  0  0  0  0  0  0  0  0  0  0  0
   -5.6292   37.9919    4.5921 H   0  0  0  0  0  0  0  0  0  0  0  0
   -3.6929   38.2240    5.4688 C   0  0  0  0  0  0  0  0  0  0  0  0
   -3.9756   36.9887    6.3220 C   0  0  0  0  0  0  0  0  0  0  0  0
   -3.5009   35.7398    5.8771 C   0  0  0  0  0  0  0  0  0  0  0  0
   -3.7344   34.6091    6.6725 C   0  0  0  0  0  0  0  0  0  0  0  0
   -4.4484   34.7159    7.8829 C   0  0  0  0  0  0  0  0  0  0  0  0
   -4.9541   35.9520    8.3021 C   0  0  0  0  0  0  0  0  0  0  0  0
   -4.6685   37.0920    7.5485 C   0  0  0  0  0  0  0  0  0  0  0  0
   -4.6351   33.5087    8.7715 C   0  0  0  0  0  0  0  0  0  0  0  0
   -5.5068   32.3999    8.4874 C   0  0  0  0  0  0  0  0  0  0  0  0
   -6.4474   32.2368    7.3300 C   0  0  0  0  0  0  0  0  0  0  0  0
   -5.3750   31.3965    9.5536 N   0  0  0  0  0  0  0  0  0  0  0  0
   -4.4340   31.7536   10.5029 C   0  0  0  0  0  0  0  0  0  0  0  0
   -3.8003   33.2018   10.1241 S   0  0  0  0  0  0  0  0  0  0  0  0
 10 11  1  0  0  0
 11 12  1  0  0  0
 11 17  2  0  0  0
 12 13  1  0  0  0
 12 14  2  0  0  0
 14  1  1  0  0  0
 14 15  1  0  0  0
  1  2  1  0  0  0
  1  8  2  0  0  0
  2  3  1  0  0  0
  2  7  1  0  0  0
  3 20  1  0  0  0
  3  4  1  0  0  0
 20 21  1  0  0  0
 20 22  2  0  0  0
 21 24  1  0  0  0
 24 25  1  0  0  0
 25 26  1  0  0  0
 25 30  2  0  0  0
 26 27  2  0  0  0
 27 28  1  0  0  0
 28 31  1  0  0  0
 28 29  2  0  0  0
 31 32  2  0  0  0
 31 36  1  0  0  0
 32 33  1  0  0  0
 32 34  1  0  0  0
 34 35  2  0  0  0
 35 36  1  0  0  0
 29 30  1  0  0  0
  4  5  1  0  0  0
  5  6  1  0  0  0
  5  7  1  0  0  0
 15 16  2  0  0  0
 16 17  1  0  0  0
 10 18  1  0  0  0
 10 19  1  0  0  0
 21 23  1  0  0  0
  6  9  1  0  0  0
M  END
> <minimizedAffinity>
-7.75530

$$$$
4B9K_TG0_C_1203


 36 39  0  0  0  0  0  0  0  0999 V2000
   -5.9361   36.0472    6.0828 C   0  0  0  0  0  0  0  0  0  0  0  0
   -5.2143   36.8157    5.0857 N   0  0  0  0  0  0  0  0  0  0  0  0
   -5.6410   36.9935    3.7015 C   0  0  0  0  0  0  0  0  0  0  0  0
   -4.5672   37.7514    2.9955 C   0  0  0  0  0  0  0  0  0  0  0  0
   -3.9381   38.4813    4.1106 C   0  0  0  0  0  0  0  0  0  0  0  0
   -4.6646   39.6370    4.4138 O   0  0  0  0  0  0  0  0  0  0  0  0
   -3.9491   37.5388    5.2852 C   0  0  0  0  0  0  0  0  0  0  0  0
   -7.0125   35.5054    5.8180 O   0  0  0  0  0  0  0  0  0  0  0  0
   -5.5747   39.3951    4.6465 H   0  0  0  0  0  0  0  0  0  0  0  0
   -5.2295   37.6732   10.8300 N   0  0  0  0  0  0  0  0  0  0  0  0
   -5.0260   36.7496    9.7386 C   0  0  0  0  0  0  0  0  0  0  0  0
   -5.6281   36.9207    8.4644 C   0  0  0  0  0  0  0  0  0  0  0  0
   -6.4936   38.1144    8.1614 C   0  0  0  0  0  0  0  0  0  0  0  0
   -5.3418   35.9468    7.4705 C   0  0  0  0  0  0  0  0  0  0  0  0
   -4.5612   34.8178    7.7480 C   0  0  0  0  0  0  0  0  0  0  0  0
   -3.9684   34.6836    9.0057 C   0  0  0  0  0  0  0  0  0  0  0  0
   -4.2468   35.6251   10.0010 C   0  0  0  0  0  0  0  0  0  0  0  0
   -5.7727   38.4830   10.6948 H   0  0  0  0  0  0  0  0  0  0  0  0
   -4.8250   37.4929   11.7093 H   0  0  0  0  0  0  0  0  0  0  0  0
   -5.8180   35.6650    2.9754 C   0  0  0  0  0  0  0  0  0  0  0  0
   -7.1314   35.3281    2.4915 N   0  0  0  0  0  0  0  0  0  0  0  0
   -4.8650   34.9017    2.7682 O   0  0  0  0  0  0  0  0  0  0  0  0
   -7.9061   35.9133    2.6544 H   0  0  0  0  0  0  0  0  0  0  0  0
   -7.2607   34.0855    1.7521 C   0  0  0  0  0  0  0  0  0  0  0  0
   -7.3793   34.4208    0.2664 C   0  0  0  0  0  0  0  0  0  0  0  0
   -6.9177   35.6739   -0.1802 C   0  0  0  0  0  0  0  0  0  0  0  0
   -6.9993   35.9727   -1.5476 C   0  0  0  0  0  0  0  0  0  0  0  0
   -7.5519   35.0463   -2.4547 C   0  0  0  0  0  0  0  0  0  0  0  0
   -8.0471   33.8180   -2.0015 C   0  0  0  0  0  0  0  0  0  0  0  0
   -7.9087   33.4875   -0.6522 C   0  0  0  0  0  0  0  0  0  0  0  0
   -7.5719   35.3428   -3.9357 C   0  0  0  0  0  0  0  0  0  0  0  0
   -8.7468   35.6759   -4.6964 C   0  0  0  0  0  0  0  0  0  0  0  0
  -10.1702   35.7247   -4.2244 C   0  0  0  0  0  0  0  0  0  0  0  0
   -8.3595   35.9516   -6.0874 N   0  0  0  0  0  0  0  0  0  0  0  0
   -6.9925   35.8660   -6.2828 C   0  0  0  0  0  0  0  0  0  0  0  0
   -6.2671   35.4557   -4.8872 S   0  0  0  0  0  0  0  0  0  0  0  0
 10 11  1  0  0  0
 11 12  1  0  0  0
 11 17  2  0  0  0
 12 13  1  0  0  0
 12 14  2  0  0  0
 14  1  1  0  0  0
 14 15  1  0  0  0
  1  2  1  0  0  0
  1  8  2  0  0  0
  2  3  1  0  0  0
  2  7  1  0  0  0
  3 20  1  0  0  0
  3  4  1  0  0  0
 20 21  1  0  0  0
 20 22  2  0  0  0
 21 24  1  0  0  0
 24 25  1  0  0  0
 25 26  1  0  0  0
 25 30  2  0  0  0
 26 27  2  0  0  0
 27 28  1  0  0  0
 28 31  1  0  0  0
 28 29  2  0  0  0
 31 32  2  0  0  0
 31 36  1  0  0  0
 32 33  1  0  0  0
 32 34  1  0  0  0
 34 35  2  0  0  0
 35 36  1  0  0  0
 29 30  1  0  0  0
  4  5  1  0  0  0
  5  6  1  0  0  0
  5  7  1  0  0  0
 15 16  2  0  0  0
 16 17  1  0  0  0
 10 18  1  0  0  0
 10 19  1  0  0  0
 21 23  1  0  0  0
  6  9  1  0  0  0
M  END
> <minimizedAffinity>
-7.43518

$$$$
4B9K_TG0_C_1203


 36 39  0  0  0  0  0  0  0  0999 V2000
   -5.9841   36.3336    6.4449 C   0  0  0  0  0  0  0  0  0  0  0  0
   -5.2345   37.1078    5.4730 N   0  0  0  0  0  0  0  0  0  0  0  0
   -5.5761   37.2249    4.0591 C   0  0  0  0  0  0  0  0  0  0  0  0
   -4.4945   38.0139    3.4007 C   0  0  0  0  0  0  0  0  0  0  0  0
   -3.9757   38.8052    4.5306 C   0  0  0  0  0  0  0  0  0  0  0  0
   -4.7741   39.9322    4.7493 O   0  0  0  0  0  0  0  0  0  0  0  0
   -4.0205   37.8971    5.7313 C   0  0  0  0  0  0  0  0  0  0  0  0
   -7.0140   35.7327    6.1280 O   0  0  0  0  0  0  0  0  0  0  0  0
   -5.6853   39.6529    4.9299 H   0  0  0  0  0  0  0  0  0  0  0  0
   -3.1803   34.4256   10.2102 N   0  0  0  0  0  0  0  0  0  0  0  0
   -4.1223   35.3672    9.6522 C   0  0  0  0  0  0  0  0  0  0  0  0
   -4.5404   35.3245    8.2961 C   0  0  0  0  0  0  0  0  0  0  0  0
   -4.0488   34.2541    7.3588 C   0  0  0  0  0  0  0  0  0  0  0  0
   -5.4793   36.3020    7.8708 C   0  0  0  0  0  0  0  0  0  0  0  0
   -5.9225   37.3192    8.7251 C   0  0  0  0  0  0  0  0  0  0  0  0
   -5.5069   37.3273   10.0587 C   0  0  0  0  0  0  0  0  0  0  0  0
   -4.5746   36.3808   10.4940 C   0  0  0  0  0  0  0  0  0  0  0  0
   -2.8311   33.6912    9.6553 H   0  0  0  0  0  0  0  0  0  0  0  0
   -2.8872   34.5182   11.1455 H   0  0  0  0  0  0  0  0  0  0  0  0
   -5.6422   35.8693    3.3654 C   0  0  0  0  0  0  0  0  0  0  0  0
   -6.9120   35.4385    2.8412 N   0  0  0  0  0  0  0  0  0  0  0  0
   -4.6367   35.1616    3.2173 O   0  0  0  0  0  0  0  0  0  0  0  0
   -7.7269   35.9785    2.9571 H   0  0  0  0  0  0  0  0  0  0  0  0
   -6.9350   34.1711    2.1336 C   0  0  0  0  0  0  0  0  0  0  0  0
   -7.1344   34.4553    0.6459 C   0  0  0  0  0  0  0  0  0  0  0  0
   -7.7521   33.4720   -0.1507 C   0  0  0  0  0  0  0  0  0  0  0  0
   -7.9618   33.7418   -1.5104 C   0  0  0  0  0  0  0  0  0  0  0  0
   -7.5439   34.9641   -2.0742 C   0  0  0  0  0  0  0  0  0  0  0  0
   -6.8936   35.9227   -1.2884 C   0  0  0  0  0  0  0  0  0  0  0  0
   -6.7409   35.6879    0.0793 C   0  0  0  0  0  0  0  0  0  0  0  0
   -7.8364   35.2798   -3.5221 C   0  0  0  0  0  0  0  0  0  0  0  0
   -7.0929   34.7737   -4.6452 C   0  0  0  0  0  0  0  0  0  0  0  0
   -5.8617   33.9165   -4.6277 C   0  0  0  0  0  0  0  0  0  0  0  0
   -7.7106   35.2545   -5.8895 N   0  0  0  0  0  0  0  0  0  0  0  0
   -8.8459   36.0108   -5.6587 C   0  0  0  0  0  0  0  0  0  0  0  0
   -9.1014   36.1358   -4.0583 S   0  0  0  0  0  0  0  0  0  0  0  0
 10 11  1  0  0  0
 11 12  1  0  0  0
 11 17  2  0  0  0
 12 13  1  0  0  0
 12 14  2  0  0  0
 14  1  1  0  0  0
 14 15  1  0  0  0
  1  2  1  0  0  0
  1  8  2  0  0  0
  2  3  1  0  0  0
  2  7  1  0  0  0
  3 20  1  0  0  0
  3  4  1  0  0  0
 20 21  1  0  0  0
 20 22  2  0  0  0
 21 24  1  0  0  0
 24 25  1  0  0  0
 25 26  1  0  0  0
 25 30  2  0  0  0
 26 27  2  0  0  0
 27 28  1  0  0  0
 28 31  1  0  0  0
 28 29  2  0  0  0
 31 32  2  0  0  0
 31 36  1  0  0  0
 32 33  1  0  0  0
 32 34  1  0  0  0
 34 35  2  0  0  0
 35 36  1  0  0  0
 29 30  1  0  0  0
  4  5  1  0  0  0
  5  6  1  0  0  0
  5  7  1  0  0  0
 15 16  2  0  0  0
 16 17  1  0  0  0
 10 18  1  0  0  0
 10 19  1  0  0  0
 21 23  1  0  0  0
  6  9  1  0  0  0
M  END
> <minimizedAffinity>
-7.43080

$$$$
4B9K_TG0_C_1203


 36 39  0  0  0  0  0  0  0  0999 V2000
   -5.2409   35.2939    6.8965 C   0  0  0  0  0  0  0  0  0  0  0  0
   -5.4688   36.6832    7.2478 N   0  0  0  0  0  0  0  0  0  0  0  0
   -5.8672   37.7257    6.3074 C   0  0  0  0  0  0  0  0  0  0  0  0
   -5.8840   39.0183    7.0523 C   0  0  0  0  0  0  0  0  0  0  0  0
   -6.1186   38.5610    8.4335 C   0  0  0  0  0  0  0  0  0  0  0  0
   -7.4803   38.3272    8.6495 O   0  0  0  0  0  0  0  0  0  0  0  0
   -5.3419   37.2797    8.5864 C   0  0  0  0  0  0  0  0  0  0  0  0
   -5.4099   34.8889    5.7434 O   0  0  0  0  0  0  0  0  0  0  0  0
   -7.7977   37.6607    8.0203 H   0  0  0  0  0  0  0  0  0  0  0  0
   -5.4016   30.8790    9.3789 N   0  0  0  0  0  0  0  0  0  0  0  0
   -4.9083   32.2183    9.1585 C   0  0  0  0  0  0  0  0  0  0  0  0
   -5.3682   33.0420    8.0977 C   0  0  0  0  0  0  0  0  0  0  0  0
   -6.4419   32.5741    7.1522 C   0  0  0  0  0  0  0  0  0  0  0  0
   -4.8108   34.3445    7.9932 C   0  0  0  0  0  0  0  0  0  0  0  0
   -3.7919   34.7811    8.8490 C   0  0  0  0  0  0  0  0  0  0  0  0
   -3.3702   33.9555    9.8938 C   0  0  0  0  0  0  0  0  0  0  0  0
   -3.8982   32.6659   10.0069 C   0  0  0  0  0  0  0  0  0  0  0  0
   -6.1152   30.5167    8.8056 H   0  0  0  0  0  0  0  0  0  0  0  0
   -5.0242   30.3283   10.1025 H   0  0  0  0  0  0  0  0  0  0  0  0
   -4.8806   37.8732    5.1550 C   0  0  0  0  0  0  0  0  0  0  0  0
   -5.2877   37.4139    3.8526 N   0  0  0  0  0  0  0  0  0  0  0  0
   -3.7711   38.4017    5.3084 O   0  0  0  0  0  0  0  0  0  0  0  0
   -6.1597   36.9801    3.7089 H   0  0  0  0  0  0  0  0  0  0  0  0
   -4.3529   37.6198    2.7613 C   0  0  0  0  0  0  0  0  0  0  0  0
   -4.9673   37.0425    1.4873 C   0  0  0  0  0  0  0  0  0  0  0  0
   -4.4141   35.8662    0.9459 C   0  0  0  0  0  0  0  0  0  0  0  0
   -4.9941   35.3187   -0.2072 C   0  0  0  0  0  0  0  0  0  0  0  0
   -6.0958   35.9443   -0.8249 C   0  0  0  0  0  0  0  0  0  0  0  0
   -6.6176   37.1355   -0.3074 C   0  0  0  0  0  0  0  0  0  0  0  0
   -6.0871   37.6499    0.8771 C   0  0  0  0  0  0  0  0  0  0  0  0
   -6.7623   35.3125   -2.0242 C   0  0  0  0  0  0  0  0  0  0  0  0
   -7.6155   34.1548   -1.9815 C   0  0  0  0  0  0  0  0  0  0  0  0
   -7.9580   33.3025   -0.7952 C   0  0  0  0  0  0  0  0  0  0  0  0
   -8.1188   33.8757   -3.3342 N   0  0  0  0  0  0  0  0  0  0  0  0
   -7.6867   34.8066   -4.2620 C   0  0  0  0  0  0  0  0  0  0  0  0
   -6.7292   35.8991   -3.5326 S   0  0  0  0  0  0  0  0  0  0  0  0
 10 11  1  0  0  0
 11 12  1  0  0  0
 11 17  2  0  0  0
 12 13  1  0  0  0
 12 14  2  0  0  0
 14  1  1  0  0  0
 14 15  1  0  0  0
  1  2  1  0  0  0
  1  8  2  0  0  0
  2  3  1  0  0  0
  2  7  1  0  0  0
  3 20  1  0  0  0
  3  4  1  0  0  0
 20 21  1  0  0  0
 20 22  2  0  0  0
 21 24  1  0  0  0
 24 25  1  0  0  0
 25 26  1  0  0  0
 25 30  2  0  0  0
 26 27  2  0  0  0
 27 28  1  0  0  0
 28 31  1  0  0  0
 28 29  2  0  0  0
 31 32  2  0  0  0
 31 36  1  0  0  0
 32 33  1  0  0  0
 32 34  1  0  0  0
 34 35  2  0  0  0
 35 36  1  0  0  0
 29 30  1  0  0  0
  4  5  1  0  0  0
  5  6  1  0  0  0
  5  7  1  0  0  0
 15 16  2  0  0  0
 16 17  1  0  0  0
 10 18  1  0  0  0
 10 19  1  0  0  0
 21 23  1  0  0  0
  6  9  1  0  0  0
M  END
> <minimizedAffinity>
-7.02050

$$$$
4B9K_TG0_C_1203


 36 39  0  0  0  0  0  0  0  0999 V2000
   -4.9132   34.9788   -1.4345 C   0  0  0  0  0  0  0  0  0  0  0  0
   -5.8917   34.4977   -0.4770 N   0  0  0  0  0  0  0  0  0  0  0  0
   -6.5688   35.3305    0.5119 C   0  0  0  0  0  0  0  0  0  0  0  0
   -7.4022   34.4301    1.3607 C   0  0  0  0  0  0  0  0  0  0  0  0
   -7.6437   33.3005    0.4455 C   0  0  0  0  0  0  0  0  0  0  0  0
   -8.6999   33.5895   -0.4243 O   0  0  0  0  0  0  0  0  0  0  0  0
   -6.3677   33.1135   -0.3324 C   0  0  0  0  0  0  0  0  0  0  0  0
   -4.6090   36.1730   -1.4942 O   0  0  0  0  0  0  0  0  0  0  0  0
   -8.4912   34.3895   -0.9317 H   0  0  0  0  0  0  0  0  0  0  0  0
   -4.8549   32.1584   -5.6443 N   0  0  0  0  0  0  0  0  0  0  0  0
   -4.2900   32.6393   -4.4053 C   0  0  0  0  0  0  0  0  0  0  0  0
   -4.9462   33.5886   -3.5784 C   0  0  0  0  0  0  0  0  0  0  0  0
   -6.3074   34.1256   -3.9313 C   0  0  0  0  0  0  0  0  0  0  0  0
   -4.2897   33.9749   -2.3793 C   0  0  0  0  0  0  0  0  0  0  0  0
   -3.0117   33.5039   -2.0540 C   0  0  0  0  0  0  0  0  0  0  0  0
   -2.3966   32.5585   -2.8779 C   0  0  0  0  0  0  0  0  0  0  0  0
   -3.0210   32.1739   -4.0682 C   0  0  0  0  0  0  0  0  0  0  0  0
   -5.7491   32.4582   -5.9266 H   0  0  0  0  0  0  0  0  0  0  0  0
   -4.3458   31.5309   -6.2066 H   0  0  0  0  0  0  0  0  0  0  0  0
   -5.5886   36.0499    1.4312 C   0  0  0  0  0  0  0  0  0  0  0  0
   -4.7343   35.2492    2.2689 N   0  0  0  0  0  0  0  0  0  0  0  0
   -5.4919   37.2845    1.4450 O   0  0  0  0  0  0  0  0  0  0  0  0
   -4.8012   34.2671    2.2835 H   0  0  0  0  0  0  0  0  0  0  0  0
   -3.7696   35.9570    3.0909 C   0  0  0  0  0  0  0  0  0  0  0  0
   -3.8522   35.4035    4.5124 C   0  0  0  0  0  0  0  0  0  0  0  0
   -5.1107   35.3491    5.1420 C   0  0  0  0  0  0  0  0  0  0  0  0
   -5.1932   34.8152    6.4357 C   0  0  0  0  0  0  0  0  0  0  0  0
   -4.0371   34.3614    7.1019 C   0  0  0  0  0  0  0  0  0  0  0  0
   -2.7821   34.4545    6.4891 C   0  0  0  0  0  0  0  0  0  0  0  0
   -2.7017   34.9236    5.1767 C   0  0  0  0  0  0  0  0  0  0  0  0
   -4.1405   33.7211    8.4662 C   0  0  0  0  0  0  0  0  0  0  0  0
   -3.6547   34.3003    9.6903 C   0  0  0  0  0  0  0  0  0  0  0  0
   -2.8967   35.5828    9.8688 C   0  0  0  0  0  0  0  0  0  0  0  0
   -3.9882   33.4101   10.8115 N   0  0  0  0  0  0  0  0  0  0  0  0
   -4.7065   32.2983   10.4088 C   0  0  0  0  0  0  0  0  0  0  0  0
   -4.9189   32.3410    8.7978 S   0  0  0  0  0  0  0  0  0  0  0  0
 10 11  1  0  0  0
 11 12  1  0  0  0
 11 17  2  0  0  0
 12 13  1  0  0  0
 12 14  2  0  0  0
 14  1  1  0  0  0
 14 15  1  0  0  0
  1  2  1  0  0  0
  1  8  2  0  0  0
  2  3  1  0  0  0
  2  7  1  0  0  0
  3 20  1  0  0  0
  3  4  1  0  0  0
 20 21  1  0  0  0
 20 22  2  0  0  0
 21 24  1  0  0  0
 24 25  1  0  0  0
 25 26  1  0  0  0
 25 30  2  0  0  0
 26 27  2  0  0  0
 27 28  1  0  0  0
 28 31  1  0  0  0
 28 29  2  0  0  0
 31 32  2  0  0  0
 31 36  1  0  0  0
 32 33  1  0  0  0
 32 34  1  0  0  0
 34 35  2  0  0  0
 35 36  1  0  0  0
 29 30  1  0  0  0
  4  5  1  0  0  0
  5  6  1  0  0  0
  5  7  1  0  0  0
 15 16  2  0  0  0
 16 17  1  0  0  0
 10 18  1  0  0  0
 10 19  1  0  0  0
 21 23  1  0  0  0
  6  9  1  0  0  0
M  END
> <minimizedAffinity>
-6.89255

$$$$
