4B9K_TG0_C_1203
  RCSB PDB12061711483D
Coordinates from PDB:4B9K:C:1203 Model:1 without hydrogens
 32 35  0  0  0  0            999 V2000
   -4.3610   32.9010   -4.3070   N 0  0  0  0  0  0  0  0  0  0  0  0
   -5.5000   33.6220   -3.7890   C 0  0  0  0  0  0  0  0  0  0  0  0
   -5.6260   33.9800   -2.4210   C 0  0  0  0  0  0  0  0  0  0  0  0
   -4.5440   33.6590   -1.4250   C 0  0  0  0  0  0  0  0  0  0  0  0
   -6.7910   34.6970   -2.0380   C 0  0  0  0  0  0  0  0  0  0  0  0
   -7.0110   35.1230   -0.6030   C 0  0  0  0  0  0  0  0  0  0  0  0
   -7.4550   34.1190    0.3460   N 0  0  0  0  0  0  0  0  0  0  0  0
   -7.6940   34.3620    1.7650   C 0  0  0  0  0  0  0  0  0  0  0  0
   -6.4610   34.9100    2.4740   C 0  0  0  0  0  0  0  0  0  0  0  0
   -6.6590   35.8470    3.5490   N 0  0  0  0  0  0  0  0  0  0  0  0
   -5.4720   36.3080    4.2460   C 0  0  0  0  0  0  0  0  0  0  0  0
   -5.2330   35.3920    5.4450   C 0  0  0  0  0  0  0  0  0  0  0  0
   -3.9810   35.4370    6.0880   C 0  0  0  0  0  0  0  0  0  0  0  0
   -3.7690   34.6180    7.2060   C 0  0  0  0  0  0  0  0  0  0  0  0
   -4.7810   33.7510    7.6650   C 0  0  0  0  0  0  0  0  0  0  0  0
   -4.5740   32.9240    8.9120   C 0  0  0  0  0  0  0  0  0  0  0  0
   -4.0370   33.4180   10.1520   C 0  0  0  0  0  0  0  0  0  0  0  0
   -3.5100   34.7910   10.4490   C 0  0  0  0  0  0  0  0  0  0  0  0
   -4.0420   32.3350   11.1460   N 0  0  0  0  0  0  0  0  0  0  0  0
   -4.5930   31.1660   10.6520   C 0  0  0  0  0  0  0  0  0  0  0  0
   -5.0320   31.3830    9.1020   S 0  0  0  0  0  0  0  0  0  0  0  0
   -6.0100   33.6790    6.9990   C 0  0  0  0  0  0  0  0  0  0  0  0
   -6.2510   34.5390    5.9260   C 0  0  0  0  0  0  0  0  0  0  0  0
   -5.3170   34.5450    2.1710   O 0  0  0  0  0  0  0  0  0  0  0  0
   -8.0280   33.0510    2.3940   C 0  0  0  0  0  0  0  0  0  0  0  0
   -8.5680   32.3010    1.2460   C 0  0  0  0  0  0  0  0  0  0  0  0
   -9.9100   32.6300    1.0310   O 0  0  0  0  0  0  0  0  0  0  0  0
   -7.7380   32.7050    0.0560   C 0  0  0  0  0  0  0  0  0  0  0  0
   -6.8350   36.2950   -0.2600   O 0  0  0  0  0  0  0  0  0  0  0  0
   -7.8170   34.9770   -2.9490   C 0  0  0  0  0  0  0  0  0  0  0  0
   -7.6590   34.6270   -4.2920   C 0  0  0  0  0  0  0  0  0  0  0  0
   -6.5250   33.9110   -4.6870   C 0  0  0  0  0  0  0  0  0  0  0  0
  1  2  1  0  0  0  0
  2  3  1  0  0  0  0
  2 32  2  0  0  0  0
  3  4  1  0  0  0  0
  3  5  2  0  0  0  0
  5  6  1  0  0  0  0
  5 30  1  0  0  0  0
  6  7  1  0  0  0  0
  6 29  2  0  0  0  0
  7  8  1  0  0  0  0
  7 28  1  0  0  0  0
  8  9  1  0  0  0  0
  8 25  1  0  0  0  0
  9 10  1  0  0  0  0
  9 24  2  0  0  0  0
 10 11  1  0  0  0  0
 11 12  1  0  0  0  0
 12 13  1  0  0  0  0
 12 23  2  0  0  0  0
 13 14  2  0  0  0  0
 14 15  1  0  0  0  0
 15 16  1  0  0  0  0
 15 22  2  0  0  0  0
 16 17  2  0  0  0  0
 16 21  1  0  0  0  0
 17 18  1  0  0  0  0
 17 19  1  0  0  0  0
 19 20  2  0  0  0  0
 20 21  1  0  0  0  0
 22 23  1  0  0  0  0
 25 26  1  0  0  0  0
 26 27  1  0  0  0  0
 26 28  1  0  0  0  0
 30 31  2  0  0  0  0
 31 32  1  0  0  0  0
A    1
N01
A    2
C02
A    3
C03
A    4
C04
A    5
C05
A    6
C06
A    7
N07
A    8
C08
A    9
C09
A   10
N10
A   11
C11
A   12
C12
A   13
C13
A   14
C14
A   15
C15
A   16
C16
A   17
C17
A   18
C18
A   19
N19
A   20
C20
A   21
S21
A   22
C22
A   23
C23
A   24
O24
A   25
C25
A   26
C26
A   27
O27
A   28
C28
A   29
O29
A   30
C30
A   31
C31
A   32
C32
M  END
>  <InstanceId>
4B9K_TG0_C_1203

>  <ChemCompId>
TG0

>  <PdbId>
4B9K

>  <ChainId>
C

>  <ResidueNumber>
1203

>  <InsertionCode>


>  <Model>
1

>  <AltIds>


>  <MissingHeavyAtoms>
0

>  <ObservedFormula>
C24 N4 O3 S

>  <Name>
(2S,4R)-1-(3-amino-2-methylbenzoyl)-4-hydroxy-N-(4-(4-methylthiazol-5-yl)benzyl)pyrrolidine-2-carboxamide

>  <SystematicName>
(2S,4R)-1-(3-azanyl-2-methyl-phenyl)carbonyl-N-[[4-(4-methyl-1,3-thiazol-5-yl)phenyl]methyl]-4-oxidanyl-pyrrolidine-2-carboxamide

>  <Synonyms>


>  <Type>
non-polymer

>  <Formula>
C24 H26 N4 O3 S

>  <MolecularWeight>
450.553

>  <ModifiedDate>
2014-09-05

>  <Parent>


>  <OneLetterCode>


>  <SubcomponentList>


>  <AmbiguousFlag>
N

>  <InChI>
InChI=1S/C24H26N4O3S/c1-14-19(4-3-5-20(14)25)24(31)28-12-18(29)10-21(28)23(30)26-11-16-6-8-17(9-7-16)22-15(2)27-13-32-22/h3-9,13,18,21,29H,10-12,25H2,1-2H3,(H,26,30)/t18-,21+/m1/s1

>  <InChIKey>
AFUSGLDYQSDIEU-NQIIRXRSSA-N

>  <SMILES>
Cc1c(cccc1N)C(=O)N2C[C@@H](C[C@H]2C(=O)NCc3ccc(cc3)c4c(ncs4)C)O

$$$$
