2XAB_VHD_A_1224
  RCSB PDB12061707243D
Coordinates from PDB:2XAB:A:1224 Model:1 without hydrogens
 22 24  0  0  0  0            999 V2000
    1.5700   31.0780    0.7170   C 0  0  0  0  0  0  0  0  0  0  0  0
    1.2980   32.4770    1.2660   C 0  0  0  0  0  0  0  0  0  0  0  0
    2.3800   33.4510    0.8000   C 0  0  0  0  0  0  0  0  0  0  0  0
   -0.1020   32.9390    0.8900   C 0  0  0  0  0  0  0  0  0  0  0  0
   -0.3330   33.5240   -0.3600   C 0  0  0  0  0  0  0  0  0  0  0  0
   -1.6150   33.9090   -0.7520   C 0  0  0  0  0  0  0  0  0  0  0  0
   -1.7930   34.5850   -2.0730   C 0  0  0  0  0  0  0  0  0  0  0  0
   -2.3910   34.0190   -2.9760   O 0  0  0  0  0  0  0  0  0  0  0  0
   -1.3150   35.8650   -2.2110   N 0  0  0  0  0  0  0  0  0  0  0  0
   -1.4720   36.6600   -3.4400   C 0  0  0  0  0  0  0  0  0  0  0  0
   -1.2560   38.0640   -2.9470   C 0  0  0  0  0  0  0  0  0  0  0  0
   -1.3730   39.2700   -3.6300   C 0  0  0  0  0  0  0  0  0  0  0  0
   -1.1180   40.4610   -2.9790   C 0  0  0  0  0  0  0  0  0  0  0  0
   -0.7460   40.4580   -1.6500   C 0  0  0  0  0  0  0  0  0  0  0  0
   -0.6220   39.2650   -0.9650   C 0  0  0  0  0  0  0  0  0  0  0  0
   -0.8740   38.0600   -1.6150   C 0  0  0  0  0  0  0  0  0  0  0  0
   -0.7830   36.6550   -1.0930   C 0  0  0  0  0  0  0  0  0  0  0  0
   -2.7060   33.6740    0.1160   C 0  0  0  0  0  0  0  0  0  0  0  0
   -3.9690   34.0230   -0.2640   O 0  0  0  0  0  0  0  0  0  0  0  0
   -2.5010   33.0620    1.3460   C 0  0  0  0  0  0  0  0  0  0  0  0
   -1.2140   32.6970    1.7400   C 0  0  0  0  0  0  0  0  0  0  0  0
   -1.0260   32.1340    2.9650   O 0  0  0  0  0  0  0  0  0  0  0  0
  1  2  1  0  0  0  0
  2  3  1  0  0  0  0
  2  4  1  0  0  0  0
  4  5  1  0  0  0  0
  4 21  2  0  0  0  0
  5  6  2  0  0  0  0
  6  7  1  0  0  0  0
  6 18  1  0  0  0  0
  7  8  2  0  0  0  0
  7  9  1  0  0  0  0
  9 10  1  0  0  0  0
  9 17  1  0  0  0  0
 10 11  1  0  0  0  0
 11 12  1  0  0  0  0
 11 16  2  0  0  0  0
 12 13  2  0  0  0  0
 13 14  1  0  0  0  0
 14 15  2  0  0  0  0
 15 16  1  0  0  0  0
 16 17  1  0  0  0  0
 18 19  1  0  0  0  0
 18 20  2  0  0  0  0
 20 21  1  0  0  0  0
 21 22  1  0  0  0  0
A    1
C1
A    2
C2
A    3
C3
A    4
C4
A    5
C5
A    6
C6
A    7
C7
A    8
O8
A    9
N9
A   10
C10
A   11
C11
A   12
C12
A   13
C13
A   14
C14
A   15
C15
A   16
C16
A   17
C17
A   18
C18
A   19
O19
A   20
C20
A   21
C21
A   22
O22
M  END
>  <InstanceId>
2XAB_VHD_A_1224

>  <ChemCompId>
VHD

>  <PdbId>
2XAB

>  <ChainId>
A

>  <ResidueNumber>
1224

>  <InsertionCode>


>  <Model>
1

>  <AltIds>


>  <MissingHeavyAtoms>
0

>  <ObservedFormula>
C18 N O3

>  <Name>
4-(1,3-DIHYDRO-2H-ISOINDOL-2-YLCARBONYL)-6-(1-METHYLETHYL)BENZENE-1,3-DIOL

>  <SystematicName>
1,3-dihydroisoindol-2-yl-(2,4-dihydroxy-5-propan-2-yl-phenyl)methanone

>  <Synonyms>


>  <Type>
non-polymer

>  <Formula>
C18 H19 N O3

>  <MolecularWeight>
297.348

>  <ModifiedDate>
2011-06-04

>  <Parent>


>  <OneLetterCode>


>  <SubcomponentList>


>  <AmbiguousFlag>
N

>  <InChI>
InChI=1S/C18H19NO3/c1-11(2)14-7-15(17(21)8-16(14)20)18(22)19-9-12-5-3-4-6-13(12)10-19/h3-8,11,20-21H,9-10H2,1-2H3

>  <InChIKey>
DPKGPEGXWFTAIR-UHFFFAOYSA-N

>  <SMILES>
CC(C)c1cc(c(cc1O)O)C(=O)N2Cc3ccccc3C2

$$$$
