2XAB_VHD_A_1224


 24 26  0  0  0  0  0  0  0  0999 V2000
   -0.1831   32.7559    0.8334 C   0  0  0  0  0  0  0  0  0  0  0  0
   -0.3612   33.3722   -0.4102 C   0  0  0  0  0  0  0  0  0  0  0  0
   -1.5943   33.9083   -0.7811 C   0  0  0  0  0  0  0  0  0  0  0  0
   -2.6929   33.7980    0.1019 C   0  0  0  0  0  0  0  0  0  0  0  0
   -3.9111   34.2961   -0.2575 O   0  0  0  0  0  0  0  0  0  0  0  0
   -2.5441   33.1581    1.3258 C   0  0  0  0  0  0  0  0  0  0  0  0
   -1.3037   32.6412    1.6988 C   0  0  0  0  0  0  0  0  0  0  0  0
   -1.1660   32.0520    2.9181 O   0  0  0  0  0  0  0  0  0  0  0  0
   -4.0158   34.7284   -1.0822 H   0  0  0  0  0  0  0  0  0  0  0  0
   -0.3368   31.7016    3.1782 H   0  0  0  0  0  0  0  0  0  0  0  0
   -1.7100   34.6092   -2.0961 C   0  0  0  0  0  0  0  0  0  0  0  0
   -2.2246   34.0437   -3.0493 O   0  0  0  0  0  0  0  0  0  0  0  0
   -1.2734   35.9089   -2.1737 N   0  0  0  0  0  0  0  0  0  0  0  0
   -1.3789   36.7272   -3.3929 C   0  0  0  0  0  0  0  0  0  0  0  0
   -1.2502   38.1258   -2.8560 C   0  0  0  0  0  0  0  0  0  0  0  0
   -1.3678   39.3430   -3.5189 C   0  0  0  0  0  0  0  0  0  0  0  0
   -1.2025   40.5264   -2.8264 C   0  0  0  0  0  0  0  0  0  0  0  0
   -0.9196   40.5048   -1.4758 C   0  0  0  0  0  0  0  0  0  0  0  0
   -0.7957   39.3009   -0.8102 C   0  0  0  0  0  0  0  0  0  0  0  0
   -0.9575   38.1036   -1.5017 C   0  0  0  0  0  0  0  0  0  0  0  0
   -0.8475   36.6906   -1.0055 C   0  0  0  0  0  0  0  0  0  0  0  0
    1.3251   30.7828    0.4856 C   0  0  0  0  0  0  0  0  0  0  0  0
    1.1578   32.1295    1.1862 C   0  0  0  0  0  0  0  0  0  0  0  0
    2.3357   33.0480    0.8616 C   0  0  0  0  0  0  0  0  0  0  0  0
 22 23  1  0  0  0
 23 24  1  0  0  0
 23  1  1  0  0  0
  1  2  1  0  0  0
  1  7  2  0  0  0
  2  3  2  0  0  0
  3 11  1  0  0  0
  3  4  1  0  0  0
 11 12  2  0  0  0
 11 13  1  0  0  0
 13 14  1  0  0  0
 13 21  1  0  0  0
 14 15  1  0  0  0
 15 16  1  0  0  0
 15 20  2  0  0  0
 16 17  2  0  0  0
 17 18  1  0  0  0
 18 19  2  0  0  0
 19 20  1  0  0  0
 20 21  1  0  0  0
  4  5  1  0  0  0
  4  6  2  0  0  0
  6  7  1  0  0  0
  7  8  1  0  0  0
  5  9  1  0  0  0
  8 10  1  0  0  0
M  END
> <minimizedAffinity>
-10.47003

$$$$
2XAB_VHD_A_1224


 24 26  0  0  0  0  0  0  0  0999 V2000
   -0.0417   33.6267    0.8122 C   0  0  0  0  0  0  0  0  0  0  0  0
   -0.4677   34.9437    0.6067 C   0  0  0  0  0  0  0  0  0  0  0  0
    0.4419   35.9607    0.3171 C   0  0  0  0  0  0  0  0  0  0  0  0
    1.8227   35.6619    0.2626 C   0  0  0  0  0  0  0  0  0  0  0  0
    2.7262   36.6511    0.0045 O   0  0  0  0  0  0  0  0  0  0  0  0
    2.2673   34.3673    0.4990 C   0  0  0  0  0  0  0  0  0  0  0  0
    1.3511   33.3513    0.7690 C   0  0  0  0  0  0  0  0  0  0  0  0
    1.8010   32.0807    0.9595 O   0  0  0  0  0  0  0  0  0  0  0  0
    2.4305   37.5257   -0.1555 H   0  0  0  0  0  0  0  0  0  0  0  0
    1.1935   31.3909    1.1415 H   0  0  0  0  0  0  0  0  0  0  0  0
   -0.0759   37.3363    0.0464 C   0  0  0  0  0  0  0  0  0  0  0  0
   -0.0863   38.1739    0.9362 O   0  0  0  0  0  0  0  0  0  0  0  0
   -0.4804   37.6321   -1.2322 N   0  0  0  0  0  0  0  0  0  0  0  0
   -0.9601   38.9619   -1.6426 C   0  0  0  0  0  0  0  0  0  0  0  0
   -0.7994   38.9169   -3.1370 C   0  0  0  0  0  0  0  0  0  0  0  0
   -0.9977   39.9205   -4.0794 C   0  0  0  0  0  0  0  0  0  0  0  0
   -0.7974   39.6591   -5.4206 C   0  0  0  0  0  0  0  0  0  0  0  0
   -0.4009   38.4020   -5.8295 C   0  0  0  0  0  0  0  0  0  0  0  0
   -0.2067   37.3976   -4.9014 C   0  0  0  0  0  0  0  0  0  0  0  0
   -0.4097   37.6522   -3.5479 C   0  0  0  0  0  0  0  0  0  0  0  0
   -0.2868   36.7264   -2.3721 C   0  0  0  0  0  0  0  0  0  0  0  0
   -0.8470   32.0940    2.6263 C   0  0  0  0  0  0  0  0  0  0  0  0
   -1.0511   32.5505    1.1832 C   0  0  0  0  0  0  0  0  0  0  0  0
   -2.4949   33.0038    0.9678 C   0  0  0  0  0  0  0  0  0  0  0  0
 22 23  1  0  0  0
 23 24  1  0  0  0
 23  1  1  0  0  0
  1  2  1  0  0  0
  1  7  2  0  0  0
  2  3  2  0  0  0
  3 11  1  0  0  0
  3  4  1  0  0  0
 11 12  2  0  0  0
 11 13  1  0  0  0
 13 14  1  0  0  0
 13 21  1  0  0  0
 14 15  1  0  0  0
 15 16  1  0  0  0
 15 20  2  0  0  0
 16 17  2  0  0  0
 17 18  1  0  0  0
 18 19  2  0  0  0
 19 20  1  0  0  0
 20 21  1  0  0  0
  4  5  1  0  0  0
  4  6  2  0  0  0
  6  7  1  0  0  0
  7  8  1  0  0  0
  5  9  1  0  0  0
  8 10  1  0  0  0
M  END
> <minimizedAffinity>
-7.88393

$$$$
2XAB_VHD_A_1224


 24 26  0  0  0  0  0  0  0  0999 V2000
   -0.4816   32.9925    0.6824 C   0  0  0  0  0  0  0  0  0  0  0  0
    0.4221   33.8204    0.0070 C   0  0  0  0  0  0  0  0  0  0  0  0
    0.0268   35.0564   -0.5043 C   0  0  0  0  0  0  0  0  0  0  0  0
   -1.3194   35.4660   -0.3664 C   0  0  0  0  0  0  0  0  0  0  0  0
   -1.7261   36.6616   -0.8828 O   0  0  0  0  0  0  0  0  0  0  0  0
   -2.2388   34.6418    0.2697 C   0  0  0  0  0  0  0  0  0  0  0  0
   -1.8328   33.4157    0.7956 C   0  0  0  0  0  0  0  0  0  0  0  0
   -2.7382   32.6380    1.4502 O   0  0  0  0  0  0  0  0  0  0  0  0
   -1.1090   37.2205   -1.3127 H   0  0  0  0  0  0  0  0  0  0  0  0
   -2.4754   31.8125    1.8072 H   0  0  0  0  0  0  0  0  0  0  0  0
    1.0494   35.9254   -1.1623 C   0  0  0  0  0  0  0  0  0  0  0  0
    1.0422   36.0699   -2.3757 O   0  0  0  0  0  0  0  0  0  0  0  0
    1.9460   36.5861   -0.3590 N   0  0  0  0  0  0  0  0  0  0  0  0
    2.9676   37.5114   -0.8760 C   0  0  0  0  0  0  0  0  0  0  0  0
    3.3275   38.3113    0.3453 C   0  0  0  0  0  0  0  0  0  0  0  0
    4.1741   39.4081    0.4676 C   0  0  0  0  0  0  0  0  0  0  0  0
    4.3716   39.9951    1.7019 C   0  0  0  0  0  0  0  0  0  0  0  0
    3.7305   39.4951    2.8171 C   0  0  0  0  0  0  0  0  0  0  0  0
    2.8921   38.4030    2.7064 C   0  0  0  0  0  0  0  0  0  0  0  0
    2.6905   37.8035    1.4663 C   0  0  0  0  0  0  0  0  0  0  0  0
    1.8561   36.6079    1.1068 C   0  0  0  0  0  0  0  0  0  0  0  0
    1.1600   31.1224    0.3712 C   0  0  0  0  0  0  0  0  0  0  0  0
   -0.0354   31.6250    1.1781 C   0  0  0  0  0  0  0  0  0  0  0  0
    0.2917   31.6225    2.6712 C   0  0  0  0  0  0  0  0  0  0  0  0
 22 23  1  0  0  0
 23 24  1  0  0  0
 23  1  1  0  0  0
  1  2  1  0  0  0
  1  7  2  0  0  0
  2  3  2  0  0  0
  3 11  1  0  0  0
  3  4  1  0  0  0
 11 12  2  0  0  0
 11 13  1  0  0  0
 13 14  1  0  0  0
 13 21  1  0  0  0
 14 15  1  0  0  0
 15 16  1  0  0  0
 15 20  2  0  0  0
 16 17  2  0  0  0
 17 18  1  0  0  0
 18 19  2  0  0  0
 19 20  1  0  0  0
 20 21  1  0  0  0
  4  5  1  0  0  0
  4  6  2  0  0  0
  6  7  1  0  0  0
  7  8  1  0  0  0
  5  9  1  0  0  0
  8 10  1  0  0  0
M  END
> <minimizedAffinity>
-7.82742

$$$$
2XAB_VHD_A_1224


 24 26  0  0  0  0  0  0  0  0999 V2000
   -0.5004   33.1733    0.6522 C   0  0  0  0  0  0  0  0  0  0  0  0
   -0.0374   34.4932    0.6145 C   0  0  0  0  0  0  0  0  0  0  0  0
    1.3274   34.7809    0.6203 C   0  0  0  0  0  0  0  0  0  0  0  0
    2.2597   33.7209    0.6988 C   0  0  0  0  0  0  0  0  0  0  0  0
    3.5972   33.9881    0.7299 O   0  0  0  0  0  0  0  0  0  0  0  0
    1.8180   32.4060    0.7729 C   0  0  0  0  0  0  0  0  0  0  0  0
    0.4524   32.1242    0.7472 C   0  0  0  0  0  0  0  0  0  0  0  0
    0.0382   30.8279    0.7811 O   0  0  0  0  0  0  0  0  0  0  0  0
    3.8993   34.8737    0.6802 H   0  0  0  0  0  0  0  0  0  0  0  0
   -0.8771   30.6280    0.7643 H   0  0  0  0  0  0  0  0  0  0  0  0
    1.7648   36.2062    0.5165 C   0  0  0  0  0  0  0  0  0  0  0  0
    2.3859   36.7254    1.4319 O   0  0  0  0  0  0  0  0  0  0  0  0
    1.4940   36.8797   -0.6493 N   0  0  0  0  0  0  0  0  0  0  0  0
    1.9159   38.2677   -0.8994 C   0  0  0  0  0  0  0  0  0  0  0  0
    1.8402   38.3639   -2.3980 C   0  0  0  0  0  0  0  0  0  0  0  0
    2.2121   39.4082   -3.2381 C   0  0  0  0  0  0  0  0  0  0  0  0
    2.0479   39.2888   -4.6042 C   0  0  0  0  0  0  0  0  0  0  0  0
    1.5143   38.1340   -5.1393 C   0  0  0  0  0  0  0  0  0  0  0  0
    1.1372   37.0938   -4.3125 C   0  0  0  0  0  0  0  0  0  0  0  0
    1.2963   37.2077   -2.9342 C   0  0  0  0  0  0  0  0  0  0  0  0
    0.9421   36.2339   -1.8474 C   0  0  0  0  0  0  0  0  0  0  0  0
   -2.4428   32.6127    2.1360 C   0  0  0  0  0  0  0  0  0  0  0  0
   -1.9950   32.8932    0.7030 C   0  0  0  0  0  0  0  0  0  0  0  0
   -2.8233   34.0271    0.0991 C   0  0  0  0  0  0  0  0  0  0  0  0
 22 23  1  0  0  0
 23 24  1  0  0  0
 23  1  1  0  0  0
  1  2  1  0  0  0
  1  7  2  0  0  0
  2  3  2  0  0  0
  3 11  1  0  0  0
  3  4  1  0  0  0
 11 12  2  0  0  0
 11 13  1  0  0  0
 13 14  1  0  0  0
 13 21  1  0  0  0
 14 15  1  0  0  0
 15 16  1  0  0  0
 15 20  2  0  0  0
 16 17  2  0  0  0
 17 18  1  0  0  0
 18 19  2  0  0  0
 19 20  1  0  0  0
 20 21  1  0  0  0
  4  5  1  0  0  0
  4  6  2  0  0  0
  6  7  1  0  0  0
  7  8  1  0  0  0
  5  9  1  0  0  0
  8 10  1  0  0  0
M  END
> <minimizedAffinity>
-7.67643

$$$$
2XAB_VHD_A_1224


 24 26  0  0  0  0  0  0  0  0999 V2000
    0.2224   38.7963   -3.9312 C   0  0  0  0  0  0  0  0  0  0  0  0
   -0.2546   37.5132   -3.6412 C   0  0  0  0  0  0  0  0  0  0  0  0
   -0.8595   37.2264   -2.4175 C   0  0  0  0  0  0  0  0  0  0  0  0
   -0.9632   38.2423   -1.4397 C   0  0  0  0  0  0  0  0  0  0  0  0
   -1.5304   37.9701   -0.2291 O   0  0  0  0  0  0  0  0  0  0  0  0
   -0.4633   39.5126   -1.6962 C   0  0  0  0  0  0  0  0  0  0  0  0
    0.1231   39.7980   -2.9289 C   0  0  0  0  0  0  0  0  0  0  0  0
    0.5723   41.0585   -3.1780 O   0  0  0  0  0  0  0  0  0  0  0  0
   -1.8688   37.1145   -0.0520 H   0  0  0  0  0  0  0  0  0  0  0  0
    0.9678   41.2605   -4.0031 H   0  0  0  0  0  0  0  0  0  0  0  0
   -1.4055   35.8544   -2.1866 C   0  0  0  0  0  0  0  0  0  0  0  0
   -2.3402   35.4451   -2.8589 O   0  0  0  0  0  0  0  0  0  0  0  0
   -0.7908   35.0669   -1.2443 N   0  0  0  0  0  0  0  0  0  0  0  0
   -1.1960   33.6809   -0.9581 C   0  0  0  0  0  0  0  0  0  0  0  0
    0.0212   33.1226   -0.2741 C   0  0  0  0  0  0  0  0  0  0  0  0
    0.2809   31.8236    0.1497 C   0  0  0  0  0  0  0  0  0  0  0  0
    1.4773   31.5253    0.7718 C   0  0  0  0  0  0  0  0  0  0  0  0
    2.4176   32.5147    0.9753 C   0  0  0  0  0  0  0  0  0  0  0  0
    2.1663   33.8088    0.5628 C   0  0  0  0  0  0  0  0  0  0  0  0
    0.9614   34.1182   -0.0621 C   0  0  0  0  0  0  0  0  0  0  0  0
    0.4592   35.4394   -0.5691 C   0  0  0  0  0  0  0  0  0  0  0  0
    2.3988   38.6566   -5.1692 C   0  0  0  0  0  0  0  0  0  0  0  0
    0.9292   39.0641   -5.2516 C   0  0  0  0  0  0  0  0  0  0  0  0
    0.2493   38.3678   -6.4304 C   0  0  0  0  0  0  0  0  0  0  0  0
 22 23  1  0  0  0
 23 24  1  0  0  0
 23  1  1  0  0  0
  1  2  1  0  0  0
  1  7  2  0  0  0
  2  3  2  0  0  0
  3 11  1  0  0  0
  3  4  1  0  0  0
 11 12  2  0  0  0
 11 13  1  0  0  0
 13 14  1  0  0  0
 13 21  1  0  0  0
 14 15  1  0  0  0
 15 16  1  0  0  0
 15 20  2  0  0  0
 16 17  2  0  0  0
 17 18  1  0  0  0
 18 19  2  0  0  0
 19 20  1  0  0  0
 20 21  1  0  0  0
  4  5  1  0  0  0
  4  6  2  0  0  0
  6  7  1  0  0  0
  7  8  1  0  0  0
  5  9  1  0  0  0
  8 10  1  0  0  0
M  END
> <minimizedAffinity>
-7.61858

$$$$
2XAB_VHD_A_1224


 24 26  0  0  0  0  0  0  0  0999 V2000
    0.3732   34.7143   -0.4312 C   0  0  0  0  0  0  0  0  0  0  0  0
    0.8650   35.6290   -1.3691 C   0  0  0  0  0  0  0  0  0  0  0  0
    0.0834   36.0531   -2.4436 C   0  0  0  0  0  0  0  0  0  0  0  0
   -1.2177   35.5244   -2.6068 C   0  0  0  0  0  0  0  0  0  0  0  0
   -1.9847   35.9115   -3.6666 O   0  0  0  0  0  0  0  0  0  0  0  0
   -1.7096   34.5886   -1.7058 C   0  0  0  0  0  0  0  0  0  0  0  0
   -0.9302   34.1832   -0.6227 C   0  0  0  0  0  0  0  0  0  0  0  0
   -1.4427   33.2949    0.2724 O   0  0  0  0  0  0  0  0  0  0  0  0
   -1.6565   36.5425   -4.2766 H   0  0  0  0  0  0  0  0  0  0  0  0
   -0.9272   33.0161    1.0034 H   0  0  0  0  0  0  0  0  0  0  0  0
    0.6384   37.0780   -3.3793 C   0  0  0  0  0  0  0  0  0  0  0  0
    1.1638   36.7316   -4.4268 O   0  0  0  0  0  0  0  0  0  0  0  0
    0.4878   38.4019   -3.0471 N   0  0  0  0  0  0  0  0  0  0  0  0
    0.9411   39.5088   -3.9052 C   0  0  0  0  0  0  0  0  0  0  0  0
    0.1425   40.6710   -3.3832 C   0  0  0  0  0  0  0  0  0  0  0  0
    0.0645   41.9761   -3.8578 C   0  0  0  0  0  0  0  0  0  0  0  0
   -0.7362   42.8992   -3.2145 C   0  0  0  0  0  0  0  0  0  0  0  0
   -1.4604   42.5299   -2.0992 C   0  0  0  0  0  0  0  0  0  0  0  0
   -1.3851   41.2376   -1.6174 C   0  0  0  0  0  0  0  0  0  0  0  0
   -0.5777   40.3020   -2.2583 C   0  0  0  0  0  0  0  0  0  0  0  0
   -0.3194   38.8643   -1.9105 C   0  0  0  0  0  0  0  0  0  0  0  0
    1.8909   32.8760    0.3475 C   0  0  0  0  0  0  0  0  0  0  0  0
    1.2695   34.2266    0.6973 C   0  0  0  0  0  0  0  0  0  0  0  0
    2.3593   35.2366    1.0564 C   0  0  0  0  0  0  0  0  0  0  0  0
 22 23  1  0  0  0
 23 24  1  0  0  0
 23  1  1  0  0  0
  1  2  1  0  0  0
  1  7  2  0  0  0
  2  3  2  0  0  0
  3 11  1  0  0  0
  3  4  1  0  0  0
 11 12  2  0  0  0
 11 13  1  0  0  0
 13 14  1  0  0  0
 13 21  1  0  0  0
 14 15  1  0  0  0
 15 16  1  0  0  0
 15 20  2  0  0  0
 16 17  2  0  0  0
 17 18  1  0  0  0
 18 19  2  0  0  0
 19 20  1  0  0  0
 20 21  1  0  0  0
  4  5  1  0  0  0
  4  6  2  0  0  0
  6  7  1  0  0  0
  7  8  1  0  0  0
  5  9  1  0  0  0
  8 10  1  0  0  0
M  END
> <minimizedAffinity>
-7.53635

$$$$
2XAB_VHD_A_1224


 24 26  0  0  0  0  0  0  0  0999 V2000
   -0.2914   38.5305   -3.3514 C   0  0  0  0  0  0  0  0  0  0  0  0
    0.4480   37.5603   -2.6658 C   0  0  0  0  0  0  0  0  0  0  0  0
    0.4207   37.4809   -1.2736 C   0  0  0  0  0  0  0  0  0  0  0  0
   -0.3421   38.4184   -0.5398 C   0  0  0  0  0  0  0  0  0  0  0  0
   -0.3589   38.3682    0.8234 O   0  0  0  0  0  0  0  0  0  0  0  0
   -1.0541   39.4106   -1.2016 C   0  0  0  0  0  0  0  0  0  0  0  0
   -1.0380   39.4726   -2.5947 C   0  0  0  0  0  0  0  0  0  0  0  0
   -1.7728   40.4273   -3.2283 O   0  0  0  0  0  0  0  0  0  0  0  0
    0.1201   37.7005    1.2736 H   0  0  0  0  0  0  0  0  0  0  0  0
   -1.7688   40.4774   -4.1640 H   0  0  0  0  0  0  0  0  0  0  0  0
    1.1815   36.3860   -0.5983 C   0  0  0  0  0  0  0  0  0  0  0  0
    2.3637   36.5367   -0.3283 O   0  0  0  0  0  0  0  0  0  0  0  0
    0.4981   35.2468   -0.2503 N   0  0  0  0  0  0  0  0  0  0  0  0
    1.1162   34.1182    0.4648 C   0  0  0  0  0  0  0  0  0  0  0  0
   -0.0782   33.3978    1.0264 C   0  0  0  0  0  0  0  0  0  0  0  0
   -0.1297   32.3008    1.8799 C   0  0  0  0  0  0  0  0  0  0  0  0
   -1.3500   31.7861    2.2717 C   0  0  0  0  0  0  0  0  0  0  0  0
   -2.5209   32.3580    1.8172 C   0  0  0  0  0  0  0  0  0  0  0  0
   -2.4796   33.4442    0.9651 C   0  0  0  0  0  0  0  0  0  0  0  0
   -1.2536   33.9668    0.5629 C   0  0  0  0  0  0  0  0  0  0  0  0
   -0.9599   35.1113   -0.3638 C   0  0  0  0  0  0  0  0  0  0  0  0
    0.7927   39.7185   -5.2756 C   0  0  0  0  0  0  0  0  0  0  0  0
   -0.1961   38.6287   -4.8667 C   0  0  0  0  0  0  0  0  0  0  0  0
    0.1809   37.2974   -5.5163 C   0  0  0  0  0  0  0  0  0  0  0  0
 22 23  1  0  0  0
 23 24  1  0  0  0
 23  1  1  0  0  0
  1  2  1  0  0  0
  1  7  2  0  0  0
  2  3  2  0  0  0
  3 11  1  0  0  0
  3  4  1  0  0  0
 11 12  2  0  0  0
 11 13  1  0  0  0
 13 14  1  0  0  0
 13 21  1  0  0  0
 14 15  1  0  0  0
 15 16  1  0  0  0
 15 20  2  0  0  0
 16 17  2  0  0  0
 17 18  1  0  0  0
 18 19  2  0  0  0
 19 20  1  0  0  0
 20 21  1  0  0  0
  4  5  1  0  0  0
  4  6  2  0  0  0
  6  7  1  0  0  0
  7  8  1  0  0  0
  5  9  1  0  0  0
  8 10  1  0  0  0
M  END
> <minimizedAffinity>
-7.50131

$$$$
