1W5V_BE3_A_1100


 56 61  0  0  0  0  0  0  0  0999 V2000
   13.7650   22.5156    4.9945 C   0  0  0  0  0  0  0  0  0  0  0  0
   14.5895   22.3183    3.7716 O   0  0  0  0  0  0  0  0  0  0  0  0
   15.4168   22.8178    3.8553 H   0  0  0  0  0  0  0  0  0  0  0  0
   13.5177   23.9586    5.1188 C   0  0  0  0  0  0  0  0  0  0  0  0
   14.6573   24.6831    4.5893 O   0  0  0  0  0  0  0  0  0  0  0  0
   14.7879   24.4445    3.6582 H   0  0  0  0  0  0  0  0  0  0  0  0
   12.1474   24.3101    4.4099 C   0  0  0  0  0  0  0  0  0  0  0  0
   10.9544   24.3675    5.3501 C   0  0  0  0  0  0  0  0  0  0  0  0
   10.6899   23.4069    6.1040 O   0  0  0  0  0  0  0  0  0  0  0  0
   10.1667   25.4846    5.3444 N   0  0  0  0  0  0  0  0  0  0  0  0
   10.4102   26.2156    4.7315 H   0  0  0  0  0  0  0  0  0  0  0  0
    8.9984   25.6641    6.1796 C   0  0  0  0  0  0  0  0  0  0  0  0
    9.3226   26.3424    7.5082 C   0  0  0  0  0  0  0  0  0  0  0  0
    8.2319   27.2365    7.8680 C   0  0  0  0  0  0  0  0  0  0  0  0
   10.4989   26.2125    8.3808 C   0  0  0  0  0  0  0  0  0  0  0  0
   10.5661   27.0083    9.6447 C   0  0  0  0  0  0  0  0  0  0  0  0
    9.4531   27.9067    9.9870 C   0  0  0  0  0  0  0  0  0  0  0  0
    7.9721   26.6653    5.5764 C   0  0  0  0  0  0  0  0  0  0  0  0
    8.7213   27.7169    4.9173 O   0  0  0  0  0  0  0  0  0  0  0  0
    8.2788   28.0364    9.1164 C   0  0  0  0  0  0  0  0  0  0  0  0
    7.1844   27.1585    6.7998 C   0  0  0  0  0  0  0  0  0  0  0  0
    9.3425   28.1148    5.5471 H   0  0  0  0  0  0  0  0  0  0  0  0
   11.8446   23.3901    3.2656 O   0  0  0  0  0  0  0  0  0  0  0  0
   11.1541   23.9349    2.0981 C   0  0  0  0  0  0  0  0  0  0  0  0
    9.6291   24.0318    2.2776 C   0  0  0  0  0  0  0  0  0  0  0  0
    8.9792   25.2730    1.8162 C   0  0  0  0  0  0  0  0  0  0  0  0
    7.5475   25.4980    1.9328 C   0  0  0  0  0  0  0  0  0  0  0  0
    6.6848   24.4707    2.5301 C   0  0  0  0  0  0  0  0  0  0  0  0
    7.2968   23.2077    3.0080 C   0  0  0  0  0  0  0  0  0  0  0  0
    8.7394   22.9926    2.8851 C   0  0  0  0  0  0  0  0  0  0  0  0
    6.4551   22.1726    3.6074 F   0  0  0  0  0  0  0  0  0  0  0  0
   14.4572   21.9991    6.2375 C   0  0  0  0  0  0  0  0  0  0  0  0
   14.7378   20.5907    5.8337 C   0  0  0  0  0  0  0  0  0  0  0  0
   13.7763   19.7956    5.7257 O   0  0  0  0  0  0  0  0  0  0  0  0
   16.0330   20.2311    5.6183 N   0  0  0  0  0  0  0  0  0  0  0  0
   16.7309   20.9175    5.7238 H   0  0  0  0  0  0  0  0  0  0  0  0
   16.4385   18.8941    5.2424 C   0  0  0  0  0  0  0  0  0  0  0  0
   16.2802   18.6923    3.7746 C   0  0  0  0  0  0  0  0  0  0  0  0
   17.3341   17.8026    3.2816 C   0  0  0  0  0  0  0  0  0  0  0  0
   15.2705   19.2387    2.8528 C   0  0  0  0  0  0  0  0  0  0  0  0
   15.3420   18.8694    1.4044 C   0  0  0  0  0  0  0  0  0  0  0  0
   16.4122   17.9772    0.9417 C   0  0  0  0  0  0  0  0  0  0  0  0
   17.9425   18.5590    5.4212 C   0  0  0  0  0  0  0  0  0  0  0  0
   18.6964   19.7559    5.1471 O   0  0  0  0  0  0  0  0  0  0  0  0
   17.4188   17.4306    1.8628 C   0  0  0  0  0  0  0  0  0  0  0  0
   18.1995   17.4015    4.4092 C   0  0  0  0  0  0  0  0  0  0  0  0
   18.4710   20.0846    4.2628 H   0  0  0  0  0  0  0  0  0  0  0  0
   13.6643   22.1885    7.5247 O   0  0  0  0  0  0  0  0  0  0  0  0
   14.4028   22.4569    8.7520 C   0  0  0  0  0  0  0  0  0  0  0  0
   15.6734   21.6536    8.8865 C   0  0  0  0  0  0  0  0  0  0  0  0
   16.9931   22.1756    8.4780 C   0  0  0  0  0  0  0  0  0  0  0  0
   18.2048   21.3219    8.6619 C   0  0  0  0  0  0  0  0  0  0  0  0
   18.0661   19.9529    9.2529 C   0  0  0  0  0  0  0  0  0  0  0  0
   16.7110   19.4705    9.6491 C   0  0  0  0  0  0  0  0  0  0  0  0
   15.5591   20.3153    9.4643 C   0  0  0  0  0  0  0  0  0  0  0  0
   19.5160   21.8270    8.2696 F   0  0  0  0  0  0  0  0  0  0  0  0
 25 26  2  0  0  0
 25 30  1  0  0  0
 25 24  1  0  0  0
 26 27  1  0  0  0
 27 28  2  0  0  0
 28 29  1  0  0  0
 29 30  2  0  0  0
 29 31  1  0  0  0
 50 51  2  0  0  0
 50 55  1  0  0  0
 50 49  1  0  0  0
 51 52  1  0  0  0
 52 53  2  0  0  0
 52 56  1  0  0  0
 53 54  1  0  0  0
 54 55  2  0  0  0
 49 48  1  0  0  0
 48 32  1  0  0  0
 32  1  1  0  0  0
 32 33  1  0  0  0
  1  4  1  0  0  0
  1  2  1  0  0  0
  4  7  1  0  0  0
  4  5  1  0  0  0
  7  8  1  0  0  0
  7 23  1  0  0  0
  8  9  2  0  0  0
  8 10  1  0  0  0
 10 12  1  0  0  0
 23 24  1  0  0  0
 33 34  2  0  0  0
 33 35  1  0  0  0
 35 37  1  0  0  0
 37 38  1  0  0  0
 37 43  1  0  0  0
 38 39  2  0  0  0
 38 40  1  0  0  0
 39 45  1  0  0  0
 39 46  1  0  0  0
 40 41  2  0  0  0
 41 42  1  0  0  0
 42 45  2  0  0  0
 43 44  1  0  0  0
 43 46  1  0  0  0
 12 13  1  0  0  0
 12 18  1  0  0  0
 13 14  2  0  0  0
 13 15  1  0  0  0
 14 20  1  0  0  0
 14 21  1  0  0  0
 15 16  2  0  0  0
 16 17  1  0  0  0
 17 20  2  0  0  0
 18 19  1  0  0  0
 18 21  1  0  0  0
 10 11  1  0  0  0
  5  6  1  0  0  0
  2  3  1  0  0  0
 35 36  1  0  0  0
 44 47  1  0  0  0
 19 22  1  0  0  0
M  END
> <minimizedAffinity>
-13.65977

$$$$
1W5V_BE3_A_1100


 56 61  0  0  0  0  0  0  0  0999 V2000
   12.8526   23.8521    5.8534 C   0  0  0  0  0  0  0  0  0  0  0  0
   13.2214   24.9456    6.7929 O   0  0  0  0  0  0  0  0  0  0  0  0
   13.5955   25.6884    6.2937 H   0  0  0  0  0  0  0  0  0  0  0  0
   14.0781   23.4651    5.1410 C   0  0  0  0  0  0  0  0  0  0  0  0
   14.6900   24.6501    4.5705 O   0  0  0  0  0  0  0  0  0  0  0  0
   14.8986   25.2791    5.2788 H   0  0  0  0  0  0  0  0  0  0  0  0
   15.0209   22.6689    6.1314 C   0  0  0  0  0  0  0  0  0  0  0  0
   15.0900   21.1745    5.8621 C   0  0  0  0  0  0  0  0  0  0  0  0
   14.0543   20.4759    5.8740 O   0  0  0  0  0  0  0  0  0  0  0  0
   16.3097   20.6061    5.6217 N   0  0  0  0  0  0  0  0  0  0  0  0
   17.0995   21.1938    5.6258 H   0  0  0  0  0  0  0  0  0  0  0  0
   16.5170   19.1975    5.3616 C   0  0  0  0  0  0  0  0  0  0  0  0
   16.3704   18.8435    3.8839 C   0  0  0  0  0  0  0  0  0  0  0  0
   17.3446   17.8188    3.5381 C   0  0  0  0  0  0  0  0  0  0  0  0
   15.4498   19.3708    2.8659 C   0  0  0  0  0  0  0  0  0  0  0  0
   15.5220   18.8445    1.4683 C   0  0  0  0  0  0  0  0  0  0  0  0
   16.5155   17.8105    1.1415 C   0  0  0  0  0  0  0  0  0  0  0  0
   17.9789   18.7412    5.6338 C   0  0  0  0  0  0  0  0  0  0  0  0
   18.8572   19.8226    5.2332 O   0  0  0  0  0  0  0  0  0  0  0  0
   17.4344   17.2837    2.1574 C   0  0  0  0  0  0  0  0  0  0  0  0
   18.1335   17.4825    4.7664 C   0  0  0  0  0  0  0  0  0  0  0  0
   18.6794   20.0582    4.3091 H   0  0  0  0  0  0  0  0  0  0  0  0
   14.6694   22.9071    7.5691 O   0  0  0  0  0  0  0  0  0  0  0  0
   15.7535   22.9932    8.5460 C   0  0  0  0  0  0  0  0  0  0  0  0
   16.3298   21.6235    8.9446 C   0  0  0  0  0  0  0  0  0  0  0  0
   17.7830   21.4350    8.7762 C   0  0  0  0  0  0  0  0  0  0  0  0
   18.4551   20.1889    9.1069 C   0  0  0  0  0  0  0  0  0  0  0  0
   17.6872   19.0520    9.6301 C   0  0  0  0  0  0  0  0  0  0  0  0
   16.2233   19.1978    9.8145 C   0  0  0  0  0  0  0  0  0  0  0  0
   15.5578   20.4573    9.4781 C   0  0  0  0  0  0  0  0  0  0  0  0
   15.4400   18.0766   10.3328 F   0  0  0  0  0  0  0  0  0  0  0  0
   11.7922   24.2848    4.8639 C   0  0  0  0  0  0  0  0  0  0  0  0
   10.6111   24.4207    5.7650 C   0  0  0  0  0  0  0  0  0  0  0  0
   10.3181   23.4634    6.5173 O   0  0  0  0  0  0  0  0  0  0  0  0
    9.8947   25.5772    5.7133 N   0  0  0  0  0  0  0  0  0  0  0  0
   10.1923   26.2825    5.0942 H   0  0  0  0  0  0  0  0  0  0  0  0
    8.7194   25.8251    6.5198 C   0  0  0  0  0  0  0  0  0  0  0  0
    9.0947   26.4800    7.8045 C   0  0  0  0  0  0  0  0  0  0  0  0
    8.0376   27.4077    8.2136 C   0  0  0  0  0  0  0  0  0  0  0  0
   10.3009   26.3087    8.6312 C   0  0  0  0  0  0  0  0  0  0  0  0
   10.4271   27.1004    9.8948 C   0  0  0  0  0  0  0  0  0  0  0  0
    9.3508   28.0236   10.2755 C   0  0  0  0  0  0  0  0  0  0  0  0
    7.7055   26.8540    5.9545 C   0  0  0  0  0  0  0  0  0  0  0  0
    8.4512   27.8675    5.2523 O   0  0  0  0  0  0  0  0  0  0  0  0
    8.1460   28.1927    9.4507 C   0  0  0  0  0  0  0  0  0  0  0  0
    6.9512   27.3792    7.2135 C   0  0  0  0  0  0  0  0  0  0  0  0
    9.1109   28.2549    5.8485 H   0  0  0  0  0  0  0  0  0  0  0  0
   11.6279   23.3535    3.6693 O   0  0  0  0  0  0  0  0  0  0  0  0
   11.0969   23.9117    2.4324 C   0  0  0  0  0  0  0  0  0  0  0  0
    9.5912   24.0121    2.4063 C   0  0  0  0  0  0  0  0  0  0  0  0
    8.7142   22.9988    3.0266 C   0  0  0  0  0  0  0  0  0  0  0  0
    7.2330   23.1830    2.9717 C   0  0  0  0  0  0  0  0  0  0  0  0
    6.6590   24.3860    2.2890 C   0  0  0  0  0  0  0  0  0  0  0  0
    7.5868   25.3811    1.6767 C   0  0  0  0  0  0  0  0  0  0  0  0
    9.0115   25.1814    1.7468 C   0  0  0  0  0  0  0  0  0  0  0  0
    6.3544   22.1939    3.5865 F   0  0  0  0  0  0  0  0  0  0  0  0
 25 26  2  0  0  0
 25 30  1  0  0  0
 25 24  1  0  0  0
 26 27  1  0  0  0
 27 28  2  0  0  0
 28 29  1  0  0  0
 29 30  2  0  0  0
 29 31  1  0  0  0
 50 51  2  0  0  0
 50 55  1  0  0  0
 50 49  1  0  0  0
 51 52  1  0  0  0
 52 53  2  0  0  0
 52 56  1  0  0  0
 53 54  1  0  0  0
 54 55  2  0  0  0
 49 48  1  0  0  0
 48 32  1  0  0  0
 32  1  1  0  0  0
 32 33  1  0  0  0
  1  4  1  0  0  0
  1  2  1  0  0  0
  4  7  1  0  0  0
  4  5  1  0  0  0
  7  8  1  0  0  0
  7 23  1  0  0  0
  8  9  2  0  0  0
  8 10  1  0  0  0
 10 12  1  0  0  0
 23 24  1  0  0  0
 33 34  2  0  0  0
 33 35  1  0  0  0
 35 37  1  0  0  0
 37 38  1  0  0  0
 37 43  1  0  0  0
 38 39  2  0  0  0
 38 40  1  0  0  0
 39 45  1  0  0  0
 39 46  1  0  0  0
 40 41  2  0  0  0
 41 42  1  0  0  0
 42 45  2  0  0  0
 43 44  1  0  0  0
 43 46  1  0  0  0
 12 13  1  0  0  0
 12 18  1  0  0  0
 13 14  2  0  0  0
 13 15  1  0  0  0
 14 20  1  0  0  0
 14 21  1  0  0  0
 15 16  2  0  0  0
 16 17  1  0  0  0
 17 20  2  0  0  0
 18 19  1  0  0  0
 18 21  1  0  0  0
 10 11  1  0  0  0
  5  6  1  0  0  0
  2  3  1  0  0  0
 35 36  1  0  0  0
 44 47  1  0  0  0
 19 22  1  0  0  0
M  END
> <minimizedAffinity>
-13.42718

$$$$
1W5V_BE3_A_1100


 56 61  0  0  0  0  0  0  0  0999 V2000
   13.5930   22.8377    5.0657 C   0  0  0  0  0  0  0  0  0  0  0  0
   13.5035   22.6115    3.5976 O   0  0  0  0  0  0  0  0  0  0  0  0
   14.0285   23.2829    3.1345 H   0  0  0  0  0  0  0  0  0  0  0  0
   13.0895   24.1937    5.3238 C   0  0  0  0  0  0  0  0  0  0  0  0
   13.6964   25.1132    4.3802 O   0  0  0  0  0  0  0  0  0  0  0  0
   13.4760   24.8405    3.4758 H   0  0  0  0  0  0  0  0  0  0  0  0
   11.5080   24.1748    5.2755 C   0  0  0  0  0  0  0  0  0  0  0  0
   10.9249   24.2585    3.8743 C   0  0  0  0  0  0  0  0  0  0  0  0
   11.6664   24.4371    2.8847 O   0  0  0  0  0  0  0  0  0  0  0  0
    9.5712   24.1501    3.7186 N   0  0  0  0  0  0  0  0  0  0  0  0
    9.0251   24.0140    4.5263 H   0  0  0  0  0  0  0  0  0  0  0  0
    8.8875   24.2222    2.4449 C   0  0  0  0  0  0  0  0  0  0  0  0
    7.3983   23.9060    2.5571 C   0  0  0  0  0  0  0  0  0  0  0  0
    6.6572   24.7602    1.6408 C   0  0  0  0  0  0  0  0  0  0  0  0
    6.6931   22.9341    3.4057 C   0  0  0  0  0  0  0  0  0  0  0  0
    5.2042   22.8296    3.3198 C   0  0  0  0  0  0  0  0  0  0  0  0
    4.4761   23.7041    2.3881 C   0  0  0  0  0  0  0  0  0  0  0  0
    8.8431   25.6642    1.8634 C   0  0  0  0  0  0  0  0  0  0  0  0
    8.6783   26.5800    2.9750 O   0  0  0  0  0  0  0  0  0  0  0  0
    5.1796   24.6741    1.5407 C   0  0  0  0  0  0  0  0  0  0  0  0
    7.6331   25.6365    0.9170 C   0  0  0  0  0  0  0  0  0  0  0  0
    7.8910   26.3319    3.4843 H   0  0  0  0  0  0  0  0  0  0  0  0
   10.8981   25.2364    6.1405 O   0  0  0  0  0  0  0  0  0  0  0  0
   10.7009   24.9496    7.5603 C   0  0  0  0  0  0  0  0  0  0  0  0
    9.8634   26.0139    8.2903 C   0  0  0  0  0  0  0  0  0  0  0  0
   10.5016   26.7019    9.4284 C   0  0  0  0  0  0  0  0  0  0  0  0
    9.8208   27.7223   10.2090 C   0  0  0  0  0  0  0  0  0  0  0  0
    8.4423   28.1065    9.8799 C   0  0  0  0  0  0  0  0  0  0  0  0
    7.7624   27.4395    8.7437 C   0  0  0  0  0  0  0  0  0  0  0  0
    8.4581   26.4137    7.9651 C   0  0  0  0  0  0  0  0  0  0  0  0
    6.3888   27.8067    8.4007 F   0  0  0  0  0  0  0  0  0  0  0  0
   15.0113   22.7050    5.5770 C   0  0  0  0  0  0  0  0  0  0  0  0
   15.1739   21.2222    5.5621 C   0  0  0  0  0  0  0  0  0  0  0  0
   14.1563   20.5064    5.7048 O   0  0  0  0  0  0  0  0  0  0  0  0
   16.4286   20.7160    5.4109 N   0  0  0  0  0  0  0  0  0  0  0  0
   17.1762   21.3476    5.3037 H   0  0  0  0  0  0  0  0  0  0  0  0
   16.7220   19.2993    5.3994 C   0  0  0  0  0  0  0  0  0  0  0  0
   16.6729   18.7659    4.0090 C   0  0  0  0  0  0  0  0  0  0  0  0
   17.6661   17.7007    3.8530 C   0  0  0  0  0  0  0  0  0  0  0  0
   15.8116   19.1567    2.8807 C   0  0  0  0  0  0  0  0  0  0  0  0
   15.9708   18.4471    1.5728 C   0  0  0  0  0  0  0  0  0  0  0  0
   16.9772   17.3855    1.4485 C   0  0  0  0  0  0  0  0  0  0  0  0
   18.1606   18.8945    5.8152 C   0  0  0  0  0  0  0  0  0  0  0  0
   19.0580   19.9251    5.3584 O   0  0  0  0  0  0  0  0  0  0  0  0
   17.8355   16.9945    2.5758 C   0  0  0  0  0  0  0  0  0  0  0  0
   18.3818   17.5114    5.1310 C   0  0  0  0  0  0  0  0  0  0  0  0
   18.9472   20.0501    4.4029 H   0  0  0  0  0  0  0  0  0  0  0  0
   15.2686   23.4002    6.9081 O   0  0  0  0  0  0  0  0  0  0  0  0
   14.8650   22.7148    8.1292 C   0  0  0  0  0  0  0  0  0  0  0  0
   15.8840   21.7241    8.6371 C   0  0  0  0  0  0  0  0  0  0  0  0
   15.5057   20.4294    9.2382 C   0  0  0  0  0  0  0  0  0  0  0  0
   16.5778   19.4975    9.6996 C   0  0  0  0  0  0  0  0  0  0  0  0
   18.0159   19.8875    9.5500 C   0  0  0  0  0  0  0  0  0  0  0  0
   18.3471   21.2068    8.9370 C   0  0  0  0  0  0  0  0  0  0  0  0
   17.2939   22.0855    8.4971 C   0  0  0  0  0  0  0  0  0  0  0  0
   16.2193   18.2119   10.2888 F   0  0  0  0  0  0  0  0  0  0  0  0
 25 26  2  0  0  0
 25 30  1  0  0  0
 25 24  1  0  0  0
 26 27  1  0  0  0
 27 28  2  0  0  0
 28 29  1  0  0  0
 29 30  2  0  0  0
 29 31  1  0  0  0
 50 51  2  0  0  0
 50 55  1  0  0  0
 50 49  1  0  0  0
 51 52  1  0  0  0
 52 53  2  0  0  0
 52 56  1  0  0  0
 53 54  1  0  0  0
 54 55  2  0  0  0
 49 48  1  0  0  0
 48 32  1  0  0  0
 32  1  1  0  0  0
 32 33  1  0  0  0
  1  4  1  0  0  0
  1  2  1  0  0  0
  4  7  1  0  0  0
  4  5  1  0  0  0
  7  8  1  0  0  0
  7 23  1  0  0  0
  8  9  2  0  0  0
  8 10  1  0  0  0
 10 12  1  0  0  0
 23 24  1  0  0  0
 33 34  2  0  0  0
 33 35  1  0  0  0
 35 37  1  0  0  0
 37 38  1  0  0  0
 37 43  1  0  0  0
 38 39  2  0  0  0
 38 40  1  0  0  0
 39 45  1  0  0  0
 39 46  1  0  0  0
 40 41  2  0  0  0
 41 42  1  0  0  0
 42 45  2  0  0  0
 43 44  1  0  0  0
 43 46  1  0  0  0
 12 13  1  0  0  0
 12 18  1  0  0  0
 13 14  2  0  0  0
 13 15  1  0  0  0
 14 20  1  0  0  0
 14 21  1  0  0  0
 15 16  2  0  0  0
 16 17  1  0  0  0
 17 20  2  0  0  0
 18 19  1  0  0  0
 18 21  1  0  0  0
 10 11  1  0  0  0
  5  6  1  0  0  0
  2  3  1  0  0  0
 35 36  1  0  0  0
 44 47  1  0  0  0
 19 22  1  0  0  0
M  END
> <minimizedAffinity>
-13.05505

$$$$
1W5V_BE3_A_1100


 56 61  0  0  0  0  0  0  0  0999 V2000
   12.9247   23.6088    5.5780 C   0  0  0  0  0  0  0  0  0  0  0  0
   13.3344   24.5820    6.6265 O   0  0  0  0  0  0  0  0  0  0  0  0
   13.7832   25.3350    6.2110 H   0  0  0  0  0  0  0  0  0  0  0  0
   14.1465   23.1925    4.8760 C   0  0  0  0  0  0  0  0  0  0  0  0
   15.0675   24.3119    4.8214 O   0  0  0  0  0  0  0  0  0  0  0  0
   15.2806   24.5995    5.7229 H   0  0  0  0  0  0  0  0  0  0  0  0
   14.7378   21.9084    5.5866 C   0  0  0  0  0  0  0  0  0  0  0  0
   15.5316   22.2029    6.8490 C   0  0  0  0  0  0  0  0  0  0  0  0
   15.7122   23.3794    7.2287 O   0  0  0  0  0  0  0  0  0  0  0  0
   16.0579   21.1562    7.5532 N   0  0  0  0  0  0  0  0  0  0  0  0
   15.8939   20.2462    7.2153 H   0  0  0  0  0  0  0  0  0  0  0  0
   16.8401   21.2971    8.7628 C   0  0  0  0  0  0  0  0  0  0  0  0
   16.9396   19.9959    9.5548 C   0  0  0  0  0  0  0  0  0  0  0  0
   18.2672   19.8937   10.1429 C   0  0  0  0  0  0  0  0  0  0  0  0
   15.9459   18.9334    9.7683 C   0  0  0  0  0  0  0  0  0  0  0  0
   16.3105   17.7435   10.5968 C   0  0  0  0  0  0  0  0  0  0  0  0
   17.6584   17.6608   11.1796 C   0  0  0  0  0  0  0  0  0  0  0  0
   18.3415   21.5902    8.4812 C   0  0  0  0  0  0  0  0  0  0  0  0
   18.7206   20.8390    7.3008 O   0  0  0  0  0  0  0  0  0  0  0  0
   18.6505   18.7212   10.9670 C   0  0  0  0  0  0  0  0  0  0  0  0
   19.0502   21.1113    9.7574 C   0  0  0  0  0  0  0  0  0  0  0  0
   18.5169   19.9002    7.4357 H   0  0  0  0  0  0  0  0  0  0  0  0
   15.5616   21.0698    4.6562 O   0  0  0  0  0  0  0  0  0  0  0  0
   15.0424   19.7649    4.2507 C   0  0  0  0  0  0  0  0  0  0  0  0
   16.1414   18.7652    3.8506 C   0  0  0  0  0  0  0  0  0  0  0  0
   17.2504   18.5740    4.8041 C   0  0  0  0  0  0  0  0  0  0  0  0
   18.3565   17.6659    4.5477 C   0  0  0  0  0  0  0  0  0  0  0  0
   18.4041   16.8940    3.2994 C   0  0  0  0  0  0  0  0  0  0  0  0
   17.3098   17.0563    2.3123 C   0  0  0  0  0  0  0  0  0  0  0  0
   16.2014   17.9735    2.5817 C   0  0  0  0  0  0  0  0  0  0  0  0
   17.3394   16.2978    1.0621 F   0  0  0  0  0  0  0  0  0  0  0  0
   11.9415   24.2092    4.5964 C   0  0  0  0  0  0  0  0  0  0  0  0
   10.7328   24.3420    5.4606 C   0  0  0  0  0  0  0  0  0  0  0  0
   10.3852   23.3625    6.1590 O   0  0  0  0  0  0  0  0  0  0  0  0
   10.0525   25.5209    5.4351 N   0  0  0  0  0  0  0  0  0  0  0  0
   10.3926   26.2429    4.8587 H   0  0  0  0  0  0  0  0  0  0  0  0
    8.8563   25.7693    6.2101 C   0  0  0  0  0  0  0  0  0  0  0  0
    9.1993   26.4068    7.5125 C   0  0  0  0  0  0  0  0  0  0  0  0
    8.1381   27.3385    7.9013 C   0  0  0  0  0  0  0  0  0  0  0  0
   10.3797   26.2166    8.3716 C   0  0  0  0  0  0  0  0  0  0  0  0
   10.4753   26.9931    9.6473 C   0  0  0  0  0  0  0  0  0  0  0  0
    9.3957   27.9207   10.0072 C   0  0  0  0  0  0  0  0  0  0  0  0
    7.8673   26.8127    5.6275 C   0  0  0  0  0  0  0  0  0  0  0  0
    8.6408   27.8278    4.9586 O   0  0  0  0  0  0  0  0  0  0  0  0
    8.2167   28.1088    9.1499 C   0  0  0  0  0  0  0  0  0  0  0  0
    7.0809   27.3300    6.8701 C   0  0  0  0  0  0  0  0  0  0  0  0
    9.2860   28.2033    5.5781 H   0  0  0  0  0  0  0  0  0  0  0  0
   11.7688   23.4113    3.3100 O   0  0  0  0  0  0  0  0  0  0  0  0
   11.1308   24.0676    2.1762 C   0  0  0  0  0  0  0  0  0  0  0  0
    9.6250   24.1148    2.2677 C   0  0  0  0  0  0  0  0  0  0  0  0
    8.8311   23.0411    2.8981 C   0  0  0  0  0  0  0  0  0  0  0  0
    7.3449   23.1742    2.9636 C   0  0  0  0  0  0  0  0  0  0  0  0
    6.6819   24.3879    2.3892 C   0  0  0  0  0  0  0  0  0  0  0  0
    7.5276   25.4450    1.7620 C   0  0  0  0  0  0  0  0  0  0  0  0
    8.9592   25.2936    1.7151 C   0  0  0  0  0  0  0  0  0  0  0  0
    6.5481   22.1248    3.5899 F   0  0  0  0  0  0  0  0  0  0  0  0
 25 26  2  0  0  0
 25 30  1  0  0  0
 25 24  1  0  0  0
 26 27  1  0  0  0
 27 28  2  0  0  0
 28 29  1  0  0  0
 29 30  2  0  0  0
 29 31  1  0  0  0
 50 51  2  0  0  0
 50 55  1  0  0  0
 50 49  1  0  0  0
 51 52  1  0  0  0
 52 53  2  0  0  0
 52 56  1  0  0  0
 53 54  1  0  0  0
 54 55  2  0  0  0
 49 48  1  0  0  0
 48 32  1  0  0  0
 32  1  1  0  0  0
 32 33  1  0  0  0
  1  4  1  0  0  0
  1  2  1  0  0  0
  4  7  1  0  0  0
  4  5  1  0  0  0
  7  8  1  0  0  0
  7 23  1  0  0  0
  8  9  2  0  0  0
  8 10  1  0  0  0
 10 12  1  0  0  0
 23 24  1  0  0  0
 33 34  2  0  0  0
 33 35  1  0  0  0
 35 37  1  0  0  0
 37 38  1  0  0  0
 37 43  1  0  0  0
 38 39  2  0  0  0
 38 40  1  0  0  0
 39 45  1  0  0  0
 39 46  1  0  0  0
 40 41  2  0  0  0
 41 42  1  0  0  0
 42 45  2  0  0  0
 43 44  1  0  0  0
 43 46  1  0  0  0
 12 13  1  0  0  0
 12 18  1  0  0  0
 13 14  2  0  0  0
 13 15  1  0  0  0
 14 20  1  0  0  0
 14 21  1  0  0  0
 15 16  2  0  0  0
 16 17  1  0  0  0
 17 20  2  0  0  0
 18 19  1  0  0  0
 18 21  1  0  0  0
 10 11  1  0  0  0
  5  6  1  0  0  0
  2  3  1  0  0  0
 35 36  1  0  0  0
 44 47  1  0  0  0
 19 22  1  0  0  0
M  END
> <minimizedAffinity>
-12.79000

$$$$
1W5V_BE3_A_1100


 56 61  0  0  0  0  0  0  0  0999 V2000
   11.9609   23.0890    5.4547 C   0  0  0  0  0  0  0  0  0  0  0  0
   10.6213   23.0322    6.1002 O   0  0  0  0  0  0  0  0  0  0  0  0
   10.5956   23.6512    6.8466 H   0  0  0  0  0  0  0  0  0  0  0  0
   12.9498   22.7400    6.4839 C   0  0  0  0  0  0  0  0  0  0  0  0
   12.4441   21.6323    7.2721 O   0  0  0  0  0  0  0  0  0  0  0  0
   12.2804   20.8716    6.6930 H   0  0  0  0  0  0  0  0  0  0  0  0
   14.3400   22.4497    5.7861 C   0  0  0  0  0  0  0  0  0  0  0  0
   14.6511   20.9731    5.6038 C   0  0  0  0  0  0  0  0  0  0  0  0
   13.7301   20.1329    5.5214 O   0  0  0  0  0  0  0  0  0  0  0  0
   15.9588   20.5794    5.5471 N   0  0  0  0  0  0  0  0  0  0  0  0
   16.6518   21.2749    5.6201 H   0  0  0  0  0  0  0  0  0  0  0  0
   16.3924   19.2078    5.3868 C   0  0  0  0  0  0  0  0  0  0  0  0
   16.3836   18.7538    3.9294 C   0  0  0  0  0  0  0  0  0  0  0  0
   17.5201   17.8752    3.6947 C   0  0  0  0  0  0  0  0  0  0  0  0
   15.4512   19.0741    2.8384 C   0  0  0  0  0  0  0  0  0  0  0  0
   15.6802   18.4885    1.4820 C   0  0  0  0  0  0  0  0  0  0  0  0
   16.8362   17.6049    1.2678 C   0  0  0  0  0  0  0  0  0  0  0  0
   17.8894   19.0001    5.7547 C   0  0  0  0  0  0  0  0  0  0  0  0
   18.6135   20.1809    5.3272 O   0  0  0  0  0  0  0  0  0  0  0  0
   17.7668   17.2846    2.3564 C   0  0  0  0  0  0  0  0  0  0  0  0
   18.2817   17.7344    4.9771 C   0  0  0  0  0  0  0  0  0  0  0  0
   18.4534   20.3342    4.3829 H   0  0  0  0  0  0  0  0  0  0  0  0
   15.4815   23.1235    6.4863 O   0  0  0  0  0  0  0  0  0  0  0  0
   15.5016   23.1197    7.9480 C   0  0  0  0  0  0  0  0  0  0  0  0
   16.1856   21.8792    8.5485 C   0  0  0  0  0  0  0  0  0  0  0  0
   17.6605   21.8727    8.5678 C   0  0  0  0  0  0  0  0  0  0  0  0
   18.4323   20.7612    9.0995 C   0  0  0  0  0  0  0  0  0  0  0  0
   17.7488   19.5817    9.6454 C   0  0  0  0  0  0  0  0  0  0  0  0
   16.2666   19.5461    9.6450 C   0  0  0  0  0  0  0  0  0  0  0  0
   15.5004   20.6713    9.1070 C   0  0  0  0  0  0  0  0  0  0  0  0
   15.5667   18.3798   10.1826 F   0  0  0  0  0  0  0  0  0  0  0  0
   12.2629   24.4600    4.8890 C   0  0  0  0  0  0  0  0  0  0  0  0
   11.6699   25.3321    5.9440 C   0  0  0  0  0  0  0  0  0  0  0  0
   12.3721   25.6346    6.9358 O   0  0  0  0  0  0  0  0  0  0  0  0
   10.3822   25.7448    5.7860 N   0  0  0  0  0  0  0  0  0  0  0  0
    9.8986   25.4632    4.9761 H   0  0  0  0  0  0  0  0  0  0  0  0
    9.6866   26.5754    6.7450 C   0  0  0  0  0  0  0  0  0  0  0  0
    8.2362   26.6554    6.4133 C   0  0  0  0  0  0  0  0  0  0  0  0
    7.4513   26.7438    7.6468 C   0  0  0  0  0  0  0  0  0  0  0  0
    7.5695   26.6574    5.1006 C   0  0  0  0  0  0  0  0  0  0  0  0
    6.0767   26.7498    5.0504 C   0  0  0  0  0  0  0  0  0  0  0  0
    5.3190   26.8348    6.3050 C   0  0  0  0  0  0  0  0  0  0  0  0
    9.6230   26.0369    8.1983 C   0  0  0  0  0  0  0  0  0  0  0  0
    9.5302   24.6005    8.1325 O   0  0  0  0  0  0  0  0  0  0  0  0
    5.9852   26.8346    7.6151 C   0  0  0  0  0  0  0  0  0  0  0  0
    8.3647   26.7268    8.8072 C   0  0  0  0  0  0  0  0  0  0  0  0
    8.7670   24.3503    7.5886 H   0  0  0  0  0  0  0  0  0  0  0  0
   11.7594   24.6799    3.4679 O   0  0  0  0  0  0  0  0  0  0  0  0
   11.0522   23.5865    2.8139 C   0  0  0  0  0  0  0  0  0  0  0  0
    9.5777   23.8439    2.6203 C   0  0  0  0  0  0  0  0  0  0  0  0
    8.5347   22.9572    3.1740 C   0  0  0  0  0  0  0  0  0  0  0  0
    7.0966   23.2940    2.9519 C   0  0  0  0  0  0  0  0  0  0  0  0
    6.7327   24.5193    2.1717 C   0  0  0  0  0  0  0  0  0  0  0  0
    7.8231   25.3830    1.6321 C   0  0  0  0  0  0  0  0  0  0  0  0
    9.2021   25.0374    1.8637 C   0  0  0  0  0  0  0  0  0  0  0  0
    6.0552   22.4312    3.4991 F   0  0  0  0  0  0  0  0  0  0  0  0
 25 26  2  0  0  0
 25 30  1  0  0  0
 25 24  1  0  0  0
 26 27  1  0  0  0
 27 28  2  0  0  0
 28 29  1  0  0  0
 29 30  2  0  0  0
 29 31  1  0  0  0
 50 51  2  0  0  0
 50 55  1  0  0  0
 50 49  1  0  0  0
 51 52  1  0  0  0
 52 53  2  0  0  0
 52 56  1  0  0  0
 53 54  1  0  0  0
 54 55  2  0  0  0
 49 48  1  0  0  0
 48 32  1  0  0  0
 32  1  1  0  0  0
 32 33  1  0  0  0
  1  4  1  0  0  0
  1  2  1  0  0  0
  4  7  1  0  0  0
  4  5  1  0  0  0
  7  8  1  0  0  0
  7 23  1  0  0  0
  8  9  2  0  0  0
  8 10  1  0  0  0
 10 12  1  0  0  0
 23 24  1  0  0  0
 33 34  2  0  0  0
 33 35  1  0  0  0
 35 37  1  0  0  0
 37 38  1  0  0  0
 37 43  1  0  0  0
 38 39  2  0  0  0
 38 40  1  0  0  0
 39 45  1  0  0  0
 39 46  1  0  0  0
 40 41  2  0  0  0
 41 42  1  0  0  0
 42 45  2  0  0  0
 43 44  1  0  0  0
 43 46  1  0  0  0
 12 13  1  0  0  0
 12 18  1  0  0  0
 13 14  2  0  0  0
 13 15  1  0  0  0
 14 20  1  0  0  0
 14 21  1  0  0  0
 15 16  2  0  0  0
 16 17  1  0  0  0
 17 20  2  0  0  0
 18 19  1  0  0  0
 18 21  1  0  0  0
 10 11  1  0  0  0
  5  6  1  0  0  0
  2  3  1  0  0  0
 35 36  1  0  0  0
 44 47  1  0  0  0
 19 22  1  0  0  0
M  END
> <minimizedAffinity>
-12.67986

$$$$
1W5V_BE3_A_1100


 56 61  0  0  0  0  0  0  0  0999 V2000
   13.3168   22.1357    5.9886 C   0  0  0  0  0  0  0  0  0  0  0  0
   13.2948   20.6678    5.7459 O   0  0  0  0  0  0  0  0  0  0  0  0
   13.3065   20.4978    4.7910 H   0  0  0  0  0  0  0  0  0  0  0  0
   12.1351   22.7000    5.3222 C   0  0  0  0  0  0  0  0  0  0  0  0
   10.9660   22.4627    6.1474 O   0  0  0  0  0  0  0  0  0  0  0  0
   11.0923   22.8789    7.0145 H   0  0  0  0  0  0  0  0  0  0  0  0
   12.4003   24.2281    5.0084 C   0  0  0  0  0  0  0  0  0  0  0  0
   11.8086   25.1870    6.0286 C   0  0  0  0  0  0  0  0  0  0  0  0
   12.5133   25.6536    6.9488 O   0  0  0  0  0  0  0  0  0  0  0  0
   10.4860   25.5177    5.9295 N   0  0  0  0  0  0  0  0  0  0  0  0
    9.9678   25.1236    5.1909 H   0  0  0  0  0  0  0  0  0  0  0  0
    9.7968   26.4089    6.8382 C   0  0  0  0  0  0  0  0  0  0  0  0
    8.3225   26.5862    6.4843 C   0  0  0  0  0  0  0  0  0  0  0  0
    7.5439   26.6811    7.7104 C   0  0  0  0  0  0  0  0  0  0  0  0
    7.6608   26.6608    5.1733 C   0  0  0  0  0  0  0  0  0  0  0  0
    6.1774   26.8356    5.1092 C   0  0  0  0  0  0  0  0  0  0  0  0
    5.4109   26.9274    6.3611 C   0  0  0  0  0  0  0  0  0  0  0  0
    9.6904   25.8373    8.2809 C   0  0  0  0  0  0  0  0  0  0  0  0
    9.4900   24.4058    8.1713 O   0  0  0  0  0  0  0  0  0  0  0  0
    6.0710   26.8532    7.6698 C   0  0  0  0  0  0  0  0  0  0  0  0
    8.4805   26.5746    8.8748 C   0  0  0  0  0  0  0  0  0  0  0  0
    8.7149   24.2295    7.6153 H   0  0  0  0  0  0  0  0  0  0  0  0
   11.9498   24.6144    3.6318 O   0  0  0  0  0  0  0  0  0  0  0  0
   11.2802   23.6076    2.8101 C   0  0  0  0  0  0  0  0  0  0  0  0
    9.7701   23.8537    2.6485 C   0  0  0  0  0  0  0  0  0  0  0  0
    9.3655   25.0577    1.8985 C   0  0  0  0  0  0  0  0  0  0  0  0
    7.9728   25.4127    1.6786 C   0  0  0  0  0  0  0  0  0  0  0  0
    6.9009   24.5623    2.2114 C   0  0  0  0  0  0  0  0  0  0  0  0
    7.2629   23.3423    2.9722 C   0  0  0  0  0  0  0  0  0  0  0  0
    8.6686   22.9952    3.1871 C   0  0  0  0  0  0  0  0  0  0  0  0
    6.2102   22.4828    3.5127 F   0  0  0  0  0  0  0  0  0  0  0  0
   14.5744   22.7833    5.4504 C   0  0  0  0  0  0  0  0  0  0  0  0
   15.0251   21.7469    4.4767 C   0  0  0  0  0  0  0  0  0  0  0  0
   14.5215   21.7427    3.3302 O   0  0  0  0  0  0  0  0  0  0  0  0
   15.9535   20.8404    4.8886 N   0  0  0  0  0  0  0  0  0  0  0  0
   16.3004   20.9132    5.8071 H   0  0  0  0  0  0  0  0  0  0  0  0
   16.4575   19.7758    4.0485 C   0  0  0  0  0  0  0  0  0  0  0  0
   17.2473   18.8025    4.8542 C   0  0  0  0  0  0  0  0  0  0  0  0
   17.0700   17.4534    4.3123 C   0  0  0  0  0  0  0  0  0  0  0  0
   18.1087   19.0307    6.0263 C   0  0  0  0  0  0  0  0  0  0  0  0
   18.7975   17.8596    6.6535 C   0  0  0  0  0  0  0  0  0  0  0  0
   18.5971   16.5198    6.0877 C   0  0  0  0  0  0  0  0  0  0  0  0
   15.3940   18.8374    3.4203 C   0  0  0  0  0  0  0  0  0  0  0  0
   14.3143   18.7004    4.3645 O   0  0  0  0  0  0  0  0  0  0  0  0
   17.7385   16.2929    4.9165 C   0  0  0  0  0  0  0  0  0  0  0  0
   16.1678   17.5126    3.1445 C   0  0  0  0  0  0  0  0  0  0  0  0
   14.6641   18.3837    5.2120 H   0  0  0  0  0  0  0  0  0  0  0  0
   15.5808   23.1898    6.5197 O   0  0  0  0  0  0  0  0  0  0  0  0
   15.2514   22.9136    7.9121 C   0  0  0  0  0  0  0  0  0  0  0  0
   16.0717   21.8043    8.5238 C   0  0  0  0  0  0  0  0  0  0  0  0
   15.4655   20.5742    9.0717 C   0  0  0  0  0  0  0  0  0  0  0  0
   16.3510   19.5159    9.6434 C   0  0  0  0  0  0  0  0  0  0  0  0
   17.8350   19.7162    9.6562 C   0  0  0  0  0  0  0  0  0  0  0  0
   18.3991   20.9767    9.0915 C   0  0  0  0  0  0  0  0  0  0  0  0
   17.5232   21.9799    8.5429 C   0  0  0  0  0  0  0  0  0  0  0  0
   15.7668   18.2922   10.1817 F   0  0  0  0  0  0  0  0  0  0  0  0
 25 26  2  0  0  0
 25 30  1  0  0  0
 25 24  1  0  0  0
 26 27  1  0  0  0
 27 28  2  0  0  0
 28 29  1  0  0  0
 29 30  2  0  0  0
 29 31  1  0  0  0
 50 51  2  0  0  0
 50 55  1  0  0  0
 50 49  1  0  0  0
 51 52  1  0  0  0
 52 53  2  0  0  0
 52 56  1  0  0  0
 53 54  1  0  0  0
 54 55  2  0  0  0
 49 48  1  0  0  0
 48 32  1  0  0  0
 32  1  1  0  0  0
 32 33  1  0  0  0
  1  4  1  0  0  0
  1  2  1  0  0  0
  4  7  1  0  0  0
  4  5  1  0  0  0
  7  8  1  0  0  0
  7 23  1  0  0  0
  8  9  2  0  0  0
  8 10  1  0  0  0
 10 12  1  0  0  0
 23 24  1  0  0  0
 33 34  2  0  0  0
 33 35  1  0  0  0
 35 37  1  0  0  0
 37 38  1  0  0  0
 37 43  1  0  0  0
 38 39  2  0  0  0
 38 40  1  0  0  0
 39 45  1  0  0  0
 39 46  1  0  0  0
 40 41  2  0  0  0
 41 42  1  0  0  0
 42 45  2  0  0  0
 43 44  1  0  0  0
 43 46  1  0  0  0
 12 13  1  0  0  0
 12 18  1  0  0  0
 13 14  2  0  0  0
 13 15  1  0  0  0
 14 20  1  0  0  0
 14 21  1  0  0  0
 15 16  2  0  0  0
 16 17  1  0  0  0
 17 20  2  0  0  0
 18 19  1  0  0  0
 18 21  1  0  0  0
 10 11  1  0  0  0
  5  6  1  0  0  0
  2  3  1  0  0  0
 35 36  1  0  0  0
 44 47  1  0  0  0
 19 22  1  0  0  0
M  END
> <minimizedAffinity>
-12.44353

$$$$
1W5V_BE3_A_1100


 56 61  0  0  0  0  0  0  0  0999 V2000
   12.4894   23.0133    4.9797 C   0  0  0  0  0  0  0  0  0  0  0  0
   11.9419   22.9425    6.3615 O   0  0  0  0  0  0  0  0  0  0  0  0
   12.5145   23.4446    6.9623 H   0  0  0  0  0  0  0  0  0  0  0  0
   13.8484   22.4567    5.0260 C   0  0  0  0  0  0  0  0  0  0  0  0
   14.7921   23.5285    5.2806 O   0  0  0  0  0  0  0  0  0  0  0  0
   14.5761   23.9559    6.1241 H   0  0  0  0  0  0  0  0  0  0  0  0
   13.8933   21.2935    6.0979 C   0  0  0  0  0  0  0  0  0  0  0  0
   14.6672   21.6370    7.3602 C   0  0  0  0  0  0  0  0  0  0  0  0
   14.3189   22.5966    8.0805 O   0  0  0  0  0  0  0  0  0  0  0  0
   15.7616   20.8851    7.6848 N   0  0  0  0  0  0  0  0  0  0  0  0
   16.0019   20.1410    7.0865 H   0  0  0  0  0  0  0  0  0  0  0  0
   16.5906   21.1102    8.8497 C   0  0  0  0  0  0  0  0  0  0  0  0
   16.8691   19.8287    9.6311 C   0  0  0  0  0  0  0  0  0  0  0  0
   18.2305   19.8673   10.1445 C   0  0  0  0  0  0  0  0  0  0  0  0
   16.0049   18.6689    9.8961 C   0  0  0  0  0  0  0  0  0  0  0  0
   16.5370   17.5260   10.6997 C   0  0  0  0  0  0  0  0  0  0  0  0
   17.9163   17.5860   11.2067 C   0  0  0  0  0  0  0  0  0  0  0  0
   18.0353   21.5576    8.4862 C   0  0  0  0  0  0  0  0  0  0  0  0
   18.4248   20.8466    7.2845 O   0  0  0  0  0  0  0  0  0  0  0  0
   18.7790   18.7436   10.9426 C   0  0  0  0  0  0  0  0  0  0  0  0
   18.8597   21.1588    9.7199 C   0  0  0  0  0  0  0  0  0  0  0  0
   18.3280   19.8922    7.4277 H   0  0  0  0  0  0  0  0  0  0  0  0
   14.4086   20.0082    5.5237 O   0  0  0  0  0  0  0  0  0  0  0  0
   14.7075   19.9546    4.0937 C   0  0  0  0  0  0  0  0  0  0  0  0
   15.8726   19.0119    3.7458 C   0  0  0  0  0  0  0  0  0  0  0  0
   17.0163   18.9907    4.6771 C   0  0  0  0  0  0  0  0  0  0  0  0
   18.1847   18.1520    4.4643 C   0  0  0  0  0  0  0  0  0  0  0  0
   18.2631   17.2804    3.2852 C   0  0  0  0  0  0  0  0  0  0  0  0
   17.1356   17.2709    2.3225 C   0  0  0  0  0  0  0  0  0  0  0  0
   15.9645   18.1197    2.5476 C   0  0  0  0  0  0  0  0  0  0  0  0
   17.1949   16.4110    1.1409 F   0  0  0  0  0  0  0  0  0  0  0  0
   12.5278   24.4321    4.4541 C   0  0  0  0  0  0  0  0  0  0  0  0
   12.0316   25.1822    5.6443 C   0  0  0  0  0  0  0  0  0  0  0  0
   12.8464   25.4790    6.5478 O   0  0  0  0  0  0  0  0  0  0  0  0
   10.7076   25.4941    5.6998 N   0  0  0  0  0  0  0  0  0  0  0  0
   10.1335   25.2248    4.9468 H   0  0  0  0  0  0  0  0  0  0  0  0
   10.0994   26.2003    6.8064 C   0  0  0  0  0  0  0  0  0  0  0  0
    8.6594   26.4654    6.5302 C   0  0  0  0  0  0  0  0  0  0  0  0
    7.8970   26.4034    7.7793 C   0  0  0  0  0  0  0  0  0  0  0  0
    7.9839   26.7580    5.2551 C   0  0  0  0  0  0  0  0  0  0  0  0
    6.5054   26.9893    5.2592 C   0  0  0  0  0  0  0  0  0  0  0  0
    5.7699   26.9178    6.5277 C   0  0  0  0  0  0  0  0  0  0  0  0
    9.9999   25.4213    8.1442 C   0  0  0  0  0  0  0  0  0  0  0  0
    9.7759   24.0330    7.8302 O   0  0  0  0  0  0  0  0  0  0  0  0
    6.4451   26.6274    7.8006 C   0  0  0  0  0  0  0  0  0  0  0  0
    8.8154   26.1011    8.8957 C   0  0  0  0  0  0  0  0  0  0  0  0
    8.9882   23.9512    7.2701 H   0  0  0  0  0  0  0  0  0  0  0  0
   11.7618   24.6433    3.1541 O   0  0  0  0  0  0  0  0  0  0  0  0
   10.9801   23.5306    2.6301 C   0  0  0  0  0  0  0  0  0  0  0  0
    9.4996   23.8119    2.5468 C   0  0  0  0  0  0  0  0  0  0  0  0
    8.4826   22.8999    3.1077 C   0  0  0  0  0  0  0  0  0  0  0  0
    7.0376   23.2620    2.9987 C   0  0  0  0  0  0  0  0  0  0  0  0
    6.6406   24.5379    2.3227 C   0  0  0  0  0  0  0  0  0  0  0  0
    7.7055   25.4256    1.7714 C   0  0  0  0  0  0  0  0  0  0  0  0
    9.0920   25.0546    1.8929 C   0  0  0  0  0  0  0  0  0  0  0  0
    6.0220   22.3743    3.5545 F   0  0  0  0  0  0  0  0  0  0  0  0
 25 26  2  0  0  0
 25 30  1  0  0  0
 25 24  1  0  0  0
 26 27  1  0  0  0
 27 28  2  0  0  0
 28 29  1  0  0  0
 29 30  2  0  0  0
 29 31  1  0  0  0
 50 51  2  0  0  0
 50 55  1  0  0  0
 50 49  1  0  0  0
 51 52  1  0  0  0
 52 53  2  0  0  0
 52 56  1  0  0  0
 53 54  1  0  0  0
 54 55  2  0  0  0
 49 48  1  0  0  0
 48 32  1  0  0  0
 32  1  1  0  0  0
 32 33  1  0  0  0
  1  4  1  0  0  0
  1  2  1  0  0  0
  4  7  1  0  0  0
  4  5  1  0  0  0
  7  8  1  0  0  0
  7 23  1  0  0  0
  8  9  2  0  0  0
  8 10  1  0  0  0
 10 12  1  0  0  0
 23 24  1  0  0  0
 33 34  2  0  0  0
 33 35  1  0  0  0
 35 37  1  0  0  0
 37 38  1  0  0  0
 37 43  1  0  0  0
 38 39  2  0  0  0
 38 40  1  0  0  0
 39 45  1  0  0  0
 39 46  1  0  0  0
 40 41  2  0  0  0
 41 42  1  0  0  0
 42 45  2  0  0  0
 43 44  1  0  0  0
 43 46  1  0  0  0
 12 13  1  0  0  0
 12 18  1  0  0  0
 13 14  2  0  0  0
 13 15  1  0  0  0
 14 20  1  0  0  0
 14 21  1  0  0  0
 15 16  2  0  0  0
 16 17  1  0  0  0
 17 20  2  0  0  0
 18 19  1  0  0  0
 18 21  1  0  0  0
 10 11  1  0  0  0
  5  6  1  0  0  0
  2  3  1  0  0  0
 35 36  1  0  0  0
 44 47  1  0  0  0
 19 22  1  0  0  0
M  END
> <minimizedAffinity>
-12.23670

$$$$
1W5V_BE3_A_1100


 56 61  0  0  0  0  0  0  0  0999 V2000
   14.1289   22.8970    5.2405 C   0  0  0  0  0  0  0  0  0  0  0  0
   14.8678   24.0558    4.6701 O   0  0  0  0  0  0  0  0  0  0  0  0
   15.2221   24.5999    5.3908 H   0  0  0  0  0  0  0  0  0  0  0  0
   13.0579   23.4429    6.0854 C   0  0  0  0  0  0  0  0  0  0  0  0
   13.6345   24.3627    7.0476 O   0  0  0  0  0  0  0  0  0  0  0  0
   14.0888   25.0794    6.5777 H   0  0  0  0  0  0  0  0  0  0  0  0
   11.9510   24.0923    5.1598 C   0  0  0  0  0  0  0  0  0  0  0  0
   10.6041   24.2845    5.8376 C   0  0  0  0  0  0  0  0  0  0  0  0
   10.1180   23.3856    6.5564 O   0  0  0  0  0  0  0  0  0  0  0  0
    9.9269   25.4541    5.6333 N   0  0  0  0  0  0  0  0  0  0  0  0
   10.3457   26.1330    5.0564 H   0  0  0  0  0  0  0  0  0  0  0  0
    8.6348   25.7607    6.2089 C   0  0  0  0  0  0  0  0  0  0  0  0
    8.7435   26.4626    7.5602 C   0  0  0  0  0  0  0  0  0  0  0  0
    7.6851   27.4557    7.6703 C   0  0  0  0  0  0  0  0  0  0  0  0
    9.7044   26.2724    8.6567 C   0  0  0  0  0  0  0  0  0  0  0  0
    9.5857   27.1096    9.8897 C   0  0  0  0  0  0  0  0  0  0  0  0
    8.5095   28.1081    9.9781 C   0  0  0  0  0  0  0  0  0  0  0  0
    7.8421   26.8171    5.3872 C   0  0  0  0  0  0  0  0  0  0  0  0
    8.7975   27.7775    4.8711 O   0  0  0  0  0  0  0  0  0  0  0  0
    7.5499   28.2980    8.8839 C   0  0  0  0  0  0  0  0  0  0  0  0
    6.8709   27.4206    6.4133 C   0  0  0  0  0  0  0  0  0  0  0  0
    9.3118   28.1484    5.6051 H   0  0  0  0  0  0  0  0  0  0  0  0
   11.7675   23.3400    3.8761 O   0  0  0  0  0  0  0  0  0  0  0  0
   11.2890   24.0699    2.7035 C   0  0  0  0  0  0  0  0  0  0  0  0
    9.7552   24.1045    2.5867 C   0  0  0  0  0  0  0  0  0  0  0  0
    9.1651   25.2510    1.8702 C   0  0  0  0  0  0  0  0  0  0  0  0
    7.7308   25.4108    1.6940 C   0  0  0  0  0  0  0  0  0  0  0  0
    6.8038   24.4110    2.2393 C   0  0  0  0  0  0  0  0  0  0  0  0
    7.3544   23.2426    2.9675 C   0  0  0  0  0  0  0  0  0  0  0  0
    8.8003   23.0926    3.1384 C   0  0  0  0  0  0  0  0  0  0  0  0
    6.4479   22.2365    3.5198 F   0  0  0  0  0  0  0  0  0  0  0  0
   15.0275   21.9960    6.0599 C   0  0  0  0  0  0  0  0  0  0  0  0
   15.6200   21.1453    4.9872 C   0  0  0  0  0  0  0  0  0  0  0  0
   15.2309   21.3103    3.8084 O   0  0  0  0  0  0  0  0  0  0  0  0
   16.5465   20.2144    5.3452 N   0  0  0  0  0  0  0  0  0  0  0  0
   16.7987   20.1489    6.2946 H   0  0  0  0  0  0  0  0  0  0  0  0
   17.1804   19.3161    4.4047 C   0  0  0  0  0  0  0  0  0  0  0  0
   17.7991   18.1632    5.1176 C   0  0  0  0  0  0  0  0  0  0  0  0
   17.7053   16.9605    4.2870 C   0  0  0  0  0  0  0  0  0  0  0  0
   18.4374   18.1090    6.4433 C   0  0  0  0  0  0  0  0  0  0  0  0
   18.9865   16.8032    6.9260 C   0  0  0  0  0  0  0  0  0  0  0  0
   18.8745   15.6156    6.0702 C   0  0  0  0  0  0  0  0  0  0  0  0
   16.2360   18.5765    3.4212 C   0  0  0  0  0  0  0  0  0  0  0  0
   15.0017   18.3067    4.1140 O   0  0  0  0  0  0  0  0  0  0  0  0
   18.2388   15.6708    4.7461 C   0  0  0  0  0  0  0  0  0  0  0  0
   17.0298   17.2971    3.0175 C   0  0  0  0  0  0  0  0  0  0  0  0
   15.1886   17.8096    4.9258 H   0  0  0  0  0  0  0  0  0  0  0  0
   14.3199   21.2616    7.1919 O   0  0  0  0  0  0  0  0  0  0  0  0
   14.7121   21.5709    8.5609 C   0  0  0  0  0  0  0  0  0  0  0  0
   15.8969   20.7741    9.0501 C   0  0  0  0  0  0  0  0  0  0  0  0
   15.7562   19.4592    9.7073 C   0  0  0  0  0  0  0  0  0  0  0  0
   16.9821   18.7272   10.1458 C   0  0  0  0  0  0  0  0  0  0  0  0
   18.3316   19.3346    9.9169 C   0  0  0  0  0  0  0  0  0  0  0  0
   18.4213   20.6659    9.2493 C   0  0  0  0  0  0  0  0  0  0  0  0
   17.2236   21.3492    8.8330 C   0  0  0  0  0  0  0  0  0  0  0  0
   16.8590   17.4240   10.7899 F   0  0  0  0  0  0  0  0  0  0  0  0
 25 26  2  0  0  0
 25 30  1  0  0  0
 25 24  1  0  0  0
 26 27  1  0  0  0
 27 28  2  0  0  0
 28 29  1  0  0  0
 29 30  2  0  0  0
 29 31  1  0  0  0
 50 51  2  0  0  0
 50 55  1  0  0  0
 50 49  1  0  0  0
 51 52  1  0  0  0
 52 53  2  0  0  0
 52 56  1  0  0  0
 53 54  1  0  0  0
 54 55  2  0  0  0
 49 48  1  0  0  0
 48 32  1  0  0  0
 32  1  1  0  0  0
 32 33  1  0  0  0
  1  4  1  0  0  0
  1  2  1  0  0  0
  4  7  1  0  0  0
  4  5  1  0  0  0
  7  8  1  0  0  0
  7 23  1  0  0  0
  8  9  2  0  0  0
  8 10  1  0  0  0
 10 12  1  0  0  0
 23 24  1  0  0  0
 33 34  2  0  0  0
 33 35  1  0  0  0
 35 37  1  0  0  0
 37 38  1  0  0  0
 37 43  1  0  0  0
 38 39  2  0  0  0
 38 40  1  0  0  0
 39 45  1  0  0  0
 39 46  1  0  0  0
 40 41  2  0  0  0
 41 42  1  0  0  0
 42 45  2  0  0  0
 43 44  1  0  0  0
 43 46  1  0  0  0
 12 13  1  0  0  0
 12 18  1  0  0  0
 13 14  2  0  0  0
 13 15  1  0  0  0
 14 20  1  0  0  0
 14 21  1  0  0  0
 15 16  2  0  0  0
 16 17  1  0  0  0
 17 20  2  0  0  0
 18 19  1  0  0  0
 18 21  1  0  0  0
 10 11  1  0  0  0
  5  6  1  0  0  0
  2  3  1  0  0  0
 35 36  1  0  0  0
 44 47  1  0  0  0
 19 22  1  0  0  0
M  END
> <minimizedAffinity>
-11.91336

$$$$
1W5V_BE3_A_1100


 56 61  0  0  0  0  0  0  0  0999 V2000
   14.7931   21.2991    8.3586 C   0  0  0  0  0  0  0  0  0  0  0  0
   13.9668   21.6387    9.5486 O   0  0  0  0  0  0  0  0  0  0  0  0
   14.2836   22.4697    9.9358 H   0  0  0  0  0  0  0  0  0  0  0  0
   16.1844   21.1883    8.8180 C   0  0  0  0  0  0  0  0  0  0  0  0
   16.2379   21.4646   10.2410 O   0  0  0  0  0  0  0  0  0  0  0  0
   15.6772   20.8307   10.7148 H   0  0  0  0  0  0  0  0  0  0  0  0
   16.7478   19.7647    8.4186 C   0  0  0  0  0  0  0  0  0  0  0  0
   16.7297   18.7467    9.5472 C   0  0  0  0  0  0  0  0  0  0  0  0
   15.6802   18.5224   10.1868 O   0  0  0  0  0  0  0  0  0  0  0  0
   17.8881   18.0917    9.8596 N   0  0  0  0  0  0  0  0  0  0  0  0
   18.6920   18.3025    9.3319 H   0  0  0  0  0  0  0  0  0  0  0  0
   18.0111   17.1087   10.9149 C   0  0  0  0  0  0  0  0  0  0  0  0
   18.4488   15.7408   10.3976 C   0  0  0  0  0  0  0  0  0  0  0  0
   19.3456   15.1273   11.3660 C   0  0  0  0  0  0  0  0  0  0  0  0
   18.1053   15.0403    9.1512 C   0  0  0  0  0  0  0  0  0  0  0  0
   18.6861   13.6885    8.8856 C   0  0  0  0  0  0  0  0  0  0  0  0
   19.5913   13.0888    9.8776 C   0  0  0  0  0  0  0  0  0  0  0  0
   19.1607   17.4323   11.9115 C   0  0  0  0  0  0  0  0  0  0  0  0
   20.2507   18.0102   11.1503 O   0  0  0  0  0  0  0  0  0  0  0  0
   19.9342   13.7876   11.1218 C   0  0  0  0  0  0  0  0  0  0  0  0
   19.5063   16.0657   12.5226 C   0  0  0  0  0  0  0  0  0  0  0  0
   20.5024   17.4047   10.4355 H   0  0  0  0  0  0  0  0  0  0  0  0
   18.1241   19.8406    7.8291 O   0  0  0  0  0  0  0  0  0  0  0  0
   18.2538   20.0366    6.3863 C   0  0  0  0  0  0  0  0  0  0  0  0
   18.3042   18.7205    5.5909 C   0  0  0  0  0  0  0  0  0  0  0  0
   18.5996   17.4912    6.3507 C   0  0  0  0  0  0  0  0  0  0  0  0
   18.6840   16.1828    5.7223 C   0  0  0  0  0  0  0  0  0  0  0  0
   18.4739   16.0435    4.2757 C   0  0  0  0  0  0  0  0  0  0  0  0
   18.1751   17.2539    3.4733 C   0  0  0  0  0  0  0  0  0  0  0  0
   18.0926   18.5658    4.1173 C   0  0  0  0  0  0  0  0  0  0  0  0
   17.9642   17.1368    2.0307 F   0  0  0  0  0  0  0  0  0  0  0  0
   14.6874   22.3489    7.2734 C   0  0  0  0  0  0  0  0  0  0  0  0
   13.2060   22.4521    7.1308 C   0  0  0  0  0  0  0  0  0  0  0  0
   12.5453   21.4011    6.9665 O   0  0  0  0  0  0  0  0  0  0  0  0
   12.6428   23.6909    7.1687 N   0  0  0  0  0  0  0  0  0  0  0  0
   13.2331   24.4674    7.3024 H   0  0  0  0  0  0  0  0  0  0  0  0
   11.2229   23.9272    7.0230 C   0  0  0  0  0  0  0  0  0  0  0  0
   10.8224   25.1690    7.7425 C   0  0  0  0  0  0  0  0  0  0  0  0
    9.7383   25.8336    7.0154 C   0  0  0  0  0  0  0  0  0  0  0  0
   11.3488   25.7449    8.9910 C   0  0  0  0  0  0  0  0  0  0  0  0
   10.7573   27.0211    9.5018 C   0  0  0  0  0  0  0  0  0  0  0  0
    9.6733   27.6635    8.7483 C   0  0  0  0  0  0  0  0  0  0  0  0
   10.7258   24.2490    5.5892 C   0  0  0  0  0  0  0  0  0  0  0  0
   11.7585   25.0013    4.9232 O   0  0  0  0  0  0  0  0  0  0  0  0
    9.1469   27.0871    7.5028 C   0  0  0  0  0  0  0  0  0  0  0  0
    9.4042   25.0451    5.8121 C   0  0  0  0  0  0  0  0  0  0  0  0
   11.9753   25.7877    5.4480 H   0  0  0  0  0  0  0  0  0  0  0  0
   15.4679   22.0251    6.0056 O   0  0  0  0  0  0  0  0  0  0  0  0
   14.7418   21.9931    4.7425 C   0  0  0  0  0  0  0  0  0  0  0  0
   14.7236   20.6350    4.0845 C   0  0  0  0  0  0  0  0  0  0  0  0
   14.8048   20.4577    2.6207 C   0  0  0  0  0  0  0  0  0  0  0  0
   14.7988   19.0771    2.0508 C   0  0  0  0  0  0  0  0  0  0  0  0
   14.7080   17.8959    2.9670 C   0  0  0  0  0  0  0  0  0  0  0  0
   14.6271   18.1271    4.4387 C   0  0  0  0  0  0  0  0  0  0  0  0
   14.6384   19.4688    4.9625 C   0  0  0  0  0  0  0  0  0  0  0  0
   14.8859   18.8863    0.6071 F   0  0  0  0  0  0  0  0  0  0  0  0
 25 26  2  0  0  0
 25 30  1  0  0  0
 25 24  1  0  0  0
 26 27  1  0  0  0
 27 28  2  0  0  0
 28 29  1  0  0  0
 29 30  2  0  0  0
 29 31  1  0  0  0
 50 51  2  0  0  0
 50 55  1  0  0  0
 50 49  1  0  0  0
 51 52  1  0  0  0
 52 53  2  0  0  0
 52 56  1  0  0  0
 53 54  1  0  0  0
 54 55  2  0  0  0
 49 48  1  0  0  0
 48 32  1  0  0  0
 32  1  1  0  0  0
 32 33  1  0  0  0
  1  4  1  0  0  0
  1  2  1  0  0  0
  4  7  1  0  0  0
  4  5  1  0  0  0
  7  8  1  0  0  0
  7 23  1  0  0  0
  8  9  2  0  0  0
  8 10  1  0  0  0
 10 12  1  0  0  0
 23 24  1  0  0  0
 33 34  2  0  0  0
 33 35  1  0  0  0
 35 37  1  0  0  0
 37 38  1  0  0  0
 37 43  1  0  0  0
 38 39  2  0  0  0
 38 40  1  0  0  0
 39 45  1  0  0  0
 39 46  1  0  0  0
 40 41  2  0  0  0
 41 42  1  0  0  0
 42 45  2  0  0  0
 43 44  1  0  0  0
 43 46  1  0  0  0
 12 13  1  0  0  0
 12 18  1  0  0  0
 13 14  2  0  0  0
 13 15  1  0  0  0
 14 20  1  0  0  0
 14 21  1  0  0  0
 15 16  2  0  0  0
 16 17  1  0  0  0
 17 20  2  0  0  0
 18 19  1  0  0  0
 18 21  1  0  0  0
 10 11  1  0  0  0
  5  6  1  0  0  0
  2  3  1  0  0  0
 35 36  1  0  0  0
 44 47  1  0  0  0
 19 22  1  0  0  0
M  END
> <minimizedAffinity>
-11.82336

$$$$
1W5V_BE3_A_1100


 56 61  0  0  0  0  0  0  0  0999 V2000
   16.6291   21.0715    7.6029 C   0  0  0  0  0  0  0  0  0  0  0  0
   17.4565   22.3019    7.7284 O   0  0  0  0  0  0  0  0  0  0  0  0
   17.4734   22.5871    8.6554 H   0  0  0  0  0  0  0  0  0  0  0  0
   15.2846   21.4051    8.0928 C   0  0  0  0  0  0  0  0  0  0  0  0
   15.3563   21.7037    9.5105 O   0  0  0  0  0  0  0  0  0  0  0  0
   15.9597   22.4496    9.6537 H   0  0  0  0  0  0  0  0  0  0  0  0
   14.6941   22.5836    7.2174 C   0  0  0  0  0  0  0  0  0  0  0  0
   13.1757   22.6496    7.2015 C   0  0  0  0  0  0  0  0  0  0  0  0
   12.4916   21.6044    7.2276 O   0  0  0  0  0  0  0  0  0  0  0  0
   12.5720   23.8746    7.1425 N   0  0  0  0  0  0  0  0  0  0  0  0
   13.1501   24.6712    7.1196 H   0  0  0  0  0  0  0  0  0  0  0  0
   11.1394   24.0783    7.1113 C   0  0  0  0  0  0  0  0  0  0  0  0
   10.7090   25.3487    7.8401 C   0  0  0  0  0  0  0  0  0  0  0  0
    9.6002   25.9601    7.1223 C   0  0  0  0  0  0  0  0  0  0  0  0
   11.2374   25.9690    9.0640 C   0  0  0  0  0  0  0  0  0  0  0  0
   10.6250   27.2367    9.5673 C   0  0  0  0  0  0  0  0  0  0  0  0
    9.5067   27.8375    8.8246 C   0  0  0  0  0  0  0  0  0  0  0  0
   10.5996   24.3585    5.6797 C   0  0  0  0  0  0  0  0  0  0  0  0
   11.5915   25.1559    4.9857 O   0  0  0  0  0  0  0  0  0  0  0  0
    8.9788   27.2184    7.6031 C   0  0  0  0  0  0  0  0  0  0  0  0
    9.2837   25.1113    5.9291 C   0  0  0  0  0  0  0  0  0  0  0  0
   11.7833   25.9544    5.5020 H   0  0  0  0  0  0  0  0  0  0  0  0
   15.2135   22.5652    5.8112 O   0  0  0  0  0  0  0  0  0  0  0  0
   14.2687   22.3194    4.7231 C   0  0  0  0  0  0  0  0  0  0  0  0
   14.4654   20.9566    4.0365 C   0  0  0  0  0  0  0  0  0  0  0  0
   14.4014   19.7596    4.8961 C   0  0  0  0  0  0  0  0  0  0  0  0
   14.5773   18.4125    4.3780 C   0  0  0  0  0  0  0  0  0  0  0  0
   14.8318   18.1988    2.9477 C   0  0  0  0  0  0  0  0  0  0  0  0
   14.9047   19.3746    2.0475 C   0  0  0  0  0  0  0  0  0  0  0  0
   14.7260   20.7259    2.5807 C   0  0  0  0  0  0  0  0  0  0  0  0
   15.1591   19.1833    0.6200 F   0  0  0  0  0  0  0  0  0  0  0  0
   17.1997   19.9178    8.3992 C   0  0  0  0  0  0  0  0  0  0  0  0
   18.1172   19.3119    7.3909 C   0  0  0  0  0  0  0  0  0  0  0  0
   18.8878   20.0653    6.7531 O   0  0  0  0  0  0  0  0  0  0  0  0
   18.0602   17.9654    7.1991 N   0  0  0  0  0  0  0  0  0  0  0  0
   17.4263   17.4437    7.7425 H   0  0  0  0  0  0  0  0  0  0  0  0
   18.8814   17.2602    6.2392 C   0  0  0  0  0  0  0  0  0  0  0  0
   19.2101   15.8941    6.7351 C   0  0  0  0  0  0  0  0  0  0  0  0
   19.2864   14.9637    5.6065 C   0  0  0  0  0  0  0  0  0  0  0  0
   19.4467   15.4234    8.1100 C   0  0  0  0  0  0  0  0  0  0  0  0
   19.7648   13.9781    8.3324 C   0  0  0  0  0  0  0  0  0  0  0  0
   19.8315   13.0709    7.1800 C   0  0  0  0  0  0  0  0  0  0  0  0
   18.2113   16.9229    4.8815 C   0  0  0  0  0  0  0  0  0  0  0  0
   16.8192   16.6490    5.1330 O   0  0  0  0  0  0  0  0  0  0  0  0
   19.5970   13.5418    5.8075 C   0  0  0  0  0  0  0  0  0  0  0  0
   19.0141   15.6956    4.3529 C   0  0  0  0  0  0  0  0  0  0  0  0
   16.7428   15.9426    5.7934 H   0  0  0  0  0  0  0  0  0  0  0  0
   16.1525   18.9908    9.0038 O   0  0  0  0  0  0  0  0  0  0  0  0
   16.2043   18.7408   10.4385 C   0  0  0  0  0  0  0  0  0  0  0  0
   17.1912   17.6700   10.8352 C   0  0  0  0  0  0  0  0  0  0  0  0
   18.6144   17.9583   11.1040 C   0  0  0  0  0  0  0  0  0  0  0  0
   19.5214   16.8430   11.5095 C   0  0  0  0  0  0  0  0  0  0  0  0
   18.9789   15.4528   11.6347 C   0  0  0  0  0  0  0  0  0  0  0  0
   17.5339   15.2124   11.3516 C   0  0  0  0  0  0  0  0  0  0  0  0
   16.6800   16.3064   10.9658 C   0  0  0  0  0  0  0  0  0  0  0  0
   20.9281   17.1140   11.7853 F   0  0  0  0  0  0  0  0  0  0  0  0
 25 26  2  0  0  0
 25 30  1  0  0  0
 25 24  1  0  0  0
 26 27  1  0  0  0
 27 28  2  0  0  0
 28 29  1  0  0  0
 29 30  2  0  0  0
 29 31  1  0  0  0
 50 51  2  0  0  0
 50 55  1  0  0  0
 50 49  1  0  0  0
 51 52  1  0  0  0
 52 53  2  0  0  0
 52 56  1  0  0  0
 53 54  1  0  0  0
 54 55  2  0  0  0
 49 48  1  0  0  0
 48 32  1  0  0  0
 32  1  1  0  0  0
 32 33  1  0  0  0
  1  4  1  0  0  0
  1  2  1  0  0  0
  4  7  1  0  0  0
  4  5  1  0  0  0
  7  8  1  0  0  0
  7 23  1  0  0  0
  8  9  2  0  0  0
  8 10  1  0  0  0
 10 12  1  0  0  0
 23 24  1  0  0  0
 33 34  2  0  0  0
 33 35  1  0  0  0
 35 37  1  0  0  0
 37 38  1  0  0  0
 37 43  1  0  0  0
 38 39  2  0  0  0
 38 40  1  0  0  0
 39 45  1  0  0  0
 39 46  1  0  0  0
 40 41  2  0  0  0
 41 42  1  0  0  0
 42 45  2  0  0  0
 43 44  1  0  0  0
 43 46  1  0  0  0
 12 13  1  0  0  0
 12 18  1  0  0  0
 13 14  2  0  0  0
 13 15  1  0  0  0
 14 20  1  0  0  0
 14 21  1  0  0  0
 15 16  2  0  0  0
 16 17  1  0  0  0
 17 20  2  0  0  0
 18 19  1  0  0  0
 18 21  1  0  0  0
 10 11  1  0  0  0
  5  6  1  0  0  0
  2  3  1  0  0  0
 35 36  1  0  0  0
 44 47  1  0  0  0
 19 22  1  0  0  0
M  END
> <minimizedAffinity>
-11.55886

$$$$
