1W5V_BE3_A_1100
  RCSB PDB12061704303D
Coordinates from PDB:1W5V:A:1100 Model:1 without hydrogens
 50 55  0  0  0  0            999 V2000
    9.6410   24.0370    2.1640   C 0  0  0  0  0  0  0  0  0  0  0  0
    8.9980   25.2930    1.7340   C 0  0  0  0  0  0  0  0  0  0  0  0
    7.5680   25.5240    1.8590   C 0  0  0  0  0  0  0  0  0  0  0  0
    6.7000   24.4880    2.4330   C 0  0  0  0  0  0  0  0  0  0  0  0
    7.3050   23.2100    2.8790   C 0  0  0  0  0  0  0  0  0  0  0  0
    8.7460   22.9890    2.7480   C 0  0  0  0  0  0  0  0  0  0  0  0
   16.3970   22.0600    8.7660   C 0  0  0  0  0  0  0  0  0  0  0  0
   15.6750   20.9270    9.3790   C 0  0  0  0  0  0  0  0  0  0  0  0
   16.4360   19.7040    9.7740   C 0  0  0  0  0  0  0  0  0  0  0  0
   17.9150   19.6440    9.5470   C 0  0  0  0  0  0  0  0  0  0  0  0
   18.5990   20.8150    8.9250   C 0  0  0  0  0  0  0  0  0  0  0  0
   17.8410   21.9810    8.5500   C 0  0  0  0  0  0  0  0  0  0  0  0
   15.7020   23.3240    8.3220   C 0  0  0  0  0  0  0  0  0  0  0  0
   14.5970   23.0950    7.4000   O 0  0  0  0  0  0  0  0  0  0  0  0
   14.9230   22.5790    6.0040   C 0  0  0  0  0  0  0  0  0  0  0  0
   13.8560   22.8600    4.9680   C 0  0  0  0  0  0  0  0  0  0  0  0
   13.5060   24.2870    4.9800   C 0  0  0  0  0  0  0  0  0  0  0  0
   12.0990   24.4790    4.2820   C 0  0  0  0  0  0  0  0  0  0  0  0
   10.9190   24.4620    5.2400   C 0  0  0  0  0  0  0  0  0  0  0  0
   10.6740   23.4510    5.9320   O 0  0  0  0  0  0  0  0  0  0  0  0
   10.1210   25.5690    5.3190   N 0  0  0  0  0  0  0  0  0  0  0  0
   11.8690   23.4890    3.1800   O 0  0  0  0  0  0  0  0  0  0  0  0
   11.1650   23.9350    1.9790   C 0  0  0  0  0  0  0  0  0  0  0  0
   14.5780   25.0440    4.3620   O 0  0  0  0  0  0  0  0  0  0  0  0
   14.3140   22.5350    3.5900   O 0  0  0  0  0  0  0  0  0  0  0  0
   15.0660   21.1010    5.8610   C 0  0  0  0  0  0  0  0  0  0  0  0
   14.0820   20.3750    6.1310   O 0  0  0  0  0  0  0  0  0  0  0  0
   16.2700   20.6090    5.4590   N 0  0  0  0  0  0  0  0  0  0  0  0
   16.5430   19.1970    5.3010   C 0  0  0  0  0  0  0  0  0  0  0  0
   16.4980   18.8130    3.8620   C 0  0  0  0  0  0  0  0  0  0  0  0
   17.4770   17.7550    3.6020   C 0  0  0  0  0  0  0  0  0  0  0  0
   15.6520   19.3330    2.7750   C 0  0  0  0  0  0  0  0  0  0  0  0
   15.8120   18.7620    1.4010   C 0  0  0  0  0  0  0  0  0  0  0  0
   16.8040   17.7040    1.1730   C 0  0  0  0  0  0  0  0  0  0  0  0
   17.9720   18.7290    5.6820   C 0  0  0  0  0  0  0  0  0  0  0  0
   18.8880   19.7880    5.3420   O 0  0  0  0  0  0  0  0  0  0  0  0
   17.6470   17.1840    2.2590   C 0  0  0  0  0  0  0  0  0  0  0  0
   18.1790   17.4220    4.8580   C 0  0  0  0  0  0  0  0  0  0  0  0
    8.9630   25.6810    6.1800   C 0  0  0  0  0  0  0  0  0  0  0  0
    9.2650   26.4220    7.4800   C 0  0  0  0  0  0  0  0  0  0  0  0
    8.1160   27.2380    7.8440   C 0  0  0  0  0  0  0  0  0  0  0  0
   10.4690   26.4110    8.3240   C 0  0  0  0  0  0  0  0  0  0  0  0
   10.5040   27.2470    9.5630   C 0  0  0  0  0  0  0  0  0  0  0  0
    9.3320   28.0650    9.9100   C 0  0  0  0  0  0  0  0  0  0  0  0
    7.8460   26.5800    5.5770   C 0  0  0  0  0  0  0  0  0  0  0  0
    8.4930   27.6670    4.8690   O 0  0  0  0  0  0  0  0  0  0  0  0
    8.1300   28.0760    9.0680   C 0  0  0  0  0  0  0  0  0  0  0  0
    7.0520   27.0460    6.8070   C 0  0  0  0  0  0  0  0  0  0  0  0
   15.7350   18.5740   10.3740   F 0  0  0  0  0  0  0  0  0  0  0  0
    6.4580   22.1660    3.4550   F 0  0  0  0  0  0  0  0  0  0  0  0
  1  2  2  0  0  0  0
  1  6  1  0  0  0  0
  1 23  1  0  0  0  0
  2  3  1  0  0  0  0
  3  4  2  0  0  0  0
  4  5  1  0  0  0  0
  5  6  2  0  0  0  0
  5 50  1  0  0  0  0
  7  8  2  0  0  0  0
  7 12  1  0  0  0  0
  7 13  1  0  0  0  0
  8  9  1  0  0  0  0
  9 10  2  0  0  0  0
  9 49  1  0  0  0  0
 10 11  1  0  0  0  0
 11 12  2  0  0  0  0
 13 14  1  0  0  0  0
 14 15  1  0  0  0  0
 15 16  1  0  0  0  0
 15 26  1  0  0  0  0
 16 17  1  0  0  0  0
 16 25  1  0  0  0  0
 17 18  1  0  0  0  0
 17 24  1  0  0  0  0
 18 19  1  0  0  0  0
 18 22  1  0  0  0  0
 19 20  2  0  0  0  0
 19 21  1  0  0  0  0
 21 39  1  0  0  0  0
 22 23  1  0  0  0  0
 26 27  2  0  0  0  0
 26 28  1  0  0  0  0
 28 29  1  0  0  0  0
 29 30  1  0  0  0  0
 29 35  1  0  0  0  0
 30 31  2  0  0  0  0
 30 32  1  0  0  0  0
 31 37  1  0  0  0  0
 31 38  1  0  0  0  0
 32 33  2  0  0  0  0
 33 34  1  0  0  0  0
 34 37  2  0  0  0  0
 35 36  1  0  0  0  0
 35 38  1  0  0  0  0
 39 40  1  0  0  0  0
 39 45  1  0  0  0  0
 40 41  2  0  0  0  0
 40 42  1  0  0  0  0
 41 47  1  0  0  0  0
 41 48  1  0  0  0  0
 42 43  2  0  0  0  0
 43 44  1  0  0  0  0
 44 47  2  0  0  0  0
 45 46  1  0  0  0  0
 45 48  1  0  0  0  0
A    1
C01
A    2
C02
A    3
C03
A    4
C04
A    5
C05
A    6
C06
A    7
C07
A    8
C08
A    9
C09
A   10
C10
A   11
C11
A   12
C12
A   13
C13
A   14
O14
A   15
C15
A   16
C16
A   17
C17
A   18
C18
A   19
C19
A   20
O20
A   21
N21
A   22
O22
A   23
C23
A   24
O24
A   25
O25
A   26
C26
A   27
O27
A   28
N28
A   29
C29
A   30
C30
A   31
C31
A   32
C32
A   33
C33
A   34
C34
A   35
C35
A   36
O36
A   37
C37
A   38
C38
A   39
C39
A   40
C40
A   41
C41
A   42
C42
A   43
C43
A   44
C44
A   45
C45
A   46
O46
A   47
C47
A   48
C48
A   49
F49
A   50
F50
M  END
>  <InstanceId>
1W5V_BE3_A_1100

>  <ChemCompId>
BE3

>  <PdbId>
1W5V

>  <ChainId>
A

>  <ResidueNumber>
1100

>  <InsertionCode>


>  <Model>
1

>  <AltIds>


>  <MissingHeavyAtoms>
0

>  <ObservedFormula>
C38 N2 O8 F2

>  <Name>
N,N-[2,5-O-DI-3-FLUORO-BENZYL-GLUCARYL]-DI-[1-AMINO-INDAN-2-OL]

>  <SystematicName>
(2R,3R,4R,5R)-2,5-bis[(3-fluorophenyl)methoxy]-3,4-dihydroxy-N,N'-bis[(1S,2R)-2-hydroxy-2,3-dihydro-1H-inden-1-yl]hexanediamide

>  <Synonyms>
INHIBITOR BEA403

>  <Type>
NON-POLYMER

>  <Formula>
C38 H38 F2 N2 O8

>  <MolecularWeight>
688.714

>  <ModifiedDate>
2011-06-04

>  <Parent>


>  <OneLetterCode>


>  <SubcomponentList>


>  <AmbiguousFlag>
N

>  <InChI>
InChI=1S/C38H38F2N2O8/c39-25-11-5-7-21(15-25)19-49-35(37(47)41-31-27-13-3-1-9-23(27)17-29(31)43)33(45)34(46)36(50-20-22-8-6-12-26(40)16-22)38(48)42-32-28-14-4-2-10-24(28)18-30(32)44/h1-16,29-36,43-46H,17-20H2,(H,41,47)(H,42,48)/t29-,30-,31+,32+,33-,34-,35-,36-/m1/s1

>  <InChIKey>
FSNSRNCFARXZOP-JQFCFGFHSA-N

>  <SMILES>
c1ccc2c(c1)C[C@H]([C@H]2NC(=O)[C@@H]([C@@H]([C@H]([C@H](C(=O)N[C@H]3c4ccccc4C[C@H]3O)OCc5cccc(c5)F)O)O)OCc6cccc(c6)F)O

$$$$
