5MRB_C5N_A_901


 45 50  0  0  0  0  0  0  0  0999 V2000
   -1.0073   -9.8959  -18.5292 C   0  0  0  0  0  0  0  0  0  0  0  0
   -1.0120   -9.8389  -19.8824 N   0  0  0  0  0  0  0  0  0  0  0  0
   -0.3603  -10.7866  -20.5298 C   0  0  0  0  0  0  0  0  0  0  0  0
    0.3027  -11.8685  -19.8230 C   0  0  0  0  0  0  0  0  0  0  0  0
    1.0605  -12.9670  -20.5355 C   0  0  0  0  0  0  0  0  0  0  0  0
    1.4429  -14.2178  -19.7477 C   0  0  0  0  0  0  0  0  0  0  0  0
    1.4398  -14.0189  -18.2611 C   0  0  0  0  0  0  0  0  0  0  0  0
    0.8769  -12.9074  -17.6779 C   0  0  0  0  0  0  0  0  0  0  0  0
    1.0029  -13.0499  -16.3368 N   0  0  0  0  0  0  0  0  0  0  0  0
    0.5853  -12.1578  -15.2682 C   0  0  0  0  0  0  0  0  0  0  0  0
    1.6470  -14.2224  -16.0625 N   0  0  0  0  0  0  0  0  0  0  0  0
    1.9025  -14.7981  -17.2265 C   0  0  0  0  0  0  0  0  0  0  0  0
    0.2486  -11.8435  -18.4349 C   0  0  0  0  0  0  0  0  0  0  0  0
   -0.4126  -10.8676  -17.7891 N   0  0  0  0  0  0  0  0  0  0  0  0
    2.9727  -16.5479  -18.3575 O   0  0  0  0  0  0  0  0  0  0  0  0
    2.5952  -16.0914  -17.2790 C   0  0  0  0  0  0  0  0  0  0  0  0
    2.7922  -16.7094  -16.0881 N   0  0  0  0  0  0  0  0  0  0  0  0
    2.4168  -16.2839  -15.2836 H   0  0  0  0  0  0  0  0  0  0  0  0
    3.5070  -17.9360  -15.9199 C   0  0  0  0  0  0  0  0  0  0  0  0
    4.9061  -17.9182  -15.9264 C   0  0  0  0  0  0  0  0  0  0  0  0
    5.5714  -19.1283  -15.7185 C   0  0  0  0  0  0  0  0  0  0  0  0
    4.8824  -20.3005  -15.4963 C   0  0  0  0  0  0  0  0  0  0  0  0
    3.5060  -20.2896  -15.4745 C   0  0  0  0  0  0  0  0  0  0  0  0
    2.7852  -19.1084  -15.6693 C   0  0  0  0  0  0  0  0  0  0  0  0
    5.7010  -16.6535  -16.1533 C   0  0  0  0  0  0  0  0  0  0  0  0
    6.0939  -15.9139  -14.9019 C   0  0  0  0  0  0  0  0  0  0  0  0
    1.2765  -19.1375  -15.6350 C   0  0  0  0  0  0  0  0  0  0  0  0
    0.6384  -19.6734  -16.8879 C   0  0  0  0  0  0  0  0  0  0  0  0
   -1.6586   -8.9277  -17.8293 N   0  0  0  0  0  0  0  0  0  0  0  0
   -2.0587   -8.2108  -18.3727 H   0  0  0  0  0  0  0  0  0  0  0  0
   -1.6262   -7.5518  -15.8323 C   0  0  0  0  0  0  0  0  0  0  0  0
   -1.8056   -7.4173  -14.4613 C   0  0  0  0  0  0  0  0  0  0  0  0
   -2.1896   -8.5033  -13.6819 C   0  0  0  0  0  0  0  0  0  0  0  0
   -2.3943   -9.7439  -14.2932 C   0  0  0  0  0  0  0  0  0  0  0  0
   -2.2313   -9.8938  -15.6500 C   0  0  0  0  0  0  0  0  0  0  0  0
   -1.8431   -8.8041  -16.4290 C   0  0  0  0  0  0  0  0  0  0  0  0
   -2.3353   -8.3444  -12.2893 N   0  0  0  0  0  0  0  0  0  0  0  0
   -1.3667   -8.9731  -11.3806 C   0  0  0  0  0  0  0  0  0  0  0  0
   -1.9971   -9.4707  -10.0998 C   0  0  0  0  0  0  0  0  0  0  0  0
   -2.8402   -8.4413   -9.4889 N   0  0  0  0  0  0  0  0  0  0  0  0
   -3.3689   -8.8837   -8.1949 C   0  0  0  0  0  0  0  0  0  0  0  0
   -3.9230   -8.1114  -10.4175 C   0  0  0  0  0  0  0  0  0  0  0  0
   -3.3720   -7.5040  -11.6847 C   0  0  0  0  0  0  0  0  0  0  0  0
   -1.2397   -6.5354  -16.6562 O   0  0  0  0  0  0  0  0  0  0  0  0
   -1.2539   -5.2016  -16.1534 C   0  0  0  0  0  0  0  0  0  0  0  0
  5  4  1  0  0  0
  5  6  1  0  0  0
  3  2  1  0  0  0
  3  4  2  0  0  0
  2  1  2  0  0  0
  4 13  1  0  0  0
  6  7  1  0  0  0
  1 29  1  0  0  0
  1 14  1  0  0  0
 13 14  2  0  0  0
 13  8  1  0  0  0
 15 16  2  0  0  0
  7  8  2  0  0  0
  7 12  1  0  0  0
 29 36  1  0  0  0
  8  9  1  0  0  0
 16 12  1  0  0  0
 16 17  1  0  0  0
 12 11  2  0  0  0
 44 45  1  0  0  0
 44 31  1  0  0  0
 25 20  1  0  0  0
 25 26  1  0  0  0
 36 31  2  0  0  0
 36 35  1  0  0  0
  9 11  1  0  0  0
  9 10  1  0  0  0
 20 21  2  0  0  0
 20 19  1  0  0  0
 17 19  1  0  0  0
 21 22  1  0  0  0
 19 24  2  0  0  0
 31 32  1  0  0  0
 22 23  2  0  0  0
 24 23  1  0  0  0
 24 27  1  0  0  0
 27 28  1  0  0  0
 35 34  2  0  0  0
 32 33  2  0  0  0
 34 33  1  0  0  0
 33 37  1  0  0  0
 37 38  1  0  0  0
 37 43  1  0  0  0
 38 39  1  0  0  0
 43 42  1  0  0  0
 39 40  1  0  0  0
 42 40  1  0  0  0
 40 41  1  0  0  0
 29 30  1  0  0  0
 17 18  1  0  0  0
M  END
> <minimizedAffinity>
-10.81035

$$$$
5MRB_C5N_A_901


 45 50  0  0  0  0  0  0  0  0999 V2000
   -0.9781   -9.8952  -18.5214 C   0  0  0  0  0  0  0  0  0  0  0  0
   -0.9938   -9.8509  -19.8750 N   0  0  0  0  0  0  0  0  0  0  0  0
   -0.3528  -10.8084  -20.5188 C   0  0  0  0  0  0  0  0  0  0  0  0
    0.3102  -11.8872  -19.8074 C   0  0  0  0  0  0  0  0  0  0  0  0
    1.0559  -12.9966  -20.5157 C   0  0  0  0  0  0  0  0  0  0  0  0
    1.4380  -14.2420  -19.7192 C   0  0  0  0  0  0  0  0  0  0  0  0
    1.4485  -14.0290  -18.2347 C   0  0  0  0  0  0  0  0  0  0  0  0
    0.8966  -12.9090  -17.6574 C   0  0  0  0  0  0  0  0  0  0  0  0
    1.0330  -13.0395  -16.3160 N   0  0  0  0  0  0  0  0  0  0  0  0
    0.6293  -12.1350  -15.2525 C   0  0  0  0  0  0  0  0  0  0  0  0
    1.6730  -14.2129  -16.0360 N   0  0  0  0  0  0  0  0  0  0  0  0
    1.9156  -14.8010  -17.1966 C   0  0  0  0  0  0  0  0  0  0  0  0
    0.2678  -11.8488  -18.4191 C   0  0  0  0  0  0  0  0  0  0  0  0
   -0.3826  -10.8632  -17.7771 N   0  0  0  0  0  0  0  0  0  0  0  0
    2.9449  -16.5787  -18.3220 O   0  0  0  0  0  0  0  0  0  0  0  0
    2.6008  -16.0986  -17.2426 C   0  0  0  0  0  0  0  0  0  0  0  0
    2.8292  -16.6933  -16.0455 N   0  0  0  0  0  0  0  0  0  0  0  0
    2.4792  -16.2497  -15.2393 H   0  0  0  0  0  0  0  0  0  0  0  0
    3.5431  -17.9198  -15.8729 C   0  0  0  0  0  0  0  0  0  0  0  0
    2.8268  -19.1113  -15.7149 C   0  0  0  0  0  0  0  0  0  0  0  0
    3.5564  -20.2955  -15.5898 C   0  0  0  0  0  0  0  0  0  0  0  0
    4.9333  -20.3018  -15.6368 C   0  0  0  0  0  0  0  0  0  0  0  0
    5.6157  -19.1193  -15.8131 C   0  0  0  0  0  0  0  0  0  0  0  0
    4.9402  -17.9038  -15.9512 C   0  0  0  0  0  0  0  0  0  0  0  0
    1.3170  -19.1512  -15.6709 C   0  0  0  0  0  0  0  0  0  0  0  0
    0.6562  -19.6779  -16.9172 C   0  0  0  0  0  0  0  0  0  0  0  0
    5.7247  -16.6290  -16.1459 C   0  0  0  0  0  0  0  0  0  0  0  0
    6.0559  -15.9042  -14.8696 C   0  0  0  0  0  0  0  0  0  0  0  0
   -1.6182   -8.9168  -17.8253 N   0  0  0  0  0  0  0  0  0  0  0  0
   -1.9979   -8.1903  -18.3705 H   0  0  0  0  0  0  0  0  0  0  0  0
   -1.6053   -7.5428  -15.8268 C   0  0  0  0  0  0  0  0  0  0  0  0
   -1.7979   -7.4096  -14.4575 C   0  0  0  0  0  0  0  0  0  0  0  0
   -2.1892   -8.4964  -13.6828 C   0  0  0  0  0  0  0  0  0  0  0  0
   -2.3878   -9.7365  -14.2973 C   0  0  0  0  0  0  0  0  0  0  0  0
   -2.2118   -9.8850  -15.6526 C   0  0  0  0  0  0  0  0  0  0  0  0
   -1.8162   -8.7946  -16.4267 C   0  0  0  0  0  0  0  0  0  0  0  0
   -2.3484   -8.3387  -12.2915 N   0  0  0  0  0  0  0  0  0  0  0  0
   -1.3960   -8.9790  -11.3738 C   0  0  0  0  0  0  0  0  0  0  0  0
   -2.0452   -9.4728  -10.1009 C   0  0  0  0  0  0  0  0  0  0  0  0
   -2.8844   -8.4362   -9.4969 N   0  0  0  0  0  0  0  0  0  0  0  0
   -3.4315   -8.8758   -8.2097 C   0  0  0  0  0  0  0  0  0  0  0  0
   -3.9538   -8.0934  -10.4365 C   0  0  0  0  0  0  0  0  0  0  0  0
   -3.3830   -7.4892  -11.6964 C   0  0  0  0  0  0  0  0  0  0  0  0
   -1.2110   -6.5256  -16.6460 O   0  0  0  0  0  0  0  0  0  0  0  0
   -1.2506   -5.1900  -16.1493 C   0  0  0  0  0  0  0  0  0  0  0  0
  5  4  1  0  0  0
  5  6  1  0  0  0
  3  2  1  0  0  0
  3  4  2  0  0  0
  2  1  2  0  0  0
  4 13  1  0  0  0
  6  7  1  0  0  0
  1 29  1  0  0  0
  1 14  1  0  0  0
 13 14  2  0  0  0
 13  8  1  0  0  0
 15 16  2  0  0  0
  7  8  2  0  0  0
  7 12  1  0  0  0
 29 36  1  0  0  0
  8  9  1  0  0  0
 16 12  1  0  0  0
 16 17  1  0  0  0
 12 11  2  0  0  0
 44 45  1  0  0  0
 44 31  1  0  0  0
 25 20  1  0  0  0
 25 26  1  0  0  0
 36 31  2  0  0  0
 36 35  1  0  0  0
  9 11  1  0  0  0
  9 10  1  0  0  0
 20 21  2  0  0  0
 20 19  1  0  0  0
 17 19  1  0  0  0
 21 22  1  0  0  0
 19 24  2  0  0  0
 31 32  1  0  0  0
 22 23  2  0  0  0
 24 23  1  0  0  0
 24 27  1  0  0  0
 27 28  1  0  0  0
 35 34  2  0  0  0
 32 33  2  0  0  0
 34 33  1  0  0  0
 33 37  1  0  0  0
 37 38  1  0  0  0
 37 43  1  0  0  0
 38 39  1  0  0  0
 43 42  1  0  0  0
 39 40  1  0  0  0
 42 40  1  0  0  0
 40 41  1  0  0  0
 29 30  1  0  0  0
 17 18  1  0  0  0
M  END
> <minimizedAffinity>
-10.78253

$$$$
5MRB_C5N_A_901


 45 50  0  0  0  0  0  0  0  0999 V2000
   -1.3760  -10.0077  -18.0227 C   0  0  0  0  0  0  0  0  0  0  0  0
   -1.1385   -9.7576  -19.3325 N   0  0  0  0  0  0  0  0  0  0  0  0
   -0.2714  -10.5382  -19.9496 C   0  0  0  0  0  0  0  0  0  0  0  0
    0.3738  -11.6443  -19.2642 C   0  0  0  0  0  0  0  0  0  0  0  0
    1.3743  -12.5542  -19.9420 C   0  0  0  0  0  0  0  0  0  0  0  0
    1.7508  -13.8644  -19.2541 C   0  0  0  0  0  0  0  0  0  0  0  0
    1.4509  -13.8821  -17.7848 C   0  0  0  0  0  0  0  0  0  0  0  0
    0.6628  -12.9228  -17.1923 C   0  0  0  0  0  0  0  0  0  0  0  0
    0.5560  -13.2441  -15.8808 N   0  0  0  0  0  0  0  0  0  0  0  0
   -0.1536  -12.5571  -14.8146 C   0  0  0  0  0  0  0  0  0  0  0  0
    1.2730  -14.3791  -15.6307 N   0  0  0  0  0  0  0  0  0  0  0  0
    1.8045  -14.7556  -16.7829 C   0  0  0  0  0  0  0  0  0  0  0  0
    0.0628  -11.8240  -17.9220 C   0  0  0  0  0  0  0  0  0  0  0  0
   -0.8167  -11.0163  -17.3048 N   0  0  0  0  0  0  0  0  0  0  0  0
    3.4385  -16.1027  -17.7836 O   0  0  0  0  0  0  0  0  0  0  0  0
    2.6433  -15.9583  -16.8559 C   0  0  0  0  0  0  0  0  0  0  0  0
    2.4884  -16.8534  -15.8490 N   0  0  0  0  0  0  0  0  0  0  0  0
    1.7967  -16.6679  -15.1735 H   0  0  0  0  0  0  0  0  0  0  0  0
    3.2600  -18.0477  -15.7005 C   0  0  0  0  0  0  0  0  0  0  0  0
    2.8601  -19.2079  -16.3728 C   0  0  0  0  0  0  0  0  0  0  0  0
    3.6600  -20.3446  -16.2375 C   0  0  0  0  0  0  0  0  0  0  0  0
    4.8137  -20.3284  -15.4847 C   0  0  0  0  0  0  0  0  0  0  0  0
    5.1974  -19.1695  -14.8485 C   0  0  0  0  0  0  0  0  0  0  0  0
    4.4416  -17.9987  -14.9525 C   0  0  0  0  0  0  0  0  0  0  0  0
    1.6097  -19.2658  -17.2190 C   0  0  0  0  0  0  0  0  0  0  0  0
    0.3536  -19.6377  -16.4763 C   0  0  0  0  0  0  0  0  0  0  0  0
    4.8977  -16.7473  -14.2422 C   0  0  0  0  0  0  0  0  0  0  0  0
    6.0051  -16.0066  -14.9414 C   0  0  0  0  0  0  0  0  0  0  0  0
   -2.2548   -9.2144  -17.3520 N   0  0  0  0  0  0  0  0  0  0  0  0
   -3.2064   -9.4136  -17.5071 H   0  0  0  0  0  0  0  0  0  0  0  0
   -2.1926   -8.3494  -15.0871 C   0  0  0  0  0  0  0  0  0  0  0  0
   -1.9400   -7.3070  -14.2042 C   0  0  0  0  0  0  0  0  0  0  0  0
   -1.5028   -6.0703  -14.6665 C   0  0  0  0  0  0  0  0  0  0  0  0
   -1.3187   -5.8810  -16.0395 C   0  0  0  0  0  0  0  0  0  0  0  0
   -1.5539   -6.9039  -16.9273 C   0  0  0  0  0  0  0  0  0  0  0  0
   -1.9955   -8.1420  -16.4617 C   0  0  0  0  0  0  0  0  0  0  0  0
   -1.2829   -5.0223  -13.7505 N   0  0  0  0  0  0  0  0  0  0  0  0
   -0.0885   -5.0434  -12.8948 C   0  0  0  0  0  0  0  0  0  0  0  0
   -0.3428   -4.4828  -11.5140 C   0  0  0  0  0  0  0  0  0  0  0  0
   -1.0306   -3.1922  -11.5840 N   0  0  0  0  0  0  0  0  0  0  0  0
   -1.1852   -2.5974  -10.2529 C   0  0  0  0  0  0  0  0  0  0  0  0
   -2.3300   -3.3887  -12.2294 C   0  0  0  0  0  0  0  0  0  0  0  0
   -2.1525   -3.8469  -13.6566 C   0  0  0  0  0  0  0  0  0  0  0  0
   -2.6341   -9.5831  -14.7073 O   0  0  0  0  0  0  0  0  0  0  0  0
   -2.6704   -9.9011  -13.3181 C   0  0  0  0  0  0  0  0  0  0  0  0
  5  4  1  0  0  0
  5  6  1  0  0  0
  3  2  1  0  0  0
  3  4  2  0  0  0
  2  1  2  0  0  0
  4 13  1  0  0  0
  6  7  1  0  0  0
  1 29  1  0  0  0
  1 14  1  0  0  0
 13 14  2  0  0  0
 13  8  1  0  0  0
 15 16  2  0  0  0
  7  8  2  0  0  0
  7 12  1  0  0  0
 29 36  1  0  0  0
  8  9  1  0  0  0
 16 12  1  0  0  0
 16 17  1  0  0  0
 12 11  2  0  0  0
 44 45  1  0  0  0
 44 31  1  0  0  0
 25 20  1  0  0  0
 25 26  1  0  0  0
 36 31  2  0  0  0
 36 35  1  0  0  0
  9 11  1  0  0  0
  9 10  1  0  0  0
 20 21  2  0  0  0
 20 19  1  0  0  0
 17 19  1  0  0  0
 21 22  1  0  0  0
 19 24  2  0  0  0
 31 32  1  0  0  0
 22 23  2  0  0  0
 24 23  1  0  0  0
 24 27  1  0  0  0
 27 28  1  0  0  0
 35 34  2  0  0  0
 32 33  2  0  0  0
 34 33  1  0  0  0
 33 37  1  0  0  0
 37 38  1  0  0  0
 37 43  1  0  0  0
 38 39  1  0  0  0
 43 42  1  0  0  0
 39 40  1  0  0  0
 42 40  1  0  0  0
 40 41  1  0  0  0
 29 30  1  0  0  0
 17 18  1  0  0  0
M  END
> <minimizedAffinity>
-10.71925

$$$$
5MRB_C5N_A_901


 45 50  0  0  0  0  0  0  0  0999 V2000
    2.2861  -19.1633  -12.9473 C   0  0  0  0  0  0  0  0  0  0  0  0
    1.7167  -19.0949  -11.7203 N   0  0  0  0  0  0  0  0  0  0  0  0
    0.9338  -18.0613  -11.4737 C   0  0  0  0  0  0  0  0  0  0  0  0
    0.6621  -17.0578  -12.4880 C   0  0  0  0  0  0  0  0  0  0  0  0
   -0.2272  -15.8603  -12.2357 C   0  0  0  0  0  0  0  0  0  0  0  0
   -0.7098  -15.0457  -13.4335 C   0  0  0  0  0  0  0  0  0  0  0  0
    0.1201  -15.2381  -14.6678 C   0  0  0  0  0  0  0  0  0  0  0  0
    1.0400  -16.2555  -14.7736 C   0  0  0  0  0  0  0  0  0  0  0  0
    1.5850  -16.1774  -16.0112 N   0  0  0  0  0  0  0  0  0  0  0  0
    2.6090  -17.0059  -16.6253 C   0  0  0  0  0  0  0  0  0  0  0  0
    1.0378  -15.1221  -16.6834 N   0  0  0  0  0  0  0  0  0  0  0  0
    0.1565  -14.5663  -15.8674 C   0  0  0  0  0  0  0  0  0  0  0  0
    1.2887  -17.2164  -13.7179 C   0  0  0  0  0  0  0  0  0  0  0  0
    2.0894  -18.2703  -13.9520 N   0  0  0  0  0  0  0  0  0  0  0  0
   -1.7559  -13.5295  -16.7358 O   0  0  0  0  0  0  0  0  0  0  0  0
   -0.6151  -13.3929  -16.2957 C   0  0  0  0  0  0  0  0  0  0  0  0
    0.0010  -12.1929  -16.1566 N   0  0  0  0  0  0  0  0  0  0  0  0
    0.9307  -12.1900  -15.8329 H   0  0  0  0  0  0  0  0  0  0  0  0
   -0.6060  -10.9317  -16.4475 C   0  0  0  0  0  0  0  0  0  0  0  0
   -0.6327  -10.4747  -17.7698 C   0  0  0  0  0  0  0  0  0  0  0  0
   -1.2697   -9.2581  -18.0231 C   0  0  0  0  0  0  0  0  0  0  0  0
   -1.8689   -8.5348  -17.0152 C   0  0  0  0  0  0  0  0  0  0  0  0
   -1.8470   -9.0144  -15.7250 C   0  0  0  0  0  0  0  0  0  0  0  0
   -1.2309  -10.2289  -15.4113 C   0  0  0  0  0  0  0  0  0  0  0  0
    0.0003  -11.2421  -18.9070 C   0  0  0  0  0  0  0  0  0  0  0  0
   -0.3921  -10.7795  -20.2851 C   0  0  0  0  0  0  0  0  0  0  0  0
   -1.2309  -10.7221  -13.9847 C   0  0  0  0  0  0  0  0  0  0  0  0
   -1.3580   -9.6343  -12.9530 C   0  0  0  0  0  0  0  0  0  0  0  0
    3.1091  -20.2089  -13.2314 N   0  0  0  0  0  0  0  0  0  0  0  0
    3.2825  -20.8250  -12.4834 H   0  0  0  0  0  0  0  0  0  0  0  0
    3.1391  -21.4707  -15.3025 C   0  0  0  0  0  0  0  0  0  0  0  0
    3.7587  -21.7997  -16.5016 C   0  0  0  0  0  0  0  0  0  0  0  0
    4.9719  -21.2220  -16.8601 C   0  0  0  0  0  0  0  0  0  0  0  0
    5.5706  -20.2999  -15.9962 C   0  0  0  0  0  0  0  0  0  0  0  0
    4.9675  -19.9545  -14.8101 C   0  0  0  0  0  0  0  0  0  0  0  0
    3.7526  -20.5376  -14.4513 C   0  0  0  0  0  0  0  0  0  0  0  0
    5.5918  -21.5968  -18.0688 N   0  0  0  0  0  0  0  0  0  0  0  0
    7.0230  -21.3282  -18.2656 C   0  0  0  0  0  0  0  0  0  0  0  0
    7.3628  -20.9595  -19.6918 C   0  0  0  0  0  0  0  0  0  0  0  0
    6.7758  -21.9090  -20.6392 N   0  0  0  0  0  0  0  0  0  0  0  0
    7.1896  -21.6147  -22.0146 C   0  0  0  0  0  0  0  0  0  0  0  0
    5.3186  -21.8642  -20.5045 C   0  0  0  0  0  0  0  0  0  0  0  0
    4.8957  -22.3269  -19.1314 C   0  0  0  0  0  0  0  0  0  0  0  0
    1.9569  -22.0053  -14.8807 O   0  0  0  0  0  0  0  0  0  0  0  0
    1.9176  -23.3835  -14.5188 C   0  0  0  0  0  0  0  0  0  0  0  0
  5  4  1  0  0  0
  5  6  1  0  0  0
  3  2  1  0  0  0
  3  4  2  0  0  0
  2  1  2  0  0  0
  4 13  1  0  0  0
  6  7  1  0  0  0
  1 29  1  0  0  0
  1 14  1  0  0  0
 13 14  2  0  0  0
 13  8  1  0  0  0
 15 16  2  0  0  0
  7  8  2  0  0  0
  7 12  1  0  0  0
 29 36  1  0  0  0
  8  9  1  0  0  0
 16 12  1  0  0  0
 16 17  1  0  0  0
 12 11  2  0  0  0
 44 45  1  0  0  0
 44 31  1  0  0  0
 25 20  1  0  0  0
 25 26  1  0  0  0
 36 31  2  0  0  0
 36 35  1  0  0  0
  9 11  1  0  0  0
  9 10  1  0  0  0
 20 21  2  0  0  0
 20 19  1  0  0  0
 17 19  1  0  0  0
 21 22  1  0  0  0
 19 24  2  0  0  0
 31 32  1  0  0  0
 22 23  2  0  0  0
 24 23  1  0  0  0
 24 27  1  0  0  0
 27 28  1  0  0  0
 35 34  2  0  0  0
 32 33  2  0  0  0
 34 33  1  0  0  0
 33 37  1  0  0  0
 37 38  1  0  0  0
 37 43  1  0  0  0
 38 39  1  0  0  0
 43 42  1  0  0  0
 39 40  1  0  0  0
 42 40  1  0  0  0
 40 41  1  0  0  0
 29 30  1  0  0  0
 17 18  1  0  0  0
M  END
> <minimizedAffinity>
-9.89920

$$$$
5MRB_C5N_A_901


 45 50  0  0  0  0  0  0  0  0999 V2000
    2.2683  -19.1739  -12.8977 C   0  0  0  0  0  0  0  0  0  0  0  0
    1.7255  -19.0883  -11.6598 N   0  0  0  0  0  0  0  0  0  0  0  0
    0.9475  -18.0515  -11.4111 C   0  0  0  0  0  0  0  0  0  0  0  0
    0.6533  -17.0626  -12.4334 C   0  0  0  0  0  0  0  0  0  0  0  0
   -0.2310  -15.8620  -12.1789 C   0  0  0  0  0  0  0  0  0  0  0  0
   -0.7399  -15.0645  -13.3775 C   0  0  0  0  0  0  0  0  0  0  0  0
    0.0633  -15.2742  -14.6265 C   0  0  0  0  0  0  0  0  0  0  0  0
    0.9813  -16.2927  -14.7377 C   0  0  0  0  0  0  0  0  0  0  0  0
    1.4994  -16.2320  -15.9878 N   0  0  0  0  0  0  0  0  0  0  0  0
    2.5105  -17.0689  -16.6120 C   0  0  0  0  0  0  0  0  0  0  0  0
    0.9373  -15.1866  -16.6630 N   0  0  0  0  0  0  0  0  0  0  0  0
    0.0734  -14.6195  -15.8361 C   0  0  0  0  0  0  0  0  0  0  0  0
    1.2533  -17.2385  -13.6742 C   0  0  0  0  0  0  0  0  0  0  0  0
    2.0495  -18.2954  -13.9105 N   0  0  0  0  0  0  0  0  0  0  0  0
   -1.8573  -13.5960  -16.6793 O   0  0  0  0  0  0  0  0  0  0  0  0
   -0.7080  -13.4526  -16.2642 C   0  0  0  0  0  0  0  0  0  0  0  0
   -0.0905  -12.2503  -16.1536 N   0  0  0  0  0  0  0  0  0  0  0  0
    0.8456  -12.2423  -15.8488 H   0  0  0  0  0  0  0  0  0  0  0  0
   -0.7046  -10.9935  -16.4489 C   0  0  0  0  0  0  0  0  0  0  0  0
   -1.2694  -10.2475  -15.4085 C   0  0  0  0  0  0  0  0  0  0  0  0
   -1.8242   -9.0062  -15.7271 C   0  0  0  0  0  0  0  0  0  0  0  0
   -1.8048   -8.5174  -17.0151 C   0  0  0  0  0  0  0  0  0  0  0  0
   -1.2257   -9.2608  -18.0186 C   0  0  0  0  0  0  0  0  0  0  0  0
   -0.6484  -10.5068  -17.7596 C   0  0  0  0  0  0  0  0  0  0  0  0
   -1.3005  -10.7398  -13.9804 C   0  0  0  0  0  0  0  0  0  0  0  0
   -1.6034   -9.6855  -12.9488 C   0  0  0  0  0  0  0  0  0  0  0  0
   -0.0205  -11.2901  -18.8869 C   0  0  0  0  0  0  0  0  0  0  0  0
   -0.3373  -10.7622  -20.2598 C   0  0  0  0  0  0  0  0  0  0  0  0
    3.0857  -20.2232  -13.1847 N   0  0  0  0  0  0  0  0  0  0  0  0
    3.2565  -20.8418  -12.4380 H   0  0  0  0  0  0  0  0  0  0  0  0
    3.1370  -21.5233  -15.2315 C   0  0  0  0  0  0  0  0  0  0  0  0
    3.7541  -21.8535  -16.4315 C   0  0  0  0  0  0  0  0  0  0  0  0
    4.9418  -21.2404  -16.8156 C   0  0  0  0  0  0  0  0  0  0  0  0
    5.5171  -20.2810  -15.9768 C   0  0  0  0  0  0  0  0  0  0  0  0
    4.9157  -19.9341  -14.7903 C   0  0  0  0  0  0  0  0  0  0  0  0
    3.7265  -20.5527  -14.4058 C   0  0  0  0  0  0  0  0  0  0  0  0
    5.5608  -21.6166  -18.0244 N   0  0  0  0  0  0  0  0  0  0  0  0
    6.9885  -21.3352  -18.2282 C   0  0  0  0  0  0  0  0  0  0  0  0
    7.3194  -20.9720  -19.6580 C   0  0  0  0  0  0  0  0  0  0  0  0
    6.7382  -21.9331  -20.5973 N   0  0  0  0  0  0  0  0  0  0  0  0
    7.1438  -21.6433  -21.9761 C   0  0  0  0  0  0  0  0  0  0  0  0
    5.2811  -21.9018  -20.4573 C   0  0  0  0  0  0  0  0  0  0  0  0
    4.8680  -22.3600  -19.0797 C   0  0  0  0  0  0  0  0  0  0  0  0
    1.9795  -22.0911  -14.7853 O   0  0  0  0  0  0  0  0  0  0  0  0
    1.9562  -23.4939  -14.5330 C   0  0  0  0  0  0  0  0  0  0  0  0
  5  4  1  0  0  0
  5  6  1  0  0  0
  3  2  1  0  0  0
  3  4  2  0  0  0
  2  1  2  0  0  0
  4 13  1  0  0  0
  6  7  1  0  0  0
  1 29  1  0  0  0
  1 14  1  0  0  0
 13 14  2  0  0  0
 13  8  1  0  0  0
 15 16  2  0  0  0
  7  8  2  0  0  0
  7 12  1  0  0  0
 29 36  1  0  0  0
  8  9  1  0  0  0
 16 12  1  0  0  0
 16 17  1  0  0  0
 12 11  2  0  0  0
 44 45  1  0  0  0
 44 31  1  0  0  0
 25 20  1  0  0  0
 25 26  1  0  0  0
 36 31  2  0  0  0
 36 35  1  0  0  0
  9 11  1  0  0  0
  9 10  1  0  0  0
 20 21  2  0  0  0
 20 19  1  0  0  0
 17 19  1  0  0  0
 21 22  1  0  0  0
 19 24  2  0  0  0
 31 32  1  0  0  0
 22 23  2  0  0  0
 24 23  1  0  0  0
 24 27  1  0  0  0
 27 28  1  0  0  0
 35 34  2  0  0  0
 32 33  2  0  0  0
 34 33  1  0  0  0
 33 37  1  0  0  0
 37 38  1  0  0  0
 37 43  1  0  0  0
 38 39  1  0  0  0
 43 42  1  0  0  0
 39 40  1  0  0  0
 42 40  1  0  0  0
 40 41  1  0  0  0
 29 30  1  0  0  0
 17 18  1  0  0  0
M  END
> <minimizedAffinity>
-9.89483

$$$$
5MRB_C5N_A_901


 45 50  0  0  0  0  0  0  0  0999 V2000
    2.9051  -15.9532  -17.5734 C   0  0  0  0  0  0  0  0  0  0  0  0
    2.9996  -15.5834  -18.8729 N   0  0  0  0  0  0  0  0  0  0  0  0
    2.2766  -14.5498  -19.2616 C   0  0  0  0  0  0  0  0  0  0  0  0
    1.4430  -13.8141  -18.3270 C   0  0  0  0  0  0  0  0  0  0  0  0
    0.6004  -12.6282  -18.7418 C   0  0  0  0  0  0  0  0  0  0  0  0
    0.0188  -11.7306  -17.6520 C   0  0  0  0  0  0  0  0  0  0  0  0
   -0.0444  -12.3831  -16.3031 C   0  0  0  0  0  0  0  0  0  0  0  0
    0.6148  -13.5601  -16.0336 C   0  0  0  0  0  0  0  0  0  0  0  0
    0.3904  -13.8573  -14.7312 N   0  0  0  0  0  0  0  0  0  0  0  0
    0.8489  -14.9931  -13.9490 C   0  0  0  0  0  0  0  0  0  0  0  0
   -0.4093  -12.8989  -14.1772 N   0  0  0  0  0  0  0  0  0  0  0  0
   -0.6623  -12.0161  -15.1304 C   0  0  0  0  0  0  0  0  0  0  0  0
    1.4148  -14.2665  -17.0136 C   0  0  0  0  0  0  0  0  0  0  0  0
    2.1508  -15.3253  -16.6341 N   0  0  0  0  0  0  0  0  0  0  0  0
   -2.6445  -10.7819  -15.3139 O   0  0  0  0  0  0  0  0  0  0  0  0
   -1.5050  -10.8461  -14.8542 C   0  0  0  0  0  0  0  0  0  0  0  0
   -0.9535   -9.8880  -14.0688 N   0  0  0  0  0  0  0  0  0  0  0  0
   -0.0195  -10.0115  -13.7830 H   0  0  0  0  0  0  0  0  0  0  0  0
   -1.6342   -8.7111  -13.6271 C   0  0  0  0  0  0  0  0  0  0  0  0
   -2.0988   -8.6442  -12.3089 C   0  0  0  0  0  0  0  0  0  0  0  0
   -2.7228   -7.4637  -11.8999 C   0  0  0  0  0  0  0  0  0  0  0  0
   -2.8647   -6.3909  -12.7525 C   0  0  0  0  0  0  0  0  0  0  0  0
   -2.3818   -6.4729  -14.0391 C   0  0  0  0  0  0  0  0  0  0  0  0
   -1.7420   -7.6253  -14.5033 C   0  0  0  0  0  0  0  0  0  0  0  0
   -1.9525   -9.7920  -11.3373 C   0  0  0  0  0  0  0  0  0  0  0  0
   -1.6497   -9.3913   -9.9177 C   0  0  0  0  0  0  0  0  0  0  0  0
   -1.2235   -7.6749  -15.9200 C   0  0  0  0  0  0  0  0  0  0  0  0
   -1.5475   -6.4565  -16.7414 C   0  0  0  0  0  0  0  0  0  0  0  0
    3.6271  -17.0226  -17.1412 N   0  0  0  0  0  0  0  0  0  0  0  0
    4.5555  -17.0641  -17.4659 H   0  0  0  0  0  0  0  0  0  0  0  0
    3.8086  -18.1699  -15.0121 C   0  0  0  0  0  0  0  0  0  0  0  0
    3.4290  -19.2057  -14.1678 C   0  0  0  0  0  0  0  0  0  0  0  0
    2.4963  -20.1533  -14.5755 C   0  0  0  0  0  0  0  0  0  0  0  0
    1.9388  -20.0564  -15.8541 C   0  0  0  0  0  0  0  0  0  0  0  0
    2.2948  -19.0327  -16.6997 C   0  0  0  0  0  0  0  0  0  0  0  0
    3.2327  -18.0855  -16.2899 C   0  0  0  0  0  0  0  0  0  0  0  0
    2.1522  -21.2099  -13.7088 N   0  0  0  0  0  0  0  0  0  0  0  0
    1.3788  -20.9289  -12.4914 C   0  0  0  0  0  0  0  0  0  0  0  0
    1.7794  -21.8019  -11.3240 C   0  0  0  0  0  0  0  0  0  0  0  0
    1.8326  -23.2130  -11.7109 N   0  0  0  0  0  0  0  0  0  0  0  0
    2.1184  -24.0718  -10.5575 C   0  0  0  0  0  0  0  0  0  0  0  0
    2.8471  -23.3743  -12.7543 C   0  0  0  0  0  0  0  0  0  0  0  0
    2.4579  -22.6132  -13.9983 C   0  0  0  0  0  0  0  0  0  0  0  0
    4.7246  -17.2133  -14.6849 O   0  0  0  0  0  0  0  0  0  0  0  0
    4.3416  -16.1757  -13.7855 C   0  0  0  0  0  0  0  0  0  0  0  0
  5  4  1  0  0  0
  5  6  1  0  0  0
  3  2  1  0  0  0
  3  4  2  0  0  0
  2  1  2  0  0  0
  4 13  1  0  0  0
  6  7  1  0  0  0
  1 29  1  0  0  0
  1 14  1  0  0  0
 13 14  2  0  0  0
 13  8  1  0  0  0
 15 16  2  0  0  0
  7  8  2  0  0  0
  7 12  1  0  0  0
 29 36  1  0  0  0
  8  9  1  0  0  0
 16 12  1  0  0  0
 16 17  1  0  0  0
 12 11  2  0  0  0
 44 45  1  0  0  0
 44 31  1  0  0  0
 25 20  1  0  0  0
 25 26  1  0  0  0
 36 31  2  0  0  0
 36 35  1  0  0  0
  9 11  1  0  0  0
  9 10  1  0  0  0
 20 21  2  0  0  0
 20 19  1  0  0  0
 17 19  1  0  0  0
 21 22  1  0  0  0
 19 24  2  0  0  0
 31 32  1  0  0  0
 22 23  2  0  0  0
 24 23  1  0  0  0
 24 27  1  0  0  0
 27 28  1  0  0  0
 35 34  2  0  0  0
 32 33  2  0  0  0
 34 33  1  0  0  0
 33 37  1  0  0  0
 37 38  1  0  0  0
 37 43  1  0  0  0
 38 39  1  0  0  0
 43 42  1  0  0  0
 39 40  1  0  0  0
 42 40  1  0  0  0
 40 41  1  0  0  0
 29 30  1  0  0  0
 17 18  1  0  0  0
M  END
> <minimizedAffinity>
-9.83699

$$$$
5MRB_C5N_A_901


 45 50  0  0  0  0  0  0  0  0999 V2000
    2.6312  -15.5805  -17.7303 C   0  0  0  0  0  0  0  0  0  0  0  0
    2.6610  -15.1558  -19.0161 N   0  0  0  0  0  0  0  0  0  0  0  0
    1.9588  -14.0784  -19.3135 C   0  0  0  0  0  0  0  0  0  0  0  0
    1.2152  -13.3545  -18.2973 C   0  0  0  0  0  0  0  0  0  0  0  0
    0.3984  -12.1193  -18.6066 C   0  0  0  0  0  0  0  0  0  0  0  0
   -0.0775  -11.2506  -17.4446 C   0  0  0  0  0  0  0  0  0  0  0  0
   -0.0848  -11.9609  -16.1238 C   0  0  0  0  0  0  0  0  0  0  0  0
    0.5405  -13.1734  -15.9473 C   0  0  0  0  0  0  0  0  0  0  0  0
    0.3844  -13.5208  -14.6474 N   0  0  0  0  0  0  0  0  0  0  0  0
    0.8427  -14.7079  -13.9453 C   0  0  0  0  0  0  0  0  0  0  0  0
   -0.3395  -12.5585  -14.0032 N   0  0  0  0  0  0  0  0  0  0  0  0
   -0.6138  -11.6242  -14.8996 C   0  0  0  0  0  0  0  0  0  0  0  0
    1.2491  -13.8648  -17.0055 C   0  0  0  0  0  0  0  0  0  0  0  0
    1.9626  -14.9673  -16.7191 N   0  0  0  0  0  0  0  0  0  0  0  0
   -2.6134  -10.4323  -14.6407 O   0  0  0  0  0  0  0  0  0  0  0  0
   -1.3889  -10.4363  -14.5206 C   0  0  0  0  0  0  0  0  0  0  0  0
   -0.6756   -9.3919  -14.0314 N   0  0  0  0  0  0  0  0  0  0  0  0
    0.3051   -9.4759  -14.0121 H   0  0  0  0  0  0  0  0  0  0  0  0
   -1.2490   -8.1774  -13.5416 C   0  0  0  0  0  0  0  0  0  0  0  0
   -1.6992   -7.2172  -14.4545 C   0  0  0  0  0  0  0  0  0  0  0  0
   -2.2910   -6.0611  -13.9412 C   0  0  0  0  0  0  0  0  0  0  0  0
   -2.4461   -5.8720  -12.5854 C   0  0  0  0  0  0  0  0  0  0  0  0
   -2.0132   -6.8398  -11.7073 C   0  0  0  0  0  0  0  0  0  0  0  0
   -1.4199   -8.0206  -12.1616 C   0  0  0  0  0  0  0  0  0  0  0  0
   -1.5608   -7.3900  -15.9491 C   0  0  0  0  0  0  0  0  0  0  0  0
   -1.2500   -6.1289  -16.7109 C   0  0  0  0  0  0  0  0  0  0  0  0
   -0.9611   -9.0591  -11.1668 C   0  0  0  0  0  0  0  0  0  0  0  0
   -1.9730   -9.3874  -10.1027 C   0  0  0  0  0  0  0  0  0  0  0  0
    3.3335  -16.6954  -17.3911 N   0  0  0  0  0  0  0  0  0  0  0  0
    4.2176  -16.7828  -17.8154 H   0  0  0  0  0  0  0  0  0  0  0  0
    3.6692  -17.8789  -15.3008 C   0  0  0  0  0  0  0  0  0  0  0  0
    3.3245  -18.9062  -14.4316 C   0  0  0  0  0  0  0  0  0  0  0  0
    2.3096  -19.8017  -14.7517 C   0  0  0  0  0  0  0  0  0  0  0  0
    1.6329  -19.6604  -15.9670 C   0  0  0  0  0  0  0  0  0  0  0  0
    1.9533  -18.6439  -16.8353 C   0  0  0  0  0  0  0  0  0  0  0  0
    2.9735  -17.7493  -16.5136 C   0  0  0  0  0  0  0  0  0  0  0  0
    2.0015  -20.8518  -13.8640 N   0  0  0  0  0  0  0  0  0  0  0  0
    1.6027  -20.5433  -12.4838 C   0  0  0  0  0  0  0  0  0  0  0  0
    2.1097  -21.5569  -11.4832 C   0  0  0  0  0  0  0  0  0  0  0  0
    1.8197  -22.9240  -11.9199 N   0  0  0  0  0  0  0  0  0  0  0  0
    2.2163  -23.9038  -10.9040 C   0  0  0  0  0  0  0  0  0  0  0  0
    2.5113  -23.1672  -13.1873 C   0  0  0  0  0  0  0  0  0  0  0  0
    1.9772  -22.2596  -14.2687 C   0  0  0  0  0  0  0  0  0  0  0  0
    4.6599  -16.9726  -15.0590 O   0  0  0  0  0  0  0  0  0  0  0  0
    4.4045  -15.9025  -14.1526 C   0  0  0  0  0  0  0  0  0  0  0  0
  5  4  1  0  0  0
  5  6  1  0  0  0
  3  2  1  0  0  0
  3  4  2  0  0  0
  2  1  2  0  0  0
  4 13  1  0  0  0
  6  7  1  0  0  0
  1 29  1  0  0  0
  1 14  1  0  0  0
 13 14  2  0  0  0
 13  8  1  0  0  0
 15 16  2  0  0  0
  7  8  2  0  0  0
  7 12  1  0  0  0
 29 36  1  0  0  0
  8  9  1  0  0  0
 16 12  1  0  0  0
 16 17  1  0  0  0
 12 11  2  0  0  0
 44 45  1  0  0  0
 44 31  1  0  0  0
 25 20  1  0  0  0
 25 26  1  0  0  0
 36 31  2  0  0  0
 36 35  1  0  0  0
  9 11  1  0  0  0
  9 10  1  0  0  0
 20 21  2  0  0  0
 20 19  1  0  0  0
 17 19  1  0  0  0
 21 22  1  0  0  0
 19 24  2  0  0  0
 31 32  1  0  0  0
 22 23  2  0  0  0
 24 23  1  0  0  0
 24 27  1  0  0  0
 27 28  1  0  0  0
 35 34  2  0  0  0
 32 33  2  0  0  0
 34 33  1  0  0  0
 33 37  1  0  0  0
 37 38  1  0  0  0
 37 43  1  0  0  0
 38 39  1  0  0  0
 43 42  1  0  0  0
 39 40  1  0  0  0
 42 40  1  0  0  0
 40 41  1  0  0  0
 29 30  1  0  0  0
 17 18  1  0  0  0
M  END
> <minimizedAffinity>
-9.71094

$$$$
5MRB_C5N_A_901


 45 50  0  0  0  0  0  0  0  0999 V2000
   -1.2589  -10.1227  -17.3766 C   0  0  0  0  0  0  0  0  0  0  0  0
   -1.1248   -9.7431  -18.6698 N   0  0  0  0  0  0  0  0  0  0  0  0
   -0.3579  -10.4893  -19.4426 C   0  0  0  0  0  0  0  0  0  0  0  0
    0.2857  -11.6898  -18.9386 C   0  0  0  0  0  0  0  0  0  0  0  0
    1.1730  -12.5636  -19.7974 C   0  0  0  0  0  0  0  0  0  0  0  0
    1.5388  -13.9555  -19.2871 C   0  0  0  0  0  0  0  0  0  0  0  0
    1.3690  -14.1189  -17.8060 C   0  0  0  0  0  0  0  0  0  0  0  0
    0.6879  -13.1959  -17.0465 C   0  0  0  0  0  0  0  0  0  0  0  0
    0.6803  -13.6521  -15.7711 N   0  0  0  0  0  0  0  0  0  0  0  0
    0.1047  -13.0543  -14.5779 C   0  0  0  0  0  0  0  0  0  0  0  0
    1.3554  -14.8375  -15.7079 N   0  0  0  0  0  0  0  0  0  0  0  0
    1.7627  -15.1099  -16.9374 C   0  0  0  0  0  0  0  0  0  0  0  0
    0.0851  -11.9998  -17.5992 C   0  0  0  0  0  0  0  0  0  0  0  0
   -0.6927  -11.2263  -16.8224 N   0  0  0  0  0  0  0  0  0  0  0  0
    3.0342  -16.5097  -18.3195 O   0  0  0  0  0  0  0  0  0  0  0  0
    2.5270  -16.3329  -17.2125 C   0  0  0  0  0  0  0  0  0  0  0  0
    2.6381  -17.2090  -16.1834 N   0  0  0  0  0  0  0  0  0  0  0  0
    2.1619  -16.9973  -15.3481 H   0  0  0  0  0  0  0  0  0  0  0  0
    3.3987  -18.4186  -16.2272 C   0  0  0  0  0  0  0  0  0  0  0  0
    2.7502  -19.6237  -16.5189 C   0  0  0  0  0  0  0  0  0  0  0  0
    3.5308  -20.7792  -16.5938 C   0  0  0  0  0  0  0  0  0  0  0  0
    4.8951  -20.7405  -16.4058 C   0  0  0  0  0  0  0  0  0  0  0  0
    5.5137  -19.5398  -16.1396 C   0  0  0  0  0  0  0  0  0  0  0  0
    4.7862  -18.3493  -16.0594 C   0  0  0  0  0  0  0  0  0  0  0  0
    1.2587  -19.7091  -16.7448 C   0  0  0  0  0  0  0  0  0  0  0  0
    0.4266  -19.7758  -15.4915 C   0  0  0  0  0  0  0  0  0  0  0  0
    5.5019  -17.0525  -15.7686 C   0  0  0  0  0  0  0  0  0  0  0  0
    5.6148  -16.7218  -14.3051 C   0  0  0  0  0  0  0  0  0  0  0  0
   -2.0320   -9.3693  -16.5483 N   0  0  0  0  0  0  0  0  0  0  0  0
   -2.8751   -9.0433  -16.9384 H   0  0  0  0  0  0  0  0  0  0  0  0
   -1.3250   -7.6892  -14.9484 C   0  0  0  0  0  0  0  0  0  0  0  0
   -1.0922   -7.3018  -13.6348 C   0  0  0  0  0  0  0  0  0  0  0  0
   -1.3153   -8.1816  -12.5811 C   0  0  0  0  0  0  0  0  0  0  0  0
   -1.7786   -9.4720  -12.8556 C   0  0  0  0  0  0  0  0  0  0  0  0
   -2.0242   -9.8698  -14.1483 C   0  0  0  0  0  0  0  0  0  0  0  0
   -1.7965   -8.9869  -15.2035 C   0  0  0  0  0  0  0  0  0  0  0  0
   -1.0424   -7.7709  -11.2610 N   0  0  0  0  0  0  0  0  0  0  0  0
   -2.1461   -7.3447  -10.3895 C   0  0  0  0  0  0  0  0  0  0  0  0
   -1.7607   -6.2170   -9.4592 C   0  0  0  0  0  0  0  0  0  0  0  0
   -0.5031   -6.5065   -8.7676 N   0  0  0  0  0  0  0  0  0  0  0  0
   -0.1806   -5.4639   -7.7885 C   0  0  0  0  0  0  0  0  0  0  0  0
    0.5597   -6.6412   -9.7657 C   0  0  0  0  0  0  0  0  0  0  0  0
    0.2965   -7.8220  -10.6685 C   0  0  0  0  0  0  0  0  0  0  0  0
   -1.1174   -6.8853  -16.0310 O   0  0  0  0  0  0  0  0  0  0  0  0
   -1.5152   -5.5184  -15.9568 C   0  0  0  0  0  0  0  0  0  0  0  0
  5  4  1  0  0  0
  5  6  1  0  0  0
  3  2  1  0  0  0
  3  4  2  0  0  0
  2  1  2  0  0  0
  4 13  1  0  0  0
  6  7  1  0  0  0
  1 29  1  0  0  0
  1 14  1  0  0  0
 13 14  2  0  0  0
 13  8  1  0  0  0
 15 16  2  0  0  0
  7  8  2  0  0  0
  7 12  1  0  0  0
 29 36  1  0  0  0
  8  9  1  0  0  0
 16 12  1  0  0  0
 16 17  1  0  0  0
 12 11  2  0  0  0
 44 45  1  0  0  0
 44 31  1  0  0  0
 25 20  1  0  0  0
 25 26  1  0  0  0
 36 31  2  0  0  0
 36 35  1  0  0  0
  9 11  1  0  0  0
  9 10  1  0  0  0
 20 21  2  0  0  0
 20 19  1  0  0  0
 17 19  1  0  0  0
 21 22  1  0  0  0
 19 24  2  0  0  0
 31 32  1  0  0  0
 22 23  2  0  0  0
 24 23  1  0  0  0
 24 27  1  0  0  0
 27 28  1  0  0  0
 35 34  2  0  0  0
 32 33  2  0  0  0
 34 33  1  0  0  0
 33 37  1  0  0  0
 37 38  1  0  0  0
 37 43  1  0  0  0
 38 39  1  0  0  0
 43 42  1  0  0  0
 39 40  1  0  0  0
 42 40  1  0  0  0
 40 41  1  0  0  0
 29 30  1  0  0  0
 17 18  1  0  0  0
M  END
> <minimizedAffinity>
-9.66445

$$$$
5MRB_C5N_A_901


 45 50  0  0  0  0  0  0  0  0999 V2000
    2.1408  -15.1189  -18.2264 C   0  0  0  0  0  0  0  0  0  0  0  0
    2.2142  -14.5420  -19.4496 N   0  0  0  0  0  0  0  0  0  0  0  0
    1.6000  -13.3848  -19.6102 C   0  0  0  0  0  0  0  0  0  0  0  0
    0.9059  -12.7366  -18.5113 C   0  0  0  0  0  0  0  0  0  0  0  0
    0.1896  -11.4130  -18.6641 C   0  0  0  0  0  0  0  0  0  0  0  0
   -0.2277  -10.6604  -17.4028 C   0  0  0  0  0  0  0  0  0  0  0  0
   -0.3012  -11.5260  -16.1803 C   0  0  0  0  0  0  0  0  0  0  0  0
    0.2271  -12.7960  -16.1563 C   0  0  0  0  0  0  0  0  0  0  0  0
    0.0334  -13.2883  -14.9093 N   0  0  0  0  0  0  0  0  0  0  0  0
    0.3926  -14.5852  -14.3605 C   0  0  0  0  0  0  0  0  0  0  0  0
   -0.6194  -12.3599  -14.1500 N   0  0  0  0  0  0  0  0  0  0  0  0
   -0.8130  -11.3033  -14.9232 C   0  0  0  0  0  0  0  0  0  0  0  0
    0.8891  -13.4040  -17.2928 C   0  0  0  0  0  0  0  0  0  0  0  0
    1.5128  -14.5856  -17.1462 N   0  0  0  0  0  0  0  0  0  0  0  0
   -2.7247  -10.0936  -14.3165 O   0  0  0  0  0  0  0  0  0  0  0  0
   -1.4973  -10.1149  -14.3990 C   0  0  0  0  0  0  0  0  0  0  0  0
   -0.6976   -9.0900  -14.0129 N   0  0  0  0  0  0  0  0  0  0  0  0
    0.2717   -9.1861  -14.1564 H   0  0  0  0  0  0  0  0  0  0  0  0
   -1.1643   -7.8797  -13.4119 C   0  0  0  0  0  0  0  0  0  0  0  0
   -1.1457   -7.7572  -12.0182 C   0  0  0  0  0  0  0  0  0  0  0  0
   -1.5704   -6.5461  -11.4675 C   0  0  0  0  0  0  0  0  0  0  0  0
   -1.9784   -5.4971  -12.2620 C   0  0  0  0  0  0  0  0  0  0  0  0
   -1.9692   -5.6343  -13.6317 C   0  0  0  0  0  0  0  0  0  0  0  0
   -1.5482   -6.8196  -14.2407 C   0  0  0  0  0  0  0  0  0  0  0  0
   -0.6938   -8.8774  -11.1106 C   0  0  0  0  0  0  0  0  0  0  0  0
   -1.8009   -9.6021  -10.3919 C   0  0  0  0  0  0  0  0  0  0  0  0
   -1.5499   -6.9296  -15.7461 C   0  0  0  0  0  0  0  0  0  0  0  0
   -1.2392   -5.6430  -16.4618 C   0  0  0  0  0  0  0  0  0  0  0  0
    2.7519  -16.3185  -18.0289 N   0  0  0  0  0  0  0  0  0  0  0  0
    2.8929  -16.8590  -18.8396 H   0  0  0  0  0  0  0  0  0  0  0  0
    2.3631  -17.7784  -16.1316 C   0  0  0  0  0  0  0  0  0  0  0  0
    2.8056  -18.3571  -14.9487 C   0  0  0  0  0  0  0  0  0  0  0  0
    4.0705  -18.0734  -14.4449 C   0  0  0  0  0  0  0  0  0  0  0  0
    4.9014  -17.1919  -15.1431 C   0  0  0  0  0  0  0  0  0  0  0  0
    4.4846  -16.6175  -16.3204 C   0  0  0  0  0  0  0  0  0  0  0  0
    3.2146  -16.9009  -16.8219 C   0  0  0  0  0  0  0  0  0  0  0  0
    4.4813  -18.6522  -13.2275 N   0  0  0  0  0  0  0  0  0  0  0  0
    5.5140  -19.6975  -13.2316 C   0  0  0  0  0  0  0  0  0  0  0  0
    5.2805  -20.7608  -12.1826 C   0  0  0  0  0  0  0  0  0  0  0  0
    5.0100  -20.1638  -10.8734 N   0  0  0  0  0  0  0  0  0  0  0  0
    4.8866  -21.1907   -9.8342 C   0  0  0  0  0  0  0  0  0  0  0  0
    3.7905  -19.3591  -10.9688 C   0  0  0  0  0  0  0  0  0  0  0  0
    3.9861  -18.2059  -11.9229 C   0  0  0  0  0  0  0  0  0  0  0  0
    1.1330  -18.0005  -16.6781 O   0  0  0  0  0  0  0  0  0  0  0  0
    0.4573  -19.2186  -16.3749 C   0  0  0  0  0  0  0  0  0  0  0  0
  5  4  1  0  0  0
  5  6  1  0  0  0
  3  2  1  0  0  0
  3  4  2  0  0  0
  2  1  2  0  0  0
  4 13  1  0  0  0
  6  7  1  0  0  0
  1 29  1  0  0  0
  1 14  1  0  0  0
 13 14  2  0  0  0
 13  8  1  0  0  0
 15 16  2  0  0  0
  7  8  2  0  0  0
  7 12  1  0  0  0
 29 36  1  0  0  0
  8  9  1  0  0  0
 16 12  1  0  0  0
 16 17  1  0  0  0
 12 11  2  0  0  0
 44 45  1  0  0  0
 44 31  1  0  0  0
 25 20  1  0  0  0
 25 26  1  0  0  0
 36 31  2  0  0  0
 36 35  1  0  0  0
  9 11  1  0  0  0
  9 10  1  0  0  0
 20 21  2  0  0  0
 20 19  1  0  0  0
 17 19  1  0  0  0
 21 22  1  0  0  0
 19 24  2  0  0  0
 31 32  1  0  0  0
 22 23  2  0  0  0
 24 23  1  0  0  0
 24 27  1  0  0  0
 27 28  1  0  0  0
 35 34  2  0  0  0
 32 33  2  0  0  0
 34 33  1  0  0  0
 33 37  1  0  0  0
 37 38  1  0  0  0
 37 43  1  0  0  0
 38 39  1  0  0  0
 43 42  1  0  0  0
 39 40  1  0  0  0
 42 40  1  0  0  0
 40 41  1  0  0  0
 29 30  1  0  0  0
 17 18  1  0  0  0
M  END
> <minimizedAffinity>
-9.55508

$$$$
5MRB_C5N_A_901


 45 50  0  0  0  0  0  0  0  0999 V2000
    0.9909  -14.6218  -17.6570 C   0  0  0  0  0  0  0  0  0  0  0  0
    2.0451  -14.8365  -18.4798 N   0  0  0  0  0  0  0  0  0  0  0  0
    2.9516  -15.7111  -18.0855 C   0  0  0  0  0  0  0  0  0  0  0  0
    2.8068  -16.4425  -16.8391 C   0  0  0  0  0  0  0  0  0  0  0  0
    3.8294  -17.4481  -16.3579 C   0  0  0  0  0  0  0  0  0  0  0  0
    3.4449  -18.3909  -15.2200 C   0  0  0  0  0  0  0  0  0  0  0  0
    2.2834  -17.9083  -14.4031 C   0  0  0  0  0  0  0  0  0  0  0  0
    1.4835  -16.8696  -14.8200 C   0  0  0  0  0  0  0  0  0  0  0  0
    0.5139  -16.7098  -13.8877 N   0  0  0  0  0  0  0  0  0  0  0  0
   -0.5756  -15.7492  -13.8411 C   0  0  0  0  0  0  0  0  0  0  0  0
    0.6945  -17.6175  -12.8835 N   0  0  0  0  0  0  0  0  0  0  0  0
    1.7594  -18.3346  -13.2050 C   0  0  0  0  0  0  0  0  0  0  0  0
    1.6891  -16.1569  -16.0647 C   0  0  0  0  0  0  0  0  0  0  0  0
    0.7781  -15.2582  -16.4757 N   0  0  0  0  0  0  0  0  0  0  0  0
    3.2807  -19.2888  -11.7013 O   0  0  0  0  0  0  0  0  0  0  0  0
    2.2247  -19.4104  -12.3210 C   0  0  0  0  0  0  0  0  0  0  0  0
    1.4200  -20.4984  -12.2336 N   0  0  0  0  0  0  0  0  0  0  0  0
    0.6153  -20.5197  -12.8004 H   0  0  0  0  0  0  0  0  0  0  0  0
    1.6590  -21.6166  -11.3756 C   0  0  0  0  0  0  0  0  0  0  0  0
    2.3977  -22.7027  -11.8579 C   0  0  0  0  0  0  0  0  0  0  0  0
    2.6468  -23.7593  -10.9795 C   0  0  0  0  0  0  0  0  0  0  0  0
    2.1997  -23.7339   -9.6766 C   0  0  0  0  0  0  0  0  0  0  0  0
    1.4919  -22.6455   -9.2189 C   0  0  0  0  0  0  0  0  0  0  0  0
    1.2178  -21.5553  -10.0490 C   0  0  0  0  0  0  0  0  0  0  0  0
    2.9178  -22.7656  -13.2751 C   0  0  0  0  0  0  0  0  0  0  0  0
    2.0529  -23.5346  -14.2384 C   0  0  0  0  0  0  0  0  0  0  0  0
    0.4412  -20.3791   -9.5086 C   0  0  0  0  0  0  0  0  0  0  0  0
    1.0484  -19.7443   -8.2870 C   0  0  0  0  0  0  0  0  0  0  0  0
    0.0438  -13.7173  -18.0262 N   0  0  0  0  0  0  0  0  0  0  0  0
   -0.3442  -13.8537  -18.9207 H   0  0  0  0  0  0  0  0  0  0  0  0
   -0.2832  -11.3212  -17.8418 C   0  0  0  0  0  0  0  0  0  0  0  0
   -0.7778  -10.2248  -17.1469 C   0  0  0  0  0  0  0  0  0  0  0  0
   -1.4398  -10.3875  -15.9346 C   0  0  0  0  0  0  0  0  0  0  0  0
   -1.6043  -11.6748  -15.4141 C   0  0  0  0  0  0  0  0  0  0  0  0
   -1.1303  -12.7725  -16.0925 C   0  0  0  0  0  0  0  0  0  0  0  0
   -0.4640  -12.6065  -17.3062 C   0  0  0  0  0  0  0  0  0  0  0  0
   -1.9050   -9.2547  -15.2374 N   0  0  0  0  0  0  0  0  0  0  0  0
   -1.8030   -7.9267  -15.8580 C   0  0  0  0  0  0  0  0  0  0  0  0
   -1.5022   -6.8314  -14.8603 C   0  0  0  0  0  0  0  0  0  0  0  0
   -2.3974   -6.9067  -13.7042 N   0  0  0  0  0  0  0  0  0  0  0  0
   -2.1779   -5.7852  -12.7857 C   0  0  0  0  0  0  0  0  0  0  0  0
   -2.1864   -8.1899  -13.0315 C   0  0  0  0  0  0  0  0  0  0  0  0
   -2.5722   -9.3355  -13.9355 C   0  0  0  0  0  0  0  0  0  0  0  0
    0.3856  -11.2366  -19.0279 O   0  0  0  0  0  0  0  0  0  0  0  0
   -0.3034  -10.7324  -20.1695 C   0  0  0  0  0  0  0  0  0  0  0  0
  5  4  1  0  0  0
  5  6  1  0  0  0
  3  2  1  0  0  0
  3  4  2  0  0  0
  2  1  2  0  0  0
  4 13  1  0  0  0
  6  7  1  0  0  0
  1 29  1  0  0  0
  1 14  1  0  0  0
 13 14  2  0  0  0
 13  8  1  0  0  0
 15 16  2  0  0  0
  7  8  2  0  0  0
  7 12  1  0  0  0
 29 36  1  0  0  0
  8  9  1  0  0  0
 16 12  1  0  0  0
 16 17  1  0  0  0
 12 11  2  0  0  0
 44 45  1  0  0  0
 44 31  1  0  0  0
 25 20  1  0  0  0
 25 26  1  0  0  0
 36 31  2  0  0  0
 36 35  1  0  0  0
  9 11  1  0  0  0
  9 10  1  0  0  0
 20 21  2  0  0  0
 20 19  1  0  0  0
 17 19  1  0  0  0
 21 22  1  0  0  0
 19 24  2  0  0  0
 31 32  1  0  0  0
 22 23  2  0  0  0
 24 23  1  0  0  0
 24 27  1  0  0  0
 27 28  1  0  0  0
 35 34  2  0  0  0
 32 33  2  0  0  0
 34 33  1  0  0  0
 33 37  1  0  0  0
 37 38  1  0  0  0
 37 43  1  0  0  0
 38 39  1  0  0  0
 43 42  1  0  0  0
 39 40  1  0  0  0
 42 40  1  0  0  0
 40 41  1  0  0  0
 29 30  1  0  0  0
 17 18  1  0  0  0
M  END
> <minimizedAffinity>
-9.25364

$$$$
