4CRB_7P0_A_1485


 44 48  0  0  0  0  0  0  0  0999 V2000
   25.2113   11.1582   53.6854 C   0  0  0  0  0  0  0  0  0  0  0  0
   26.0301    9.5504   55.3573 C   0  0  0  0  0  0  0  0  0  0  0  0
   25.1376    9.8170   56.1583 O   0  0  0  0  0  0  0  0  0  0  0  0
   26.1003   10.0963   54.0892 N   0  0  0  0  0  0  0  0  0  0  0  0
   26.7679    9.7547   53.4512 H   0  0  0  0  0  0  0  0  0  0  0  0
   27.1402    8.6403   55.7406 C   0  0  0  0  0  0  0  0  0  0  0  0
   28.4217    8.8480   55.2593 C   0  0  0  0  0  0  0  0  0  0  0  0
   29.4303    7.9875   55.6413 C   0  0  0  0  0  0  0  0  0  0  0  0
   29.1586    6.9332   56.5013 C   0  0  0  0  0  0  0  0  0  0  0  0
   27.8874    6.7290   56.9782 C   0  0  0  0  0  0  0  0  0  0  0  0
   26.8768    7.5879   56.5979 C   0  0  0  0  0  0  0  0  0  0  0  0
   27.6642    5.6033   57.8960 C   0  0  0  0  0  0  0  0  0  0  0  0
   28.6410    4.7702   58.2785 C   0  0  0  0  0  0  0  0  0  0  0  0
   30.0069    4.9795   57.7677 C   0  0  0  0  0  0  0  0  0  0  0  0
   30.9127    4.2235   58.1117 O   0  0  0  0  0  0  0  0  0  0  0  0
   30.1782    6.0536   56.9086 N   0  0  0  0  0  0  0  0  0  0  0  0
   26.3878    5.4464   58.3440 O   0  0  0  0  0  0  0  0  0  0  0  0
   31.0834    6.2134   56.5561 H   0  0  0  0  0  0  0  0  0  0  0  0
   25.7174    6.0389   58.0656 H   0  0  0  0  0  0  0  0  0  0  0  0
   24.8554   10.8337   52.2542 C   0  0  0  0  0  0  0  0  0  0  0  0
   25.5185   10.0822   51.5591 O   0  0  0  0  0  0  0  0  0  0  0  0
   23.7143   11.4616   51.8036 N   0  0  0  0  0  0  0  0  0  0  0  0
   23.2421   12.1059   52.3790 H   0  0  0  0  0  0  0  0  0  0  0  0
   23.2156   11.1655   50.4766 C   0  0  0  0  0  0  0  0  0  0  0  0
   22.5025   12.3584   49.8894 C   0  0  0  0  0  0  0  0  0  0  0  0
   18.9267   11.3221   49.0907 C   0  0  0  0  0  0  0  0  0  0  0  0
   18.9466   11.3363   47.7015 C   0  0  0  0  0  0  0  0  0  0  0  0
   20.1131   11.6714   47.0448 C   0  0  0  0  0  0  0  0  0  0  0  0
   21.2440   11.9903   47.7747 C   0  0  0  0  0  0  0  0  0  0  0  0
   21.2439   11.9871   49.1598 C   0  0  0  0  0  0  0  0  0  0  0  0
   20.0673   11.6483   49.8123 C   0  0  0  0  0  0  0  0  0  0  0  0
   20.1611   11.7054   45.2924 Cl  0  0  0  0  0  0  0  0  0  0  0  0
   20.0088   11.6428   51.2237 N   0  0  0  0  0  0  0  0  0  0  0  0
   19.6211   12.6510   52.0644 C   0  0  0  0  0  0  0  0  0  0  0  0
   19.7733   12.2572   53.3164 N   0  0  0  0  0  0  0  0  0  0  0  0
   20.2691   10.9812   53.2307 N   0  0  0  0  0  0  0  0  0  0  0  0
   20.4141   10.5961   51.9671 N   0  0  0  0  0  0  0  0  0  0  0  0
   25.9478   12.4877   53.6818 C   0  0  0  0  0  0  0  0  0  0  0  0
   27.3168   12.4315   54.2952 C   0  0  0  0  0  0  0  0  0  0  0  0
   27.4852   12.6417   55.6492 C   0  0  0  0  0  0  0  0  0  0  0  0
   28.4162   12.1798   53.5069 C   0  0  0  0  0  0  0  0  0  0  0  0
   28.7379   12.6003   56.2176 C   0  0  0  0  0  0  0  0  0  0  0  0
   29.6736   12.1297   54.0732 C   0  0  0  0  0  0  0  0  0  0  0  0
   29.8351   12.3414   55.4259 C   0  0  0  0  0  0  0  0  0  0  0  0
  2  6  1  0  0  0
  2  3  2  0  0  0
  2  4  1  0  0  0
  6  7  1  0  0  0
  6 11  2  0  0  0
  7  8  2  0  0  0
  8  9  1  0  0  0
 11 10  1  0  0  0
 10  9  2  0  0  0
 10 12  1  0  0  0
  9 16  1  0  0  0
 16 14  1  0  0  0
 14 13  1  0  0  0
 14 15  2  0  0  0
 13 12  2  0  0  0
  4  1  1  0  0  0
  1 20  1  0  0  0
  1 38  1  0  0  0
 20 21  2  0  0  0
 20 22  1  0  0  0
 38 39  1  0  0  0
 39 40  1  0  0  0
 39 41  2  0  0  0
 40 42  2  0  0  0
 41 43  1  0  0  0
 42 44  1  0  0  0
 43 44  2  0  0  0
 26 27  1  0  0  0
 26 31  2  0  0  0
 27 28  2  0  0  0
 28 29  1  0  0  0
 28 32  1  0  0  0
 29 30  2  0  0  0
 30 31  1  0  0  0
 30 25  1  0  0  0
 31 33  1  0  0  0
 33 34  1  0  0  0
 33 37  1  0  0  0
 34 35  2  0  0  0
 35 36  1  0  0  0
 36 37  2  0  0  0
 25 24  1  0  0  0
 24 22  1  0  0  0
 12 17  1  0  0  0
 16 18  1  0  0  0
 17 19  1  0  0  0
  4  5  1  0  0  0
 22 23  1  0  0  0
M  END
> <minimizedAffinity>
-10.33687

$$$$
4CRB_7P0_A_1485


 44 48  0  0  0  0  0  0  0  0999 V2000
   26.3800   11.6544   53.1829 C   0  0  0  0  0  0  0  0  0  0  0  0
   24.3563   12.4269   52.0174 C   0  0  0  0  0  0  0  0  0  0  0  0
   24.7144   13.6020   52.0200 O   0  0  0  0  0  0  0  0  0  0  0  0
   25.1420   11.3924   52.4902 N   0  0  0  0  0  0  0  0  0  0  0  0
   24.8519   10.4618   52.3521 H   0  0  0  0  0  0  0  0  0  0  0  0
   23.0002   12.0530   51.5390 C   0  0  0  0  0  0  0  0  0  0  0  0
   22.0367   11.6056   52.4269 C   0  0  0  0  0  0  0  0  0  0  0  0
   20.7855   11.2736   51.9493 C   0  0  0  0  0  0  0  0  0  0  0  0
   20.5013   11.3942   50.5966 C   0  0  0  0  0  0  0  0  0  0  0  0
   21.4576   11.8387   49.7175 C   0  0  0  0  0  0  0  0  0  0  0  0
   22.7097   12.1714   50.1923 C   0  0  0  0  0  0  0  0  0  0  0  0
   21.0931   11.9577   48.2989 C   0  0  0  0  0  0  0  0  0  0  0  0
   19.8774   11.6464   47.8303 C   0  0  0  0  0  0  0  0  0  0  0  0
   18.8468   11.1643   48.7663 C   0  0  0  0  0  0  0  0  0  0  0  0
   17.7269   10.8765   48.3499 O   0  0  0  0  0  0  0  0  0  0  0  0
   19.2273   11.0700   50.0958 N   0  0  0  0  0  0  0  0  0  0  0  0
   22.0750   12.4068   47.4691 O   0  0  0  0  0  0  0  0  0  0  0  0
   18.5538   10.7514   50.7394 H   0  0  0  0  0  0  0  0  0  0  0  0
   22.9195   12.6198   47.8147 H   0  0  0  0  0  0  0  0  0  0  0  0
   27.1166   10.3364   53.1584 C   0  0  0  0  0  0  0  0  0  0  0  0
   27.5126    9.8160   52.1289 O   0  0  0  0  0  0  0  0  0  0  0  0
   27.3022    9.7743   54.4030 N   0  0  0  0  0  0  0  0  0  0  0  0
   26.9149   10.1990   55.2022 H   0  0  0  0  0  0  0  0  0  0  0  0
   28.0719    8.5536   54.5251 C   0  0  0  0  0  0  0  0  0  0  0  0
   28.8955    8.5590   55.7892 C   0  0  0  0  0  0  0  0  0  0  0  0
   27.9183   11.3994   58.1290 C   0  0  0  0  0  0  0  0  0  0  0  0
   28.8787   12.3519   57.8113 C   0  0  0  0  0  0  0  0  0  0  0  0
   29.8201   12.0671   56.8433 C   0  0  0  0  0  0  0  0  0  0  0  0
   29.7979   10.8403   56.2048 C   0  0  0  0  0  0  0  0  0  0  0  0
   28.8525    9.8753   56.5102 C   0  0  0  0  0  0  0  0  0  0  0  0
   27.9090   10.1699   57.4839 C   0  0  0  0  0  0  0  0  0  0  0  0
   31.0479   13.2490   56.4311 Cl  0  0  0  0  0  0  0  0  0  0  0  0
   26.9310    9.2161   57.8434 N   0  0  0  0  0  0  0  0  0  0  0  0
   26.9985    8.2491   58.8098 C   0  0  0  0  0  0  0  0  0  0  0  0
   25.8935    7.5252   58.7798 N   0  0  0  0  0  0  0  0  0  0  0  0
   25.1413    8.0651   57.7679 N   0  0  0  0  0  0  0  0  0  0  0  0
   25.7583    9.0926   57.1939 N   0  0  0  0  0  0  0  0  0  0  0  0
   26.1060   11.9967   54.6382 C   0  0  0  0  0  0  0  0  0  0  0  0
   26.6189   13.3435   55.0580 C   0  0  0  0  0  0  0  0  0  0  0  0
   27.8088   13.8272   54.5521 C   0  0  0  0  0  0  0  0  0  0  0  0
   25.9087   14.1015   55.9606 C   0  0  0  0  0  0  0  0  0  0  0  0
   28.2900   15.0573   54.9386 C   0  0  0  0  0  0  0  0  0  0  0  0
   26.3830   15.3389   56.3456 C   0  0  0  0  0  0  0  0  0  0  0  0
   27.5725   15.8158   55.8374 C   0  0  0  0  0  0  0  0  0  0  0  0
  2  6  1  0  0  0
  2  3  2  0  0  0
  2  4  1  0  0  0
  6  7  1  0  0  0
  6 11  2  0  0  0
  7  8  2  0  0  0
  8  9  1  0  0  0
 11 10  1  0  0  0
 10  9  2  0  0  0
 10 12  1  0  0  0
  9 16  1  0  0  0
 16 14  1  0  0  0
 14 13  1  0  0  0
 14 15  2  0  0  0
 13 12  2  0  0  0
  4  1  1  0  0  0
  1 20  1  0  0  0
  1 38  1  0  0  0
 20 21  2  0  0  0
 20 22  1  0  0  0
 38 39  1  0  0  0
 39 40  1  0  0  0
 39 41  2  0  0  0
 40 42  2  0  0  0
 41 43  1  0  0  0
 42 44  1  0  0  0
 43 44  2  0  0  0
 26 27  1  0  0  0
 26 31  2  0  0  0
 27 28  2  0  0  0
 28 29  1  0  0  0
 28 32  1  0  0  0
 29 30  2  0  0  0
 30 31  1  0  0  0
 30 25  1  0  0  0
 31 33  1  0  0  0
 33 34  1  0  0  0
 33 37  1  0  0  0
 34 35  2  0  0  0
 35 36  1  0  0  0
 36 37  2  0  0  0
 25 24  1  0  0  0
 24 22  1  0  0  0
 12 17  1  0  0  0
 16 18  1  0  0  0
 17 19  1  0  0  0
  4  5  1  0  0  0
 22 23  1  0  0  0
M  END
> <minimizedAffinity>
-9.67200

$$$$
4CRB_7P0_A_1485


 44 48  0  0  0  0  0  0  0  0999 V2000
   24.7163   13.1319   54.3707 C   0  0  0  0  0  0  0  0  0  0  0  0
   23.4892   11.6889   52.8014 C   0  0  0  0  0  0  0  0  0  0  0  0
   24.4172   10.8910   52.6949 O   0  0  0  0  0  0  0  0  0  0  0  0
   23.5132   12.7712   53.6610 N   0  0  0  0  0  0  0  0  0  0  0  0
   22.6960   13.3046   53.7910 H   0  0  0  0  0  0  0  0  0  0  0  0
   22.2793   11.5564   51.9493 C   0  0  0  0  0  0  0  0  0  0  0  0
   21.0659   11.1801   52.4997 C   0  0  0  0  0  0  0  0  0  0  0  0
   19.9608   11.0737   51.6804 C   0  0  0  0  0  0  0  0  0  0  0  0
   20.0695   11.3473   50.3245 C   0  0  0  0  0  0  0  0  0  0  0  0
   21.2734   11.7211   49.7804 C   0  0  0  0  0  0  0  0  0  0  0  0
   22.3802   11.8282   50.5974 C   0  0  0  0  0  0  0  0  0  0  0  0
   21.3231   12.0102   48.3405 C   0  0  0  0  0  0  0  0  0  0  0  0
   20.2518   11.9184   47.5414 C   0  0  0  0  0  0  0  0  0  0  0  0
   18.9573   11.5135   48.1164 C   0  0  0  0  0  0  0  0  0  0  0  0
   17.9662   11.4266   47.3949 O   0  0  0  0  0  0  0  0  0  0  0  0
   18.9498   11.2539   49.4780 N   0  0  0  0  0  0  0  0  0  0  0  0
   22.5385   12.3808   47.8507 O   0  0  0  0  0  0  0  0  0  0  0  0
   18.0948   10.9832   49.8840 H   0  0  0  0  0  0  0  0  0  0  0  0
   23.2768   12.4396   48.4247 H   0  0  0  0  0  0  0  0  0  0  0  0
   24.7568   12.1937   55.5533 C   0  0  0  0  0  0  0  0  0  0  0  0
   23.9632   12.2554   56.4774 O   0  0  0  0  0  0  0  0  0  0  0  0
   25.7697   11.2610   55.4951 N   0  0  0  0  0  0  0  0  0  0  0  0
   26.4240   11.2840   54.7598 H   0  0  0  0  0  0  0  0  0  0  0  0
   25.8635   10.2468   56.5246 C   0  0  0  0  0  0  0  0  0  0  0  0
   25.6097    8.8733   55.9540 C   0  0  0  0  0  0  0  0  0  0  0  0
   29.0718    7.3474   55.5258 C   0  0  0  0  0  0  0  0  0  0  0  0
   28.9738    6.2257   56.3398 C   0  0  0  0  0  0  0  0  0  0  0  0
   27.7921    5.9747   57.0068 C   0  0  0  0  0  0  0  0  0  0  0  0
   26.7238    6.8409   56.8593 C   0  0  0  0  0  0  0  0  0  0  0  0
   26.8025    7.9672   56.0569 C   0  0  0  0  0  0  0  0  0  0  0  0
   27.9938    8.2119   55.3892 C   0  0  0  0  0  0  0  0  0  0  0  0
   27.6464    4.5708   58.0470 Cl  0  0  0  0  0  0  0  0  0  0  0  0
   28.1321    9.3536   54.5691 N   0  0  0  0  0  0  0  0  0  0  0  0
   28.8780   10.4791   54.7939 C   0  0  0  0  0  0  0  0  0  0  0  0
   28.6810   11.3366   53.8082 N   0  0  0  0  0  0  0  0  0  0  0  0
   27.7911   10.7162   52.9689 N   0  0  0  0  0  0  0  0  0  0  0  0
   27.4524    9.5122   53.4178 N   0  0  0  0  0  0  0  0  0  0  0  0
   24.6019   14.5464   54.9147 C   0  0  0  0  0  0  0  0  0  0  0  0
   23.9748   15.5210   53.9606 C   0  0  0  0  0  0  0  0  0  0  0  0
   24.3935   15.5807   52.6465 C   0  0  0  0  0  0  0  0  0  0  0  0
   22.9830   16.3704   54.3947 C   0  0  0  0  0  0  0  0  0  0  0  0
   23.8295   16.4773   51.7679 C   0  0  0  0  0  0  0  0  0  0  0  0
   22.4088   17.2661   53.5158 C   0  0  0  0  0  0  0  0  0  0  0  0
   22.8323   17.3213   52.2049 C   0  0  0  0  0  0  0  0  0  0  0  0
  2  6  1  0  0  0
  2  3  2  0  0  0
  2  4  1  0  0  0
  6  7  1  0  0  0
  6 11  2  0  0  0
  7  8  2  0  0  0
  8  9  1  0  0  0
 11 10  1  0  0  0
 10  9  2  0  0  0
 10 12  1  0  0  0
  9 16  1  0  0  0
 16 14  1  0  0  0
 14 13  1  0  0  0
 14 15  2  0  0  0
 13 12  2  0  0  0
  4  1  1  0  0  0
  1 20  1  0  0  0
  1 38  1  0  0  0
 20 21  2  0  0  0
 20 22  1  0  0  0
 38 39  1  0  0  0
 39 40  1  0  0  0
 39 41  2  0  0  0
 40 42  2  0  0  0
 41 43  1  0  0  0
 42 44  1  0  0  0
 43 44  2  0  0  0
 26 27  1  0  0  0
 26 31  2  0  0  0
 27 28  2  0  0  0
 28 29  1  0  0  0
 28 32  1  0  0  0
 29 30  2  0  0  0
 30 31  1  0  0  0
 30 25  1  0  0  0
 31 33  1  0  0  0
 33 34  1  0  0  0
 33 37  1  0  0  0
 34 35  2  0  0  0
 35 36  1  0  0  0
 36 37  2  0  0  0
 25 24  1  0  0  0
 24 22  1  0  0  0
 12 17  1  0  0  0
 16 18  1  0  0  0
 17 19  1  0  0  0
  4  5  1  0  0  0
 22 23  1  0  0  0
M  END
> <minimizedAffinity>
-9.62449

$$$$
4CRB_7P0_A_1485


 44 48  0  0  0  0  0  0  0  0999 V2000
   25.2572   11.4211   54.1596 C   0  0  0  0  0  0  0  0  0  0  0  0
   23.0325   12.1780   53.4327 C   0  0  0  0  0  0  0  0  0  0  0  0
   22.8691   12.8864   54.4230 O   0  0  0  0  0  0  0  0  0  0  0  0
   24.2029   11.4880   53.1773 N   0  0  0  0  0  0  0  0  0  0  0  0
   24.3187   11.0349   52.3109 H   0  0  0  0  0  0  0  0  0  0  0  0
   21.9299   11.9804   52.4566 C   0  0  0  0  0  0  0  0  0  0  0  0
   20.6440   11.7059   52.8901 C   0  0  0  0  0  0  0  0  0  0  0  0
   19.6425   11.5351   51.9565 C   0  0  0  0  0  0  0  0  0  0  0  0
   19.9258   11.6440   50.6026 C   0  0  0  0  0  0  0  0  0  0  0  0
   21.2014   11.9170   50.1744 C   0  0  0  0  0  0  0  0  0  0  0  0
   22.2049   12.0883   51.1058 C   0  0  0  0  0  0  0  0  0  0  0  0
   21.4370   12.0332   48.7286 C   0  0  0  0  0  0  0  0  0  0  0  0
   20.4672   11.8782   47.8175 C   0  0  0  0  0  0  0  0  0  0  0  0
   19.0967   11.5805   48.2684 C   0  0  0  0  0  0  0  0  0  0  0  0
   18.1972   11.4374   47.4432 O   0  0  0  0  0  0  0  0  0  0  0  0
   18.9137   11.4833   49.6389 N   0  0  0  0  0  0  0  0  0  0  0  0
   22.7174   12.3091   48.3558 O   0  0  0  0  0  0  0  0  0  0  0  0
   18.0051   11.2864   49.9630 H   0  0  0  0  0  0  0  0  0  0  0  0
   23.3827   12.4142   49.0071 H   0  0  0  0  0  0  0  0  0  0  0  0
   26.3213   12.3587   53.6410 C   0  0  0  0  0  0  0  0  0  0  0  0
   26.1172   13.5423   53.4287 O   0  0  0  0  0  0  0  0  0  0  0  0
   27.5436   11.7583   53.4298 N   0  0  0  0  0  0  0  0  0  0  0  0
   27.6488   10.7879   53.5583 H   0  0  0  0  0  0  0  0  0  0  0  0
   28.6721   12.5668   53.0172 C   0  0  0  0  0  0  0  0  0  0  0  0
   29.5209   12.9539   54.2028 C   0  0  0  0  0  0  0  0  0  0  0  0
   28.6764   11.5765   57.6507 C   0  0  0  0  0  0  0  0  0  0  0  0
   29.0137   10.2377   57.4954 C   0  0  0  0  0  0  0  0  0  0  0  0
   29.5152    9.8020   56.2858 C   0  0  0  0  0  0  0  0  0  0  0  0
   29.6732   10.6997   55.2453 C   0  0  0  0  0  0  0  0  0  0  0  0
   29.3382   12.0372   55.3778 C   0  0  0  0  0  0  0  0  0  0  0  0
   28.8356   12.4672   56.5974 C   0  0  0  0  0  0  0  0  0  0  0  0
   29.9397    8.1156   56.0620 Cl  0  0  0  0  0  0  0  0  0  0  0  0
   28.4654   13.8179   56.7817 N   0  0  0  0  0  0  0  0  0  0  0  0
   29.2516   14.8732   57.1581 C   0  0  0  0  0  0  0  0  0  0  0  0
   28.5022   15.9551   57.2751 N   0  0  0  0  0  0  0  0  0  0  0  0
   27.2310   15.5430   56.9659 N   0  0  0  0  0  0  0  0  0  0  0  0
   27.1958   14.2497   56.6625 N   0  0  0  0  0  0  0  0  0  0  0  0
   25.8568   10.0249   54.1930 C   0  0  0  0  0  0  0  0  0  0  0  0
   25.8622    9.3926   55.5545 C   0  0  0  0  0  0  0  0  0  0  0  0
   26.2825    8.0878   55.7176 C   0  0  0  0  0  0  0  0  0  0  0  0
   25.4368   10.1091   56.6496 C   0  0  0  0  0  0  0  0  0  0  0  0
   26.2822    7.4983   56.9612 C   0  0  0  0  0  0  0  0  0  0  0  0
   25.4418    9.5252   57.8999 C   0  0  0  0  0  0  0  0  0  0  0  0
   25.8619    8.2213   58.0559 C   0  0  0  0  0  0  0  0  0  0  0  0
  2  6  1  0  0  0
  2  3  2  0  0  0
  2  4  1  0  0  0
  6  7  1  0  0  0
  6 11  2  0  0  0
  7  8  2  0  0  0
  8  9  1  0  0  0
 11 10  1  0  0  0
 10  9  2  0  0  0
 10 12  1  0  0  0
  9 16  1  0  0  0
 16 14  1  0  0  0
 14 13  1  0  0  0
 14 15  2  0  0  0
 13 12  2  0  0  0
  4  1  1  0  0  0
  1 20  1  0  0  0
  1 38  1  0  0  0
 20 21  2  0  0  0
 20 22  1  0  0  0
 38 39  1  0  0  0
 39 40  1  0  0  0
 39 41  2  0  0  0
 40 42  2  0  0  0
 41 43  1  0  0  0
 42 44  1  0  0  0
 43 44  2  0  0  0
 26 27  1  0  0  0
 26 31  2  0  0  0
 27 28  2  0  0  0
 28 29  1  0  0  0
 28 32  1  0  0  0
 29 30  2  0  0  0
 30 31  1  0  0  0
 30 25  1  0  0  0
 31 33  1  0  0  0
 33 34  1  0  0  0
 33 37  1  0  0  0
 34 35  2  0  0  0
 35 36  1  0  0  0
 36 37  2  0  0  0
 25 24  1  0  0  0
 24 22  1  0  0  0
 12 17  1  0  0  0
 16 18  1  0  0  0
 17 19  1  0  0  0
  4  5  1  0  0  0
 22 23  1  0  0  0
M  END
> <minimizedAffinity>
-9.59577

$$$$
4CRB_7P0_A_1485


 44 48  0  0  0  0  0  0  0  0999 V2000
   23.9356   14.8002   54.6260 C   0  0  0  0  0  0  0  0  0  0  0  0
   24.3075   13.2295   56.4822 C   0  0  0  0  0  0  0  0  0  0  0  0
   24.2483   14.1105   57.3364 O   0  0  0  0  0  0  0  0  0  0  0  0
   24.0850   13.4595   55.1373 N   0  0  0  0  0  0  0  0  0  0  0  0
   24.0274   12.6960   54.5185 H   0  0  0  0  0  0  0  0  0  0  0  0
   24.6828   11.8412   56.8555 C   0  0  0  0  0  0  0  0  0  0  0  0
   24.3773   11.3402   58.1094 C   0  0  0  0  0  0  0  0  0  0  0  0
   24.7344   10.0441   58.4202 C   0  0  0  0  0  0  0  0  0  0  0  0
   25.3856    9.2565   57.4817 C   0  0  0  0  0  0  0  0  0  0  0  0
   25.6871    9.7546   56.2384 C   0  0  0  0  0  0  0  0  0  0  0  0
   25.3313   11.0504   55.9249 C   0  0  0  0  0  0  0  0  0  0  0  0
   26.3660    8.8684   55.2829 C   0  0  0  0  0  0  0  0  0  0  0  0
   26.7065    7.6061   55.5749 C   0  0  0  0  0  0  0  0  0  0  0  0
   26.3908    7.0654   56.9084 C   0  0  0  0  0  0  0  0  0  0  0  0
   26.6962    5.9085   57.1889 O   0  0  0  0  0  0  0  0  0  0  0  0
   25.7465    7.9298   57.7795 N   0  0  0  0  0  0  0  0  0  0  0  0
   26.6389    9.4082   54.0627 O   0  0  0  0  0  0  0  0  0  0  0  0
   25.5242    7.5890   58.6760 H   0  0  0  0  0  0  0  0  0  0  0  0
   26.3932   10.2930   53.8763 H   0  0  0  0  0  0  0  0  0  0  0  0
   22.7451   14.7245   53.7002 C   0  0  0  0  0  0  0  0  0  0  0  0
   22.4450   15.6211   52.9297 O   0  0  0  0  0  0  0  0  0  0  0  0
   22.0283   13.5519   53.8027 N   0  0  0  0  0  0  0  0  0  0  0  0
   22.2711   12.8793   54.4794 H   0  0  0  0  0  0  0  0  0  0  0  0
   20.9150   13.3174   52.9067 C   0  0  0  0  0  0  0  0  0  0  0  0
   20.8914   11.8832   52.4390 C   0  0  0  0  0  0  0  0  0  0  0  0
   22.2803   11.4862   48.9160 C   0  0  0  0  0  0  0  0  0  0  0  0
   21.1116   11.4878   48.1645 C   0  0  0  0  0  0  0  0  0  0  0  0
   19.8962   11.6249   48.8036 C   0  0  0  0  0  0  0  0  0  0  0  0
   19.8559   11.7562   50.1800 C   0  0  0  0  0  0  0  0  0  0  0  0
   21.0086   11.7518   50.9479 C   0  0  0  0  0  0  0  0  0  0  0  0
   22.2265   11.6144   50.2976 C   0  0  0  0  0  0  0  0  0  0  0  0
   18.4069   11.6208   47.8783 Cl  0  0  0  0  0  0  0  0  0  0  0  0
   23.4315   11.5899   51.0343 N   0  0  0  0  0  0  0  0  0  0  0  0
   24.1051   10.5065   51.5303 C   0  0  0  0  0  0  0  0  0  0  0  0
   25.1562   10.9226   52.2143 N   0  0  0  0  0  0  0  0  0  0  0  0
   25.1148   12.2912   52.1335 N   0  0  0  0  0  0  0  0  0  0  0  0
   24.0751   12.7082   51.4186 N   0  0  0  0  0  0  0  0  0  0  0  0
   25.1435   15.1798   53.7853 C   0  0  0  0  0  0  0  0  0  0  0  0
   26.3969   15.4054   54.5800 C   0  0  0  0  0  0  0  0  0  0  0  0
   27.3273   14.3953   54.7198 C   0  0  0  0  0  0  0  0  0  0  0  0
   26.6211   16.6212   55.1843 C   0  0  0  0  0  0  0  0  0  0  0  0
   28.4748   14.5915   55.4538 C   0  0  0  0  0  0  0  0  0  0  0  0
   27.7737   16.8257   55.9151 C   0  0  0  0  0  0  0  0  0  0  0  0
   28.6985   15.8123   56.0517 C   0  0  0  0  0  0  0  0  0  0  0  0
  2  6  1  0  0  0
  2  3  2  0  0  0
  2  4  1  0  0  0
  6  7  1  0  0  0
  6 11  2  0  0  0
  7  8  2  0  0  0
  8  9  1  0  0  0
 11 10  1  0  0  0
 10  9  2  0  0  0
 10 12  1  0  0  0
  9 16  1  0  0  0
 16 14  1  0  0  0
 14 13  1  0  0  0
 14 15  2  0  0  0
 13 12  2  0  0  0
  4  1  1  0  0  0
  1 20  1  0  0  0
  1 38  1  0  0  0
 20 21  2  0  0  0
 20 22  1  0  0  0
 38 39  1  0  0  0
 39 40  1  0  0  0
 39 41  2  0  0  0
 40 42  2  0  0  0
 41 43  1  0  0  0
 42 44  1  0  0  0
 43 44  2  0  0  0
 26 27  1  0  0  0
 26 31  2  0  0  0
 27 28  2  0  0  0
 28 29  1  0  0  0
 28 32  1  0  0  0
 29 30  2  0  0  0
 30 31  1  0  0  0
 30 25  1  0  0  0
 31 33  1  0  0  0
 33 34  1  0  0  0
 33 37  1  0  0  0
 34 35  2  0  0  0
 35 36  1  0  0  0
 36 37  2  0  0  0
 25 24  1  0  0  0
 24 22  1  0  0  0
 12 17  1  0  0  0
 16 18  1  0  0  0
 17 19  1  0  0  0
  4  5  1  0  0  0
 22 23  1  0  0  0
M  END
> <minimizedAffinity>
-9.36888

$$$$
4CRB_7P0_A_1485


 44 48  0  0  0  0  0  0  0  0999 V2000
   24.3036   14.3728   53.4326 C   0  0  0  0  0  0  0  0  0  0  0  0
   24.7892   12.1178   54.2869 C   0  0  0  0  0  0  0  0  0  0  0  0
   23.7908   12.0940   55.0022 O   0  0  0  0  0  0  0  0  0  0  0  0
   25.0792   13.1565   53.4220 N   0  0  0  0  0  0  0  0  0  0  0  0
   25.8272   13.0646   52.7885 H   0  0  0  0  0  0  0  0  0  0  0  0
   25.7916   11.0232   54.3546 C   0  0  0  0  0  0  0  0  0  0  0  0
   26.9223   11.0507   53.5560 C   0  0  0  0  0  0  0  0  0  0  0  0
   27.8361   10.0212   53.6497 C   0  0  0  0  0  0  0  0  0  0  0  0
   27.6217    8.9777   54.5387 C   0  0  0  0  0  0  0  0  0  0  0  0
   26.5004    8.9523   55.3304 C   0  0  0  0  0  0  0  0  0  0  0  0
   25.5848    9.9805   55.2388 C   0  0  0  0  0  0  0  0  0  0  0  0
   26.3350    7.8276   56.2617 C   0  0  0  0  0  0  0  0  0  0  0  0
   27.2233    6.8301   56.3645 C   0  0  0  0  0  0  0  0  0  0  0  0
   28.4269    6.8475   55.5152 C   0  0  0  0  0  0  0  0  0  0  0  0
   29.2506    5.9394   55.6005 O   0  0  0  0  0  0  0  0  0  0  0  0
   28.5493    7.9263   54.6537 N   0  0  0  0  0  0  0  0  0  0  0  0
   25.2091    7.8510   57.0273 O   0  0  0  0  0  0  0  0  0  0  0  0
   29.3470    7.9594   54.0777 H   0  0  0  0  0  0  0  0  0  0  0  0
   24.5990    8.5570   56.9417 H   0  0  0  0  0  0  0  0  0  0  0  0
   23.4518   14.2924   52.1883 C   0  0  0  0  0  0  0  0  0  0  0  0
   22.5615   15.0884   51.9404 O   0  0  0  0  0  0  0  0  0  0  0  0
   23.7703   13.2401   51.3574 N   0  0  0  0  0  0  0  0  0  0  0  0
   24.4570   12.5871   51.6244 H   0  0  0  0  0  0  0  0  0  0  0  0
   23.0865   13.1030   50.0881 C   0  0  0  0  0  0  0  0  0  0  0  0
   22.5713   11.6973   49.9017 C   0  0  0  0  0  0  0  0  0  0  0  0
   18.8208   11.6003   49.2517 C   0  0  0  0  0  0  0  0  0  0  0  0
   18.7889   11.5869   47.8627 C   0  0  0  0  0  0  0  0  0  0  0  0
   19.9755   11.6011   47.1584 C   0  0  0  0  0  0  0  0  0  0  0  0
   21.1782   11.6307   47.8411 C   0  0  0  0  0  0  0  0  0  0  0  0
   21.2318   11.6497   49.2250 C   0  0  0  0  0  0  0  0  0  0  0  0
   20.0344   11.6344   49.9256 C   0  0  0  0  0  0  0  0  0  0  0  0
   19.9615   11.5938   45.4051 Cl  0  0  0  0  0  0  0  0  0  0  0  0
   20.0320   11.6665   51.3378 N   0  0  0  0  0  0  0  0  0  0  0  0
   20.0317   10.6150   52.2141 C   0  0  0  0  0  0  0  0  0  0  0  0
   19.9647   11.0776   53.4499 N   0  0  0  0  0  0  0  0  0  0  0  0
   19.9192   12.4421   53.3176 N   0  0  0  0  0  0  0  0  0  0  0  0
   19.9619   12.8119   52.0419 N   0  0  0  0  0  0  0  0  0  0  0  0
   25.2157   15.5793   53.2835 C   0  0  0  0  0  0  0  0  0  0  0  0
   25.9492   15.9520   54.5391 C   0  0  0  0  0  0  0  0  0  0  0  0
   27.0824   16.7381   54.4795 C   0  0  0  0  0  0  0  0  0  0  0  0
   25.5004   15.5019   55.7596 C   0  0  0  0  0  0  0  0  0  0  0  0
   27.7653   17.0770   55.6253 C   0  0  0  0  0  0  0  0  0  0  0  0
   26.1771   15.8452   56.9122 C   0  0  0  0  0  0  0  0  0  0  0  0
   27.3088   16.6298   56.8457 C   0  0  0  0  0  0  0  0  0  0  0  0
  2  6  1  0  0  0
  2  3  2  0  0  0
  2  4  1  0  0  0
  6  7  1  0  0  0
  6 11  2  0  0  0
  7  8  2  0  0  0
  8  9  1  0  0  0
 11 10  1  0  0  0
 10  9  2  0  0  0
 10 12  1  0  0  0
  9 16  1  0  0  0
 16 14  1  0  0  0
 14 13  1  0  0  0
 14 15  2  0  0  0
 13 12  2  0  0  0
  4  1  1  0  0  0
  1 20  1  0  0  0
  1 38  1  0  0  0
 20 21  2  0  0  0
 20 22  1  0  0  0
 38 39  1  0  0  0
 39 40  1  0  0  0
 39 41  2  0  0  0
 40 42  2  0  0  0
 41 43  1  0  0  0
 42 44  1  0  0  0
 43 44  2  0  0  0
 26 27  1  0  0  0
 26 31  2  0  0  0
 27 28  2  0  0  0
 28 29  1  0  0  0
 28 32  1  0  0  0
 29 30  2  0  0  0
 30 31  1  0  0  0
 30 25  1  0  0  0
 31 33  1  0  0  0
 33 34  1  0  0  0
 33 37  1  0  0  0
 34 35  2  0  0  0
 35 36  1  0  0  0
 36 37  2  0  0  0
 25 24  1  0  0  0
 24 22  1  0  0  0
 12 17  1  0  0  0
 16 18  1  0  0  0
 17 19  1  0  0  0
  4  5  1  0  0  0
 22 23  1  0  0  0
M  END
> <minimizedAffinity>
-9.34067

$$$$
4CRB_7P0_A_1485


 44 48  0  0  0  0  0  0  0  0999 V2000
   26.2306   11.2223   54.0275 C   0  0  0  0  0  0  0  0  0  0  0  0
   23.9980   11.5347   53.0432 C   0  0  0  0  0  0  0  0  0  0  0  0
   23.4805   11.8119   54.1224 O   0  0  0  0  0  0  0  0  0  0  0  0
   25.3533   11.3120   52.8858 N   0  0  0  0  0  0  0  0  0  0  0  0
   25.7258   11.2130   51.9799 H   0  0  0  0  0  0  0  0  0  0  0  0
   23.1619   11.3695   51.8262 C   0  0  0  0  0  0  0  0  0  0  0  0
   23.7066   10.8624   50.6588 C   0  0  0  0  0  0  0  0  0  0  0  0
   22.8996   10.7156   49.5493 C   0  0  0  0  0  0  0  0  0  0  0  0
   21.5590   11.0681   49.6111 C   0  0  0  0  0  0  0  0  0  0  0  0
   21.0202   11.5701   50.7698 C   0  0  0  0  0  0  0  0  0  0  0  0
   21.8249   11.7180   51.8808 C   0  0  0  0  0  0  0  0  0  0  0  0
   19.5914   11.9133   50.7776 C   0  0  0  0  0  0  0  0  0  0  0  0
   18.8001   11.7640   49.7070 C   0  0  0  0  0  0  0  0  0  0  0  0
   19.3715   11.2303   48.4584 C   0  0  0  0  0  0  0  0  0  0  0  0
   18.6566   11.0869   47.4691 O   0  0  0  0  0  0  0  0  0  0  0  0
   20.7207   10.9143   48.4919 N   0  0  0  0  0  0  0  0  0  0  0  0
   19.1046   12.4029   51.9515 O   0  0  0  0  0  0  0  0  0  0  0  0
   21.1234   10.5544   47.6688 H   0  0  0  0  0  0  0  0  0  0  0  0
   19.6730   12.5005   52.6900 H   0  0  0  0  0  0  0  0  0  0  0  0
   27.0698   12.4760   53.9626 C   0  0  0  0  0  0  0  0  0  0  0  0
   26.5920   13.5975   53.9992 O   0  0  0  0  0  0  0  0  0  0  0  0
   28.4237   12.2401   53.8592 N   0  0  0  0  0  0  0  0  0  0  0  0
   28.7620   11.3195   53.7737 H   0  0  0  0  0  0  0  0  0  0  0  0
   29.3444   13.3578   53.8774 C   0  0  0  0  0  0  0  0  0  0  0  0
   30.2663   13.2783   55.0690 C   0  0  0  0  0  0  0  0  0  0  0  0
   29.4391   14.2988   58.6429 C   0  0  0  0  0  0  0  0  0  0  0  0
   28.7353   15.4777   58.4298 C   0  0  0  0  0  0  0  0  0  0  0  0
   28.5317   15.9204   57.1387 C   0  0  0  0  0  0  0  0  0  0  0  0
   29.0308   15.1890   56.0760 C   0  0  0  0  0  0  0  0  0  0  0  0
   29.7394   14.0143   56.2669 C   0  0  0  0  0  0  0  0  0  0  0  0
   29.9390   13.5757   57.5680 C   0  0  0  0  0  0  0  0  0  0  0  0
   27.6546   17.4097   56.8441 Cl  0  0  0  0  0  0  0  0  0  0  0  0
   30.6666   12.3913   57.8194 N   0  0  0  0  0  0  0  0  0  0  0  0
   30.1993   11.1083   57.9148 C   0  0  0  0  0  0  0  0  0  0  0  0
   31.1997   10.3020   58.2228 N   0  0  0  0  0  0  0  0  0  0  0  0
   32.2980   11.1180   58.3200 N   0  0  0  0  0  0  0  0  0  0  0  0
   31.9883   12.3868   58.0752 N   0  0  0  0  0  0  0  0  0  0  0  0
   27.1696   10.0367   53.8771 C   0  0  0  0  0  0  0  0  0  0  0  0
   26.9601    8.9556   54.8973 C   0  0  0  0  0  0  0  0  0  0  0  0
   27.8004    7.8612   54.9386 C   0  0  0  0  0  0  0  0  0  0  0  0
   25.9194    9.0448   55.7931 C   0  0  0  0  0  0  0  0  0  0  0  0
   27.6097    6.8617   55.8653 C   0  0  0  0  0  0  0  0  0  0  0  0
   25.7285    8.0491   56.7293 C   0  0  0  0  0  0  0  0  0  0  0  0
   26.5707    6.9581   56.7646 C   0  0  0  0  0  0  0  0  0  0  0  0
  2  6  1  0  0  0
  2  3  2  0  0  0
  2  4  1  0  0  0
  6  7  1  0  0  0
  6 11  2  0  0  0
  7  8  2  0  0  0
  8  9  1  0  0  0
 11 10  1  0  0  0
 10  9  2  0  0  0
 10 12  1  0  0  0
  9 16  1  0  0  0
 16 14  1  0  0  0
 14 13  1  0  0  0
 14 15  2  0  0  0
 13 12  2  0  0  0
  4  1  1  0  0  0
  1 20  1  0  0  0
  1 38  1  0  0  0
 20 21  2  0  0  0
 20 22  1  0  0  0
 38 39  1  0  0  0
 39 40  1  0  0  0
 39 41  2  0  0  0
 40 42  2  0  0  0
 41 43  1  0  0  0
 42 44  1  0  0  0
 43 44  2  0  0  0
 26 27  1  0  0  0
 26 31  2  0  0  0
 27 28  2  0  0  0
 28 29  1  0  0  0
 28 32  1  0  0  0
 29 30  2  0  0  0
 30 31  1  0  0  0
 30 25  1  0  0  0
 31 33  1  0  0  0
 33 34  1  0  0  0
 33 37  1  0  0  0
 34 35  2  0  0  0
 35 36  1  0  0  0
 36 37  2  0  0  0
 25 24  1  0  0  0
 24 22  1  0  0  0
 12 17  1  0  0  0
 16 18  1  0  0  0
 17 19  1  0  0  0
  4  5  1  0  0  0
 22 23  1  0  0  0
M  END
> <minimizedAffinity>
-9.19831

$$$$
4CRB_7P0_A_1485


 44 48  0  0  0  0  0  0  0  0999 V2000
   28.0516    9.6247   54.8449 C   0  0  0  0  0  0  0  0  0  0  0  0
   26.4271   10.2544   53.1084 C   0  0  0  0  0  0  0  0  0  0  0  0
   27.2182   10.0503   52.1909 O   0  0  0  0  0  0  0  0  0  0  0  0
   26.7192    9.9954   54.4346 N   0  0  0  0  0  0  0  0  0  0  0  0
   26.0062   10.0650   55.1100 H   0  0  0  0  0  0  0  0  0  0  0  0
   25.0959   10.8556   52.8367 C   0  0  0  0  0  0  0  0  0  0  0  0
   24.4636   11.6325   53.7924 C   0  0  0  0  0  0  0  0  0  0  0  0
   23.2310   12.1813   53.5039 C   0  0  0  0  0  0  0  0  0  0  0  0
   22.6408   11.9584   52.2681 C   0  0  0  0  0  0  0  0  0  0  0  0
   23.2694   11.1883   51.3212 C   0  0  0  0  0  0  0  0  0  0  0  0
   24.5022   10.6382   51.6070 C   0  0  0  0  0  0  0  0  0  0  0  0
   22.6005   10.9988   50.0266 C   0  0  0  0  0  0  0  0  0  0  0  0
   21.4085   11.5369   49.7366 C   0  0  0  0  0  0  0  0  0  0  0  0
   20.7251   12.3607   50.7489 C   0  0  0  0  0  0  0  0  0  0  0  0
   19.6317   12.8615   50.4955 O   0  0  0  0  0  0  0  0  0  0  0  0
   21.3895   12.5197   51.9549 N   0  0  0  0  0  0  0  0  0  0  0  0
   23.2668   10.2309   49.1205 O   0  0  0  0  0  0  0  0  0  0  0  0
   20.9519   13.0680   52.6457 H   0  0  0  0  0  0  0  0  0  0  0  0
   24.0998    9.8627   49.3410 H   0  0  0  0  0  0  0  0  0  0  0  0
   27.9537    8.1542   55.1740 C   0  0  0  0  0  0  0  0  0  0  0  0
   28.6236    7.3024   54.6142 O   0  0  0  0  0  0  0  0  0  0  0  0
   27.0408    7.8603   56.1637 N   0  0  0  0  0  0  0  0  0  0  0  0
   26.4789    8.5716   56.5478 H   0  0  0  0  0  0  0  0  0  0  0  0
   26.9150    6.4963   56.6339 C   0  0  0  0  0  0  0  0  0  0  0  0
   27.2927    6.3906   58.0908 C   0  0  0  0  0  0  0  0  0  0  0  0
   30.3058    4.2191   58.9294 C   0  0  0  0  0  0  0  0  0  0  0  0
   29.7315    2.9540   58.9377 C   0  0  0  0  0  0  0  0  0  0  0  0
   28.3854    2.8200   58.6652 C   0  0  0  0  0  0  0  0  0  0  0  0
   27.6260    3.9431   58.3903 C   0  0  0  0  0  0  0  0  0  0  0  0
   28.1779    5.2135   58.3821 C   0  0  0  0  0  0  0  0  0  0  0  0
   29.5322    5.3393   58.6562 C   0  0  0  0  0  0  0  0  0  0  0  0
   27.6354    1.2352   58.6785 Cl  0  0  0  0  0  0  0  0  0  0  0  0
   30.1424    6.6132   58.6743 N   0  0  0  0  0  0  0  0  0  0  0  0
   30.6378    7.3357   57.6226 C   0  0  0  0  0  0  0  0  0  0  0  0
   31.1822    8.4503   58.0776 N   0  0  0  0  0  0  0  0  0  0  0  0
   31.0157    8.3986   59.4381 N   0  0  0  0  0  0  0  0  0  0  0  0
   30.3843    7.2907   59.8122 N   0  0  0  0  0  0  0  0  0  0  0  0
   28.4299   10.3539   56.1237 C   0  0  0  0  0  0  0  0  0  0  0  0
   29.2031   11.6211   55.9008 C   0  0  0  0  0  0  0  0  0  0  0  0
   29.5812   11.9943   54.6267 C   0  0  0  0  0  0  0  0  0  0  0  0
   29.5496   12.4150   56.9700 C   0  0  0  0  0  0  0  0  0  0  0  0
   30.2976   13.1501   54.4150 C   0  0  0  0  0  0  0  0  0  0  0  0
   30.2613   13.5789   56.7624 C   0  0  0  0  0  0  0  0  0  0  0  0
   30.6366   13.9455   55.4875 C   0  0  0  0  0  0  0  0  0  0  0  0
  2  6  1  0  0  0
  2  3  2  0  0  0
  2  4  1  0  0  0
  6  7  1  0  0  0
  6 11  2  0  0  0
  7  8  2  0  0  0
  8  9  1  0  0  0
 11 10  1  0  0  0
 10  9  2  0  0  0
 10 12  1  0  0  0
  9 16  1  0  0  0
 16 14  1  0  0  0
 14 13  1  0  0  0
 14 15  2  0  0  0
 13 12  2  0  0  0
  4  1  1  0  0  0
  1 20  1  0  0  0
  1 38  1  0  0  0
 20 21  2  0  0  0
 20 22  1  0  0  0
 38 39  1  0  0  0
 39 40  1  0  0  0
 39 41  2  0  0  0
 40 42  2  0  0  0
 41 43  1  0  0  0
 42 44  1  0  0  0
 43 44  2  0  0  0
 26 27  1  0  0  0
 26 31  2  0  0  0
 27 28  2  0  0  0
 28 29  1  0  0  0
 28 32  1  0  0  0
 29 30  2  0  0  0
 30 31  1  0  0  0
 30 25  1  0  0  0
 31 33  1  0  0  0
 33 34  1  0  0  0
 33 37  1  0  0  0
 34 35  2  0  0  0
 35 36  1  0  0  0
 36 37  2  0  0  0
 25 24  1  0  0  0
 24 22  1  0  0  0
 12 17  1  0  0  0
 16 18  1  0  0  0
 17 19  1  0  0  0
  4  5  1  0  0  0
 22 23  1  0  0  0
M  END
> <minimizedAffinity>
-9.15098

$$$$
4CRB_7P0_A_1485


 44 48  0  0  0  0  0  0  0  0999 V2000
   24.5960   12.7828   52.5891 C   0  0  0  0  0  0  0  0  0  0  0  0
   25.7374   10.7596   53.3981 C   0  0  0  0  0  0  0  0  0  0  0  0
   25.8164   10.2664   52.2757 O   0  0  0  0  0  0  0  0  0  0  0  0
   25.2304   12.0229   53.6385 N   0  0  0  0  0  0  0  0  0  0  0  0
   25.3035   12.4104   54.5406 H   0  0  0  0  0  0  0  0  0  0  0  0
   26.1475    9.9802   54.5947 C   0  0  0  0  0  0  0  0  0  0  0  0
   25.5025   10.1562   55.8071 C   0  0  0  0  0  0  0  0  0  0  0  0
   25.9045    9.4107   56.8963 C   0  0  0  0  0  0  0  0  0  0  0  0
   26.9384    8.4939   56.7702 C   0  0  0  0  0  0  0  0  0  0  0  0
   27.5764    8.3200   55.5670 C   0  0  0  0  0  0  0  0  0  0  0  0
   27.1766    9.0643   54.4761 C   0  0  0  0  0  0  0  0  0  0  0  0
   28.6553    7.3252   55.4923 C   0  0  0  0  0  0  0  0  0  0  0  0
   29.0438    6.5911   56.5435 C   0  0  0  0  0  0  0  0  0  0  0  0
   28.3674    6.7750   57.8393 C   0  0  0  0  0  0  0  0  0  0  0  0
   28.7128    6.1070   58.8114 O   0  0  0  0  0  0  0  0  0  0  0  0
   27.3525    7.7186   57.8685 N   0  0  0  0  0  0  0  0  0  0  0  0
   29.2531    7.1875   54.2765 O   0  0  0  0  0  0  0  0  0  0  0  0
   26.8855    7.8569   58.7240 H   0  0  0  0  0  0  0  0  0  0  0  0
   28.9681    7.7095   53.5525 H   0  0  0  0  0  0  0  0  0  0  0  0
   24.8951   14.2237   52.9278 C   0  0  0  0  0  0  0  0  0  0  0  0
   24.5667   15.1558   52.2131 O   0  0  0  0  0  0  0  0  0  0  0  0
   25.5712   14.3918   54.1168 N   0  0  0  0  0  0  0  0  0  0  0  0
   25.8686   13.6085   54.6338 H   0  0  0  0  0  0  0  0  0  0  0  0
   25.8406   15.7304   54.5995 C   0  0  0  0  0  0  0  0  0  0  0  0
   27.3244   15.9660   54.7375 C   0  0  0  0  0  0  0  0  0  0  0  0
   29.1072   14.4485   57.7403 C   0  0  0  0  0  0  0  0  0  0  0  0
   28.7405   15.3338   58.7464 C   0  0  0  0  0  0  0  0  0  0  0  0
   27.9188   16.4002   58.4431 C   0  0  0  0  0  0  0  0  0  0  0  0
   27.4734   16.5756   57.1453 C   0  0  0  0  0  0  0  0  0  0  0  0
   27.8314   15.7077   56.1270 C   0  0  0  0  0  0  0  0  0  0  0  0
   28.6571   14.6377   56.4404 C   0  0  0  0  0  0  0  0  0  0  0  0
   27.4493   17.5364   59.6933 Cl  0  0  0  0  0  0  0  0  0  0  0  0
   29.0635   13.7305   55.4369 N   0  0  0  0  0  0  0  0  0  0  0  0
   30.2751   13.6446   54.8057 C   0  0  0  0  0  0  0  0  0  0  0  0
   30.2209   12.6981   53.8854 N   0  0  0  0  0  0  0  0  0  0  0  0
   28.9441   12.2022   53.9591 N   0  0  0  0  0  0  0  0  0  0  0  0
   28.2331   12.8182   54.8977 N   0  0  0  0  0  0  0  0  0  0  0  0
   23.0879   12.6040   52.6485 C   0  0  0  0  0  0  0  0  0  0  0  0
   22.4818   12.0842   51.3774 C   0  0  0  0  0  0  0  0  0  0  0  0
   21.3153   11.3468   51.4097 C   0  0  0  0  0  0  0  0  0  0  0  0
   23.0933   12.3320   50.1698 C   0  0  0  0  0  0  0  0  0  0  0  0
   20.7580   10.8595   50.2494 C   0  0  0  0  0  0  0  0  0  0  0  0
   22.5345   11.8522   49.0028 C   0  0  0  0  0  0  0  0  0  0  0  0
   21.3699   11.1155   49.0420 C   0  0  0  0  0  0  0  0  0  0  0  0
  2  6  1  0  0  0
  2  3  2  0  0  0
  2  4  1  0  0  0
  6  7  1  0  0  0
  6 11  2  0  0  0
  7  8  2  0  0  0
  8  9  1  0  0  0
 11 10  1  0  0  0
 10  9  2  0  0  0
 10 12  1  0  0  0
  9 16  1  0  0  0
 16 14  1  0  0  0
 14 13  1  0  0  0
 14 15  2  0  0  0
 13 12  2  0  0  0
  4  1  1  0  0  0
  1 20  1  0  0  0
  1 38  1  0  0  0
 20 21  2  0  0  0
 20 22  1  0  0  0
 38 39  1  0  0  0
 39 40  1  0  0  0
 39 41  2  0  0  0
 40 42  2  0  0  0
 41 43  1  0  0  0
 42 44  1  0  0  0
 43 44  2  0  0  0
 26 27  1  0  0  0
 26 31  2  0  0  0
 27 28  2  0  0  0
 28 29  1  0  0  0
 28 32  1  0  0  0
 29 30  2  0  0  0
 30 31  1  0  0  0
 30 25  1  0  0  0
 31 33  1  0  0  0
 33 34  1  0  0  0
 33 37  1  0  0  0
 34 35  2  0  0  0
 35 36  1  0  0  0
 36 37  2  0  0  0
 25 24  1  0  0  0
 24 22  1  0  0  0
 12 17  1  0  0  0
 16 18  1  0  0  0
 17 19  1  0  0  0
  4  5  1  0  0  0
 22 23  1  0  0  0
M  END
> <minimizedAffinity>
-9.13217

$$$$
4CRB_7P0_A_1485


 44 48  0  0  0  0  0  0  0  0999 V2000
   23.2441   12.8915   51.4870 C   0  0  0  0  0  0  0  0  0  0  0  0
   24.6320   11.2573   52.6927 C   0  0  0  0  0  0  0  0  0  0  0  0
   24.6891   10.4895   51.7354 O   0  0  0  0  0  0  0  0  0  0  0  0
   24.0167   12.4940   52.6386 N   0  0  0  0  0  0  0  0  0  0  0  0
   24.1072   13.1136   53.3984 H   0  0  0  0  0  0  0  0  0  0  0  0
   25.1931   10.8624   54.0106 C   0  0  0  0  0  0  0  0  0  0  0  0
   24.6310   11.3303   55.1861 C   0  0  0  0  0  0  0  0  0  0  0  0
   25.1732   10.9378   56.3927 C   0  0  0  0  0  0  0  0  0  0  0  0
   26.2639   10.0806   56.4208 C   0  0  0  0  0  0  0  0  0  0  0  0
   26.8197    9.6170   55.2542 C   0  0  0  0  0  0  0  0  0  0  0  0
   26.2796   10.0079   54.0461 C   0  0  0  0  0  0  0  0  0  0  0  0
   27.9653    8.7016   55.3483 C   0  0  0  0  0  0  0  0  0  0  0  0
   28.4902    8.3089   56.5166 C   0  0  0  0  0  0  0  0  0  0  0  0
   27.9026    8.8055   57.7730 C   0  0  0  0  0  0  0  0  0  0  0  0
   28.3734    8.4520   58.8518 O   0  0  0  0  0  0  0  0  0  0  0  0
   26.8213    9.6628   57.6430 N   0  0  0  0  0  0  0  0  0  0  0  0
   28.4773    8.2670   54.1636 O   0  0  0  0  0  0  0  0  0  0  0  0
   26.4116   10.0057   58.4699 H   0  0  0  0  0  0  0  0  0  0  0  0
   28.0971    8.5523   53.3561 H   0  0  0  0  0  0  0  0  0  0  0  0
   23.1633   14.3964   51.5833 C   0  0  0  0  0  0  0  0  0  0  0  0
   22.1111   15.0102   51.5223 O   0  0  0  0  0  0  0  0  0  0  0  0
   24.3842   15.0144   51.7472 N   0  0  0  0  0  0  0  0  0  0  0  0
   25.2143   14.4853   51.7324 H   0  0  0  0  0  0  0  0  0  0  0  0
   24.4357   16.4486   51.9414 C   0  0  0  0  0  0  0  0  0  0  0  0
   23.8996   16.8290   53.2994 C   0  0  0  0  0  0  0  0  0  0  0  0
   24.8021   14.7961   56.3899 C   0  0  0  0  0  0  0  0  0  0  0  0
   26.1690   15.0299   56.4758 C   0  0  0  0  0  0  0  0  0  0  0  0
   26.7762   15.8447   55.5420 C   0  0  0  0  0  0  0  0  0  0  0  0
   26.0199   16.4150   54.5340 C   0  0  0  0  0  0  0  0  0  0  0  0
   24.6573   16.1906   54.4276 C   0  0  0  0  0  0  0  0  0  0  0  0
   24.0544   15.3709   55.3708 C   0  0  0  0  0  0  0  0  0  0  0  0
   28.5013   16.1478   55.6236 Cl  0  0  0  0  0  0  0  0  0  0  0  0
   22.6702   15.0981   55.3003 N   0  0  0  0  0  0  0  0  0  0  0  0
   21.6258   15.8759   55.7220 C   0  0  0  0  0  0  0  0  0  0  0  0
   20.4922   15.2250   55.5297 N   0  0  0  0  0  0  0  0  0  0  0  0
   20.8604   14.0225   54.9822 N   0  0  0  0  0  0  0  0  0  0  0  0
   22.1782   13.9342   54.8357 N   0  0  0  0  0  0  0  0  0  0  0  0
   21.8274   12.3513   51.5923 C   0  0  0  0  0  0  0  0  0  0  0  0
   21.1799   12.0668   50.2682 C   0  0  0  0  0  0  0  0  0  0  0  0
   19.8252   11.8126   50.1929 C   0  0  0  0  0  0  0  0  0  0  0  0
   21.9377   12.0474   49.1198 C   0  0  0  0  0  0  0  0  0  0  0  0
   19.2257   11.5425   48.9838 C   0  0  0  0  0  0  0  0  0  0  0  0
   21.3401   11.7846   47.9039 C   0  0  0  0  0  0  0  0  0  0  0  0
   19.9868   11.5306   47.8356 C   0  0  0  0  0  0  0  0  0  0  0  0
  2  6  1  0  0  0
  2  3  2  0  0  0
  2  4  1  0  0  0
  6  7  1  0  0  0
  6 11  2  0  0  0
  7  8  2  0  0  0
  8  9  1  0  0  0
 11 10  1  0  0  0
 10  9  2  0  0  0
 10 12  1  0  0  0
  9 16  1  0  0  0
 16 14  1  0  0  0
 14 13  1  0  0  0
 14 15  2  0  0  0
 13 12  2  0  0  0
  4  1  1  0  0  0
  1 20  1  0  0  0
  1 38  1  0  0  0
 20 21  2  0  0  0
 20 22  1  0  0  0
 38 39  1  0  0  0
 39 40  1  0  0  0
 39 41  2  0  0  0
 40 42  2  0  0  0
 41 43  1  0  0  0
 42 44  1  0  0  0
 43 44  2  0  0  0
 26 27  1  0  0  0
 26 31  2  0  0  0
 27 28  2  0  0  0
 28 29  1  0  0  0
 28 32  1  0  0  0
 29 30  2  0  0  0
 30 31  1  0  0  0
 30 25  1  0  0  0
 31 33  1  0  0  0
 33 34  1  0  0  0
 33 37  1  0  0  0
 34 35  2  0  0  0
 35 36  1  0  0  0
 36 37  2  0  0  0
 25 24  1  0  0  0
 24 22  1  0  0  0
 12 17  1  0  0  0
 16 18  1  0  0  0
 17 19  1  0  0  0
  4  5  1  0  0  0
 22 23  1  0  0  0
M  END
> <minimizedAffinity>
-9.00295

$$$$
