2V2H_PGA_A_1251
  RCSB PDB12061707013D
Coordinates from PDB:2V2H:A:1251 Model:1 without hydrogens
  9  8  0  0  0  0            999 V2000
  -17.8090   -6.3090  -12.8520   P 0  0  0  0  0  0  0  0  0  0  0  0
  -18.3560   -5.6970  -14.2470   O 0  0  0  0  0  0  0  0  0  0  0  0
  -17.2500   -7.6810  -13.1540   O 0  0  0  0  0  0  0  0  0  0  0  0
  -19.0670   -6.3180  -12.0410   O 0  0  0  0  0  0  0  0  0  0  0  0
  -16.7790   -5.3540  -12.3310   O 0  0  0  0  0  0  0  0  0  0  0  0
  -17.3650   -5.3440  -15.2630   C 0  0  0  0  0  0  0  0  0  0  0  0
  -18.0850   -4.6020  -16.3600   C 0  0  0  0  0  0  0  0  0  0  0  0
  -17.3210   -4.3400  -17.3530   O 0  0  0  0  0  0  0  0  0  0  0  0
  -19.2390   -4.2690  -16.3510   O 0  0  0  0  0  0  0  0  0  0  0  0
  1  2  1  0  0  0  0
  1  3  2  0  0  0  0
  1  4  1  0  0  0  0
  1  5  1  0  0  0  0
  2  6  1  0  0  0  0
  6  7  1  0  0  0  0
  7  8  2  0  0  0  0
  7  9  1  0  0  0  0
A    1
P
A    2
O1P
A    3
O2P
A    4
O3P
A    5
O4P
A    6
C2
A    7
C1
A    8
O1
A    9
O2
M  END
>  <InstanceId>
2V2H_PGA_A_1251

>  <ChemCompId>
PGA

>  <PdbId>
2V2H

>  <ChainId>
A

>  <ResidueNumber>
1251

>  <InsertionCode>


>  <Model>
1

>  <AltIds>


>  <MissingHeavyAtoms>
0

>  <ObservedFormula>
C2 O6 P

>  <Name>
2-PHOSPHOGLYCOLIC ACID

>  <SystematicName>
2-phosphonooxyethanoic acid

>  <Synonyms>


>  <Type>
NON-POLYMER

>  <Formula>
C2 H5 O6 P

>  <MolecularWeight>
156.031

>  <ModifiedDate>
2011-06-04

>  <Parent>


>  <OneLetterCode>


>  <SubcomponentList>


>  <AmbiguousFlag>
N

>  <InChI>
InChI=1S/C2H5O6P/c3-2(4)1-8-9(5,6)7/h1H2,(H,3,4)(H2,5,6,7)

>  <InChIKey>
ASCFNMCAHFUBCO-UHFFFAOYSA-N

>  <SMILES>
C(C(=O)O)OP(=O)(O)O

$$$$
