2V2H_PGA_A_1251


 12 11  0  0  0  0  0  0  0  0999 V2000
  -17.9243   -4.6044  -16.0400 P   0  0  0  0  0  0  0  0  0  0  0  0
  -19.2325   -3.9720  -16.4581 O   0  0  0  0  0  0  0  0  0  0  0  0
  -17.4672   -5.7226  -16.9237 O   0  0  0  0  0  0  0  0  0  0  0  0
  -16.8487   -3.6013  -15.7550 O   0  0  0  0  0  0  0  0  0  0  0  0
  -18.2020   -6.3380  -17.0729 H   0  0  0  0  0  0  0  0  0  0  0  0
  -17.2013   -2.9036  -15.1806 H   0  0  0  0  0  0  0  0  0  0  0  0
  -18.1989   -5.4055  -14.6606 O   0  0  0  0  0  0  0  0  0  0  0  0
  -17.2086   -6.4003  -14.2501 C   0  0  0  0  0  0  0  0  0  0  0  0
  -16.2663   -5.7297  -13.2832 C   0  0  0  0  0  0  0  0  0  0  0  0
  -16.7265   -5.7110  -12.0889 O   0  0  0  0  0  0  0  0  0  0  0  0
  -15.1985   -5.2498  -13.5520 O   0  0  0  0  0  0  0  0  0  0  0  0
  -14.8820   -5.2753  -14.4335 H   0  0  0  0  0  0  0  0  0  0  0  0
  1  7  1  0  0  0
  1  2  2  0  0  0
  1  3  1  0  0  0
  1  4  1  0  0  0
  7  8  1  0  0  0
  8  9  1  0  0  0
  9 10  2  0  0  0
  9 11  1  0  0  0
  3  5  1  0  0  0
  4  6  1  0  0  0
 11 12  1  0  0  0
M  END
> <minimizedAffinity>
-5.81610

$$$$
2V2H_PGA_A_1251


 12 11  0  0  0  0  0  0  0  0999 V2000
  -17.9304   -4.6494  -16.0538 P   0  0  0  0  0  0  0  0  0  0  0  0
  -17.4932   -5.7142  -17.0342 O   0  0  0  0  0  0  0  0  0  0  0  0
  -16.8590   -3.6723  -15.6826 O   0  0  0  0  0  0  0  0  0  0  0  0
  -19.2215   -3.9917  -16.4343 O   0  0  0  0  0  0  0  0  0  0  0  0
  -16.0504   -4.1533  -15.4468 H   0  0  0  0  0  0  0  0  0  0  0  0
  -19.8750   -4.6708  -16.6637 H   0  0  0  0  0  0  0  0  0  0  0  0
  -18.1756   -5.3804  -14.6307 O   0  0  0  0  0  0  0  0  0  0  0  0
  -17.1997   -6.3861  -14.2123 C   0  0  0  0  0  0  0  0  0  0  0  0
  -16.2567   -5.7255  -13.2393 C   0  0  0  0  0  0  0  0  0  0  0  0
  -16.7236   -5.7035  -12.0477 O   0  0  0  0  0  0  0  0  0  0  0  0
  -15.1828   -5.2557  -13.5014 O   0  0  0  0  0  0  0  0  0  0  0  0
  -14.8613   -5.2833  -14.3811 H   0  0  0  0  0  0  0  0  0  0  0  0
  1  7  1  0  0  0
  1  2  2  0  0  0
  1  3  1  0  0  0
  1  4  1  0  0  0
  7  8  1  0  0  0
  8  9  1  0  0  0
  9 10  2  0  0  0
  9 11  1  0  0  0
  3  5  1  0  0  0
  4  6  1  0  0  0
 11 12  1  0  0  0
M  END
> <minimizedAffinity>
-5.80611

$$$$
2V2H_PGA_A_1251


 12 11  0  0  0  0  0  0  0  0999 V2000
  -17.7832   -6.2595  -12.8644 P   0  0  0  0  0  0  0  0  0  0  0  0
  -17.4198   -5.6097  -11.5484 O   0  0  0  0  0  0  0  0  0  0  0  0
  -17.2571   -7.6505  -13.0339 O   0  0  0  0  0  0  0  0  0  0  0  0
  -19.2373   -6.1343  -13.2023 O   0  0  0  0  0  0  0  0  0  0  0  0
  -16.3155   -7.6706  -12.8019 H   0  0  0  0  0  0  0  0  0  0  0  0
  -19.5211   -5.2156  -13.0744 H   0  0  0  0  0  0  0  0  0  0  0  0
  -16.9616   -5.4848  -14.0240 O   0  0  0  0  0  0  0  0  0  0  0  0
  -17.4149   -5.6603  -15.4034 C   0  0  0  0  0  0  0  0  0  0  0  0
  -17.7134   -4.2916  -15.9601 C   0  0  0  0  0  0  0  0  0  0  0  0
  -18.8960   -4.2098  -16.4429 O   0  0  0  0  0  0  0  0  0  0  0  0
  -16.9627   -3.3540  -15.9761 O   0  0  0  0  0  0  0  0  0  0  0  0
  -16.1014   -3.4373  -15.6167 H   0  0  0  0  0  0  0  0  0  0  0  0
  1  7  1  0  0  0
  1  2  2  0  0  0
  1  3  1  0  0  0
  1  4  1  0  0  0
  7  8  1  0  0  0
  8  9  1  0  0  0
  9 10  2  0  0  0
  9 11  1  0  0  0
  3  5  1  0  0  0
  4  6  1  0  0  0
 11 12  1  0  0  0
M  END
> <minimizedAffinity>
-5.59766

$$$$
2V2H_PGA_A_1251


 12 11  0  0  0  0  0  0  0  0999 V2000
  -17.7695   -6.2523  -12.8856 P   0  0  0  0  0  0  0  0  0  0  0  0
  -19.2409   -6.1141  -13.2049 O   0  0  0  0  0  0  0  0  0  0  0  0
  -17.3417   -5.5630  -11.6277 O   0  0  0  0  0  0  0  0  0  0  0  0
  -17.2750   -7.6631  -12.9817 O   0  0  0  0  0  0  0  0  0  0  0  0
  -17.6894   -4.6575  -11.6209 H   0  0  0  0  0  0  0  0  0  0  0  0
  -17.5816   -8.0573  -13.8133 H   0  0  0  0  0  0  0  0  0  0  0  0
  -16.9569   -5.3920  -13.9899 O   0  0  0  0  0  0  0  0  0  0  0  0
  -17.2998   -5.6044  -15.3958 C   0  0  0  0  0  0  0  0  0  0  0  0
  -17.6932   -4.2686  -15.9731 C   0  0  0  0  0  0  0  0  0  0  0  0
  -18.8822   -4.2745  -16.4472 O   0  0  0  0  0  0  0  0  0  0  0  0
  -17.0071   -3.2835  -16.0116 O   0  0  0  0  0  0  0  0  0  0  0  0
  -16.1395   -3.3027  -15.6582 H   0  0  0  0  0  0  0  0  0  0  0  0
  1  7  1  0  0  0
  1  2  2  0  0  0
  1  3  1  0  0  0
  1  4  1  0  0  0
  7  8  1  0  0  0
  8  9  1  0  0  0
  9 10  2  0  0  0
  9 11  1  0  0  0
  3  5  1  0  0  0
  4  6  1  0  0  0
 11 12  1  0  0  0
M  END
> <minimizedAffinity>
-5.59492

$$$$
2V2H_PGA_A_1251


 12 11  0  0  0  0  0  0  0  0999 V2000
  -18.0529   -6.9085  -11.4510 P   0  0  0  0  0  0  0  0  0  0  0  0
  -18.0266   -8.1944  -10.6561 O   0  0  0  0  0  0  0  0  0  0  0  0
  -19.4074   -6.5212  -11.9568 O   0  0  0  0  0  0  0  0  0  0  0  0
  -17.3322   -5.7824  -10.7751 O   0  0  0  0  0  0  0  0  0  0  0  0
  -19.8245   -7.2864  -12.3826 H   0  0  0  0  0  0  0  0  0  0  0  0
  -16.4648   -6.0908  -10.4696 H   0  0  0  0  0  0  0  0  0  0  0  0
  -17.2818   -7.1917  -12.8456 O   0  0  0  0  0  0  0  0  0  0  0  0
  -17.6494   -6.3699  -13.9982 C   0  0  0  0  0  0  0  0  0  0  0  0
  -16.5144   -5.4108  -14.2516 C   0  0  0  0  0  0  0  0  0  0  0  0
  -15.6247   -5.4560  -13.3325 O   0  0  0  0  0  0  0  0  0  0  0  0
  -16.4111   -4.6671  -15.1891 O   0  0  0  0  0  0  0  0  0  0  0  0
  -17.0751   -4.6514  -15.8500 H   0  0  0  0  0  0  0  0  0  0  0  0
  1  7  1  0  0  0
  1  2  2  0  0  0
  1  3  1  0  0  0
  1  4  1  0  0  0
  7  8  1  0  0  0
  8  9  1  0  0  0
  9 10  2  0  0  0
  9 11  1  0  0  0
  3  5  1  0  0  0
  4  6  1  0  0  0
 11 12  1  0  0  0
M  END
> <minimizedAffinity>
-5.36272

$$$$
2V2H_PGA_A_1251


 12 11  0  0  0  0  0  0  0  0999 V2000
  -17.0515   -5.9726  -13.7615 P   0  0  0  0  0  0  0  0  0  0  0  0
  -17.0009   -7.4690  -13.9716 O   0  0  0  0  0  0  0  0  0  0  0  0
  -15.7368   -5.3531  -13.4032 O   0  0  0  0  0  0  0  0  0  0  0  0
  -17.7649   -5.2464  -14.8606 O   0  0  0  0  0  0  0  0  0  0  0  0
  -15.3227   -5.8633  -12.6897 H   0  0  0  0  0  0  0  0  0  0  0  0
  -18.6062   -5.6909  -15.0489 H   0  0  0  0  0  0  0  0  0  0  0  0
  -17.8882   -5.7079  -12.4015 O   0  0  0  0  0  0  0  0  0  0  0  0
  -17.6444   -6.6072  -11.2741 C   0  0  0  0  0  0  0  0  0  0  0  0
  -17.0220   -5.7914  -10.1698 C   0  0  0  0  0  0  0  0  0  0  0  0
  -16.8601   -4.5659  -10.5021 O   0  0  0  0  0  0  0  0  0  0  0  0
  -16.6948   -6.1967   -9.0876 O   0  0  0  0  0  0  0  0  0  0  0  0
  -16.8231   -7.0982   -8.8665 H   0  0  0  0  0  0  0  0  0  0  0  0
  1  7  1  0  0  0
  1  2  2  0  0  0
  1  3  1  0  0  0
  1  4  1  0  0  0
  7  8  1  0  0  0
  8  9  1  0  0  0
  9 10  2  0  0  0
  9 11  1  0  0  0
  3  5  1  0  0  0
  4  6  1  0  0  0
 11 12  1  0  0  0
M  END
> <minimizedAffinity>
-5.21638

$$$$
2V2H_PGA_A_1251


 12 11  0  0  0  0  0  0  0  0999 V2000
  -17.9897   -4.7247  -16.1140 P   0  0  0  0  0  0  0  0  0  0  0  0
  -16.8597   -3.8760  -15.5766 O   0  0  0  0  0  0  0  0  0  0  0  0
  -19.2317   -3.9603  -16.4509 O   0  0  0  0  0  0  0  0  0  0  0  0
  -17.5593   -5.6591  -17.2031 O   0  0  0  0  0  0  0  0  0  0  0  0
  -19.4612   -3.3746  -15.7126 H   0  0  0  0  0  0  0  0  0  0  0  0
  -16.7534   -6.1247  -16.9299 H   0  0  0  0  0  0  0  0  0  0  0  0
  -18.5239   -5.6408  -14.8912 O   0  0  0  0  0  0  0  0  0  0  0  0
  -17.5246   -6.2033  -13.9835 C   0  0  0  0  0  0  0  0  0  0  0  0
  -18.2534   -6.7117  -12.7658 C   0  0  0  0  0  0  0  0  0  0  0  0
  -17.5243   -7.4808  -12.0480 O   0  0  0  0  0  0  0  0  0  0  0  0
  -19.3871   -6.4574  -12.4610 O   0  0  0  0  0  0  0  0  0  0  0  0
  -19.9020   -5.8917  -13.0020 H   0  0  0  0  0  0  0  0  0  0  0  0
  1  7  1  0  0  0
  1  2  2  0  0  0
  1  3  1  0  0  0
  1  4  1  0  0  0
  7  8  1  0  0  0
  8  9  1  0  0  0
  9 10  2  0  0  0
  9 11  1  0  0  0
  3  5  1  0  0  0
  4  6  1  0  0  0
 11 12  1  0  0  0
M  END
> <minimizedAffinity>
-4.97134

$$$$
2V2H_PGA_A_1251


 12 11  0  0  0  0  0  0  0  0999 V2000
  -16.6068   -5.2618  -14.9616 P   0  0  0  0  0  0  0  0  0  0  0  0
  -16.3081   -6.3875  -15.9258 O   0  0  0  0  0  0  0  0  0  0  0  0
  -15.5836   -5.0820  -13.8840 O   0  0  0  0  0  0  0  0  0  0  0  0
  -16.9730   -3.9805  -15.6460 O   0  0  0  0  0  0  0  0  0  0  0  0
  -15.3868   -5.9409  -13.4784 H   0  0  0  0  0  0  0  0  0  0  0  0
  -17.6363   -4.1580  -16.3311 H   0  0  0  0  0  0  0  0  0  0  0  0
  -17.8906   -5.7108  -14.0841 O   0  0  0  0  0  0  0  0  0  0  0  0
  -17.7259   -6.8507  -13.1828 C   0  0  0  0  0  0  0  0  0  0  0  0
  -18.4024   -6.5014  -11.8818 C   0  0  0  0  0  0  0  0  0  0  0  0
  -17.5790   -6.0538  -11.0099 O   0  0  0  0  0  0  0  0  0  0  0  0
  -19.5734   -6.6142  -11.6394 O   0  0  0  0  0  0  0  0  0  0  0  0
  -20.1575   -6.9443  -12.2934 H   0  0  0  0  0  0  0  0  0  0  0  0
  1  7  1  0  0  0
  1  2  2  0  0  0
  1  3  1  0  0  0
  1  4  1  0  0  0
  7  8  1  0  0  0
  8  9  1  0  0  0
  9 10  2  0  0  0
  9 11  1  0  0  0
  3  5  1  0  0  0
  4  6  1  0  0  0
 11 12  1  0  0  0
M  END
> <minimizedAffinity>
-4.78943

$$$$
2V2H_PGA_A_1251


 12 11  0  0  0  0  0  0  0  0999 V2000
  -17.8783   -6.6056  -12.4909 P   0  0  0  0  0  0  0  0  0  0  0  0
  -17.1779   -7.2338  -13.6744 O   0  0  0  0  0  0  0  0  0  0  0  0
  -17.1916   -5.3973  -11.9351 O   0  0  0  0  0  0  0  0  0  0  0  0
  -19.3450   -6.3985  -12.7153 O   0  0  0  0  0  0  0  0  0  0  0  0
  -16.2489   -5.5895  -11.8113 H   0  0  0  0  0  0  0  0  0  0  0  0
  -19.7350   -7.2109  -13.0745 H   0  0  0  0  0  0  0  0  0  0  0  0
  -17.7322   -7.6318  -11.2478 O   0  0  0  0  0  0  0  0  0  0  0  0
  -18.4496   -7.3051  -10.0159 C   0  0  0  0  0  0  0  0  0  0  0  0
  -17.4346   -6.8073   -9.0187 C   0  0  0  0  0  0  0  0  0  0  0  0
  -17.0674   -7.7208   -8.2007 O   0  0  0  0  0  0  0  0  0  0  0  0
  -16.9920   -5.6925   -8.9545 O   0  0  0  0  0  0  0  0  0  0  0  0
  -17.2756   -5.0400   -9.5643 H   0  0  0  0  0  0  0  0  0  0  0  0
  1  7  1  0  0  0
  1  2  2  0  0  0
  1  3  1  0  0  0
  1  4  1  0  0  0
  7  8  1  0  0  0
  8  9  1  0  0  0
  9 10  2  0  0  0
  9 11  1  0  0  0
  3  5  1  0  0  0
  4  6  1  0  0  0
 11 12  1  0  0  0
M  END
> <minimizedAffinity>
-4.74466

$$$$
2V2H_PGA_A_1251


 12 11  0  0  0  0  0  0  0  0999 V2000
  -17.8560   -6.5754  -12.3486 P   0  0  0  0  0  0  0  0  0  0  0  0
  -19.3325   -6.3122  -12.5400 O   0  0  0  0  0  0  0  0  0  0  0  0
  -17.1674   -7.1423  -13.5507 O   0  0  0  0  0  0  0  0  0  0  0  0
  -17.1242   -5.4175  -11.7419 O   0  0  0  0  0  0  0  0  0  0  0  0
  -17.6845   -7.8854  -13.8990 H   0  0  0  0  0  0  0  0  0  0  0  0
  -17.6149   -5.0932  -10.9706 H   0  0  0  0  0  0  0  0  0  0  0  0
  -17.7202   -7.8128  -11.3141 O   0  0  0  0  0  0  0  0  0  0  0  0
  -18.0894   -7.5696   -9.9200 C   0  0  0  0  0  0  0  0  0  0  0  0
  -18.7816   -8.8084   -9.4116 C   0  0  0  0  0  0  0  0  0  0  0  0
  -19.9701   -8.5682   -9.0014 O   0  0  0  0  0  0  0  0  0  0  0  0
  -18.3154   -9.9147   -9.3715 O   0  0  0  0  0  0  0  0  0  0  0  0
  -17.4430  -10.0667   -9.6775 H   0  0  0  0  0  0  0  0  0  0  0  0
  1  7  1  0  0  0
  1  2  2  0  0  0
  1  3  1  0  0  0
  1  4  1  0  0  0
  7  8  1  0  0  0
  8  9  1  0  0  0
  9 10  2  0  0  0
  9 11  1  0  0  0
  3  5  1  0  0  0
  4  6  1  0  0  0
 11 12  1  0  0  0
M  END
> <minimizedAffinity>
-4.51303

$$$$
