6FS1_E4Q_A_401
  RCSB PDB01051901493D
Coordinates from PDB:6FS1:A:401 Model:1 without hydrogens
 43 48  0  0  0  0            999 V2000
    9.2420    3.3240   28.3930   C 0  0  0  0  0  0  0  0  0  0  0  0
   10.3830    2.5910   28.5340   C 0  0  0  0  0  0  0  0  0  0  0  0
   11.2370    3.3470   29.3510   C 0  0  0  0  0  0  0  0  0  0  0  0
   12.6380   -0.1170   31.5300   C 0  0  0  0  0  0  0  0  0  0  0  0
   12.8280   -0.9480   30.3850   C 0  0  0  0  0  0  0  0  0  0  0  0
   13.8980   -1.7700   30.6900   C 0  0  0  0  0  0  0  0  0  0  0  0
   15.3900   -1.8870   32.8170   C 0  0  0  0  0  0  0  0  0  0  0  0
   14.5480   -2.8340   29.8670   C 0  0  0  0  0  0  0  0  0  0  0  0
   12.0670   -0.9120   29.1110   C 0  0  0  0  0  0  0  0  0  0  0  0
   10.7160   -1.2590   29.1060   C 0  0  0  0  0  0  0  0  0  0  0  0
    9.9990   -1.2910   27.9170   C 0  0  0  0  0  0  0  0  0  0  0  0
   10.6090   -0.9660   26.7130   C 0  0  0  0  0  0  0  0  0  0  0  0
   11.9480   -0.5800   26.6910   C 0  0  0  0  0  0  0  0  0  0  0  0
   12.8480   -0.1450   25.6510   C 0  0  0  0  0  0  0  0  0  0  0  0
   12.5180   -0.0840   24.1780   C 0  0  0  0  0  0  0  0  0  0  0  0
   12.0610    1.2880   23.6680   C 0  0  0  0  0  0  0  0  0  0  0  0
   10.6580    1.6410   24.0780   C 0  0  0  0  0  0  0  0  0  0  0  0
    7.8100    1.9120   24.4090   C 0  0  0  0  0  0  0  0  0  0  0  0
    6.1810   -0.1910   23.5020   C 0  0  0  0  0  0  0  0  0  0  0  0
    7.2870   -2.2940   22.0250   C 0  0  0  0  0  0  0  0  0  0  0  0
    5.9250   -2.2590   22.2720   C 0  0  0  0  0  0  0  0  0  0  0  0
    5.3710   -1.2390   22.9960   C 0  0  0  0  0  0  0  0  0  0  0  0
   15.3430    0.6150   25.7520   C 0  0  0  0  0  0  0  0  0  0  0  0
   16.3640    0.5480   26.4250   O 0  0  0  0  0  0  0  0  0  0  0  0
   15.3360    1.0590   24.5300   O 0  0  0  0  0  0  0  0  0  0  0  0
   14.0630    0.1080   26.2550   C 0  0  0  0  0  0  0  0  0  0  0  0
    9.7310    0.6740   23.5330   O 0  0  0  0  0  0  0  0  0  0  0  0
    8.3870    0.8430   23.7480   C 0  0  0  0  0  0  0  0  0  0  0  0
    7.5860   -0.2310   23.2610   C 0  0  0  0  0  0  0  0  0  0  0  0
    8.1110   -1.3170   22.5130   C 0  0  0  0  0  0  0  0  0  0  0  0
    5.6340    0.9150   24.2010   C 0  0  0  0  0  0  0  0  0  0  0  0
    6.4370    1.9350   24.6240   C 0  0  0  0  0  0  0  0  0  0  0  0
   13.9770   -0.1450   27.6090   N 0  0  0  0  0  0  0  0  0  0  0  0
   12.6860   -0.5590   27.8930   C 0  0  0  0  0  0  0  0  0  0  0  0
   14.2940   -1.3970   31.9880   N 0  0  0  0  0  0  0  0  0  0  0  0
   13.5110   -0.3970   32.4690   N 0  0  0  0  0  0  0  0  0  0  0  0
   11.6670    0.9990   31.7030   C 0  0  0  0  0  0  0  0  0  0  0  0
   12.5330    2.5960   31.6760   S 0  0  0  0  0  0  0  0  0  0  0  0
   12.5540    2.8970   29.8880   C 0  0  0  0  0  0  0  0  0  0  0  0
   10.6810    4.4970   29.6880   N 0  0  0  0  0  0  0  0  0  0  0  0
    9.4450    4.4680   29.0950   N 0  0  0  0  0  0  0  0  0  0  0  0
    8.5430    5.5930   29.3050   C 0  0  0  0  0  0  0  0  0  0  0  0
    7.9650    3.0180   27.6850   C 0  0  0  0  0  0  0  0  0  0  0  0
  7 35  1  0  0  0  0
 35 36  1  0  0  0  0
 35  6  1  0  0  0  0
 36  4  2  0  0  0  0
  8  6  1  0  0  0  0
 24 23  2  0  0  0  0
  6  5  2  0  0  0  0
  4  5  1  0  0  0  0
  4 37  1  0  0  0  0
 38 37  1  0  0  0  0
 38 39  1  0  0  0  0
  5  9  1  0  0  0  0
 23 25  1  0  0  0  0
 23 26  1  0  0  0  0
 33 26  1  0  0  0  0
 33 34  1  0  0  0  0
 39  3  1  0  0  0  0
 26 14  2  0  0  0  0
  9 34  2  0  0  0  0
  9 10  1  0  0  0  0
 34 13  1  0  0  0  0
  3 40  2  0  0  0  0
  3  2  1  0  0  0  0
 40 41  1  0  0  0  0
 14 13  1  0  0  0  0
 14 15  1  0  0  0  0
 10 11  2  0  0  0  0
 13 12  2  0  0  0  0
  2  1  2  0  0  0  0
 15 16  1  0  0  0  0
 41  1  1  0  0  0  0
 41 42  1  0  0  0  0
 11 12  1  0  0  0  0
 16 17  1  0  0  0  0
  1 43  1  0  0  0  0
 17 27  1  0  0  0  0
 27 28  1  0  0  0  0
 28 18  2  0  0  0  0
 28 29  1  0  0  0  0
 18 32  1  0  0  0  0
 30 29  2  0  0  0  0
 30 20  1  0  0  0  0
 29 19  1  0  0  0  0
 32 31  2  0  0  0  0
 20 21  2  0  0  0  0
 19 31  1  0  0  0  0
 19 22  2  0  0  0  0
 21 22  1  0  0  0  0
A    1
C1
A    2
C2
A    3
C3
A    4
C7
A    5
C8
A    6
C9
A    7
C10
A    8
C11
A    9
C12
A   10
C13
A   11
C14
A   12
C15
A   13
C16
A   14
C19
A   15
C20
A   16
C21
A   17
C22
A   18
C24
A   19
C27
A   20
C30
A   21
C31
A   22
C32
A   23
C33
A   24
O1
A   25
O2
A   26
C18
A   27
O
A   28
C23
A   29
C28
A   30
C29
A   31
C26
A   32
C25
A   33
N4
A   34
C17
A   35
N2
A   36
N3
A   37
C6
A   38
S
A   39
C5
A   40
N
A   41
N1
A   42
C4
A   43
C
M  END
>  <InstanceId>
6FS1_E4Q_A_401

>  <ChemCompId>
E4Q

>  <PdbId>
6FS1

>  <ChainId>
A

>  <ResidueNumber>
401

>  <InsertionCode>


>  <Model>
1

>  <AltIds>


>  <MissingHeavyAtoms>
0

>  <ObservedFormula>
C34 N5 O3 S

>  <Name>
7-[3-[(1,5-dimethylpyrazol-3-yl)methylsulfanylmethyl]-1,5-dimethyl-pyrazol-4-yl]-3-(3-naphthalen-1-yloxypropyl)-1~{H}-indole-2-carboxylic acid

>  <SystematicName>
7-[3-[(1,5-dimethylpyrazol-3-yl)methylsulfanylmethyl]-1,5-dimethyl-pyrazol-4-yl]-3-(3-naphthalen-1-yloxypropyl)-1~{H}-indole-2-carboxylic acid

>  <Synonyms>


>  <Type>
NON-POLYMER

>  <Formula>
C34 H35 N5 O3 S

>  <MolecularWeight>
593.738

>  <ModifiedDate>
2018-12-21

>  <Parent>


>  <OneLetterCode>


>  <SubcomponentList>


>  <AmbiguousFlag>
N

>  <InChI>
InChI=1S/C34H35N5O3S/c1-21-18-24(36-38(21)3)19-43-20-29-31(22(2)39(4)37-29)28-14-8-13-26-27(33(34(40)41)35-32(26)28)15-9-17-42-30-16-7-11-23-10-5-6-12-25(23)30/h5-8,10-14,16,18,35H,9,15,17,19-20H2,1-4H3,(H,40,41)

>  <InChIKey>
GMZVNHFKWDLAJN-UHFFFAOYSA-N

>  <SMILES>
Cc1cc(nn1C)CSCc2c(c(n(n2)C)C)c3cccc4c3[nH]c(c4CCCOc5cccc6c5cccc6)C(=O)O

$$$$
