6FS1_E4Q_A_401


 45 50  0  0  0  0  0  0  0  0999 V2000
   11.9087   -0.8188   29.1475 C   0  0  0  0  0  0  0  0  0  0  0  0
   10.5614   -1.1755   29.2037 C   0  0  0  0  0  0  0  0  0  0  0  0
    9.7830   -1.1801   28.0535 C   0  0  0  0  0  0  0  0  0  0  0  0
   10.3268   -0.8175   26.8287 C   0  0  0  0  0  0  0  0  0  0  0  0
   11.6605   -0.4211   26.7473 C   0  0  0  0  0  0  0  0  0  0  0  0
   12.5019    0.0491   25.6741 C   0  0  0  0  0  0  0  0  0  0  0  0
   13.7455    0.2943   26.2203 C   0  0  0  0  0  0  0  0  0  0  0  0
   13.7324    0.0035   27.5694 N   0  0  0  0  0  0  0  0  0  0  0  0
   12.4606   -0.4278   27.9090 C   0  0  0  0  0  0  0  0  0  0  0  0
   14.4961    0.0880   28.1849 H   0  0  0  0  0  0  0  0  0  0  0  0
   12.7028    0.0089   31.4914 C   0  0  0  0  0  0  0  0  0  0  0  0
   12.7359   -0.8842   30.3783 C   0  0  0  0  0  0  0  0  0  0  0  0
   13.7294   -1.8037   30.6630 C   0  0  0  0  0  0  0  0  0  0  0  0
   15.3243   -1.9934   32.7085 C   0  0  0  0  0  0  0  0  0  0  0  0
   14.2137   -2.9646   29.8570 C   0  0  0  0  0  0  0  0  0  0  0  0
   14.2389   -1.4225   31.9184 N   0  0  0  0  0  0  0  0  0  0  0  0
   13.5956   -0.3248   32.3936 N   0  0  0  0  0  0  0  0  0  0  0  0
   11.8668    1.2293   31.6642 C   0  0  0  0  0  0  0  0  0  0  0  0
   12.8524    2.7190   31.3314 S   0  0  0  0  0  0  0  0  0  0  0  0
   12.6208    2.8386   29.5370 C   0  0  0  0  0  0  0  0  0  0  0  0
    9.2196    3.4479   28.3338 C   0  0  0  0  0  0  0  0  0  0  0  0
   10.3609    2.7025   28.3062 C   0  0  0  0  0  0  0  0  0  0  0  0
   11.2747    3.3519   29.1498 C   0  0  0  0  0  0  0  0  0  0  0  0
   10.7529    4.4522   29.6621 N   0  0  0  0  0  0  0  0  0  0  0  0
    9.4796    4.4969   29.1553 N   0  0  0  0  0  0  0  0  0  0  0  0
    8.6038    5.5881   29.5622 C   0  0  0  0  0  0  0  0  0  0  0  0
    7.8952    3.2319   27.6820 C   0  0  0  0  0  0  0  0  0  0  0  0
   14.9942    0.8245   25.6652 C   0  0  0  0  0  0  0  0  0  0  0  0
   15.5764    0.2568   24.7495 O   0  0  0  0  0  0  0  0  0  0  0  0
   15.3908    1.9641   26.1493 O   0  0  0  0  0  0  0  0  0  0  0  0
   14.9168    2.3656   26.8508 H   0  0  0  0  0  0  0  0  0  0  0  0
   12.0945    0.1482   24.2227 C   0  0  0  0  0  0  0  0  0  0  0  0
   11.5931    1.5275   23.7784 C   0  0  0  0  0  0  0  0  0  0  0  0
   10.1663    1.7988   24.1681 C   0  0  0  0  0  0  0  0  0  0  0  0
    9.2859    0.8948   23.4617 O   0  0  0  0  0  0  0  0  0  0  0  0
    7.2877    1.9833   24.3632 C   0  0  0  0  0  0  0  0  0  0  0  0
    5.8103   -0.2331   23.4666 C   0  0  0  0  0  0  0  0  0  0  0  0
    7.0537   -2.2434   21.9700 C   0  0  0  0  0  0  0  0  0  0  0  0
    5.6958   -2.3111   22.2321 C   0  0  0  0  0  0  0  0  0  0  0  0
    5.0753   -1.3374   22.9658 C   0  0  0  0  0  0  0  0  0  0  0  0
    7.9355    0.9622   23.6921 C   0  0  0  0  0  0  0  0  0  0  0  0
    7.2116   -0.1673   23.2100 C   0  0  0  0  0  0  0  0  0  0  0  0
    7.8078   -1.2089   22.4524 C   0  0  0  0  0  0  0  0  0  0  0  0
    5.1901    0.8269   24.1756 C   0  0  0  0  0  0  0  0  0  0  0  0
    5.9193    1.9029   24.5934 C   0  0  0  0  0  0  0  0  0  0  0  0
 14 16  1  0  0  0
 16 17  1  0  0  0
 16 13  1  0  0  0
 17 11  2  0  0  0
 15 13  1  0  0  0
 29 28  2  0  0  0
 13 12  2  0  0  0
 11 12  1  0  0  0
 11 18  1  0  0  0
 19 18  1  0  0  0
 19 20  1  0  0  0
 12  1  1  0  0  0
 28 30  1  0  0  0
 28  7  1  0  0  0
  8  7  1  0  0  0
  8  9  1  0  0  0
 20 23  1  0  0  0
  7  6  2  0  0  0
  1  9  2  0  0  0
  1  2  1  0  0  0
  9  5  1  0  0  0
 23 24  2  0  0  0
 23 22  1  0  0  0
 24 25  1  0  0  0
  6  5  1  0  0  0
  6 32  1  0  0  0
  2  3  2  0  0  0
  5  4  2  0  0  0
 22 21  2  0  0  0
 32 33  1  0  0  0
 25 21  1  0  0  0
 25 26  1  0  0  0
  3  4  1  0  0  0
 33 34  1  0  0  0
 21 27  1  0  0  0
 34 35  1  0  0  0
 35 41  1  0  0  0
 41 36  2  0  0  0
 41 42  1  0  0  0
 36 45  1  0  0  0
 43 42  2  0  0  0
 43 38  1  0  0  0
 42 37  1  0  0  0
 45 44  2  0  0  0
 38 39  2  0  0  0
 37 44  1  0  0  0
 37 40  2  0  0  0
 39 40  1  0  0  0
 30 31  1  0  0  0
  8 10  1  0  0  0
M  END
> <minimizedAffinity>
-11.05340

$$$$
6FS1_E4Q_A_401


 45 50  0  0  0  0  0  0  0  0999 V2000
   12.0959   -0.9126   29.0893 C   0  0  0  0  0  0  0  0  0  0  0  0
   10.7453   -1.2611   29.0782 C   0  0  0  0  0  0  0  0  0  0  0  0
   10.0255   -1.2622   27.8904 C   0  0  0  0  0  0  0  0  0  0  0  0
   10.6323   -0.9043   26.6941 C   0  0  0  0  0  0  0  0  0  0  0  0
   11.9708   -0.5162   26.6794 C   0  0  0  0  0  0  0  0  0  0  0  0
   12.8678   -0.0524   25.6493 C   0  0  0  0  0  0  0  0  0  0  0  0
   14.0839    0.1859   26.2571 C   0  0  0  0  0  0  0  0  0  0  0  0
   14.0014   -0.1033   27.6040 N   0  0  0  0  0  0  0  0  0  0  0  0
   12.7116   -0.5264   27.8798 C   0  0  0  0  0  0  0  0  0  0  0  0
   14.7338   -0.0227   28.2570 H   0  0  0  0  0  0  0  0  0  0  0  0
   12.7817   -0.0831   31.4666 C   0  0  0  0  0  0  0  0  0  0  0  0
   12.8599   -0.9817   30.3602 C   0  0  0  0  0  0  0  0  0  0  0  0
   13.8273   -1.9111   30.6978 C   0  0  0  0  0  0  0  0  0  0  0  0
   15.3160   -2.1094   32.8211 C   0  0  0  0  0  0  0  0  0  0  0  0
   14.3376   -3.0812   29.9217 C   0  0  0  0  0  0  0  0  0  0  0  0
   14.2779   -1.5298   31.9754 N   0  0  0  0  0  0  0  0  0  0  0  0
   13.6245   -0.4227   32.4135 N   0  0  0  0  0  0  0  0  0  0  0  0
   11.9524    1.1476   31.5924 C   0  0  0  0  0  0  0  0  0  0  0  0
   12.9541    2.6204   31.2337 S   0  0  0  0  0  0  0  0  0  0  0  0
   12.6711    2.7493   29.4473 C   0  0  0  0  0  0  0  0  0  0  0  0
    9.2531    3.4331   28.3356 C   0  0  0  0  0  0  0  0  0  0  0  0
   10.3821    2.6719   28.2663 C   0  0  0  0  0  0  0  0  0  0  0  0
   11.3245    3.2901   29.1019 C   0  0  0  0  0  0  0  0  0  0  0  0
   10.8310    4.3869   29.6486 N   0  0  0  0  0  0  0  0  0  0  0  0
    9.5474    4.4608   29.1722 N   0  0  0  0  0  0  0  0  0  0  0  0
    8.6976    5.5559   29.6216 C   0  0  0  0  0  0  0  0  0  0  0  0
    7.9111    3.2501   27.7101 C   0  0  0  0  0  0  0  0  0  0  0  0
   15.3621    0.7078   25.7649 C   0  0  0  0  0  0  0  0  0  0  0  0
   15.7951    1.7907   26.1389 O   0  0  0  0  0  0  0  0  0  0  0  0
   16.0324   -0.0824   24.9795 O   0  0  0  0  0  0  0  0  0  0  0  0
   15.6650   -0.9032   24.7164 H   0  0  0  0  0  0  0  0  0  0  0  0
   12.5343    0.0476   24.1792 C   0  0  0  0  0  0  0  0  0  0  0  0
   12.2970    1.4705   23.6593 C   0  0  0  0  0  0  0  0  0  0  0  0
   10.9077    1.6881   23.1266 C   0  0  0  0  0  0  0  0  0  0  0  0
    9.9390    1.1295   24.0436 O   0  0  0  0  0  0  0  0  0  0  0  0
    9.3013   -0.9539   22.9286 C   0  0  0  0  0  0  0  0  0  0  0  0
    6.6204   -0.1676   23.2336 C   0  0  0  0  0  0  0  0  0  0  0  0
    5.9859    2.1509   24.6651 C   0  0  0  0  0  0  0  0  0  0  0  0
    4.9775    1.3580   24.1439 C   0  0  0  0  0  0  0  0  0  0  0  0
    5.2730    0.2237   23.4384 C   0  0  0  0  0  0  0  0  0  0  0  0
    9.0118    0.2355   23.5721 C   0  0  0  0  0  0  0  0  0  0  0  0
    7.6617    0.6539   23.7575 C   0  0  0  0  0  0  0  0  0  0  0  0
    7.3007    1.8255   24.4728 C   0  0  0  0  0  0  0  0  0  0  0  0
    6.9633   -1.3695   22.5635 C   0  0  0  0  0  0  0  0  0  0  0  0
    8.2700   -1.7440   22.4347 C   0  0  0  0  0  0  0  0  0  0  0  0
 14 16  1  0  0  0
 16 17  1  0  0  0
 16 13  1  0  0  0
 17 11  2  0  0  0
 15 13  1  0  0  0
 29 28  2  0  0  0
 13 12  2  0  0  0
 11 12  1  0  0  0
 11 18  1  0  0  0
 19 18  1  0  0  0
 19 20  1  0  0  0
 12  1  1  0  0  0
 28 30  1  0  0  0
 28  7  1  0  0  0
  8  7  1  0  0  0
  8  9  1  0  0  0
 20 23  1  0  0  0
  7  6  2  0  0  0
  1  9  2  0  0  0
  1  2  1  0  0  0
  9  5  1  0  0  0
 23 24  2  0  0  0
 23 22  1  0  0  0
 24 25  1  0  0  0
  6  5  1  0  0  0
  6 32  1  0  0  0
  2  3  2  0  0  0
  5  4  2  0  0  0
 22 21  2  0  0  0
 32 33  1  0  0  0
 25 21  1  0  0  0
 25 26  1  0  0  0
  3  4  1  0  0  0
 33 34  1  0  0  0
 21 27  1  0  0  0
 34 35  1  0  0  0
 35 41  1  0  0  0
 41 36  2  0  0  0
 41 42  1  0  0  0
 36 45  1  0  0  0
 43 42  2  0  0  0
 43 38  1  0  0  0
 42 37  1  0  0  0
 45 44  2  0  0  0
 38 39  2  0  0  0
 37 44  1  0  0  0
 37 40  2  0  0  0
 39 40  1  0  0  0
 30 31  1  0  0  0
  8 10  1  0  0  0
M  END
> <minimizedAffinity>
-10.62109

$$$$
6FS1_E4Q_A_401


 45 50  0  0  0  0  0  0  0  0999 V2000
   12.1867   -0.8228   29.0195 C   0  0  0  0  0  0  0  0  0  0  0  0
   10.8459   -1.1564   29.2104 C   0  0  0  0  0  0  0  0  0  0  0  0
    9.9664   -1.1913   28.1361 C   0  0  0  0  0  0  0  0  0  0  0  0
   10.4013   -0.8825   26.8543 C   0  0  0  0  0  0  0  0  0  0  0  0
   11.7268   -0.5100   26.6380 C   0  0  0  0  0  0  0  0  0  0  0  0
   12.4730   -0.0927   25.4762 C   0  0  0  0  0  0  0  0  0  0  0  0
   13.7639    0.1533   25.8984 C   0  0  0  0  0  0  0  0  0  0  0  0
   13.8696   -0.0874   27.2532 N   0  0  0  0  0  0  0  0  0  0  0  0
   12.6288   -0.4862   27.7223 C   0  0  0  0  0  0  0  0  0  0  0  0
   14.6869    0.0079   27.7937 H   0  0  0  0  0  0  0  0  0  0  0  0
   13.3671    0.1863   31.1167 C   0  0  0  0  0  0  0  0  0  0  0  0
   13.1213   -0.8556   30.1723 C   0  0  0  0  0  0  0  0  0  0  0  0
   13.9657   -1.8922   30.5273 C   0  0  0  0  0  0  0  0  0  0  0  0
   15.7202   -2.0669   32.4392 C   0  0  0  0  0  0  0  0  0  0  0  0
   14.1489   -3.2325   29.8935 C   0  0  0  0  0  0  0  0  0  0  0  0
   14.6694   -1.4279   31.6543 N   0  0  0  0  0  0  0  0  0  0  0  0
   14.2829   -0.1691   31.9869 N   0  0  0  0  0  0  0  0  0  0  0  0
   12.7798    1.5547   31.1470 C   0  0  0  0  0  0  0  0  0  0  0  0
   14.0815    2.8028   30.9258 S   0  0  0  0  0  0  0  0  0  0  0  0
   14.1921    2.8050   29.1159 C   0  0  0  0  0  0  0  0  0  0  0  0
   17.5730    2.2990   27.8119 C   0  0  0  0  0  0  0  0  0  0  0  0
   16.4519    1.7938   28.4010 C   0  0  0  0  0  0  0  0  0  0  0  0
   15.5939    2.8836   28.6116 C   0  0  0  0  0  0  0  0  0  0  0  0
   16.1458    4.0120   28.2024 N   0  0  0  0  0  0  0  0  0  0  0  0
   17.3667    3.6363   27.7038 N   0  0  0  0  0  0  0  0  0  0  0  0
   18.2295    4.6584   27.1258 C   0  0  0  0  0  0  0  0  0  0  0  0
   18.8028    1.6208   27.3085 C   0  0  0  0  0  0  0  0  0  0  0  0
   14.9634    0.6433   25.2132 C   0  0  0  0  0  0  0  0  0  0  0  0
   15.0253    1.7850   24.7744 O   0  0  0  0  0  0  0  0  0  0  0  0
   15.9706   -0.1781   25.1766 O   0  0  0  0  0  0  0  0  0  0  0  0
   15.8819   -1.0440   25.5234 H   0  0  0  0  0  0  0  0  0  0  0  0
   11.9369   -0.0409   24.0647 C   0  0  0  0  0  0  0  0  0  0  0  0
   11.7121    1.3683   23.5035 C   0  0  0  0  0  0  0  0  0  0  0  0
   10.2760    1.8108   23.5569 C   0  0  0  0  0  0  0  0  0  0  0  0
    9.4088    0.6542   23.5972 O   0  0  0  0  0  0  0  0  0  0  0  0
    7.4733    1.9099   24.4140 C   0  0  0  0  0  0  0  0  0  0  0  0
    5.8530   -0.1739   23.4490 C   0  0  0  0  0  0  0  0  0  0  0  0
    6.9845   -2.2846   22.0027 C   0  0  0  0  0  0  0  0  0  0  0  0
    5.6157   -2.2361   22.2056 C   0  0  0  0  0  0  0  0  0  0  0  0
    5.0490   -1.2122   22.9141 C   0  0  0  0  0  0  0  0  0  0  0  0
    8.0604    0.8366   23.7691 C   0  0  0  0  0  0  0  0  0  0  0  0
    7.2645   -0.2279   23.2534 C   0  0  0  0  0  0  0  0  0  0  0  0
    7.8023   -1.3174   22.5198 C   0  0  0  0  0  0  0  0  0  0  0  0
    5.2950    0.9360   24.1330 C   0  0  0  0  0  0  0  0  0  0  0  0
    6.0944    1.9466   24.5846 C   0  0  0  0  0  0  0  0  0  0  0  0
 14 16  1  0  0  0
 16 17  1  0  0  0
 16 13  1  0  0  0
 17 11  2  0  0  0
 15 13  1  0  0  0
 29 28  2  0  0  0
 13 12  2  0  0  0
 11 12  1  0  0  0
 11 18  1  0  0  0
 19 18  1  0  0  0
 19 20  1  0  0  0
 12  1  1  0  0  0
 28 30  1  0  0  0
 28  7  1  0  0  0
  8  7  1  0  0  0
  8  9  1  0  0  0
 20 23  1  0  0  0
  7  6  2  0  0  0
  1  9  2  0  0  0
  1  2  1  0  0  0
  9  5  1  0  0  0
 23 24  2  0  0  0
 23 22  1  0  0  0
 24 25  1  0  0  0
  6  5  1  0  0  0
  6 32  1  0  0  0
  2  3  2  0  0  0
  5  4  2  0  0  0
 22 21  2  0  0  0
 32 33  1  0  0  0
 25 21  1  0  0  0
 25 26  1  0  0  0
  3  4  1  0  0  0
 33 34  1  0  0  0
 21 27  1  0  0  0
 34 35  1  0  0  0
 35 41  1  0  0  0
 41 36  2  0  0  0
 41 42  1  0  0  0
 36 45  1  0  0  0
 43 42  2  0  0  0
 43 38  1  0  0  0
 42 37  1  0  0  0
 45 44  2  0  0  0
 38 39  2  0  0  0
 37 44  1  0  0  0
 37 40  2  0  0  0
 39 40  1  0  0  0
 30 31  1  0  0  0
  8 10  1  0  0  0
M  END
> <minimizedAffinity>
-10.14593

$$$$
6FS1_E4Q_A_401


 45 50  0  0  0  0  0  0  0  0999 V2000
   12.4262   -0.8574   28.8944 C   0  0  0  0  0  0  0  0  0  0  0  0
   11.1177   -1.2315   29.2002 C   0  0  0  0  0  0  0  0  0  0  0  0
   10.1467   -1.2804   28.2085 C   0  0  0  0  0  0  0  0  0  0  0  0
   10.4560   -0.9458   26.8971 C   0  0  0  0  0  0  0  0  0  0  0  0
   11.7458   -0.5330   26.5679 C   0  0  0  0  0  0  0  0  0  0  0  0
   12.3728   -0.0822   25.3496 C   0  0  0  0  0  0  0  0  0  0  0  0
   13.6890    0.1965   25.6578 C   0  0  0  0  0  0  0  0  0  0  0  0
   13.9226   -0.0553   26.9945 N   0  0  0  0  0  0  0  0  0  0  0  0
   12.7405   -0.4946   27.5674 C   0  0  0  0  0  0  0  0  0  0  0  0
   14.7822    0.0579   27.4609 H   0  0  0  0  0  0  0  0  0  0  0  0
   13.9140    0.2275   30.7435 C   0  0  0  0  0  0  0  0  0  0  0  0
   13.4611   -0.8753   29.9585 C   0  0  0  0  0  0  0  0  0  0  0  0
   14.2157   -1.9613   30.3645 C   0  0  0  0  0  0  0  0  0  0  0  0
   16.1208   -2.1348   32.1264 C   0  0  0  0  0  0  0  0  0  0  0  0
   14.1845   -3.3764   29.8864 C   0  0  0  0  0  0  0  0  0  0  0  0
   15.0751   -1.4637   31.3617 N   0  0  0  0  0  0  0  0  0  0  0  0
   14.8663   -0.1379   31.5693 N   0  0  0  0  0  0  0  0  0  0  0  0
   13.4889    1.6523   30.6559 C   0  0  0  0  0  0  0  0  0  0  0  0
   12.9756    2.2570   32.2905 S   0  0  0  0  0  0  0  0  0  0  0  0
   11.3663    1.4325   32.4250 C   0  0  0  0  0  0  0  0  0  0  0  0
   11.6037   -0.2015   35.6900 C   0  0  0  0  0  0  0  0  0  0  0  0
   12.2158    0.3509   34.6041 C   0  0  0  0  0  0  0  0  0  0  0  0
   11.1927    0.6845   33.7039 C   0  0  0  0  0  0  0  0  0  0  0  0
   10.0083    0.3441   34.1798 N   0  0  0  0  0  0  0  0  0  0  0  0
   10.2751   -0.1966   35.4113 N   0  0  0  0  0  0  0  0  0  0  0  0
    9.1592   -0.6464   36.2333 C   0  0  0  0  0  0  0  0  0  0  0  0
   12.1637   -0.6964   36.9811 C   0  0  0  0  0  0  0  0  0  0  0  0
   14.8081    0.7281   24.8745 C   0  0  0  0  0  0  0  0  0  0  0  0
   15.8489    0.0968   24.7401 O   0  0  0  0  0  0  0  0  0  0  0  0
   14.5923    1.8612   24.2745 O   0  0  0  0  0  0  0  0  0  0  0  0
   13.7817    2.3130   24.4041 H   0  0  0  0  0  0  0  0  0  0  0  0
   11.7109   -0.0309   23.9925 C   0  0  0  0  0  0  0  0  0  0  0  0
   11.4217    1.3778   23.4604 C   0  0  0  0  0  0  0  0  0  0  0  0
    9.9912    1.8037   23.6432 C   0  0  0  0  0  0  0  0  0  0  0  0
    9.1133    0.6744   23.4302 O   0  0  0  0  0  0  0  0  0  0  0  0
    7.1858    1.8815   24.3344 C   0  0  0  0  0  0  0  0  0  0  0  0
    5.5831   -0.2666   23.4884 C   0  0  0  0  0  0  0  0  0  0  0  0
    6.7015   -2.3632   22.0116 C   0  0  0  0  0  0  0  0  0  0  0  0
    5.3448   -2.3543   22.2885 C   0  0  0  0  0  0  0  0  0  0  0  0
    4.7850   -1.3377   23.0128 C   0  0  0  0  0  0  0  0  0  0  0  0
    7.7711    0.8172   23.6732 C   0  0  0  0  0  0  0  0  0  0  0  0
    6.9830   -0.2795   23.2166 C   0  0  0  0  0  0  0  0  0  0  0  0
    7.5147   -1.3630   22.4698 C   0  0  0  0  0  0  0  0  0  0  0  0
    5.0278    0.8358   24.1866 C   0  0  0  0  0  0  0  0  0  0  0  0
    5.8177    1.8777   24.5797 C   0  0  0  0  0  0  0  0  0  0  0  0
 14 16  1  0  0  0
 16 17  1  0  0  0
 16 13  1  0  0  0
 17 11  2  0  0  0
 15 13  1  0  0  0
 29 28  2  0  0  0
 13 12  2  0  0  0
 11 12  1  0  0  0
 11 18  1  0  0  0
 19 18  1  0  0  0
 19 20  1  0  0  0
 12  1  1  0  0  0
 28 30  1  0  0  0
 28  7  1  0  0  0
  8  7  1  0  0  0
  8  9  1  0  0  0
 20 23  1  0  0  0
  7  6  2  0  0  0
  1  9  2  0  0  0
  1  2  1  0  0  0
  9  5  1  0  0  0
 23 24  2  0  0  0
 23 22  1  0  0  0
 24 25  1  0  0  0
  6  5  1  0  0  0
  6 32  1  0  0  0
  2  3  2  0  0  0
  5  4  2  0  0  0
 22 21  2  0  0  0
 32 33  1  0  0  0
 25 21  1  0  0  0
 25 26  1  0  0  0
  3  4  1  0  0  0
 33 34  1  0  0  0
 21 27  1  0  0  0
 34 35  1  0  0  0
 35 41  1  0  0  0
 41 36  2  0  0  0
 41 42  1  0  0  0
 36 45  1  0  0  0
 43 42  2  0  0  0
 43 38  1  0  0  0
 42 37  1  0  0  0
 45 44  2  0  0  0
 38 39  2  0  0  0
 37 44  1  0  0  0
 37 40  2  0  0  0
 39 40  1  0  0  0
 30 31  1  0  0  0
  8 10  1  0  0  0
M  END
> <minimizedAffinity>
-10.06279

$$$$
6FS1_E4Q_A_401


 45 50  0  0  0  0  0  0  0  0999 V2000
   12.1577   -0.6711   28.9011 C   0  0  0  0  0  0  0  0  0  0  0  0
   10.8281   -1.0697   29.0380 C   0  0  0  0  0  0  0  0  0  0  0  0
    9.9923   -1.1348   27.9307 C   0  0  0  0  0  0  0  0  0  0  0  0
   10.4599   -0.7921   26.6692 C   0  0  0  0  0  0  0  0  0  0  0  0
   11.7732   -0.3550   26.5068 C   0  0  0  0  0  0  0  0  0  0  0  0
   12.5419    0.1094   25.3779 C   0  0  0  0  0  0  0  0  0  0  0  0
   13.8027    0.4117   25.8511 C   0  0  0  0  0  0  0  0  0  0  0  0
   13.8688    0.1619   27.2068 N   0  0  0  0  0  0  0  0  0  0  0  0
   12.6317   -0.3001   27.6248 C   0  0  0  0  0  0  0  0  0  0  0  0
   14.6598    0.2900   27.7788 H   0  0  0  0  0  0  0  0  0  0  0  0
   13.2249    0.3786   31.0387 C   0  0  0  0  0  0  0  0  0  0  0  0
   13.0488   -0.6719   30.0884 C   0  0  0  0  0  0  0  0  0  0  0  0
   13.9125   -1.6800   30.4775 C   0  0  0  0  0  0  0  0  0  0  0  0
   15.5986   -1.7949   32.4543 C   0  0  0  0  0  0  0  0  0  0  0  0
   14.1630   -3.0144   29.8543 C   0  0  0  0  0  0  0  0  0  0  0  0
   14.5578   -1.1915   31.6289 N   0  0  0  0  0  0  0  0  0  0  0  0
   14.1183    0.0544   31.9436 N   0  0  0  0  0  0  0  0  0  0  0  0
   12.5926    1.7271   31.0436 C   0  0  0  0  0  0  0  0  0  0  0  0
   13.8063    2.9890   31.5291 S   0  0  0  0  0  0  0  0  0  0  0  0
   14.2697    3.6081   29.8889 C   0  0  0  0  0  0  0  0  0  0  0  0
   13.3679    6.9257   28.6372 C   0  0  0  0  0  0  0  0  0  0  0  0
   14.2727    5.9099   28.7307 C   0  0  0  0  0  0  0  0  0  0  0  0
   13.7035    4.9546   29.5861 C   0  0  0  0  0  0  0  0  0  0  0  0
   12.5220    5.3503   30.0251 N   0  0  0  0  0  0  0  0  0  0  0  0
   12.3228    6.5675   29.4260 N   0  0  0  0  0  0  0  0  0  0  0  0
   11.0713    7.2715   29.6738 C   0  0  0  0  0  0  0  0  0  0  0  0
   13.3910    8.1845   27.8368 C   0  0  0  0  0  0  0  0  0  0  0  0
   15.0025    0.9652   25.2164 C   0  0  0  0  0  0  0  0  0  0  0  0
   15.0623    1.1345   24.0050 O   0  0  0  0  0  0  0  0  0  0  0  0
   15.9521    1.3341   26.0242 O   0  0  0  0  0  0  0  0  0  0  0  0
   15.8672    1.1863   26.9456 H   0  0  0  0  0  0  0  0  0  0  0  0
   12.0574    0.1509   23.9476 C   0  0  0  0  0  0  0  0  0  0  0  0
   11.6795    1.5428   23.4268 C   0  0  0  0  0  0  0  0  0  0  0  0
   10.2508    1.9184   23.7076 C   0  0  0  0  0  0  0  0  0  0  0  0
    9.3961    0.7672   23.5191 O   0  0  0  0  0  0  0  0  0  0  0  0
    7.4410    1.9303   24.4220 C   0  0  0  0  0  0  0  0  0  0  0  0
    5.8707   -0.1917   23.4576 C   0  0  0  0  0  0  0  0  0  0  0  0
    7.0354   -2.2257   21.9300 C   0  0  0  0  0  0  0  0  0  0  0  0
    5.6725   -2.2337   22.1746 C   0  0  0  0  0  0  0  0  0  0  0  0
    5.0901   -1.2478   22.9231 C   0  0  0  0  0  0  0  0  0  0  0  0
    8.0477    0.8945   23.7352 C   0  0  0  0  0  0  0  0  0  0  0  0
    7.2767   -0.1878   23.2190 C   0  0  0  0  0  0  0  0  0  0  0  0
    7.8320   -1.2398   22.4447 C   0  0  0  0  0  0  0  0  0  0  0  0
    5.2930    0.8809   24.1834 C   0  0  0  0  0  0  0  0  0  0  0  0
    6.0676    1.9109   24.6343 C   0  0  0  0  0  0  0  0  0  0  0  0
 14 16  1  0  0  0
 16 17  1  0  0  0
 16 13  1  0  0  0
 17 11  2  0  0  0
 15 13  1  0  0  0
 29 28  2  0  0  0
 13 12  2  0  0  0
 11 12  1  0  0  0
 11 18  1  0  0  0
 19 18  1  0  0  0
 19 20  1  0  0  0
 12  1  1  0  0  0
 28 30  1  0  0  0
 28  7  1  0  0  0
  8  7  1  0  0  0
  8  9  1  0  0  0
 20 23  1  0  0  0
  7  6  2  0  0  0
  1  9  2  0  0  0
  1  2  1  0  0  0
  9  5  1  0  0  0
 23 24  2  0  0  0
 23 22  1  0  0  0
 24 25  1  0  0  0
  6  5  1  0  0  0
  6 32  1  0  0  0
  2  3  2  0  0  0
  5  4  2  0  0  0
 22 21  2  0  0  0
 32 33  1  0  0  0
 25 21  1  0  0  0
 25 26  1  0  0  0
  3  4  1  0  0  0
 33 34  1  0  0  0
 21 27  1  0  0  0
 34 35  1  0  0  0
 35 41  1  0  0  0
 41 36  2  0  0  0
 41 42  1  0  0  0
 36 45  1  0  0  0
 43 42  2  0  0  0
 43 38  1  0  0  0
 42 37  1  0  0  0
 45 44  2  0  0  0
 38 39  2  0  0  0
 37 44  1  0  0  0
 37 40  2  0  0  0
 39 40  1  0  0  0
 30 31  1  0  0  0
  8 10  1  0  0  0
M  END
> <minimizedAffinity>
-9.97961

$$$$
6FS1_E4Q_A_401


 45 50  0  0  0  0  0  0  0  0999 V2000
   15.2944    0.2825   25.6833 C   0  0  0  0  0  0  0  0  0  0  0  0
   15.4249    0.1690   24.2992 C   0  0  0  0  0  0  0  0  0  0  0  0
   14.3143   -0.0778   23.5026 C   0  0  0  0  0  0  0  0  0  0  0  0
   13.0559   -0.2291   24.0689 C   0  0  0  0  0  0  0  0  0  0  0  0
   12.8999   -0.1573   25.4520 C   0  0  0  0  0  0  0  0  0  0  0  0
   11.7756   -0.3118   26.3425 C   0  0  0  0  0  0  0  0  0  0  0  0
   12.2545   -0.1323   27.6244 C   0  0  0  0  0  0  0  0  0  0  0  0
   13.6095    0.1274   27.5884 N   0  0  0  0  0  0  0  0  0  0  0  0
   14.0212    0.1072   26.2660 C   0  0  0  0  0  0  0  0  0  0  0  0
   14.1849    0.2979   28.3688 H   0  0  0  0  0  0  0  0  0  0  0  0
   17.6207   -0.2175   26.7547 C   0  0  0  0  0  0  0  0  0  0  0  0
   16.4849    0.6109   26.5070 C   0  0  0  0  0  0  0  0  0  0  0  0
   16.7012    1.7716   27.2278 C   0  0  0  0  0  0  0  0  0  0  0  0
   18.6677    2.4540   28.7869 C   0  0  0  0  0  0  0  0  0  0  0  0
   15.8450    2.9893   27.3539 C   0  0  0  0  0  0  0  0  0  0  0  0
   17.9418    1.5860   27.8659 N   0  0  0  0  0  0  0  0  0  0  0  0
   18.4732    0.3748   27.5577 N   0  0  0  0  0  0  0  0  0  0  0  0
   17.8619   -1.6094   26.2829 C   0  0  0  0  0  0  0  0  0  0  0  0
   19.4889   -2.1909   26.8447 S   0  0  0  0  0  0  0  0  0  0  0  0
   18.9765   -3.6487   27.7936 C   0  0  0  0  0  0  0  0  0  0  0  0
   16.8124   -2.3986   30.4658 C   0  0  0  0  0  0  0  0  0  0  0  0
   18.0458   -2.4731   29.8893 C   0  0  0  0  0  0  0  0  0  0  0  0
   17.9192   -3.3523   28.8034 C   0  0  0  0  0  0  0  0  0  0  0  0
   16.6883   -3.8231   28.7111 N   0  0  0  0  0  0  0  0  0  0  0  0
   16.0119   -3.2207   29.7406 N   0  0  0  0  0  0  0  0  0  0  0  0
   14.5907   -3.5001   29.9006 C   0  0  0  0  0  0  0  0  0  0  0  0
   16.3191   -1.5882   31.6172 C   0  0  0  0  0  0  0  0  0  0  0  0
   11.6263   -0.2114   28.9464 C   0  0  0  0  0  0  0  0  0  0  0  0
   10.9488    0.7091   29.3864 O   0  0  0  0  0  0  0  0  0  0  0  0
   11.7682   -1.3408   29.5747 O   0  0  0  0  0  0  0  0  0  0  0  0
   12.2958   -2.0204   29.2035 H   0  0  0  0  0  0  0  0  0  0  0  0
   10.3437   -0.5303   25.9133 C   0  0  0  0  0  0  0  0  0  0  0  0
    9.4390    0.7043   26.0062 C   0  0  0  0  0  0  0  0  0  0  0  0
    9.6647    1.6953   24.8979 C   0  0  0  0  0  0  0  0  0  0  0  0
    8.9142    1.2990   23.7269 O   0  0  0  0  0  0  0  0  0  0  0  0
    6.6966    2.0821   24.4045 C   0  0  0  0  0  0  0  0  0  0  0  0
    5.6603   -0.3322   23.4065 C   0  0  0  0  0  0  0  0  0  0  0  0
    7.3313   -2.1410   22.0787 C   0  0  0  0  0  0  0  0  0  0  0  0
    5.9787   -2.4085   22.2054 C   0  0  0  0  0  0  0  0  0  0  0  0
    5.1504   -1.5350   22.8555 C   0  0  0  0  0  0  0  0  0  0  0  0
    7.5523    1.1662   23.8203 C   0  0  0  0  0  0  0  0  0  0  0  0
    7.0553   -0.0600   23.2896 C   0  0  0  0  0  0  0  0  0  0  0  0
    7.8721   -1.0043   22.6146 C   0  0  0  0  0  0  0  0  0  0  0  0
    4.8221    0.6267   24.0303 C   0  0  0  0  0  0  0  0  0  0  0  0
    5.3388    1.8005   24.4986 C   0  0  0  0  0  0  0  0  0  0  0  0
 14 16  1  0  0  0
 16 17  1  0  0  0
 16 13  1  0  0  0
 17 11  2  0  0  0
 15 13  1  0  0  0
 29 28  2  0  0  0
 13 12  2  0  0  0
 11 12  1  0  0  0
 11 18  1  0  0  0
 19 18  1  0  0  0
 19 20  1  0  0  0
 12  1  1  0  0  0
 28 30  1  0  0  0
 28  7  1  0  0  0
  8  7  1  0  0  0
  8  9  1  0  0  0
 20 23  1  0  0  0
  7  6  2  0  0  0
  1  9  2  0  0  0
  1  2  1  0  0  0
  9  5  1  0  0  0
 23 24  2  0  0  0
 23 22  1  0  0  0
 24 25  1  0  0  0
  6  5  1  0  0  0
  6 32  1  0  0  0
  2  3  2  0  0  0
  5  4  2  0  0  0
 22 21  2  0  0  0
 32 33  1  0  0  0
 25 21  1  0  0  0
 25 26  1  0  0  0
  3  4  1  0  0  0
 33 34  1  0  0  0
 21 27  1  0  0  0
 34 35  1  0  0  0
 35 41  1  0  0  0
 41 36  2  0  0  0
 41 42  1  0  0  0
 36 45  1  0  0  0
 43 42  2  0  0  0
 43 38  1  0  0  0
 42 37  1  0  0  0
 45 44  2  0  0  0
 38 39  2  0  0  0
 37 44  1  0  0  0
 37 40  2  0  0  0
 39 40  1  0  0  0
 30 31  1  0  0  0
  8 10  1  0  0  0
M  END
> <minimizedAffinity>
-9.88378

$$$$
6FS1_E4Q_A_401


 45 50  0  0  0  0  0  0  0  0999 V2000
   15.3025    0.2849   25.7619 C   0  0  0  0  0  0  0  0  0  0  0  0
   15.4589    0.2417   24.3766 C   0  0  0  0  0  0  0  0  0  0  0  0
   14.3710   -0.0075   23.5500 C   0  0  0  0  0  0  0  0  0  0  0  0
   13.1103   -0.2313   24.0866 C   0  0  0  0  0  0  0  0  0  0  0  0
   12.9300   -0.2307   25.4686 C   0  0  0  0  0  0  0  0  0  0  0  0
   11.7984   -0.4682   26.3311 C   0  0  0  0  0  0  0  0  0  0  0  0
   12.2500   -0.3320   27.6282 C   0  0  0  0  0  0  0  0  0  0  0  0
   13.5947   -0.0215   27.6280 N   0  0  0  0  0  0  0  0  0  0  0  0
   14.0277    0.0358   26.3134 C   0  0  0  0  0  0  0  0  0  0  0  0
   14.1510    0.1328   28.4255 H   0  0  0  0  0  0  0  0  0  0  0  0
   16.7114    1.8432   27.3099 C   0  0  0  0  0  0  0  0  0  0  0  0
   16.4668    0.6173   26.6207 C   0  0  0  0  0  0  0  0  0  0  0  0
   17.5610   -0.1871   26.8837 C   0  0  0  0  0  0  0  0  0  0  0  0
   19.7108    0.2801   28.2708 C   0  0  0  0  0  0  0  0  0  0  0  0
   17.8569   -1.5761   26.4199 C   0  0  0  0  0  0  0  0  0  0  0  0
   18.3998    0.5858   27.7082 N   0  0  0  0  0  0  0  0  0  0  0  0
   17.8568    1.8070   27.9495 N   0  0  0  0  0  0  0  0  0  0  0  0
   15.8849    3.0822   27.3002 C   0  0  0  0  0  0  0  0  0  0  0  0
   15.6886    3.7205   28.9899 S   0  0  0  0  0  0  0  0  0  0  0  0
   14.0303    3.0873   29.3602 C   0  0  0  0  0  0  0  0  0  0  0  0
   13.4488    0.7370   32.1034 C   0  0  0  0  0  0  0  0  0  0  0  0
   13.2326    1.9570   31.5343 C   0  0  0  0  0  0  0  0  0  0  0  0
   14.0297    1.9990   30.3805 C   0  0  0  0  0  0  0  0  0  0  0  0
   14.7247    0.8844   30.2395 N   0  0  0  0  0  0  0  0  0  0  0  0
   14.3517    0.1094   31.3074 N   0  0  0  0  0  0  0  0  0  0  0  0
   14.9173   -1.2278   31.4314 C   0  0  0  0  0  0  0  0  0  0  0  0
   12.8462    0.1013   33.3110 C   0  0  0  0  0  0  0  0  0  0  0  0
   11.6045   -0.4964   28.9338 C   0  0  0  0  0  0  0  0  0  0  0  0
   11.8186   -1.4799   29.6315 O   0  0  0  0  0  0  0  0  0  0  0  0
   10.8645    0.4968   29.3294 O   0  0  0  0  0  0  0  0  0  0  0  0
   10.7254    1.2314   28.7646 H   0  0  0  0  0  0  0  0  0  0  0  0
   10.3825   -0.7183   25.8672 C   0  0  0  0  0  0  0  0  0  0  0  0
    9.4469    0.4941   25.9439 C   0  0  0  0  0  0  0  0  0  0  0  0
    9.7084    1.5193   24.8754 C   0  0  0  0  0  0  0  0  0  0  0  0
    8.9270    1.2098   23.6986 O   0  0  0  0  0  0  0  0  0  0  0  0
    6.7413    2.0486   24.4124 C   0  0  0  0  0  0  0  0  0  0  0  0
    5.6246   -0.3267   23.4075 C   0  0  0  0  0  0  0  0  0  0  0  0
    7.2266   -2.1697   22.0421 C   0  0  0  0  0  0  0  0  0  0  0  0
    5.8687   -2.4003   22.1845 C   0  0  0  0  0  0  0  0  0  0  0  0
    5.0739   -1.5098   22.8530 C   0  0  0  0  0  0  0  0  0  0  0  0
    7.5633    1.1143   23.8090 C   0  0  0  0  0  0  0  0  0  0  0  0
    7.0250   -0.0927   23.2744 C   0  0  0  0  0  0  0  0  0  0  0  0
    7.8060   -1.0534   22.5804 C   0  0  0  0  0  0  0  0  0  0  0  0
    4.8219    0.6495   24.0507 C   0  0  0  0  0  0  0  0  0  0  0  0
    5.3775    1.8042   24.5222 C   0  0  0  0  0  0  0  0  0  0  0  0
 14 16  1  0  0  0
 16 17  1  0  0  0
 16 13  1  0  0  0
 17 11  2  0  0  0
 15 13  1  0  0  0
 29 28  2  0  0  0
 13 12  2  0  0  0
 11 12  1  0  0  0
 11 18  1  0  0  0
 19 18  1  0  0  0
 19 20  1  0  0  0
 12  1  1  0  0  0
 28 30  1  0  0  0
 28  7  1  0  0  0
  8  7  1  0  0  0
  8  9  1  0  0  0
 20 23  1  0  0  0
  7  6  2  0  0  0
  1  9  2  0  0  0
  1  2  1  0  0  0
  9  5  1  0  0  0
 23 24  2  0  0  0
 23 22  1  0  0  0
 24 25  1  0  0  0
  6  5  1  0  0  0
  6 32  1  0  0  0
  2  3  2  0  0  0
  5  4  2  0  0  0
 22 21  2  0  0  0
 32 33  1  0  0  0
 25 21  1  0  0  0
 25 26  1  0  0  0
  3  4  1  0  0  0
 33 34  1  0  0  0
 21 27  1  0  0  0
 34 35  1  0  0  0
 35 41  1  0  0  0
 41 36  2  0  0  0
 41 42  1  0  0  0
 36 45  1  0  0  0
 43 42  2  0  0  0
 43 38  1  0  0  0
 42 37  1  0  0  0
 45 44  2  0  0  0
 38 39  2  0  0  0
 37 44  1  0  0  0
 37 40  2  0  0  0
 39 40  1  0  0  0
 30 31  1  0  0  0
  8 10  1  0  0  0
M  END
> <minimizedAffinity>
-9.71070

$$$$
6FS1_E4Q_A_401


 45 50  0  0  0  0  0  0  0  0999 V2000
   12.6220   -0.7930   28.9070 C   0  0  0  0  0  0  0  0  0  0  0  0
   11.3603   -1.2275   29.3133 C   0  0  0  0  0  0  0  0  0  0  0  0
   10.3356   -1.3848   28.3891 C   0  0  0  0  0  0  0  0  0  0  0  0
   10.5431   -1.1007   27.0462 C   0  0  0  0  0  0  0  0  0  0  0  0
   11.7824   -0.6300   26.6159 C   0  0  0  0  0  0  0  0  0  0  0  0
   12.3048   -0.2065   25.3398 C   0  0  0  0  0  0  0  0  0  0  0  0
   13.6175    0.1650   25.5496 C   0  0  0  0  0  0  0  0  0  0  0  0
   13.9472   -0.0032   26.8791 N   0  0  0  0  0  0  0  0  0  0  0  0
   12.8317   -0.4813   27.5468 C   0  0  0  0  0  0  0  0  0  0  0  0
   14.8249    0.1845   27.2837 H   0  0  0  0  0  0  0  0  0  0  0  0
   14.1766    0.4796   30.5723 C   0  0  0  0  0  0  0  0  0  0  0  0
   13.7188   -0.6949   29.9025 C   0  0  0  0  0  0  0  0  0  0  0  0
   14.5364   -1.7210   30.3408 C   0  0  0  0  0  0  0  0  0  0  0  0
   16.5490   -1.6955   31.9878 C   0  0  0  0  0  0  0  0  0  0  0  0
   14.5294   -3.1691   29.9734 C   0  0  0  0  0  0  0  0  0  0  0  0
   15.4350   -1.1200   31.2419 N   0  0  0  0  0  0  0  0  0  0  0  0
   15.1897    0.2104   31.3619 N   0  0  0  0  0  0  0  0  0  0  0  0
   13.6942    1.8786   30.4047 C   0  0  0  0  0  0  0  0  0  0  0  0
   15.0968    3.0334   30.4171 S   0  0  0  0  0  0  0  0  0  0  0  0
   15.2436    3.3482   28.6374 C   0  0  0  0  0  0  0  0  0  0  0  0
   18.5187    2.3691   27.3329 C   0  0  0  0  0  0  0  0  0  0  0  0
   17.6682    3.3433   27.7648 C   0  0  0  0  0  0  0  0  0  0  0  0
   16.4436    2.7093   28.0233 C   0  0  0  0  0  0  0  0  0  0  0  0
   16.5074    1.4183   27.7506 N   0  0  0  0  0  0  0  0  0  0  0  0
   17.7975    1.2190   27.3310 N   0  0  0  0  0  0  0  0  0  0  0  0
   18.2179   -0.1321   26.9829 C   0  0  0  0  0  0  0  0  0  0  0  0
   19.9621    2.4265   26.9602 C   0  0  0  0  0  0  0  0  0  0  0  0
   14.6516    0.7205   24.6718 C   0  0  0  0  0  0  0  0  0  0  0  0
   15.7009    0.1236   24.4657 O   0  0  0  0  0  0  0  0  0  0  0  0
   14.3483    1.8339   24.0727 O   0  0  0  0  0  0  0  0  0  0  0  0
   13.5345    2.2594   24.2587 H   0  0  0  0  0  0  0  0  0  0  0  0
   11.5596   -0.2646   24.0269 C   0  0  0  0  0  0  0  0  0  0  0  0
   10.5044   -1.3724   23.9241 C   0  0  0  0  0  0  0  0  0  0  0  0
    9.3065   -0.9823   23.1031 C   0  0  0  0  0  0  0  0  0  0  0  0
    9.0399    0.4297   23.2667 O   0  0  0  0  0  0  0  0  0  0  0  0
    6.5958    0.5504   23.3160 C   0  0  0  0  0  0  0  0  0  0  0  0
    6.8308    2.1391   25.6224 C   0  0  0  0  0  0  0  0  0  0  0  0
    9.3401    2.5861   26.7761 C   0  0  0  0  0  0  0  0  0  0  0  0
    8.2009    3.1069   27.3664 C   0  0  0  0  0  0  0  0  0  0  0  0
    6.9678    2.8996   26.8112 C   0  0  0  0  0  0  0  0  0  0  0  0
    7.8516    0.8241   23.8267 C   0  0  0  0  0  0  0  0  0  0  0  0
    8.0033    1.6126   25.0045 C   0  0  0  0  0  0  0  0  0  0  0  0
    9.2589    1.8656   25.6159 C   0  0  0  0  0  0  0  0  0  0  0  0
    5.5643    1.8496   25.0539 C   0  0  0  0  0  0  0  0  0  0  0  0
    5.4660    1.0656   23.9404 C   0  0  0  0  0  0  0  0  0  0  0  0
 14 16  1  0  0  0
 16 17  1  0  0  0
 16 13  1  0  0  0
 17 11  2  0  0  0
 15 13  1  0  0  0
 29 28  2  0  0  0
 13 12  2  0  0  0
 11 12  1  0  0  0
 11 18  1  0  0  0
 19 18  1  0  0  0
 19 20  1  0  0  0
 12  1  1  0  0  0
 28 30  1  0  0  0
 28  7  1  0  0  0
  8  7  1  0  0  0
  8  9  1  0  0  0
 20 23  1  0  0  0
  7  6  2  0  0  0
  1  9  2  0  0  0
  1  2  1  0  0  0
  9  5  1  0  0  0
 23 24  2  0  0  0
 23 22  1  0  0  0
 24 25  1  0  0  0
  6  5  1  0  0  0
  6 32  1  0  0  0
  2  3  2  0  0  0
  5  4  2  0  0  0
 22 21  2  0  0  0
 32 33  1  0  0  0
 25 21  1  0  0  0
 25 26  1  0  0  0
  3  4  1  0  0  0
 33 34  1  0  0  0
 21 27  1  0  0  0
 34 35  1  0  0  0
 35 41  1  0  0  0
 41 36  2  0  0  0
 41 42  1  0  0  0
 36 45  1  0  0  0
 43 42  2  0  0  0
 43 38  1  0  0  0
 42 37  1  0  0  0
 45 44  2  0  0  0
 38 39  2  0  0  0
 37 44  1  0  0  0
 37 40  2  0  0  0
 39 40  1  0  0  0
 30 31  1  0  0  0
  8 10  1  0  0  0
M  END
> <minimizedAffinity>
-9.65483

$$$$
6FS1_E4Q_A_401


 45 50  0  0  0  0  0  0  0  0999 V2000
   12.1850   -0.9071   29.1220 C   0  0  0  0  0  0  0  0  0  0  0  0
   10.8460   -1.2979   29.1256 C   0  0  0  0  0  0  0  0  0  0  0  0
   10.1198   -1.3428   27.9427 C   0  0  0  0  0  0  0  0  0  0  0  0
   10.7080   -0.9876   26.7364 C   0  0  0  0  0  0  0  0  0  0  0  0
   12.0335   -0.5579   26.7062 C   0  0  0  0  0  0  0  0  0  0  0  0
   12.9095   -0.0847   25.6624 C   0  0  0  0  0  0  0  0  0  0  0  0
   14.1210    0.2024   26.2580 C   0  0  0  0  0  0  0  0  0  0  0  0
   14.0555   -0.0651   27.6104 N   0  0  0  0  0  0  0  0  0  0  0  0
   12.7812   -0.5234   27.9019 C   0  0  0  0  0  0  0  0  0  0  0  0
   14.7888    0.0501   28.2571 H   0  0  0  0  0  0  0  0  0  0  0  0
   12.9947    0.0795   31.3980 C   0  0  0  0  0  0  0  0  0  0  0  0
   12.9582   -0.9294   30.3889 C   0  0  0  0  0  0  0  0  0  0  0  0
   13.8264   -1.9188   30.8144 C   0  0  0  0  0  0  0  0  0  0  0  0
   15.3204   -2.0608   32.9385 C   0  0  0  0  0  0  0  0  0  0  0  0
   14.1961   -3.2095   30.1591 C   0  0  0  0  0  0  0  0  0  0  0  0
   14.3362   -1.4612   32.0438 N   0  0  0  0  0  0  0  0  0  0  0  0
   13.8120   -0.2516   32.3700 N   0  0  0  0  0  0  0  0  0  0  0  0
   12.3037    1.3989   31.4021 C   0  0  0  0  0  0  0  0  0  0  0  0
   13.5195    2.7454   31.5009 S   0  0  0  0  0  0  0  0  0  0  0  0
   12.5505    4.0818   30.7505 C   0  0  0  0  0  0  0  0  0  0  0  0
   14.8652    5.5918   28.3528 C   0  0  0  0  0  0  0  0  0  0  0  0
   14.5586    4.5807   29.2146 C   0  0  0  0  0  0  0  0  0  0  0  0
   13.3469    4.9385   29.8247 C   0  0  0  0  0  0  0  0  0  0  0  0
   12.9238    6.1133   29.3934 N   0  0  0  0  0  0  0  0  0  0  0  0
   13.8677    6.5040   28.4787 N   0  0  0  0  0  0  0  0  0  0  0  0
   13.6775    7.7651   27.7741 C   0  0  0  0  0  0  0  0  0  0  0  0
   15.9978    5.7498   27.3948 C   0  0  0  0  0  0  0  0  0  0  0  0
   15.3793    0.7553   25.7485 C   0  0  0  0  0  0  0  0  0  0  0  0
   15.7091    1.9111   25.9833 O   0  0  0  0  0  0  0  0  0  0  0  0
   16.1466   -0.0774   25.1095 O   0  0  0  0  0  0  0  0  0  0  0  0
   15.8566   -0.9540   24.9502 H   0  0  0  0  0  0  0  0  0  0  0  0
   12.5644   -0.0216   24.1929 C   0  0  0  0  0  0  0  0  0  0  0  0
   12.3404    1.3891   23.6353 C   0  0  0  0  0  0  0  0  0  0  0  0
   10.9391    1.6211   23.1416 C   0  0  0  0  0  0  0  0  0  0  0  0
    9.9918    1.0423   24.0684 O   0  0  0  0  0  0  0  0  0  0  0  0
    9.2083   -0.9479   22.8787 C   0  0  0  0  0  0  0  0  0  0  0  0
    6.5843   -0.0395   23.3128 C   0  0  0  0  0  0  0  0  0  0  0  0
    6.1209    2.2358   24.8734 C   0  0  0  0  0  0  0  0  0  0  0  0
    5.0554    1.5229   24.3503 C   0  0  0  0  0  0  0  0  0  0  0  0
    5.2671    0.4108   23.5822 C   0  0  0  0  0  0  0  0  0  0  0  0
    9.0035    0.2219   23.5874 C   0  0  0  0  0  0  0  0  0  0  0  0
    7.6843    0.7002   23.8388 C   0  0  0  0  0  0  0  0  0  0  0  0
    7.4096    1.8524   24.6207 C   0  0  0  0  0  0  0  0  0  0  0  0
    6.8409   -1.2232   22.5752 C   0  0  0  0  0  0  0  0  0  0  0  0
    8.1209   -1.6582   22.3839 C   0  0  0  0  0  0  0  0  0  0  0  0
 14 16  1  0  0  0
 16 17  1  0  0  0
 16 13  1  0  0  0
 17 11  2  0  0  0
 15 13  1  0  0  0
 29 28  2  0  0  0
 13 12  2  0  0  0
 11 12  1  0  0  0
 11 18  1  0  0  0
 19 18  1  0  0  0
 19 20  1  0  0  0
 12  1  1  0  0  0
 28 30  1  0  0  0
 28  7  1  0  0  0
  8  7  1  0  0  0
  8  9  1  0  0  0
 20 23  1  0  0  0
  7  6  2  0  0  0
  1  9  2  0  0  0
  1  2  1  0  0  0
  9  5  1  0  0  0
 23 24  2  0  0  0
 23 22  1  0  0  0
 24 25  1  0  0  0
  6  5  1  0  0  0
  6 32  1  0  0  0
  2  3  2  0  0  0
  5  4  2  0  0  0
 22 21  2  0  0  0
 32 33  1  0  0  0
 25 21  1  0  0  0
 25 26  1  0  0  0
  3  4  1  0  0  0
 33 34  1  0  0  0
 21 27  1  0  0  0
 34 35  1  0  0  0
 35 41  1  0  0  0
 41 36  2  0  0  0
 41 42  1  0  0  0
 36 45  1  0  0  0
 43 42  2  0  0  0
 43 38  1  0  0  0
 42 37  1  0  0  0
 45 44  2  0  0  0
 38 39  2  0  0  0
 37 44  1  0  0  0
 37 40  2  0  0  0
 39 40  1  0  0  0
 30 31  1  0  0  0
  8 10  1  0  0  0
M  END
> <minimizedAffinity>
-9.64923

$$$$
6FS1_E4Q_A_401


 45 50  0  0  0  0  0  0  0  0999 V2000
   15.2725    0.3280   25.7927 C   0  0  0  0  0  0  0  0  0  0  0  0
   15.4242    0.1951   24.4125 C   0  0  0  0  0  0  0  0  0  0  0  0
   14.3324   -0.1008   23.6068 C   0  0  0  0  0  0  0  0  0  0  0  0
   13.0722   -0.2826   24.1602 C   0  0  0  0  0  0  0  0  0  0  0  0
   12.8963   -0.1923   25.5398 C   0  0  0  0  0  0  0  0  0  0  0  0
   11.7663   -0.3676   26.4190 C   0  0  0  0  0  0  0  0  0  0  0  0
   12.2228   -0.1509   27.7034 C   0  0  0  0  0  0  0  0  0  0  0  0
   13.5691    0.1516   27.6794 N   0  0  0  0  0  0  0  0  0  0  0  0
   13.9982    0.1220   26.3627 C   0  0  0  0  0  0  0  0  0  0  0  0
   14.1287    0.3537   28.4638 H   0  0  0  0  0  0  0  0  0  0  0  0
   16.6805    1.9658   27.2573 C   0  0  0  0  0  0  0  0  0  0  0  0
   16.4413    0.7085   26.6250 C   0  0  0  0  0  0  0  0  0  0  0  0
   17.5454   -0.0735   26.9128 C   0  0  0  0  0  0  0  0  0  0  0  0
   19.7030    0.4738   28.2578 C   0  0  0  0  0  0  0  0  0  0  0  0
   17.8502   -1.4789   26.5078 C   0  0  0  0  0  0  0  0  0  0  0  0
   18.3843    0.7425   27.6946 N   0  0  0  0  0  0  0  0  0  0  0  0
   17.8318    1.9682   27.8870 N   0  0  0  0  0  0  0  0  0  0  0  0
   15.8423    3.1956   27.2008 C   0  0  0  0  0  0  0  0  0  0  0  0
   16.3930    4.3901   28.4542 S   0  0  0  0  0  0  0  0  0  0  0  0
   14.8303    4.6397   29.3395 C   0  0  0  0  0  0  0  0  0  0  0  0
   13.4993    7.7068   27.8537 C   0  0  0  0  0  0  0  0  0  0  0  0
   14.4388    6.7189   27.8685 C   0  0  0  0  0  0  0  0  0  0  0  0
   14.1498    5.9187   28.9841 C   0  0  0  0  0  0  0  0  0  0  0  0
   13.1062    6.3835   29.6476 N   0  0  0  0  0  0  0  0  0  0  0  0
   12.7089    7.4855   28.9349 N   0  0  0  0  0  0  0  0  0  0  0  0
   11.5356    8.2229   29.3855 C   0  0  0  0  0  0  0  0  0  0  0  0
   13.2628    8.8163   26.8847 C   0  0  0  0  0  0  0  0  0  0  0  0
   11.5805   -0.2275   29.0188 C   0  0  0  0  0  0  0  0  0  0  0  0
   10.8303    0.6560   29.4143 O   0  0  0  0  0  0  0  0  0  0  0  0
   11.7945   -1.3195   29.6913 O   0  0  0  0  0  0  0  0  0  0  0  0
   12.3765   -1.9714   29.3533 H   0  0  0  0  0  0  0  0  0  0  0  0
   10.3476   -0.6392   25.9762 C   0  0  0  0  0  0  0  0  0  0  0  0
    9.4182    0.5804   25.9796 C   0  0  0  0  0  0  0  0  0  0  0  0
    9.7143    1.5606   24.8784 C   0  0  0  0  0  0  0  0  0  0  0  0
    8.9427    1.2235   23.7027 O   0  0  0  0  0  0  0  0  0  0  0  0
    6.7481    2.0504   24.4031 C   0  0  0  0  0  0  0  0  0  0  0  0
    5.6515   -0.3346   23.3992 C   0  0  0  0  0  0  0  0  0  0  0  0
    7.2719   -2.1712   22.0470 C   0  0  0  0  0  0  0  0  0  0  0  0
    5.9148   -2.4099   22.1832 C   0  0  0  0  0  0  0  0  0  0  0  0
    5.1111   -1.5227   22.8452 C   0  0  0  0  0  0  0  0  0  0  0  0
    7.5790    1.1197   23.8065 C   0  0  0  0  0  0  0  0  0  0  0  0
    7.0511   -0.0921   23.2725 C   0  0  0  0  0  0  0  0  0  0  0  0
    7.8416   -1.0498   22.5852 C   0  0  0  0  0  0  0  0  0  0  0  0
    4.8394    0.6384   24.0356 C   0  0  0  0  0  0  0  0  0  0  0  0
    5.3853    1.7978   24.5067 C   0  0  0  0  0  0  0  0  0  0  0  0
 14 16  1  0  0  0
 16 17  1  0  0  0
 16 13  1  0  0  0
 17 11  2  0  0  0
 15 13  1  0  0  0
 29 28  2  0  0  0
 13 12  2  0  0  0
 11 12  1  0  0  0
 11 18  1  0  0  0
 19 18  1  0  0  0
 19 20  1  0  0  0
 12  1  1  0  0  0
 28 30  1  0  0  0
 28  7  1  0  0  0
  8  7  1  0  0  0
  8  9  1  0  0  0
 20 23  1  0  0  0
  7  6  2  0  0  0
  1  9  2  0  0  0
  1  2  1  0  0  0
  9  5  1  0  0  0
 23 24  2  0  0  0
 23 22  1  0  0  0
 24 25  1  0  0  0
  6  5  1  0  0  0
  6 32  1  0  0  0
  2  3  2  0  0  0
  5  4  2  0  0  0
 22 21  2  0  0  0
 32 33  1  0  0  0
 25 21  1  0  0  0
 25 26  1  0  0  0
  3  4  1  0  0  0
 33 34  1  0  0  0
 21 27  1  0  0  0
 34 35  1  0  0  0
 35 41  1  0  0  0
 41 36  2  0  0  0
 41 42  1  0  0  0
 36 45  1  0  0  0
 43 42  2  0  0  0
 43 38  1  0  0  0
 42 37  1  0  0  0
 45 44  2  0  0  0
 38 39  2  0  0  0
 37 44  1  0  0  0
 37 40  2  0  0  0
 39 40  1  0  0  0
 30 31  1  0  0  0
  8 10  1  0  0  0
M  END
> <minimizedAffinity>
-9.60228

$$$$
