6FBA_D48_A_402


 14 15  0  0  0  0  0  0  0  0999 V2000
   66.7093   61.8737 -125.0090 O   0  0  0  0  0  0  0  0  0  0  0  0
   65.6645   61.0622 -124.6888 C   0  0  0  0  0  0  0  0  0  0  0  0
   65.5496   59.7976 -125.1836 C   0  0  0  0  0  0  0  0  0  0  0  0
   64.4624   58.9743 -124.8030 C   0  0  0  0  0  0  0  0  0  0  0  0
   64.3301   57.6537 -125.2816 C   0  0  0  0  0  0  0  0  0  0  0  0
   63.2946   56.8748 -124.8784 C   0  0  0  0  0  0  0  0  0  0  0  0
   62.3227   57.3812 -123.9982 C   0  0  0  0  0  0  0  0  0  0  0  0
   62.3950   58.6613 -123.5513 C   0  0  0  0  0  0  0  0  0  0  0  0
   63.4721   59.4940 -123.9229 C   0  0  0  0  0  0  0  0  0  0  0  0
   63.6026   60.8219 -123.4390 C   0  0  0  0  0  0  0  0  0  0  0  0
   64.6757   61.5820 -123.8107 C   0  0  0  0  0  0  0  0  0  0  0  0
   64.8982   62.8413 -123.3590 O   0  0  0  0  0  0  0  0  0  0  0  0
   67.3814   61.5668 -125.5852 H   0  0  0  0  0  0  0  0  0  0  0  0
   65.6522   63.3165 -123.6484 H   0  0  0  0  0  0  0  0  0  0  0  0
  6  5  2  0  0  0
  6  7  1  0  0  0
  5  4  1  0  0  0
  7  8  2  0  0  0
  4  3  2  0  0  0
  4  9  1  0  0  0
  8  9  1  0  0  0
  3  2  1  0  0  0
  9 10  2  0  0  0
  2  1  1  0  0  0
  2 11  2  0  0  0
 10 11  1  0  0  0
 11 12  1  0  0  0
  1 13  1  0  0  0
 12 14  1  0  0  0
M  END
> <minimizedAffinity>
-7.68202

$$$$
6FBA_D48_A_402


 14 15  0  0  0  0  0  0  0  0999 V2000
   64.7426   62.9529 -123.3340 O   0  0  0  0  0  0  0  0  0  0  0  0
   64.6298   61.6693 -123.7724 C   0  0  0  0  0  0  0  0  0  0  0  0
   63.5958   60.8635 -123.4000 C   0  0  0  0  0  0  0  0  0  0  0  0
   63.4987   59.5429 -123.9014 C   0  0  0  0  0  0  0  0  0  0  0  0
   62.4276   58.6942 -123.5509 C   0  0  0  0  0  0  0  0  0  0  0  0
   62.3418   57.4427 -124.0685 C   0  0  0  0  0  0  0  0  0  0  0  0
   63.3338   56.9630 -124.9412 C   0  0  0  0  0  0  0  0  0  0  0  0
   64.4010   57.7370 -125.2665 C   0  0  0  0  0  0  0  0  0  0  0  0
   64.5118   59.0547 -124.7736 C   0  0  0  0  0  0  0  0  0  0  0  0
   65.5903   59.9062 -125.1289 C   0  0  0  0  0  0  0  0  0  0  0  0
   65.6420   61.1822 -124.6426 C   0  0  0  0  0  0  0  0  0  0  0  0
   66.6120   62.0727 -124.9680 O   0  0  0  0  0  0  0  0  0  0  0  0
   64.0949   63.3103 -122.7589 H   0  0  0  0  0  0  0  0  0  0  0  0
   66.5969   62.9358 -124.6035 H   0  0  0  0  0  0  0  0  0  0  0  0
  6  5  2  0  0  0
  6  7  1  0  0  0
  5  4  1  0  0  0
  7  8  2  0  0  0
  4  3  2  0  0  0
  4  9  1  0  0  0
  8  9  1  0  0  0
  3  2  1  0  0  0
  9 10  2  0  0  0
  2  1  1  0  0  0
  2 11  2  0  0  0
 10 11  1  0  0  0
 11 12  1  0  0  0
  1 13  1  0  0  0
 12 14  1  0  0  0
M  END
> <minimizedAffinity>
-7.61139

$$$$
6FBA_D48_A_402


 14 15  0  0  0  0  0  0  0  0999 V2000
   65.7288   61.7109 -124.8348 O   0  0  0  0  0  0  0  0  0  0  0  0
   64.9917   60.5790 -124.6670 C   0  0  0  0  0  0  0  0  0  0  0  0
   65.3187   59.4034 -125.2736 C   0  0  0  0  0  0  0  0  0  0  0  0
   64.5425   58.2405 -125.0501 C   0  0  0  0  0  0  0  0  0  0  0  0
   64.8705   57.0048 -125.6468 C   0  0  0  0  0  0  0  0  0  0  0  0
   64.1276   55.8979 -125.3931 C   0  0  0  0  0  0  0  0  0  0  0  0
   63.0033   55.9717 -124.5527 C   0  0  0  0  0  0  0  0  0  0  0  0
   62.6333   57.1534 -123.9956 C   0  0  0  0  0  0  0  0  0  0  0  0
   63.3965   58.3209 -124.2102 C   0  0  0  0  0  0  0  0  0  0  0  0
   63.0641   59.5623 -123.6077 C   0  0  0  0  0  0  0  0  0  0  0  0
   63.8471   60.6602 -123.8288 C   0  0  0  0  0  0  0  0  0  0  0  0
   63.6255   61.8699 -123.2569 O   0  0  0  0  0  0  0  0  0  0  0  0
   66.4907   61.6973 -125.3800 H   0  0  0  0  0  0  0  0  0  0  0  0
   64.1962   62.5888 -123.4453 H   0  0  0  0  0  0  0  0  0  0  0  0
  6  5  2  0  0  0
  6  7  1  0  0  0
  5  4  1  0  0  0
  7  8  2  0  0  0
  4  3  2  0  0  0
  4  9  1  0  0  0
  8  9  1  0  0  0
  3  2  1  0  0  0
  9 10  2  0  0  0
  2  1  1  0  0  0
  2 11  2  0  0  0
 10 11  1  0  0  0
 11 12  1  0  0  0
  1 13  1  0  0  0
 12 14  1  0  0  0
M  END
> <minimizedAffinity>
-7.50910

$$$$
6FBA_D48_A_402


 14 15  0  0  0  0  0  0  0  0999 V2000
   65.4033   63.7957 -122.8958 O   0  0  0  0  0  0  0  0  0  0  0  0
   65.1684   62.5426 -123.3725 C   0  0  0  0  0  0  0  0  0  0  0  0
   64.0788   61.8156 -122.9966 C   0  0  0  0  0  0  0  0  0  0  0  0
   63.8547   60.5265 -123.5378 C   0  0  0  0  0  0  0  0  0  0  0  0
   62.7237   59.7608 -123.1842 C   0  0  0  0  0  0  0  0  0  0  0  0
   62.5164   58.5402 -123.7396 C   0  0  0  0  0  0  0  0  0  0  0  0
   63.4400   58.0083 -124.6561 C   0  0  0  0  0  0  0  0  0  0  0  0
   64.5613   58.6990 -124.9869 C   0  0  0  0  0  0  0  0  0  0  0  0
   64.7986   59.9844 -124.4547 C   0  0  0  0  0  0  0  0  0  0  0  0
   65.9370   60.7523 -124.8131 C   0  0  0  0  0  0  0  0  0  0  0  0
   66.1115   62.0015 -124.2872 C   0  0  0  0  0  0  0  0  0  0  0  0
   67.1461   62.8165 -124.6114 O   0  0  0  0  0  0  0  0  0  0  0  0
   64.8042   64.1868 -122.2908 H   0  0  0  0  0  0  0  0  0  0  0  0
   67.2153   63.6644 -124.2187 H   0  0  0  0  0  0  0  0  0  0  0  0
  6  5  2  0  0  0
  6  7  1  0  0  0
  5  4  1  0  0  0
  7  8  2  0  0  0
  4  3  2  0  0  0
  4  9  1  0  0  0
  8  9  1  0  0  0
  3  2  1  0  0  0
  9 10  2  0  0  0
  2  1  1  0  0  0
  2 11  2  0  0  0
 10 11  1  0  0  0
 11 12  1  0  0  0
  1 13  1  0  0  0
 12 14  1  0  0  0
M  END
> <minimizedAffinity>
-7.47997

$$$$
6FBA_D48_A_402


 14 15  0  0  0  0  0  0  0  0999 V2000
   62.4539   55.5053 -124.6086 O   0  0  0  0  0  0  0  0  0  0  0  0
   63.1282   56.6869 -124.6524 C   0  0  0  0  0  0  0  0  0  0  0  0
   62.6733   57.8059 -124.0214 C   0  0  0  0  0  0  0  0  0  0  0  0
   63.4193   59.0085 -124.0667 C   0  0  0  0  0  0  0  0  0  0  0  0
   62.9842   60.1757 -123.4041 C   0  0  0  0  0  0  0  0  0  0  0  0
   63.7322   61.3073 -123.4384 C   0  0  0  0  0  0  0  0  0  0  0  0
   64.9395   61.3419 -124.1574 C   0  0  0  0  0  0  0  0  0  0  0  0
   65.3675   60.2502 -124.8421 C   0  0  0  0  0  0  0  0  0  0  0  0
   64.6341   59.0450 -124.8070 C   0  0  0  0  0  0  0  0  0  0  0  0
   65.0751   57.8724 -125.4741 C   0  0  0  0  0  0  0  0  0  0  0  0
   64.3407   56.7229 -125.3924 C   0  0  0  0  0  0  0  0  0  0  0  0
   64.7136   55.5497 -125.9616 O   0  0  0  0  0  0  0  0  0  0  0  0
   61.6504   55.4418 -124.1307 H   0  0  0  0  0  0  0  0  0  0  0  0
   64.1695   54.7921 -125.8729 H   0  0  0  0  0  0  0  0  0  0  0  0
  6  5  2  0  0  0
  6  7  1  0  0  0
  5  4  1  0  0  0
  7  8  2  0  0  0
  4  3  2  0  0  0
  4  9  1  0  0  0
  8  9  1  0  0  0
  3  2  1  0  0  0
  9 10  2  0  0  0
  2  1  1  0  0  0
  2 11  2  0  0  0
 10 11  1  0  0  0
 11 12  1  0  0  0
  1 13  1  0  0  0
 12 14  1  0  0  0
M  END
> <minimizedAffinity>
-7.39697

$$$$
6FBA_D48_A_402


 14 15  0  0  0  0  0  0  0  0999 V2000
   64.1200   62.0316 -123.0739 O   0  0  0  0  0  0  0  0  0  0  0  0
   63.8805   60.7631 -123.5055 C   0  0  0  0  0  0  0  0  0  0  0  0
   64.7049   60.1280 -124.3852 C   0  0  0  0  0  0  0  0  0  0  0  0
   64.4367   58.7971 -124.7872 C   0  0  0  0  0  0  0  0  0  0  0  0
   65.2850   58.1072 -125.6788 C   0  0  0  0  0  0  0  0  0  0  0  0
   65.0219   56.8219 -126.0255 C   0  0  0  0  0  0  0  0  0  0  0  0
   63.8846   56.1668 -125.5223 C   0  0  0  0  0  0  0  0  0  0  0  0
   63.0232   56.8140 -124.6959 C   0  0  0  0  0  0  0  0  0  0  0  0
   63.2769   58.1408 -124.2875 C   0  0  0  0  0  0  0  0  0  0  0  0
   62.4219   58.8317 -123.3898 C   0  0  0  0  0  0  0  0  0  0  0  0
   62.7220   60.1087 -123.0068 C   0  0  0  0  0  0  0  0  0  0  0  0
   61.9835   60.8215 -122.1201 O   0  0  0  0  0  0  0  0  0  0  0  0
   64.8739   62.4962 -123.3802 H   0  0  0  0  0  0  0  0  0  0  0  0
   62.2372   61.6947 -121.8942 H   0  0  0  0  0  0  0  0  0  0  0  0
  6  5  2  0  0  0
  6  7  1  0  0  0
  5  4  1  0  0  0
  7  8  2  0  0  0
  4  3  2  0  0  0
  4  9  1  0  0  0
  8  9  1  0  0  0
  3  2  1  0  0  0
  9 10  2  0  0  0
  2  1  1  0  0  0
  2 11  2  0  0  0
 10 11  1  0  0  0
 11 12  1  0  0  0
  1 13  1  0  0  0
 12 14  1  0  0  0
M  END
> <minimizedAffinity>
-7.38473

$$$$
6FBA_D48_A_402


 14 15  0  0  0  0  0  0  0  0999 V2000
   61.9001   60.8245 -122.0792 O   0  0  0  0  0  0  0  0  0  0  0  0
   62.7001   60.1447 -122.9456 C   0  0  0  0  0  0  0  0  0  0  0  0
   62.4153   58.8760 -123.3533 C   0  0  0  0  0  0  0  0  0  0  0  0
   63.2576   58.2136 -124.2788 C   0  0  0  0  0  0  0  0  0  0  0  0
   62.9752   56.9089 -124.7356 C   0  0  0  0  0  0  0  0  0  0  0  0
   63.7824   56.3072 -125.6454 C   0  0  0  0  0  0  0  0  0  0  0  0
   64.9278   56.9647 -126.1266 C   0  0  0  0  0  0  0  0  0  0  0  0
   65.2537   58.2037 -125.6767 C   0  0  0  0  0  0  0  0  0  0  0  0
   64.4244   58.8758 -124.7537 C   0  0  0  0  0  0  0  0  0  0  0  0
   64.7110   60.1886 -124.2967 C   0  0  0  0  0  0  0  0  0  0  0  0
   63.8653   60.8062 -123.4188 C   0  0  0  0  0  0  0  0  0  0  0  0
   64.0420   62.0734 -122.9687 O   0  0  0  0  0  0  0  0  0  0  0  0
   61.1227   60.4219 -121.7451 H   0  0  0  0  0  0  0  0  0  0  0  0
   63.4289   62.4464 -122.3662 H   0  0  0  0  0  0  0  0  0  0  0  0
  6  5  2  0  0  0
  6  7  1  0  0  0
  5  4  1  0  0  0
  7  8  2  0  0  0
  4  3  2  0  0  0
  4  9  1  0  0  0
  8  9  1  0  0  0
  3  2  1  0  0  0
  9 10  2  0  0  0
  2  1  1  0  0  0
  2 11  2  0  0  0
 10 11  1  0  0  0
 11 12  1  0  0  0
  1 13  1  0  0  0
 12 14  1  0  0  0
M  END
> <minimizedAffinity>
-7.34420

$$$$
6FBA_D48_A_402


 14 15  0  0  0  0  0  0  0  0999 V2000
   61.6958   57.9029 -123.3120 O   0  0  0  0  0  0  0  0  0  0  0  0
   62.7205   58.7320 -123.6518 C   0  0  0  0  0  0  0  0  0  0  0  0
   62.8397   59.9877 -123.1360 C   0  0  0  0  0  0  0  0  0  0  0  0
   63.9368   60.8087 -123.4925 C   0  0  0  0  0  0  0  0  0  0  0  0
   64.0978   62.1039 -122.9569 C   0  0  0  0  0  0  0  0  0  0  0  0
   65.1738   62.8597 -123.2918 C   0  0  0  0  0  0  0  0  0  0  0  0
   66.1312   62.3737 -124.1991 C   0  0  0  0  0  0  0  0  0  0  0  0
   65.9859   61.1489 -124.7670 C   0  0  0  0  0  0  0  0  0  0  0  0
   64.8971   60.3199 -124.4222 C   0  0  0  0  0  0  0  0  0  0  0  0
   64.7386   59.0170 -124.9624 C   0  0  0  0  0  0  0  0  0  0  0  0
   63.6786   58.2436 -124.5807 C   0  0  0  0  0  0  0  0  0  0  0  0
   63.4788   56.9741 -125.0141 O   0  0  0  0  0  0  0  0  0  0  0  0
   61.0442   58.1890 -122.7026 H   0  0  0  0  0  0  0  0  0  0  0  0
   62.7330   56.4900 -124.7185 H   0  0  0  0  0  0  0  0  0  0  0  0
  6  5  2  0  0  0
  6  7  1  0  0  0
  5  4  1  0  0  0
  7  8  2  0  0  0
  4  3  2  0  0  0
  4  9  1  0  0  0
  8  9  1  0  0  0
  3  2  1  0  0  0
  9 10  2  0  0  0
  2  1  1  0  0  0
  2 11  2  0  0  0
 10 11  1  0  0  0
 11 12  1  0  0  0
  1 13  1  0  0  0
 12 14  1  0  0  0
M  END
> <minimizedAffinity>
-7.01397

$$$$
6FBA_D48_A_402


 14 15  0  0  0  0  0  0  0  0999 V2000
   67.8586   62.7556 -124.4029 O   0  0  0  0  0  0  0  0  0  0  0  0
   66.6525   62.2938 -123.9731 C   0  0  0  0  0  0  0  0  0  0  0  0
   66.1021   61.1439 -124.4546 C   0  0  0  0  0  0  0  0  0  0  0  0
   64.8585   60.6817 -123.9601 C   0  0  0  0  0  0  0  0  0  0  0  0
   64.2760   59.4833 -124.4238 C   0  0  0  0  0  0  0  0  0  0  0  0
   63.0973   59.0467 -123.9124 C   0  0  0  0  0  0  0  0  0  0  0  0
   62.4250   59.7962 -122.9316 C   0  0  0  0  0  0  0  0  0  0  0  0
   62.9350   60.9758 -122.4930 C   0  0  0  0  0  0  0  0  0  0  0  0
   64.1729   61.4496 -122.9774 C   0  0  0  0  0  0  0  0  0  0  0  0
   64.7565   62.6553 -122.5082 C   0  0  0  0  0  0  0  0  0  0  0  0
   65.9681   63.0613 -122.9924 C   0  0  0  0  0  0  0  0  0  0  0  0
   66.6142   64.1748 -122.5654 O   0  0  0  0  0  0  0  0  0  0  0  0
   68.3402   62.2773 -125.0488 H   0  0  0  0  0  0  0  0  0  0  0  0
   67.4444   64.4050 -122.9338 H   0  0  0  0  0  0  0  0  0  0  0  0
  6  5  2  0  0  0
  6  7  1  0  0  0
  5  4  1  0  0  0
  7  8  2  0  0  0
  4  3  2  0  0  0
  4  9  1  0  0  0
  8  9  1  0  0  0
  3  2  1  0  0  0
  9 10  2  0  0  0
  2  1  1  0  0  0
  2 11  2  0  0  0
 10 11  1  0  0  0
 11 12  1  0  0  0
  1 13  1  0  0  0
 12 14  1  0  0  0
M  END
> <minimizedAffinity>
-6.89730

$$$$
6FBA_D48_A_402


 14 15  0  0  0  0  0  0  0  0999 V2000
   69.4983   63.8820 -122.9134 O   0  0  0  0  0  0  0  0  0  0  0  0
   68.2611   63.3277 -122.7918 C   0  0  0  0  0  0  0  0  0  0  0  0
   67.7416   62.4973 -123.7392 C   0  0  0  0  0  0  0  0  0  0  0  0
   66.4621   61.9175 -123.5616 C   0  0  0  0  0  0  0  0  0  0  0  0
   65.9090   61.0367 -124.5149 C   0  0  0  0  0  0  0  0  0  0  0  0
   64.6932   60.4710 -124.3071 C   0  0  0  0  0  0  0  0  0  0  0  0
   63.9541   60.7751 -123.1507 C   0  0  0  0  0  0  0  0  0  0  0  0
   64.4367   61.6516 -122.2327 C   0  0  0  0  0  0  0  0  0  0  0  0
   65.7098   62.2381 -122.3968 C   0  0  0  0  0  0  0  0  0  0  0  0
   66.2637   63.1232 -121.4355 C   0  0  0  0  0  0  0  0  0  0  0  0
   67.5101   63.6488 -121.6290 C   0  0  0  0  0  0  0  0  0  0  0  0
   68.1289   64.4649 -120.7399 O   0  0  0  0  0  0  0  0  0  0  0  0
   70.0239   63.6943 -123.6660 H   0  0  0  0  0  0  0  0  0  0  0  0
   68.9855   64.7964 -120.9256 H   0  0  0  0  0  0  0  0  0  0  0  0
  6  5  2  0  0  0
  6  7  1  0  0  0
  5  4  1  0  0  0
  7  8  2  0  0  0
  4  3  2  0  0  0
  4  9  1  0  0  0
  8  9  1  0  0  0
  3  2  1  0  0  0
  9 10  2  0  0  0
  2  1  1  0  0  0
  2 11  2  0  0  0
 10 11  1  0  0  0
 11 12  1  0  0  0
  1 13  1  0  0  0
 12 14  1  0  0  0
M  END
> <minimizedAffinity>
-6.83364

$$$$
