3SU4_SU3_A_1


 56 61  0  0  0  0  0  0  0  0999 V2000
   39.8109   -1.3045    4.9234 N   0  0  0  0  0  0  0  0  0  0  0  0
   39.0889   -0.0433    4.6446 C   0  0  0  0  0  0  0  0  0  0  0  0
   40.1151    0.8684    3.9866 C   0  0  0  0  0  0  0  0  0  0  0  0
   41.4202    0.4153    4.6135 C   0  0  0  0  0  0  0  0  0  0  0  0
   39.3170   -2.4851    5.3466 C   0  0  0  0  0  0  0  0  0  0  0  0
   38.1002   -2.5389    5.5678 O   0  0  0  0  0  0  0  0  0  0  0  0
   40.1907   -3.7328    5.6140 C   0  0  0  0  0  0  0  0  0  0  0  0
   39.7707   -4.3006    6.9016 N   0  0  0  0  0  0  0  0  0  0  0  0
   40.4186   -4.0639    8.0316 C   0  0  0  0  0  0  0  0  0  0  0  0
   39.8996   -4.6655    9.1380 O   0  0  0  0  0  0  0  0  0  0  0  0
   41.4345   -3.3661    8.1027 O   0  0  0  0  0  0  0  0  0  0  0  0
   41.8949    2.0457    6.2196 C   0  0  0  0  0  0  0  0  0  0  0  0
   42.2227    2.8267    5.3282 O   0  0  0  0  0  0  0  0  0  0  0  0
   41.9078    2.5127    7.4364 N   0  0  0  0  0  0  0  0  0  0  0  0
   42.2457    3.8691    7.9012 C   0  0  0  0  0  0  0  0  0  0  0  0
   42.0701    3.8345    9.3947 C   0  0  0  0  0  0  0  0  0  0  0  0
   41.6870    2.5476    9.7738 C   0  0  0  0  0  0  0  0  0  0  0  0
   41.5706    1.6402    8.5550 C   0  0  0  0  0  0  0  0  0  0  0  0
   42.2261    4.8302   10.3537 C   0  0  0  0  0  0  0  0  0  0  0  0
   41.9834    4.5185   11.6759 C   0  0  0  0  0  0  0  0  0  0  0  0
   41.6079    3.2235   12.0576 C   0  0  0  0  0  0  0  0  0  0  0  0
   41.4448    2.2253   11.1027 C   0  0  0  0  0  0  0  0  0  0  0  0
   41.0547    0.8432   11.5880 C   0  0  0  0  0  0  0  0  0  0  0  0
   39.6291    0.4173   11.2427 C   0  0  0  0  0  0  0  0  0  0  0  0
   39.3624   -0.9935   11.7772 C   0  0  0  0  0  0  0  0  0  0  0  0
   39.8887   -2.0787   10.8120 C   0  0  0  0  0  0  0  0  0  0  0  0
   39.7271   -3.5178   11.3434 C   0  0  0  0  0  0  0  0  0  0  0  0
   40.5299   -4.3951   10.4089 C   0  0  0  0  0  0  0  0  0  0  0  0
   40.3551   -3.6685   12.7385 C   0  0  0  0  0  0  0  0  0  0  0  0
   38.2336   -3.9440   11.3772 C   0  0  0  0  0  0  0  0  0  0  0  0
   41.2367   -1.0870    4.6427 C   0  0  0  0  0  0  0  0  0  0  0  0
   41.5380    0.7487    5.9993 O   0  0  0  0  0  0  0  0  0  0  0  0
   38.9755   -4.8805    6.9254 H   0  0  0  0  0  0  0  0  0  0  0  0
   37.9180   -0.3872    3.7225 C   0  0  0  0  0  0  0  0  0  0  0  0
   38.1024   -0.9522    2.6469 O   0  0  0  0  0  0  0  0  0  0  0  0
   36.7066   -0.0928    4.1998 N   0  0  0  0  0  0  0  0  0  0  0  0
   36.6337    0.3907    5.0543 H   0  0  0  0  0  0  0  0  0  0  0  0
   35.4822   -0.4688    3.4877 C   0  0  0  0  0  0  0  0  0  0  0  0
   35.2131   -1.9719    3.4399 C   0  0  0  0  0  0  0  0  0  0  0  0
   34.3669   -1.0674    4.3355 C   0  0  0  0  0  0  0  0  0  0  0  0
   35.0694    0.4330    2.3079 C   0  0  0  0  0  0  0  0  0  0  0  0
   35.9962    1.2760    1.8551 N   0  0  0  0  0  0  0  0  0  0  0  0
   33.9259    0.3695    1.8501 O   0  0  0  0  0  0  0  0  0  0  0  0
   36.8981    1.3204    2.2472 H   0  0  0  0  0  0  0  0  0  0  0  0
   35.5460    2.2287    0.6133 S   0  0  0  0  0  0  0  0  0  0  0  0
   35.6086    1.4823   -0.6772 O   0  0  0  0  0  0  0  0  0  0  0  0
   34.1871    2.8092    0.8249 O   0  0  0  0  0  0  0  0  0  0  0  0
   36.7369    3.5906    0.5795 C   0  0  0  0  0  0  0  0  0  0  0  0
   36.3918    4.6890   -0.4015 C   0  0  0  0  0  0  0  0  0  0  0  0
   36.1395    4.8933    1.1018 C   0  0  0  0  0  0  0  0  0  0  0  0
   34.4824   -2.5418    2.2250 C   0  0  0  0  0  0  0  0  0  0  0  0
   34.4835   -4.0705    2.2316 C   0  0  0  0  0  0  0  0  0  0  0  0
   40.0546   -4.7892    4.4847 C   0  0  0  0  0  0  0  0  0  0  0  0
   40.9343   -4.4205    3.2890 C   0  0  0  0  0  0  0  0  0  0  0  0
   40.4847   -6.1620    5.0314 C   0  0  0  0  0  0  0  0  0  0  0  0
   38.6315   -4.8699    3.9850 C   0  0  0  0  0  0  0  0  0  0  0  0
 34 36  1  0  0  0
  1  5  1  0  0  0
  1  2  1  0  0  0
 35 34  2  0  0  0
  2 34  1  0  0  0
  3  2  1  0  0  0
  4  3  1  0  0  0
  4 32  1  0  0  0
  5  6  2  0  0  0
  7  5  1  0  0  0
  7  8  1  0  0  0
  8  9  1  0  0  0
  9 10  1  0  0  0
 10 28  1  0  0  0
 53  7  1  0  0  0
 53 55  1  0  0  0
 11  9  2  0  0  0
 12 14  1  0  0  0
 13 12  2  0  0  0
 14 15  1  0  0  0
 14 18  1  0  0  0
 51 39  1  0  0  0
 52 51  1  0  0  0
 54 53  1  0  0  0
 36 38  1  0  0  0
 38 39  1  0  0  0
 38 40  1  0  0  0
 41 38  1  0  0  0
 41 43  2  0  0  0
 39 40  1  0  0  0
 15 16  1  0  0  0
 16 17  2  0  0  0
 16 19  1  0  0  0
 17 22  1  0  0  0
 18 17  1  0  0  0
 19 20  2  0  0  0
 20 21  1  0  0  0
 22 21  2  0  0  0
 22 23  1  0  0  0
 23 24  1  0  0  0
 42 41  1  0  0  0
 45 42  1  0  0  0
 45 47  2  0  0  0
 48 45  1  0  0  0
 48 50  1  0  0  0
 46 45  2  0  0  0
 49 48  1  0  0  0
 49 50  1  0  0  0
 24 25  1  0  0  0
 26 25  1  0  0  0
 27 26  1  0  0  0
 27 29  1  0  0  0
 27 30  1  0  0  0
 28 27  1  0  0  0
 56 53  1  0  0  0
 31  1  1  0  0  0
 31  4  1  0  0  0
 32 12  1  0  0  0
  8 33  1  0  0  0
 36 37  1  0  0  0
 42 44  1  0  0  0
M  END
> <minimizedAffinity>
-12.15906

$$$$
3SU4_SU3_A_1


 56 61  0  0  0  0  0  0  0  0999 V2000
   40.0336   -1.1805    5.0302 N   0  0  0  0  0  0  0  0  0  0  0  0
   39.2832    0.0789    4.8291 C   0  0  0  0  0  0  0  0  0  0  0  0
   40.3075    1.0759    4.3055 C   0  0  0  0  0  0  0  0  0  0  0  0
   41.5967    0.6069    4.9531 C   0  0  0  0  0  0  0  0  0  0  0  0
   39.5608   -2.4084    5.3226 C   0  0  0  0  0  0  0  0  0  0  0  0
   38.3376   -2.5177    5.4783 O   0  0  0  0  0  0  0  0  0  0  0  0
   40.4627   -3.6488    5.5212 C   0  0  0  0  0  0  0  0  0  0  0  0
   40.0030   -4.3423    6.7314 N   0  0  0  0  0  0  0  0  0  0  0  0
   40.5896   -4.1892    7.9083 C   0  0  0  0  0  0  0  0  0  0  0  0
   40.0405   -4.9030    8.9303 O   0  0  0  0  0  0  0  0  0  0  0  0
   41.5770   -3.4710    8.0906 O   0  0  0  0  0  0  0  0  0  0  0  0
   41.9413    2.0994    6.7184 C   0  0  0  0  0  0  0  0  0  0  0  0
   42.2835    2.9668    5.9168 O   0  0  0  0  0  0  0  0  0  0  0  0
   41.8821    2.4553    7.9710 N   0  0  0  0  0  0  0  0  0  0  0  0
   42.1523    3.7737    8.5699 C   0  0  0  0  0  0  0  0  0  0  0  0
   41.9091    3.5997   10.0441 C   0  0  0  0  0  0  0  0  0  0  0  0
   41.5524    2.2732   10.2886 C   0  0  0  0  0  0  0  0  0  0  0  0
   41.5232    1.4761    8.9901 C   0  0  0  0  0  0  0  0  0  0  0  0
   41.9869    4.5092   11.0939 C   0  0  0  0  0  0  0  0  0  0  0  0
   41.6939    4.0729   12.3698 C   0  0  0  0  0  0  0  0  0  0  0  0
   41.3451    2.7383   12.6166 C   0  0  0  0  0  0  0  0  0  0  0  0
   41.2600    1.8257   11.5703 C   0  0  0  0  0  0  0  0  0  0  0  0
   40.8947    0.3946   11.9117 C   0  0  0  0  0  0  0  0  0  0  0  0
   39.5018   -0.0402   11.4605 C   0  0  0  0  0  0  0  0  0  0  0  0
   39.2584   -1.5006   11.8544 C   0  0  0  0  0  0  0  0  0  0  0  0
   39.8650   -2.4787   10.8240 C   0  0  0  0  0  0  0  0  0  0  0  0
   39.7276   -3.9639   11.2175 C   0  0  0  0  0  0  0  0  0  0  0  0
   40.6019   -4.7295   10.2496 C   0  0  0  0  0  0  0  0  0  0  0  0
   40.2951   -4.2210   12.6229 C   0  0  0  0  0  0  0  0  0  0  0  0
   38.2493   -4.4352   11.1401 C   0  0  0  0  0  0  0  0  0  0  0  0
   41.4627   -0.8967    4.8402 C   0  0  0  0  0  0  0  0  0  0  0  0
   41.6390    0.8176    6.3671 O   0  0  0  0  0  0  0  0  0  0  0  0
   39.2276   -4.9452    6.6648 H   0  0  0  0  0  0  0  0  0  0  0  0
   38.1684   -0.2150    3.8238 C   0  0  0  0  0  0  0  0  0  0  0  0
   38.4135   -0.7413    2.7407 O   0  0  0  0  0  0  0  0  0  0  0  0
   36.9328    0.0765    4.2363 N   0  0  0  0  0  0  0  0  0  0  0  0
   36.8118    0.5282    5.1026 H   0  0  0  0  0  0  0  0  0  0  0  0
   35.7513   -0.2567    3.4360 C   0  0  0  0  0  0  0  0  0  0  0  0
   35.3601   -1.7331    3.4678 C   0  0  0  0  0  0  0  0  0  0  0  0
   34.5157   -0.6978    4.2104 C   0  0  0  0  0  0  0  0  0  0  0  0
   35.5272    0.5798    2.1609 C   0  0  0  0  0  0  0  0  0  0  0  0
   36.6167    1.0903    1.5892 N   0  0  0  0  0  0  0  0  0  0  0  0
   34.3847    0.7679    1.7362 O   0  0  0  0  0  0  0  0  0  0  0  0
   37.5180    0.9401    1.9557 H   0  0  0  0  0  0  0  0  0  0  0  0
   36.3666    1.9783    0.2470 S   0  0  0  0  0  0  0  0  0  0  0  0
   35.5766    1.2088   -0.7580 O   0  0  0  0  0  0  0  0  0  0  0  0
   35.7044    3.2792    0.5591 O   0  0  0  0  0  0  0  0  0  0  0  0
   38.0097    2.3335   -0.4226 C   0  0  0  0  0  0  0  0  0  0  0  0
   39.1395    2.0985    0.5553 C   0  0  0  0  0  0  0  0  0  0  0  0
   38.8619    1.0759   -0.5594 C   0  0  0  0  0  0  0  0  0  0  0  0
   34.6979   -2.3372    2.2302 C   0  0  0  0  0  0  0  0  0  0  0  0
   34.1360   -3.7303    2.5139 C   0  0  0  0  0  0  0  0  0  0  0  0
   40.4147   -4.6029    4.2976 C   0  0  0  0  0  0  0  0  0  0  0  0
   41.7131   -5.4033    4.1833 C   0  0  0  0  0  0  0  0  0  0  0  0
   39.2306   -5.5714    4.4663 C   0  0  0  0  0  0  0  0  0  0  0  0
   40.2520   -3.8285    3.0109 C   0  0  0  0  0  0  0  0  0  0  0  0
 34 36  1  0  0  0
  1  5  1  0  0  0
  1  2  1  0  0  0
 35 34  2  0  0  0
  2 34  1  0  0  0
  3  2  1  0  0  0
  4  3  1  0  0  0
  4 32  1  0  0  0
  5  6  2  0  0  0
  7  5  1  0  0  0
  7  8  1  0  0  0
  8  9  1  0  0  0
  9 10  1  0  0  0
 10 28  1  0  0  0
 53  7  1  0  0  0
 53 55  1  0  0  0
 11  9  2  0  0  0
 12 14  1  0  0  0
 13 12  2  0  0  0
 14 15  1  0  0  0
 14 18  1  0  0  0
 51 39  1  0  0  0
 52 51  1  0  0  0
 54 53  1  0  0  0
 36 38  1  0  0  0
 38 39  1  0  0  0
 38 40  1  0  0  0
 41 38  1  0  0  0
 41 43  2  0  0  0
 39 40  1  0  0  0
 15 16  1  0  0  0
 16 17  2  0  0  0
 16 19  1  0  0  0
 17 22  1  0  0  0
 18 17  1  0  0  0
 19 20  2  0  0  0
 20 21  1  0  0  0
 22 21  2  0  0  0
 22 23  1  0  0  0
 23 24  1  0  0  0
 42 41  1  0  0  0
 45 42  1  0  0  0
 45 47  2  0  0  0
 48 45  1  0  0  0
 48 50  1  0  0  0
 46 45  2  0  0  0
 49 48  1  0  0  0
 49 50  1  0  0  0
 24 25  1  0  0  0
 26 25  1  0  0  0
 27 26  1  0  0  0
 27 29  1  0  0  0
 27 30  1  0  0  0
 28 27  1  0  0  0
 56 53  1  0  0  0
 31  1  1  0  0  0
 31  4  1  0  0  0
 32 12  1  0  0  0
  8 33  1  0  0  0
 36 37  1  0  0  0
 42 44  1  0  0  0
M  END
> <minimizedAffinity>
-10.81054

$$$$
3SU4_SU3_A_1


 56 61  0  0  0  0  0  0  0  0999 V2000
   39.8672   -1.4269    4.9992 N   0  0  0  0  0  0  0  0  0  0  0  0
   39.1017   -0.1849    4.7514 C   0  0  0  0  0  0  0  0  0  0  0  0
   40.1010    0.7853    4.1371 C   0  0  0  0  0  0  0  0  0  0  0  0
   41.4144    0.3609    4.7667 C   0  0  0  0  0  0  0  0  0  0  0  0
   39.4129   -2.6382    5.3774 C   0  0  0  0  0  0  0  0  0  0  0  0
   38.1964   -2.7445    5.5803 O   0  0  0  0  0  0  0  0  0  0  0  0
   40.3296   -3.8606    5.6163 C   0  0  0  0  0  0  0  0  0  0  0  0
   39.9154   -4.4854    6.8792 N   0  0  0  0  0  0  0  0  0  0  0  0
   40.5399   -4.2618    8.0249 C   0  0  0  0  0  0  0  0  0  0  0  0
   40.0302   -4.9182    9.1042 O   0  0  0  0  0  0  0  0  0  0  0  0
   41.5278   -3.5294    8.1322 O   0  0  0  0  0  0  0  0  0  0  0  0
   41.8074    1.9544    6.4308 C   0  0  0  0  0  0  0  0  0  0  0  0
   42.1165    2.7759    5.5695 O   0  0  0  0  0  0  0  0  0  0  0  0
   41.7876    2.3816    7.6621 N   0  0  0  0  0  0  0  0  0  0  0  0
   42.0684    3.7337    8.1748 C   0  0  0  0  0  0  0  0  0  0  0  0
   41.8758    3.6438    9.6640 C   0  0  0  0  0  0  0  0  0  0  0  0
   41.5368    2.3318    9.9962 C   0  0  0  0  0  0  0  0  0  0  0  0
   41.4697    1.4610    8.7473 C   0  0  0  0  0  0  0  0  0  0  0  0
   41.9824    4.6127   10.6565 C   0  0  0  0  0  0  0  0  0  0  0  0
   41.7352    4.2492   11.9646 C   0  0  0  0  0  0  0  0  0  0  0  0
   41.4040    2.9293   12.2992 C   0  0  0  0  0  0  0  0  0  0  0  0
   41.2904    1.9575   11.3106 C   0  0  0  0  0  0  0  0  0  0  0  0
   40.9467    0.5466   11.7458 C   0  0  0  0  0  0  0  0  0  0  0  0
   39.5425    0.0795   11.3676 C   0  0  0  0  0  0  0  0  0  0  0  0
   39.3226   -1.3569   11.8527 C   0  0  0  0  0  0  0  0  0  0  0  0
   39.9012   -2.3897   10.8604 C   0  0  0  0  0  0  0  0  0  0  0  0
   39.7873   -3.8504   11.3429 C   0  0  0  0  0  0  0  0  0  0  0  0
   40.6341   -4.6662   10.3916 C   0  0  0  0  0  0  0  0  0  0  0  0
   40.4033   -4.0232   12.7408 C   0  0  0  0  0  0  0  0  0  0  0  0
   38.3106   -4.3328   11.3427 C   0  0  0  0  0  0  0  0  0  0  0  0
   41.2871   -1.1473    4.7450 C   0  0  0  0  0  0  0  0  0  0  0  0
   41.5024    0.6530    6.1640 O   0  0  0  0  0  0  0  0  0  0  0  0
   39.1424   -5.0950    6.8735 H   0  0  0  0  0  0  0  0  0  0  0  0
   37.9561   -0.5419    3.8029 C   0  0  0  0  0  0  0  0  0  0  0  0
   36.8203   -0.1115    3.9898 O   0  0  0  0  0  0  0  0  0  0  0  0
   38.2963   -1.2834    2.7463 N   0  0  0  0  0  0  0  0  0  0  0  0
   39.2179   -1.6225    2.6767 H   0  0  0  0  0  0  0  0  0  0  0  0
   37.3367   -1.6069    1.6870 C   0  0  0  0  0  0  0  0  0  0  0  0
   37.5190   -2.9917    1.0681 C   0  0  0  0  0  0  0  0  0  0  0  0
   36.3381   -2.7146    1.9981 C   0  0  0  0  0  0  0  0  0  0  0  0
   36.8425   -0.4288    0.8248 C   0  0  0  0  0  0  0  0  0  0  0  0
   37.7811    0.2878    0.2083 N   0  0  0  0  0  0  0  0  0  0  0  0
   35.6374   -0.1759    0.7537 O   0  0  0  0  0  0  0  0  0  0  0  0
   38.7390    0.0767    0.2927 H   0  0  0  0  0  0  0  0  0  0  0  0
   37.2471    1.5343   -0.6938 S   0  0  0  0  0  0  0  0  0  0  0  0
   38.2505    1.9034   -1.7347 O   0  0  0  0  0  0  0  0  0  0  0  0
   35.9219    1.2407   -1.3149 O   0  0  0  0  0  0  0  0  0  0  0  0
   37.0330    2.9172    0.4534 C   0  0  0  0  0  0  0  0  0  0  0  0
   36.5682    4.1982   -0.2029 C   0  0  0  0  0  0  0  0  0  0  0  0
   35.5721    3.3343    0.5889 C   0  0  0  0  0  0  0  0  0  0  0  0
   37.1501   -3.1859   -0.4020 C   0  0  0  0  0  0  0  0  0  0  0  0
   38.3404   -3.6845   -1.2215 C   0  0  0  0  0  0  0  0  0  0  0  0
   40.2474   -4.8839    4.4519 C   0  0  0  0  0  0  0  0  0  0  0  0
   41.0252   -4.3825    3.2340 C   0  0  0  0  0  0  0  0  0  0  0  0
   40.8419   -6.2233    4.9220 C   0  0  0  0  0  0  0  0  0  0  0  0
   38.8172   -5.0942    4.0136 C   0  0  0  0  0  0  0  0  0  0  0  0
 34 36  1  0  0  0
  1  5  1  0  0  0
  1  2  1  0  0  0
 35 34  2  0  0  0
  2 34  1  0  0  0
  3  2  1  0  0  0
  4  3  1  0  0  0
  4 32  1  0  0  0
  5  6  2  0  0  0
  7  5  1  0  0  0
  7  8  1  0  0  0
  8  9  1  0  0  0
  9 10  1  0  0  0
 10 28  1  0  0  0
 53  7  1  0  0  0
 53 55  1  0  0  0
 11  9  2  0  0  0
 12 14  1  0  0  0
 13 12  2  0  0  0
 14 15  1  0  0  0
 14 18  1  0  0  0
 51 39  1  0  0  0
 52 51  1  0  0  0
 54 53  1  0  0  0
 36 38  1  0  0  0
 38 39  1  0  0  0
 38 40  1  0  0  0
 41 38  1  0  0  0
 41 43  2  0  0  0
 39 40  1  0  0  0
 15 16  1  0  0  0
 16 17  2  0  0  0
 16 19  1  0  0  0
 17 22  1  0  0  0
 18 17  1  0  0  0
 19 20  2  0  0  0
 20 21  1  0  0  0
 22 21  2  0  0  0
 22 23  1  0  0  0
 23 24  1  0  0  0
 42 41  1  0  0  0
 45 42  1  0  0  0
 45 47  2  0  0  0
 48 45  1  0  0  0
 48 50  1  0  0  0
 46 45  2  0  0  0
 49 48  1  0  0  0
 49 50  1  0  0  0
 24 25  1  0  0  0
 26 25  1  0  0  0
 27 26  1  0  0  0
 27 29  1  0  0  0
 27 30  1  0  0  0
 28 27  1  0  0  0
 56 53  1  0  0  0
 31  1  1  0  0  0
 31  4  1  0  0  0
 32 12  1  0  0  0
  8 33  1  0  0  0
 36 37  1  0  0  0
 42 44  1  0  0  0
M  END
> <minimizedAffinity>
-9.87771

$$$$
