5M23_7DC_A_401


 64 65  0  0  0  0  0  0  0  0999 V2000
   -7.4616   28.6489    3.2627 N   0  0  0  0  0  0  0  0  0  0  0  0
   -6.5133   28.2019    4.2209 C   0  0  0  0  0  0  0  0  0  0  0  0
   -6.1648   28.8750    5.1755 O   0  0  0  0  0  0  0  0  0  0  0  0
   -7.7137   28.0595    2.5156 H   0  0  0  0  0  0  0  0  0  0  0  0
   -8.0698   29.9799    3.3743 C   0  0  0  0  0  0  0  0  0  0  0  0
   -8.0635   30.7994    2.1272 C   0  0  0  0  0  0  0  0  0  0  0  0
  -10.5110   29.2861    3.3103 N   0  0  0  0  0  0  0  0  0  0  0  0
   -9.4084   29.9070    4.0161 C   0  0  0  0  0  0  0  0  0  0  0  0
   -9.5536   30.3189    5.1357 O   0  0  0  0  0  0  0  0  0  0  0  0
  -10.3939   28.9339    2.3984 H   0  0  0  0  0  0  0  0  0  0  0  0
  -11.7696   29.1995    3.9727 C   0  0  0  0  0  0  0  0  0  0  0  0
  -12.3588   25.4866    6.1622 C   0  0  0  0  0  0  0  0  0  0  0  0
  -11.6185   25.4677    4.9790 C   0  0  0  0  0  0  0  0  0  0  0  0
  -11.4289   26.6415    4.2608 C   0  0  0  0  0  0  0  0  0  0  0  0
  -12.8731   26.6998    6.6211 C   0  0  0  0  0  0  0  0  0  0  0  0
  -12.6749   27.8788    5.9067 C   0  0  0  0  0  0  0  0  0  0  0  0
  -11.9617   27.8751    4.7241 C   0  0  0  0  0  0  0  0  0  0  0  0
  -13.8860   23.7348    7.0614 N   0  0  0  0  0  0  0  0  0  0  0  0
  -12.5874   24.2749    6.9409 N   0  0  0  0  0  0  0  0  0  0  0  0
  -14.7400   20.1000    9.1418 C   0  0  0  0  0  0  0  0  0  0  0  0
  -13.6279   20.8668    9.4926 C   0  0  0  0  0  0  0  0  0  0  0  0
  -13.3470   22.0780    8.7916 C   0  0  0  0  0  0  0  0  0  0  0  0
  -15.5876   20.5392    8.1032 C   0  0  0  0  0  0  0  0  0  0  0  0
  -15.3106   21.7278    7.4276 C   0  0  0  0  0  0  0  0  0  0  0  0
  -14.1741   22.5062    7.7766 C   0  0  0  0  0  0  0  0  0  0  0  0
  -14.1594   18.2749   10.9770 N   0  0  0  0  0  0  0  0  0  0  0  0
  -15.0893   18.7408    9.9230 C   0  0  0  0  0  0  0  0  0  0  0  0
  -16.1063   18.0896    9.6162 O   0  0  0  0  0  0  0  0  0  0  0  0
  -13.3685   18.8222   11.1874 H   0  0  0  0  0  0  0  0  0  0  0  0
  -14.3651   17.0759   11.6907 C   0  0  0  0  0  0  0  0  0  0  0  0
  -12.9956   16.3955   11.8412 C   0  0  0  0  0  0  0  0  0  0  0  0
  -12.6782   15.4956   10.6337 C   0  0  0  0  0  0  0  0  0  0  0  0
  -11.8974   17.3731   12.0829 C   0  0  0  0  0  0  0  0  0  0  0  0
  -14.9755   17.3601   13.0733 C   0  0  0  0  0  0  0  0  0  0  0  0
  -16.1651   17.0973   13.2548 O   0  0  0  0  0  0  0  0  0  0  0  0
   -5.8718   26.8196    4.0508 C   0  0  0  0  0  0  0  0  0  0  0  0
   -5.9507   26.0578    5.2382 N   0  0  0  0  0  0  0  0  0  0  0  0
   -4.8162   25.2874    5.6827 C   0  0  0  0  0  0  0  0  0  0  0  0
   -3.8104   25.2924    5.0393 O   0  0  0  0  0  0  0  0  0  0  0  0
   -6.7831   26.0531    5.7637 H   0  0  0  0  0  0  0  0  0  0  0  0
   -4.9209   24.4876    6.9021 C   0  0  0  0  0  0  0  0  0  0  0  0
   -4.1996   23.1337    6.7293 C   0  0  0  0  0  0  0  0  0  0  0  0
   -6.3238   24.1470    7.1243 N   0  0  0  0  0  0  0  0  0  0  0  0
   -7.0018   24.5496    8.3844 C   0  0  0  0  0  0  0  0  0  0  0  0
   -6.3734   25.1768    9.2273 O   0  0  0  0  0  0  0  0  0  0  0  0
   -6.8223   23.6488    6.4368 H   0  0  0  0  0  0  0  0  0  0  0  0
   -8.5497   24.1669    8.6188 C   0  0  0  0  0  0  0  0  0  0  0  0
   -8.7065   23.9856   10.0240 N   0  0  0  0  0  0  0  0  0  0  0  0
   -8.3982   24.8266   10.5119 H   0  0  0  0  0  0  0  0  0  0  0  0
   -8.1451   23.1905   10.3291 H   0  0  0  0  0  0  0  0  0  0  0  0
   -9.3190   25.3617    8.1726 C   0  0  0  0  0  0  0  0  0  0  0  0
   -8.6037   25.9132    7.0153 O   0  0  0  0  0  0  0  0  0  0  0  0
   -8.5456   25.2394    6.3200 H   0  0  0  0  0  0  0  0  0  0  0  0
   -6.6626   26.0951    2.9564 C   0  0  0  0  0  0  0  0  0  0  0  0
   -7.7775   25.1916    3.5535 C   0  0  0  0  0  0  0  0  0  0  0  0
   -8.7646   24.6629    2.5019 C   0  0  0  0  0  0  0  0  0  0  0  0
   -8.4954   25.1510    1.1425 N   0  0  0  0  0  0  0  0  0  0  0  0
   -7.7542   24.7525    0.6316 H   0  0  0  0  0  0  0  0  0  0  0  0
   -9.2967   26.2152    0.5201 C   0  0  0  0  0  0  0  0  0  0  0  0
   -9.6834   25.9983   -0.7535 N   0  0  0  0  0  0  0  0  0  0  0  0
   -9.6266   27.3819    1.2118 N   0  0  0  0  0  0  0  0  0  0  0  0
  -10.2222   26.6732   -1.2261 H   0  0  0  0  0  0  0  0  0  0  0  0
   -9.4270   25.1649   -1.2106 H   0  0  0  0  0  0  0  0  0  0  0  0
  -10.1645   28.0794    0.7722 H   0  0  0  0  0  0  0  0  0  0  0  0
 61 59  2  0  0  0
 59 60  1  0  0  0
 59 57  1  0  0  0
 57 56  1  0  0  0
 56 55  1  0  0  0
 55 54  1  0  0  0
 54 36  1  0  0  0
 52 51  1  0  0  0
 51 47  1  0  0  0
 36 37  1  0  0  0
 36  2  1  0  0  0
 37 38  1  0  0  0
 47 48  1  0  0  0
 47 44  1  0  0  0
  2  3  2  0  0  0
  2  1  1  0  0  0
  1  5  1  0  0  0
  6  5  1  0  0  0
 43 44  1  0  0  0
 43 41  1  0  0  0
  5  8  1  0  0  0
 44 45  2  0  0  0
 38 41  1  0  0  0
 38 39  2  0  0  0
 42 41  1  0  0  0
  8  9  2  0  0  0
  8  7  1  0  0  0
  7 11  1  0  0  0
 14 13  2  0  0  0
 14 17  1  0  0  0
 13 12  1  0  0  0
 11 17  1  0  0  0
 17 16  2  0  0  0
 12 19  1  0  0  0
 12 15  2  0  0  0
 19 18  2  0  0  0
 16 15  1  0  0  0
 22 21  2  0  0  0
 22 25  1  0  0  0
 21 20  1  0  0  0
 18 25  1  0  0  0
 25 24  2  0  0  0
 28 27  2  0  0  0
 20 27  1  0  0  0
 20 23  2  0  0  0
 27 26  1  0  0  0
 24 23  1  0  0  0
 26 30  1  0  0  0
 30 34  1  0  0  0
 30 31  1  0  0  0
 32 31  1  0  0  0
 34 35  2  0  0  0
 31 33  1  0  0  0
 26 29  1  0  0  0
  7 10  1  0  0  0
  1  4  1  0  0  0
 57 58  1  0  0  0
 60 62  1  0  0  0
 60 63  1  0  0  0
 61 64  1  0  0  0
 37 40  1  0  0  0
 43 46  1  0  0  0
 48 49  1  0  0  0
 48 50  1  0  0  0
 52 53  1  0  0  0
M  END
> <minimizedAffinity>
-6.80491

$$$$
5M23_7DC_A_401


 64 65  0  0  0  0  0  0  0  0999 V2000
   -7.4624   28.8940    2.9914 N   0  0  0  0  0  0  0  0  0  0  0  0
   -6.5881   28.3000    3.9401 C   0  0  0  0  0  0  0  0  0  0  0  0
   -6.2872   28.8350    4.9931 O   0  0  0  0  0  0  0  0  0  0  0  0
   -7.6787   28.4125    2.1604 H   0  0  0  0  0  0  0  0  0  0  0  0
   -8.0468   30.2177    3.2363 C   0  0  0  0  0  0  0  0  0  0  0  0
   -8.1499   31.1088    2.0437 C   0  0  0  0  0  0  0  0  0  0  0  0
  -10.5216   29.6588    3.3230 N   0  0  0  0  0  0  0  0  0  0  0  0
   -9.3202   30.1110    3.9951 C   0  0  0  0  0  0  0  0  0  0  0  0
   -9.3324   30.3528    5.1723 O   0  0  0  0  0  0  0  0  0  0  0  0
  -10.5138   29.4454    2.3620 H   0  0  0  0  0  0  0  0  0  0  0  0
  -11.7145   29.5315    4.0918 C   0  0  0  0  0  0  0  0  0  0  0  0
  -12.3974   25.5301    5.6569 C   0  0  0  0  0  0  0  0  0  0  0  0
  -11.4939   25.7043    4.6073 C   0  0  0  0  0  0  0  0  0  0  0  0
  -11.2710   26.9730    4.0875 C   0  0  0  0  0  0  0  0  0  0  0  0
  -13.0423   26.6472    6.1890 C   0  0  0  0  0  0  0  0  0  0  0  0
  -12.8117   27.9210    5.6750 C   0  0  0  0  0  0  0  0  0  0  0  0
  -11.9359   28.1090    4.6238 C   0  0  0  0  0  0  0  0  0  0  0  0
  -13.4938   24.0784    7.3600 N   0  0  0  0  0  0  0  0  0  0  0  0
  -12.6654   24.2140    6.2250 N   0  0  0  0  0  0  0  0  0  0  0  0
  -14.5133   20.3126    9.1059 C   0  0  0  0  0  0  0  0  0  0  0  0
  -15.3439   20.8902    8.1444 C   0  0  0  0  0  0  0  0  0  0  0  0
  -14.9988   22.1494    7.5677 C   0  0  0  0  0  0  0  0  0  0  0  0
  -13.3283   20.9749    9.4891 C   0  0  0  0  0  0  0  0  0  0  0  0
  -12.9940   22.2019    8.9157 C   0  0  0  0  0  0  0  0  0  0  0  0
  -13.8421   22.7967    7.9429 C   0  0  0  0  0  0  0  0  0  0  0  0
  -13.7888   18.1372   10.4396 N   0  0  0  0  0  0  0  0  0  0  0  0
  -14.8685   18.8897    9.7608 C   0  0  0  0  0  0  0  0  0  0  0  0
  -16.0226   18.4302    9.6645 O   0  0  0  0  0  0  0  0  0  0  0  0
  -12.8918   18.5394   10.4932 H   0  0  0  0  0  0  0  0  0  0  0  0
  -13.9983   16.8654   11.0121 C   0  0  0  0  0  0  0  0  0  0  0  0
  -12.7326   16.0345   10.7498 C   0  0  0  0  0  0  0  0  0  0  0  0
  -11.5205   16.5989   11.5119 C   0  0  0  0  0  0  0  0  0  0  0  0
  -12.9279   14.5884   11.0514 C   0  0  0  0  0  0  0  0  0  0  0  0
  -14.2575   16.9817   12.5234 C   0  0  0  0  0  0  0  0  0  0  0  0
  -15.4232   17.0494   12.9155 O   0  0  0  0  0  0  0  0  0  0  0  0
   -5.9680   26.9317    3.6326 C   0  0  0  0  0  0  0  0  0  0  0  0
   -6.3782   25.9514    4.5639 N   0  0  0  0  0  0  0  0  0  0  0  0
   -5.4226   25.3686    5.4724 C   0  0  0  0  0  0  0  0  0  0  0  0
   -4.2809   25.7153    5.4307 O   0  0  0  0  0  0  0  0  0  0  0  0
   -7.3198   25.6654    4.5924 H   0  0  0  0  0  0  0  0  0  0  0  0
   -5.8588   24.3402    6.4156 C   0  0  0  0  0  0  0  0  0  0  0  0
   -7.2159   24.7194    7.0461 C   0  0  0  0  0  0  0  0  0  0  0  0
   -4.9185   24.2944    7.5324 N   0  0  0  0  0  0  0  0  0  0  0  0
   -4.0642   23.0964    7.7436 C   0  0  0  0  0  0  0  0  0  0  0  0
   -4.1521   22.1549    6.9660 O   0  0  0  0  0  0  0  0  0  0  0  0
   -4.8502   25.0599    8.1476 H   0  0  0  0  0  0  0  0  0  0  0  0
   -3.0314   23.0569    8.9801 C   0  0  0  0  0  0  0  0  0  0  0  0
   -2.9783   24.3844    9.4970 N   0  0  0  0  0  0  0  0  0  0  0  0
   -3.9199   24.6928    9.7394 H   0  0  0  0  0  0  0  0  0  0  0  0
   -2.5871   25.0086    8.7914 H   0  0  0  0  0  0  0  0  0  0  0  0
   -3.6558   22.1476    9.9811 C   0  0  0  0  0  0  0  0  0  0  0  0
   -5.0993   22.1580    9.7145 O   0  0  0  0  0  0  0  0  0  0  0  0
   -5.2623   21.8622    8.8052 H   0  0  0  0  0  0  0  0  0  0  0  0
   -6.4673   26.5202    2.2437 C   0  0  0  0  0  0  0  0  0  0  0  0
   -7.8199   25.7585    2.3201 C   0  0  0  0  0  0  0  0  0  0  0  0
   -8.5377   25.6495    0.9663 C   0  0  0  0  0  0  0  0  0  0  0  0
  -10.0030   25.6576    1.0735 N   0  0  0  0  0  0  0  0  0  0  0  0
  -10.4517   26.4690    1.4043 H   0  0  0  0  0  0  0  0  0  0  0  0
  -10.8212   24.4933    0.7030 C   0  0  0  0  0  0  0  0  0  0  0  0
  -11.2040   24.4245   -0.5882 N   0  0  0  0  0  0  0  0  0  0  0  0
  -11.1824   23.5250    1.6412 N   0  0  0  0  0  0  0  0  0  0  0  0
  -11.7535   23.6692   -0.8992 H   0  0  0  0  0  0  0  0  0  0  0  0
  -10.9339   25.1297   -1.2199 H   0  0  0  0  0  0  0  0  0  0  0  0
  -11.7311   22.7548    1.3674 H   0  0  0  0  0  0  0  0  0  0  0  0
 61 59  2  0  0  0
 59 60  1  0  0  0
 59 57  1  0  0  0
 57 56  1  0  0  0
 56 55  1  0  0  0
 55 54  1  0  0  0
 54 36  1  0  0  0
 52 51  1  0  0  0
 51 47  1  0  0  0
 36 37  1  0  0  0
 36  2  1  0  0  0
 37 38  1  0  0  0
 47 48  1  0  0  0
 47 44  1  0  0  0
  2  3  2  0  0  0
  2  1  1  0  0  0
  1  5  1  0  0  0
  6  5  1  0  0  0
 43 44  1  0  0  0
 43 41  1  0  0  0
  5  8  1  0  0  0
 44 45  2  0  0  0
 38 41  1  0  0  0
 38 39  2  0  0  0
 42 41  1  0  0  0
  8  9  2  0  0  0
  8  7  1  0  0  0
  7 11  1  0  0  0
 14 13  2  0  0  0
 14 17  1  0  0  0
 13 12  1  0  0  0
 11 17  1  0  0  0
 17 16  2  0  0  0
 12 19  1  0  0  0
 12 15  2  0  0  0
 19 18  2  0  0  0
 16 15  1  0  0  0
 22 21  2  0  0  0
 22 25  1  0  0  0
 21 20  1  0  0  0
 18 25  1  0  0  0
 25 24  2  0  0  0
 28 27  2  0  0  0
 20 27  1  0  0  0
 20 23  2  0  0  0
 27 26  1  0  0  0
 24 23  1  0  0  0
 26 30  1  0  0  0
 30 34  1  0  0  0
 30 31  1  0  0  0
 32 31  1  0  0  0
 34 35  2  0  0  0
 31 33  1  0  0  0
 26 29  1  0  0  0
  7 10  1  0  0  0
  1  4  1  0  0  0
 57 58  1  0  0  0
 60 62  1  0  0  0
 60 63  1  0  0  0
 61 64  1  0  0  0
 37 40  1  0  0  0
 43 46  1  0  0  0
 48 49  1  0  0  0
 48 50  1  0  0  0
 52 53  1  0  0  0
M  END
> <minimizedAffinity>
-6.65946

$$$$
5M23_7DC_A_401


 64 65  0  0  0  0  0  0  0  0999 V2000
   -7.3104   28.5591    3.3342 N   0  0  0  0  0  0  0  0  0  0  0  0
   -6.3224   28.0991    4.2449 C   0  0  0  0  0  0  0  0  0  0  0  0
   -5.8992   28.7771    5.1651 O   0  0  0  0  0  0  0  0  0  0  0  0
   -7.6229   27.9651    2.6140 H   0  0  0  0  0  0  0  0  0  0  0  0
   -7.8706   29.9102    3.4552 C   0  0  0  0  0  0  0  0  0  0  0  0
   -7.7690   30.7630    2.2348 C   0  0  0  0  0  0  0  0  0  0  0  0
  -10.3038   29.2012    3.3077 N   0  0  0  0  0  0  0  0  0  0  0  0
   -9.2416   29.8743    4.0277 C   0  0  0  0  0  0  0  0  0  0  0  0
   -9.4476   30.3606    5.1073 O   0  0  0  0  0  0  0  0  0  0  0  0
  -10.1372   28.7885    2.4295 H   0  0  0  0  0  0  0  0  0  0  0  0
  -11.5961   29.1534    3.9060 C   0  0  0  0  0  0  0  0  0  0  0  0
  -12.3490   25.5284    6.1906 C   0  0  0  0  0  0  0  0  0  0  0  0
  -11.5543   25.4572    5.0452 C   0  0  0  0  0  0  0  0  0  0  0  0
  -11.3117   26.6023    4.2972 C   0  0  0  0  0  0  0  0  0  0  0  0
  -12.8641   26.7645    6.5828 C   0  0  0  0  0  0  0  0  0  0  0  0
  -12.6130   27.9148    5.8388 C   0  0  0  0  0  0  0  0  0  0  0  0
  -11.8452   27.8591    4.6922 C   0  0  0  0  0  0  0  0  0  0  0  0
  -13.8858   23.7022    6.9068 N   0  0  0  0  0  0  0  0  0  0  0  0
  -12.6340   24.3482    6.9985 N   0  0  0  0  0  0  0  0  0  0  0  0
  -14.8487   20.1627    9.1008 C   0  0  0  0  0  0  0  0  0  0  0  0
  -15.7025   20.6223    8.0971 C   0  0  0  0  0  0  0  0  0  0  0  0
  -15.3762   21.8067    7.3704 C   0  0  0  0  0  0  0  0  0  0  0  0
  -13.6590   20.8681    9.3784 C   0  0  0  0  0  0  0  0  0  0  0  0
  -13.3433   22.0208    8.6589 C   0  0  0  0  0  0  0  0  0  0  0  0
  -14.2150   22.4962    7.6424 C   0  0  0  0  0  0  0  0  0  0  0  0
  -16.5561   18.2765    9.8513 N   0  0  0  0  0  0  0  0  0  0  0  0
  -15.1825   18.8248    9.9244 C   0  0  0  0  0  0  0  0  0  0  0  0
  -14.3037   18.2906   10.6277 O   0  0  0  0  0  0  0  0  0  0  0  0
  -17.2182   18.7307    9.2816 H   0  0  0  0  0  0  0  0  0  0  0  0
  -16.9505   17.1275   10.5677 C   0  0  0  0  0  0  0  0  0  0  0  0
  -18.0873   17.5483   11.5121 C   0  0  0  0  0  0  0  0  0  0  0  0
  -18.8332   18.7847   10.9795 C   0  0  0  0  0  0  0  0  0  0  0  0
  -19.0343   16.4335   11.7958 C   0  0  0  0  0  0  0  0  0  0  0  0
  -17.4318   16.0243    9.6105 C   0  0  0  0  0  0  0  0  0  0  0  0
  -17.8178   16.3495    8.4870 O   0  0  0  0  0  0  0  0  0  0  0  0
   -5.7340   26.6946    4.0646 C   0  0  0  0  0  0  0  0  0  0  0  0
   -5.8798   25.9136    5.2330 N   0  0  0  0  0  0  0  0  0  0  0  0
   -4.7346   25.2615    5.8176 C   0  0  0  0  0  0  0  0  0  0  0  0
   -3.6623   25.3810    5.3062 O   0  0  0  0  0  0  0  0  0  0  0  0
   -6.7664   25.8143    5.6494 H   0  0  0  0  0  0  0  0  0  0  0  0
   -4.9058   24.4396    7.0145 C   0  0  0  0  0  0  0  0  0  0  0  0
   -4.2272   23.0649    6.8330 C   0  0  0  0  0  0  0  0  0  0  0  0
   -6.3261   24.1445    7.1854 N   0  0  0  0  0  0  0  0  0  0  0  0
   -7.0305   24.5485    8.4304 C   0  0  0  0  0  0  0  0  0  0  0  0
   -6.4086   25.1382    9.3046 O   0  0  0  0  0  0  0  0  0  0  0  0
   -6.8188   23.6763    6.4731 H   0  0  0  0  0  0  0  0  0  0  0  0
   -8.5974   24.2162    8.6081 C   0  0  0  0  0  0  0  0  0  0  0  0
   -8.8179   24.0741   10.0094 N   0  0  0  0  0  0  0  0  0  0  0  0
   -8.5052   24.9177   10.4900 H   0  0  0  0  0  0  0  0  0  0  0  0
   -8.2935   23.2710   10.3564 H   0  0  0  0  0  0  0  0  0  0  0  0
   -9.3118   25.4212    8.1020 C   0  0  0  0  0  0  0  0  0  0  0  0
   -8.4493   26.0202    7.0761 O   0  0  0  0  0  0  0  0  0  0  0  0
   -8.2870   25.3731    6.3720 H   0  0  0  0  0  0  0  0  0  0  0  0
   -6.5212   26.0257    2.9329 C   0  0  0  0  0  0  0  0  0  0  0  0
   -7.6286   25.0827    3.4805 C   0  0  0  0  0  0  0  0  0  0  0  0
   -8.7375   24.7846    2.4601 C   0  0  0  0  0  0  0  0  0  0  0  0
   -8.4400   25.2727    1.1066 N   0  0  0  0  0  0  0  0  0  0  0  0
   -7.6333   24.9434    0.6484 H   0  0  0  0  0  0  0  0  0  0  0  0
   -9.3076   26.2369    0.4140 C   0  0  0  0  0  0  0  0  0  0  0  0
   -9.7452   25.8698   -0.8076 N   0  0  0  0  0  0  0  0  0  0  0  0
   -9.6469   27.4616    0.9915 N   0  0  0  0  0  0  0  0  0  0  0  0
  -10.3296   26.4719   -1.3226 H   0  0  0  0  0  0  0  0  0  0  0  0
   -9.4803   24.9997   -1.1844 H   0  0  0  0  0  0  0  0  0  0  0  0
  -10.2297   28.0897    0.5068 H   0  0  0  0  0  0  0  0  0  0  0  0
 61 59  2  0  0  0
 59 60  1  0  0  0
 59 57  1  0  0  0
 57 56  1  0  0  0
 56 55  1  0  0  0
 55 54  1  0  0  0
 54 36  1  0  0  0
 52 51  1  0  0  0
 51 47  1  0  0  0
 36 37  1  0  0  0
 36  2  1  0  0  0
 37 38  1  0  0  0
 47 48  1  0  0  0
 47 44  1  0  0  0
  2  3  2  0  0  0
  2  1  1  0  0  0
  1  5  1  0  0  0
  6  5  1  0  0  0
 43 44  1  0  0  0
 43 41  1  0  0  0
  5  8  1  0  0  0
 44 45  2  0  0  0
 38 41  1  0  0  0
 38 39  2  0  0  0
 42 41  1  0  0  0
  8  9  2  0  0  0
  8  7  1  0  0  0
  7 11  1  0  0  0
 14 13  2  0  0  0
 14 17  1  0  0  0
 13 12  1  0  0  0
 11 17  1  0  0  0
 17 16  2  0  0  0
 12 19  1  0  0  0
 12 15  2  0  0  0
 19 18  2  0  0  0
 16 15  1  0  0  0
 22 21  2  0  0  0
 22 25  1  0  0  0
 21 20  1  0  0  0
 18 25  1  0  0  0
 25 24  2  0  0  0
 28 27  2  0  0  0
 20 27  1  0  0  0
 20 23  2  0  0  0
 27 26  1  0  0  0
 24 23  1  0  0  0
 26 30  1  0  0  0
 30 34  1  0  0  0
 30 31  1  0  0  0
 32 31  1  0  0  0
 34 35  2  0  0  0
 31 33  1  0  0  0
 26 29  1  0  0  0
  7 10  1  0  0  0
  1  4  1  0  0  0
 57 58  1  0  0  0
 60 62  1  0  0  0
 60 63  1  0  0  0
 61 64  1  0  0  0
 37 40  1  0  0  0
 43 46  1  0  0  0
 48 49  1  0  0  0
 48 50  1  0  0  0
 52 53  1  0  0  0
M  END
> <minimizedAffinity>
-6.60242

$$$$
5M23_7DC_A_401


 64 65  0  0  0  0  0  0  0  0999 V2000
   -6.6590   29.4667    5.4805 N   0  0  0  0  0  0  0  0  0  0  0  0
   -6.8844   28.0928    5.7615 C   0  0  0  0  0  0  0  0  0  0  0  0
   -7.0635   27.6655    6.8888 O   0  0  0  0  0  0  0  0  0  0  0  0
   -6.5293   29.7582    4.5491 H   0  0  0  0  0  0  0  0  0  0  0  0
   -6.6173   30.4564    6.5633 C   0  0  0  0  0  0  0  0  0  0  0  0
   -5.6895   31.6060    6.3521 C   0  0  0  0  0  0  0  0  0  0  0  0
   -8.6809   30.1682    8.0135 N   0  0  0  0  0  0  0  0  0  0  0  0
   -7.9864   30.8784    6.9587 C   0  0  0  0  0  0  0  0  0  0  0  0
   -8.4873   31.8370    6.4345 O   0  0  0  0  0  0  0  0  0  0  0  0
   -8.2694   29.3912    8.4563 H   0  0  0  0  0  0  0  0  0  0  0  0
   -9.9762   30.6258    8.3922 C   0  0  0  0  0  0  0  0  0  0  0  0
  -13.0852   27.5962    8.1049 C   0  0  0  0  0  0  0  0  0  0  0  0
  -11.8036   27.3013    7.6368 C   0  0  0  0  0  0  0  0  0  0  0  0
  -10.8009   28.2599    7.7105 C   0  0  0  0  0  0  0  0  0  0  0  0
  -13.3292   28.8482    8.6705 C   0  0  0  0  0  0  0  0  0  0  0  0
  -12.3217   29.8062    8.7539 C   0  0  0  0  0  0  0  0  0  0  0  0
  -11.0532   29.5384    8.2779 C   0  0  0  0  0  0  0  0  0  0  0  0
  -13.9316   25.2662    8.3590 N   0  0  0  0  0  0  0  0  0  0  0  0
  -14.1671   26.6206    8.0381 N   0  0  0  0  0  0  0  0  0  0  0  0
  -16.9796   22.2699    8.3826 C   0  0  0  0  0  0  0  0  0  0  0  0
  -17.2492   23.5514    8.8650 C   0  0  0  0  0  0  0  0  0  0  0  0
  -16.2257   24.5463    8.8569 C   0  0  0  0  0  0  0  0  0  0  0  0
  -15.6969   21.9734    7.8759 C   0  0  0  0  0  0  0  0  0  0  0  0
  -14.7039   22.9531    7.8646 C   0  0  0  0  0  0  0  0  0  0  0  0
  -14.9728   24.2564    8.3631 C   0  0  0  0  0  0  0  0  0  0  0  0
  -19.1910   21.1986    9.3816 N   0  0  0  0  0  0  0  0  0  0  0  0
  -18.1159   21.1349    8.3654 C   0  0  0  0  0  0  0  0  0  0  0  0
  -18.0624   20.2125    7.5295 O   0  0  0  0  0  0  0  0  0  0  0  0
  -19.1946   21.9464   10.0219 H   0  0  0  0  0  0  0  0  0  0  0  0
  -20.2102   20.2272    9.4658 C   0  0  0  0  0  0  0  0  0  0  0  0
  -20.6141   20.1189   10.9444 C   0  0  0  0  0  0  0  0  0  0  0  0
  -20.1983   18.7638   11.5439 C   0  0  0  0  0  0  0  0  0  0  0  0
  -20.0901   21.2488   11.7623 C   0  0  0  0  0  0  0  0  0  0  0  0
  -21.4220   20.6299    8.6090 C   0  0  0  0  0  0  0  0  0  0  0  0
  -22.2066   21.4663    9.0584 O   0  0  0  0  0  0  0  0  0  0  0  0
   -6.8846   27.0830    4.6076 C   0  0  0  0  0  0  0  0  0  0  0  0
   -8.1888   26.8536    4.1148 N   0  0  0  0  0  0  0  0  0  0  0  0
   -9.0030   25.8051    4.6769 C   0  0  0  0  0  0  0  0  0  0  0  0
   -8.5675   25.1278    5.5584 O   0  0  0  0  0  0  0  0  0  0  0  0
   -8.5427   27.4118    3.3850 H   0  0  0  0  0  0  0  0  0  0  0  0
  -10.3424   25.5668    4.1414 C   0  0  0  0  0  0  0  0  0  0  0  0
  -11.1033   24.5441    5.0123 C   0  0  0  0  0  0  0  0  0  0  0  0
  -10.2210   24.9356    2.8297 N   0  0  0  0  0  0  0  0  0  0  0  0
  -10.1778   25.7682    1.5990 C   0  0  0  0  0  0  0  0  0  0  0  0
  -10.2357   26.9869    1.6995 O   0  0  0  0  0  0  0  0  0  0  0  0
  -10.1677   23.9550    2.7604 H   0  0  0  0  0  0  0  0  0  0  0  0
  -10.0451   25.0603    0.1573 C   0  0  0  0  0  0  0  0  0  0  0  0
  -11.1563   24.1744    0.0450 N   0  0  0  0  0  0  0  0  0  0  0  0
  -12.0220   24.6954    0.1846 H   0  0  0  0  0  0  0  0  0  0  0  0
  -11.0814   23.4437    0.7527 H   0  0  0  0  0  0  0  0  0  0  0  0
  -10.1753   26.1650   -0.8333 C   0  0  0  0  0  0  0  0  0  0  0  0
  -11.6131   26.3667   -1.0503 O   0  0  0  0  0  0  0  0  0  0  0  0
  -12.0400   26.5844   -0.2070 H   0  0  0  0  0  0  0  0  0  0  0  0
   -6.0417   27.6938    3.4831 C   0  0  0  0  0  0  0  0  0  0  0  0
   -6.8291   27.7617    2.1448 C   0  0  0  0  0  0  0  0  0  0  0  0
   -6.7824   29.1446    1.4774 C   0  0  0  0  0  0  0  0  0  0  0  0
   -8.0696   29.8526    1.4976 N   0  0  0  0  0  0  0  0  0  0  0  0
   -8.6399   29.8266    0.6955 H   0  0  0  0  0  0  0  0  0  0  0  0
   -8.5341   30.5987    2.6764 C   0  0  0  0  0  0  0  0  0  0  0  0
   -9.7918   30.3365    3.0863 N   0  0  0  0  0  0  0  0  0  0  0  0
   -7.7169   31.5278    3.3225 N   0  0  0  0  0  0  0  0  0  0  0  0
  -10.1615   30.8036    3.8702 H   0  0  0  0  0  0  0  0  0  0  0  0
  -10.3402   29.6780    2.6018 H   0  0  0  0  0  0  0  0  0  0  0  0
   -8.0519   32.0143    4.1101 H   0  0  0  0  0  0  0  0  0  0  0  0
 61 59  2  0  0  0
 59 60  1  0  0  0
 59 57  1  0  0  0
 57 56  1  0  0  0
 56 55  1  0  0  0
 55 54  1  0  0  0
 54 36  1  0  0  0
 52 51  1  0  0  0
 51 47  1  0  0  0
 36 37  1  0  0  0
 36  2  1  0  0  0
 37 38  1  0  0  0
 47 48  1  0  0  0
 47 44  1  0  0  0
  2  3  2  0  0  0
  2  1  1  0  0  0
  1  5  1  0  0  0
  6  5  1  0  0  0
 43 44  1  0  0  0
 43 41  1  0  0  0
  5  8  1  0  0  0
 44 45  2  0  0  0
 38 41  1  0  0  0
 38 39  2  0  0  0
 42 41  1  0  0  0
  8  9  2  0  0  0
  8  7  1  0  0  0
  7 11  1  0  0  0
 14 13  2  0  0  0
 14 17  1  0  0  0
 13 12  1  0  0  0
 11 17  1  0  0  0
 17 16  2  0  0  0
 12 19  1  0  0  0
 12 15  2  0  0  0
 19 18  2  0  0  0
 16 15  1  0  0  0
 22 21  2  0  0  0
 22 25  1  0  0  0
 21 20  1  0  0  0
 18 25  1  0  0  0
 25 24  2  0  0  0
 28 27  2  0  0  0
 20 27  1  0  0  0
 20 23  2  0  0  0
 27 26  1  0  0  0
 24 23  1  0  0  0
 26 30  1  0  0  0
 30 34  1  0  0  0
 30 31  1  0  0  0
 32 31  1  0  0  0
 34 35  2  0  0  0
 31 33  1  0  0  0
 26 29  1  0  0  0
  7 10  1  0  0  0
  1  4  1  0  0  0
 57 58  1  0  0  0
 60 62  1  0  0  0
 60 63  1  0  0  0
 61 64  1  0  0  0
 37 40  1  0  0  0
 43 46  1  0  0  0
 48 49  1  0  0  0
 48 50  1  0  0  0
 52 53  1  0  0  0
M  END
> <minimizedAffinity>
-6.45264

$$$$
5M23_7DC_A_401


 64 65  0  0  0  0  0  0  0  0999 V2000
   -5.8130   27.4157    5.3302 N   0  0  0  0  0  0  0  0  0  0  0  0
   -6.1921   26.5631    4.2594 C   0  0  0  0  0  0  0  0  0  0  0  0
   -6.0625   25.3517    4.2963 O   0  0  0  0  0  0  0  0  0  0  0  0
   -5.9488   28.3875    5.2502 H   0  0  0  0  0  0  0  0  0  0  0  0
   -5.2212   26.8639    6.5545 C   0  0  0  0  0  0  0  0  0  0  0  0
   -3.7621   27.1179    6.7378 C   0  0  0  0  0  0  0  0  0  0  0  0
   -7.3627   27.7610    7.5812 N   0  0  0  0  0  0  0  0  0  0  0  0
   -6.0288   27.2208    7.7500 C   0  0  0  0  0  0  0  0  0  0  0  0
   -5.5884   27.0119    8.8486 O   0  0  0  0  0  0  0  0  0  0  0  0
   -7.7340   27.9206    6.6835 H   0  0  0  0  0  0  0  0  0  0  0  0
   -8.1219   28.0548    8.7506 C   0  0  0  0  0  0  0  0  0  0  0  0
  -11.6452   25.5297    9.1218 C   0  0  0  0  0  0  0  0  0  0  0  0
  -11.8083   26.9112    9.0061 C   0  0  0  0  0  0  0  0  0  0  0  0
  -10.6945   27.7342    8.8973 C   0  0  0  0  0  0  0  0  0  0  0  0
  -10.3569   24.9943    9.0953 C   0  0  0  0  0  0  0  0  0  0  0  0
   -9.2402   25.8181    8.9762 C   0  0  0  0  0  0  0  0  0  0  0  0
   -9.3822   27.1885    8.8804 C   0  0  0  0  0  0  0  0  0  0  0  0
  -13.6292   24.3858    8.1396 N   0  0  0  0  0  0  0  0  0  0  0  0
  -12.7880   24.6324    9.2461 N   0  0  0  0  0  0  0  0  0  0  0  0
  -16.9126   21.6523    8.2674 C   0  0  0  0  0  0  0  0  0  0  0  0
  -16.9867   22.8727    8.9403 C   0  0  0  0  0  0  0  0  0  0  0  0
  -15.8853   23.7795    8.8958 C   0  0  0  0  0  0  0  0  0  0  0  0
  -15.7506   21.3319    7.5345 C   0  0  0  0  0  0  0  0  0  0  0  0
  -14.6812   22.2265    7.4897 C   0  0  0  0  0  0  0  0  0  0  0  0
  -14.7501   23.4661    8.1811 C   0  0  0  0  0  0  0  0  0  0  0  0
  -18.5514   20.0356    9.5853 N   0  0  0  0  0  0  0  0  0  0  0  0
  -18.1421   20.6190    8.2873 C   0  0  0  0  0  0  0  0  0  0  0  0
  -18.7076   20.3029    7.2229 O   0  0  0  0  0  0  0  0  0  0  0  0
  -18.0772   20.3152   10.4014 H   0  0  0  0  0  0  0  0  0  0  0  0
  -19.5957   19.0939    9.6952 C   0  0  0  0  0  0  0  0  0  0  0  0
  -19.0103   17.8421   10.3669 C   0  0  0  0  0  0  0  0  0  0  0  0
  -18.4205   16.8701    9.3296 C   0  0  0  0  0  0  0  0  0  0  0  0
  -18.0081   18.1754   11.4179 C   0  0  0  0  0  0  0  0  0  0  0  0
  -20.7548   19.6579   10.5338 C   0  0  0  0  0  0  0  0  0  0  0  0
  -21.3303   20.6706   10.1335 O   0  0  0  0  0  0  0  0  0  0  0  0
   -6.7734   27.1796    2.9814 C   0  0  0  0  0  0  0  0  0  0  0  0
   -8.0584   26.6679    2.6927 N   0  0  0  0  0  0  0  0  0  0  0  0
   -8.2531   25.7872    1.5682 C   0  0  0  0  0  0  0  0  0  0  0  0
   -7.3230   25.4959    0.8785 O   0  0  0  0  0  0  0  0  0  0  0  0
   -8.8235   26.9138    3.2615 H   0  0  0  0  0  0  0  0  0  0  0  0
   -9.5929   25.2834    1.2703 C   0  0  0  0  0  0  0  0  0  0  0  0
  -10.2333   26.0867    0.1181 C   0  0  0  0  0  0  0  0  0  0  0  0
  -10.4542   25.5206    2.4259 N   0  0  0  0  0  0  0  0  0  0  0  0
  -11.2290   24.4022    3.0247 C   0  0  0  0  0  0  0  0  0  0  0  0
  -11.1291   23.2809    2.5436 O   0  0  0  0  0  0  0  0  0  0  0  0
  -10.5218   26.4246    2.8098 H   0  0  0  0  0  0  0  0  0  0  0  0
  -12.1771   24.6765    4.2987 C   0  0  0  0  0  0  0  0  0  0  0  0
  -13.0168   23.5313    4.4240 N   0  0  0  0  0  0  0  0  0  0  0  0
  -12.4401   22.6931    4.4961 H   0  0  0  0  0  0  0  0  0  0  0  0
  -13.6192   23.4601    3.6039 H   0  0  0  0  0  0  0  0  0  0  0  0
  -11.2522   24.7570    5.4634 C   0  0  0  0  0  0  0  0  0  0  0  0
  -10.7930   26.1493    5.5392 O   0  0  0  0  0  0  0  0  0  0  0  0
  -11.5578   26.7368    5.6428 H   0  0  0  0  0  0  0  0  0  0  0  0
   -6.8962   28.6862    3.2316 C   0  0  0  0  0  0  0  0  0  0  0  0
   -7.3773   29.4436    1.9626 C   0  0  0  0  0  0  0  0  0  0  0  0
   -8.5384   30.4127    2.2321 C   0  0  0  0  0  0  0  0  0  0  0  0
   -9.1370   30.2591    3.5651 N   0  0  0  0  0  0  0  0  0  0  0  0
   -8.6627   30.6272    4.3453 H   0  0  0  0  0  0  0  0  0  0  0  0
  -10.4214   29.5737    3.7720 C   0  0  0  0  0  0  0  0  0  0  0  0
  -11.3338   30.2353    4.5125 N   0  0  0  0  0  0  0  0  0  0  0  0
  -10.6701   28.3091    3.2360 N   0  0  0  0  0  0  0  0  0  0  0  0
  -12.2137   29.8296    4.6872 H   0  0  0  0  0  0  0  0  0  0  0  0
  -11.1201   31.1239    4.8784 H   0  0  0  0  0  0  0  0  0  0  0  0
  -11.5387   27.8717    3.3892 H   0  0  0  0  0  0  0  0  0  0  0  0
 61 59  2  0  0  0
 59 60  1  0  0  0
 59 57  1  0  0  0
 57 56  1  0  0  0
 56 55  1  0  0  0
 55 54  1  0  0  0
 54 36  1  0  0  0
 52 51  1  0  0  0
 51 47  1  0  0  0
 36 37  1  0  0  0
 36  2  1  0  0  0
 37 38  1  0  0  0
 47 48  1  0  0  0
 47 44  1  0  0  0
  2  3  2  0  0  0
  2  1  1  0  0  0
  1  5  1  0  0  0
  6  5  1  0  0  0
 43 44  1  0  0  0
 43 41  1  0  0  0
  5  8  1  0  0  0
 44 45  2  0  0  0
 38 41  1  0  0  0
 38 39  2  0  0  0
 42 41  1  0  0  0
  8  9  2  0  0  0
  8  7  1  0  0  0
  7 11  1  0  0  0
 14 13  2  0  0  0
 14 17  1  0  0  0
 13 12  1  0  0  0
 11 17  1  0  0  0
 17 16  2  0  0  0
 12 19  1  0  0  0
 12 15  2  0  0  0
 19 18  2  0  0  0
 16 15  1  0  0  0
 22 21  2  0  0  0
 22 25  1  0  0  0
 21 20  1  0  0  0
 18 25  1  0  0  0
 25 24  2  0  0  0
 28 27  2  0  0  0
 20 27  1  0  0  0
 20 23  2  0  0  0
 27 26  1  0  0  0
 24 23  1  0  0  0
 26 30  1  0  0  0
 30 34  1  0  0  0
 30 31  1  0  0  0
 32 31  1  0  0  0
 34 35  2  0  0  0
 31 33  1  0  0  0
 26 29  1  0  0  0
  7 10  1  0  0  0
  1  4  1  0  0  0
 57 58  1  0  0  0
 60 62  1  0  0  0
 60 63  1  0  0  0
 61 64  1  0  0  0
 37 40  1  0  0  0
 43 46  1  0  0  0
 48 49  1  0  0  0
 48 50  1  0  0  0
 52 53  1  0  0  0
M  END
> <minimizedAffinity>
-6.34933

$$$$
5M23_7DC_A_401


 64 65  0  0  0  0  0  0  0  0999 V2000
   -7.1549   27.6000    3.1940 N   0  0  0  0  0  0  0  0  0  0  0  0
   -6.6486   26.9403    4.3453 C   0  0  0  0  0  0  0  0  0  0  0  0
   -6.4260   27.5150    5.3969 O   0  0  0  0  0  0  0  0  0  0  0  0
   -7.3252   27.0844    2.3727 H   0  0  0  0  0  0  0  0  0  0  0  0
   -7.4272   29.0420    3.2151 C   0  0  0  0  0  0  0  0  0  0  0  0
   -7.1679   29.7670    1.9368 C   0  0  0  0  0  0  0  0  0  0  0  0
   -9.0267   29.0686    5.1863 N   0  0  0  0  0  0  0  0  0  0  0  0
   -8.7704   29.3270    3.7838 C   0  0  0  0  0  0  0  0  0  0  0  0
   -9.6187   29.8167    3.0874 O   0  0  0  0  0  0  0  0  0  0  0  0
   -8.3307   28.6811    5.7648 H   0  0  0  0  0  0  0  0  0  0  0  0
  -10.3142   29.3909    5.7049 C   0  0  0  0  0  0  0  0  0  0  0  0
  -12.8365   25.9042    6.3437 C   0  0  0  0  0  0  0  0  0  0  0  0
  -11.7702   26.1401    7.2130 C   0  0  0  0  0  0  0  0  0  0  0  0
  -10.9475   27.2424    7.0184 C   0  0  0  0  0  0  0  0  0  0  0  0
  -13.0765   26.8045    5.3049 C   0  0  0  0  0  0  0  0  0  0  0  0
  -12.2582   27.9154    5.1152 C   0  0  0  0  0  0  0  0  0  0  0  0
  -11.1871   28.1533    5.9539 C   0  0  0  0  0  0  0  0  0  0  0  0
  -14.3310   24.4942    7.7536 N   0  0  0  0  0  0  0  0  0  0  0  0
  -13.7181   24.7543    6.5089 N   0  0  0  0  0  0  0  0  0  0  0  0
  -17.0371   21.2500    8.4025 C   0  0  0  0  0  0  0  0  0  0  0  0
  -17.3062   22.5090    8.9412 C   0  0  0  0  0  0  0  0  0  0  0  0
  -16.3966   23.5872    8.7231 C   0  0  0  0  0  0  0  0  0  0  0  0
  -15.8712   21.0583    7.6319 C   0  0  0  0  0  0  0  0  0  0  0  0
  -14.9907   22.1187    7.4170 C   0  0  0  0  0  0  0  0  0  0  0  0
  -15.2575   23.3995    7.9715 C   0  0  0  0  0  0  0  0  0  0  0  0
  -17.5507   18.8095    9.3061 N   0  0  0  0  0  0  0  0  0  0  0  0
  -18.0500   20.0224    8.6188 C   0  0  0  0  0  0  0  0  0  0  0  0
  -19.2160   20.0930    8.1854 O   0  0  0  0  0  0  0  0  0  0  0  0
  -16.6222   18.7983    9.6334 H   0  0  0  0  0  0  0  0  0  0  0  0
  -18.3564   17.6698    9.5091 C   0  0  0  0  0  0  0  0  0  0  0  0
  -17.5128   16.4430    9.1294 C   0  0  0  0  0  0  0  0  0  0  0  0
  -16.7420   15.8923   10.3424 C   0  0  0  0  0  0  0  0  0  0  0  0
  -18.3223   15.3739    8.4799 C   0  0  0  0  0  0  0  0  0  0  0  0
  -18.8090   17.5740   10.9757 C   0  0  0  0  0  0  0  0  0  0  0  0
  -18.7660   18.5899   11.6707 O   0  0  0  0  0  0  0  0  0  0  0  0
   -6.3417   25.4396    4.2738 C   0  0  0  0  0  0  0  0  0  0  0  0
   -6.0153   24.9124    5.5434 N   0  0  0  0  0  0  0  0  0  0  0  0
   -4.6446   24.6119    5.8739 C   0  0  0  0  0  0  0  0  0  0  0  0
   -3.7865   24.8064    5.0669 O   0  0  0  0  0  0  0  0  0  0  0  0
   -6.7264   24.7498    6.2047 H   0  0  0  0  0  0  0  0  0  0  0  0
   -4.3260   24.0470    7.1842 C   0  0  0  0  0  0  0  0  0  0  0  0
   -3.5955   22.6956    7.0318 C   0  0  0  0  0  0  0  0  0  0  0  0
   -5.5721   23.7312    7.8779 N   0  0  0  0  0  0  0  0  0  0  0  0
   -5.8923   24.3812    9.1758 C   0  0  0  0  0  0  0  0  0  0  0  0
   -5.1044   25.1894    9.6499 O   0  0  0  0  0  0  0  0  0  0  0  0
   -6.2023   23.0854    7.4842 H   0  0  0  0  0  0  0  0  0  0  0  0
   -7.2696   24.0237    9.9324 C   0  0  0  0  0  0  0  0  0  0  0  0
   -7.5799   25.1510   10.7480 N   0  0  0  0  0  0  0  0  0  0  0  0
   -7.6187   25.9896   10.1686 H   0  0  0  0  0  0  0  0  0  0  0  0
   -6.8593   25.2635   11.4611 H   0  0  0  0  0  0  0  0  0  0  0  0
   -8.2845   23.8855    8.8510 C   0  0  0  0  0  0  0  0  0  0  0  0
   -8.0763   25.0125    7.9336 O   0  0  0  0  0  0  0  0  0  0  0  0
   -7.1710   24.9839    7.5865 H   0  0  0  0  0  0  0  0  0  0  0  0
   -7.6156   24.7494    3.7750 C   0  0  0  0  0  0  0  0  0  0  0  0
   -8.8816   25.2807    4.5034 C   0  0  0  0  0  0  0  0  0  0  0  0
  -10.1965   24.8585    3.8307 C   0  0  0  0  0  0  0  0  0  0  0  0
  -10.1845   25.0054    2.3689 N   0  0  0  0  0  0  0  0  0  0  0  0
  -10.3249   24.2078    1.8091 H   0  0  0  0  0  0  0  0  0  0  0  0
   -9.9698   26.3047    1.7147 C   0  0  0  0  0  0  0  0  0  0  0  0
  -10.8854   27.2592    1.9774 N   0  0  0  0  0  0  0  0  0  0  0  0
   -8.8833   26.5257    0.8667 N   0  0  0  0  0  0  0  0  0  0  0  0
  -10.7977   28.1510    1.5696 H   0  0  0  0  0  0  0  0  0  0  0  0
  -11.6416   27.0643    2.5770 H   0  0  0  0  0  0  0  0  0  0  0  0
   -8.7622   27.4051    0.4409 H   0  0  0  0  0  0  0  0  0  0  0  0
 61 59  2  0  0  0
 59 60  1  0  0  0
 59 57  1  0  0  0
 57 56  1  0  0  0
 56 55  1  0  0  0
 55 54  1  0  0  0
 54 36  1  0  0  0
 52 51  1  0  0  0
 51 47  1  0  0  0
 36 37  1  0  0  0
 36  2  1  0  0  0
 37 38  1  0  0  0
 47 48  1  0  0  0
 47 44  1  0  0  0
  2  3  2  0  0  0
  2  1  1  0  0  0
  1  5  1  0  0  0
  6  5  1  0  0  0
 43 44  1  0  0  0
 43 41  1  0  0  0
  5  8  1  0  0  0
 44 45  2  0  0  0
 38 41  1  0  0  0
 38 39  2  0  0  0
 42 41  1  0  0  0
  8  9  2  0  0  0
  8  7  1  0  0  0
  7 11  1  0  0  0
 14 13  2  0  0  0
 14 17  1  0  0  0
 13 12  1  0  0  0
 11 17  1  0  0  0
 17 16  2  0  0  0
 12 19  1  0  0  0
 12 15  2  0  0  0
 19 18  2  0  0  0
 16 15  1  0  0  0
 22 21  2  0  0  0
 22 25  1  0  0  0
 21 20  1  0  0  0
 18 25  1  0  0  0
 25 24  2  0  0  0
 28 27  2  0  0  0
 20 27  1  0  0  0
 20 23  2  0  0  0
 27 26  1  0  0  0
 24 23  1  0  0  0
 26 30  1  0  0  0
 30 34  1  0  0  0
 30 31  1  0  0  0
 32 31  1  0  0  0
 34 35  2  0  0  0
 31 33  1  0  0  0
 26 29  1  0  0  0
  7 10  1  0  0  0
  1  4  1  0  0  0
 57 58  1  0  0  0
 60 62  1  0  0  0
 60 63  1  0  0  0
 61 64  1  0  0  0
 37 40  1  0  0  0
 43 46  1  0  0  0
 48 49  1  0  0  0
 48 50  1  0  0  0
 52 53  1  0  0  0
M  END
> <minimizedAffinity>
-6.29909

$$$$
5M23_7DC_A_401


 64 65  0  0  0  0  0  0  0  0999 V2000
   -8.9861   29.2783    4.0214 N   0  0  0  0  0  0  0  0  0  0  0  0
  -10.3662   29.5046    4.2690 C   0  0  0  0  0  0  0  0  0  0  0  0
  -11.2102   29.4919    3.3897 O   0  0  0  0  0  0  0  0  0  0  0  0
   -8.3485   29.2908    4.7714 H   0  0  0  0  0  0  0  0  0  0  0  0
   -8.5001   29.0259    2.6598 C   0  0  0  0  0  0  0  0  0  0  0  0
   -7.1117   29.4915    2.3730 C   0  0  0  0  0  0  0  0  0  0  0  0
   -8.3062   26.5385    3.1285 N   0  0  0  0  0  0  0  0  0  0  0  0
   -8.7354   27.6145    2.2582 C   0  0  0  0  0  0  0  0  0  0  0  0
   -9.3247   27.3774    1.2379 O   0  0  0  0  0  0  0  0  0  0  0  0
   -7.8359   26.7274    3.9725 H   0  0  0  0  0  0  0  0  0  0  0  0
   -8.5837   25.1992    2.7288 C   0  0  0  0  0  0  0  0  0  0  0  0
  -12.1586   23.6215    4.6413 C   0  0  0  0  0  0  0  0  0  0  0  0
  -11.9534   23.3822    3.2815 C   0  0  0  0  0  0  0  0  0  0  0  0
  -10.8230   23.8871    2.6514 C   0  0  0  0  0  0  0  0  0  0  0  0
  -11.2013   24.3437    5.3548 C   0  0  0  0  0  0  0  0  0  0  0  0
  -10.0628   24.8416    4.7259 C   0  0  0  0  0  0  0  0  0  0  0  0
   -9.8535   24.6310    3.3771 C   0  0  0  0  0  0  0  0  0  0  0  0
  -13.5577   23.4347    6.6950 N   0  0  0  0  0  0  0  0  0  0  0  0
  -13.3359   23.1159    5.3378 N   0  0  0  0  0  0  0  0  0  0  0  0
  -17.0330   22.2049    8.8580 C   0  0  0  0  0  0  0  0  0  0  0  0
  -16.4122   21.3283    7.9669 C   0  0  0  0  0  0  0  0  0  0  0  0
  -15.2537   21.7467    7.2457 C   0  0  0  0  0  0  0  0  0  0  0  0
  -16.4984   23.4963    9.0489 C   0  0  0  0  0  0  0  0  0  0  0  0
  -15.3616   23.8954    8.3458 C   0  0  0  0  0  0  0  0  0  0  0  0
  -14.7324   23.0082    7.4313 C   0  0  0  0  0  0  0  0  0  0  0  0
  -19.3321   22.7871   10.0460 N   0  0  0  0  0  0  0  0  0  0  0  0
  -18.3288   21.7564    9.6944 C   0  0  0  0  0  0  0  0  0  0  0  0
  -18.4565   20.5714   10.0574 O   0  0  0  0  0  0  0  0  0  0  0  0
  -19.1910   23.7111    9.7368 H   0  0  0  0  0  0  0  0  0  0  0  0
  -20.4824   22.4937   10.8076 C   0  0  0  0  0  0  0  0  0  0  0  0
  -20.5747   23.5518   11.9180 C   0  0  0  0  0  0  0  0  0  0  0  0
  -19.3346   23.5216   12.8291 C   0  0  0  0  0  0  0  0  0  0  0  0
  -20.8108   24.9216   11.3814 C   0  0  0  0  0  0  0  0  0  0  0  0
  -21.7440   22.5296    9.9290 C   0  0  0  0  0  0  0  0  0  0  0  0
  -21.6121   22.7270    8.7204 O   0  0  0  0  0  0  0  0  0  0  0  0
  -10.8313   29.8013    5.6997 C   0  0  0  0  0  0  0  0  0  0  0  0
  -10.2736   31.0028    6.1913 N   0  0  0  0  0  0  0  0  0  0  0  0
   -9.4952   30.9985    7.4047 C   0  0  0  0  0  0  0  0  0  0  0  0
   -9.3281   29.9743    7.9952 O   0  0  0  0  0  0  0  0  0  0  0  0
  -10.4171   31.8459    5.7036 H   0  0  0  0  0  0  0  0  0  0  0  0
   -8.9429   32.2537    7.9116 C   0  0  0  0  0  0  0  0  0  0  0  0
  -10.0688   33.2754    8.1795 C   0  0  0  0  0  0  0  0  0  0  0  0
   -8.1167   32.8603    6.8710 N   0  0  0  0  0  0  0  0  0  0  0  0
   -6.6343   32.7891    6.9551 C   0  0  0  0  0  0  0  0  0  0  0  0
   -6.1165   32.2090    7.9007 O   0  0  0  0  0  0  0  0  0  0  0  0
   -8.5432   33.3181    6.1109 H   0  0  0  0  0  0  0  0  0  0  0  0
   -5.7332   33.4634    5.8016 C   0  0  0  0  0  0  0  0  0  0  0  0
   -6.0589   32.7819    4.5926 N   0  0  0  0  0  0  0  0  0  0  0  0
   -7.0648   32.8361    4.4322 H   0  0  0  0  0  0  0  0  0  0  0  0
   -5.7787   31.8040    4.6674 H   0  0  0  0  0  0  0  0  0  0  0  0
   -6.1916   34.8785    5.7255 C   0  0  0  0  0  0  0  0  0  0  0  0
   -7.4492   34.8719    4.9681 O   0  0  0  0  0  0  0  0  0  0  0  0
   -8.0951   34.3057    5.4189 H   0  0  0  0  0  0  0  0  0  0  0  0
  -12.3545   29.9593    5.6474 C   0  0  0  0  0  0  0  0  0  0  0  0
  -13.0748   28.8885    6.5135 C   0  0  0  0  0  0  0  0  0  0  0  0
  -12.9829   29.1598    8.0227 C   0  0  0  0  0  0  0  0  0  0  0  0
  -11.9140   28.4068    8.6929 N   0  0  0  0  0  0  0  0  0  0  0  0
  -11.4551   28.8143    9.4627 H   0  0  0  0  0  0  0  0  0  0  0  0
  -11.5073   27.0644    8.2517 C   0  0  0  0  0  0  0  0  0  0  0  0
  -10.2529   26.9537    7.7692 N   0  0  0  0  0  0  0  0  0  0  0  0
  -12.3777   25.9756    8.3245 N   0  0  0  0  0  0  0  0  0  0  0  0
   -9.9206   26.0809    7.4576 H   0  0  0  0  0  0  0  0  0  0  0  0
   -9.6694   27.7456    7.7286 H   0  0  0  0  0  0  0  0  0  0  0  0
  -12.0808   25.0869    8.0225 H   0  0  0  0  0  0  0  0  0  0  0  0
 61 59  2  0  0  0
 59 60  1  0  0  0
 59 57  1  0  0  0
 57 56  1  0  0  0
 56 55  1  0  0  0
 55 54  1  0  0  0
 54 36  1  0  0  0
 52 51  1  0  0  0
 51 47  1  0  0  0
 36 37  1  0  0  0
 36  2  1  0  0  0
 37 38  1  0  0  0
 47 48  1  0  0  0
 47 44  1  0  0  0
  2  3  2  0  0  0
  2  1  1  0  0  0
  1  5  1  0  0  0
  6  5  1  0  0  0
 43 44  1  0  0  0
 43 41  1  0  0  0
  5  8  1  0  0  0
 44 45  2  0  0  0
 38 41  1  0  0  0
 38 39  2  0  0  0
 42 41  1  0  0  0
  8  9  2  0  0  0
  8  7  1  0  0  0
  7 11  1  0  0  0
 14 13  2  0  0  0
 14 17  1  0  0  0
 13 12  1  0  0  0
 11 17  1  0  0  0
 17 16  2  0  0  0
 12 19  1  0  0  0
 12 15  2  0  0  0
 19 18  2  0  0  0
 16 15  1  0  0  0
 22 21  2  0  0  0
 22 25  1  0  0  0
 21 20  1  0  0  0
 18 25  1  0  0  0
 25 24  2  0  0  0
 28 27  2  0  0  0
 20 27  1  0  0  0
 20 23  2  0  0  0
 27 26  1  0  0  0
 24 23  1  0  0  0
 26 30  1  0  0  0
 30 34  1  0  0  0
 30 31  1  0  0  0
 32 31  1  0  0  0
 34 35  2  0  0  0
 31 33  1  0  0  0
 26 29  1  0  0  0
  7 10  1  0  0  0
  1  4  1  0  0  0
 57 58  1  0  0  0
 60 62  1  0  0  0
 60 63  1  0  0  0
 61 64  1  0  0  0
 37 40  1  0  0  0
 43 46  1  0  0  0
 48 49  1  0  0  0
 48 50  1  0  0  0
 52 53  1  0  0  0
M  END
> <minimizedAffinity>
-6.27793

$$$$
5M23_7DC_A_401


 64 65  0  0  0  0  0  0  0  0999 V2000
   -5.4403   25.1661    5.0660 N   0  0  0  0  0  0  0  0  0  0  0  0
   -6.7815   25.2679    4.6099 C   0  0  0  0  0  0  0  0  0  0  0  0
   -7.7038   24.6511    5.1142 O   0  0  0  0  0  0  0  0  0  0  0  0
   -4.7353   25.6949    4.6271 H   0  0  0  0  0  0  0  0  0  0  0  0
   -5.0939   24.2812    6.1844 C   0  0  0  0  0  0  0  0  0  0  0  0
   -3.6408   23.9814    6.3446 C   0  0  0  0  0  0  0  0  0  0  0  0
   -6.8804   24.0102    7.9676 N   0  0  0  0  0  0  0  0  0  0  0  0
   -5.7376   24.7322    7.4458 C   0  0  0  0  0  0  0  0  0  0  0  0
   -5.2743   25.6623    8.0498 O   0  0  0  0  0  0  0  0  0  0  0  0
   -7.2550   23.2386    7.4843 H   0  0  0  0  0  0  0  0  0  0  0  0
   -7.4469   24.4481    9.1995 C   0  0  0  0  0  0  0  0  0  0  0  0
  -11.6258   25.6023    8.8364 C   0  0  0  0  0  0  0  0  0  0  0  0
  -11.3101   24.2717    9.1162 C   0  0  0  0  0  0  0  0  0  0  0  0
   -9.9810   23.8825    9.2252 C   0  0  0  0  0  0  0  0  0  0  0  0
  -10.5926   26.5303    8.7004 C   0  0  0  0  0  0  0  0  0  0  0  0
   -9.2602   26.1427    8.8195 C   0  0  0  0  0  0  0  0  0  0  0  0
   -8.9291   24.8268    9.0767 C   0  0  0  0  0  0  0  0  0  0  0  0
  -13.9852   25.6370    9.6376 N   0  0  0  0  0  0  0  0  0  0  0  0
  -13.0078   26.0494    8.7062 N   0  0  0  0  0  0  0  0  0  0  0  0
  -18.0385   26.9869    9.5058 C   0  0  0  0  0  0  0  0  0  0  0  0
  -17.6869   25.7600    8.9411 C   0  0  0  0  0  0  0  0  0  0  0  0
  -16.3308   25.3168    8.9861 C   0  0  0  0  0  0  0  0  0  0  0  0
  -17.0486   27.7735   10.1313 C   0  0  0  0  0  0  0  0  0  0  0  0
  -15.7267   27.3302   10.1777 C   0  0  0  0  0  0  0  0  0  0  0  0
  -15.3640   26.0856    9.5958 C   0  0  0  0  0  0  0  0  0  0  0  0
  -19.8077   28.9631    9.5279 N   0  0  0  0  0  0  0  0  0  0  0  0
  -19.5590   27.5041    9.4835 C   0  0  0  0  0  0  0  0  0  0  0  0
  -20.4960   26.6832    9.4603 O   0  0  0  0  0  0  0  0  0  0  0  0
  -19.0369   29.5753    9.5440 H   0  0  0  0  0  0  0  0  0  0  0  0
  -21.1085   29.5080    9.5479 C   0  0  0  0  0  0  0  0  0  0  0  0
  -21.5255   29.6356   11.0213 C   0  0  0  0  0  0  0  0  0  0  0  0
  -21.7477   31.1058   11.4183 C   0  0  0  0  0  0  0  0  0  0  0  0
  -22.7195   28.8067   11.3492 C   0  0  0  0  0  0  0  0  0  0  0  0
  -21.1354   30.8849    8.8637 C   0  0  0  0  0  0  0  0  0  0  0  0
  -20.1020   31.2986    8.3365 O   0  0  0  0  0  0  0  0  0  0  0  0
   -7.0989   26.1750    3.4150 C   0  0  0  0  0  0  0  0  0  0  0  0
   -8.3796   25.9069    2.8818 N   0  0  0  0  0  0  0  0  0  0  0  0
   -8.5146   25.3903    1.5427 C   0  0  0  0  0  0  0  0  0  0  0  0
   -7.5381   25.1946    0.8842 O   0  0  0  0  0  0  0  0  0  0  0  0
   -9.1826   26.0734    3.4266 H   0  0  0  0  0  0  0  0  0  0  0  0
   -9.8478   25.1382    0.9981 C   0  0  0  0  0  0  0  0  0  0  0  0
  -10.2534   26.2545    0.0118 C   0  0  0  0  0  0  0  0  0  0  0  0
  -10.8231   25.2144    2.0828 N   0  0  0  0  0  0  0  0  0  0  0  0
  -11.3517   23.9714    2.7033 C   0  0  0  0  0  0  0  0  0  0  0  0
  -10.9532   22.8861    2.3007 O   0  0  0  0  0  0  0  0  0  0  0  0
  -11.1315   26.0923    2.4042 H   0  0  0  0  0  0  0  0  0  0  0  0
  -12.4286   24.0680    3.8984 C   0  0  0  0  0  0  0  0  0  0  0  0
  -12.3955   22.8093    4.5669 N   0  0  0  0  0  0  0  0  0  0  0  0
  -11.4419   22.6099    4.8691 H   0  0  0  0  0  0  0  0  0  0  0  0
  -12.7103   22.0776    3.9298 H   0  0  0  0  0  0  0  0  0  0  0  0
  -11.9147   25.1354    4.8014 C   0  0  0  0  0  0  0  0  0  0  0  0
  -10.4844   24.8677    4.9959 O   0  0  0  0  0  0  0  0  0  0  0  0
  -10.0347   24.8728    4.1365 H   0  0  0  0  0  0  0  0  0  0  0  0
   -7.0821   27.6162    3.9351 C   0  0  0  0  0  0  0  0  0  0  0  0
   -8.0767   27.8153    5.1126 C   0  0  0  0  0  0  0  0  0  0  0  0
   -8.7412   29.2003    5.1242 C   0  0  0  0  0  0  0  0  0  0  0  0
  -10.2095   29.1499    5.1075 N   0  0  0  0  0  0  0  0  0  0  0  0
  -10.6959   29.1567    5.9634 H   0  0  0  0  0  0  0  0  0  0  0  0
  -10.9762   29.0898    3.8542 C   0  0  0  0  0  0  0  0  0  0  0  0
  -11.9118   30.0462    3.6851 N   0  0  0  0  0  0  0  0  0  0  0  0
  -10.7477   28.0929    2.9042 N   0  0  0  0  0  0  0  0  0  0  0  0
  -12.4588   30.0605    2.8667 H   0  0  0  0  0  0  0  0  0  0  0  0
  -12.0478   30.7301    4.3801 H   0  0  0  0  0  0  0  0  0  0  0  0
  -11.2749   28.0749    2.0730 H   0  0  0  0  0  0  0  0  0  0  0  0
 61 59  2  0  0  0
 59 60  1  0  0  0
 59 57  1  0  0  0
 57 56  1  0  0  0
 56 55  1  0  0  0
 55 54  1  0  0  0
 54 36  1  0  0  0
 52 51  1  0  0  0
 51 47  1  0  0  0
 36 37  1  0  0  0
 36  2  1  0  0  0
 37 38  1  0  0  0
 47 48  1  0  0  0
 47 44  1  0  0  0
  2  3  2  0  0  0
  2  1  1  0  0  0
  1  5  1  0  0  0
  6  5  1  0  0  0
 43 44  1  0  0  0
 43 41  1  0  0  0
  5  8  1  0  0  0
 44 45  2  0  0  0
 38 41  1  0  0  0
 38 39  2  0  0  0
 42 41  1  0  0  0
  8  9  2  0  0  0
  8  7  1  0  0  0
  7 11  1  0  0  0
 14 13  2  0  0  0
 14 17  1  0  0  0
 13 12  1  0  0  0
 11 17  1  0  0  0
 17 16  2  0  0  0
 12 19  1  0  0  0
 12 15  2  0  0  0
 19 18  2  0  0  0
 16 15  1  0  0  0
 22 21  2  0  0  0
 22 25  1  0  0  0
 21 20  1  0  0  0
 18 25  1  0  0  0
 25 24  2  0  0  0
 28 27  2  0  0  0
 20 27  1  0  0  0
 20 23  2  0  0  0
 27 26  1  0  0  0
 24 23  1  0  0  0
 26 30  1  0  0  0
 30 34  1  0  0  0
 30 31  1  0  0  0
 32 31  1  0  0  0
 34 35  2  0  0  0
 31 33  1  0  0  0
 26 29  1  0  0  0
  7 10  1  0  0  0
  1  4  1  0  0  0
 57 58  1  0  0  0
 60 62  1  0  0  0
 60 63  1  0  0  0
 61 64  1  0  0  0
 37 40  1  0  0  0
 43 46  1  0  0  0
 48 49  1  0  0  0
 48 50  1  0  0  0
 52 53  1  0  0  0
M  END
> <minimizedAffinity>
-6.27508

$$$$
5M23_7DC_A_401


 64 65  0  0  0  0  0  0  0  0999 V2000
   -7.0351   28.7480    5.1483 N   0  0  0  0  0  0  0  0  0  0  0  0
   -6.9921   27.3915    5.5670 C   0  0  0  0  0  0  0  0  0  0  0  0
   -6.8158   27.0589    6.7263 O   0  0  0  0  0  0  0  0  0  0  0  0
   -7.1899   28.9599    4.1994 H   0  0  0  0  0  0  0  0  0  0  0  0
   -6.8515   29.8371    6.1146 C   0  0  0  0  0  0  0  0  0  0  0  0
   -6.0569   31.0035    5.6296 C   0  0  0  0  0  0  0  0  0  0  0  0
   -8.6710   29.4652    7.8453 N   0  0  0  0  0  0  0  0  0  0  0  0
   -8.1443   30.2303    6.7333 C   0  0  0  0  0  0  0  0  0  0  0  0
   -8.7181   31.2099    6.3389 O   0  0  0  0  0  0  0  0  0  0  0  0
   -8.1976   28.6703    8.1819 H   0  0  0  0  0  0  0  0  0  0  0  0
   -9.8933   29.8953    8.4381 C   0  0  0  0  0  0  0  0  0  0  0  0
  -13.0212   26.8714    8.4499 C   0  0  0  0  0  0  0  0  0  0  0  0
  -11.7093   26.4911    8.1622 C   0  0  0  0  0  0  0  0  0  0  0  0
  -10.6992   27.4445    8.1433 C   0  0  0  0  0  0  0  0  0  0  0  0
  -13.2904   28.2083    8.7455 C   0  0  0  0  0  0  0  0  0  0  0  0
  -12.2764   29.1630    8.7366 C   0  0  0  0  0  0  0  0  0  0  0  0
  -10.9763   28.8077    8.4349 C   0  0  0  0  0  0  0  0  0  0  0  0
  -13.8774   24.5532    8.1297 N   0  0  0  0  0  0  0  0  0  0  0  0
  -14.1111   25.9027    8.4717 N   0  0  0  0  0  0  0  0  0  0  0  0
  -16.9236   21.5583    8.2710 C   0  0  0  0  0  0  0  0  0  0  0  0
  -15.7000   21.2887    7.6562 C   0  0  0  0  0  0  0  0  0  0  0  0
  -14.6883   22.2946    7.6101 C   0  0  0  0  0  0  0  0  0  0  0  0
  -17.1439   22.8228    8.8562 C   0  0  0  0  0  0  0  0  0  0  0  0
  -16.1476   23.7983    8.8135 C   0  0  0  0  0  0  0  0  0  0  0  0
  -14.9040   23.5297    8.1805 C   0  0  0  0  0  0  0  0  0  0  0  0
  -17.9800   19.4064    9.4064 N   0  0  0  0  0  0  0  0  0  0  0  0
  -18.0746   20.4410    8.3513 C   0  0  0  0  0  0  0  0  0  0  0  0
  -19.0018   20.4408    7.5190 O   0  0  0  0  0  0  0  0  0  0  0  0
  -17.2307   19.4461   10.0437 H   0  0  0  0  0  0  0  0  0  0  0  0
  -18.9241   18.3660    9.5318 C   0  0  0  0  0  0  0  0  0  0  0  0
  -18.1429   17.0763    9.8276 C   0  0  0  0  0  0  0  0  0  0  0  0
  -17.9363   16.2383    8.5534 C   0  0  0  0  0  0  0  0  0  0  0  0
  -16.8451   17.3404   10.5103 C   0  0  0  0  0  0  0  0  0  0  0  0
  -19.9167   18.6621   10.6684 C   0  0  0  0  0  0  0  0  0  0  0  0
  -20.4249   19.7826   10.7267 O   0  0  0  0  0  0  0  0  0  0  0  0
   -7.1516   26.2802    4.5226 C   0  0  0  0  0  0  0  0  0  0  0  0
   -8.4608   26.2461    3.9924 N   0  0  0  0  0  0  0  0  0  0  0  0
   -9.5319   25.6391    4.7424 C   0  0  0  0  0  0  0  0  0  0  0  0
   -9.3059   25.1606    5.8127 O   0  0  0  0  0  0  0  0  0  0  0  0
   -8.6423   26.6382    3.1077 H   0  0  0  0  0  0  0  0  0  0  0  0
  -10.8767   25.5930    4.1706 C   0  0  0  0  0  0  0  0  0  0  0  0
  -10.8299   25.8412    2.6477 C   0  0  0  0  0  0  0  0  0  0  0  0
  -11.6591   26.7003    4.7140 N   0  0  0  0  0  0  0  0  0  0  0  0
  -11.2846   28.1050    4.4039 C   0  0  0  0  0  0  0  0  0  0  0  0
  -10.3200   28.3210    3.6816 O   0  0  0  0  0  0  0  0  0  0  0  0
  -12.4374   26.5156    5.2878 H   0  0  0  0  0  0  0  0  0  0  0  0
  -12.1545   29.3185    5.0104 C   0  0  0  0  0  0  0  0  0  0  0  0
  -11.2594   30.4192    5.1501 N   0  0  0  0  0  0  0  0  0  0  0  0
  -10.8221   30.6181    4.2503 H   0  0  0  0  0  0  0  0  0  0  0  0
  -10.5393   30.1871    5.8342 H   0  0  0  0  0  0  0  0  0  0  0  0
  -13.1759   29.6244    3.9703 C   0  0  0  0  0  0  0  0  0  0  0  0
  -12.4693   30.2973    2.8735 O   0  0  0  0  0  0  0  0  0  0  0  0
  -11.7702   29.7164    2.5348 H   0  0  0  0  0  0  0  0  0  0  0  0
   -6.1757   26.5973    3.3846 C   0  0  0  0  0  0  0  0  0  0  0  0
   -6.9201   26.8909    2.0523 C   0  0  0  0  0  0  0  0  0  0  0  0
   -6.8239   28.3585    1.6087 C   0  0  0  0  0  0  0  0  0  0  0  0
   -8.1164   29.0571    1.5983 N   0  0  0  0  0  0  0  0  0  0  0  0
   -8.9138   28.5784    1.2755 H   0  0  0  0  0  0  0  0  0  0  0  0
   -8.2580   30.4480    2.0541 C   0  0  0  0  0  0  0  0  0  0  0  0
   -9.4361   30.7668    2.6277 N   0  0  0  0  0  0  0  0  0  0  0  0
   -7.2307   31.3789    1.8917 N   0  0  0  0  0  0  0  0  0  0  0  0
   -9.5930   31.6824    2.9538 H   0  0  0  0  0  0  0  0  0  0  0  0
  -10.1393   30.0840    2.7202 H   0  0  0  0  0  0  0  0  0  0  0  0
   -7.3508   32.3042    2.2057 H   0  0  0  0  0  0  0  0  0  0  0  0
 61 59  2  0  0  0
 59 60  1  0  0  0
 59 57  1  0  0  0
 57 56  1  0  0  0
 56 55  1  0  0  0
 55 54  1  0  0  0
 54 36  1  0  0  0
 52 51  1  0  0  0
 51 47  1  0  0  0
 36 37  1  0  0  0
 36  2  1  0  0  0
 37 38  1  0  0  0
 47 48  1  0  0  0
 47 44  1  0  0  0
  2  3  2  0  0  0
  2  1  1  0  0  0
  1  5  1  0  0  0
  6  5  1  0  0  0
 43 44  1  0  0  0
 43 41  1  0  0  0
  5  8  1  0  0  0
 44 45  2  0  0  0
 38 41  1  0  0  0
 38 39  2  0  0  0
 42 41  1  0  0  0
  8  9  2  0  0  0
  8  7  1  0  0  0
  7 11  1  0  0  0
 14 13  2  0  0  0
 14 17  1  0  0  0
 13 12  1  0  0  0
 11 17  1  0  0  0
 17 16  2  0  0  0
 12 19  1  0  0  0
 12 15  2  0  0  0
 19 18  2  0  0  0
 16 15  1  0  0  0
 22 21  2  0  0  0
 22 25  1  0  0  0
 21 20  1  0  0  0
 18 25  1  0  0  0
 25 24  2  0  0  0
 28 27  2  0  0  0
 20 27  1  0  0  0
 20 23  2  0  0  0
 27 26  1  0  0  0
 24 23  1  0  0  0
 26 30  1  0  0  0
 30 34  1  0  0  0
 30 31  1  0  0  0
 32 31  1  0  0  0
 34 35  2  0  0  0
 31 33  1  0  0  0
 26 29  1  0  0  0
  7 10  1  0  0  0
  1  4  1  0  0  0
 57 58  1  0  0  0
 60 62  1  0  0  0
 60 63  1  0  0  0
 61 64  1  0  0  0
 37 40  1  0  0  0
 43 46  1  0  0  0
 48 49  1  0  0  0
 48 50  1  0  0  0
 52 53  1  0  0  0
M  END
> <minimizedAffinity>
-6.24123

$$$$
5M23_7DC_A_401


 64 65  0  0  0  0  0  0  0  0999 V2000
   -5.1918   25.1288    5.1100 N   0  0  0  0  0  0  0  0  0  0  0  0
   -6.4945   25.3175    4.5766 C   0  0  0  0  0  0  0  0  0  0  0  0
   -7.4799   24.7466    5.0111 O   0  0  0  0  0  0  0  0  0  0  0  0
   -4.4321   25.6233    4.7259 H   0  0  0  0  0  0  0  0  0  0  0  0
   -4.9658   24.2046    6.2274 C   0  0  0  0  0  0  0  0  0  0  0  0
   -3.5511   23.7779    6.4365 C   0  0  0  0  0  0  0  0  0  0  0  0
   -6.7575   23.9873    8.0126 N   0  0  0  0  0  0  0  0  0  0  0  0
   -5.6155   24.6955    7.4707 C   0  0  0  0  0  0  0  0  0  0  0  0
   -5.1576   25.6471    8.0445 O   0  0  0  0  0  0  0  0  0  0  0  0
   -7.1278   23.1985    7.5544 H   0  0  0  0  0  0  0  0  0  0  0  0
   -7.3299   24.4644    9.2272 C   0  0  0  0  0  0  0  0  0  0  0  0
  -11.6328   23.8340    9.3484 C   0  0  0  0  0  0  0  0  0  0  0  0
  -10.9935   24.3755   10.4649 C   0  0  0  0  0  0  0  0  0  0  0  0
   -9.6188   24.5741   10.4485 C   0  0  0  0  0  0  0  0  0  0  0  0
  -10.8769   23.5280    8.2162 C   0  0  0  0  0  0  0  0  0  0  0  0
   -9.4999   23.7361    8.1954 C   0  0  0  0  0  0  0  0  0  0  0  0
   -8.8483   24.2527    9.2980 C   0  0  0  0  0  0  0  0  0  0  0  0
  -13.6106   22.4923    8.6427 N   0  0  0  0  0  0  0  0  0  0  0  0
  -13.0725   23.6025    9.3288 N   0  0  0  0  0  0  0  0  0  0  0  0
  -17.7870   21.5854    8.5803 C   0  0  0  0  0  0  0  0  0  0  0  0
  -16.8474   20.5934    8.2962 C   0  0  0  0  0  0  0  0  0  0  0  0
  -15.4544   20.9040    8.3159 C   0  0  0  0  0  0  0  0  0  0  0  0
  -17.3483   22.8874    8.9001 C   0  0  0  0  0  0  0  0  0  0  0  0
  -15.9848   23.1815    8.9245 C   0  0  0  0  0  0  0  0  0  0  0  0
  -15.0261   22.1758    8.6270 C   0  0  0  0  0  0  0  0  0  0  0  0
  -20.1980   21.8359    9.6577 N   0  0  0  0  0  0  0  0  0  0  0  0
  -19.3601   21.2613    8.5805 C   0  0  0  0  0  0  0  0  0  0  0  0
  -19.8429   20.5172    7.7054 O   0  0  0  0  0  0  0  0  0  0  0  0
  -19.7742   22.4198   10.3276 H   0  0  0  0  0  0  0  0  0  0  0  0
  -21.5808   21.5775    9.7593 C   0  0  0  0  0  0  0  0  0  0  0  0
  -21.7943   20.7361   11.0271 C   0  0  0  0  0  0  0  0  0  0  0  0
  -21.6875   19.2301   10.7281 C   0  0  0  0  0  0  0  0  0  0  0  0
  -20.8753   21.1283   12.1325 C   0  0  0  0  0  0  0  0  0  0  0  0
  -22.3775   22.8898    9.8484 C   0  0  0  0  0  0  0  0  0  0  0  0
  -21.9397   23.8829    9.2659 O   0  0  0  0  0  0  0  0  0  0  0  0
   -6.6858   26.2636    3.3852 C   0  0  0  0  0  0  0  0  0  0  0  0
   -8.0500   26.5608    3.1683 N   0  0  0  0  0  0  0  0  0  0  0  0
   -8.7257   26.0563    1.9991 C   0  0  0  0  0  0  0  0  0  0  0  0
   -8.1249   25.3895    1.2117 O   0  0  0  0  0  0  0  0  0  0  0  0
   -8.5408   27.1144    3.8179 H   0  0  0  0  0  0  0  0  0  0  0  0
  -10.1318   26.3906    1.7784 C   0  0  0  0  0  0  0  0  0  0  0  0
  -10.4671   26.3681    0.2716 C   0  0  0  0  0  0  0  0  0  0  0  0
  -10.3608   27.7702    2.1999 N   0  0  0  0  0  0  0  0  0  0  0  0
  -10.9003   28.0598    3.5544 C   0  0  0  0  0  0  0  0  0  0  0  0
  -11.1408   27.1299    4.3134 O   0  0  0  0  0  0  0  0  0  0  0  0
  -10.1571   28.5112    1.5845 H   0  0  0  0  0  0  0  0  0  0  0  0
  -11.1502   29.5861    4.0076 C   0  0  0  0  0  0  0  0  0  0  0  0
  -12.2707   30.0462    3.2558 N   0  0  0  0  0  0  0  0  0  0  0  0
  -13.0627   29.4221    3.4096 H   0  0  0  0  0  0  0  0  0  0  0  0
  -12.0335   30.0565    2.2639 H   0  0  0  0  0  0  0  0  0  0  0  0
  -11.5051   29.5111    5.4522 C   0  0  0  0  0  0  0  0  0  0  0  0
  -12.9251   29.1444    5.5170 O   0  0  0  0  0  0  0  0  0  0  0  0
  -13.0610   28.2963    5.0662 H   0  0  0  0  0  0  0  0  0  0  0  0
   -5.9547   27.5652    3.7303 C   0  0  0  0  0  0  0  0  0  0  0  0
   -6.8956   28.5869    4.4278 C   0  0  0  0  0  0  0  0  0  0  0  0
   -6.4893   28.9031    5.8751 C   0  0  0  0  0  0  0  0  0  0  0  0
   -6.9847   27.9254    6.8535 N   0  0  0  0  0  0  0  0  0  0  0  0
   -6.3340   27.3985    7.3714 H   0  0  0  0  0  0  0  0  0  0  0  0
   -8.4205   27.7082    7.0847 C   0  0  0  0  0  0  0  0  0  0  0  0
   -9.0099   28.5348    7.9723 N   0  0  0  0  0  0  0  0  0  0  0  0
   -9.1227   26.6980    6.4252 N   0  0  0  0  0  0  0  0  0  0  0  0
   -9.9695   28.4405    8.1709 H   0  0  0  0  0  0  0  0  0  0  0  0
   -8.4804   29.2326    8.4218 H   0  0  0  0  0  0  0  0  0  0  0  0
  -10.0840   26.5734    6.5977 H   0  0  0  0  0  0  0  0  0  0  0  0
 61 59  2  0  0  0
 59 60  1  0  0  0
 59 57  1  0  0  0
 57 56  1  0  0  0
 56 55  1  0  0  0
 55 54  1  0  0  0
 54 36  1  0  0  0
 52 51  1  0  0  0
 51 47  1  0  0  0
 36 37  1  0  0  0
 36  2  1  0  0  0
 37 38  1  0  0  0
 47 48  1  0  0  0
 47 44  1  0  0  0
  2  3  2  0  0  0
  2  1  1  0  0  0
  1  5  1  0  0  0
  6  5  1  0  0  0
 43 44  1  0  0  0
 43 41  1  0  0  0
  5  8  1  0  0  0
 44 45  2  0  0  0
 38 41  1  0  0  0
 38 39  2  0  0  0
 42 41  1  0  0  0
  8  9  2  0  0  0
  8  7  1  0  0  0
  7 11  1  0  0  0
 14 13  2  0  0  0
 14 17  1  0  0  0
 13 12  1  0  0  0
 11 17  1  0  0  0
 17 16  2  0  0  0
 12 19  1  0  0  0
 12 15  2  0  0  0
 19 18  2  0  0  0
 16 15  1  0  0  0
 22 21  2  0  0  0
 22 25  1  0  0  0
 21 20  1  0  0  0
 18 25  1  0  0  0
 25 24  2  0  0  0
 28 27  2  0  0  0
 20 27  1  0  0  0
 20 23  2  0  0  0
 27 26  1  0  0  0
 24 23  1  0  0  0
 26 30  1  0  0  0
 30 34  1  0  0  0
 30 31  1  0  0  0
 32 31  1  0  0  0
 34 35  2  0  0  0
 31 33  1  0  0  0
 26 29  1  0  0  0
  7 10  1  0  0  0
  1  4  1  0  0  0
 57 58  1  0  0  0
 60 62  1  0  0  0
 60 63  1  0  0  0
 61 64  1  0  0  0
 37 40  1  0  0  0
 43 46  1  0  0  0
 48 49  1  0  0  0
 48 50  1  0  0  0
 52 53  1  0  0  0
M  END
> <minimizedAffinity>
-6.01298

$$$$
