4HGE_15V_A_1201


 26 29  0  0  0  0  0  0  0  0999 V2000
   54.5803    9.3286    5.9762 C   0  0  0  0  0  0  0  0  0  0  0  0
   55.8137    9.8641    6.3718 C   0  0  0  0  0  0  0  0  0  0  0  0
   56.6298    9.6921    5.2541 C   0  0  0  0  0  0  0  0  0  0  0  0
   53.4231    9.3291    6.9540 C   0  0  0  0  0  0  0  0  0  0  0  0
   55.9196    9.1392    4.2987 N   0  0  0  0  0  0  0  0  0  0  0  0
   54.6197    8.8873    4.7127 N   0  0  0  0  0  0  0  0  0  0  0  0
   57.0444    9.5415    0.8588 C   0  0  0  0  0  0  0  0  0  0  0  0
   56.2980    8.8345    3.0625 C   0  0  0  0  0  0  0  0  0  0  0  0
   56.6679    9.8232    2.1602 C   0  0  0  0  0  0  0  0  0  0  0  0
   56.6754    5.5072    0.6796 Cl  0  0  0  0  0  0  0  0  0  0  0  0
   56.6723    7.2074    1.2786 C   0  0  0  0  0  0  0  0  0  0  0  0
   57.0590    8.2284    0.4205 C   0  0  0  0  0  0  0  0  0  0  0  0
   56.2966    7.5173    2.5851 C   0  0  0  0  0  0  0  0  0  0  0  0
   58.7578   10.6468    5.9770 C   0  0  0  0  0  0  0  0  0  0  0  0
   57.9344   10.0607    5.0797 N   0  0  0  0  0  0  0  0  0  0  0  0
   58.4477   10.9693    7.1171 O   0  0  0  0  0  0  0  0  0  0  0  0
   58.3211    9.8771    4.1931 H   0  0  0  0  0  0  0  0  0  0  0  0
   62.6568   10.9927    3.2274 C   0  0  0  0  0  0  0  0  0  0  0  0
   60.1421   11.0229    5.5722 C   0  0  0  0  0  0  0  0  0  0  0  0
   61.0671   11.8472    6.1966 C   0  0  0  0  0  0  0  0  0  0  0  0
   60.1405    9.8535    3.3475 N   0  0  0  0  0  0  0  0  0  0  0  0
   61.8552   11.1758    4.2836 N   0  0  0  0  0  0  0  0  0  0  0  0
   60.6528   10.6274    4.3359 C   0  0  0  0  0  0  0  0  0  0  0  0
   62.1745   11.9300    5.4207 N   0  0  0  0  0  0  0  0  0  0  0  0
   60.9084    9.6308    2.2614 C   0  0  0  0  0  0  0  0  0  0  0  0
   62.1944   10.1998    2.1771 C   0  0  0  0  0  0  0  0  0  0  0  0
 12  7  2  0  0  0
 12 11  1  0  0  0
 10 11  1  0  0  0
  7  9  1  0  0  0
 11 13  2  0  0  0
 26 25  1  0  0  0
 26 18  2  0  0  0
 25 21  2  0  0  0
  9  8  2  0  0  0
 13  8  1  0  0  0
 18 22  1  0  0  0
  8  5  1  0  0  0
 21 23  1  0  0  0
 22 23  1  0  0  0
 22 24  1  0  0  0
 23 19  2  0  0  0
  5  6  1  0  0  0
  5  3  1  0  0  0
  6  1  2  0  0  0
 15  3  1  0  0  0
 15 14  1  0  0  0
  3  2  2  0  0  0
 24 20  2  0  0  0
 19 14  1  0  0  0
 19 20  1  0  0  0
 14 16  2  0  0  0
  1  2  1  0  0  0
  1  4  1  0  0  0
 15 17  1  0  0  0
M  END
> <minimizedAffinity>
-9.30075

$$$$
4HGE_15V_A_1201


 26 29  0  0  0  0  0  0  0  0999 V2000
   53.1569    8.5266    5.6061 C   0  0  0  0  0  0  0  0  0  0  0  0
   54.2432    9.0631    6.3107 C   0  0  0  0  0  0  0  0  0  0  0  0
   55.2899    9.0339    5.3896 C   0  0  0  0  0  0  0  0  0  0  0  0
   51.8176    8.3873    6.3006 C   0  0  0  0  0  0  0  0  0  0  0  0
   54.8354    8.5551    4.2551 N   0  0  0  0  0  0  0  0  0  0  0  0
   53.4932    8.2166    4.3478 N   0  0  0  0  0  0  0  0  0  0  0  0
   56.4644    6.9152    1.4413 C   0  0  0  0  0  0  0  0  0  0  0  0
   55.4885    8.3902    3.1104 C   0  0  0  0  0  0  0  0  0  0  0  0
   55.7661    7.1216    2.6180 C   0  0  0  0  0  0  0  0  0  0  0  0
   57.2948   10.6934    0.2252 Cl  0  0  0  0  0  0  0  0  0  0  0  0
   56.6814    9.2913    1.1779 C   0  0  0  0  0  0  0  0  0  0  0  0
   56.9122    8.0035    0.7124 C   0  0  0  0  0  0  0  0  0  0  0  0
   55.9759    9.4729    2.3666 C   0  0  0  0  0  0  0  0  0  0  0  0
   57.0163   10.5472    6.2211 C   0  0  0  0  0  0  0  0  0  0  0  0
   56.5783    9.4644    5.5412 N   0  0  0  0  0  0  0  0  0  0  0  0
   56.3027   11.3503    6.8092 O   0  0  0  0  0  0  0  0  0  0  0  0
   57.2710    8.9199    5.1020 H   0  0  0  0  0  0  0  0  0  0  0  0
   61.5122   10.8761    4.6208 C   0  0  0  0  0  0  0  0  0  0  0  0
   58.4693   10.8797    6.2218 C   0  0  0  0  0  0  0  0  0  0  0  0
   59.2212   11.6155    7.1265 C   0  0  0  0  0  0  0  0  0  0  0  0
   59.0200    9.8572    3.9929 N   0  0  0  0  0  0  0  0  0  0  0  0
   60.4659   11.0303    5.4413 N   0  0  0  0  0  0  0  0  0  0  0  0
   59.2763   10.5398    5.1361 C   0  0  0  0  0  0  0  0  0  0  0  0
   60.4963   11.6932    6.6755 N   0  0  0  0  0  0  0  0  0  0  0  0
   60.0404    9.6671    3.1318 C   0  0  0  0  0  0  0  0  0  0  0  0
   61.3197   10.1761    3.4298 C   0  0  0  0  0  0  0  0  0  0  0  0
 12  7  2  0  0  0
 12 11  1  0  0  0
 10 11  1  0  0  0
  7  9  1  0  0  0
 11 13  2  0  0  0
 26 25  1  0  0  0
 26 18  2  0  0  0
 25 21  2  0  0  0
  9  8  2  0  0  0
 13  8  1  0  0  0
 18 22  1  0  0  0
  8  5  1  0  0  0
 21 23  1  0  0  0
 22 23  1  0  0  0
 22 24  1  0  0  0
 23 19  2  0  0  0
  5  6  1  0  0  0
  5  3  1  0  0  0
  6  1  2  0  0  0
 15  3  1  0  0  0
 15 14  1  0  0  0
  3  2  2  0  0  0
 24 20  2  0  0  0
 19 14  1  0  0  0
 19 20  1  0  0  0
 14 16  2  0  0  0
  1  2  1  0  0  0
  1  4  1  0  0  0
 15 17  1  0  0  0
M  END
> <minimizedAffinity>
-9.22451

$$$$
4HGE_15V_A_1201


 26 29  0  0  0  0  0  0  0  0999 V2000
   56.6535   10.6416    7.8030 C   0  0  0  0  0  0  0  0  0  0  0  0
   56.2015    9.8843    6.7138 C   0  0  0  0  0  0  0  0  0  0  0  0
   57.2598    9.9333    5.8069 C   0  0  0  0  0  0  0  0  0  0  0  0
   55.7498   10.8258    9.0050 C   0  0  0  0  0  0  0  0  0  0  0  0
   58.2371   10.6272    6.3417 N   0  0  0  0  0  0  0  0  0  0  0  0
   57.8957   11.0985    7.6011 N   0  0  0  0  0  0  0  0  0  0  0  0
   61.4852   12.1975    5.8475 C   0  0  0  0  0  0  0  0  0  0  0  0
   59.4360   10.8882    5.8331 C   0  0  0  0  0  0  0  0  0  0  0  0
   60.2418   11.8849    6.3680 C   0  0  0  0  0  0  0  0  0  0  0  0
   61.8112    9.6343    2.7222 Cl  0  0  0  0  0  0  0  0  0  0  0  0
   61.1812   10.5126    4.1648 C   0  0  0  0  0  0  0  0  0  0  0  0
   61.9618   11.5005    4.7505 C   0  0  0  0  0  0  0  0  0  0  0  0
   59.9315   10.2167    4.7077 C   0  0  0  0  0  0  0  0  0  0  0  0
   56.7715    9.7132    3.4246 C   0  0  0  0  0  0  0  0  0  0  0  0
   57.3660    9.3408    4.5797 N   0  0  0  0  0  0  0  0  0  0  0  0
   56.0027   10.6580    3.2966 O   0  0  0  0  0  0  0  0  0  0  0  0
   57.9457    8.5465    4.5315 H   0  0  0  0  0  0  0  0  0  0  0  0
   55.6541    7.0211   -0.3683 C   0  0  0  0  0  0  0  0  0  0  0  0
   56.9730    8.8962    2.1944 C   0  0  0  0  0  0  0  0  0  0  0  0
   58.1160    8.6792    1.4383 C   0  0  0  0  0  0  0  0  0  0  0  0
   54.5693    8.2411    1.8629 N   0  0  0  0  0  0  0  0  0  0  0  0
   56.4127    7.7170    0.4873 N   0  0  0  0  0  0  0  0  0  0  0  0
   55.8883    8.2976    1.5536 C   0  0  0  0  0  0  0  0  0  0  0  0
   57.7967    7.9046    0.3737 N   0  0  0  0  0  0  0  0  0  0  0  0
   53.7591    7.5474    1.0376 C   0  0  0  0  0  0  0  0  0  0  0  0
   54.2883    6.9164   -0.1054 C   0  0  0  0  0  0  0  0  0  0  0  0
 12  7  2  0  0  0
 12 11  1  0  0  0
 10 11  1  0  0  0
  7  9  1  0  0  0
 11 13  2  0  0  0
 26 25  1  0  0  0
 26 18  2  0  0  0
 25 21  2  0  0  0
  9  8  2  0  0  0
 13  8  1  0  0  0
 18 22  1  0  0  0
  8  5  1  0  0  0
 21 23  1  0  0  0
 22 23  1  0  0  0
 22 24  1  0  0  0
 23 19  2  0  0  0
  5  6  1  0  0  0
  5  3  1  0  0  0
  6  1  2  0  0  0
 15  3  1  0  0  0
 15 14  1  0  0  0
  3  2  2  0  0  0
 24 20  2  0  0  0
 19 14  1  0  0  0
 19 20  1  0  0  0
 14 16  2  0  0  0
  1  2  1  0  0  0
  1  4  1  0  0  0
 15 17  1  0  0  0
M  END
> <minimizedAffinity>
-9.19971

$$$$
4HGE_15V_A_1201


 26 29  0  0  0  0  0  0  0  0999 V2000
   52.8024    8.9166    3.8239 C   0  0  0  0  0  0  0  0  0  0  0  0
   53.9502    9.6589    4.1339 C   0  0  0  0  0  0  0  0  0  0  0  0
   54.9555    9.0564    3.3782 C   0  0  0  0  0  0  0  0  0  0  0  0
   51.4849    9.2793    4.4782 C   0  0  0  0  0  0  0  0  0  0  0  0
   54.4248    8.0814    2.6777 N   0  0  0  0  0  0  0  0  0  0  0  0
   53.0669    7.9538    2.9320 N   0  0  0  0  0  0  0  0  0  0  0  0
   56.7006    5.5909    1.3072 C   0  0  0  0  0  0  0  0  0  0  0  0
   55.0195    7.2762    1.8048 C   0  0  0  0  0  0  0  0  0  0  0  0
   56.0448    6.4248    2.1956 C   0  0  0  0  0  0  0  0  0  0  0  0
   54.8885    6.4459   -2.2183 Cl  0  0  0  0  0  0  0  0  0  0  0  0
   55.3324    6.4443   -0.4711 C   0  0  0  0  0  0  0  0  0  0  0  0
   56.3346    5.5913   -0.0279 C   0  0  0  0  0  0  0  0  0  0  0  0
   54.6872    7.2754    0.4437 C   0  0  0  0  0  0  0  0  0  0  0  0
   57.3007    8.9740    4.0527 C   0  0  0  0  0  0  0  0  0  0  0  0
   56.2756    9.3967    3.2800 N   0  0  0  0  0  0  0  0  0  0  0  0
   57.2011    8.2117    5.0062 O   0  0  0  0  0  0  0  0  0  0  0  0
   56.5079   10.0258    2.5593 H   0  0  0  0  0  0  0  0  0  0  0  0
   61.3784   11.3197    4.9201 C   0  0  0  0  0  0  0  0  0  0  0  0
   58.6718    9.5088    3.8166 C   0  0  0  0  0  0  0  0  0  0  0  0
   59.5690    9.2562    2.7888 C   0  0  0  0  0  0  0  0  0  0  0  0
   58.8641   10.8170    5.9540 N   0  0  0  0  0  0  0  0  0  0  0  0
   60.4952   10.5517    4.2706 N   0  0  0  0  0  0  0  0  0  0  0  0
   59.2935   10.3155    4.7696 C   0  0  0  0  0  0  0  0  0  0  0  0
   60.7164    9.9342    3.0323 N   0  0  0  0  0  0  0  0  0  0  0  0
   59.7119   11.6031    6.6484 C   0  0  0  0  0  0  0  0  0  0  0  0
   60.9982   11.8744    6.1420 C   0  0  0  0  0  0  0  0  0  0  0  0
 12  7  2  0  0  0
 12 11  1  0  0  0
 10 11  1  0  0  0
  7  9  1  0  0  0
 11 13  2  0  0  0
 26 25  1  0  0  0
 26 18  2  0  0  0
 25 21  2  0  0  0
  9  8  2  0  0  0
 13  8  1  0  0  0
 18 22  1  0  0  0
  8  5  1  0  0  0
 21 23  1  0  0  0
 22 23  1  0  0  0
 22 24  1  0  0  0
 23 19  2  0  0  0
  5  6  1  0  0  0
  5  3  1  0  0  0
  6  1  2  0  0  0
 15  3  1  0  0  0
 15 14  1  0  0  0
  3  2  2  0  0  0
 24 20  2  0  0  0
 19 14  1  0  0  0
 19 20  1  0  0  0
 14 16  2  0  0  0
  1  2  1  0  0  0
  1  4  1  0  0  0
 15 17  1  0  0  0
M  END
> <minimizedAffinity>
-8.96889

$$$$
4HGE_15V_A_1201


 26 29  0  0  0  0  0  0  0  0999 V2000
   61.7113   10.1598    2.8654 C   0  0  0  0  0  0  0  0  0  0  0  0
   61.1471   10.3273    4.1374 C   0  0  0  0  0  0  0  0  0  0  0  0
   59.7864   10.0978    3.9354 C   0  0  0  0  0  0  0  0  0  0  0  0
   63.2042   10.3446    2.6855 C   0  0  0  0  0  0  0  0  0  0  0  0
   59.5962    9.7961    2.6723 N   0  0  0  0  0  0  0  0  0  0  0  0
   60.7848    9.8281    1.9576 N   0  0  0  0  0  0  0  0  0  0  0  0
   56.7540    9.9638    0.4020 C   0  0  0  0  0  0  0  0  0  0  0  0
   58.4597    9.4743    2.0647 C   0  0  0  0  0  0  0  0  0  0  0  0
   57.9464   10.2580    1.0394 C   0  0  0  0  0  0  0  0  0  0  0  0
   55.5185    6.6157    2.3275 Cl  0  0  0  0  0  0  0  0  0  0  0  0
   56.4897    8.0490    1.8255 C   0  0  0  0  0  0  0  0  0  0  0  0
   56.0299    8.8487    0.7875 C   0  0  0  0  0  0  0  0  0  0  0  0
   57.6938    8.3670    2.4523 C   0  0  0  0  0  0  0  0  0  0  0  0
   58.6114   10.9348    5.9054 C   0  0  0  0  0  0  0  0  0  0  0  0
   58.7701   10.1065    4.8494 N   0  0  0  0  0  0  0  0  0  0  0  0
   59.3894   11.8226    6.2320 O   0  0  0  0  0  0  0  0  0  0  0  0
   58.0688    9.4271    4.7231 H   0  0  0  0  0  0  0  0  0  0  0  0
   54.2136    9.7126    7.3364 C   0  0  0  0  0  0  0  0  0  0  0  0
   57.4530   10.7454    6.8240 C   0  0  0  0  0  0  0  0  0  0  0  0
   57.3675   10.8868    8.2016 C   0  0  0  0  0  0  0  0  0  0  0  0
   55.8256    9.9126    5.0992 N   0  0  0  0  0  0  0  0  0  0  0  0
   55.4759   10.1501    7.4200 N   0  0  0  0  0  0  0  0  0  0  0  0
   56.2420   10.2446    6.3462 C   0  0  0  0  0  0  0  0  0  0  0  0
   56.1162   10.5532    8.5995 N   0  0  0  0  0  0  0  0  0  0  0  0
   54.5594    9.4711    4.9559 C   0  0  0  0  0  0  0  0  0  0  0  0
   53.7184    9.3611    6.0808 C   0  0  0  0  0  0  0  0  0  0  0  0
 12  7  2  0  0  0
 12 11  1  0  0  0
 10 11  1  0  0  0
  7  9  1  0  0  0
 11 13  2  0  0  0
 26 25  1  0  0  0
 26 18  2  0  0  0
 25 21  2  0  0  0
  9  8  2  0  0  0
 13  8  1  0  0  0
 18 22  1  0  0  0
  8  5  1  0  0  0
 21 23  1  0  0  0
 22 23  1  0  0  0
 22 24  1  0  0  0
 23 19  2  0  0  0
  5  6  1  0  0  0
  5  3  1  0  0  0
  6  1  2  0  0  0
 15  3  1  0  0  0
 15 14  1  0  0  0
  3  2  2  0  0  0
 24 20  2  0  0  0
 19 14  1  0  0  0
 19 20  1  0  0  0
 14 16  2  0  0  0
  1  2  1  0  0  0
  1  4  1  0  0  0
 15 17  1  0  0  0
M  END
> <minimizedAffinity>
-8.87910

$$$$
4HGE_15V_A_1201


 26 29  0  0  0  0  0  0  0  0999 V2000
   55.3199    7.4965    0.8688 C   0  0  0  0  0  0  0  0  0  0  0  0
   56.4719    8.1258    1.3599 C   0  0  0  0  0  0  0  0  0  0  0  0
   56.0470    8.7318    2.5419 C   0  0  0  0  0  0  0  0  0  0  0  0
   55.3925    6.7283   -0.4350 C   0  0  0  0  0  0  0  0  0  0  0  0
   54.7786    8.4481    2.7248 N   0  0  0  0  0  0  0  0  0  0  0  0
   54.2766    7.6736    1.6890 N   0  0  0  0  0  0  0  0  0  0  0  0
   53.5183    8.7927    6.1238 C   0  0  0  0  0  0  0  0  0  0  0  0
   53.9949    8.7960    3.7392 C   0  0  0  0  0  0  0  0  0  0  0  0
   54.3240    8.4658    5.0474 C   0  0  0  0  0  0  0  0  0  0  0  0
   50.3905   10.6723    4.3553 Cl  0  0  0  0  0  0  0  0  0  0  0  0
   51.9491    9.8047    4.6151 C   0  0  0  0  0  0  0  0  0  0  0  0
   52.3336    9.4755    5.9083 C   0  0  0  0  0  0  0  0  0  0  0  0
   52.7781    9.4636    3.5473 C   0  0  0  0  0  0  0  0  0  0  0  0
   57.5523    9.0004    4.4456 C   0  0  0  0  0  0  0  0  0  0  0  0
   56.7734    9.4606    3.4415 N   0  0  0  0  0  0  0  0  0  0  0  0
   57.7177    7.8204    4.7293 O   0  0  0  0  0  0  0  0  0  0  0  0
   56.7233   10.4392    3.3466 H   0  0  0  0  0  0  0  0  0  0  0  0
   60.9404   11.9366    6.1134 C   0  0  0  0  0  0  0  0  0  0  0  0
   58.2249    9.9666    5.3597 C   0  0  0  0  0  0  0  0  0  0  0  0
   57.7390   10.6348    6.4744 C   0  0  0  0  0  0  0  0  0  0  0  0
   60.3977   10.1154    4.1053 N   0  0  0  0  0  0  0  0  0  0  0  0
   59.7665   11.2969    6.0471 N   0  0  0  0  0  0  0  0  0  0  0  0
   59.5129   10.4259    5.0847 C   0  0  0  0  0  0  0  0  0  0  0  0
   58.7072   11.4538    6.9509 N   0  0  0  0  0  0  0  0  0  0  0  0
   61.5997   10.7266    4.1269 C   0  0  0  0  0  0  0  0  0  0  0  0
   61.9001   11.6579    5.1404 C   0  0  0  0  0  0  0  0  0  0  0  0
 12  7  2  0  0  0
 12 11  1  0  0  0
 10 11  1  0  0  0
  7  9  1  0  0  0
 11 13  2  0  0  0
 26 25  1  0  0  0
 26 18  2  0  0  0
 25 21  2  0  0  0
  9  8  2  0  0  0
 13  8  1  0  0  0
 18 22  1  0  0  0
  8  5  1  0  0  0
 21 23  1  0  0  0
 22 23  1  0  0  0
 22 24  1  0  0  0
 23 19  2  0  0  0
  5  6  1  0  0  0
  5  3  1  0  0  0
  6  1  2  0  0  0
 15  3  1  0  0  0
 15 14  1  0  0  0
  3  2  2  0  0  0
 24 20  2  0  0  0
 19 14  1  0  0  0
 19 20  1  0  0  0
 14 16  2  0  0  0
  1  2  1  0  0  0
  1  4  1  0  0  0
 15 17  1  0  0  0
M  END
> <minimizedAffinity>
-8.80205

$$$$
4HGE_15V_A_1201


 26 29  0  0  0  0  0  0  0  0999 V2000
   52.1420    9.0581    3.6444 C   0  0  0  0  0  0  0  0  0  0  0  0
   53.2382    9.7049    4.2312 C   0  0  0  0  0  0  0  0  0  0  0  0
   54.3445    9.1076    3.6278 C   0  0  0  0  0  0  0  0  0  0  0  0
   50.7393    9.4430    4.0679 C   0  0  0  0  0  0  0  0  0  0  0  0
   53.9190    8.2246    2.7549 N   0  0  0  0  0  0  0  0  0  0  0  0
   52.5335    8.1563    2.7354 N   0  0  0  0  0  0  0  0  0  0  0  0
   56.4898    5.9232    1.5911 C   0  0  0  0  0  0  0  0  0  0  0  0
   54.6371    7.4589    1.9411 C   0  0  0  0  0  0  0  0  0  0  0  0
   55.7075    6.7122    2.4158 C   0  0  0  0  0  0  0  0  0  0  0  0
   54.8345    6.5377   -2.0594 Cl  0  0  0  0  0  0  0  0  0  0  0  0
   55.1657    6.6122   -0.2890 C   0  0  0  0  0  0  0  0  0  0  0  0
   56.2101    5.8629    0.2366 C   0  0  0  0  0  0  0  0  0  0  0  0
   54.3926    7.4000    0.5628 C   0  0  0  0  0  0  0  0  0  0  0  0
   56.3508    9.4428    4.9786 C   0  0  0  0  0  0  0  0  0  0  0  0
   55.6718    9.3772    3.8119 N   0  0  0  0  0  0  0  0  0  0  0  0
   55.8631    9.2868    6.0912 O   0  0  0  0  0  0  0  0  0  0  0  0
   56.1968    9.5439    2.9958 H   0  0  0  0  0  0  0  0  0  0  0  0
   60.7744   10.0893    3.2768 C   0  0  0  0  0  0  0  0  0  0  0  0
   57.7959    9.8077    4.9716 C   0  0  0  0  0  0  0  0  0  0  0  0
   58.5676   10.4361    5.9384 C   0  0  0  0  0  0  0  0  0  0  0  0
   58.2802    9.1014    2.6087 N   0  0  0  0  0  0  0  0  0  0  0  0
   59.7577   10.1085    4.1473 N   0  0  0  0  0  0  0  0  0  0  0  0
   58.5670    9.6335    3.8224 C   0  0  0  0  0  0  0  0  0  0  0  0
   59.8227   10.6037    5.4566 N   0  0  0  0  0  0  0  0  0  0  0  0
   59.2702    9.0513    1.6942 C   0  0  0  0  0  0  0  0  0  0  0  0
   60.5499    9.5478    2.0112 C   0  0  0  0  0  0  0  0  0  0  0  0
 12  7  2  0  0  0
 12 11  1  0  0  0
 10 11  1  0  0  0
  7  9  1  0  0  0
 11 13  2  0  0  0
 26 25  1  0  0  0
 26 18  2  0  0  0
 25 21  2  0  0  0
  9  8  2  0  0  0
 13  8  1  0  0  0
 18 22  1  0  0  0
  8  5  1  0  0  0
 21 23  1  0  0  0
 22 23  1  0  0  0
 22 24  1  0  0  0
 23 19  2  0  0  0
  5  6  1  0  0  0
  5  3  1  0  0  0
  6  1  2  0  0  0
 15  3  1  0  0  0
 15 14  1  0  0  0
  3  2  2  0  0  0
 24 20  2  0  0  0
 19 14  1  0  0  0
 19 20  1  0  0  0
 14 16  2  0  0  0
  1  2  1  0  0  0
  1  4  1  0  0  0
 15 17  1  0  0  0
M  END
> <minimizedAffinity>
-8.74072

$$$$
4HGE_15V_A_1201


 26 29  0  0  0  0  0  0  0  0999 V2000
   56.6051   11.0547    8.8556 C   0  0  0  0  0  0  0  0  0  0  0  0
   55.8142   10.4044    7.8986 C   0  0  0  0  0  0  0  0  0  0  0  0
   56.6443   10.3123    6.7817 C   0  0  0  0  0  0  0  0  0  0  0  0
   56.0247   11.3457   10.2244 C   0  0  0  0  0  0  0  0  0  0  0  0
   57.8108   10.8328    7.0834 N   0  0  0  0  0  0  0  0  0  0  0  0
   57.8295   11.3190    8.3826 N   0  0  0  0  0  0  0  0  0  0  0  0
   61.0808   11.8899    5.8793 C   0  0  0  0  0  0  0  0  0  0  0  0
   58.8961   10.9182    6.3224 C   0  0  0  0  0  0  0  0  0  0  0  0
   59.9470   11.7602    6.6619 C   0  0  0  0  0  0  0  0  0  0  0  0
   60.3064    9.4017    2.7724 Cl  0  0  0  0  0  0  0  0  0  0  0  0
   60.1536   10.3243    4.3136 C   0  0  0  0  0  0  0  0  0  0  0  0
   61.1900   11.1600    4.7081 C   0  0  0  0  0  0  0  0  0  0  0  0
   59.0213   10.2114    5.1192 C   0  0  0  0  0  0  0  0  0  0  0  0
   55.1978    9.3175    5.0845 C   0  0  0  0  0  0  0  0  0  0  0  0
   56.3870    9.7419    5.5664 N   0  0  0  0  0  0  0  0  0  0  0  0
   54.1334    9.3592    5.6890 O   0  0  0  0  0  0  0  0  0  0  0  0
   57.1617    9.6263    4.9700 H   0  0  0  0  0  0  0  0  0  0  0  0
   56.1432    8.5403    0.4602 C   0  0  0  0  0  0  0  0  0  0  0  0
   55.1345    8.6672    3.7449 C   0  0  0  0  0  0  0  0  0  0  0  0
   54.5287    7.4831    3.3497 C   0  0  0  0  0  0  0  0  0  0  0  0
   56.6245   10.2948    2.5419 N   0  0  0  0  0  0  0  0  0  0  0  0
   55.6187    8.3446    1.6760 N   0  0  0  0  0  0  0  0  0  0  0  0
   55.8517    9.1879    2.6678 C   0  0  0  0  0  0  0  0  0  0  0  0
   54.7876    7.2754    2.0363 N   0  0  0  0  0  0  0  0  0  0  0  0
   57.1738   10.5443    1.3357 C   0  0  0  0  0  0  0  0  0  0  0  0
   56.9426    9.6655    0.2592 C   0  0  0  0  0  0  0  0  0  0  0  0
 12  7  2  0  0  0
 12 11  1  0  0  0
 10 11  1  0  0  0
  7  9  1  0  0  0
 11 13  2  0  0  0
 26 25  1  0  0  0
 26 18  2  0  0  0
 25 21  2  0  0  0
  9  8  2  0  0  0
 13  8  1  0  0  0
 18 22  1  0  0  0
  8  5  1  0  0  0
 21 23  1  0  0  0
 22 23  1  0  0  0
 22 24  1  0  0  0
 23 19  2  0  0  0
  5  6  1  0  0  0
  5  3  1  0  0  0
  6  1  2  0  0  0
 15  3  1  0  0  0
 15 14  1  0  0  0
  3  2  2  0  0  0
 24 20  2  0  0  0
 19 14  1  0  0  0
 19 20  1  0  0  0
 14 16  2  0  0  0
  1  2  1  0  0  0
  1  4  1  0  0  0
 15 17  1  0  0  0
M  END
> <minimizedAffinity>
-8.68217

$$$$
4HGE_15V_A_1201


 26 29  0  0  0  0  0  0  0  0999 V2000
   52.8798    9.1840    5.5733 C   0  0  0  0  0  0  0  0  0  0  0  0
   53.9582    9.2142    4.6787 C   0  0  0  0  0  0  0  0  0  0  0  0
   54.9797    9.8283    5.4027 C   0  0  0  0  0  0  0  0  0  0  0  0
   51.5617    8.5852    5.1270 C   0  0  0  0  0  0  0  0  0  0  0  0
   54.5356   10.0949    6.6087 N   0  0  0  0  0  0  0  0  0  0  0  0
   53.2115    9.7093    6.7594 N   0  0  0  0  0  0  0  0  0  0  0  0
   56.9898   10.5592    9.2585 C   0  0  0  0  0  0  0  0  0  0  0  0
   55.1908   10.6453    7.6245 C   0  0  0  0  0  0  0  0  0  0  0  0
   56.2993   10.0243    8.1853 C   0  0  0  0  0  0  0  0  0  0  0  0
   54.9176   13.9546   10.0465 Cl  0  0  0  0  0  0  0  0  0  0  0  0
   55.4554   12.4049    9.2990 C   0  0  0  0  0  0  0  0  0  0  0  0
   56.5743   11.7595    9.8088 C   0  0  0  0  0  0  0  0  0  0  0  0
   54.7765   11.8452    8.2174 C   0  0  0  0  0  0  0  0  0  0  0  0
   57.2424    9.2019    4.7321 C   0  0  0  0  0  0  0  0  0  0  0  0
   56.2652   10.0902    5.0191 N   0  0  0  0  0  0  0  0  0  0  0  0
   57.1320    7.9836    4.7932 O   0  0  0  0  0  0  0  0  0  0  0  0
   56.5088   11.0411    4.9427 H   0  0  0  0  0  0  0  0  0  0  0  0
   61.4345   11.4493    5.2400 C   0  0  0  0  0  0  0  0  0  0  0  0
   58.6059    9.6923    4.3828 C   0  0  0  0  0  0  0  0  0  0  0  0
   59.4171    9.3920    3.2979 C   0  0  0  0  0  0  0  0  0  0  0  0
   58.9915   11.0409    6.4683 N   0  0  0  0  0  0  0  0  0  0  0  0
   60.4852   10.6927    4.6759 N   0  0  0  0  0  0  0  0  0  0  0  0
   59.3180   10.5017    5.2678 C   0  0  0  0  0  0  0  0  0  0  0  0
   60.5970   10.0423    3.4398 N   0  0  0  0  0  0  0  0  0  0  0  0
   59.9093   11.8175    7.0793 C   0  0  0  0  0  0  0  0  0  0  0  0
   61.1611   12.0412    6.4731 C   0  0  0  0  0  0  0  0  0  0  0  0
 12  7  2  0  0  0
 12 11  1  0  0  0
 10 11  1  0  0  0
  7  9  1  0  0  0
 11 13  2  0  0  0
 26 25  1  0  0  0
 26 18  2  0  0  0
 25 21  2  0  0  0
  9  8  2  0  0  0
 13  8  1  0  0  0
 18 22  1  0  0  0
  8  5  1  0  0  0
 21 23  1  0  0  0
 22 23  1  0  0  0
 22 24  1  0  0  0
 23 19  2  0  0  0
  5  6  1  0  0  0
  5  3  1  0  0  0
  6  1  2  0  0  0
 15  3  1  0  0  0
 15 14  1  0  0  0
  3  2  2  0  0  0
 24 20  2  0  0  0
 19 14  1  0  0  0
 19 20  1  0  0  0
 14 16  2  0  0  0
  1  2  1  0  0  0
  1  4  1  0  0  0
 15 17  1  0  0  0
M  END
> <minimizedAffinity>
-8.34657

$$$$
4HGE_15V_A_1201


 26 29  0  0  0  0  0  0  0  0999 V2000
   52.0120    9.5135    5.0464 C   0  0  0  0  0  0  0  0  0  0  0  0
   52.7217    9.3225    3.8531 C   0  0  0  0  0  0  0  0  0  0  0  0
   54.0404    9.6224    4.1936 C   0  0  0  0  0  0  0  0  0  0  0  0
   50.5140    9.2872    5.0634 C   0  0  0  0  0  0  0  0  0  0  0  0
   54.0843    9.9253    5.4700 N   0  0  0  0  0  0  0  0  0  0  0  0
   52.8241    9.8742    6.0479 N   0  0  0  0  0  0  0  0  0  0  0  0
   57.3891   11.1597    6.3726 C   0  0  0  0  0  0  0  0  0  0  0  0
   55.1446   10.2389    6.2060 C   0  0  0  0  0  0  0  0  0  0  0  0
   56.2598   10.8416    5.6389 C   0  0  0  0  0  0  0  0  0  0  0  0
   56.4279    9.8617   10.0921 Cl  0  0  0  0  0  0  0  0  0  0  0  0
   56.3466   10.2474    8.3331 C   0  0  0  0  0  0  0  0  0  0  0  0
   57.4276   10.8734    7.7264 C   0  0  0  0  0  0  0  0  0  0  0  0
   55.2206    9.9366    7.5719 C   0  0  0  0  0  0  0  0  0  0  0  0
   55.7559    8.4859    2.8792 C   0  0  0  0  0  0  0  0  0  0  0  0
   55.1602    9.5762    3.4111 N   0  0  0  0  0  0  0  0  0  0  0  0
   55.3861    7.3290    3.0376 O   0  0  0  0  0  0  0  0  0  0  0  0
   55.5841   10.4418    3.2107 H   0  0  0  0  0  0  0  0  0  0  0  0
   60.3629    9.4042    1.9769 C   0  0  0  0  0  0  0  0  0  0  0  0
   57.0121    8.6417    2.0923 C   0  0  0  0  0  0  0  0  0  0  0  0
   57.2901    8.3181    0.7720 C   0  0  0  0  0  0  0  0  0  0  0  0
   58.4544    9.4712    3.9760 N   0  0  0  0  0  0  0  0  0  0  0  0
   59.0966    9.0358    1.7483 N   0  0  0  0  0  0  0  0  0  0  0  0
   58.1876    9.0709    2.7083 C   0  0  0  0  0  0  0  0  0  0  0  0
   58.5919    8.5936    0.5181 N   0  0  0  0  0  0  0  0  0  0  0  0
   59.7141    9.8594    4.2609 C   0  0  0  0  0  0  0  0  0  0  0  0
   60.7041    9.8348    3.2590 C   0  0  0  0  0  0  0  0  0  0  0  0
 12  7  2  0  0  0
 12 11  1  0  0  0
 10 11  1  0  0  0
  7  9  1  0  0  0
 11 13  2  0  0  0
 26 25  1  0  0  0
 26 18  2  0  0  0
 25 21  2  0  0  0
  9  8  2  0  0  0
 13  8  1  0  0  0
 18 22  1  0  0  0
  8  5  1  0  0  0
 21 23  1  0  0  0
 22 23  1  0  0  0
 22 24  1  0  0  0
 23 19  2  0  0  0
  5  6  1  0  0  0
  5  3  1  0  0  0
  6  1  2  0  0  0
 15  3  1  0  0  0
 15 14  1  0  0  0
  3  2  2  0  0  0
 24 20  2  0  0  0
 19 14  1  0  0  0
 19 20  1  0  0  0
 14 16  2  0  0  0
  1  2  1  0  0  0
  1  4  1  0  0  0
 15 17  1  0  0  0
M  END
> <minimizedAffinity>
-8.29684

$$$$
