1EBY_BEB_B_501


 54 59  0  0  0  0  0  0  0  0999 V2000
   13.7779   23.1982    5.1398 C   0  0  0  0  0  0  0  0  0  0  0  0
   14.0012   22.8802    3.7392 O   0  0  0  0  0  0  0  0  0  0  0  0
   14.6985   23.4537    3.3846 H   0  0  0  0  0  0  0  0  0  0  0  0
   13.3027   24.6504    5.2126 C   0  0  0  0  0  0  0  0  0  0  0  0
   14.2757   25.4174    4.4713 O   0  0  0  0  0  0  0  0  0  0  0  0
   14.3143   25.0940    3.5576 H   0  0  0  0  0  0  0  0  0  0  0  0
   11.8612   24.8327    4.5901 C   0  0  0  0  0  0  0  0  0  0  0  0
   10.7702   24.8294    5.6543 C   0  0  0  0  0  0  0  0  0  0  0  0
   10.6585   23.8422    6.3663 O   0  0  0  0  0  0  0  0  0  0  0  0
    9.9607   25.8778    5.7269 N   0  0  0  0  0  0  0  0  0  0  0  0
   10.1683   26.6036    5.0949 H   0  0  0  0  0  0  0  0  0  0  0  0
    8.7966   26.1334    6.6031 C   0  0  0  0  0  0  0  0  0  0  0  0
    9.1694   26.8598    7.9032 C   0  0  0  0  0  0  0  0  0  0  0  0
    8.0897   27.6473    8.3859 C   0  0  0  0  0  0  0  0  0  0  0  0
   10.3961   26.8383    8.6274 C   0  0  0  0  0  0  0  0  0  0  0  0
   10.5251   27.6068    9.8257 C   0  0  0  0  0  0  0  0  0  0  0  0
    9.4336   28.3919   10.3005 C   0  0  0  0  0  0  0  0  0  0  0  0
    7.6104   27.0259    6.1493 C   0  0  0  0  0  0  0  0  0  0  0  0
    8.1624   28.1424    5.4056 O   0  0  0  0  0  0  0  0  0  0  0  0
    8.1920   28.4211    9.5785 C   0  0  0  0  0  0  0  0  0  0  0  0
    6.9025   27.5117    7.4505 C   0  0  0  0  0  0  0  0  0  0  0  0
    8.8003   28.6172    5.9610 H   0  0  0  0  0  0  0  0  0  0  0  0
   11.6027   23.7420    3.6343 O   0  0  0  0  0  0  0  0  0  0  0  0
   11.0425   24.1199    2.3493 C   0  0  0  0  0  0  0  0  0  0  0  0
    9.5192   24.2839    2.3234 C   0  0  0  0  0  0  0  0  0  0  0  0
    8.9399   25.4443    1.7509 C   0  0  0  0  0  0  0  0  0  0  0  0
    7.5281   25.6058    1.7367 C   0  0  0  0  0  0  0  0  0  0  0  0
    6.6893   24.6021    2.2998 C   0  0  0  0  0  0  0  0  0  0  0  0
    7.2674   23.4369    2.8755 C   0  0  0  0  0  0  0  0  0  0  0  0
    8.6783   23.2783    2.8875 C   0  0  0  0  0  0  0  0  0  0  0  0
   15.0907   22.9074    5.8970 C   0  0  0  0  0  0  0  0  0  0  0  0
   15.2791   21.4232    5.8853 C   0  0  0  0  0  0  0  0  0  0  0  0
   14.2933   20.7307    6.1120 O   0  0  0  0  0  0  0  0  0  0  0  0
   16.4671   20.9346    5.5699 N   0  0  0  0  0  0  0  0  0  0  0  0
   17.1776   21.6000    5.4229 H   0  0  0  0  0  0  0  0  0  0  0  0
   16.8646   19.5342    5.4107 C   0  0  0  0  0  0  0  0  0  0  0  0
   16.7272   19.0783    3.9583 C   0  0  0  0  0  0  0  0  0  0  0  0
   17.6679   18.0759    3.6329 C   0  0  0  0  0  0  0  0  0  0  0  0
   15.8116   19.5314    2.9645 C   0  0  0  0  0  0  0  0  0  0  0  0
   15.8586   18.9665    1.6577 C   0  0  0  0  0  0  0  0  0  0  0  0
   16.8150   17.9545    1.3525 C   0  0  0  0  0  0  0  0  0  0  0  0
   18.2985   19.0351    5.7182 C   0  0  0  0  0  0  0  0  0  0  0  0
   19.2091   20.0940    5.3477 O   0  0  0  0  0  0  0  0  0  0  0  0
   17.7335   17.4982    2.3413 C   0  0  0  0  0  0  0  0  0  0  0  0
   18.5259   17.7663    4.8471 C   0  0  0  0  0  0  0  0  0  0  0  0
   19.0783   20.3209    4.4138 H   0  0  0  0  0  0  0  0  0  0  0  0
   14.9848   23.4159    7.2595 O   0  0  0  0  0  0  0  0  0  0  0  0
   16.2261   23.4700    8.0232 C   0  0  0  0  0  0  0  0  0  0  0  0
   16.5635   22.1966    8.8168 C   0  0  0  0  0  0  0  0  0  0  0  0
   15.5664   21.5633    9.6209 C   0  0  0  0  0  0  0  0  0  0  0  0
   15.8751   20.3747   10.3443 C   0  0  0  0  0  0  0  0  0  0  0  0
   17.1810   19.8153   10.2641 C   0  0  0  0  0  0  0  0  0  0  0  0
   18.1775   20.4443    9.4647 C   0  0  0  0  0  0  0  0  0  0  0  0
   17.8685   21.6319    8.7415 C   0  0  0  0  0  0  0  0  0  0  0  0
 25 26  2  0  0  0
 25 30  1  0  0  0
 25 24  1  0  0  0
 26 27  1  0  0  0
 27 28  2  0  0  0
 28 29  1  0  0  0
 29 30  2  0  0  0
 49 50  2  0  0  0
 49 54  1  0  0  0
 49 48  1  0  0  0
 50 51  1  0  0  0
 51 52  2  0  0  0
 52 53  1  0  0  0
 53 54  2  0  0  0
 48 47  1  0  0  0
 47 31  1  0  0  0
 31  1  1  0  0  0
 31 32  1  0  0  0
  1  4  1  0  0  0
  1  2  1  0  0  0
  4  7  1  0  0  0
  4  5  1  0  0  0
  7  8  1  0  0  0
  7 23  1  0  0  0
  8  9  2  0  0  0
  8 10  1  0  0  0
 10 12  1  0  0  0
 23 24  1  0  0  0
 32 33  2  0  0  0
 32 34  1  0  0  0
 34 36  1  0  0  0
 36 37  1  0  0  0
 36 42  1  0  0  0
 37 38  2  0  0  0
 37 39  1  0  0  0
 38 44  1  0  0  0
 38 45  1  0  0  0
 39 40  2  0  0  0
 40 41  1  0  0  0
 41 44  2  0  0  0
 42 43  1  0  0  0
 42 45  1  0  0  0
 12 13  1  0  0  0
 12 18  1  0  0  0
 13 14  2  0  0  0
 13 15  1  0  0  0
 14 20  1  0  0  0
 14 21  1  0  0  0
 15 16  2  0  0  0
 16 17  1  0  0  0
 17 20  2  0  0  0
 18 19  1  0  0  0
 18 21  1  0  0  0
 10 11  1  0  0  0
  5  6  1  0  0  0
  2  3  1  0  0  0
 34 35  1  0  0  0
 43 46  1  0  0  0
 19 22  1  0  0  0
M  END
> <minimizedAffinity>
-13.20125

$$$$
1EBY_BEB_B_501


 54 59  0  0  0  0  0  0  0  0999 V2000
   12.8992   24.1586    5.8710 C   0  0  0  0  0  0  0  0  0  0  0  0
   13.1865   25.3268    6.6867 O   0  0  0  0  0  0  0  0  0  0  0  0
   13.4078   26.0760    6.1118 H   0  0  0  0  0  0  0  0  0  0  0  0
   14.1695   23.8184    5.0895 C   0  0  0  0  0  0  0  0  0  0  0  0
   14.6573   25.0747    4.5711 O   0  0  0  0  0  0  0  0  0  0  0  0
   14.8358   25.6807    5.3071 H   0  0  0  0  0  0  0  0  0  0  0  0
   15.2616   23.1345    6.0050 C   0  0  0  0  0  0  0  0  0  0  0  0
   15.2844   21.6195    5.8395 C   0  0  0  0  0  0  0  0  0  0  0  0
   14.2445   21.0018    6.0160 O   0  0  0  0  0  0  0  0  0  0  0  0
   16.4422   21.0359    5.5593 N   0  0  0  0  0  0  0  0  0  0  0  0
   17.1980   21.6553    5.4397 H   0  0  0  0  0  0  0  0  0  0  0  0
   16.7821   19.6053    5.3972 C   0  0  0  0  0  0  0  0  0  0  0  0
   16.6707   19.1206    3.9448 C   0  0  0  0  0  0  0  0  0  0  0  0
   17.5652   18.0475    3.6856 C   0  0  0  0  0  0  0  0  0  0  0  0
   15.8314   19.5982    2.8974 C   0  0  0  0  0  0  0  0  0  0  0  0
   15.8998   18.9947    1.6035 C   0  0  0  0  0  0  0  0  0  0  0  0
   16.8007   17.9175    1.3564 C   0  0  0  0  0  0  0  0  0  0  0  0
   18.1934   19.0555    5.7368 C   0  0  0  0  0  0  0  0  0  0  0  0
   19.1640   20.0409    5.2992 O   0  0  0  0  0  0  0  0  0  0  0  0
   17.6517   17.4275    2.4051 C   0  0  0  0  0  0  0  0  0  0  0  0
   18.3486   17.7223    4.9439 C   0  0  0  0  0  0  0  0  0  0  0  0
   19.0446   20.2139    4.3522 H   0  0  0  0  0  0  0  0  0  0  0  0
   14.9866   23.4590    7.4153 O   0  0  0  0  0  0  0  0  0  0  0  0
   16.1291   23.4988    8.3102 C   0  0  0  0  0  0  0  0  0  0  0  0
   16.5269   22.1517    8.9224 C   0  0  0  0  0  0  0  0  0  0  0  0
   17.8379   21.6460    8.7344 C   0  0  0  0  0  0  0  0  0  0  0  0
   18.2063   20.3909    9.2898 C   0  0  0  0  0  0  0  0  0  0  0  0
   17.2582   19.6349   10.0366 C   0  0  0  0  0  0  0  0  0  0  0  0
   15.9418   20.1392   10.2266 C   0  0  0  0  0  0  0  0  0  0  0  0
   15.5771   21.3939    9.6709 C   0  0  0  0  0  0  0  0  0  0  0  0
   11.6714   24.4923    4.9978 C   0  0  0  0  0  0  0  0  0  0  0  0
   10.5014   24.6139    5.9223 C   0  0  0  0  0  0  0  0  0  0  0  0
   10.3162   23.6986    6.7165 O   0  0  0  0  0  0  0  0  0  0  0  0
    9.7724   25.7170    5.8852 N   0  0  0  0  0  0  0  0  0  0  0  0
   10.0197   26.3696    5.1909 H   0  0  0  0  0  0  0  0  0  0  0  0
    8.6459   26.0953    6.7409 C   0  0  0  0  0  0  0  0  0  0  0  0
    9.1232   26.8007    8.0101 C   0  0  0  0  0  0  0  0  0  0  0  0
    8.1702   27.7304    8.4824 C   0  0  0  0  0  0  0  0  0  0  0  0
   10.3491   26.6310    8.7169 C   0  0  0  0  0  0  0  0  0  0  0  0
   10.5950   27.4013    9.8897 C   0  0  0  0  0  0  0  0  0  0  0  0
    9.6180   28.3320   10.3491 C   0  0  0  0  0  0  0  0  0  0  0  0
    7.5436   27.0812    6.2796 C   0  0  0  0  0  0  0  0  0  0  0  0
    8.1779   28.0689    5.4371 O   0  0  0  0  0  0  0  0  0  0  0  0
    8.3911   28.5069    9.6462 C   0  0  0  0  0  0  0  0  0  0  0  0
    6.9587   27.7308    7.5666 C   0  0  0  0  0  0  0  0  0  0  0  0
    8.8931   28.5021    5.9288 H   0  0  0  0  0  0  0  0  0  0  0  0
   11.4671   23.4260    4.0244 O   0  0  0  0  0  0  0  0  0  0  0  0
   11.2127   23.8493    2.6522 C   0  0  0  0  0  0  0  0  0  0  0  0
    9.7590   24.2488    2.3483 C   0  0  0  0  0  0  0  0  0  0  0  0
    8.6913   23.3349    2.6069 C   0  0  0  0  0  0  0  0  0  0  0  0
    7.3429   23.7111    2.3394 C   0  0  0  0  0  0  0  0  0  0  0  0
    7.0584   25.0025    1.8143 C   0  0  0  0  0  0  0  0  0  0  0  0
    8.1198   25.9155    1.5542 C   0  0  0  0  0  0  0  0  0  0  0  0
    9.4673   25.5394    1.8221 C   0  0  0  0  0  0  0  0  0  0  0  0
 25 26  2  0  0  0
 25 30  1  0  0  0
 25 24  1  0  0  0
 26 27  1  0  0  0
 27 28  2  0  0  0
 28 29  1  0  0  0
 29 30  2  0  0  0
 49 50  2  0  0  0
 49 54  1  0  0  0
 49 48  1  0  0  0
 50 51  1  0  0  0
 51 52  2  0  0  0
 52 53  1  0  0  0
 53 54  2  0  0  0
 48 47  1  0  0  0
 47 31  1  0  0  0
 31  1  1  0  0  0
 31 32  1  0  0  0
  1  4  1  0  0  0
  1  2  1  0  0  0
  4  7  1  0  0  0
  4  5  1  0  0  0
  7  8  1  0  0  0
  7 23  1  0  0  0
  8  9  2  0  0  0
  8 10  1  0  0  0
 10 12  1  0  0  0
 23 24  1  0  0  0
 32 33  2  0  0  0
 32 34  1  0  0  0
 34 36  1  0  0  0
 36 37  1  0  0  0
 36 42  1  0  0  0
 37 38  2  0  0  0
 37 39  1  0  0  0
 38 44  1  0  0  0
 38 45  1  0  0  0
 39 40  2  0  0  0
 40 41  1  0  0  0
 41 44  2  0  0  0
 42 43  1  0  0  0
 42 45  1  0  0  0
 12 13  1  0  0  0
 12 18  1  0  0  0
 13 14  2  0  0  0
 13 15  1  0  0  0
 14 20  1  0  0  0
 14 21  1  0  0  0
 15 16  2  0  0  0
 16 17  1  0  0  0
 17 20  2  0  0  0
 18 19  1  0  0  0
 18 21  1  0  0  0
 10 11  1  0  0  0
  5  6  1  0  0  0
  2  3  1  0  0  0
 34 35  1  0  0  0
 43 46  1  0  0  0
 19 22  1  0  0  0
M  END
> <minimizedAffinity>
-13.12777

$$$$
1EBY_BEB_B_501


 54 59  0  0  0  0  0  0  0  0999 V2000
   13.0700   24.5142    5.3366 C   0  0  0  0  0  0  0  0  0  0  0  0
   13.9960   25.3970    4.6469 O   0  0  0  0  0  0  0  0  0  0  0  0
   13.9281   25.2531    3.6901 H   0  0  0  0  0  0  0  0  0  0  0  0
   13.4872   23.0755    5.0264 C   0  0  0  0  0  0  0  0  0  0  0  0
   13.7597   23.0449    3.6088 O   0  0  0  0  0  0  0  0  0  0  0  0
   14.4635   23.6792    3.4011 H   0  0  0  0  0  0  0  0  0  0  0  0
   14.7664   22.6409    5.8469 C   0  0  0  0  0  0  0  0  0  0  0  0
   15.0332   21.1437    5.7463 C   0  0  0  0  0  0  0  0  0  0  0  0
   14.1013   20.3753    5.9339 O   0  0  0  0  0  0  0  0  0  0  0  0
   16.2747   20.7418    5.5078 N   0  0  0  0  0  0  0  0  0  0  0  0
   16.9247   21.4688    5.3729 H   0  0  0  0  0  0  0  0  0  0  0  0
   16.8410   19.3786    5.4116 C   0  0  0  0  0  0  0  0  0  0  0  0
   16.8279   18.8205    3.9815 C   0  0  0  0  0  0  0  0  0  0  0  0
   17.8859   17.8945    3.7758 C   0  0  0  0  0  0  0  0  0  0  0  0
   15.9371   19.1121    2.9087 C   0  0  0  0  0  0  0  0  0  0  0  0
   16.1184   18.4724    1.6432 C   0  0  0  0  0  0  0  0  0  0  0  0
   17.1832   17.5440    1.4500 C   0  0  0  0  0  0  0  0  0  0  0  0
   18.3175   19.0771    5.7842 C   0  0  0  0  0  0  0  0  0  0  0  0
   19.1238   20.1857    5.3093 O   0  0  0  0  0  0  0  0  0  0  0  0
   18.0875   17.2422    2.5247 C   0  0  0  0  0  0  0  0  0  0  0  0
   18.6943   17.7533    5.0523 C   0  0  0  0  0  0  0  0  0  0  0  0
   18.9910   20.2965    4.3549 H   0  0  0  0  0  0  0  0  0  0  0  0
   14.5815   23.0013    7.2632 O   0  0  0  0  0  0  0  0  0  0  0  0
   15.7848   23.2629    8.0322 C   0  0  0  0  0  0  0  0  0  0  0  0
   16.3598   22.0538    8.7775 C   0  0  0  0  0  0  0  0  0  0  0  0
   17.7291   21.7164    8.6332 C   0  0  0  0  0  0  0  0  0  0  0  0
   18.2628   20.5882    9.3128 C   0  0  0  0  0  0  0  0  0  0  0  0
   17.4224   19.7905   10.1408 C   0  0  0  0  0  0  0  0  0  0  0  0
   16.0479   20.1260   10.2872 C   0  0  0  0  0  0  0  0  0  0  0  0
   15.5180   21.2543    9.6074 C   0  0  0  0  0  0  0  0  0  0  0  0
   11.6442   24.8881    4.8797 C   0  0  0  0  0  0  0  0  0  0  0  0
   11.0441   25.7210    5.9680 C   0  0  0  0  0  0  0  0  0  0  0  0
   11.7229   25.9068    6.9716 O   0  0  0  0  0  0  0  0  0  0  0  0
    9.8544   26.2647    5.7713 N   0  0  0  0  0  0  0  0  0  0  0  0
    9.4094   26.0251    4.9264 H   0  0  0  0  0  0  0  0  0  0  0  0
    9.1119   27.1759    6.6447 C   0  0  0  0  0  0  0  0  0  0  0  0
    7.6159   27.1509    6.3324 C   0  0  0  0  0  0  0  0  0  0  0  0
    6.8371   27.4254    7.4785 C   0  0  0  0  0  0  0  0  0  0  0  0
    6.9690   26.8936    5.0888 C   0  0  0  0  0  0  0  0  0  0  0  0
    5.5464   26.9176    5.0200 C   0  0  0  0  0  0  0  0  0  0  0  0
    4.7808   27.1990    6.1890 C   0  0  0  0  0  0  0  0  0  0  0  0
    9.0716   27.0065    8.1840 C   0  0  0  0  0  0  0  0  0  0  0  0
    9.0846   25.5881    8.4592 O   0  0  0  0  0  0  0  0  0  0  0  0
    5.4217   27.4559    7.4352 C   0  0  0  0  0  0  0  0  0  0  0  0
    7.7476   27.6625    8.6707 C   0  0  0  0  0  0  0  0  0  0  0  0
    8.3357   25.1649    8.0109 H   0  0  0  0  0  0  0  0  0  0  0  0
   10.8729   23.6703    4.6599 O   0  0  0  0  0  0  0  0  0  0  0  0
   10.5304   23.3682    3.2749 C   0  0  0  0  0  0  0  0  0  0  0  0
    9.2680   24.0680    2.7442 C   0  0  0  0  0  0  0  0  0  0  0  0
    9.3694   25.3256    2.0731 C   0  0  0  0  0  0  0  0  0  0  0  0
    8.2009   25.9666    1.5680 C   0  0  0  0  0  0  0  0  0  0  0  0
    6.9284   25.3512    1.7310 C   0  0  0  0  0  0  0  0  0  0  0  0
    6.8233   24.0986    2.4001 C   0  0  0  0  0  0  0  0  0  0  0  0
    7.9914   23.4580    2.9044 C   0  0  0  0  0  0  0  0  0  0  0  0
 25 26  2  0  0  0
 25 30  1  0  0  0
 25 24  1  0  0  0
 26 27  1  0  0  0
 27 28  2  0  0  0
 28 29  1  0  0  0
 29 30  2  0  0  0
 49 50  2  0  0  0
 49 54  1  0  0  0
 49 48  1  0  0  0
 50 51  1  0  0  0
 51 52  2  0  0  0
 52 53  1  0  0  0
 53 54  2  0  0  0
 48 47  1  0  0  0
 47 31  1  0  0  0
 31  1  1  0  0  0
 31 32  1  0  0  0
  1  4  1  0  0  0
  1  2  1  0  0  0
  4  7  1  0  0  0
  4  5  1  0  0  0
  7  8  1  0  0  0
  7 23  1  0  0  0
  8  9  2  0  0  0
  8 10  1  0  0  0
 10 12  1  0  0  0
 23 24  1  0  0  0
 32 33  2  0  0  0
 32 34  1  0  0  0
 34 36  1  0  0  0
 36 37  1  0  0  0
 36 42  1  0  0  0
 37 38  2  0  0  0
 37 39  1  0  0  0
 38 44  1  0  0  0
 38 45  1  0  0  0
 39 40  2  0  0  0
 40 41  1  0  0  0
 41 44  2  0  0  0
 42 43  1  0  0  0
 42 45  1  0  0  0
 12 13  1  0  0  0
 12 18  1  0  0  0
 13 14  2  0  0  0
 13 15  1  0  0  0
 14 20  1  0  0  0
 14 21  1  0  0  0
 15 16  2  0  0  0
 16 17  1  0  0  0
 17 20  2  0  0  0
 18 19  1  0  0  0
 18 21  1  0  0  0
 10 11  1  0  0  0
  5  6  1  0  0  0
  2  3  1  0  0  0
 34 35  1  0  0  0
 43 46  1  0  0  0
 19 22  1  0  0  0
M  END
> <minimizedAffinity>
-12.32250

$$$$
1EBY_BEB_B_501


 54 59  0  0  0  0  0  0  0  0999 V2000
   14.3833   23.3224    5.0793 C   0  0  0  0  0  0  0  0  0  0  0  0
   15.1766   24.4980    4.7615 O   0  0  0  0  0  0  0  0  0  0  0  0
   15.4924   24.9067    5.5825 H   0  0  0  0  0  0  0  0  0  0  0  0
   13.1738   23.7884    5.8918 C   0  0  0  0  0  0  0  0  0  0  0  0
   13.6836   24.7633    6.8269 O   0  0  0  0  0  0  0  0  0  0  0  0
   14.0963   25.4935    6.3398 H   0  0  0  0  0  0  0  0  0  0  0  0
   12.0573   24.4298    4.9750 C   0  0  0  0  0  0  0  0  0  0  0  0
   10.7495   24.6464    5.7272 C   0  0  0  0  0  0  0  0  0  0  0  0
   10.3473   23.7536    6.4588 O   0  0  0  0  0  0  0  0  0  0  0  0
   10.0830   25.7737    5.5161 N   0  0  0  0  0  0  0  0  0  0  0  0
   10.5257   26.4062    4.9052 H   0  0  0  0  0  0  0  0  0  0  0  0
    8.7825   26.2347    6.0494 C   0  0  0  0  0  0  0  0  0  0  0  0
    8.9041   26.9368    7.4093 C   0  0  0  0  0  0  0  0  0  0  0  0
    7.8728   27.8971    7.5918 C   0  0  0  0  0  0  0  0  0  0  0  0
    9.8732   26.7496    8.4365 C   0  0  0  0  0  0  0  0  0  0  0  0
    9.7968   27.5276    9.6332 C   0  0  0  0  0  0  0  0  0  0  0  0
    8.7562   28.4871    9.8049 C   0  0  0  0  0  0  0  0  0  0  0  0
    7.9169   27.2846    5.3024 C   0  0  0  0  0  0  0  0  0  0  0  0
    8.8165   28.2775    4.7461 O   0  0  0  0  0  0  0  0  0  0  0  0
    7.7734   28.6843    8.7758 C   0  0  0  0  0  0  0  0  0  0  0  0
    6.9728   27.9162    6.3701 C   0  0  0  0  0  0  0  0  0  0  0  0
    9.3494   28.6657    5.4575 H   0  0  0  0  0  0  0  0  0  0  0  0
   11.8076   23.5468    3.8227 O   0  0  0  0  0  0  0  0  0  0  0  0
   11.4430   24.1914    2.5740 C   0  0  0  0  0  0  0  0  0  0  0  0
    9.9383   24.3671    2.3442 C   0  0  0  0  0  0  0  0  0  0  0  0
    9.0493   23.2959    2.6130 C   0  0  0  0  0  0  0  0  0  0  0  0
    7.6547   23.4511    2.3889 C   0  0  0  0  0  0  0  0  0  0  0  0
    7.1446   24.6840    1.8911 C   0  0  0  0  0  0  0  0  0  0  0  0
    8.0339   25.7606    1.6199 C   0  0  0  0  0  0  0  0  0  0  0  0
    9.4268   25.6025    1.8456 C   0  0  0  0  0  0  0  0  0  0  0  0
   15.3061   22.3222    5.8070 C   0  0  0  0  0  0  0  0  0  0  0  0
   15.7826   21.3446    4.7796 C   0  0  0  0  0  0  0  0  0  0  0  0
   15.3445   21.4684    3.6414 O   0  0  0  0  0  0  0  0  0  0  0  0
   16.6910   20.4480    5.1267 N   0  0  0  0  0  0  0  0  0  0  0  0
   16.9494   20.4471    6.0767 H   0  0  0  0  0  0  0  0  0  0  0  0
   17.3630   19.4565    4.2841 C   0  0  0  0  0  0  0  0  0  0  0  0
   17.9784   18.3377    5.1241 C   0  0  0  0  0  0  0  0  0  0  0  0
   18.0122   17.1130    4.4208 C   0  0  0  0  0  0  0  0  0  0  0  0
   18.4850   18.3975    6.4549 C   0  0  0  0  0  0  0  0  0  0  0  0
   19.0183   17.2214    7.0560 C   0  0  0  0  0  0  0  0  0  0  0  0
   19.0441   15.9969    6.3266 C   0  0  0  0  0  0  0  0  0  0  0  0
   16.6089   18.6170    3.2228 C   0  0  0  0  0  0  0  0  0  0  0  0
   15.2899   18.3479    3.7477 O   0  0  0  0  0  0  0  0  0  0  0  0
   18.5382   15.9305    4.9964 C   0  0  0  0  0  0  0  0  0  0  0  0
   17.4195   17.3024    3.0354 C   0  0  0  0  0  0  0  0  0  0  0  0
   15.3681   17.8970    4.6030 H   0  0  0  0  0  0  0  0  0  0  0  0
   14.5559   21.6543    6.8640 O   0  0  0  0  0  0  0  0  0  0  0  0
   14.9078   22.0205    8.2311 C   0  0  0  0  0  0  0  0  0  0  0  0
   16.1292   21.2886    8.8121 C   0  0  0  0  0  0  0  0  0  0  0  0
   15.9544   20.1159    9.6098 C   0  0  0  0  0  0  0  0  0  0  0  0
   17.0873   19.4291   10.1354 C   0  0  0  0  0  0  0  0  0  0  0  0
   18.3978   19.9120    9.8634 C   0  0  0  0  0  0  0  0  0  0  0  0
   18.5759   21.0809    9.0699 C   0  0  0  0  0  0  0  0  0  0  0  0
   17.4434   21.7668    8.5443 C   0  0  0  0  0  0  0  0  0  0  0  0
 25 26  2  0  0  0
 25 30  1  0  0  0
 25 24  1  0  0  0
 26 27  1  0  0  0
 27 28  2  0  0  0
 28 29  1  0  0  0
 29 30  2  0  0  0
 49 50  2  0  0  0
 49 54  1  0  0  0
 49 48  1  0  0  0
 50 51  1  0  0  0
 51 52  2  0  0  0
 52 53  1  0  0  0
 53 54  2  0  0  0
 48 47  1  0  0  0
 47 31  1  0  0  0
 31  1  1  0  0  0
 31 32  1  0  0  0
  1  4  1  0  0  0
  1  2  1  0  0  0
  4  7  1  0  0  0
  4  5  1  0  0  0
  7  8  1  0  0  0
  7 23  1  0  0  0
  8  9  2  0  0  0
  8 10  1  0  0  0
 10 12  1  0  0  0
 23 24  1  0  0  0
 32 33  2  0  0  0
 32 34  1  0  0  0
 34 36  1  0  0  0
 36 37  1  0  0  0
 36 42  1  0  0  0
 37 38  2  0  0  0
 37 39  1  0  0  0
 38 44  1  0  0  0
 38 45  1  0  0  0
 39 40  2  0  0  0
 40 41  1  0  0  0
 41 44  2  0  0  0
 42 43  1  0  0  0
 42 45  1  0  0  0
 12 13  1  0  0  0
 12 18  1  0  0  0
 13 14  2  0  0  0
 13 15  1  0  0  0
 14 20  1  0  0  0
 14 21  1  0  0  0
 15 16  2  0  0  0
 16 17  1  0  0  0
 17 20  2  0  0  0
 18 19  1  0  0  0
 18 21  1  0  0  0
 10 11  1  0  0  0
  5  6  1  0  0  0
  2  3  1  0  0  0
 34 35  1  0  0  0
 43 46  1  0  0  0
 19 22  1  0  0  0
M  END
> <minimizedAffinity>
-12.25868

$$$$
1EBY_BEB_B_501


 54 59  0  0  0  0  0  0  0  0999 V2000
   12.5963   24.4437    5.8169 C   0  0  0  0  0  0  0  0  0  0  0  0
   13.0223   24.5568    4.4318 O   0  0  0  0  0  0  0  0  0  0  0  0
   12.7250   23.7770    3.9374 H   0  0  0  0  0  0  0  0  0  0  0  0
   13.2699   23.2032    6.4064 C   0  0  0  0  0  0  0  0  0  0  0  0
   12.3287   22.1236    6.2237 O   0  0  0  0  0  0  0  0  0  0  0  0
   12.1376   22.0178    5.2786 H   0  0  0  0  0  0  0  0  0  0  0  0
   14.6380   22.8746    5.6860 C   0  0  0  0  0  0  0  0  0  0  0  0
   14.8495   21.3756    5.5091 C   0  0  0  0  0  0  0  0  0  0  0  0
   13.8649   20.6527    5.4659 O   0  0  0  0  0  0  0  0  0  0  0  0
   16.0939   20.9187    5.4590 N   0  0  0  0  0  0  0  0  0  0  0  0
   16.7902   21.6134    5.5011 H   0  0  0  0  0  0  0  0  0  0  0  0
   16.6052   19.5349    5.3502 C   0  0  0  0  0  0  0  0  0  0  0  0
   16.6334   19.0152    3.9059 C   0  0  0  0  0  0  0  0  0  0  0  0
   17.6591   18.0492    3.7217 C   0  0  0  0  0  0  0  0  0  0  0  0
   15.8058   19.3734    2.8031 C   0  0  0  0  0  0  0  0  0  0  0  0
   16.0171   18.7594    1.5296 C   0  0  0  0  0  0  0  0  0  0  0  0
   17.0488   17.7903    1.3581 C   0  0  0  0  0  0  0  0  0  0  0  0
   18.0488   19.1592    5.7795 C   0  0  0  0  0  0  0  0  0  0  0  0
   18.9226   20.2431    5.3720 O   0  0  0  0  0  0  0  0  0  0  0  0
   17.8894   17.4212    2.4631 C   0  0  0  0  0  0  0  0  0  0  0  0
   18.4016   17.8394    5.0284 C   0  0  0  0  0  0  0  0  0  0  0  0
   18.8384   20.3844    4.4160 H   0  0  0  0  0  0  0  0  0  0  0  0
   15.7501   23.4259    6.4791 O   0  0  0  0  0  0  0  0  0  0  0  0
   15.5768   23.4447    7.9205 C   0  0  0  0  0  0  0  0  0  0  0  0
   16.1770   22.2484    8.6664 C   0  0  0  0  0  0  0  0  0  0  0  0
   15.3769   21.4977    9.5643 C   0  0  0  0  0  0  0  0  0  0  0  0
   15.9338   20.3955   10.2676 C   0  0  0  0  0  0  0  0  0  0  0  0
   17.2997   20.0419   10.0741 C   0  0  0  0  0  0  0  0  0  0  0  0
   18.1053   20.7935    9.1744 C   0  0  0  0  0  0  0  0  0  0  0  0
   17.5457   21.8937    8.4727 C   0  0  0  0  0  0  0  0  0  0  0  0
   11.0535   24.4096    5.8270 C   0  0  0  0  0  0  0  0  0  0  0  0
   10.6150   24.1879    4.4138 C   0  0  0  0  0  0  0  0  0  0  0  0
   10.7891   23.0704    3.9410 O   0  0  0  0  0  0  0  0  0  0  0  0
   10.0088   25.1736    3.7731 N   0  0  0  0  0  0  0  0  0  0  0  0
    9.9437   26.0252    4.2626 H   0  0  0  0  0  0  0  0  0  0  0  0
    9.4218   25.1649    2.4316 C   0  0  0  0  0  0  0  0  0  0  0  0
    7.9654   24.7022    2.4642 C   0  0  0  0  0  0  0  0  0  0  0  0
    7.2056   25.2913    1.4292 C   0  0  0  0  0  0  0  0  0  0  0  0
    7.3364   23.8010    3.3717 C   0  0  0  0  0  0  0  0  0  0  0  0
    5.9507   23.5072    3.2211 C   0  0  0  0  0  0  0  0  0  0  0  0
    5.2042   24.1117    2.1679 C   0  0  0  0  0  0  0  0  0  0  0  0
    9.2807   26.4483    1.5756 C   0  0  0  0  0  0  0  0  0  0  0  0
    9.0025   27.5389    2.4817 O   0  0  0  0  0  0  0  0  0  0  0  0
    5.8270   25.0142    1.2584 C   0  0  0  0  0  0  0  0  0  0  0  0
    8.0910   26.2072    0.6025 C   0  0  0  0  0  0  0  0  0  0  0  0
    8.2057   27.3363    2.9965 H   0  0  0  0  0  0  0  0  0  0  0  0
   10.5461   25.6744    6.3455 O   0  0  0  0  0  0  0  0  0  0  0  0
   10.9863   26.0416    7.6865 C   0  0  0  0  0  0  0  0  0  0  0  0
   10.0227   26.9515    8.4666 C   0  0  0  0  0  0  0  0  0  0  0  0
   10.3793   27.4356    9.7630 C   0  0  0  0  0  0  0  0  0  0  0  0
    9.4925   28.2911   10.4793 C   0  0  0  0  0  0  0  0  0  0  0  0
    8.2479   28.6662    9.9007 C   0  0  0  0  0  0  0  0  0  0  0  0
    7.8887   28.1849    8.6095 C   0  0  0  0  0  0  0  0  0  0  0  0
    8.7754   27.3302    7.8937 C   0  0  0  0  0  0  0  0  0  0  0  0
 25 26  2  0  0  0
 25 30  1  0  0  0
 25 24  1  0  0  0
 26 27  1  0  0  0
 27 28  2  0  0  0
 28 29  1  0  0  0
 29 30  2  0  0  0
 49 50  2  0  0  0
 49 54  1  0  0  0
 49 48  1  0  0  0
 50 51  1  0  0  0
 51 52  2  0  0  0
 52 53  1  0  0  0
 53 54  2  0  0  0
 48 47  1  0  0  0
 47 31  1  0  0  0
 31  1  1  0  0  0
 31 32  1  0  0  0
  1  4  1  0  0  0
  1  2  1  0  0  0
  4  7  1  0  0  0
  4  5  1  0  0  0
  7  8  1  0  0  0
  7 23  1  0  0  0
  8  9  2  0  0  0
  8 10  1  0  0  0
 10 12  1  0  0  0
 23 24  1  0  0  0
 32 33  2  0  0  0
 32 34  1  0  0  0
 34 36  1  0  0  0
 36 37  1  0  0  0
 36 42  1  0  0  0
 37 38  2  0  0  0
 37 39  1  0  0  0
 38 44  1  0  0  0
 38 45  1  0  0  0
 39 40  2  0  0  0
 40 41  1  0  0  0
 41 44  2  0  0  0
 42 43  1  0  0  0
 42 45  1  0  0  0
 12 13  1  0  0  0
 12 18  1  0  0  0
 13 14  2  0  0  0
 13 15  1  0  0  0
 14 20  1  0  0  0
 14 21  1  0  0  0
 15 16  2  0  0  0
 16 17  1  0  0  0
 17 20  2  0  0  0
 18 19  1  0  0  0
 18 21  1  0  0  0
 10 11  1  0  0  0
  5  6  1  0  0  0
  2  3  1  0  0  0
 34 35  1  0  0  0
 43 46  1  0  0  0
 19 22  1  0  0  0
M  END
> <minimizedAffinity>
-11.98810

$$$$
1EBY_BEB_B_501


 54 59  0  0  0  0  0  0  0  0999 V2000
   13.8867   23.7831    5.4033 C   0  0  0  0  0  0  0  0  0  0  0  0
   14.2561   24.9294    4.5897 O   0  0  0  0  0  0  0  0  0  0  0  0
   14.6205   25.6256    5.1584 H   0  0  0  0  0  0  0  0  0  0  0  0
   12.7990   24.2403    6.3769 C   0  0  0  0  0  0  0  0  0  0  0  0
   13.4362   25.1930    7.2551 O   0  0  0  0  0  0  0  0  0  0  0  0
   13.7876   25.9303    6.7318 H   0  0  0  0  0  0  0  0  0  0  0  0
   11.5772   24.9070    5.6278 C   0  0  0  0  0  0  0  0  0  0  0  0
   10.8248   25.8906    6.5163 C   0  0  0  0  0  0  0  0  0  0  0  0
   11.1976   26.0295    7.6721 O   0  0  0  0  0  0  0  0  0  0  0  0
    9.7697   26.5147    6.0091 N   0  0  0  0  0  0  0  0  0  0  0  0
    9.5856   26.3114    5.0636 H   0  0  0  0  0  0  0  0  0  0  0  0
    8.8251   27.4664    6.6336 C   0  0  0  0  0  0  0  0  0  0  0  0
    7.3789   27.2831    6.1520 C   0  0  0  0  0  0  0  0  0  0  0  0
    6.4460   27.6806    7.1473 C   0  0  0  0  0  0  0  0  0  0  0  0
    6.9006   26.7871    4.9052 C   0  0  0  0  0  0  0  0  0  0  0  0
    5.4933   26.6952    4.6720 C   0  0  0  0  0  0  0  0  0  0  0  0
    4.5672   27.0986    5.6783 C   0  0  0  0  0  0  0  0  0  0  0  0
    8.5776   27.4881    8.1658 C   0  0  0  0  0  0  0  0  0  0  0  0
    8.5641   26.1125    8.6264 O   0  0  0  0  0  0  0  0  0  0  0  0
    5.0382   27.6004    6.9393 C   0  0  0  0  0  0  0  0  0  0  0  0
    7.1898   28.1659    8.3777 C   0  0  0  0  0  0  0  0  0  0  0  0
    7.8861   25.6160    8.1420 H   0  0  0  0  0  0  0  0  0  0  0  0
   10.6474   23.8551    5.1817 O   0  0  0  0  0  0  0  0  0  0  0  0
   10.6109   23.5782    3.7570 C   0  0  0  0  0  0  0  0  0  0  0  0
    9.4181   24.1780    3.0052 C   0  0  0  0  0  0  0  0  0  0  0  0
    8.1934   23.4672    2.9344 C   0  0  0  0  0  0  0  0  0  0  0  0
    7.0892   24.0146    2.2270 C   0  0  0  0  0  0  0  0  0  0  0  0
    7.2095   25.2798    1.5844 C   0  0  0  0  0  0  0  0  0  0  0  0
    8.4370   25.9952    1.6531 C   0  0  0  0  0  0  0  0  0  0  0  0
    9.5382   25.4459    2.3613 C   0  0  0  0  0  0  0  0  0  0  0  0
   15.1732   23.2538    6.0714 C   0  0  0  0  0  0  0  0  0  0  0  0
   15.1512   21.7639    5.9358 C   0  0  0  0  0  0  0  0  0  0  0  0
   14.0818   21.1982    6.1329 O   0  0  0  0  0  0  0  0  0  0  0  0
   16.2539   21.1433    5.5505 N   0  0  0  0  0  0  0  0  0  0  0  0
   17.0484   21.7137    5.4381 H   0  0  0  0  0  0  0  0  0  0  0  0
   16.4486   19.7194    5.2691 C   0  0  0  0  0  0  0  0  0  0  0  0
   16.1616   19.3975    3.8028 C   0  0  0  0  0  0  0  0  0  0  0  0
   16.9368   18.3093    3.3442 C   0  0  0  0  0  0  0  0  0  0  0  0
   15.2558   20.0404    2.9097 C   0  0  0  0  0  0  0  0  0  0  0  0
   15.1454   19.5756    1.5677 C   0  0  0  0  0  0  0  0  0  0  0  0
   15.9361   18.4743    1.1274 C   0  0  0  0  0  0  0  0  0  0  0  0
   17.8184   19.0162    5.4392 C   0  0  0  0  0  0  0  0  0  0  0  0
   18.8387   19.9730    5.0770 O   0  0  0  0  0  0  0  0  0  0  0  0
   16.8441   17.8283    2.0151 C   0  0  0  0  0  0  0  0  0  0  0  0
   17.8185   17.7990    4.4704 C   0  0  0  0  0  0  0  0  0  0  0  0
   18.6822   20.2857    4.1723 H   0  0  0  0  0  0  0  0  0  0  0  0
   15.1904   23.6568    7.4726 O   0  0  0  0  0  0  0  0  0  0  0  0
   16.4610   23.4986    8.1708 C   0  0  0  0  0  0  0  0  0  0  0  0
   16.6609   22.1431    8.8692 C   0  0  0  0  0  0  0  0  0  0  0  0
   17.9116   21.4590    8.7699 C   0  0  0  0  0  0  0  0  0  0  0  0
   18.1016   20.2100    9.4298 C   0  0  0  0  0  0  0  0  0  0  0  0
   17.0424   19.6429   10.1920 C   0  0  0  0  0  0  0  0  0  0  0  0
   15.7944   20.3212   10.2922 C   0  0  0  0  0  0  0  0  0  0  0  0
   15.6049   21.5696    9.6330 C   0  0  0  0  0  0  0  0  0  0  0  0
 25 26  2  0  0  0
 25 30  1  0  0  0
 25 24  1  0  0  0
 26 27  1  0  0  0
 27 28  2  0  0  0
 28 29  1  0  0  0
 29 30  2  0  0  0
 49 50  2  0  0  0
 49 54  1  0  0  0
 49 48  1  0  0  0
 50 51  1  0  0  0
 51 52  2  0  0  0
 52 53  1  0  0  0
 53 54  2  0  0  0
 48 47  1  0  0  0
 47 31  1  0  0  0
 31  1  1  0  0  0
 31 32  1  0  0  0
  1  4  1  0  0  0
  1  2  1  0  0  0
  4  7  1  0  0  0
  4  5  1  0  0  0
  7  8  1  0  0  0
  7 23  1  0  0  0
  8  9  2  0  0  0
  8 10  1  0  0  0
 10 12  1  0  0  0
 23 24  1  0  0  0
 32 33  2  0  0  0
 32 34  1  0  0  0
 34 36  1  0  0  0
 36 37  1  0  0  0
 36 42  1  0  0  0
 37 38  2  0  0  0
 37 39  1  0  0  0
 38 44  1  0  0  0
 38 45  1  0  0  0
 39 40  2  0  0  0
 40 41  1  0  0  0
 41 44  2  0  0  0
 42 43  1  0  0  0
 42 45  1  0  0  0
 12 13  1  0  0  0
 12 18  1  0  0  0
 13 14  2  0  0  0
 13 15  1  0  0  0
 14 20  1  0  0  0
 14 21  1  0  0  0
 15 16  2  0  0  0
 16 17  1  0  0  0
 17 20  2  0  0  0
 18 19  1  0  0  0
 18 21  1  0  0  0
 10 11  1  0  0  0
  5  6  1  0  0  0
  2  3  1  0  0  0
 34 35  1  0  0  0
 43 46  1  0  0  0
 19 22  1  0  0  0
M  END
> <minimizedAffinity>
-11.97546

$$$$
1EBY_BEB_B_501


 54 59  0  0  0  0  0  0  0  0999 V2000
   12.0996   23.1404    5.5325 C   0  0  0  0  0  0  0  0  0  0  0  0
   11.1125   23.1424    6.5994 O   0  0  0  0  0  0  0  0  0  0  0  0
   11.4532   23.6473    7.3543 H   0  0  0  0  0  0  0  0  0  0  0  0
   13.3520   22.4415    6.0647 C   0  0  0  0  0  0  0  0  0  0  0  0
   13.1344   21.0309    5.8469 O   0  0  0  0  0  0  0  0  0  0  0  0
   13.0021   20.8665    4.9002 H   0  0  0  0  0  0  0  0  0  0  0  0
   14.6598   22.9229    5.3187 C   0  0  0  0  0  0  0  0  0  0  0  0
   15.1600   21.8935    4.3122 C   0  0  0  0  0  0  0  0  0  0  0  0
   14.6329   21.8574    3.2100 O   0  0  0  0  0  0  0  0  0  0  0  0
   16.1111   21.0517    4.6950 N   0  0  0  0  0  0  0  0  0  0  0  0
   16.4475   21.1975    5.6087 H   0  0  0  0  0  0  0  0  0  0  0  0
   16.7484   19.9297    3.9718 C   0  0  0  0  0  0  0  0  0  0  0  0
   17.4944   18.9610    4.9003 C   0  0  0  0  0  0  0  0  0  0  0  0
   17.5215   17.6453    4.3644 C   0  0  0  0  0  0  0  0  0  0  0  0
   18.1154   19.2157    6.1569 C   0  0  0  0  0  0  0  0  0  0  0  0
   18.7550   18.1485    6.8606 C   0  0  0  0  0  0  0  0  0  0  0  0
   18.7766   16.8328    6.3114 C   0  0  0  0  0  0  0  0  0  0  0  0
   15.9169   18.9037    3.1560 C   0  0  0  0  0  0  0  0  0  0  0  0
   14.7027   18.6324    3.9021 O   0  0  0  0  0  0  0  0  0  0  0  0
   18.1538   16.5643    5.0450 C   0  0  0  0  0  0  0  0  0  0  0  0
   16.7981   17.6238    3.0306 C   0  0  0  0  0  0  0  0  0  0  0  0
   14.9326   18.3117    4.7883 H   0  0  0  0  0  0  0  0  0  0  0  0
   15.7189   23.1788    6.3100 O   0  0  0  0  0  0  0  0  0  0  0  0
   15.3577   23.0174    7.7068 C   0  0  0  0  0  0  0  0  0  0  0  0
   16.2002   22.0024    8.4865 C   0  0  0  0  0  0  0  0  0  0  0  0
   17.6155   22.0734    8.4446 C   0  0  0  0  0  0  0  0  0  0  0  0
   18.4001   21.1259    9.1560 C   0  0  0  0  0  0  0  0  0  0  0  0
   17.7667   20.0993    9.9130 C   0  0  0  0  0  0  0  0  0  0  0  0
   16.3469   20.0250    9.9567 C   0  0  0  0  0  0  0  0  0  0  0  0
   15.5658   20.9737    9.2453 C   0  0  0  0  0  0  0  0  0  0  0  0
   12.3119   24.6045    5.0935 C   0  0  0  0  0  0  0  0  0  0  0  0
   11.6897   25.4676    6.1453 C   0  0  0  0  0  0  0  0  0  0  0  0
   12.3526   25.6920    7.1517 O   0  0  0  0  0  0  0  0  0  0  0  0
   10.4986   25.9944    5.9142 N   0  0  0  0  0  0  0  0  0  0  0  0
   10.0676   25.7234    5.0715 H   0  0  0  0  0  0  0  0  0  0  0  0
    9.7364   26.9274    6.7466 C   0  0  0  0  0  0  0  0  0  0  0  0
    8.2666   26.9723    6.3298 C   0  0  0  0  0  0  0  0  0  0  0  0
    7.4213   27.2678    7.4224 C   0  0  0  0  0  0  0  0  0  0  0  0
    7.6988   26.7585    5.0402 C   0  0  0  0  0  0  0  0  0  0  0  0
    6.2869   26.8463    4.8721 C   0  0  0  0  0  0  0  0  0  0  0  0
    5.4535   27.1478    5.9885 C   0  0  0  0  0  0  0  0  0  0  0  0
    9.5800   26.7421    8.2767 C   0  0  0  0  0  0  0  0  0  0  0  0
    9.5119   25.3214    8.5312 O   0  0  0  0  0  0  0  0  0  0  0  0
    6.0151   27.3615    7.2803 C   0  0  0  0  0  0  0  0  0  0  0  0
    8.2545   27.4504    8.6788 C   0  0  0  0  0  0  0  0  0  0  0  0
    8.7789   24.9371    8.0253 H   0  0  0  0  0  0  0  0  0  0  0  0
   11.6816   24.8155    3.7957 O   0  0  0  0  0  0  0  0  0  0  0  0
   10.7679   23.7707    3.3481 C   0  0  0  0  0  0  0  0  0  0  0  0
    9.4596   24.2716    2.7136 C   0  0  0  0  0  0  0  0  0  0  0  0
    8.2539   23.5183    2.8584 C   0  0  0  0  0  0  0  0  0  0  0  0
    7.0384   23.9905    2.2831 C   0  0  0  0  0  0  0  0  0  0  0  0
    7.0249   25.2177    1.5631 C   0  0  0  0  0  0  0  0  0  0  0  0
    8.2246   25.9704    1.4158 C   0  0  0  0  0  0  0  0  0  0  0  0
    9.4392   25.4985    1.9912 C   0  0  0  0  0  0  0  0  0  0  0  0
 25 26  2  0  0  0
 25 30  1  0  0  0
 25 24  1  0  0  0
 26 27  1  0  0  0
 27 28  2  0  0  0
 28 29  1  0  0  0
 29 30  2  0  0  0
 49 50  2  0  0  0
 49 54  1  0  0  0
 49 48  1  0  0  0
 50 51  1  0  0  0
 51 52  2  0  0  0
 52 53  1  0  0  0
 53 54  2  0  0  0
 48 47  1  0  0  0
 47 31  1  0  0  0
 31  1  1  0  0  0
 31 32  1  0  0  0
  1  4  1  0  0  0
  1  2  1  0  0  0
  4  7  1  0  0  0
  4  5  1  0  0  0
  7  8  1  0  0  0
  7 23  1  0  0  0
  8  9  2  0  0  0
  8 10  1  0  0  0
 10 12  1  0  0  0
 23 24  1  0  0  0
 32 33  2  0  0  0
 32 34  1  0  0  0
 34 36  1  0  0  0
 36 37  1  0  0  0
 36 42  1  0  0  0
 37 38  2  0  0  0
 37 39  1  0  0  0
 38 44  1  0  0  0
 38 45  1  0  0  0
 39 40  2  0  0  0
 40 41  1  0  0  0
 41 44  2  0  0  0
 42 43  1  0  0  0
 42 45  1  0  0  0
 12 13  1  0  0  0
 12 18  1  0  0  0
 13 14  2  0  0  0
 13 15  1  0  0  0
 14 20  1  0  0  0
 14 21  1  0  0  0
 15 16  2  0  0  0
 16 17  1  0  0  0
 17 20  2  0  0  0
 18 19  1  0  0  0
 18 21  1  0  0  0
 10 11  1  0  0  0
  5  6  1  0  0  0
  2  3  1  0  0  0
 34 35  1  0  0  0
 43 46  1  0  0  0
 19 22  1  0  0  0
M  END
> <minimizedAffinity>
-11.91817

$$$$
1EBY_BEB_B_501


 54 59  0  0  0  0  0  0  0  0999 V2000
   12.6937   23.2088    4.9447 C   0  0  0  0  0  0  0  0  0  0  0  0
   12.0002   23.0326    6.2098 O   0  0  0  0  0  0  0  0  0  0  0  0
   12.4780   23.5054    6.9091 H   0  0  0  0  0  0  0  0  0  0  0  0
   14.0852   22.5907    5.0919 C   0  0  0  0  0  0  0  0  0  0  0  0
   14.9585   23.6786    5.4643 O   0  0  0  0  0  0  0  0  0  0  0  0
   14.6475   24.0734    6.2939 H   0  0  0  0  0  0  0  0  0  0  0  0
   14.1144   21.4548    6.1908 C   0  0  0  0  0  0  0  0  0  0  0  0
   14.8840   21.8786    7.4362 C   0  0  0  0  0  0  0  0  0  0  0  0
   14.4998   22.8654    8.0467 O   0  0  0  0  0  0  0  0  0  0  0  0
   15.9641   21.1860    7.7729 N   0  0  0  0  0  0  0  0  0  0  0  0
   16.1549   20.4126    7.1944 H   0  0  0  0  0  0  0  0  0  0  0  0
   16.9284   21.3871    8.8764 C   0  0  0  0  0  0  0  0  0  0  0  0
   17.1532   20.1228    9.7177 C   0  0  0  0  0  0  0  0  0  0  0  0
   18.4541   20.1039   10.2890 C   0  0  0  0  0  0  0  0  0  0  0  0
   16.2652   19.0372    9.9676 C   0  0  0  0  0  0  0  0  0  0  0  0
   16.6925   17.9462   10.7865 C   0  0  0  0  0  0  0  0  0  0  0  0
   18.0000   17.9398   11.3553 C   0  0  0  0  0  0  0  0  0  0  0  0
   18.4072   21.7770    8.6107 C   0  0  0  0  0  0  0  0  0  0  0  0
   18.8512   21.0395    7.4430 O   0  0  0  0  0  0  0  0  0  0  0  0
   18.9039   19.0291   11.1101 C   0  0  0  0  0  0  0  0  0  0  0  0
   19.2081   21.3557    9.8802 C   0  0  0  0  0  0  0  0  0  0  0  0
   18.7337   20.0890    7.5969 H   0  0  0  0  0  0  0  0  0  0  0  0
   14.7425   20.2478    5.6261 O   0  0  0  0  0  0  0  0  0  0  0  0
   14.5320   20.0045    4.2104 C   0  0  0  0  0  0  0  0  0  0  0  0
   15.5575   19.0794    3.5469 C   0  0  0  0  0  0  0  0  0  0  0  0
   16.3396   18.2020    4.3396 C   0  0  0  0  0  0  0  0  0  0  0  0
   17.3007   17.3519    3.7288 C   0  0  0  0  0  0  0  0  0  0  0  0
   17.4832   17.3797    2.3167 C   0  0  0  0  0  0  0  0  0  0  0  0
   16.7005   18.2593    1.5185 C   0  0  0  0  0  0  0  0  0  0  0  0
   15.7405   19.1068    2.1318 C   0  0  0  0  0  0  0  0  0  0  0  0
   12.6861   24.7168    4.6169 C   0  0  0  0  0  0  0  0  0  0  0  0
   12.1180   25.4175    5.8105 C   0  0  0  0  0  0  0  0  0  0  0  0
   12.8904   25.6869    6.7234 O   0  0  0  0  0  0  0  0  0  0  0  0
   10.8424   25.7673    5.7962 N   0  0  0  0  0  0  0  0  0  0  0  0
   10.3289   25.4787    5.0073 H   0  0  0  0  0  0  0  0  0  0  0  0
   10.0934   26.5273    6.7991 C   0  0  0  0  0  0  0  0  0  0  0  0
    8.6449   26.7470    6.3636 C   0  0  0  0  0  0  0  0  0  0  0  0
    7.7724   26.8326    7.4712 C   0  0  0  0  0  0  0  0  0  0  0  0
    8.1186   26.8637    5.0443 C   0  0  0  0  0  0  0  0  0  0  0  0
    6.7203   27.0653    4.8622 C   0  0  0  0  0  0  0  0  0  0  0  0
    5.8589   27.1507    5.9948 C   0  0  0  0  0  0  0  0  0  0  0  0
    9.8684   26.0079    8.2411 C   0  0  0  0  0  0  0  0  0  0  0  0
    9.7229   24.5725    8.1613 O   0  0  0  0  0  0  0  0  0  0  0  0
    6.3789   27.0337    7.3160 C   0  0  0  0  0  0  0  0  0  0  0  0
    8.5634   26.6784    8.7584 C   0  0  0  0  0  0  0  0  0  0  0  0
    8.9928   24.3544    7.5610 H   0  0  0  0  0  0  0  0  0  0  0  0
   11.8710   24.9487    3.4303 O   0  0  0  0  0  0  0  0  0  0  0  0
   11.0101   23.8464    3.0171 C   0  0  0  0  0  0  0  0  0  0  0  0
    9.5878   24.2490    2.5929 C   0  0  0  0  0  0  0  0  0  0  0  0
    8.4695   23.4391    2.9613 C   0  0  0  0  0  0  0  0  0  0  0  0
    7.1500   23.8205    2.5810 C   0  0  0  0  0  0  0  0  0  0  0  0
    6.9449   25.0133    1.8329 C   0  0  0  0  0  0  0  0  0  0  0  0
    8.0569   25.8223    1.4630 C   0  0  0  0  0  0  0  0  0  0  0  0
    9.3756   25.4411    1.8437 C   0  0  0  0  0  0  0  0  0  0  0  0
 25 26  2  0  0  0
 25 30  1  0  0  0
 25 24  1  0  0  0
 26 27  1  0  0  0
 27 28  2  0  0  0
 28 29  1  0  0  0
 29 30  2  0  0  0
 49 50  2  0  0  0
 49 54  1  0  0  0
 49 48  1  0  0  0
 50 51  1  0  0  0
 51 52  2  0  0  0
 52 53  1  0  0  0
 53 54  2  0  0  0
 48 47  1  0  0  0
 47 31  1  0  0  0
 31  1  1  0  0  0
 31 32  1  0  0  0
  1  4  1  0  0  0
  1  2  1  0  0  0
  4  7  1  0  0  0
  4  5  1  0  0  0
  7  8  1  0  0  0
  7 23  1  0  0  0
  8  9  2  0  0  0
  8 10  1  0  0  0
 10 12  1  0  0  0
 23 24  1  0  0  0
 32 33  2  0  0  0
 32 34  1  0  0  0
 34 36  1  0  0  0
 36 37  1  0  0  0
 36 42  1  0  0  0
 37 38  2  0  0  0
 37 39  1  0  0  0
 38 44  1  0  0  0
 38 45  1  0  0  0
 39 40  2  0  0  0
 40 41  1  0  0  0
 41 44  2  0  0  0
 42 43  1  0  0  0
 42 45  1  0  0  0
 12 13  1  0  0  0
 12 18  1  0  0  0
 13 14  2  0  0  0
 13 15  1  0  0  0
 14 20  1  0  0  0
 14 21  1  0  0  0
 15 16  2  0  0  0
 16 17  1  0  0  0
 17 20  2  0  0  0
 18 19  1  0  0  0
 18 21  1  0  0  0
 10 11  1  0  0  0
  5  6  1  0  0  0
  2  3  1  0  0  0
 34 35  1  0  0  0
 43 46  1  0  0  0
 19 22  1  0  0  0
M  END
> <minimizedAffinity>
-11.47857

$$$$
1EBY_BEB_B_501


 54 59  0  0  0  0  0  0  0  0999 V2000
   15.1756   21.8893    7.6151 C   0  0  0  0  0  0  0  0  0  0  0  0
   14.6962   22.4231    8.8792 O   0  0  0  0  0  0  0  0  0  0  0  0
   15.1151   23.2816    9.0474 H   0  0  0  0  0  0  0  0  0  0  0  0
   16.6854   21.6810    7.7457 C   0  0  0  0  0  0  0  0  0  0  0  0
   17.0997   22.5099    8.8529 O   0  0  0  0  0  0  0  0  0  0  0  0
   16.6257   22.2392    9.6547 H   0  0  0  0  0  0  0  0  0  0  0  0
   17.0520   20.1677    8.0179 C   0  0  0  0  0  0  0  0  0  0  0  0
   17.0929   19.8444    9.5068 C   0  0  0  0  0  0  0  0  0  0  0  0
   16.1842   20.2547   10.2139 O   0  0  0  0  0  0  0  0  0  0  0  0
   18.1374   19.1742    9.9754 N   0  0  0  0  0  0  0  0  0  0  0  0
   18.7927   18.9021    9.2928 H   0  0  0  0  0  0  0  0  0  0  0  0
   18.4775   18.7692   11.3568 C   0  0  0  0  0  0  0  0  0  0  0  0
   17.7924   17.4647   11.7879 C   0  0  0  0  0  0  0  0  0  0  0  0
   18.5654   16.7673   12.7549 C   0  0  0  0  0  0  0  0  0  0  0  0
   16.5547   16.9102   11.3518 C   0  0  0  0  0  0  0  0  0  0  0  0
   16.1079   15.6635   11.8899 C   0  0  0  0  0  0  0  0  0  0  0  0
   16.8922   14.9741   12.8608 C   0  0  0  0  0  0  0  0  0  0  0  0
   19.9343   18.4376   11.7779 C   0  0  0  0  0  0  0  0  0  0  0  0
   20.5520   17.7132   10.6832 O   0  0  0  0  0  0  0  0  0  0  0  0
   18.1418   15.5238   13.3081 C   0  0  0  0  0  0  0  0  0  0  0  0
   19.8317   17.5482   13.0541 C   0  0  0  0  0  0  0  0  0  0  0  0
   20.0282   16.9218   10.4827 H   0  0  0  0  0  0  0  0  0  0  0  0
   18.3684   19.8722    7.4264 O   0  0  0  0  0  0  0  0  0  0  0  0
   18.4409   19.8459    5.9766 C   0  0  0  0  0  0  0  0  0  0  0  0
   18.5940   18.4538    5.3551 C   0  0  0  0  0  0  0  0  0  0  0  0
   18.5675   18.2985    3.9462 C   0  0  0  0  0  0  0  0  0  0  0  0
   18.6962   17.0073    3.3668 C   0  0  0  0  0  0  0  0  0  0  0  0
   18.8508   15.8631    4.2005 C   0  0  0  0  0  0  0  0  0  0  0  0
   18.8772   16.0154    5.6145 C   0  0  0  0  0  0  0  0  0  0  0  0
   18.7491   17.3070    6.1902 C   0  0  0  0  0  0  0  0  0  0  0  0
   14.7512   22.8734    6.5046 C   0  0  0  0  0  0  0  0  0  0  0  0
   13.2625   22.7798    6.3875 C   0  0  0  0  0  0  0  0  0  0  0  0
   12.7361   21.7325    6.7462 O   0  0  0  0  0  0  0  0  0  0  0  0
   12.5887   23.8392    5.9714 N   0  0  0  0  0  0  0  0  0  0  0  0
   13.1336   24.6135    5.7016 H   0  0  0  0  0  0  0  0  0  0  0  0
   11.1389   24.0121    5.8593 C   0  0  0  0  0  0  0  0  0  0  0  0
   10.6562   25.2095    6.6775 C   0  0  0  0  0  0  0  0  0  0  0  0
    9.5095   25.8055    6.1069 C   0  0  0  0  0  0  0  0  0  0  0  0
   11.2079   25.7520    7.8743 C   0  0  0  0  0  0  0  0  0  0  0  0
   10.5945   26.8873    8.4778 C   0  0  0  0  0  0  0  0  0  0  0  0
    9.4367   27.4710    7.8855 C   0  0  0  0  0  0  0  0  0  0  0  0
   10.4365   24.3037    4.5096 C   0  0  0  0  0  0  0  0  0  0  0  0
   11.3281   25.1349    3.7338 O   0  0  0  0  0  0  0  0  0  0  0  0
    8.8812   26.9338    6.6886 C   0  0  0  0  0  0  0  0  0  0  0  0
    9.1165   25.0549    4.8465 C   0  0  0  0  0  0  0  0  0  0  0  0
   11.5378   25.9390    4.2341 H   0  0  0  0  0  0  0  0  0  0  0  0
   15.4040   22.5016    5.2549 O   0  0  0  0  0  0  0  0  0  0  0  0
   14.5300   22.0148    4.1938 C   0  0  0  0  0  0  0  0  0  0  0  0
   14.7182   20.5359    3.8163 C   0  0  0  0  0  0  0  0  0  0  0  0
   14.8735   20.1558    2.4475 C   0  0  0  0  0  0  0  0  0  0  0  0
   15.0631   18.7868    2.0992 C   0  0  0  0  0  0  0  0  0  0  0  0
   15.0996   17.7947    3.1185 C   0  0  0  0  0  0  0  0  0  0  0  0
   14.9441   18.1696    4.4835 C   0  0  0  0  0  0  0  0  0  0  0  0
   14.7551   19.5380    4.8313 C   0  0  0  0  0  0  0  0  0  0  0  0
 25 26  2  0  0  0
 25 30  1  0  0  0
 25 24  1  0  0  0
 26 27  1  0  0  0
 27 28  2  0  0  0
 28 29  1  0  0  0
 29 30  2  0  0  0
 49 50  2  0  0  0
 49 54  1  0  0  0
 49 48  1  0  0  0
 50 51  1  0  0  0
 51 52  2  0  0  0
 52 53  1  0  0  0
 53 54  2  0  0  0
 48 47  1  0  0  0
 47 31  1  0  0  0
 31  1  1  0  0  0
 31 32  1  0  0  0
  1  4  1  0  0  0
  1  2  1  0  0  0
  4  7  1  0  0  0
  4  5  1  0  0  0
  7  8  1  0  0  0
  7 23  1  0  0  0
  8  9  2  0  0  0
  8 10  1  0  0  0
 10 12  1  0  0  0
 23 24  1  0  0  0
 32 33  2  0  0  0
 32 34  1  0  0  0
 34 36  1  0  0  0
 36 37  1  0  0  0
 36 42  1  0  0  0
 37 38  2  0  0  0
 37 39  1  0  0  0
 38 44  1  0  0  0
 38 45  1  0  0  0
 39 40  2  0  0  0
 40 41  1  0  0  0
 41 44  2  0  0  0
 42 43  1  0  0  0
 42 45  1  0  0  0
 12 13  1  0  0  0
 12 18  1  0  0  0
 13 14  2  0  0  0
 13 15  1  0  0  0
 14 20  1  0  0  0
 14 21  1  0  0  0
 15 16  2  0  0  0
 16 17  1  0  0  0
 17 20  2  0  0  0
 18 19  1  0  0  0
 18 21  1  0  0  0
 10 11  1  0  0  0
  5  6  1  0  0  0
  2  3  1  0  0  0
 34 35  1  0  0  0
 43 46  1  0  0  0
 19 22  1  0  0  0
M  END
> <minimizedAffinity>
-11.22097

$$$$
1EBY_BEB_B_501


 54 59  0  0  0  0  0  0  0  0999 V2000
   13.2932   23.8242    4.5527 C   0  0  0  0  0  0  0  0  0  0  0  0
   14.4535   23.0688    4.1103 O   0  0  0  0  0  0  0  0  0  0  0  0
   14.7860   22.5279    4.8436 H   0  0  0  0  0  0  0  0  0  0  0  0
   13.7501   24.7529    5.6792 C   0  0  0  0  0  0  0  0  0  0  0  0
   13.4165   26.0885    5.2437 O   0  0  0  0  0  0  0  0  0  0  0  0
   12.4608   26.1490    5.0891 H   0  0  0  0  0  0  0  0  0  0  0  0
   13.0324   24.4200    7.0476 C   0  0  0  0  0  0  0  0  0  0  0  0
   12.2926   25.6246    7.6173 C   0  0  0  0  0  0  0  0  0  0  0  0
   12.8990   26.3753    8.3674 O   0  0  0  0  0  0  0  0  0  0  0  0
   11.0106   25.7762    7.3118 N   0  0  0  0  0  0  0  0  0  0  0  0
   10.6513   25.0995    6.6935 H   0  0  0  0  0  0  0  0  0  0  0  0
   10.0334   26.7968    7.7492 C   0  0  0  0  0  0  0  0  0  0  0  0
    8.8020   26.8820    6.8363 C   0  0  0  0  0  0  0  0  0  0  0  0
    7.6550   27.3204    7.5512 C   0  0  0  0  0  0  0  0  0  0  0  0
    8.6877   26.5850    5.4477 C   0  0  0  0  0  0  0  0  0  0  0  0
    7.4251   26.7307    4.7935 C   0  0  0  0  0  0  0  0  0  0  0  0
    6.2818   27.1728    5.5218 C   0  0  0  0  0  0  0  0  0  0  0  0
    9.3193   26.7103    9.1248 C   0  0  0  0  0  0  0  0  0  0  0  0
    9.0030   25.3154    9.3667 O   0  0  0  0  0  0  0  0  0  0  0  0
    6.3853   27.4752    6.9223 C   0  0  0  0  0  0  0  0  0  0  0  0
    8.0233   27.5680    9.0023 C   0  0  0  0  0  0  0  0  0  0  0  0
    8.4600   24.9759    8.6381 H   0  0  0  0  0  0  0  0  0  0  0  0
   14.0364   23.9669    8.0257 O   0  0  0  0  0  0  0  0  0  0  0  0
   15.2194   23.3160    7.4922 C   0  0  0  0  0  0  0  0  0  0  0  0
   15.8411   22.2470    8.3969 C   0  0  0  0  0  0  0  0  0  0  0  0
   15.0271   21.5255    9.3061 C   0  0  0  0  0  0  0  0  0  0  0  0
   15.6025   20.5425   10.1558 C   0  0  0  0  0  0  0  0  0  0  0  0
   17.0010   20.2795   10.0982 C   0  0  0  0  0  0  0  0  0  0  0  0
   17.8206   21.0021    9.1875 C   0  0  0  0  0  0  0  0  0  0  0  0
   17.2425   21.9831    8.3394 C   0  0  0  0  0  0  0  0  0  0  0  0
   12.2026   22.8083    4.9529 C   0  0  0  0  0  0  0  0  0  0  0  0
   12.9048   21.5377    5.3147 C   0  0  0  0  0  0  0  0  0  0  0  0
   12.4856   20.9226    6.2886 O   0  0  0  0  0  0  0  0  0  0  0  0
   13.8873   21.1100    4.5391 N   0  0  0  0  0  0  0  0  0  0  0  0
   14.1348   21.7055    3.7953 H   0  0  0  0  0  0  0  0  0  0  0  0
   14.6553   19.8674    4.6412 C   0  0  0  0  0  0  0  0  0  0  0  0
   15.1926   19.4315    3.2783 C   0  0  0  0  0  0  0  0  0  0  0  0
   16.4068   18.7196    3.3975 C   0  0  0  0  0  0  0  0  0  0  0  0
   14.6342   19.6566    1.9865 C   0  0  0  0  0  0  0  0  0  0  0  0
   15.3089   19.1597    0.8344 C   0  0  0  0  0  0  0  0  0  0  0  0
   16.5321   18.4421    0.9788 C   0  0  0  0  0  0  0  0  0  0  0  0
   15.9450   19.7525    5.4917 C   0  0  0  0  0  0  0  0  0  0  0  0
   16.6287   21.0226    5.4063 O   0  0  0  0  0  0  0  0  0  0  0  0
   17.0957   18.2149    2.2674 C   0  0  0  0  0  0  0  0  0  0  0  0
   16.7949   18.6119    4.8618 C   0  0  0  0  0  0  0  0  0  0  0  0
   16.8049   21.2330    4.4760 H   0  0  0  0  0  0  0  0  0  0  0  0
   11.2937   22.6087    3.8304 O   0  0  0  0  0  0  0  0  0  0  0  0
   11.2205   23.6967    2.8620 C   0  0  0  0  0  0  0  0  0  0  0  0
    9.7984   24.1469    2.4880 C   0  0  0  0  0  0  0  0  0  0  0  0
    9.5868   25.4048    1.8437 C   0  0  0  0  0  0  0  0  0  0  0  0
    8.2702   25.8150    1.4836 C   0  0  0  0  0  0  0  0  0  0  0  0
    7.1621   24.9680    1.7651 C   0  0  0  0  0  0  0  0  0  0  0  0
    7.3690   23.7144    2.4081 C   0  0  0  0  0  0  0  0  0  0  0  0
    8.6850   23.3044    2.7674 C   0  0  0  0  0  0  0  0  0  0  0  0
 25 26  2  0  0  0
 25 30  1  0  0  0
 25 24  1  0  0  0
 26 27  1  0  0  0
 27 28  2  0  0  0
 28 29  1  0  0  0
 29 30  2  0  0  0
 49 50  2  0  0  0
 49 54  1  0  0  0
 49 48  1  0  0  0
 50 51  1  0  0  0
 51 52  2  0  0  0
 52 53  1  0  0  0
 53 54  2  0  0  0
 48 47  1  0  0  0
 47 31  1  0  0  0
 31  1  1  0  0  0
 31 32  1  0  0  0
  1  4  1  0  0  0
  1  2  1  0  0  0
  4  7  1  0  0  0
  4  5  1  0  0  0
  7  8  1  0  0  0
  7 23  1  0  0  0
  8  9  2  0  0  0
  8 10  1  0  0  0
 10 12  1  0  0  0
 23 24  1  0  0  0
 32 33  2  0  0  0
 32 34  1  0  0  0
 34 36  1  0  0  0
 36 37  1  0  0  0
 36 42  1  0  0  0
 37 38  2  0  0  0
 37 39  1  0  0  0
 38 44  1  0  0  0
 38 45  1  0  0  0
 39 40  2  0  0  0
 40 41  1  0  0  0
 41 44  2  0  0  0
 42 43  1  0  0  0
 42 45  1  0  0  0
 12 13  1  0  0  0
 12 18  1  0  0  0
 13 14  2  0  0  0
 13 15  1  0  0  0
 14 20  1  0  0  0
 14 21  1  0  0  0
 15 16  2  0  0  0
 16 17  1  0  0  0
 17 20  2  0  0  0
 18 19  1  0  0  0
 18 21  1  0  0  0
 10 11  1  0  0  0
  5  6  1  0  0  0
  2  3  1  0  0  0
 34 35  1  0  0  0
 43 46  1  0  0  0
 19 22  1  0  0  0
M  END
> <minimizedAffinity>
-11.17610

$$$$
