1EBY_BEB_B_501
  RCSB PDB12061702223D
Coordinates from PDB:1EBY:B:501 Model:1 without hydrogens
 48 53  0  0  0  0            999 V2000
    9.8440   24.2070    2.2410   C 0  0  0  0  0  0  0  0  0  0  0  0
    9.2310   25.4050    1.7950   C 0  0  0  0  0  0  0  0  0  0  0  0
    7.8250   25.5750    1.9120   C 0  0  0  0  0  0  0  0  0  0  0  0
    7.0260   24.5420    2.4800   C 0  0  0  0  0  0  0  0  0  0  0  0
    7.6380   23.3390    2.9290   C 0  0  0  0  0  0  0  0  0  0  0  0
    9.0430   23.1720    2.8100   C 0  0  0  0  0  0  0  0  0  0  0  0
   16.6170   22.1670    8.8460   C 0  0  0  0  0  0  0  0  0  0  0  0
   15.8970   21.1820    9.5900   C 0  0  0  0  0  0  0  0  0  0  0  0
   16.5680   20.0300   10.0940   C 0  0  0  0  0  0  0  0  0  0  0  0
   17.9600   19.8590    9.8540   C 0  0  0  0  0  0  0  0  0  0  0  0
   18.6810   20.8390    9.1140   C 0  0  0  0  0  0  0  0  0  0  0  0
   18.0100   21.9900    8.6100   C 0  0  0  0  0  0  0  0  0  0  0  0
   15.8900   23.4020    8.2880   C 0  0  0  0  0  0  0  0  0  0  0  0
   14.7960   23.1160    7.3670   O 0  0  0  0  0  0  0  0  0  0  0  0
   15.1800   22.6850    6.0280   C 0  0  0  0  0  0  0  0  0  0  0  0
   14.0630   23.0590    5.0310   C 0  0  0  0  0  0  0  0  0  0  0  0
   13.5940   24.5130    5.1080   C 0  0  0  0  0  0  0  0  0  0  0  0
   12.2210   24.7320    4.3560   C 0  0  0  0  0  0  0  0  0  0  0  0
   11.0340   24.7260    5.3120   C 0  0  0  0  0  0  0  0  0  0  0  0
   10.8180   23.7130    5.9610   O 0  0  0  0  0  0  0  0  0  0  0  0
   10.2610   25.8030    5.3600   N 0  0  0  0  0  0  0  0  0  0  0  0
   12.0380   23.6650    3.3570   O 0  0  0  0  0  0  0  0  0  0  0  0
   11.3620   24.0330    2.1260   C 0  0  0  0  0  0  0  0  0  0  0  0
   14.6400   25.2940    4.4910   O 0  0  0  0  0  0  0  0  0  0  0  0
   14.5800   22.8360    3.6910   O 0  0  0  0  0  0  0  0  0  0  0  0
   15.3410   21.1990    5.9620   C 0  0  0  0  0  0  0  0  0  0  0  0
   14.3540   20.5160    6.2110   O 0  0  0  0  0  0  0  0  0  0  0  0
   16.5050   20.7010    5.5790   N 0  0  0  0  0  0  0  0  0  0  0  0
   16.8700   19.3000    5.3590   C 0  0  0  0  0  0  0  0  0  0  0  0
   16.7550   18.9200    3.8830   C 0  0  0  0  0  0  0  0  0  0  0  0
   17.6770   17.9100    3.5290   C 0  0  0  0  0  0  0  0  0  0  0  0
   15.8750   19.4460    2.8930   C 0  0  0  0  0  0  0  0  0  0  0  0
   15.9380   18.9450    1.5610   C 0  0  0  0  0  0  0  0  0  0  0  0
   16.8750   17.9240    1.2270   C 0  0  0  0  0  0  0  0  0  0  0  0
   18.2830   18.7480    5.6730   C 0  0  0  0  0  0  0  0  0  0  0  0
   19.2290   19.7990    5.3760   O 0  0  0  0  0  0  0  0  0  0  0  0
   17.7580   17.3950    2.2120   C 0  0  0  0  0  0  0  0  0  0  0  0
   18.4980   17.5180    4.7450   C 0  0  0  0  0  0  0  0  0  0  0  0
    9.0290   26.0670    6.1350   C 0  0  0  0  0  0  0  0  0  0  0  0
    9.2990   26.7620    7.4770   C 0  0  0  0  0  0  0  0  0  0  0  0
    8.1960   27.5630    7.8780   C 0  0  0  0  0  0  0  0  0  0  0  0
   10.4560   26.7020    8.3060   C 0  0  0  0  0  0  0  0  0  0  0  0
   10.4930   27.4460    9.5260   C 0  0  0  0  0  0  0  0  0  0  0  0
    9.3790   28.2450    9.9180   C 0  0  0  0  0  0  0  0  0  0  0  0
    7.9050   26.9920    5.5960   C 0  0  0  0  0  0  0  0  0  0  0  0
    8.5420   28.1100    4.9260   O 0  0  0  0  0  0  0  0  0  0  0  0
    8.2070   28.3130    9.0900   C 0  0  0  0  0  0  0  0  0  0  0  0
    7.0940   27.4690    6.8390   C 0  0  0  0  0  0  0  0  0  0  0  0
  1  2  2  0  0  0  0
  1  6  1  0  0  0  0
  1 23  1  0  0  0  0
  2  3  1  0  0  0  0
  3  4  2  0  0  0  0
  4  5  1  0  0  0  0
  5  6  2  0  0  0  0
  7  8  2  0  0  0  0
  7 12  1  0  0  0  0
  7 13  1  0  0  0  0
  8  9  1  0  0  0  0
  9 10  2  0  0  0  0
 10 11  1  0  0  0  0
 11 12  2  0  0  0  0
 13 14  1  0  0  0  0
 14 15  1  0  0  0  0
 15 16  1  0  0  0  0
 15 26  1  0  0  0  0
 16 17  1  0  0  0  0
 16 25  1  0  0  0  0
 17 18  1  0  0  0  0
 17 24  1  0  0  0  0
 18 19  1  0  0  0  0
 18 22  1  0  0  0  0
 19 20  2  0  0  0  0
 19 21  1  0  0  0  0
 21 39  1  0  0  0  0
 22 23  1  0  0  0  0
 26 27  2  0  0  0  0
 26 28  1  0  0  0  0
 28 29  1  0  0  0  0
 29 30  1  0  0  0  0
 29 35  1  0  0  0  0
 30 31  2  0  0  0  0
 30 32  1  0  0  0  0
 31 37  1  0  0  0  0
 31 38  1  0  0  0  0
 32 33  2  0  0  0  0
 33 34  1  0  0  0  0
 34 37  2  0  0  0  0
 35 36  1  0  0  0  0
 35 38  1  0  0  0  0
 39 40  1  0  0  0  0
 39 45  1  0  0  0  0
 40 41  2  0  0  0  0
 40 42  1  0  0  0  0
 41 47  1  0  0  0  0
 41 48  1  0  0  0  0
 42 43  2  0  0  0  0
 43 44  1  0  0  0  0
 44 47  2  0  0  0  0
 45 46  1  0  0  0  0
 45 48  1  0  0  0  0
A    1
C23
A    2
C24
A    3
C25
A    4
C26
A    5
C27
A    6
C28
A    7
C33
A    8
C34
A    9
C35
A   10
C36
A   11
C37
A   12
C38
A   13
C32
A   14
O31
A   15
C9
A   16
C7
A   17
C5
A   18
C4
A   19
C2
A   20
O3
A   21
N1
A   22
O21
A   23
C22
A   24
O6
A   25
O8
A   26
C10
A   27
O11
A   28
N12
A   29
C51
A   30
C52
A   31
C57
A   32
C53
A   33
C54
A   34
C55
A   35
C59
A   36
O60
A   37
C56
A   38
C58
A   39
C41
A   40
C42
A   41
C47
A   42
C43
A   43
C44
A   44
C45
A   45
C49
A   46
O50
A   47
C46
A   48
C48
M  END
>  <InstanceId>
1EBY_BEB_B_501

>  <ChemCompId>
BEB

>  <PdbId>
1EBY

>  <ChainId>
B

>  <ResidueNumber>
501

>  <InsertionCode>


>  <Model>
1

>  <AltIds>


>  <MissingHeavyAtoms>
0

>  <ObservedFormula>
C38 N2 O8

>  <Name>
N,N-[2,5-O-DIBENZYL-GLUCARYL]-DI-[1-AMINO-INDAN-2-OL]

>  <SystematicName>
(2R,3R,4R,5R)-3,4-dihydroxy-N,N'-bis[(1S,2R)-2-hydroxy-2,3-dihydro-1H-inden-1-yl]-2,5-bis(phenylmethoxy)hexanediamide

>  <Synonyms>
INHIBITOR BEA369

>  <Type>
NON-POLYMER

>  <Formula>
C38 H40 N2 O8

>  <MolecularWeight>
652.733

>  <ModifiedDate>
2011-06-04

>  <Parent>


>  <OneLetterCode>


>  <SubcomponentList>


>  <AmbiguousFlag>
N

>  <InChI>
InChI=1S/C38H40N2O8/c41-29-19-25-15-7-9-17-27(25)31(29)39-37(45)35(47-21-23-11-3-1-4-12-23)33(43)34(44)36(48-22-24-13-5-2-6-14-24)38(46)40-32-28-18-10-8-16-26(28)20-30(32)42/h1-18,29-36,41-44H,19-22H2,(H,39,45)(H,40,46)/t29-,30-,31+,32+,33-,34-,35-,36-/m1/s1

>  <InChIKey>
UOHMQWQGAJAUGT-JQFCFGFHSA-N

>  <SMILES>
c1ccc(cc1)CO[C@H]([C@@H]([C@H]([C@H](C(=O)N[C@H]2c3ccccc3C[C@H]2O)OCc4ccccc4)O)O)C(=O)N[C@H]5c6ccccc6C[C@H]5O

$$$$
