1G1D_FSB_A_555
  RCSB PDB12061702333D
Coordinates from PDB:1G1D:A:555 Model:1 without hydrogens
 21 22  0  0  0  0            999 V2000
   -3.7770    3.4750   14.6520   C 0  0  0  0  0  0  0  0  0  0  0  0
   -4.1640    2.3370   15.3930   C 0  0  0  0  0  0  0  0  0  0  0  0
   -5.5100    2.3030   15.9000   C 0  0  0  0  0  0  0  0  0  0  0  0
   -6.3580    3.3960   15.6260   C 0  0  0  0  0  0  0  0  0  0  0  0
   -5.9290    4.4990   14.8870   C 0  0  0  0  0  0  0  0  0  0  0  0
   -4.6510    4.5480   14.4000   C 0  0  0  0  0  0  0  0  0  0  0  0
   -4.1740    5.7490   13.6070   C 0  0  0  0  0  0  0  0  0  0  0  0
   -4.9430    6.6650   13.4080   O 0  0  0  0  0  0  0  0  0  0  0  0
   -2.8750    5.8030   13.1240   N 0  0  0  0  0  0  0  0  0  0  0  0
   -2.2400    6.8750   12.3690   C 0  0  0  0  0  0  0  0  0  0  0  0
   -6.0010    0.8300   16.8530   S 0  0  0  0  0  0  0  0  0  0  0  0
   -5.5180   -0.5040   16.1790   N 0  0  0  0  0  0  0  0  0  0  0  0
   -7.4810    1.0890   16.8920   O 0  0  0  0  0  0  0  0  0  0  0  0
   -5.4670    1.1300   18.1860   O 0  0  0  0  0  0  0  0  0  0  0  0
   -1.6360    7.9150   13.1600   C 0  0  0  0  0  0  0  0  0  0  0  0
   -1.9500    7.9620   14.5610   C 0  0  0  0  0  0  0  0  0  0  0  0
   -1.4150    8.9460   15.4290   C 0  0  0  0  0  0  0  0  0  0  0  0
   -0.5420    9.9090   14.8880   C 0  0  0  0  0  0  0  0  0  0  0  0
   -0.1920    9.9030   13.4860   C 0  0  0  0  0  0  0  0  0  0  0  0
   -0.7490    8.8880   12.6030   C 0  0  0  0  0  0  0  0  0  0  0  0
   -0.4360    8.8680   11.3000   F 0  0  0  0  0  0  0  0  0  0  0  0
  1  2  2  0  0  0  0
  1  6  1  0  0  0  0
  2  3  1  0  0  0  0
  3  4  2  0  0  0  0
  3 11  1  0  0  0  0
  4  5  1  0  0  0  0
  5  6  2  0  0  0  0
  6  7  1  0  0  0  0
  7  8  2  0  0  0  0
  7  9  1  0  0  0  0
  9 10  1  0  0  0  0
 10 15  1  0  0  0  0
 11 12  1  0  0  0  0
 11 13  2  0  0  0  0
 11 14  2  0  0  0  0
 15 16  2  0  0  0  0
 15 20  1  0  0  0  0
 16 17  1  0  0  0  0
 17 18  2  0  0  0  0
 18 19  1  0  0  0  0
 19 20  2  0  0  0  0
 20 21  1  0  0  0  0
A    1
C01
A    2
C02
A    3
C03
A    4
C04
A    5
C05
A    6
C06
A    7
C07
A    8
O08
A    9
N09
A   10
C10
A   11
S11
A   12
NP2
A   13
O13
A   14
O14
A   15
C15
A   16
C16
A   17
C17
A   18
C18
A   19
C19
A   20
C20
A   21
F21
M  END
>  <InstanceId>
1G1D_FSB_A_555

>  <ChemCompId>
FSB

>  <PdbId>
1G1D

>  <ChainId>
A

>  <ResidueNumber>
555

>  <InsertionCode>


>  <Model>
1

>  <AltIds>


>  <MissingHeavyAtoms>
0

>  <ObservedFormula>
C14 N2 O3 S F

>  <Name>
N-(2-FLOURO-BENZYL)-4-SULFAMOYL-BENZAMIDE

>  <SystematicName>
N-[(2-fluorophenyl)methyl]-4-sulfamoyl-benzamide

>  <Synonyms>


>  <Type>
NON-POLYMER

>  <Formula>
C14 H13 F N2 O3 S

>  <MolecularWeight>
308.328

>  <ModifiedDate>
2011-06-04

>  <Parent>


>  <OneLetterCode>


>  <SubcomponentList>


>  <AmbiguousFlag>
N

>  <InChI>
InChI=1S/C14H13FN2O3S/c15-13-4-2-1-3-11(13)9-17-14(18)10-5-7-12(8-6-10)21(16,19)20/h1-8H,9H2,(H,17,18)(H2,16,19,20)

>  <InChIKey>
ULYMHSXFSKOHGH-UHFFFAOYSA-N

>  <SMILES>
c1ccc(c(c1)CNC(=O)c2ccc(cc2)S(=O)(=O)N)F

$$$$
