3ALT_MLB_A_301
  RCSB PDB12061707543D
Coordinates from PDB:3ALT:A:301 Model:1 without hydrogens
 23 24  0  0  0  0            999 V2000
   18.2520  -38.2240   32.3440   C 0  0  0  0  0  0  0  0  0  0  0  0
   18.5330  -38.2650   33.7780   O 0  0  0  0  0  0  0  0  0  0  0  0
   19.3930  -37.8210   31.4490   C 0  0  0  0  0  0  0  0  0  0  0  0
   20.4610  -38.6760   31.8150   O 0  0  0  0  0  0  0  0  0  0  0  0
   19.6680  -36.3320   31.6280   C 0  0  0  0  0  0  0  0  0  0  0  0
   20.5320  -35.9570   30.5540   O 0  0  0  0  0  0  0  0  0  0  0  0
   18.3620  -35.5240   31.5500   C 0  0  0  0  0  0  0  0  0  0  0  0
   17.8300  -35.6280   30.2250   O 0  0  0  0  0  0  0  0  0  0  0  0
   17.3150  -36.0530   32.5310   C 0  0  0  0  0  0  0  0  0  0  0  0
   17.0980  -37.3860   32.1620   O 0  0  0  0  0  0  0  0  0  0  0  0
   15.9670  -35.3300   32.5510   C 0  0  0  0  0  0  0  0  0  0  0  0
   15.3290  -35.2650   31.2730   O 0  0  0  0  0  0  0  0  0  0  0  0
   18.4560  -40.4230   37.0610   C 0  0  0  0  0  0  0  0  0  0  0  0
   17.2700  -41.2480   37.0950   O 0  0  0  0  0  0  0  0  0  0  0  0
   19.0090  -40.0180   38.4190   C 0  0  0  0  0  0  0  0  0  0  0  0
   18.0340  -40.2000   39.4400   O 0  0  0  0  0  0  0  0  0  0  0  0
   19.4890  -38.5680   38.4030   C 0  0  0  0  0  0  0  0  0  0  0  0
   20.3040  -38.3510   39.5370   O 0  0  0  0  0  0  0  0  0  0  0  0
   20.3000  -38.2490   37.1410   C 0  0  0  0  0  0  0  0  0  0  0  0
   20.8210  -36.9130   37.1900   O 0  0  0  0  0  0  0  0  0  0  0  0
   19.2890  -38.3310   36.0180   C 0  0  0  0  0  0  0  0  0  0  0  0
   18.1800  -39.1970   36.4070   O 0  0  0  0  0  0  0  0  0  0  0  0
   19.7510  -38.5510   34.5400   C 0  0  0  0  0  0  0  0  0  0  0  0
  1  2  1  0  0  0  0
  1  3  1  0  0  0  0
  1 10  1  0  0  0  0
  2 23  1  0  0  0  0
  3  4  1  0  0  0  0
  3  5  1  0  0  0  0
  5  6  1  0  0  0  0
  5  7  1  0  0  0  0
  7  8  1  0  0  0  0
  7  9  1  0  0  0  0
  9 10  1  0  0  0  0
  9 11  1  0  0  0  0
 11 12  1  0  0  0  0
 13 14  1  0  0  0  0
 13 15  1  0  0  0  0
 13 22  1  0  0  0  0
 15 16  1  0  0  0  0
 15 17  1  0  0  0  0
 17 18  1  0  0  0  0
 17 19  1  0  0  0  0
 19 20  1  0  0  0  0
 19 21  1  0  0  0  0
 21 22  1  0  0  0  0
 21 23  1  0  0  0  0
A    1
C1
A    2
O1
A    3
C2
A    4
O2
A    5
C3
A    6
O3
A    7
C4
A    8
O4
A    9
C5
A   10
O5
A   11
C6
A   12
O6
A   13
C1'
A   14
O1'
A   15
C2'
A   16
O2'
A   17
C3'
A   18
O3'
A   19
C4'
A   20
O4'
A   21
C5'
A   22
O5'
A   23
C6'
M  END
>  <InstanceId>
3ALT_MLB_A_301

>  <ChemCompId>
MLB

>  <PdbId>
3ALT

>  <ChainId>
A

>  <ResidueNumber>
301

>  <InsertionCode>


>  <Model>
1

>  <AltIds>


>  <MissingHeavyAtoms>
0

>  <ObservedFormula>
C12 O11

>  <Name>
6-O-alpha-D-galactopyranosyl-alpha-D-glucopyranose

>  <SystematicName>
(2S,3R,4S,5S,6R)-6-[[(2S,3R,4S,5R,6R)-3,4,5-trihydroxy-6-(hydroxymethyl)oxan-2-yl]oxymethyl]oxane-2,3,4,5-tetrol

>  <Synonyms>
melibiose

>  <Type>
saccharide

>  <Formula>
C12 H22 O11

>  <MolecularWeight>
342.296

>  <ModifiedDate>
2011-06-04

>  <Parent>


>  <OneLetterCode>


>  <SubcomponentList>


>  <AmbiguousFlag>
N

>  <InChI>
InChI=1S/C12H22O11/c13-1-3-5(14)8(17)10(19)12(23-3)21-2-4-6(15)7(16)9(18)11(20)22-4/h3-20H,1-2H2/t3-,4-,5+,6-,7+,8+,9-,10-,11+,12+/m1/s1

>  <InChIKey>
DLRVVLDZNNYCBX-CQHUIXDMSA-N

>  <SMILES>
C([C@@H]1[C@@H]([C@@H]([C@H]([C@H](O1)OC[C@@H]2[C@H]([C@@H]([C@H]([C@H](O2)O)O)O)O)O)O)O)O

$$$$
