3ALT_MLB_A_301


 31 32  0  0  0  0  0  0  0  0999 V2000
   16.3081  -37.4033   32.1486 O   0  0  0  0  0  0  0  0  0  0  0  0
   17.3553  -36.4598   32.5362 C   0  0  0  0  0  0  0  0  0  0  0  0
   18.2607  -35.9748   31.4360 C   0  0  0  0  0  0  0  0  0  0  0  0
   17.3858  -35.5012   30.4281 O   0  0  0  0  0  0  0  0  0  0  0  0
   19.1825  -37.1115   31.0085 C   0  0  0  0  0  0  0  0  0  0  0  0
   20.1980  -36.5151   30.1999 O   0  0  0  0  0  0  0  0  0  0  0  0
   19.8230  -37.7834   32.2344 C   0  0  0  0  0  0  0  0  0  0  0  0
   20.6935  -36.8453   32.8762 O   0  0  0  0  0  0  0  0  0  0  0  0
   18.7667  -38.2289   33.2464 C   0  0  0  0  0  0  0  0  0  0  0  0
   18.0889  -37.0611   33.6166 O   0  0  0  0  0  0  0  0  0  0  0  0
   16.7800  -36.2119   30.1657 H   0  0  0  0  0  0  0  0  0  0  0  0
   20.6659  -35.8393   30.7149 H   0  0  0  0  0  0  0  0  0  0  0  0
   20.1801  -36.0766   33.1701 H   0  0  0  0  0  0  0  0  0  0  0  0
   19.2783  -38.9150   34.5144 C   0  0  0  0  0  0  0  0  0  0  0  0
   19.6608  -38.0042   35.5481 O   0  0  0  0  0  0  0  0  0  0  0  0
   20.3943  -37.4511   35.2367 H   0  0  0  0  0  0  0  0  0  0  0  0
   14.9975  -37.7177   32.7225 C   0  0  0  0  0  0  0  0  0  0  0  0
   15.2052  -37.9764   29.3421 C   0  0  0  0  0  0  0  0  0  0  0  0
   16.0775  -37.3027   28.4076 O   0  0  0  0  0  0  0  0  0  0  0  0
   13.9575  -38.6016   28.7367 C   0  0  0  0  0  0  0  0  0  0  0  0
   13.6964  -38.0661   27.4439 O   0  0  0  0  0  0  0  0  0  0  0  0
   12.7472  -38.3953   29.6454 C   0  0  0  0  0  0  0  0  0  0  0  0
   11.7217  -39.2776   29.2366 O   0  0  0  0  0  0  0  0  0  0  0  0
   13.0833  -38.6728   31.1158 C   0  0  0  0  0  0  0  0  0  0  0  0
   11.9127  -38.5662   31.9387 O   0  0  0  0  0  0  0  0  0  0  0  0
   14.0410  -37.5640   31.4946 C   0  0  0  0  0  0  0  0  0  0  0  0
   14.7149  -37.0577   30.3027 O   0  0  0  0  0  0  0  0  0  0  0  0
   15.5973  -36.5734   27.9851 H   0  0  0  0  0  0  0  0  0  0  0  0
   13.5336  -37.1126   27.5158 H   0  0  0  0  0  0  0  0  0  0  0  0
   12.0305  -40.1933   29.3205 H   0  0  0  0  0  0  0  0  0  0  0  0
   11.5260  -37.6824   31.8379 H   0  0  0  0  0  0  0  0  0  0  0  0
  2  1  1  0  0  0
  2  3  1  0  0  0
  2 10  1  0  0  0
  1 17  1  0  0  0
  3  4  1  0  0  0
  3  5  1  0  0  0
  5  6  1  0  0  0
  5  7  1  0  0  0
  7  8  1  0  0  0
  7  9  1  0  0  0
  9 10  1  0  0  0
  9 14  1  0  0  0
 14 15  1  0  0  0
 18 19  1  0  0  0
 18 20  1  0  0  0
 18 27  1  0  0  0
 20 21  1  0  0  0
 20 22  1  0  0  0
 22 23  1  0  0  0
 22 24  1  0  0  0
 24 25  1  0  0  0
 24 26  1  0  0  0
 26 27  1  0  0  0
 26 17  1  0  0  0
  4 11  1  0  0  0
  6 12  1  0  0  0
  8 13  1  0  0  0
 15 16  1  0  0  0
 19 28  1  0  0  0
 21 29  1  0  0  0
 23 30  1  0  0  0
 25 31  1  0  0  0
M  END
> <minimizedAffinity>
-6.99331

$$$$
3ALT_MLB_A_301


 31 32  0  0  0  0  0  0  0  0999 V2000
   15.7834  -39.6665   31.3050 O   0  0  0  0  0  0  0  0  0  0  0  0
   15.3300  -40.0313   29.9640 C   0  0  0  0  0  0  0  0  0  0  0  0
   16.0400  -39.3696   28.8137 C   0  0  0  0  0  0  0  0  0  0  0  0
   17.4160  -39.6035   29.0534 O   0  0  0  0  0  0  0  0  0  0  0  0
   15.6360  -37.9006   28.7541 C   0  0  0  0  0  0  0  0  0  0  0  0
   16.0907  -37.4158   27.4897 O   0  0  0  0  0  0  0  0  0  0  0  0
   14.1084  -37.7519   28.8484 C   0  0  0  0  0  0  0  0  0  0  0  0
   13.5127  -38.3294   27.6817 O   0  0  0  0  0  0  0  0  0  0  0  0
   13.5493  -38.4685   30.0782 C   0  0  0  0  0  0  0  0  0  0  0  0
   13.9096  -39.8124   29.9226 O   0  0  0  0  0  0  0  0  0  0  0  0
   17.6557  -39.2560   29.9267 H   0  0  0  0  0  0  0  0  0  0  0  0
   15.6839  -37.9356   26.7789 H   0  0  0  0  0  0  0  0  0  0  0  0
   13.7358  -39.2724   27.6379 H   0  0  0  0  0  0  0  0  0  0  0  0
   12.0356  -38.3934   30.2863 C   0  0  0  0  0  0  0  0  0  0  0  0
   11.3268  -39.5249   29.7745 O   0  0  0  0  0  0  0  0  0  0  0  0
   11.4557  -39.5800   28.8146 H   0  0  0  0  0  0  0  0  0  0  0  0
   17.0938  -39.7264   31.9571 C   0  0  0  0  0  0  0  0  0  0  0  0
   18.5941  -36.8872   30.8505 C   0  0  0  0  0  0  0  0  0  0  0  0
   19.9619  -36.6518   30.4479 O   0  0  0  0  0  0  0  0  0  0  0  0
   17.7914  -35.6420   31.1955 C   0  0  0  0  0  0  0  0  0  0  0  0
   18.6508  -34.5324   31.4329 O   0  0  0  0  0  0  0  0  0  0  0  0
   16.9002  -35.8862   32.4118 C   0  0  0  0  0  0  0  0  0  0  0  0
   15.9324  -34.8582   32.4746 O   0  0  0  0  0  0  0  0  0  0  0  0
   16.1823  -37.2391   32.3312 C   0  0  0  0  0  0  0  0  0  0  0  0
   15.2794  -37.4073   33.4335 O   0  0  0  0  0  0  0  0  0  0  0  0
   17.2934  -38.2585   32.4586 C   0  0  0  0  0  0  0  0  0  0  0  0
   18.5597  -37.6729   32.0288 O   0  0  0  0  0  0  0  0  0  0  0  0
   20.4428  -36.2221   31.1724 H   0  0  0  0  0  0  0  0  0  0  0  0
   19.2238  -34.7238   32.1918 H   0  0  0  0  0  0  0  0  0  0  0  0
   15.3880  -34.8773   31.6719 H   0  0  0  0  0  0  0  0  0  0  0  0
   15.7690  -37.3299   34.2673 H   0  0  0  0  0  0  0  0  0  0  0  0
  2  1  1  0  0  0
  2  3  1  0  0  0
  2 10  1  0  0  0
  1 17  1  0  0  0
  3  4  1  0  0  0
  3  5  1  0  0  0
  5  6  1  0  0  0
  5  7  1  0  0  0
  7  8  1  0  0  0
  7  9  1  0  0  0
  9 10  1  0  0  0
  9 14  1  0  0  0
 14 15  1  0  0  0
 18 19  1  0  0  0
 18 20  1  0  0  0
 18 27  1  0  0  0
 20 21  1  0  0  0
 20 22  1  0  0  0
 22 23  1  0  0  0
 22 24  1  0  0  0
 24 25  1  0  0  0
 24 26  1  0  0  0
 26 27  1  0  0  0
 26 17  1  0  0  0
  4 11  1  0  0  0
  6 12  1  0  0  0
  8 13  1  0  0  0
 15 16  1  0  0  0
 19 28  1  0  0  0
 21 29  1  0  0  0
 23 30  1  0  0  0
 25 31  1  0  0  0
M  END
> <minimizedAffinity>
-6.88143

$$$$
3ALT_MLB_A_301


 31 32  0  0  0  0  0  0  0  0999 V2000
   15.3407  -36.5297   31.1317 O   0  0  0  0  0  0  0  0  0  0  0  0
   15.1916  -37.9157   30.6916 C   0  0  0  0  0  0  0  0  0  0  0  0
   14.9964  -38.1325   29.2150 C   0  0  0  0  0  0  0  0  0  0  0  0
   16.0630  -37.4317   28.6010 O   0  0  0  0  0  0  0  0  0  0  0  0
   13.6016  -37.6601   28.8197 C   0  0  0  0  0  0  0  0  0  0  0  0
   13.3711  -38.1644   27.5032 O   0  0  0  0  0  0  0  0  0  0  0  0
   12.5432  -38.2217   29.7835 C   0  0  0  0  0  0  0  0  0  0  0  0
   12.4890  -39.6446   29.6359 O   0  0  0  0  0  0  0  0  0  0  0  0
   12.8839  -37.9023   31.2396 C   0  0  0  0  0  0  0  0  0  0  0  0
   14.1309  -38.4958   31.4697 O   0  0  0  0  0  0  0  0  0  0  0  0
   16.0403  -36.5021   28.8770 H   0  0  0  0  0  0  0  0  0  0  0  0
   13.4406  -39.1319   27.5108 H   0  0  0  0  0  0  0  0  0  0  0  0
   13.3526  -40.0259   29.8589 H   0  0  0  0  0  0  0  0  0  0  0  0
   11.9036  -38.4076   32.2998 C   0  0  0  0  0  0  0  0  0  0  0  0
   11.6459  -37.4638   33.3426 O   0  0  0  0  0  0  0  0  0  0  0  0
   12.4698  -37.2744   33.8182 H   0  0  0  0  0  0  0  0  0  0  0  0
   15.7107  -35.9341   32.4179 C   0  0  0  0  0  0  0  0  0  0  0  0
   18.2482  -38.1083   33.0269 C   0  0  0  0  0  0  0  0  0  0  0  0
   18.5664  -38.8587   34.2202 O   0  0  0  0  0  0  0  0  0  0  0  0
   19.3848  -37.9583   32.0272 C   0  0  0  0  0  0  0  0  0  0  0  0
   20.6390  -38.2453   32.6362 O   0  0  0  0  0  0  0  0  0  0  0  0
   19.4015  -36.5544   31.4256 C   0  0  0  0  0  0  0  0  0  0  0  0
   20.2168  -36.5688   30.2714 O   0  0  0  0  0  0  0  0  0  0  0  0
   17.9952  -36.0844   31.0337 C   0  0  0  0  0  0  0  0  0  0  0  0
   18.0439  -34.8056   30.3849 O   0  0  0  0  0  0  0  0  0  0  0  0
   17.2734  -35.9275   32.3544 C   0  0  0  0  0  0  0  0  0  0  0  0
   17.8920  -36.7796   33.3656 O   0  0  0  0  0  0  0  0  0  0  0  0
   19.2816  -38.4135   34.7010 H   0  0  0  0  0  0  0  0  0  0  0  0
   20.8024  -37.6129   33.3533 H   0  0  0  0  0  0  0  0  0  0  0  0
   19.8481  -37.1888   29.6228 H   0  0  0  0  0  0  0  0  0  0  0  0
   18.4678  -34.1608   30.9726 H   0  0  0  0  0  0  0  0  0  0  0  0
  2  1  1  0  0  0
  2  3  1  0  0  0
  2 10  1  0  0  0
  1 17  1  0  0  0
  3  4  1  0  0  0
  3  5  1  0  0  0
  5  6  1  0  0  0
  5  7  1  0  0  0
  7  8  1  0  0  0
  7  9  1  0  0  0
  9 10  1  0  0  0
  9 14  1  0  0  0
 14 15  1  0  0  0
 18 19  1  0  0  0
 18 20  1  0  0  0
 18 27  1  0  0  0
 20 21  1  0  0  0
 20 22  1  0  0  0
 22 23  1  0  0  0
 22 24  1  0  0  0
 24 25  1  0  0  0
 24 26  1  0  0  0
 26 27  1  0  0  0
 26 17  1  0  0  0
  4 11  1  0  0  0
  6 12  1  0  0  0
  8 13  1  0  0  0
 15 16  1  0  0  0
 19 28  1  0  0  0
 21 29  1  0  0  0
 23 30  1  0  0  0
 25 31  1  0  0  0
M  END
> <minimizedAffinity>
-6.64003

$$$$
3ALT_MLB_A_301


 31 32  0  0  0  0  0  0  0  0999 V2000
   16.0453  -36.5083   31.8105 O   0  0  0  0  0  0  0  0  0  0  0  0
   17.2553  -35.8966   32.3570 C   0  0  0  0  0  0  0  0  0  0  0  0
   18.3632  -35.6129   31.3786 C   0  0  0  0  0  0  0  0  0  0  0  0
   17.7486  -34.8739   30.3384 O   0  0  0  0  0  0  0  0  0  0  0  0
   18.9987  -36.9297   30.9461 C   0  0  0  0  0  0  0  0  0  0  0  0
   20.2112  -36.5827   30.2753 O   0  0  0  0  0  0  0  0  0  0  0  0
   19.3145  -37.8088   32.1677 C   0  0  0  0  0  0  0  0  0  0  0  0
   20.3272  -37.1685   32.9512 O   0  0  0  0  0  0  0  0  0  0  0  0
   18.0808  -38.0099   33.0486 C   0  0  0  0  0  0  0  0  0  0  0  0
   17.6936  -36.7249   33.4473 O   0  0  0  0  0  0  0  0  0  0  0  0
   17.0100  -35.3846   29.9718 H   0  0  0  0  0  0  0  0  0  0  0  0
   20.7825  -36.0820   30.8784 H   0  0  0  0  0  0  0  0  0  0  0  0
   20.0026  -36.3073   33.2578 H   0  0  0  0  0  0  0  0  0  0  0  0
   18.2648  -38.8708   34.2998 C   0  0  0  0  0  0  0  0  0  0  0  0
   18.9797  -38.2152   35.3503 O   0  0  0  0  0  0  0  0  0  0  0  0
   19.8758  -38.0010   35.0469 H   0  0  0  0  0  0  0  0  0  0  0  0
   15.2079  -37.6217   32.2635 C   0  0  0  0  0  0  0  0  0  0  0  0
   12.4911  -39.1180   30.8790 C   0  0  0  0  0  0  0  0  0  0  0  0
   11.6696  -40.1994   31.3731 O   0  0  0  0  0  0  0  0  0  0  0  0
   12.3852  -38.8470   29.3859 C   0  0  0  0  0  0  0  0  0  0  0  0
   11.8035  -39.9552   28.7079 O   0  0  0  0  0  0  0  0  0  0  0  0
   13.7548  -38.5264   28.7905 C   0  0  0  0  0  0  0  0  0  0  0  0
   13.5666  -37.9411   27.5179 O   0  0  0  0  0  0  0  0  0  0  0  0
   14.5468  -37.5528   29.6719 C   0  0  0  0  0  0  0  0  0  0  0  0
   15.7880  -37.1909   29.0497 O   0  0  0  0  0  0  0  0  0  0  0  0
   14.8491  -38.3462   30.9245 C   0  0  0  0  0  0  0  0  0  0  0  0
   13.8611  -39.4075   31.0938 O   0  0  0  0  0  0  0  0  0  0  0  0
   11.9277  -41.0267   30.9374 H   0  0  0  0  0  0  0  0  0  0  0  0
   12.3694  -40.7352   28.8185 H   0  0  0  0  0  0  0  0  0  0  0  0
   13.0598  -37.1194   27.6117 H   0  0  0  0  0  0  0  0  0  0  0  0
   16.3069  -37.9914   28.8736 H   0  0  0  0  0  0  0  0  0  0  0  0
  2  1  1  0  0  0
  2  3  1  0  0  0
  2 10  1  0  0  0
  1 17  1  0  0  0
  3  4  1  0  0  0
  3  5  1  0  0  0
  5  6  1  0  0  0
  5  7  1  0  0  0
  7  8  1  0  0  0
  7  9  1  0  0  0
  9 10  1  0  0  0
  9 14  1  0  0  0
 14 15  1  0  0  0
 18 19  1  0  0  0
 18 20  1  0  0  0
 18 27  1  0  0  0
 20 21  1  0  0  0
 20 22  1  0  0  0
 22 23  1  0  0  0
 22 24  1  0  0  0
 24 25  1  0  0  0
 24 26  1  0  0  0
 26 27  1  0  0  0
 26 17  1  0  0  0
  4 11  1  0  0  0
  6 12  1  0  0  0
  8 13  1  0  0  0
 15 16  1  0  0  0
 19 28  1  0  0  0
 21 29  1  0  0  0
 23 30  1  0  0  0
 25 31  1  0  0  0
M  END
> <minimizedAffinity>
-6.60488

$$$$
3ALT_MLB_A_301


 31 32  0  0  0  0  0  0  0  0999 V2000
   19.1442  -37.9651   34.9125 O   0  0  0  0  0  0  0  0  0  0  0  0
   20.1828  -38.7547   35.5719 C   0  0  0  0  0  0  0  0  0  0  0  0
   20.5159  -38.3730   36.9892 C   0  0  0  0  0  0  0  0  0  0  0  0
   19.2707  -38.3585   37.6636 O   0  0  0  0  0  0  0  0  0  0  0  0
   21.2643  -37.0446   36.9873 C   0  0  0  0  0  0  0  0  0  0  0  0
   21.8087  -36.8949   38.2995 O   0  0  0  0  0  0  0  0  0  0  0  0
   22.4013  -37.0618   35.9522 C   0  0  0  0  0  0  0  0  0  0  0  0
   23.3843  -38.0201   36.3581 O   0  0  0  0  0  0  0  0  0  0  0  0
   21.8918  -37.4542   34.5649 C   0  0  0  0  0  0  0  0  0  0  0  0
   21.3392  -38.7314   34.7180 O   0  0  0  0  0  0  0  0  0  0  0  0
   18.6668  -37.7467   37.2143 H   0  0  0  0  0  0  0  0  0  0  0  0
   22.3940  -37.6436   38.4940 H   0  0  0  0  0  0  0  0  0  0  0  0
   22.9801  -38.9011   36.3974 H   0  0  0  0  0  0  0  0  0  0  0  0
   22.9301  -37.5067   33.4427 C   0  0  0  0  0  0  0  0  0  0  0  0
   22.5054  -36.8707   32.2345 O   0  0  0  0  0  0  0  0  0  0  0  0
   21.7227  -37.3262   31.8872 H   0  0  0  0  0  0  0  0  0  0  0  0
   17.8223  -38.3122   34.3850 C   0  0  0  0  0  0  0  0  0  0  0  0
   17.1401  -35.6207   32.4286 C   0  0  0  0  0  0  0  0  0  0  0  0
   15.9044  -34.8961   32.2380 O   0  0  0  0  0  0  0  0  0  0  0  0
   18.1907  -35.4159   31.3476 C   0  0  0  0  0  0  0  0  0  0  0  0
   17.6086  -34.8673   30.1702 O   0  0  0  0  0  0  0  0  0  0  0  0
   18.9009  -36.7281   31.0206 C   0  0  0  0  0  0  0  0  0  0  0  0
   20.0803  -36.4341   30.2996 O   0  0  0  0  0  0  0  0  0  0  0  0
   19.2754  -37.5059   32.2882 C   0  0  0  0  0  0  0  0  0  0  0  0
   20.0241  -38.6861   31.9636 O   0  0  0  0  0  0  0  0  0  0  0  0
   17.9448  -37.9254   32.8744 C   0  0  0  0  0  0  0  0  0  0  0  0
   16.8938  -37.0158   32.4284 O   0  0  0  0  0  0  0  0  0  0  0  0
   15.4873  -35.1805   31.4097 H   0  0  0  0  0  0  0  0  0  0  0  0
   16.9500  -35.4856   29.8168 H   0  0  0  0  0  0  0  0  0  0  0  0
   20.6638  -35.8835   30.8448 H   0  0  0  0  0  0  0  0  0  0  0  0
   19.5052  -39.2430   31.3623 H   0  0  0  0  0  0  0  0  0  0  0  0
  2  1  1  0  0  0
  2  3  1  0  0  0
  2 10  1  0  0  0
  1 17  1  0  0  0
  3  4  1  0  0  0
  3  5  1  0  0  0
  5  6  1  0  0  0
  5  7  1  0  0  0
  7  8  1  0  0  0
  7  9  1  0  0  0
  9 10  1  0  0  0
  9 14  1  0  0  0
 14 15  1  0  0  0
 18 19  1  0  0  0
 18 20  1  0  0  0
 18 27  1  0  0  0
 20 21  1  0  0  0
 20 22  1  0  0  0
 22 23  1  0  0  0
 22 24  1  0  0  0
 24 25  1  0  0  0
 24 26  1  0  0  0
 26 27  1  0  0  0
 26 17  1  0  0  0
  4 11  1  0  0  0
  6 12  1  0  0  0
  8 13  1  0  0  0
 15 16  1  0  0  0
 19 28  1  0  0  0
 21 29  1  0  0  0
 23 30  1  0  0  0
 25 31  1  0  0  0
M  END
> <minimizedAffinity>
-6.52198

$$$$
3ALT_MLB_A_301


 31 32  0  0  0  0  0  0  0  0999 V2000
   15.0458  -37.4278   31.5257 O   0  0  0  0  0  0  0  0  0  0  0  0
   14.1045  -37.0902   30.4594 C   0  0  0  0  0  0  0  0  0  0  0  0
   12.7272  -37.6874   30.5677 C   0  0  0  0  0  0  0  0  0  0  0  0
   12.2863  -37.3495   31.8704 O   0  0  0  0  0  0  0  0  0  0  0  0
   12.8059  -39.1829   30.2807 C   0  0  0  0  0  0  0  0  0  0  0  0
   11.4590  -39.6227   30.0994 O   0  0  0  0  0  0  0  0  0  0  0  0
   13.6159  -39.4497   29.0011 C   0  0  0  0  0  0  0  0  0  0  0  0
   12.9049  -38.9122   27.8809 O   0  0  0  0  0  0  0  0  0  0  0  0
   14.9926  -38.7866   29.0595 C   0  0  0  0  0  0  0  0  0  0  0  0
   14.7411  -37.4179   29.2126 O   0  0  0  0  0  0  0  0  0  0  0  0
   12.9213  -37.6832   32.5233 H   0  0  0  0  0  0  0  0  0  0  0  0
   11.0540  -39.1311   29.3678 H   0  0  0  0  0  0  0  0  0  0  0  0
   12.8000  -37.9545   27.9938 H   0  0  0  0  0  0  0  0  0  0  0  0
   15.8988  -38.9797   27.8423 C   0  0  0  0  0  0  0  0  0  0  0  0
   16.1596  -37.7731   27.1208 O   0  0  0  0  0  0  0  0  0  0  0  0
   15.3267  -37.4183   26.7723 H   0  0  0  0  0  0  0  0  0  0  0  0
   15.5618  -36.6685   32.6673 C   0  0  0  0  0  0  0  0  0  0  0  0
   18.5778  -37.9757   33.5227 C   0  0  0  0  0  0  0  0  0  0  0  0
   19.2056  -38.1015   34.8182 O   0  0  0  0  0  0  0  0  0  0  0  0
   19.5149  -38.0855   32.3294 C   0  0  0  0  0  0  0  0  0  0  0  0
   20.8687  -37.8974   32.7269 O   0  0  0  0  0  0  0  0  0  0  0  0
   19.1402  -37.0763   31.2458 C   0  0  0  0  0  0  0  0  0  0  0  0
   19.7838  -37.4469   30.0435 O   0  0  0  0  0  0  0  0  0  0  0  0
   17.6261  -37.0330   31.0050 C   0  0  0  0  0  0  0  0  0  0  0  0
   17.3042  -36.1507   29.9202 O   0  0  0  0  0  0  0  0  0  0  0  0
   17.0622  -36.4511   32.2830 C   0  0  0  0  0  0  0  0  0  0  0  0
   17.9796  -36.6982   33.3914 O   0  0  0  0  0  0  0  0  0  0  0  0
   19.8584  -37.3931   34.9313 H   0  0  0  0  0  0  0  0  0  0  0  0
   20.9767  -37.0067   33.0955 H   0  0  0  0  0  0  0  0  0  0  0  0
   19.4834  -38.3291   29.7745 H   0  0  0  0  0  0  0  0  0  0  0  0
   17.6446  -35.2632   30.1134 H   0  0  0  0  0  0  0  0  0  0  0  0
  2  1  1  0  0  0
  2  3  1  0  0  0
  2 10  1  0  0  0
  1 17  1  0  0  0
  3  4  1  0  0  0
  3  5  1  0  0  0
  5  6  1  0  0  0
  5  7  1  0  0  0
  7  8  1  0  0  0
  7  9  1  0  0  0
  9 10  1  0  0  0
  9 14  1  0  0  0
 14 15  1  0  0  0
 18 19  1  0  0  0
 18 20  1  0  0  0
 18 27  1  0  0  0
 20 21  1  0  0  0
 20 22  1  0  0  0
 22 23  1  0  0  0
 22 24  1  0  0  0
 24 25  1  0  0  0
 24 26  1  0  0  0
 26 27  1  0  0  0
 26 17  1  0  0  0
  4 11  1  0  0  0
  6 12  1  0  0  0
  8 13  1  0  0  0
 15 16  1  0  0  0
 19 28  1  0  0  0
 21 29  1  0  0  0
 23 30  1  0  0  0
 25 31  1  0  0  0
M  END
> <minimizedAffinity>
-6.50876

$$$$
3ALT_MLB_A_301


 31 32  0  0  0  0  0  0  0  0999 V2000
   16.9497  -39.1196   32.0028 O   0  0  0  0  0  0  0  0  0  0  0  0
   17.6988  -38.7501   30.8031 C   0  0  0  0  0  0  0  0  0  0  0  0
   19.1188  -39.2422   30.7220 C   0  0  0  0  0  0  0  0  0  0  0  0
   19.0339  -40.6362   30.9565 O   0  0  0  0  0  0  0  0  0  0  0  0
   19.9740  -38.4706   31.7210 C   0  0  0  0  0  0  0  0  0  0  0  0
   21.3322  -38.7597   31.3859 O   0  0  0  0  0  0  0  0  0  0  0  0
   19.7202  -36.9587   31.6015 C   0  0  0  0  0  0  0  0  0  0  0  0
   20.1806  -36.5103   30.3223 O   0  0  0  0  0  0  0  0  0  0  0  0
   18.2319  -36.6282   31.7194 C   0  0  0  0  0  0  0  0  0  0  0  0
   17.6119  -37.3209   30.6725 O   0  0  0  0  0  0  0  0  0  0  0  0
   18.6021  -40.7948   31.8105 H   0  0  0  0  0  0  0  0  0  0  0  0
   21.5044  -38.4876   30.4709 H   0  0  0  0  0  0  0  0  0  0  0  0
   19.6893  -36.9689   29.6228 H   0  0  0  0  0  0  0  0  0  0  0  0
   17.8474  -35.1510   31.6177 C   0  0  0  0  0  0  0  0  0  0  0  0
   17.9072  -34.6302   30.2874 O   0  0  0  0  0  0  0  0  0  0  0  0
   18.8182  -34.6859   29.9590 H   0  0  0  0  0  0  0  0  0  0  0  0
   15.5751  -39.5828   32.2077 C   0  0  0  0  0  0  0  0  0  0  0  0
   13.0921  -40.7218   30.1893 C   0  0  0  0  0  0  0  0  0  0  0  0
   12.9480  -41.9917   29.5146 O   0  0  0  0  0  0  0  0  0  0  0  0
   12.2306  -39.5921   29.6458 C   0  0  0  0  0  0  0  0  0  0  0  0
   11.7498  -39.9011   28.3422 O   0  0  0  0  0  0  0  0  0  0  0  0
   13.0064  -38.2765   29.6218 C   0  0  0  0  0  0  0  0  0  0  0  0
   12.0876  -37.2148   29.4607 O   0  0  0  0  0  0  0  0  0  0  0  0
   13.7968  -38.0561   30.9174 C   0  0  0  0  0  0  0  0  0  0  0  0
   14.4409  -36.7739   30.9138 O   0  0  0  0  0  0  0  0  0  0  0  0
   14.8622  -39.1305   30.8911 C   0  0  0  0  0  0  0  0  0  0  0  0
   14.4219  -40.2498   30.0638 O   0  0  0  0  0  0  0  0  0  0  0  0
   13.2010  -41.8936   28.5834 H   0  0  0  0  0  0  0  0  0  0  0  0
   12.5006  -40.0059   27.7370 H   0  0  0  0  0  0  0  0  0  0  0  0
   11.4692  -37.2063   30.2079 H   0  0  0  0  0  0  0  0  0  0  0  0
   15.0250  -36.7077   30.1422 H   0  0  0  0  0  0  0  0  0  0  0  0
  2  1  1  0  0  0
  2  3  1  0  0  0
  2 10  1  0  0  0
  1 17  1  0  0  0
  3  4  1  0  0  0
  3  5  1  0  0  0
  5  6  1  0  0  0
  5  7  1  0  0  0
  7  8  1  0  0  0
  7  9  1  0  0  0
  9 10  1  0  0  0
  9 14  1  0  0  0
 14 15  1  0  0  0
 18 19  1  0  0  0
 18 20  1  0  0  0
 18 27  1  0  0  0
 20 21  1  0  0  0
 20 22  1  0  0  0
 22 23  1  0  0  0
 22 24  1  0  0  0
 24 25  1  0  0  0
 24 26  1  0  0  0
 26 27  1  0  0  0
 26 17  1  0  0  0
  4 11  1  0  0  0
  6 12  1  0  0  0
  8 13  1  0  0  0
 15 16  1  0  0  0
 19 28  1  0  0  0
 21 29  1  0  0  0
 23 30  1  0  0  0
 25 31  1  0  0  0
M  END
> <minimizedAffinity>
-6.42564

$$$$
3ALT_MLB_A_301


 31 32  0  0  0  0  0  0  0  0999 V2000
   16.2321  -38.8830   32.6934 O   0  0  0  0  0  0  0  0  0  0  0  0
   16.6328  -37.5916   33.2490 C   0  0  0  0  0  0  0  0  0  0  0  0
   15.8255  -36.3970   32.8172 C   0  0  0  0  0  0  0  0  0  0  0  0
   14.4799  -36.7560   33.0742 O   0  0  0  0  0  0  0  0  0  0  0  0
   16.1414  -36.0794   31.3597 C   0  0  0  0  0  0  0  0  0  0  0  0
   15.5927  -34.7847   31.1086 O   0  0  0  0  0  0  0  0  0  0  0  0
   17.6610  -36.0536   31.1253 C   0  0  0  0  0  0  0  0  0  0  0  0
   18.2250  -34.9590   31.8555 O   0  0  0  0  0  0  0  0  0  0  0  0
   18.3252  -37.3446   31.6055 C   0  0  0  0  0  0  0  0  0  0  0  0
   18.0341  -37.4277   32.9725 O   0  0  0  0  0  0  0  0  0  0  0  0
   14.2680  -37.5761   32.6015 H   0  0  0  0  0  0  0  0  0  0  0  0
   15.9896  -34.1418   31.7170 H   0  0  0  0  0  0  0  0  0  0  0  0
   18.0540  -35.0798   32.8026 H   0  0  0  0  0  0  0  0  0  0  0  0
   19.8412  -37.4436   31.4259 C   0  0  0  0  0  0  0  0  0  0  0  0
   20.3840  -36.4501   30.5525 O   0  0  0  0  0  0  0  0  0  0  0  0
   20.0084  -36.5598   29.6649 H   0  0  0  0  0  0  0  0  0  0  0  0
   14.9287  -39.5351   32.5452 C   0  0  0  0  0  0  0  0  0  0  0  0
   13.4476  -38.0161   29.8926 C   0  0  0  0  0  0  0  0  0  0  0  0
   12.0600  -37.6835   29.6643 O   0  0  0  0  0  0  0  0  0  0  0  0
   14.3247  -38.0476   28.6501 C   0  0  0  0  0  0  0  0  0  0  0  0
   13.5324  -38.1302   27.4703 O   0  0  0  0  0  0  0  0  0  0  0  0
   15.3085  -39.2147   28.7053 C   0  0  0  0  0  0  0  0  0  0  0  0
   16.3168  -38.9997   27.7387 O   0  0  0  0  0  0  0  0  0  0  0  0
   15.9642  -39.3439   30.0857 C   0  0  0  0  0  0  0  0  0  0  0  0
   16.9527  -40.3838   30.0889 O   0  0  0  0  0  0  0  0  0  0  0  0
   14.8301  -39.7543   30.9997 C   0  0  0  0  0  0  0  0  0  0  0  0
   13.5545  -39.3188   30.4390 O   0  0  0  0  0  0  0  0  0  0  0  0
   11.6610  -38.3456   29.0783 H   0  0  0  0  0  0  0  0  0  0  0  0
   13.0209  -38.9543   27.4814 H   0  0  0  0  0  0  0  0  0  0  0  0
   16.7880  -38.1762   27.9407 H   0  0  0  0  0  0  0  0  0  0  0  0
   16.5410  -41.2221   29.8268 H   0  0  0  0  0  0  0  0  0  0  0  0
  2  1  1  0  0  0
  2  3  1  0  0  0
  2 10  1  0  0  0
  1 17  1  0  0  0
  3  4  1  0  0  0
  3  5  1  0  0  0
  5  6  1  0  0  0
  5  7  1  0  0  0
  7  8  1  0  0  0
  7  9  1  0  0  0
  9 10  1  0  0  0
  9 14  1  0  0  0
 14 15  1  0  0  0
 18 19  1  0  0  0
 18 20  1  0  0  0
 18 27  1  0  0  0
 20 21  1  0  0  0
 20 22  1  0  0  0
 22 23  1  0  0  0
 22 24  1  0  0  0
 24 25  1  0  0  0
 24 26  1  0  0  0
 26 27  1  0  0  0
 26 17  1  0  0  0
  4 11  1  0  0  0
  6 12  1  0  0  0
  8 13  1  0  0  0
 15 16  1  0  0  0
 19 28  1  0  0  0
 21 29  1  0  0  0
 23 30  1  0  0  0
 25 31  1  0  0  0
M  END
> <minimizedAffinity>
-6.42325

$$$$
3ALT_MLB_A_301


 31 32  0  0  0  0  0  0  0  0999 V2000
   17.3746  -36.9587   31.1289 O   0  0  0  0  0  0  0  0  0  0  0  0
   18.4300  -36.5460   32.0524 C   0  0  0  0  0  0  0  0  0  0  0  0
   19.8387  -36.9075   31.6646 C   0  0  0  0  0  0  0  0  0  0  0  0
   19.9884  -36.4188   30.3439 O   0  0  0  0  0  0  0  0  0  0  0  0
   20.0309  -38.4119   31.8217 C   0  0  0  0  0  0  0  0  0  0  0  0
   21.4382  -38.6421   31.7378 O   0  0  0  0  0  0  0  0  0  0  0  0
   19.5074  -38.8879   33.1870 C   0  0  0  0  0  0  0  0  0  0  0  0
   20.3190  -38.3186   34.2197 O   0  0  0  0  0  0  0  0  0  0  0  0
   18.0603  -38.4505   33.4171 C   0  0  0  0  0  0  0  0  0  0  0  0
   18.0784  -37.0521   33.3514 O   0  0  0  0  0  0  0  0  0  0  0  0
   19.3037  -36.8059   29.7763 H   0  0  0  0  0  0  0  0  0  0  0  0
   21.8899  -38.1414   32.4350 H   0  0  0  0  0  0  0  0  0  0  0  0
   20.2615  -37.3511   34.1797 H   0  0  0  0  0  0  0  0  0  0  0  0
   17.4214  -38.8652   34.7438 C   0  0  0  0  0  0  0  0  0  0  0  0
   18.1789  -38.4796   35.8935 O   0  0  0  0  0  0  0  0  0  0  0  0
   19.0442  -38.9177   35.8725 H   0  0  0  0  0  0  0  0  0  0  0  0
   15.9864  -36.5245   30.9548 C   0  0  0  0  0  0  0  0  0  0  0  0
   13.1072  -37.5304   29.4597 C   0  0  0  0  0  0  0  0  0  0  0  0
   11.7405  -37.1299   29.7047 O   0  0  0  0  0  0  0  0  0  0  0  0
   13.2788  -38.8414   28.7076 C   0  0  0  0  0  0  0  0  0  0  0  0
   12.0789  -39.6066   28.7391 O   0  0  0  0  0  0  0  0  0  0  0  0
   14.4361  -39.6546   29.2843 C   0  0  0  0  0  0  0  0  0  0  0  0
   14.7846  -40.6622   28.3567 O   0  0  0  0  0  0  0  0  0  0  0  0
   15.6680  -38.7820   29.5547 C   0  0  0  0  0  0  0  0  0  0  0  0
   16.7725  -39.5792   30.0055 O   0  0  0  0  0  0  0  0  0  0  0  0
   15.2385  -37.8712   30.6844 C   0  0  0  0  0  0  0  0  0  0  0  0
   13.7854  -37.7307   30.6873 O   0  0  0  0  0  0  0  0  0  0  0  0
   11.2986  -37.8026   30.2461 H   0  0  0  0  0  0  0  0  0  0  0  0
   11.8615  -39.8292   29.6578 H   0  0  0  0  0  0  0  0  0  0  0  0
   15.0673  -40.2518   27.5245 H   0  0  0  0  0  0  0  0  0  0  0  0
   16.5159  -40.0646   30.8051 H   0  0  0  0  0  0  0  0  0  0  0  0
  2  1  1  0  0  0
  2  3  1  0  0  0
  2 10  1  0  0  0
  1 17  1  0  0  0
  3  4  1  0  0  0
  3  5  1  0  0  0
  5  6  1  0  0  0
  5  7  1  0  0  0
  7  8  1  0  0  0
  7  9  1  0  0  0
  9 10  1  0  0  0
  9 14  1  0  0  0
 14 15  1  0  0  0
 18 19  1  0  0  0
 18 20  1  0  0  0
 18 27  1  0  0  0
 20 21  1  0  0  0
 20 22  1  0  0  0
 22 23  1  0  0  0
 22 24  1  0  0  0
 24 25  1  0  0  0
 24 26  1  0  0  0
 26 27  1  0  0  0
 26 17  1  0  0  0
  4 11  1  0  0  0
  6 12  1  0  0  0
  8 13  1  0  0  0
 15 16  1  0  0  0
 19 28  1  0  0  0
 21 29  1  0  0  0
 23 30  1  0  0  0
 25 31  1  0  0  0
M  END
> <minimizedAffinity>
-6.12735

$$$$
3ALT_MLB_A_301


 31 32  0  0  0  0  0  0  0  0999 V2000
   16.4498  -37.9186   31.7409 O   0  0  0  0  0  0  0  0  0  0  0  0
   15.9474  -39.0014   30.8969 C   0  0  0  0  0  0  0  0  0  0  0  0
   16.4124  -39.0058   29.4654 C   0  0  0  0  0  0  0  0  0  0  0  0
   17.8243  -38.9262   29.5421 O   0  0  0  0  0  0  0  0  0  0  0  0
   15.7411  -37.8592   28.7174 C   0  0  0  0  0  0  0  0  0  0  0  0
   15.9780  -38.0995   27.3293 O   0  0  0  0  0  0  0  0  0  0  0  0
   14.2280  -37.8430   28.9906 C   0  0  0  0  0  0  0  0  0  0  0  0
   13.6419  -39.0221   28.4288 O   0  0  0  0  0  0  0  0  0  0  0  0
   13.9283  -37.8252   30.4900 C   0  0  0  0  0  0  0  0  0  0  0  0
   14.5135  -38.9897   31.0012 O   0  0  0  0  0  0  0  0  0  0  0  0
   18.0768  -38.1355   30.0439 H   0  0  0  0  0  0  0  0  0  0  0  0
   15.6090  -38.9621   27.0830 H   0  0  0  0  0  0  0  0  0  0  0  0
   14.0296  -39.8067   28.8472 H   0  0  0  0  0  0  0  0  0  0  0  0
   12.4530  -37.8065   30.8942 C   0  0  0  0  0  0  0  0  0  0  0  0
   11.5694  -37.4362   29.8327 O   0  0  0  0  0  0  0  0  0  0  0  0
   11.7721  -36.5328   29.5436 H   0  0  0  0  0  0  0  0  0  0  0  0
   16.8674  -37.8701   33.1442 C   0  0  0  0  0  0  0  0  0  0  0  0
   19.8370  -36.7888   31.8995 C   0  0  0  0  0  0  0  0  0  0  0  0
   20.1967  -36.3946   30.5565 O   0  0  0  0  0  0  0  0  0  0  0  0
   21.0029  -37.1376   32.8122 C   0  0  0  0  0  0  0  0  0  0  0  0
   22.1834  -37.3862   32.0567 O   0  0  0  0  0  0  0  0  0  0  0  0
   20.6717  -38.3479   33.6833 C   0  0  0  0  0  0  0  0  0  0  0  0
   21.6083  -38.4121   34.7396 O   0  0  0  0  0  0  0  0  0  0  0  0
   19.2605  -38.2551   34.2766 C   0  0  0  0  0  0  0  0  0  0  0  0
   19.0047  -39.3518   35.1658 O   0  0  0  0  0  0  0  0  0  0  0  0
   18.3440  -38.3818   33.0792 C   0  0  0  0  0  0  0  0  0  0  0  0
   19.0435  -37.9620   31.8686 O   0  0  0  0  0  0  0  0  0  0  0  0
   20.6629  -37.1243   30.1193 H   0  0  0  0  0  0  0  0  0  0  0  0
   22.0391  -38.1468   31.4723 H   0  0  0  0  0  0  0  0  0  0  0  0
   21.5460  -37.6067   35.2765 H   0  0  0  0  0  0  0  0  0  0  0  0
   19.1201  -40.1885   34.6888 H   0  0  0  0  0  0  0  0  0  0  0  0
  2  1  1  0  0  0
  2  3  1  0  0  0
  2 10  1  0  0  0
  1 17  1  0  0  0
  3  4  1  0  0  0
  3  5  1  0  0  0
  5  6  1  0  0  0
  5  7  1  0  0  0
  7  8  1  0  0  0
  7  9  1  0  0  0
  9 10  1  0  0  0
  9 14  1  0  0  0
 14 15  1  0  0  0
 18 19  1  0  0  0
 18 20  1  0  0  0
 18 27  1  0  0  0
 20 21  1  0  0  0
 20 22  1  0  0  0
 22 23  1  0  0  0
 22 24  1  0  0  0
 24 25  1  0  0  0
 24 26  1  0  0  0
 26 27  1  0  0  0
 26 17  1  0  0  0
  4 11  1  0  0  0
  6 12  1  0  0  0
  8 13  1  0  0  0
 15 16  1  0  0  0
 19 28  1  0  0  0
 21 29  1  0  0  0
 23 30  1  0  0  0
 25 31  1  0  0  0
M  END
> <minimizedAffinity>
-6.02563

$$$$
