3UDH_091_A_501
  RCSB PDB12061711023D
Coordinates from PDB:3UDH:A:501 Model:1 without hydrogens
 14 16  0  0  0  0            999 V2000
   23.0870   36.3340   41.4120   C 0  0  0  0  0  0  0  0  0  0  0  0
   24.4800   36.8450   41.2850   C 0  0  0  0  0  0  0  0  0  0  0  0
   22.9810   36.1650   42.9120   C 0  0  0  0  0  0  0  0  0  0  0  0
   22.0820   37.3700   40.9790   C 0  0  0  0  0  0  0  0  0  0  0  0
   22.7770   35.0610   40.6520   C 0  0  0  0  0  0  0  0  0  0  0  0
   25.0570   36.9900   42.5110   C 0  0  0  0  0  0  0  0  0  0  0  0
   25.1800   37.1610   40.1580   C 0  0  0  0  0  0  0  0  0  0  0  0
   24.1670   36.5930   43.5030   N 0  0  0  0  0  0  0  0  0  0  0  0
   21.9260   35.8730   43.4650   O 0  0  0  0  0  0  0  0  0  0  0  0
   20.9440   36.6090   40.3350   C 0  0  0  0  0  0  0  0  0  0  0  0
   21.5990   35.3980   39.7910   N 0  0  0  0  0  0  0  0  0  0  0  0
   26.3310   37.4800   42.6680   C 0  0  0  0  0  0  0  0  0  0  0  0
   26.4660   37.6510   40.2870   C 0  0  0  0  0  0  0  0  0  0  0  0
   27.0370   37.7960   41.5320   C 0  0  0  0  0  0  0  0  0  0  0  0
 11 10  1  0  0  0  0
 11  5  1  0  0  0  0
  7 13  2  0  0  0  0
  7  2  1  0  0  0  0
 13 14  1  0  0  0  0
 10  4  1  0  0  0  0
  5  1  1  0  0  0  0
  4  1  1  0  0  0  0
  2  1  1  0  0  0  0
  2  6  2  0  0  0  0
  1  3  1  0  0  0  0
 14 12  2  0  0  0  0
  6 12  1  0  0  0  0
  6  8  1  0  0  0  0
  3  9  2  0  0  0  0
  3  8  1  0  0  0  0
A    1
C1
A    2
C2
A    3
C3
A    4
C4
A    5
C5
A    6
C6
A    7
C7
A    8
N1
A    9
O1
A   10
C8
A   11
N2
A   12
C9
A   13
C10
A   14
C11
M  END
>  <InstanceId>
3UDH_091_A_501

>  <ChemCompId>
091

>  <PdbId>
3UDH

>  <ChainId>
A

>  <ResidueNumber>
501

>  <InsertionCode>


>  <Model>
1

>  <AltIds>


>  <MissingHeavyAtoms>
0

>  <ObservedFormula>
C11 N2 O

>  <Name>
(3S)-spiro[indole-3,3'-pyrrolidin]-2(1H)-one

>  <SystematicName>
(3S)-spiro[1H-indole-3,3'-pyrrolidine]-2-one

>  <Synonyms>


>  <Type>
NON-POLYMER

>  <Formula>
C11 H12 N2 O

>  <MolecularWeight>
188.226

>  <ModifiedDate>
2012-04-13

>  <Parent>


>  <OneLetterCode>


>  <SubcomponentList>


>  <AmbiguousFlag>
N

>  <InChI>
InChI=1S/C11H12N2O/c14-10-11(5-6-12-7-11)8-3-1-2-4-9(8)13-10/h1-4,12H,5-7H2,(H,13,14)/t11-/m1/s1

>  <InChIKey>
FQSHLSLQUHZOMV-LLVKDONJSA-N

>  <SMILES>
c1ccc2c(c1)[C@]3(CCNC3)C(=O)N2

$$$$
