3UDH_091_A_501


 16 18  0  0  0  0  0  0  0  0999 V2000
   22.9733   36.3393   41.4780 C   0  0  0  0  0  0  0  0  0  0  0  0
   24.3915   36.7589   41.3035 C   0  0  0  0  0  0  0  0  0  0  0  0
   22.9239   36.1167   42.9739 C   0  0  0  0  0  0  0  0  0  0  0  0
   22.0247   37.4582   41.1331 C   0  0  0  0  0  0  0  0  0  0  0  0
   22.5408   35.1225   40.6864 C   0  0  0  0  0  0  0  0  0  0  0  0
   25.0322   36.8140   42.5049 C   0  0  0  0  0  0  0  0  0  0  0  0
   25.0600   37.0722   40.1568 C   0  0  0  0  0  0  0  0  0  0  0  0
   24.1625   36.4384   43.5229 N   0  0  0  0  0  0  0  0  0  0  0  0
   21.8772   35.8750   43.5656 O   0  0  0  0  0  0  0  0  0  0  0  0
   20.8082   36.8035   40.5163 C   0  0  0  0  0  0  0  0  0  0  0  0
   21.3514   35.5739   39.8963 N   0  0  0  0  0  0  0  0  0  0  0  0
   26.3432   37.2091   42.6188 C   0  0  0  0  0  0  0  0  0  0  0  0
   26.3817   37.4677   40.2422 C   0  0  0  0  0  0  0  0  0  0  0  0
   27.0174   37.5224   41.4629 C   0  0  0  0  0  0  0  0  0  0  0  0
   24.3871   36.4051   44.4809 H   0  0  0  0  0  0  0  0  0  0  0  0
   21.6319   35.7693   38.9353 H   0  0  0  0  0  0  0  0  0  0  0  0
 11 10  1  0  0  0
 11  5  1  0  0  0
  7 13  2  0  0  0
  7  2  1  0  0  0
 13 14  1  0  0  0
 10  4  1  0  0  0
  5  1  1  0  0  0
  4  1  1  0  0  0
  2  1  1  0  0  0
  2  6  2  0  0  0
  1  3  1  0  0  0
 14 12  2  0  0  0
  6 12  1  0  0  0
  6  8  1  0  0  0
  3  9  2  0  0  0
  3  8  1  0  0  0
  8 15  1  0  0  0
 11 16  1  0  0  0
M  END
> <minimizedAffinity>
-7.60893

$$$$
3UDH_091_A_501


 16 18  0  0  0  0  0  0  0  0999 V2000
   25.6010   36.7450   41.9629 C   0  0  0  0  0  0  0  0  0  0  0  0
   24.1223   36.6382   42.1038 C   0  0  0  0  0  0  0  0  0  0  0  0
   25.7125   37.3554   40.5828 C   0  0  0  0  0  0  0  0  0  0  0  0
   26.1774   37.7171   42.9597 C   0  0  0  0  0  0  0  0  0  0  0  0
   26.3742   35.4496   42.0987 C   0  0  0  0  0  0  0  0  0  0  0  0
   23.4927   37.1474   41.0077 C   0  0  0  0  0  0  0  0  0  0  0  0
   23.3922   36.1275   43.1363 C   0  0  0  0  0  0  0  0  0  0  0  0
   24.4336   37.5910   40.0848 N   0  0  0  0  0  0  0  0  0  0  0  0
   26.7833   37.7308   40.1175 O   0  0  0  0  0  0  0  0  0  0  0  0
   27.5335   37.1691   43.3462 C   0  0  0  0  0  0  0  0  0  0  0  0
   27.3780   35.7063   43.1799 N   0  0  0  0  0  0  0  0  0  0  0  0
   22.1234   37.1980   40.9067 C   0  0  0  0  0  0  0  0  0  0  0  0
   22.0126   36.1609   43.0581 C   0  0  0  0  0  0  0  0  0  0  0  0
   21.3879   36.6810   41.9462 C   0  0  0  0  0  0  0  0  0  0  0  0
   24.2279   38.0063   39.2162 H   0  0  0  0  0  0  0  0  0  0  0  0
   27.0533   35.2941   44.0546 H   0  0  0  0  0  0  0  0  0  0  0  0
 11 10  1  0  0  0
 11  5  1  0  0  0
  7 13  2  0  0  0
  7  2  1  0  0  0
 13 14  1  0  0  0
 10  4  1  0  0  0
  5  1  1  0  0  0
  4  1  1  0  0  0
  2  1  1  0  0  0
  2  6  2  0  0  0
  1  3  1  0  0  0
 14 12  2  0  0  0
  6 12  1  0  0  0
  6  8  1  0  0  0
  3  9  2  0  0  0
  3  8  1  0  0  0
  8 15  1  0  0  0
 11 16  1  0  0  0
M  END
> <minimizedAffinity>
-6.96086

$$$$
3UDH_091_A_501


 16 18  0  0  0  0  0  0  0  0999 V2000
   23.8777   35.3273   42.6816 C   0  0  0  0  0  0  0  0  0  0  0  0
   24.9659   36.1483   42.0819 C   0  0  0  0  0  0  0  0  0  0  0  0
   23.0830   34.9618   41.4468 C   0  0  0  0  0  0  0  0  0  0  0  0
   24.4198   34.0595   43.2895 C   0  0  0  0  0  0  0  0  0  0  0  0
   23.0393   36.0118   43.7411 C   0  0  0  0  0  0  0  0  0  0  0  0
   24.8414   36.2025   40.7260 C   0  0  0  0  0  0  0  0  0  0  0  0
   25.9940   36.7964   42.7008 C   0  0  0  0  0  0  0  0  0  0  0  0
   23.7182   35.4876   40.3247 N   0  0  0  0  0  0  0  0  0  0  0  0
   22.1475   34.1695   41.4812 O   0  0  0  0  0  0  0  0  0  0  0  0
   23.5642   33.7761   44.5046 C   0  0  0  0  0  0  0  0  0  0  0  0
   23.1240   35.1204   44.9414 N   0  0  0  0  0  0  0  0  0  0  0  0
   25.7430   36.8711   39.9335 C   0  0  0  0  0  0  0  0  0  0  0  0
   26.9125   37.4813   41.9276 C   0  0  0  0  0  0  0  0  0  0  0  0
   26.7775   37.5261   40.5576 C   0  0  0  0  0  0  0  0  0  0  0  0
   23.4192   35.3715   39.3940 H   0  0  0  0  0  0  0  0  0  0  0  0
   23.7968   35.5026   45.6060 H   0  0  0  0  0  0  0  0  0  0  0  0
 11 10  1  0  0  0
 11  5  1  0  0  0
  7 13  2  0  0  0
  7  2  1  0  0  0
 13 14  1  0  0  0
 10  4  1  0  0  0
  5  1  1  0  0  0
  4  1  1  0  0  0
  2  1  1  0  0  0
  2  6  2  0  0  0
  1  3  1  0  0  0
 14 12  2  0  0  0
  6 12  1  0  0  0
  6  8  1  0  0  0
  3  9  2  0  0  0
  3  8  1  0  0  0
  8 15  1  0  0  0
 11 16  1  0  0  0
M  END
> <minimizedAffinity>
-6.81910

$$$$
3UDH_091_A_501


 16 18  0  0  0  0  0  0  0  0999 V2000
   25.8240   36.4149   41.9619 C   0  0  0  0  0  0  0  0  0  0  0  0
   24.3892   36.7365   41.7262 C   0  0  0  0  0  0  0  0  0  0  0  0
   25.7130   35.4511   43.1232 C   0  0  0  0  0  0  0  0  0  0  0  0
   26.4200   35.6789   40.7898 C   0  0  0  0  0  0  0  0  0  0  0  0
   26.7267   37.5943   42.2590 C   0  0  0  0  0  0  0  0  0  0  0  0
   23.5889   36.0363   42.5784 C   0  0  0  0  0  0  0  0  0  0  0  0
   23.8380   37.5888   40.8153 C   0  0  0  0  0  0  0  0  0  0  0  0
   24.3676   35.2512   43.4216 N   0  0  0  0  0  0  0  0  0  0  0  0
   26.6809   34.8367   43.5590 O   0  0  0  0  0  0  0  0  0  0  0  0
   27.8581   36.1385   40.6915 C   0  0  0  0  0  0  0  0  0  0  0  0
   27.8228   37.5122   41.2420 N   0  0  0  0  0  0  0  0  0  0  0  0
   22.2186   36.1297   42.5401 C   0  0  0  0  0  0  0  0  0  0  0  0
   22.4620   37.7062   40.7591 C   0  0  0  0  0  0  0  0  0  0  0  0
   21.6636   36.9906   41.6238 C   0  0  0  0  0  0  0  0  0  0  0  0
   24.0221   34.6489   44.1195 H   0  0  0  0  0  0  0  0  0  0  0  0
   27.6444   38.1785   40.4906 H   0  0  0  0  0  0  0  0  0  0  0  0
 11 10  1  0  0  0
 11  5  1  0  0  0
  7 13  2  0  0  0
  7  2  1  0  0  0
 13 14  1  0  0  0
 10  4  1  0  0  0
  5  1  1  0  0  0
  4  1  1  0  0  0
  2  1  1  0  0  0
  2  6  2  0  0  0
  1  3  1  0  0  0
 14 12  2  0  0  0
  6 12  1  0  0  0
  6  8  1  0  0  0
  3  9  2  0  0  0
  3  8  1  0  0  0
  8 15  1  0  0  0
 11 16  1  0  0  0
M  END
> <minimizedAffinity>
-6.72122

$$$$
3UDH_091_A_501


 16 18  0  0  0  0  0  0  0  0999 V2000
   21.1646   35.1458   43.9907 C   0  0  0  0  0  0  0  0  0  0  0  0
   21.6566   35.9607   42.8455 C   0  0  0  0  0  0  0  0  0  0  0  0
   22.4391   34.9769   44.7888 C   0  0  0  0  0  0  0  0  0  0  0  0
   20.1787   35.9181   44.8289 C   0  0  0  0  0  0  0  0  0  0  0  0
   20.5140   33.8257   43.6327 C   0  0  0  0  0  0  0  0  0  0  0  0
   22.9804   36.2503   42.9897 C   0  0  0  0  0  0  0  0  0  0  0  0
   20.9721   36.4137   41.7564 C   0  0  0  0  0  0  0  0  0  0  0  0
   23.4667   35.6731   44.1577 N   0  0  0  0  0  0  0  0  0  0  0  0
   22.4518   34.4582   45.9001 O   0  0  0  0  0  0  0  0  0  0  0  0
   19.1694   34.9080   45.3289 C   0  0  0  0  0  0  0  0  0  0  0  0
   19.1602   33.8723   44.2713 N   0  0  0  0  0  0  0  0  0  0  0  0
   23.6650   37.0213   42.0816 C   0  0  0  0  0  0  0  0  0  0  0  0
   21.6382   37.1871   40.8243 C   0  0  0  0  0  0  0  0  0  0  0  0
   22.9756   37.4756   40.9830 C   0  0  0  0  0  0  0  0  0  0  0  0
   24.3918   35.7453   44.4865 H   0  0  0  0  0  0  0  0  0  0  0  0
   18.4575   34.1047   43.5694 H   0  0  0  0  0  0  0  0  0  0  0  0
 11 10  1  0  0  0
 11  5  1  0  0  0
  7 13  2  0  0  0
  7  2  1  0  0  0
 13 14  1  0  0  0
 10  4  1  0  0  0
  5  1  1  0  0  0
  4  1  1  0  0  0
  2  1  1  0  0  0
  2  6  2  0  0  0
  1  3  1  0  0  0
 14 12  2  0  0  0
  6 12  1  0  0  0
  6  8  1  0  0  0
  3  9  2  0  0  0
  3  8  1  0  0  0
  8 15  1  0  0  0
 11 16  1  0  0  0
M  END
> <minimizedAffinity>
-6.70269

$$$$
3UDH_091_A_501


 16 18  0  0  0  0  0  0  0  0999 V2000
   19.8492   35.4000   43.5870 C   0  0  0  0  0  0  0  0  0  0  0  0
   20.8889   36.0804   42.7661 C   0  0  0  0  0  0  0  0  0  0  0  0
   18.5969   35.7637   42.8194 C   0  0  0  0  0  0  0  0  0  0  0  0
   20.0126   33.9025   43.5462 C   0  0  0  0  0  0  0  0  0  0  0  0
   19.7861   35.8063   45.0448 C   0  0  0  0  0  0  0  0  0  0  0  0
   20.3296   36.6903   41.6834 C   0  0  0  0  0  0  0  0  0  0  0  0
   22.2360   36.1472   42.9686 C   0  0  0  0  0  0  0  0  0  0  0  0
   18.9516   36.5038   41.6945 N   0  0  0  0  0  0  0  0  0  0  0  0
   17.4995   35.2904   43.0949 O   0  0  0  0  0  0  0  0  0  0  0  0
   19.6014   33.3970   44.9116 C   0  0  0  0  0  0  0  0  0  0  0  0
   19.9214   34.5275   45.8122 N   0  0  0  0  0  0  0  0  0  0  0  0
   21.0825   37.3593   40.7489 C   0  0  0  0  0  0  0  0  0  0  0  0
   23.0166   36.8188   42.0466 C   0  0  0  0  0  0  0  0  0  0  0  0
   22.4396   37.4285   40.9545 C   0  0  0  0  0  0  0  0  0  0  0  0
   18.3254   36.8418   41.0141 H   0  0  0  0  0  0  0  0  0  0  0  0
   20.8772   34.4328   46.1555 H   0  0  0  0  0  0  0  0  0  0  0  0
 11 10  1  0  0  0
 11  5  1  0  0  0
  7 13  2  0  0  0
  7  2  1  0  0  0
 13 14  1  0  0  0
 10  4  1  0  0  0
  5  1  1  0  0  0
  4  1  1  0  0  0
  2  1  1  0  0  0
  2  6  2  0  0  0
  1  3  1  0  0  0
 14 12  2  0  0  0
  6 12  1  0  0  0
  6  8  1  0  0  0
  3  9  2  0  0  0
  3  8  1  0  0  0
  8 15  1  0  0  0
 11 16  1  0  0  0
M  END
> <minimizedAffinity>
-6.66530

$$$$
3UDH_091_A_501


 16 18  0  0  0  0  0  0  0  0999 V2000
   21.5424   35.7162   42.4034 C   0  0  0  0  0  0  0  0  0  0  0  0
   22.8410   36.4078   42.1727 C   0  0  0  0  0  0  0  0  0  0  0  0
   20.7704   36.1416   41.1735 C   0  0  0  0  0  0  0  0  0  0  0  0
   21.7055   34.2186   42.3669 C   0  0  0  0  0  0  0  0  0  0  0  0
   20.8297   36.0599   43.6949 C   0  0  0  0  0  0  0  0  0  0  0  0
   22.8298   37.0769   40.9856 C   0  0  0  0  0  0  0  0  0  0  0  0
   23.9524   36.4348   42.9626 C   0  0  0  0  0  0  0  0  0  0  0  0
   21.5944   36.9217   40.3663 N   0  0  0  0  0  0  0  0  0  0  0  0
   19.6662   35.6820   40.9021 O   0  0  0  0  0  0  0  0  0  0  0  0
   20.7228   33.6636   43.3745 C   0  0  0  0  0  0  0  0  0  0  0  0
   20.6037   34.7461   44.3772 N   0  0  0  0  0  0  0  0  0  0  0  0
   23.9236   37.7686   40.5240 C   0  0  0  0  0  0  0  0  0  0  0  0
   25.0652   37.1279   42.5247 C   0  0  0  0  0  0  0  0  0  0  0  0
   25.0426   37.7977   41.3213 C   0  0  0  0  0  0  0  0  0  0  0  0
   21.3422   37.3033   39.4945 H   0  0  0  0  0  0  0  0  0  0  0  0
   21.3023   34.6147   45.1087 H   0  0  0  0  0  0  0  0  0  0  0  0
 11 10  1  0  0  0
 11  5  1  0  0  0
  7 13  2  0  0  0
  7  2  1  0  0  0
 13 14  1  0  0  0
 10  4  1  0  0  0
  5  1  1  0  0  0
  4  1  1  0  0  0
  2  1  1  0  0  0
  2  6  2  0  0  0
  1  3  1  0  0  0
 14 12  2  0  0  0
  6 12  1  0  0  0
  6  8  1  0  0  0
  3  9  2  0  0  0
  3  8  1  0  0  0
  8 15  1  0  0  0
 11 16  1  0  0  0
M  END
> <minimizedAffinity>
-6.60114

$$$$
3UDH_091_A_501


 16 18  0  0  0  0  0  0  0  0999 V2000
   23.3110   35.5435   41.7677 C   0  0  0  0  0  0  0  0  0  0  0  0
   24.5233   36.2338   41.2468 C   0  0  0  0  0  0  0  0  0  0  0  0
   23.8712   34.1699   42.0662 C   0  0  0  0  0  0  0  0  0  0  0  0
   22.8449   36.1576   43.0625 C   0  0  0  0  0  0  0  0  0  0  0  0
   22.1192   35.5038   40.8337 C   0  0  0  0  0  0  0  0  0  0  0  0
   25.6064   35.4077   41.2866 C   0  0  0  0  0  0  0  0  0  0  0  0
   24.6513   37.5071   40.7754 C   0  0  0  0  0  0  0  0  0  0  0  0
   25.2348   34.1636   41.7843 N   0  0  0  0  0  0  0  0  0  0  0  0
   23.2163   33.3064   42.6404 O   0  0  0  0  0  0  0  0  0  0  0  0
   21.3351   36.0618   43.0542 C   0  0  0  0  0  0  0  0  0  0  0  0
   20.9915   36.1045   41.6149 N   0  0  0  0  0  0  0  0  0  0  0  0
   26.8567   35.8191   40.8922 C   0  0  0  0  0  0  0  0  0  0  0  0
   25.8971   37.9450   40.3668 C   0  0  0  0  0  0  0  0  0  0  0  0
   26.9848   37.1014   40.4149 C   0  0  0  0  0  0  0  0  0  0  0  0
   25.8405   33.3987   41.9165 H   0  0  0  0  0  0  0  0  0  0  0  0
   20.8499   37.0720   41.3245 H   0  0  0  0  0  0  0  0  0  0  0  0
 11 10  1  0  0  0
 11  5  1  0  0  0
  7 13  2  0  0  0
  7  2  1  0  0  0
 13 14  1  0  0  0
 10  4  1  0  0  0
  5  1  1  0  0  0
  4  1  1  0  0  0
  2  1  1  0  0  0
  2  6  2  0  0  0
  1  3  1  0  0  0
 14 12  2  0  0  0
  6 12  1  0  0  0
  6  8  1  0  0  0
  3  9  2  0  0  0
  3  8  1  0  0  0
  8 15  1  0  0  0
 11 16  1  0  0  0
M  END
> <minimizedAffinity>
-6.59173

$$$$
3UDH_091_A_501


 16 18  0  0  0  0  0  0  0  0999 V2000
   21.7358   35.9449   41.5864 C   0  0  0  0  0  0  0  0  0  0  0  0
   23.1019   36.4417   41.2627 C   0  0  0  0  0  0  0  0  0  0  0  0
   22.0134   34.4748   41.8133 C   0  0  0  0  0  0  0  0  0  0  0  0
   21.2291   36.5367   42.8763 C   0  0  0  0  0  0  0  0  0  0  0  0
   20.6758   36.1887   40.5323 C   0  0  0  0  0  0  0  0  0  0  0  0
   24.0154   35.4334   41.3396 C   0  0  0  0  0  0  0  0  0  0  0  0
   23.5010   37.7021   40.9279 C   0  0  0  0  0  0  0  0  0  0  0  0
   23.3799   34.2435   41.6774 N   0  0  0  0  0  0  0  0  0  0  0  0
   21.1567   33.7038   42.2324 O   0  0  0  0  0  0  0  0  0  0  0  0
   19.7372   36.7153   42.6999 C   0  0  0  0  0  0  0  0  0  0  0  0
   19.5815   36.9240   41.2426 N   0  0  0  0  0  0  0  0  0  0  0  0
   25.3557   35.6405   41.1192 C   0  0  0  0  0  0  0  0  0  0  0  0
   24.8431   37.9371   40.6955 C   0  0  0  0  0  0  0  0  0  0  0  0
   25.7572   36.9102   40.7794 C   0  0  0  0  0  0  0  0  0  0  0  0
   23.8258   33.3746   41.8011 H   0  0  0  0  0  0  0  0  0  0  0  0
   19.6430   37.9197   41.0301 H   0  0  0  0  0  0  0  0  0  0  0  0
 11 10  1  0  0  0
 11  5  1  0  0  0
  7 13  2  0  0  0
  7  2  1  0  0  0
 13 14  1  0  0  0
 10  4  1  0  0  0
  5  1  1  0  0  0
  4  1  1  0  0  0
  2  1  1  0  0  0
  2  6  2  0  0  0
  1  3  1  0  0  0
 14 12  2  0  0  0
  6 12  1  0  0  0
  6  8  1  0  0  0
  3  9  2  0  0  0
  3  8  1  0  0  0
  8 15  1  0  0  0
 11 16  1  0  0  0
M  END
> <minimizedAffinity>
-6.54704

$$$$
3UDH_091_A_501


 16 18  0  0  0  0  0  0  0  0999 V2000
   21.9048   36.2120   41.5835 C   0  0  0  0  0  0  0  0  0  0  0  0
   20.7265   35.8577   42.4225 C   0  0  0  0  0  0  0  0  0  0  0  0
   21.3294   37.3300   40.7416 C   0  0  0  0  0  0  0  0  0  0  0  0
   23.0235   36.7761   42.4208 C   0  0  0  0  0  0  0  0  0  0  0  0
   22.4875   35.0879   40.7522 C   0  0  0  0  0  0  0  0  0  0  0  0
   19.6690   36.6699   42.1411 C   0  0  0  0  0  0  0  0  0  0  0  0
   20.6079   34.8843   43.3703 C   0  0  0  0  0  0  0  0  0  0  0  0
   20.0156   37.5676   41.1372 N   0  0  0  0  0  0  0  0  0  0  0  0
   22.0214   38.0015   39.9837 O   0  0  0  0  0  0  0  0  0  0  0  0
   24.3093   36.3098   41.7743 C   0  0  0  0  0  0  0  0  0  0  0  0
   23.9335   35.0275   41.1372 N   0  0  0  0  0  0  0  0  0  0  0  0
   18.4707   36.5695   42.8057 C   0  0  0  0  0  0  0  0  0  0  0  0
   19.4113   34.7577   44.0504 C   0  0  0  0  0  0  0  0  0  0  0  0
   18.3508   35.5869   43.7590 C   0  0  0  0  0  0  0  0  0  0  0  0
   19.4251   38.2619   40.7649 H   0  0  0  0  0  0  0  0  0  0  0  0
   24.0820   34.2614   41.7940 H   0  0  0  0  0  0  0  0  0  0  0  0
 11 10  1  0  0  0
 11  5  1  0  0  0
  7 13  2  0  0  0
  7  2  1  0  0  0
 13 14  1  0  0  0
 10  4  1  0  0  0
  5  1  1  0  0  0
  4  1  1  0  0  0
  2  1  1  0  0  0
  2  6  2  0  0  0
  1  3  1  0  0  0
 14 12  2  0  0  0
  6 12  1  0  0  0
  6  8  1  0  0  0
  3  9  2  0  0  0
  3  8  1  0  0  0
  8 15  1  0  0  0
 11 16  1  0  0  0
M  END
> <minimizedAffinity>
-6.41574

$$$$
