3KDC_JZP_A_100
  RCSB PDB12061709253D
Coordinates from PDB:3KDC:A:100 Model:1 without hydrogens
 45 49  0  0  0  0            999 V2000
   12.3610   17.6690   21.3570  Cl 0  0  0  0  0  0  0  0  0  0  0  0
   12.5220   19.2220   18.6710   O 0  0  0  0  0  0  0  0  0  0  0  0
   10.9940   18.8880   16.0050  Cl 0  0  0  0  0  0  0  0  0  0  0  0
   15.9660   19.9430   18.2290   O 0  0  0  0  0  0  0  0  0  0  0  0
   14.7570   20.0670   18.1290   C 0  0  0  0  0  0  0  0  0  0  0  0
   13.8830   18.8690   18.4160   C 0  0  0  0  0  0  0  0  0  0  0  0
    9.7250   16.0700   18.6660   C 0  0  0  0  0  0  0  0  0  0  0  0
   10.4720   16.3220   19.8200   C 0  0  0  0  0  0  0  0  0  0  0  0
   11.4100   17.3510   19.8710   C 0  0  0  0  0  0  0  0  0  0  0  0
   11.6040   18.2030   18.6760   C 0  0  0  0  0  0  0  0  0  0  0  0
   10.7920   17.8950   17.4760   C 0  0  0  0  0  0  0  0  0  0  0  0
    9.8770   16.8430   17.5100   C 0  0  0  0  0  0  0  0  0  0  0  0
   16.3170   24.1220   18.5250   C 0  0  0  0  0  0  0  0  0  0  0  0
   14.1570   21.2080   17.7710   N 0  0  0  0  0  0  0  0  0  0  0  0
   16.3310   25.1970   17.9420   O 0  0  0  0  0  0  0  0  0  0  0  0
   15.0390   23.3230   18.5620   C 0  0  0  0  0  0  0  0  0  0  0  0
   13.9620   21.9860   15.0950   C 0  0  0  0  0  0  0  0  0  0  0  0
   14.3410   23.0380   16.1090   C 0  0  0  0  0  0  0  0  0  0  0  0
   13.2340   20.0370   13.2390   C 0  0  0  0  0  0  0  0  0  0  0  0
   14.9220   22.3780   17.3640   C 0  0  0  0  0  0  0  0  0  0  0  0
   13.9170   24.2070   18.6240   O 0  0  0  0  0  0  0  0  0  0  0  0
   14.9490   21.2490   14.4360   C 0  0  0  0  0  0  0  0  0  0  0  0
   12.6140   21.7490   14.8250   C 0  0  0  0  0  0  0  0  0  0  0  0
   14.5820   20.2760   13.5060   C 0  0  0  0  0  0  0  0  0  0  0  0
   12.2490   20.7750   13.8970   C 0  0  0  0  0  0  0  0  0  0  0  0
   19.3450   24.4260   17.8850   C 0  0  0  0  0  0  0  0  0  0  0  0
   17.3870   23.6120   19.1520   N 0  0  0  0  0  0  0  0  0  0  0  0
   19.3530   23.4370   17.1670   O 0  0  0  0  0  0  0  0  0  0  0  0
   18.6460   24.3770   19.2200   C 0  0  0  0  0  0  0  0  0  0  0  0
   19.5500   23.8300   20.3260   C 0  0  0  0  0  0  0  0  0  0  0  0
   17.4670   22.3010   19.8110   C 0  0  0  0  0  0  0  0  0  0  0  0
   21.0490   23.9300   20.0560   C 0  0  0  0  0  0  0  0  0  0  0  0
   19.2370   24.5230   21.6310   C 0  0  0  0  0  0  0  0  0  0  0  0
   19.0900   22.1470   20.4520   S 0  0  0  0  0  0  0  0  0  0  0  0
   19.9230   25.5870   17.5570   N 0  0  0  0  0  0  0  0  0  0  0  0
   21.6270   27.5140   17.8270   O 0  0  0  0  0  0  0  0  0  0  0  0
   20.7920   25.7330   16.4030   C 0  0  0  0  0  0  0  0  0  0  0  0
   20.0660   26.2750   15.2420   C 0  0  0  0  0  0  0  0  0  0  0  0
   18.8850   25.8130   14.6750   C 0  0  0  0  0  0  0  0  0  0  0  0
   18.3920   26.5040   13.5630   C 0  0  0  0  0  0  0  0  0  0  0  0
   21.9070   26.7660   16.6410   C 0  0  0  0  0  0  0  0  0  0  0  0
   20.7590   27.4370   14.6840   C 0  0  0  0  0  0  0  0  0  0  0  0
   20.2490   28.1080   13.5820   C 0  0  0  0  0  0  0  0  0  0  0  0
   19.0570   27.6210   13.0310   C 0  0  0  0  0  0  0  0  0  0  0  0
   22.0080   27.7460   15.4610   C 0  0  0  0  0  0  0  0  0  0  0  0
 34 30  1  0  0  0  0
 34 31  1  0  0  0  0
  1  9  1  0  0  0  0
 14  5  1  0  0  0  0
 14 20  1  0  0  0  0
  2  6  1  0  0  0  0
  2 10  1  0  0  0  0
  3 11  1  0  0  0  0
 27 13  1  0  0  0  0
 27 29  1  0  0  0  0
 27 31  1  0  0  0  0
 15 13  2  0  0  0  0
 35 26  1  0  0  0  0
 35 37  1  0  0  0  0
 28 26  2  0  0  0  0
 21 16  1  0  0  0  0
 36 41  1  0  0  0  0
  4  5  2  0  0  0  0
  5  6  1  0  0  0  0
 20 16  1  0  0  0  0
 20 18  1  0  0  0  0
 16 13  1  0  0  0  0
 18 17  1  0  0  0  0
 29 30  1  0  0  0  0
 29 26  1  0  0  0  0
 30 32  1  0  0  0  0
 30 33  1  0  0  0  0
 17 22  2  0  0  0  0
 17 23  1  0  0  0  0
 22 24  1  0  0  0  0
 24 19  2  0  0  0  0
 19 25  1  0  0  0  0
 25 23  2  0  0  0  0
 37 38  1  0  0  0  0
 37 41  1  0  0  0  0
 38 39  2  0  0  0  0
 38 42  1  0  0  0  0
 39 40  1  0  0  0  0
 40 44  2  0  0  0  0
 41 45  1  0  0  0  0
 42 43  2  0  0  0  0
 42 45  1  0  0  0  0
 43 44  1  0  0  0  0
  7  8  2  0  0  0  0
  7 12  1  0  0  0  0
  8  9  1  0  0  0  0
  9 10  2  0  0  0  0
 10 11  1  0  0  0  0
 11 12  2  0  0  0  0
A    1
CL1
A    2
O2
A    3
CL2
A    4
O8
A    5
C12
A    6
C21
A    7
C40
A    8
C41
A    9
C42
A   10
C45
A   11
C46
A   12
C47
A   13
C16
A   14
N2
A   15
O3
A   16
C14
A   17
C22
A   18
C15
A   19
C25
A   20
C13
A   21
O5
A   22
C23
A   23
C27
A   24
C24
A   25
C26
A   26
C20
A   27
N3
A   28
O4
A   29
C17
A   30
C18
A   31
C19
A   32
C29
A   33
C30
A   34
S1
A   35
N4
A   36
O7
A   37
C31
A   38
C32
A   39
C33
A   40
C34
A   41
C35
A   42
C36
A   43
C37
A   44
C38
A   45
C39
M  END
>  <InstanceId>
3KDC_JZP_A_100

>  <ChemCompId>
JZP

>  <PdbId>
3KDC

>  <ChainId>
A

>  <ResidueNumber>
100

>  <InsertionCode>


>  <Model>
1

>  <AltIds>


>  <MissingHeavyAtoms>
0

>  <ObservedFormula>
C33 N3 O6 S Cl2

>  <Name>
(4R)-3-[(2S,3S)-3-{[(2,6-dichlorophenoxy)acetyl]amino}-2-hydroxy-4-phenylbutanoyl]-N-[(1S,2R)-2-hydroxy-2,3-dihydro-1H-inden-1-yl]-5,5-dimethyl-1,3-thiazolidine-4-carboxamide

>  <SystematicName>
(4R)-3-[(2S,3S)-3-[2-(2,6-dichlorophenoxy)ethanoylamino]-2-hydroxy-4-phenyl-butanoyl]-N-[(1S,2R)-2-hydroxy-2,3-dihydro-1H-inden-1-yl]-5,5-dimethyl-1,3-thiazolidine-4-carboxamide

>  <Synonyms>
KNI-10074

>  <Type>
peptide-like

>  <Formula>
C33 H35 Cl2 N3 O6 S

>  <MolecularWeight>
672.618

>  <ModifiedDate>
2011-06-04

>  <Parent>


>  <OneLetterCode>


>  <SubcomponentList>
KNL 005 00B 00X

>  <AmbiguousFlag>
N

>  <InChI>
InChI=1S/C33H35Cl2N3O6S/c1-33(2)30(31(42)37-27-21-12-7-6-11-20(21)16-25(27)39)38(18-45-33)32(43)28(41)24(15-19-9-4-3-5-10-19)36-26(40)17-44-29-22(34)13-8-14-23(29)35/h3-14,24-25,27-28,30,39,41H,15-18H2,1-2H3,(H,36,40)(H,37,42)/t24-,25+,27-,28-,30+/m0/s1

>  <InChIKey>
XMAMZSZKRBFNLW-UPZHSWQNSA-N

>  <SMILES>
CC1([C@H](N(CS1)C(=O)[C@H]([C@H](Cc2ccccc2)NC(=O)COc3c(cccc3Cl)Cl)O)C(=O)N[C@H]4c5ccccc5C[C@H]4O)C

$$$$
