3ZM9_QMQ_A_1458


 39 43  0  0  0  0  0  0  0  0999 V2000
   -8.0249   12.0179   -5.4204 C   0  0  0  0  0  0  0  0  0  0  0  0
   -8.8375   12.2237   -6.5653 C   0  0  0  0  0  0  0  0  0  0  0  0
   -8.6042   13.2840   -7.4625 C   0  0  0  0  0  0  0  0  0  0  0  0
   -9.4209   13.4694   -8.5952 C   0  0  0  0  0  0  0  0  0  0  0  0
   -9.8906   11.3411   -6.8300 C   0  0  0  0  0  0  0  0  0  0  0  0
  -10.7026   11.5290   -7.9637 C   0  0  0  0  0  0  0  0  0  0  0  0
  -10.4738   12.5813   -8.8572 C   0  0  0  0  0  0  0  0  0  0  0  0
  -11.3071   12.7566   -9.9865 C   0  0  0  0  0  0  0  0  0  0  0  0
  -11.7074   11.4349  -10.6801 N   0  0  0  0  0  0  0  0  0  0  0  0
  -12.7936   10.6891  -10.4603 C   0  0  0  0  0  0  0  0  0  0  0  0
  -12.7787    9.6336  -11.2670 N   0  0  0  0  0  0  0  0  0  0  0  0
  -11.6685    9.7089  -11.9966 C   0  0  0  0  0  0  0  0  0  0  0  0
  -11.0119   10.8293  -11.6400 C   0  0  0  0  0  0  0  0  0  0  0  0
   -9.8433   11.1560  -12.2097 N   0  0  0  0  0  0  0  0  0  0  0  0
   -9.3088   10.3267  -13.1982 C   0  0  0  0  0  0  0  0  0  0  0  0
  -10.0240    9.1787  -13.5466 N   0  0  0  0  0  0  0  0  0  0  0  0
  -11.1869    8.8913  -12.9330 C   0  0  0  0  0  0  0  0  0  0  0  0
  -11.9168    7.7882  -13.2251 N   0  0  0  0  0  0  0  0  0  0  0  0
  -12.7624    7.6176  -12.7507 H   0  0  0  0  0  0  0  0  0  0  0  0
  -11.6016    7.1570  -13.9119 H   0  0  0  0  0  0  0  0  0  0  0  0
   -8.7913   12.2018   -4.0831 C   0  0  0  0  0  0  0  0  0  0  0  0
   -9.0096   13.7047   -3.8080 C   0  0  0  0  0  0  0  0  0  0  0  0
  -10.5099   14.1189   -3.7941 C   0  0  0  0  0  0  0  0  0  0  0  0
  -11.2962   16.6093   -7.1300 C   0  0  0  0  0  0  0  0  0  0  0  0
  -10.2429   16.9139   -6.2540 C   0  0  0  0  0  0  0  0  0  0  0  0
   -9.9771   16.0852   -5.1550 C   0  0  0  0  0  0  0  0  0  0  0  0
  -12.0700   15.4656   -6.8748 C   0  0  0  0  0  0  0  0  0  0  0  0
  -11.8133   14.6393   -5.7789 C   0  0  0  0  0  0  0  0  0  0  0  0
  -10.7574   14.9438   -4.9103 C   0  0  0  0  0  0  0  0  0  0  0  0
  -11.5857   17.4417   -8.2423 C   0  0  0  0  0  0  0  0  0  0  0  0
  -10.1179   15.7614  -12.0019 C   0  0  0  0  0  0  0  0  0  0  0  0
   -9.2159   16.2146  -11.0144 C   0  0  0  0  0  0  0  0  0  0  0  0
   -9.6582   16.7546   -9.7954 C   0  0  0  0  0  0  0  0  0  0  0  0
  -11.4936   15.8576  -11.7374 C   0  0  0  0  0  0  0  0  0  0  0  0
  -11.9520   16.3988  -10.5262 C   0  0  0  0  0  0  0  0  0  0  0  0
  -11.0585   16.8547   -9.5324 N   0  0  0  0  0  0  0  0  0  0  0  0
   -8.4341   14.4328  -13.2001 C   0  0  0  0  0  0  0  0  0  0  0  0
   -9.6702   15.2463  -13.1829 N   0  0  0  0  0  0  0  0  0  0  0  0
  -10.4598   15.4632  -14.4194 C   0  0  0  0  0  0  0  0  0  0  0  0
 37 38  1  0  0  0
 38 39  1  0  0  0
 38 31  1  0  0  0
 31 32  2  0  0  0
 31 34  1  0  0  0
 32 33  1  0  0  0
 33 36  2  0  0  0
 34 35  2  0  0  0
 35 36  1  0  0  0
 36 30  1  0  0  0
 30 24  1  0  0  0
 24 25  1  0  0  0
 24 27  2  0  0  0
 25 26  2  0  0  0
 26 29  1  0  0  0
 27 28  1  0  0  0
 28 29  2  0  0  0
 29 23  1  0  0  0
 23 22  1  0  0  0
 22 21  1  0  0  0
 21  1  1  0  0  0
  1  2  1  0  0  0
  2  3  1  0  0  0
  2  5  2  0  0  0
  3  4  2  0  0  0
  4  7  1  0  0  0
  5  6  1  0  0  0
  6  7  2  0  0  0
  7  8  1  0  0  0
  8  9  1  0  0  0
  9 10  1  0  0  0
  9 13  1  0  0  0
 10 11  2  0  0  0
 11 12  1  0  0  0
 12 13  1  0  0  0
 12 17  2  0  0  0
 13 14  2  0  0  0
 14 15  1  0  0  0
 15 16  2  0  0  0
 16 17  1  0  0  0
 17 18  1  0  0  0
 18 19  1  0  0  0
 18 20  1  0  0  0
M  CHG 1  36   1
M  END
> <minimizedAffinity>
-8.82319

$$$$
3ZM9_QMQ_A_1458


 39 43  0  0  0  0  0  0  0  0999 V2000
   -8.1702   11.9966   -5.1839 C   0  0  0  0  0  0  0  0  0  0  0  0
   -8.7070   12.1218   -6.4914 C   0  0  0  0  0  0  0  0  0  0  0  0
   -8.6487   13.3334   -7.2070 C   0  0  0  0  0  0  0  0  0  0  0  0
   -9.1851   13.4362   -8.5054 C   0  0  0  0  0  0  0  0  0  0  0  0
   -9.2949   11.0093   -7.1038 C   0  0  0  0  0  0  0  0  0  0  0  0
   -9.8276   11.1161   -8.4017 C   0  0  0  0  0  0  0  0  0  0  0  0
   -9.7716   12.3183   -9.1156 C   0  0  0  0  0  0  0  0  0  0  0  0
  -10.3203   12.4058  -10.4161 C   0  0  0  0  0  0  0  0  0  0  0  0
  -11.5553   11.5033  -10.6365 N   0  0  0  0  0  0  0  0  0  0  0  0
  -11.6071   10.3198  -11.2538 C   0  0  0  0  0  0  0  0  0  0  0  0
  -12.8526    9.8581  -11.2258 N   0  0  0  0  0  0  0  0  0  0  0  0
  -13.5956   10.7624  -10.5929 C   0  0  0  0  0  0  0  0  0  0  0  0
  -12.7900   11.7749  -10.2196 C   0  0  0  0  0  0  0  0  0  0  0  0
  -13.2764   12.8402   -9.5674 N   0  0  0  0  0  0  0  0  0  0  0  0
  -14.6377   12.8907   -9.2594 C   0  0  0  0  0  0  0  0  0  0  0  0
  -15.4386   11.8173   -9.6557 N   0  0  0  0  0  0  0  0  0  0  0  0
  -14.9005   10.7779  -10.3201 C   0  0  0  0  0  0  0  0  0  0  0  0
  -15.6314    9.7157  -10.7353 N   0  0  0  0  0  0  0  0  0  0  0  0
  -15.1955    8.9769  -11.2186 H   0  0  0  0  0  0  0  0  0  0  0  0
  -16.5984    9.6824  -10.5538 H   0  0  0  0  0  0  0  0  0  0  0  0
   -9.2097   12.2734   -4.0648 C   0  0  0  0  0  0  0  0  0  0  0  0
   -9.2855   13.7893   -3.7851 C   0  0  0  0  0  0  0  0  0  0  0  0
  -10.7330   14.3581   -3.8498 C   0  0  0  0  0  0  0  0  0  0  0  0
  -11.0361   16.7539   -7.3306 C   0  0  0  0  0  0  0  0  0  0  0  0
  -11.9073   15.6700   -7.1412 C   0  0  0  0  0  0  0  0  0  0  0  0
  -11.8128   14.8824   -5.9854 C   0  0  0  0  0  0  0  0  0  0  0  0
  -10.0753   17.0215   -6.3421 C   0  0  0  0  0  0  0  0  0  0  0  0
   -9.9731   16.2374   -5.1913 C   0  0  0  0  0  0  0  0  0  0  0  0
  -10.8483   15.1600   -5.0035 C   0  0  0  0  0  0  0  0  0  0  0  0
  -11.1110   17.5565   -8.4986 C   0  0  0  0  0  0  0  0  0  0  0  0
   -9.4632   15.4574  -11.9615 C   0  0  0  0  0  0  0  0  0  0  0  0
  -10.8573   15.6345  -11.8225 C   0  0  0  0  0  0  0  0  0  0  0  0
  -11.4150   16.3086  -10.7234 C   0  0  0  0  0  0  0  0  0  0  0  0
   -8.6258   15.9815  -10.9636 C   0  0  0  0  0  0  0  0  0  0  0  0
   -9.1674   16.6537   -9.8569 C   0  0  0  0  0  0  0  0  0  0  0  0
  -10.5596   16.8360   -9.7085 N   0  0  0  0  0  0  0  0  0  0  0  0
   -9.6687   14.8013  -14.3201 C   0  0  0  0  0  0  0  0  0  0  0  0
   -8.9400   14.7939  -13.0321 N   0  0  0  0  0  0  0  0  0  0  0  0
   -7.6231   14.1241  -12.9028 C   0  0  0  0  0  0  0  0  0  0  0  0
 37 38  1  0  0  0
 38 39  1  0  0  0
 38 31  1  0  0  0
 31 32  2  0  0  0
 31 34  1  0  0  0
 32 33  1  0  0  0
 33 36  2  0  0  0
 34 35  2  0  0  0
 35 36  1  0  0  0
 36 30  1  0  0  0
 30 24  1  0  0  0
 24 25  1  0  0  0
 24 27  2  0  0  0
 25 26  2  0  0  0
 26 29  1  0  0  0
 27 28  1  0  0  0
 28 29  2  0  0  0
 29 23  1  0  0  0
 23 22  1  0  0  0
 22 21  1  0  0  0
 21  1  1  0  0  0
  1  2  1  0  0  0
  2  3  1  0  0  0
  2  5  2  0  0  0
  3  4  2  0  0  0
  4  7  1  0  0  0
  5  6  1  0  0  0
  6  7  2  0  0  0
  7  8  1  0  0  0
  8  9  1  0  0  0
  9 10  1  0  0  0
  9 13  1  0  0  0
 10 11  2  0  0  0
 11 12  1  0  0  0
 12 13  1  0  0  0
 12 17  2  0  0  0
 13 14  2  0  0  0
 14 15  1  0  0  0
 15 16  2  0  0  0
 16 17  1  0  0  0
 17 18  1  0  0  0
 18 19  1  0  0  0
 18 20  1  0  0  0
M  CHG 1  36   1
M  END
> <minimizedAffinity>
-8.79679

$$$$
3ZM9_QMQ_A_1458


 39 43  0  0  0  0  0  0  0  0999 V2000
   -9.1366   13.1151   -5.5321 C   0  0  0  0  0  0  0  0  0  0  0  0
   -9.3974   12.7459   -6.8771 C   0  0  0  0  0  0  0  0  0  0  0  0
   -9.6111   13.7065   -7.8846 C   0  0  0  0  0  0  0  0  0  0  0  0
   -9.8657   13.3192   -9.2148 C   0  0  0  0  0  0  0  0  0  0  0  0
   -9.4248   11.3911   -7.2263 C   0  0  0  0  0  0  0  0  0  0  0  0
   -9.6775   11.0088   -8.5566 C   0  0  0  0  0  0  0  0  0  0  0  0
   -9.8903   11.9605   -9.5601 C   0  0  0  0  0  0  0  0  0  0  0  0
  -10.1505   11.5543  -10.8896 C   0  0  0  0  0  0  0  0  0  0  0  0
   -9.1539   10.5038  -11.4295 N   0  0  0  0  0  0  0  0  0  0  0  0
   -7.8208   10.5799  -11.4657 C   0  0  0  0  0  0  0  0  0  0  0  0
   -7.3263    9.4668  -11.9962 N   0  0  0  0  0  0  0  0  0  0  0  0
   -8.3569    8.6843  -12.3060 C   0  0  0  0  0  0  0  0  0  0  0  0
   -9.4866    9.3226  -11.9453 C   0  0  0  0  0  0  0  0  0  0  0  0
  -10.6894    8.7681  -12.1522 N   0  0  0  0  0  0  0  0  0  0  0  0
  -10.7675    7.5026  -12.7379 C   0  0  0  0  0  0  0  0  0  0  0  0
   -9.5734    6.8694  -13.0897 N   0  0  0  0  0  0  0  0  0  0  0  0
   -8.3928    7.4776  -12.8714 C   0  0  0  0  0  0  0  0  0  0  0  0
   -7.2058    6.9137  -13.2004 N   0  0  0  0  0  0  0  0  0  0  0  0
   -6.3658    7.3953  -13.0222 H   0  0  0  0  0  0  0  0  0  0  0  0
   -7.1831    6.0223  -13.6177 H   0  0  0  0  0  0  0  0  0  0  0  0
  -10.2291   14.0364   -4.9260 C   0  0  0  0  0  0  0  0  0  0  0  0
   -9.5784   15.3156   -4.3584 C   0  0  0  0  0  0  0  0  0  0  0  0
  -10.4293   16.5978   -4.5920 C   0  0  0  0  0  0  0  0  0  0  0  0
  -10.6869   17.3585   -8.7518 C   0  0  0  0  0  0  0  0  0  0  0  0
   -9.4529   17.4578   -8.0907 C   0  0  0  0  0  0  0  0  0  0  0  0
   -9.3659   17.1977   -6.7160 C   0  0  0  0  0  0  0  0  0  0  0  0
  -11.8200   16.9990   -8.0042 C   0  0  0  0  0  0  0  0  0  0  0  0
  -11.7404   16.7437   -6.6338 C   0  0  0  0  0  0  0  0  0  0  0  0
  -10.5057   16.8384   -5.9790 C   0  0  0  0  0  0  0  0  0  0  0  0
  -10.7957   17.6271  -10.1410 C   0  0  0  0  0  0  0  0  0  0  0  0
   -8.5902   14.6688  -12.4855 C   0  0  0  0  0  0  0  0  0  0  0  0
   -9.9807   14.8382  -12.6637 C   0  0  0  0  0  0  0  0  0  0  0  0
  -10.7146   15.7837  -11.9283 C   0  0  0  0  0  0  0  0  0  0  0  0
   -7.9388   15.4816  -11.5439 C   0  0  0  0  0  0  0  0  0  0  0  0
   -8.6583   16.4280  -10.7977 C   0  0  0  0  0  0  0  0  0  0  0  0
  -10.0487   16.6052  -10.9684 N   0  0  0  0  0  0  0  0  0  0  0  0
   -8.5909   12.9601  -14.2507 C   0  0  0  0  0  0  0  0  0  0  0  0
   -7.8951   13.7407  -13.2037 N   0  0  0  0  0  0  0  0  0  0  0  0
   -6.4420   13.5695  -12.9615 C   0  0  0  0  0  0  0  0  0  0  0  0
 37 38  1  0  0  0
 38 39  1  0  0  0
 38 31  1  0  0  0
 31 32  2  0  0  0
 31 34  1  0  0  0
 32 33  1  0  0  0
 33 36  2  0  0  0
 34 35  2  0  0  0
 35 36  1  0  0  0
 36 30  1  0  0  0
 30 24  1  0  0  0
 24 25  1  0  0  0
 24 27  2  0  0  0
 25 26  2  0  0  0
 26 29  1  0  0  0
 27 28  1  0  0  0
 28 29  2  0  0  0
 29 23  1  0  0  0
 23 22  1  0  0  0
 22 21  1  0  0  0
 21  1  1  0  0  0
  1  2  1  0  0  0
  2  3  1  0  0  0
  2  5  2  0  0  0
  3  4  2  0  0  0
  4  7  1  0  0  0
  5  6  1  0  0  0
  6  7  2  0  0  0
  7  8  1  0  0  0
  8  9  1  0  0  0
  9 10  1  0  0  0
  9 13  1  0  0  0
 10 11  2  0  0  0
 11 12  1  0  0  0
 12 13  1  0  0  0
 12 17  2  0  0  0
 13 14  2  0  0  0
 14 15  1  0  0  0
 15 16  2  0  0  0
 16 17  1  0  0  0
 17 18  1  0  0  0
 18 19  1  0  0  0
 18 20  1  0  0  0
M  CHG 1  36   1
M  END
> <minimizedAffinity>
-8.67855

$$$$
3ZM9_QMQ_A_1458


 39 43  0  0  0  0  0  0  0  0999 V2000
  -10.6370   14.3159   -4.4249 C   0  0  0  0  0  0  0  0  0  0  0  0
  -10.1257   13.5751   -5.5218 C   0  0  0  0  0  0  0  0  0  0  0  0
   -9.0571   12.6696   -5.3749 C   0  0  0  0  0  0  0  0  0  0  0  0
   -8.5660   11.9414   -6.4762 C   0  0  0  0  0  0  0  0  0  0  0  0
  -10.7068   13.7267   -6.7858 C   0  0  0  0  0  0  0  0  0  0  0  0
  -10.2143   12.9959   -7.8826 C   0  0  0  0  0  0  0  0  0  0  0  0
   -9.1527   12.0954   -7.7403 C   0  0  0  0  0  0  0  0  0  0  0  0
   -8.6679   11.3767   -8.8578 C   0  0  0  0  0  0  0  0  0  0  0  0
   -9.7635   10.6090   -9.6315 N   0  0  0  0  0  0  0  0  0  0  0  0
  -10.4810    9.5619   -9.2156 C   0  0  0  0  0  0  0  0  0  0  0  0
  -11.3282    9.1958  -10.1712 N   0  0  0  0  0  0  0  0  0  0  0  0
  -11.1378   10.0136  -11.2034 C   0  0  0  0  0  0  0  0  0  0  0  0
  -10.1767   10.8940  -10.8644 C   0  0  0  0  0  0  0  0  0  0  0  0
   -9.7687   11.8368  -11.7256 N   0  0  0  0  0  0  0  0  0  0  0  0
  -10.3617   11.9130  -12.9877 C   0  0  0  0  0  0  0  0  0  0  0  0
  -11.3608   10.9879  -13.2984 N   0  0  0  0  0  0  0  0  0  0  0  0
  -11.7233   10.0532  -12.4004 C   0  0  0  0  0  0  0  0  0  0  0  0
  -12.6793    9.1269  -12.6517 N   0  0  0  0  0  0  0  0  0  0  0  0
  -12.9125    8.4614  -11.9648 H   0  0  0  0  0  0  0  0  0  0  0  0
  -13.1409    9.1193  -13.5213 H   0  0  0  0  0  0  0  0  0  0  0  0
   -9.7276   15.5033   -4.0093 C   0  0  0  0  0  0  0  0  0  0  0  0
  -10.2097   16.7972   -4.6987 C   0  0  0  0  0  0  0  0  0  0  0  0
   -9.3897   17.1624   -5.9704 C   0  0  0  0  0  0  0  0  0  0  0  0
  -11.9995   17.2145   -9.3072 C   0  0  0  0  0  0  0  0  0  0  0  0
  -12.5065   16.9930   -8.0175 C   0  0  0  0  0  0  0  0  0  0  0  0
  -11.6443   16.9844   -6.9122 C   0  0  0  0  0  0  0  0  0  0  0  0
  -10.6186   17.4210   -9.4576 C   0  0  0  0  0  0  0  0  0  0  0  0
   -9.7542   17.4084   -8.3611 C   0  0  0  0  0  0  0  0  0  0  0  0
  -10.2653   17.1926   -7.0749 C   0  0  0  0  0  0  0  0  0  0  0  0
  -12.8559   17.2176  -10.4388 C   0  0  0  0  0  0  0  0  0  0  0  0
  -14.3985   13.2060  -11.2390 C   0  0  0  0  0  0  0  0  0  0  0  0
  -15.2694   14.3165  -11.1906 C   0  0  0  0  0  0  0  0  0  0  0  0
  -14.8019   15.6174  -10.9403 C   0  0  0  0  0  0  0  0  0  0  0  0
  -13.0277   13.4293  -11.0326 C   0  0  0  0  0  0  0  0  0  0  0  0
  -12.5450   14.7223  -10.7769 C   0  0  0  0  0  0  0  0  0  0  0  0
  -13.4073   15.8391  -10.7266 N   0  0  0  0  0  0  0  0  0  0  0  0
  -15.3249   11.5868  -12.8376 C   0  0  0  0  0  0  0  0  0  0  0  0
  -14.8713   11.9489  -11.4764 N   0  0  0  0  0  0  0  0  0  0  0  0
  -14.8704   10.9500  -10.3801 C   0  0  0  0  0  0  0  0  0  0  0  0
 37 38  1  0  0  0
 38 39  1  0  0  0
 38 31  1  0  0  0
 31 32  2  0  0  0
 31 34  1  0  0  0
 32 33  1  0  0  0
 33 36  2  0  0  0
 34 35  2  0  0  0
 35 36  1  0  0  0
 36 30  1  0  0  0
 30 24  1  0  0  0
 24 25  1  0  0  0
 24 27  2  0  0  0
 25 26  2  0  0  0
 26 29  1  0  0  0
 27 28  1  0  0  0
 28 29  2  0  0  0
 29 23  1  0  0  0
 23 22  1  0  0  0
 22 21  1  0  0  0
 21  1  1  0  0  0
  1  2  1  0  0  0
  2  3  1  0  0  0
  2  5  2  0  0  0
  3  4  2  0  0  0
  4  7  1  0  0  0
  5  6  1  0  0  0
  6  7  2  0  0  0
  7  8  1  0  0  0
  8  9  1  0  0  0
  9 10  1  0  0  0
  9 13  1  0  0  0
 10 11  2  0  0  0
 11 12  1  0  0  0
 12 13  1  0  0  0
 12 17  2  0  0  0
 13 14  2  0  0  0
 14 15  1  0  0  0
 15 16  2  0  0  0
 16 17  1  0  0  0
 17 18  1  0  0  0
 18 19  1  0  0  0
 18 20  1  0  0  0
M  CHG 1  36   1
M  END
> <minimizedAffinity>
-8.50172

$$$$
3ZM9_QMQ_A_1458


 39 43  0  0  0  0  0  0  0  0999 V2000
  -13.4604   18.5601   -9.5063 C   0  0  0  0  0  0  0  0  0  0  0  0
  -12.5212   17.6930   -8.8903 C   0  0  0  0  0  0  0  0  0  0  0  0
  -12.8965   16.7860   -7.8803 C   0  0  0  0  0  0  0  0  0  0  0  0
  -11.9491   15.9314   -7.2834 C   0  0  0  0  0  0  0  0  0  0  0  0
  -11.1852   17.7180   -9.3060 C   0  0  0  0  0  0  0  0  0  0  0  0
  -10.2427   16.8612   -8.7083 C   0  0  0  0  0  0  0  0  0  0  0  0
  -10.6120   15.9589   -7.7045 C   0  0  0  0  0  0  0  0  0  0  0  0
   -9.6468   15.1121   -7.1115 C   0  0  0  0  0  0  0  0  0  0  0  0
   -9.8739   14.8644   -5.6030 N   0  0  0  0  0  0  0  0  0  0  0  0
  -10.4002   15.7008   -4.7042 C   0  0  0  0  0  0  0  0  0  0  0  0
  -10.4339   15.1107   -3.5144 N   0  0  0  0  0  0  0  0  0  0  0  0
   -9.9160   13.8939   -3.6614 C   0  0  0  0  0  0  0  0  0  0  0  0
   -9.5795   13.7389   -4.9561 C   0  0  0  0  0  0  0  0  0  0  0  0
   -9.0191   12.6022   -5.3928 N   0  0  0  0  0  0  0  0  0  0  0  0
   -8.7954   11.5594   -4.4910 C   0  0  0  0  0  0  0  0  0  0  0  0
   -9.1661   11.7554   -3.1588 N   0  0  0  0  0  0  0  0  0  0  0  0
   -9.7135   12.9223   -2.7713 C   0  0  0  0  0  0  0  0  0  0  0  0
  -10.0834   13.1693   -1.4918 N   0  0  0  0  0  0  0  0  0  0  0  0
  -10.4804   14.0381   -1.2531 H   0  0  0  0  0  0  0  0  0  0  0  0
   -9.9554   12.4801   -0.8005 H   0  0  0  0  0  0  0  0  0  0  0  0
  -14.6165   17.8067  -10.2173 C   0  0  0  0  0  0  0  0  0  0  0  0
  -14.0369   16.7545  -11.1863 C   0  0  0  0  0  0  0  0  0  0  0  0
  -14.7178   15.3602  -11.0639 C   0  0  0  0  0  0  0  0  0  0  0  0
  -11.9780   12.7315   -9.1846 C   0  0  0  0  0  0  0  0  0  0  0  0
  -13.3172   12.7729   -8.7665 C   0  0  0  0  0  0  0  0  0  0  0  0
  -14.2258   13.6364   -9.3941 C   0  0  0  0  0  0  0  0  0  0  0  0
  -11.5782   13.5732  -10.2351 C   0  0  0  0  0  0  0  0  0  0  0  0
  -12.4775   14.4390  -10.8605 C   0  0  0  0  0  0  0  0  0  0  0  0
  -13.8144   14.4731  -10.4439 C   0  0  0  0  0  0  0  0  0  0  0  0
  -11.0420   11.8705   -8.5550 C   0  0  0  0  0  0  0  0  0  0  0  0
   -9.7834    8.5870  -11.1526 C   0  0  0  0  0  0  0  0  0  0  0  0
  -11.1517    8.8083  -10.8826 C   0  0  0  0  0  0  0  0  0  0  0  0
  -11.5859    9.8578  -10.0559 C   0  0  0  0  0  0  0  0  0  0  0  0
   -8.8445    9.4548  -10.5720 C   0  0  0  0  0  0  0  0  0  0  0  0
   -9.2616   10.5054   -9.7400 C   0  0  0  0  0  0  0  0  0  0  0  0
  -10.6270   10.7352   -9.4639 N   0  0  0  0  0  0  0  0  0  0  0  0
   -8.2046    7.7392  -12.8331 C   0  0  0  0  0  0  0  0  0  0  0  0
   -9.3798    7.5584  -11.9523 N   0  0  0  0  0  0  0  0  0  0  0  0
  -10.0911    6.2589  -11.8839 C   0  0  0  0  0  0  0  0  0  0  0  0
 37 38  1  0  0  0
 38 39  1  0  0  0
 38 31  1  0  0  0
 31 32  2  0  0  0
 31 34  1  0  0  0
 32 33  1  0  0  0
 33 36  2  0  0  0
 34 35  2  0  0  0
 35 36  1  0  0  0
 36 30  1  0  0  0
 30 24  1  0  0  0
 24 25  1  0  0  0
 24 27  2  0  0  0
 25 26  2  0  0  0
 26 29  1  0  0  0
 27 28  1  0  0  0
 28 29  2  0  0  0
 29 23  1  0  0  0
 23 22  1  0  0  0
 22 21  1  0  0  0
 21  1  1  0  0  0
  1  2  1  0  0  0
  2  3  1  0  0  0
  2  5  2  0  0  0
  3  4  2  0  0  0
  4  7  1  0  0  0
  5  6  1  0  0  0
  6  7  2  0  0  0
  7  8  1  0  0  0
  8  9  1  0  0  0
  9 10  1  0  0  0
  9 13  1  0  0  0
 10 11  2  0  0  0
 11 12  1  0  0  0
 12 13  1  0  0  0
 12 17  2  0  0  0
 13 14  2  0  0  0
 14 15  1  0  0  0
 15 16  2  0  0  0
 16 17  1  0  0  0
 17 18  1  0  0  0
 18 19  1  0  0  0
 18 20  1  0  0  0
M  CHG 1  36   1
M  END
> <minimizedAffinity>
-8.41952

$$$$
3ZM9_QMQ_A_1458


 39 43  0  0  0  0  0  0  0  0999 V2000
  -10.7345   15.7983   -4.4993 C   0  0  0  0  0  0  0  0  0  0  0  0
  -10.6856   16.2996   -5.8258 C   0  0  0  0  0  0  0  0  0  0  0  0
  -11.7980   16.2349   -6.6873 C   0  0  0  0  0  0  0  0  0  0  0  0
  -11.7299   16.7411   -8.0001 C   0  0  0  0  0  0  0  0  0  0  0  0
   -9.5092   16.8956   -6.2939 C   0  0  0  0  0  0  0  0  0  0  0  0
   -9.4463   17.4016   -7.6053 C   0  0  0  0  0  0  0  0  0  0  0  0
  -10.5495   17.3390   -8.4639 C   0  0  0  0  0  0  0  0  0  0  0  0
  -10.4622   17.8466   -9.7811 C   0  0  0  0  0  0  0  0  0  0  0  0
  -10.3753   16.7525  -10.8690 N   0  0  0  0  0  0  0  0  0  0  0  0
  -11.3586   16.2849  -11.6429 C   0  0  0  0  0  0  0  0  0  0  0  0
  -10.8769   15.3544  -12.4598 N   0  0  0  0  0  0  0  0  0  0  0  0
   -9.5795   15.2271  -12.1932 C   0  0  0  0  0  0  0  0  0  0  0  0
   -9.2682   16.0999  -11.2161 C   0  0  0  0  0  0  0  0  0  0  0  0
   -8.0197   16.1820  -10.7352 N   0  0  0  0  0  0  0  0  0  0  0  0
   -7.0259   15.3581  -11.2682 C   0  0  0  0  0  0  0  0  0  0  0  0
   -7.3863   14.4725  -12.2863 N   0  0  0  0  0  0  0  0  0  0  0  0
   -8.6584   14.4220  -12.7230 C   0  0  0  0  0  0  0  0  0  0  0  0
   -9.0648   13.5770  -13.7008 N   0  0  0  0  0  0  0  0  0  0  0  0
  -10.0061   13.5741  -13.9890 H   0  0  0  0  0  0  0  0  0  0  0  0
   -8.4187   12.9659  -14.1231 H   0  0  0  0  0  0  0  0  0  0  0  0
   -9.5425   14.8668   -4.1512 C   0  0  0  0  0  0  0  0  0  0  0  0
   -9.8344   13.4357   -4.6496 C   0  0  0  0  0  0  0  0  0  0  0  0
   -8.6972   12.8450   -5.5333 C   0  0  0  0  0  0  0  0  0  0  0  0
  -10.2710   12.1640   -9.4073 C   0  0  0  0  0  0  0  0  0  0  0  0
   -9.7668   13.4274   -9.0618 C   0  0  0  0  0  0  0  0  0  0  0  0
   -9.2381   13.6505   -7.7828 C   0  0  0  0  0  0  0  0  0  0  0  0
  -10.2347   11.1424   -8.4445 C   0  0  0  0  0  0  0  0  0  0  0  0
   -9.7140   11.3601   -7.1674 C   0  0  0  0  0  0  0  0  0  0  0  0
   -9.2066   12.6210   -6.8286 C   0  0  0  0  0  0  0  0  0  0  0  0
  -10.8185   11.9223  -10.6941 C   0  0  0  0  0  0  0  0  0  0  0  0
   -9.5341    8.0412  -12.2431 C   0  0  0  0  0  0  0  0  0  0  0  0
  -10.8913    8.2808  -11.9353 C   0  0  0  0  0  0  0  0  0  0  0  0
  -11.3338    9.5190  -11.4407 C   0  0  0  0  0  0  0  0  0  0  0  0
   -8.6156    9.0849  -12.0465 C   0  0  0  0  0  0  0  0  0  0  0  0
   -9.0408   10.3265  -11.5488 C   0  0  0  0  0  0  0  0  0  0  0  0
  -10.3952   10.5762  -11.2380 N   0  0  0  0  0  0  0  0  0  0  0  0
   -7.7865    6.7100  -13.3430 C   0  0  0  0  0  0  0  0  0  0  0  0
   -9.1215    6.8301  -12.7158 N   0  0  0  0  0  0  0  0  0  0  0  0
   -9.9942    5.6436  -12.5428 C   0  0  0  0  0  0  0  0  0  0  0  0
 37 38  1  0  0  0
 38 39  1  0  0  0
 38 31  1  0  0  0
 31 32  2  0  0  0
 31 34  1  0  0  0
 32 33  1  0  0  0
 33 36  2  0  0  0
 34 35  2  0  0  0
 35 36  1  0  0  0
 36 30  1  0  0  0
 30 24  1  0  0  0
 24 25  1  0  0  0
 24 27  2  0  0  0
 25 26  2  0  0  0
 26 29  1  0  0  0
 27 28  1  0  0  0
 28 29  2  0  0  0
 29 23  1  0  0  0
 23 22  1  0  0  0
 22 21  1  0  0  0
 21  1  1  0  0  0
  1  2  1  0  0  0
  2  3  1  0  0  0
  2  5  2  0  0  0
  3  4  2  0  0  0
  4  7  1  0  0  0
  5  6  1  0  0  0
  6  7  2  0  0  0
  7  8  1  0  0  0
  8  9  1  0  0  0
  9 10  1  0  0  0
  9 13  1  0  0  0
 10 11  2  0  0  0
 11 12  1  0  0  0
 12 13  1  0  0  0
 12 17  2  0  0  0
 13 14  2  0  0  0
 14 15  1  0  0  0
 15 16  2  0  0  0
 16 17  1  0  0  0
 17 18  1  0  0  0
 18 19  1  0  0  0
 18 20  1  0  0  0
M  CHG 1  36   1
M  END
> <minimizedAffinity>
-8.41622

$$$$
3ZM9_QMQ_A_1458


 39 43  0  0  0  0  0  0  0  0999 V2000
   -8.5453   15.9938   -9.1637 C   0  0  0  0  0  0  0  0  0  0  0  0
   -9.4313   14.8934   -9.2952 C   0  0  0  0  0  0  0  0  0  0  0  0
  -10.3613   14.8086  -10.3495 C   0  0  0  0  0  0  0  0  0  0  0  0
  -11.2305   13.7060  -10.4640 C   0  0  0  0  0  0  0  0  0  0  0  0
   -9.3730   13.8476   -8.3673 C   0  0  0  0  0  0  0  0  0  0  0  0
  -10.2417   12.7472   -8.4866 C   0  0  0  0  0  0  0  0  0  0  0  0
  -11.1669   12.6597   -9.5327 C   0  0  0  0  0  0  0  0  0  0  0  0
  -12.0364   11.5484   -9.6295 C   0  0  0  0  0  0  0  0  0  0  0  0
  -11.3456   10.2535  -10.1138 N   0  0  0  0  0  0  0  0  0  0  0  0
  -10.4565    9.5031   -9.4576 C   0  0  0  0  0  0  0  0  0  0  0  0
  -10.1080    8.4659  -10.2112 N   0  0  0  0  0  0  0  0  0  0  0  0
  -10.7764    8.5673  -11.3572 C   0  0  0  0  0  0  0  0  0  0  0  0
  -11.5496    9.6679  -11.2917 C   0  0  0  0  0  0  0  0  0  0  0  0
  -12.3299   10.0263  -12.3210 N   0  0  0  0  0  0  0  0  0  0  0  0
  -12.3495    9.2356  -13.4721 C   0  0  0  0  0  0  0  0  0  0  0  0
  -11.5404    8.0974  -13.4982 N   0  0  0  0  0  0  0  0  0  0  0  0
  -10.7658    7.7911  -12.4410 C   0  0  0  0  0  0  0  0  0  0  0  0
   -9.9562    6.7052  -12.4157 N   0  0  0  0  0  0  0  0  0  0  0  0
   -9.4064    6.5196  -11.6204 H   0  0  0  0  0  0  0  0  0  0  0  0
   -9.9177    6.1017  -13.1925 H   0  0  0  0  0  0  0  0  0  0  0  0
   -8.7338   16.7783   -7.8375 C   0  0  0  0  0  0  0  0  0  0  0  0
  -10.1087   17.4793   -7.8357 C   0  0  0  0  0  0  0  0  0  0  0  0
  -11.0909   16.9111   -6.7702 C   0  0  0  0  0  0  0  0  0  0  0  0
  -14.3541   15.0585   -8.7367 C   0  0  0  0  0  0  0  0  0  0  0  0
  -13.8803   16.3046   -9.1755 C   0  0  0  0  0  0  0  0  0  0  0  0
  -12.7949   16.9137   -8.5303 C   0  0  0  0  0  0  0  0  0  0  0  0
  -13.7196   14.4481   -7.6428 C   0  0  0  0  0  0  0  0  0  0  0  0
  -12.6415   15.0524   -6.9930 C   0  0  0  0  0  0  0  0  0  0  0  0
  -12.1680   16.2934   -7.4377 C   0  0  0  0  0  0  0  0  0  0  0  0
  -15.4574   14.4312   -9.3717 C   0  0  0  0  0  0  0  0  0  0  0  0
  -19.2381   15.3285   -7.3682 C   0  0  0  0  0  0  0  0  0  0  0  0
  -18.4357   14.2474   -6.9422 C   0  0  0  0  0  0  0  0  0  0  0  0
  -17.2144   13.9382   -7.5636 C   0  0  0  0  0  0  0  0  0  0  0  0
  -18.7828   16.1086   -8.4433 C   0  0  0  0  0  0  0  0  0  0  0  0
  -17.5669   15.8102   -9.0779 C   0  0  0  0  0  0  0  0  0  0  0  0
  -16.7574   14.7316   -8.6597 N   0  0  0  0  0  0  0  0  0  0  0  0
  -21.6932   15.3027   -7.4549 C   0  0  0  0  0  0  0  0  0  0  0  0
  -20.4247   15.6096   -6.7573 N   0  0  0  0  0  0  0  0  0  0  0  0
  -20.4237   16.1658   -5.3825 C   0  0  0  0  0  0  0  0  0  0  0  0
 37 38  1  0  0  0
 38 39  1  0  0  0
 38 31  1  0  0  0
 31 32  2  0  0  0
 31 34  1  0  0  0
 32 33  1  0  0  0
 33 36  2  0  0  0
 34 35  2  0  0  0
 35 36  1  0  0  0
 36 30  1  0  0  0
 30 24  1  0  0  0
 24 25  1  0  0  0
 24 27  2  0  0  0
 25 26  2  0  0  0
 26 29  1  0  0  0
 27 28  1  0  0  0
 28 29  2  0  0  0
 29 23  1  0  0  0
 23 22  1  0  0  0
 22 21  1  0  0  0
 21  1  1  0  0  0
  1  2  1  0  0  0
  2  3  1  0  0  0
  2  5  2  0  0  0
  3  4  2  0  0  0
  4  7  1  0  0  0
  5  6  1  0  0  0
  6  7  2  0  0  0
  7  8  1  0  0  0
  8  9  1  0  0  0
  9 10  1  0  0  0
  9 13  1  0  0  0
 10 11  2  0  0  0
 11 12  1  0  0  0
 12 13  1  0  0  0
 12 17  2  0  0  0
 13 14  2  0  0  0
 14 15  1  0  0  0
 15 16  2  0  0  0
 16 17  1  0  0  0
 17 18  1  0  0  0
 18 19  1  0  0  0
 18 20  1  0  0  0
M  CHG 1  36   1
M  END
> <minimizedAffinity>
-8.40735

$$$$
3ZM9_QMQ_A_1458


 39 43  0  0  0  0  0  0  0  0999 V2000
   -9.2460   13.0850   -5.5006 C   0  0  0  0  0  0  0  0  0  0  0  0
   -9.4904   12.8233   -6.8736 C   0  0  0  0  0  0  0  0  0  0  0  0
   -8.9262   11.7133   -7.5316 C   0  0  0  0  0  0  0  0  0  0  0  0
   -9.1838   11.4694   -8.8949 C   0  0  0  0  0  0  0  0  0  0  0  0
  -10.3313   13.6756   -7.5980 C   0  0  0  0  0  0  0  0  0  0  0  0
  -10.5873   13.4271   -8.9590 C   0  0  0  0  0  0  0  0  0  0  0  0
  -10.0285   12.3252   -9.6160 C   0  0  0  0  0  0  0  0  0  0  0  0
  -10.2926   12.0984  -10.9868 C   0  0  0  0  0  0  0  0  0  0  0  0
  -11.5428   11.2281  -11.2476 N   0  0  0  0  0  0  0  0  0  0  0  0
  -11.6083    9.8986  -11.3597 C   0  0  0  0  0  0  0  0  0  0  0  0
  -12.8674    9.5321  -11.5727 N   0  0  0  0  0  0  0  0  0  0  0  0
  -13.6023   10.6408  -11.6044 C   0  0  0  0  0  0  0  0  0  0  0  0
  -12.7832   11.6887  -11.3927 C   0  0  0  0  0  0  0  0  0  0  0  0
  -13.2551   12.9433  -11.3832 N   0  0  0  0  0  0  0  0  0  0  0  0
  -14.6200   13.1622  -11.5821 C   0  0  0  0  0  0  0  0  0  0  0  0
  -15.4380   12.0493  -11.7894 N   0  0  0  0  0  0  0  0  0  0  0  0
  -14.9096   10.8116  -11.8021 C   0  0  0  0  0  0  0  0  0  0  0  0
  -15.6542    9.6987  -12.0070 N   0  0  0  0  0  0  0  0  0  0  0  0
  -15.2251    8.8126  -12.0081 H   0  0  0  0  0  0  0  0  0  0  0  0
  -16.6245    9.7759  -12.1548 H   0  0  0  0  0  0  0  0  0  0  0  0
  -10.2891   14.0416   -4.8631 C   0  0  0  0  0  0  0  0  0  0  0  0
   -9.5875   15.3220   -4.3632 C   0  0  0  0  0  0  0  0  0  0  0  0
  -10.4314   16.6126   -4.5759 C   0  0  0  0  0  0  0  0  0  0  0  0
  -10.7369   17.4076   -8.7259 C   0  0  0  0  0  0  0  0  0  0  0  0
   -9.4891   17.4642   -8.0860 C   0  0  0  0  0  0  0  0  0  0  0  0
   -9.3866   17.1927   -6.7145 C   0  0  0  0  0  0  0  0  0  0  0  0
  -11.8675   17.0787   -7.9608 C   0  0  0  0  0  0  0  0  0  0  0  0
  -11.7723   16.8123   -6.5935 C   0  0  0  0  0  0  0  0  0  0  0  0
  -10.5242   16.8644   -5.9599 C   0  0  0  0  0  0  0  0  0  0  0  0
  -10.8612   17.6884  -10.1115 C   0  0  0  0  0  0  0  0  0  0  0  0
   -8.6818   14.8314  -12.6014 C   0  0  0  0  0  0  0  0  0  0  0  0
   -8.0932   15.3657  -11.4343 C   0  0  0  0  0  0  0  0  0  0  0  0
   -8.7710   16.2815  -10.6126 C   0  0  0  0  0  0  0  0  0  0  0  0
   -9.9852   15.2362  -12.9314 C   0  0  0  0  0  0  0  0  0  0  0  0
  -10.6743   16.1540  -12.1234 C   0  0  0  0  0  0  0  0  0  0  0  0
  -10.0949   16.6939  -10.9546 N   0  0  0  0  0  0  0  0  0  0  0  0
   -8.6336   13.4595  -14.6389 C   0  0  0  0  0  0  0  0  0  0  0  0
   -8.0058   13.9483  -13.3912 N   0  0  0  0  0  0  0  0  0  0  0  0
   -6.6316   13.5369  -13.0149 C   0  0  0  0  0  0  0  0  0  0  0  0
 37 38  1  0  0  0
 38 39  1  0  0  0
 38 31  1  0  0  0
 31 32  2  0  0  0
 31 34  1  0  0  0
 32 33  1  0  0  0
 33 36  2  0  0  0
 34 35  2  0  0  0
 35 36  1  0  0  0
 36 30  1  0  0  0
 30 24  1  0  0  0
 24 25  1  0  0  0
 24 27  2  0  0  0
 25 26  2  0  0  0
 26 29  1  0  0  0
 27 28  1  0  0  0
 28 29  2  0  0  0
 29 23  1  0  0  0
 23 22  1  0  0  0
 22 21  1  0  0  0
 21  1  1  0  0  0
  1  2  1  0  0  0
  2  3  1  0  0  0
  2  5  2  0  0  0
  3  4  2  0  0  0
  4  7  1  0  0  0
  5  6  1  0  0  0
  6  7  2  0  0  0
  7  8  1  0  0  0
  8  9  1  0  0  0
  9 10  1  0  0  0
  9 13  1  0  0  0
 10 11  2  0  0  0
 11 12  1  0  0  0
 12 13  1  0  0  0
 12 17  2  0  0  0
 13 14  2  0  0  0
 14 15  1  0  0  0
 15 16  2  0  0  0
 16 17  1  0  0  0
 17 18  1  0  0  0
 18 19  1  0  0  0
 18 20  1  0  0  0
M  CHG 1  36   1
M  END
> <minimizedAffinity>
-8.38847

$$$$
3ZM9_QMQ_A_1458


 39 43  0  0  0  0  0  0  0  0999 V2000
  -12.7333   18.4194   -9.8584 C   0  0  0  0  0  0  0  0  0  0  0  0
  -11.9301   17.4875   -9.1514 C   0  0  0  0  0  0  0  0  0  0  0  0
  -12.4623   16.2940   -8.6262 C   0  0  0  0  0  0  0  0  0  0  0  0
  -11.6472   15.3803   -7.9297 C   0  0  0  0  0  0  0  0  0  0  0  0
  -10.5645   17.7433   -8.9837 C   0  0  0  0  0  0  0  0  0  0  0  0
   -9.7537   16.8269   -8.2890 C   0  0  0  0  0  0  0  0  0  0  0  0
  -10.2791   15.6401   -7.7659 C   0  0  0  0  0  0  0  0  0  0  0  0
   -9.4479   14.7364   -7.0640 C   0  0  0  0  0  0  0  0  0  0  0  0
   -9.7617   14.6414   -5.5537 N   0  0  0  0  0  0  0  0  0  0  0  0
  -10.2987   15.5776   -4.7667 C   0  0  0  0  0  0  0  0  0  0  0  0
  -10.4173   15.1047   -3.5308 N   0  0  0  0  0  0  0  0  0  0  0  0
   -9.9425   13.8617   -3.5355 C   0  0  0  0  0  0  0  0  0  0  0  0
   -9.5469   13.5725   -4.7899 C   0  0  0  0  0  0  0  0  0  0  0  0
   -9.0116   12.3802   -5.0877 N   0  0  0  0  0  0  0  0  0  0  0  0
   -8.8770   11.4204   -4.0821 C   0  0  0  0  0  0  0  0  0  0  0  0
   -9.3070   11.7551   -2.7962 N   0  0  0  0  0  0  0  0  0  0  0  0
   -9.8255   12.9724   -2.5493 C   0  0  0  0  0  0  0  0  0  0  0  0
  -10.2501   13.3528   -1.3204 N   0  0  0  0  0  0  0  0  0  0  0  0
  -10.6230   14.2539   -1.1856 H   0  0  0  0  0  0  0  0  0  0  0  0
  -10.1857   12.7282   -0.5622 H   0  0  0  0  0  0  0  0  0  0  0  0
  -12.3891   18.5035  -11.3698 C   0  0  0  0  0  0  0  0  0  0  0  0
  -12.4756   17.0995  -12.0046 C   0  0  0  0  0  0  0  0  0  0  0  0
  -11.1995   16.7024  -12.8026 C   0  0  0  0  0  0  0  0  0  0  0  0
   -9.1691   13.6767  -10.6414 C   0  0  0  0  0  0  0  0  0  0  0  0
  -10.5440   13.5599  -10.8976 C   0  0  0  0  0  0  0  0  0  0  0  0
  -11.2142   14.5567  -11.6202 C   0  0  0  0  0  0  0  0  0  0  0  0
   -8.4924   14.8099  -11.1208 C   0  0  0  0  0  0  0  0  0  0  0  0
   -9.1557   15.8085  -11.8366 C   0  0  0  0  0  0  0  0  0  0  0  0
  -10.5269   15.6853  -12.0951 C   0  0  0  0  0  0  0  0  0  0  0  0
   -8.4759   12.6820   -9.9037 C   0  0  0  0  0  0  0  0  0  0  0  0
   -8.7544    8.7573  -11.8095 C   0  0  0  0  0  0  0  0  0  0  0  0
   -8.2055    9.8580  -12.5033 C   0  0  0  0  0  0  0  0  0  0  0  0
   -8.0989   11.1292  -11.9151 C   0  0  0  0  0  0  0  0  0  0  0  0
   -9.1974    8.9583  -10.4923 C   0  0  0  0  0  0  0  0  0  0  0  0
   -9.1021   10.2233   -9.8917 C   0  0  0  0  0  0  0  0  0  0  0  0
   -8.5548   11.3300  -10.5766 N   0  0  0  0  0  0  0  0  0  0  0  0
   -7.7727    7.0600  -13.2897 C   0  0  0  0  0  0  0  0  0  0  0  0
   -8.8564    7.5317  -12.3992 N   0  0  0  0  0  0  0  0  0  0  0  0
  -10.0242    6.6701  -12.0937 C   0  0  0  0  0  0  0  0  0  0  0  0
 37 38  1  0  0  0
 38 39  1  0  0  0
 38 31  1  0  0  0
 31 32  2  0  0  0
 31 34  1  0  0  0
 32 33  1  0  0  0
 33 36  2  0  0  0
 34 35  2  0  0  0
 35 36  1  0  0  0
 36 30  1  0  0  0
 30 24  1  0  0  0
 24 25  1  0  0  0
 24 27  2  0  0  0
 25 26  2  0  0  0
 26 29  1  0  0  0
 27 28  1  0  0  0
 28 29  2  0  0  0
 29 23  1  0  0  0
 23 22  1  0  0  0
 22 21  1  0  0  0
 21  1  1  0  0  0
  1  2  1  0  0  0
  2  3  1  0  0  0
  2  5  2  0  0  0
  3  4  2  0  0  0
  4  7  1  0  0  0
  5  6  1  0  0  0
  6  7  2  0  0  0
  7  8  1  0  0  0
  8  9  1  0  0  0
  9 10  1  0  0  0
  9 13  1  0  0  0
 10 11  2  0  0  0
 11 12  1  0  0  0
 12 13  1  0  0  0
 12 17  2  0  0  0
 13 14  2  0  0  0
 14 15  1  0  0  0
 15 16  2  0  0  0
 16 17  1  0  0  0
 17 18  1  0  0  0
 18 19  1  0  0  0
 18 20  1  0  0  0
M  CHG 1  36   1
M  END
> <minimizedAffinity>
-8.28762

$$$$
3ZM9_QMQ_A_1458


 39 43  0  0  0  0  0  0  0  0999 V2000
  -10.0275   12.9144   -5.8793 C   0  0  0  0  0  0  0  0  0  0  0  0
  -10.1120   13.2938   -7.2440 C   0  0  0  0  0  0  0  0  0  0  0  0
   -8.9833   13.7249   -7.9677 C   0  0  0  0  0  0  0  0  0  0  0  0
   -9.0877   14.0945   -9.3230 C   0  0  0  0  0  0  0  0  0  0  0  0
  -11.3438   13.2213   -7.9039 C   0  0  0  0  0  0  0  0  0  0  0  0
  -11.4430   13.5896   -9.2582 C   0  0  0  0  0  0  0  0  0  0  0  0
  -10.3239   14.0184   -9.9804 C   0  0  0  0  0  0  0  0  0  0  0  0
  -10.4474   14.3915  -11.3390 C   0  0  0  0  0  0  0  0  0  0  0  0
   -9.8690   13.3543  -12.3280 N   0  0  0  0  0  0  0  0  0  0  0  0
  -10.4939   12.3121  -12.8826 C   0  0  0  0  0  0  0  0  0  0  0  0
   -9.6551   11.6669  -13.6858 N   0  0  0  0  0  0  0  0  0  0  0  0
   -8.4873   12.3023  -13.6310 C   0  0  0  0  0  0  0  0  0  0  0  0
   -8.6239   13.3522  -12.7987 C   0  0  0  0  0  0  0  0  0  0  0  0
   -7.5929   14.1699  -12.5433 N   0  0  0  0  0  0  0  0  0  0  0  0
   -6.3635   13.9346  -13.1629 C   0  0  0  0  0  0  0  0  0  0  0  0
   -6.2643   12.8411  -14.0260 N   0  0  0  0  0  0  0  0  0  0  0  0
   -7.3282   12.0441  -14.2368 C   0  0  0  0  0  0  0  0  0  0  0  0
   -7.2857   10.9661  -15.0561 N   0  0  0  0  0  0  0  0  0  0  0  0
   -8.0889   10.4106  -15.1808 H   0  0  0  0  0  0  0  0  0  0  0  0
   -6.4516   10.7382  -15.5269 H   0  0  0  0  0  0  0  0  0  0  0  0
   -9.4328   14.0231   -4.9700 C   0  0  0  0  0  0  0  0  0  0  0  0
  -10.5539   14.9781   -4.5085 C   0  0  0  0  0  0  0  0  0  0  0  0
  -10.2113   16.4816   -4.7206 C   0  0  0  0  0  0  0  0  0  0  0  0
  -10.7834   17.4590   -8.8030 C   0  0  0  0  0  0  0  0  0  0  0  0
   -9.5063   17.5474   -8.2279 C   0  0  0  0  0  0  0  0  0  0  0  0
   -9.3152   17.2157   -6.8793 C   0  0  0  0  0  0  0  0  0  0  0  0
  -11.8531   17.0372   -7.9969 C   0  0  0  0  0  0  0  0  0  0  0  0
  -11.6698   16.7105   -6.6518 C   0  0  0  0  0  0  0  0  0  0  0  0
  -10.3924   16.7947   -6.0832 C   0  0  0  0  0  0  0  0  0  0  0  0
  -10.9974   17.7995  -10.1639 C   0  0  0  0  0  0  0  0  0  0  0  0
  -15.2433   18.3043  -11.0749 C   0  0  0  0  0  0  0  0  0  0  0  0
  -14.5833   17.0903  -11.3660 C   0  0  0  0  0  0  0  0  0  0  0  0
  -13.2214   16.8977  -11.0803 C   0  0  0  0  0  0  0  0  0  0  0  0
  -14.5007   19.3360  -10.4785 C   0  0  0  0  0  0  0  0  0  0  0  0
  -13.1381   19.1612  -10.1907 C   0  0  0  0  0  0  0  0  0  0  0  0
  -12.4689   17.9515  -10.4777 N   0  0  0  0  0  0  0  0  0  0  0  0
  -16.9793   19.6026  -12.2311 C   0  0  0  0  0  0  0  0  0  0  0  0
  -16.5648   18.4758  -11.3659 N   0  0  0  0  0  0  0  0  0  0  0  0
  -17.5568   17.4982  -10.8564 C   0  0  0  0  0  0  0  0  0  0  0  0
 37 38  1  0  0  0
 38 39  1  0  0  0
 38 31  1  0  0  0
 31 32  2  0  0  0
 31 34  1  0  0  0
 32 33  1  0  0  0
 33 36  2  0  0  0
 34 35  2  0  0  0
 35 36  1  0  0  0
 36 30  1  0  0  0
 30 24  1  0  0  0
 24 25  1  0  0  0
 24 27  2  0  0  0
 25 26  2  0  0  0
 26 29  1  0  0  0
 27 28  1  0  0  0
 28 29  2  0  0  0
 29 23  1  0  0  0
 23 22  1  0  0  0
 22 21  1  0  0  0
 21  1  1  0  0  0
  1  2  1  0  0  0
  2  3  1  0  0  0
  2  5  2  0  0  0
  3  4  2  0  0  0
  4  7  1  0  0  0
  5  6  1  0  0  0
  6  7  2  0  0  0
  7  8  1  0  0  0
  8  9  1  0  0  0
  9 10  1  0  0  0
  9 13  1  0  0  0
 10 11  2  0  0  0
 11 12  1  0  0  0
 12 13  1  0  0  0
 12 17  2  0  0  0
 13 14  2  0  0  0
 14 15  1  0  0  0
 15 16  2  0  0  0
 16 17  1  0  0  0
 17 18  1  0  0  0
 18 19  1  0  0  0
 18 20  1  0  0  0
M  CHG 1  36   1
M  END
> <minimizedAffinity>
-8.17990

$$$$
