1P1N_KAI_A_999
  RCSB PDB12061703373D
Coordinates from PDB:1P1N:A:999 Model:1 without hydrogens
 15 15  0  0  0  0            999 V2000
   13.6940    3.0170   16.1000   N 0  0  0  0  0  0  0  0  0  0  0  0
   14.6330    4.1480   15.7670   C 0  0  0  0  0  0  0  0  0  0  0  0
   17.0860    5.0280   14.4380   C 0  0  0  0  0  0  0  0  0  0  0  0
   18.5830    3.5700   15.6900   C 0  0  0  0  0  0  0  0  0  0  0  0
   14.4440    1.8130   16.2830   C 0  0  0  0  0  0  0  0  0  0  0  0
   15.8080    1.9430   15.6100   C 0  0  0  0  0  0  0  0  0  0  0  0
   15.7940    1.7100   14.0950   C 0  0  0  0  0  0  0  0  0  0  0  0
   15.9940    3.3470   15.7600   C 0  0  0  0  0  0  0  0  0  0  0  0
   15.8430    0.2610   13.6720   C 0  0  0  0  0  0  0  0  0  0  0  0
   17.2680    4.0640   15.2500   C 0  0  0  0  0  0  0  0  0  0  0  0
   14.6040    1.4730   17.8000   C 0  0  0  0  0  0  0  0  0  0  0  0
   13.9600    2.2010   18.5850   O 0  0  0  0  0  0  0  0  0  0  0  0
   15.6720    0.0330   12.4540   O 0  0  0  0  0  0  0  0  0  0  0  0
   16.0610   -0.5940   14.5540   O 0  0  0  0  0  0  0  0  0  0  0  0
   15.3410    0.5050   18.0830   O 0  0  0  0  0  0  0  0  0  0  0  0
  1  2  1  0  0  0  0
  1  5  1  0  0  0  0
  2  8  1  0  0  0  0
  3 10  2  0  0  0  0
  4 10  1  0  0  0  0
  5  6  1  0  0  0  0
  5 11  1  0  0  0  0
  6  7  1  0  0  0  0
  6  8  1  0  0  0  0
  7  9  1  0  0  0  0
  8 10  1  0  0  0  0
  9 13  1  0  0  0  0
  9 14  2  0  0  0  0
 11 12  2  0  0  0  0
 11 15  1  0  0  0  0
A    1
N
A    2
CD
A    3
CD1
A    4
CD2
A    5
CA
A    6
CB
A    7
CB1
A    8
CG
A    9
CG1
A   10
CG2
A   11
C
A   12
O
A   13
OD1
A   14
OD2
A   15
OXT
M  END
>  <InstanceId>
1P1N_KAI_A_999

>  <ChemCompId>
KAI

>  <PdbId>
1P1N

>  <ChainId>
A

>  <ResidueNumber>
999

>  <InsertionCode>


>  <Model>
1

>  <AltIds>


>  <MissingHeavyAtoms>
0

>  <ObservedFormula>
C10 N O4

>  <Name>
3-(CARBOXYMETHYL)-4-ISOPROPENYLPROLINE

>  <SystematicName>
(2S,3S,4S)-3-(carboxymethyl)-4-prop-1-en-2-yl-pyrrolidine-2-carboxylic acid

>  <Synonyms>
KAINATE

>  <Type>
NON-POLYMER

>  <Formula>
C10 H15 N O4

>  <MolecularWeight>
213.23

>  <ModifiedDate>
2011-06-04

>  <Parent>


>  <OneLetterCode>


>  <SubcomponentList>


>  <AmbiguousFlag>
N

>  <InChI>
InChI=1S/C10H15NO4/c1-5(2)7-4-11-9(10(14)15)6(7)3-8(12)13/h6-7,9,11H,1,3-4H2,2H3,(H,12,13)(H,14,15)/t6-,7+,9-/m0/s1

>  <InChIKey>
VLSMHEGGTFMBBZ-OOZYFLPDSA-N

>  <SMILES>
CC(=C)[C@H]1CN[C@@H]([C@H]1CC(=O)O)C(=O)O

$$$$
