1XWS_BI1_A_1001
  RCSB PDB12061704413D
Coordinates from PDB:1XWS:A:1001 Model:1 without hydrogens
 31 35  0  0  0  0            999 V2000
  -14.9030  -36.4870    5.8420   C 0  0  0  0  0  0  0  0  0  0  0  0
  -15.8660  -36.4870    4.7470   N 0  0  0  0  0  0  0  0  0  0  0  0
  -17.2180  -36.9790    4.9630   C 0  0  0  0  0  0  0  0  0  0  0  0
  -15.3890  -35.9230    3.4860   C 0  0  0  0  0  0  0  0  0  0  0  0
  -16.4520  -36.0540    2.4070   C 0  0  0  0  0  0  0  0  0  0  0  0
  -15.6560  -36.0150    1.1240   C 0  0  0  0  0  0  0  0  0  0  0  0
  -16.5110  -36.1470   -0.0400   N 0  0  0  0  0  0  0  0  0  0  0  0
  -17.4560  -37.1270   -0.1720   C 0  0  0  0  0  0  0  0  0  0  0  0
  -16.4620  -35.3690   -1.1300   C 0  0  0  0  0  0  0  0  0  0  0  0
  -15.6680  -34.2780   -1.4930   C 0  0  0  0  0  0  0  0  0  0  0  0
  -15.8460  -33.6620   -2.7160   C 0  0  0  0  0  0  0  0  0  0  0  0
  -16.8130  -34.1320   -3.6210   C 0  0  0  0  0  0  0  0  0  0  0  0
  -17.6160  -35.2240   -3.2780   C 0  0  0  0  0  0  0  0  0  0  0  0
  -17.4030  -35.8500   -2.0450   C 0  0  0  0  0  0  0  0  0  0  0  0
  -18.0360  -36.9000   -1.3980   C 0  0  0  0  0  0  0  0  0  0  0  0
  -19.0800  -37.8430   -1.9360   C 0  0  0  0  0  0  0  0  0  0  0  0
  -19.1420  -38.3480   -3.3350   C 0  0  0  0  0  0  0  0  0  0  0  0
  -18.4160  -37.8970   -4.2920   O 0  0  0  0  0  0  0  0  0  0  0  0
  -20.1060  -39.2700   -3.5490   N 0  0  0  0  0  0  0  0  0  0  0  0
  -20.6570  -39.4950   -2.3480   C 0  0  0  0  0  0  0  0  0  0  0  0
  -21.6020  -40.3400   -2.2080   O 0  0  0  0  0  0  0  0  0  0  0  0
  -20.0890  -38.6740   -1.2550   C 0  0  0  0  0  0  0  0  0  0  0  0
  -20.5040  -38.7500    0.1830   C 0  0  0  0  0  0  0  0  0  0  0  0
  -20.4300  -37.7310    1.1540   C 0  0  0  0  0  0  0  0  0  0  0  0
  -20.0080  -36.3960    1.1200   C 0  0  0  0  0  0  0  0  0  0  0  0
  -20.0660  -35.6470    2.2900   C 0  0  0  0  0  0  0  0  0  0  0  0
  -20.5500  -36.2460    3.4540   C 0  0  0  0  0  0  0  0  0  0  0  0
  -20.9830  -37.5830    3.4910   C 0  0  0  0  0  0  0  0  0  0  0  0
  -20.9090  -38.3470    2.3110   C 0  0  0  0  0  0  0  0  0  0  0  0
  -21.2560  -39.6430    2.0190   N 0  0  0  0  0  0  0  0  0  0  0  0
  -21.0250  -39.9310    0.7090   C 0  0  0  0  0  0  0  0  0  0  0  0
  1  2  1  0  0  0  0
  2  3  1  0  0  0  0
  2  4  1  0  0  0  0
  4  5  1  0  0  0  0
  5  6  1  0  0  0  0
  6  7  1  0  0  0  0
  7  8  1  0  0  0  0
  7  9  1  0  0  0  0
  8 15  2  0  0  0  0
  9 10  1  0  0  0  0
  9 14  2  0  0  0  0
 10 11  2  0  0  0  0
 11 12  1  0  0  0  0
 12 13  2  0  0  0  0
 13 14  1  0  0  0  0
 14 15  1  0  0  0  0
 15 16  1  0  0  0  0
 16 17  1  0  0  0  0
 16 22  2  0  0  0  0
 17 18  2  0  0  0  0
 17 19  1  0  0  0  0
 19 20  1  0  0  0  0
 20 21  2  0  0  0  0
 20 22  1  0  0  0  0
 22 23  1  0  0  0  0
 23 24  1  0  0  0  0
 23 31  2  0  0  0  0
 24 25  1  0  0  0  0
 24 29  2  0  0  0  0
 25 26  2  0  0  0  0
 26 27  1  0  0  0  0
 27 28  2  0  0  0  0
 28 29  1  0  0  0  0
 29 30  1  0  0  0  0
 30 31  1  0  0  0  0
A    1
CBD
A    2
NBC
A    3
CBE
A    4
CBB
A    5
CBA
A    6
CAY
A    7
NAH
A    8
CAW
A    9
CAE
A   10
CAF
A   11
CAA
A   12
CAB
A   13
CAC
A   14
CAD
A   15
CAG
A   16
CAI
A   17
CAT
A   18
OAZ
A   19
NAU
A   20
CAV
A   21
OAX
A   22
CAJ
A   23
CAK
A   24
CAM
A   25
CAP
A   26
CAQ
A   27
CAR
A   28
CAS
A   29
CAN
A   30
NAO
A   31
CAL
M  END
>  <InstanceId>
1XWS_BI1_A_1001

>  <ChemCompId>
BI1

>  <PdbId>
1XWS

>  <ChainId>
A

>  <ResidueNumber>
1001

>  <InsertionCode>


>  <Model>
1

>  <AltIds>


>  <MissingHeavyAtoms>
0

>  <ObservedFormula>
C25 N4 O2

>  <Name>
3-{1-[3-(DIMETHYLAMINO)PROPYL]-1H-INDOL-3-YL}-4-(1H-INDOL-3-YL)-1H-PYRROLE-2,5-DIONE

>  <SystematicName>
3-[1-(3-dimethylaminopropyl)indol-3-yl]-4-(1H-indol-3-yl)pyrrole-2,5-dione

>  <Synonyms>
RBT205 INHIBITOR

>  <Type>
NON-POLYMER

>  <Formula>
C25 H24 N4 O2

>  <MolecularWeight>
412.484

>  <ModifiedDate>
2011-06-04

>  <Parent>


>  <OneLetterCode>


>  <SubcomponentList>


>  <AmbiguousFlag>
N

>  <InChI>
InChI=1S/C25H24N4O2/c1-28(2)12-7-13-29-15-19(17-9-4-6-11-21(17)29)23-22(24(30)27-25(23)31)18-14-26-20-10-5-3-8-16(18)20/h3-6,8-11,14-15,26H,7,12-13H2,1-2H3,(H,27,30,31)

>  <InChIKey>
QMGUOJYZJKLOLH-UHFFFAOYSA-N

>  <SMILES>
CN(C)CCCn1cc(c2c1cccc2)C3=C(C(=O)NC3=O)c4c[nH]c5c4cccc5

$$$$
