2CGF_P2N_A_1214


 25 26  0  0  0  0  0  0  0  0999 V2000
  -18.3669   34.4891   -5.9339 C   0  0  0  0  0  0  0  0  0  0  0  0
  -18.4999   33.6949   -4.6607 C   0  0  0  0  0  0  0  0  0  0  0  0
  -17.6110   32.6367   -4.4302 C   0  0  0  0  0  0  0  0  0  0  0  0
  -17.7198   31.8564   -3.2823 C   0  0  0  0  0  0  0  0  0  0  0  0
  -18.7351   32.1525   -2.3834 C   0  0  0  0  0  0  0  0  0  0  0  0
  -19.5951   33.1942   -2.6133 C   0  0  0  0  0  0  0  0  0  0  0  0
  -19.5095   33.9679   -3.7614 C   0  0  0  0  0  0  0  0  0  0  0  0
  -20.4892   35.1106   -3.9884 C   0  0  0  0  0  0  0  0  0  0  0  0
  -21.8659   34.6923   -4.5450 C   0  0  0  0  0  0  0  0  0  0  0  0
  -22.2580   33.2527   -4.9018 C   0  0  0  0  0  0  0  0  0  0  0  0
  -23.5651   33.1038   -5.6914 C   0  0  0  0  0  0  0  0  0  0  0  0
  -23.5866   31.9609   -6.7080 C   0  0  0  0  0  0  0  0  0  0  0  0
  -22.9166   32.1982   -8.0813 C   0  0  0  0  0  0  0  0  0  0  0  0
  -22.2961   33.5547   -8.4264 C   0  0  0  0  0  0  0  0  0  0  0  0
  -20.9940   33.5296   -8.6577 C   0  0  0  0  0  0  0  0  0  0  0  0
  -20.0919   34.6877   -9.0142 C   0  0  0  0  0  0  0  0  0  0  0  0
  -19.5954   35.5307   -7.8334 C   0  0  0  0  0  0  0  0  0  0  0  0
  -19.5952   34.7977   -6.6054 O   0  0  0  0  0  0  0  0  0  0  0  0
  -17.3008   34.7817   -6.4478 O   0  0  0  0  0  0  0  0  0  0  0  0
  -16.6299   32.3825   -5.3423 O   0  0  0  0  0  0  0  0  0  0  0  0
  -18.9005   31.4127   -1.2632 O   0  0  0  0  0  0  0  0  0  0  0  0
  -20.8436   33.5234   -1.3919 Cl  0  0  0  0  0  0  0  0  0  0  0  0
  -22.6501   35.5983   -4.6816 O   0  0  0  0  0  0  0  0  0  0  0  0
  -16.5594   32.9095   -6.1138 H   0  0  0  0  0  0  0  0  0  0  0  0
  -18.3240   30.6957   -1.0859 H   0  0  0  0  0  0  0  0  0  0  0  0
  1  2  1  0  0  0
  1 18  1  0  0  0
  1 19  2  0  0  0
  2  3  2  0  0  0
  2  7  1  0  0  0
  3  4  1  0  0  0
  3 20  1  0  0  0
  4  5  2  0  0  0
  5  6  1  0  0  0
  5 21  1  0  0  0
  6  7  2  0  0  0
  6 22  1  0  0  0
  7  8  1  0  0  0
  8  9  1  0  0  0
  9 10  1  0  0  0
  9 23  2  0  0  0
 10 11  1  0  0  0
 11 12  1  0  0  0
 12 13  1  0  0  0
 13 14  1  0  0  0
 14 15  2  0  0  0
 15 16  1  0  0  0
 16 17  1  0  0  0
 17 18  1  0  0  0
 20 24  1  0  0  0
 21 25  1  0  0  0
M  END
> <minimizedAffinity>
-9.50000

$$$$
2CGF_P2N_A_1214


 25 26  0  0  0  0  0  0  0  0999 V2000
  -18.1871   32.9525   -5.4233 C   0  0  0  0  0  0  0  0  0  0  0  0
  -18.8070   33.8408   -6.4704 C   0  0  0  0  0  0  0  0  0  0  0  0
  -18.1167   34.9917   -6.8728 C   0  0  0  0  0  0  0  0  0  0  0  0
  -18.6687   35.8572   -7.8133 C   0  0  0  0  0  0  0  0  0  0  0  0
  -19.9199   35.5505   -8.3301 C   0  0  0  0  0  0  0  0  0  0  0  0
  -20.5843   34.4188   -7.9364 C   0  0  0  0  0  0  0  0  0  0  0  0
  -20.0542   33.5576   -6.9868 C   0  0  0  0  0  0  0  0  0  0  0  0
  -20.8260   32.3150   -6.5657 C   0  0  0  0  0  0  0  0  0  0  0  0
  -21.9349   32.5555   -5.5205 C   0  0  0  0  0  0  0  0  0  0  0  0
  -22.2513   33.9162   -4.8867 C   0  0  0  0  0  0  0  0  0  0  0  0
  -23.1978   33.8753   -3.6798 C   0  0  0  0  0  0  0  0  0  0  0  0
  -22.9178   34.9172   -2.5953 C   0  0  0  0  0  0  0  0  0  0  0  0
  -21.7912   34.6214   -1.5782 C   0  0  0  0  0  0  0  0  0  0  0  0
  -21.0164   33.3018   -1.6289 C   0  0  0  0  0  0  0  0  0  0  0  0
  -19.7205   33.4247   -1.8643 C   0  0  0  0  0  0  0  0  0  0  0  0
  -18.6897   32.3265   -1.9797 C   0  0  0  0  0  0  0  0  0  0  0  0
  -18.6012   31.6398   -3.3479 C   0  0  0  0  0  0  0  0  0  0  0  0
  -19.0775   32.4754   -4.4063 O   0  0  0  0  0  0  0  0  0  0  0  0
  -16.9938   32.7139   -5.3501 O   0  0  0  0  0  0  0  0  0  0  0  0
  -16.8904   35.2525   -6.3367 O   0  0  0  0  0  0  0  0  0  0  0  0
  -20.5127   36.3683   -9.2297 O   0  0  0  0  0  0  0  0  0  0  0  0
  -22.1661   34.0865   -8.6758 Cl  0  0  0  0  0  0  0  0  0  0  0  0
  -22.5692   31.5734   -5.2243 O   0  0  0  0  0  0  0  0  0  0  0  0
  -16.5218   34.6679   -5.7040 H   0  0  0  0  0  0  0  0  0  0  0  0
  -20.0764   37.1477   -9.5131 H   0  0  0  0  0  0  0  0  0  0  0  0
  1  2  1  0  0  0
  1 18  1  0  0  0
  1 19  2  0  0  0
  2  3  2  0  0  0
  2  7  1  0  0  0
  3  4  1  0  0  0
  3 20  1  0  0  0
  4  5  2  0  0  0
  5  6  1  0  0  0
  5 21  1  0  0  0
  6  7  2  0  0  0
  6 22  1  0  0  0
  7  8  1  0  0  0
  8  9  1  0  0  0
  9 10  1  0  0  0
  9 23  2  0  0  0
 10 11  1  0  0  0
 11 12  1  0  0  0
 12 13  1  0  0  0
 13 14  1  0  0  0
 14 15  2  0  0  0
 15 16  1  0  0  0
 16 17  1  0  0  0
 17 18  1  0  0  0
 20 24  1  0  0  0
 21 25  1  0  0  0
M  END
> <minimizedAffinity>
-7.97336

$$$$
2CGF_P2N_A_1214


 25 26  0  0  0  0  0  0  0  0999 V2000
  -24.5528   32.5127   -2.0964 C   0  0  0  0  0  0  0  0  0  0  0  0
  -25.3336   31.6080   -3.0137 C   0  0  0  0  0  0  0  0  0  0  0  0
  -25.5304   30.2730   -2.6368 C   0  0  0  0  0  0  0  0  0  0  0  0
  -26.2175   29.3947   -3.4704 C   0  0  0  0  0  0  0  0  0  0  0  0
  -26.6910   29.8779   -4.6824 C   0  0  0  0  0  0  0  0  0  0  0  0
  -26.5005   31.1869   -5.0393 C   0  0  0  0  0  0  0  0  0  0  0  0
  -25.8019   32.0679   -4.2268 C   0  0  0  0  0  0  0  0  0  0  0  0
  -25.6004   33.5128   -4.6611 C   0  0  0  0  0  0  0  0  0  0  0  0
  -24.4462   33.7421   -5.6588 C   0  0  0  0  0  0  0  0  0  0  0  0
  -23.5121   32.6401   -6.1750 C   0  0  0  0  0  0  0  0  0  0  0  0
  -22.2735   33.1311   -6.9359 C   0  0  0  0  0  0  0  0  0  0  0  0
  -21.0148   32.2816   -6.7511 C   0  0  0  0  0  0  0  0  0  0  0  0
  -20.1745   32.4981   -5.4712 C   0  0  0  0  0  0  0  0  0  0  0  0
  -20.5671   33.5668   -4.4475 C   0  0  0  0  0  0  0  0  0  0  0  0
  -20.8689   33.1036   -3.2458 C   0  0  0  0  0  0  0  0  0  0  0  0
  -21.2966   33.8893   -2.0285 C   0  0  0  0  0  0  0  0  0  0  0  0
  -22.7831   34.2601   -1.9658 C   0  0  0  0  0  0  0  0  0  0  0  0
  -23.5973   33.3700   -2.7341 O   0  0  0  0  0  0  0  0  0  0  0  0
  -24.6241   32.4774   -0.8799 O   0  0  0  0  0  0  0  0  0  0  0  0
  -25.0462   29.8430   -1.4369 O   0  0  0  0  0  0  0  0  0  0  0  0
  -27.3455   29.0624   -5.5404 O   0  0  0  0  0  0  0  0  0  0  0  0
  -27.1708   31.7283   -6.5939 Cl  0  0  0  0  0  0  0  0  0  0  0  0
  -24.3207   34.8826   -6.0301 O   0  0  0  0  0  0  0  0  0  0  0  0
  -24.5842   30.4367   -0.8782 H   0  0  0  0  0  0  0  0  0  0  0  0
  -27.4870   28.1635   -5.3168 H   0  0  0  0  0  0  0  0  0  0  0  0
  1  2  1  0  0  0
  1 18  1  0  0  0
  1 19  2  0  0  0
  2  3  2  0  0  0
  2  7  1  0  0  0
  3  4  1  0  0  0
  3 20  1  0  0  0
  4  5  2  0  0  0
  5  6  1  0  0  0
  5 21  1  0  0  0
  6  7  2  0  0  0
  6 22  1  0  0  0
  7  8  1  0  0  0
  8  9  1  0  0  0
  9 10  1  0  0  0
  9 23  2  0  0  0
 10 11  1  0  0  0
 11 12  1  0  0  0
 12 13  1  0  0  0
 13 14  1  0  0  0
 14 15  2  0  0  0
 15 16  1  0  0  0
 16 17  1  0  0  0
 17 18  1  0  0  0
 20 24  1  0  0  0
 21 25  1  0  0  0
M  END
> <minimizedAffinity>
-7.33388

$$$$
2CGF_P2N_A_1214


 25 26  0  0  0  0  0  0  0  0999 V2000
  -21.8755   35.1351   -6.1724 C   0  0  0  0  0  0  0  0  0  0  0  0
  -20.8521   34.3158   -5.4302 C   0  0  0  0  0  0  0  0  0  0  0  0
  -19.9869   33.4929   -6.1632 C   0  0  0  0  0  0  0  0  0  0  0  0
  -19.0486   32.6944   -5.5147 C   0  0  0  0  0  0  0  0  0  0  0  0
  -19.0033   32.7326   -4.1279 C   0  0  0  0  0  0  0  0  0  0  0  0
  -19.8482   33.5461   -3.4197 C   0  0  0  0  0  0  0  0  0  0  0  0
  -20.7999   34.3328   -4.0520 C   0  0  0  0  0  0  0  0  0  0  0  0
  -21.7292   35.2164   -3.2317 C   0  0  0  0  0  0  0  0  0  0  0  0
  -22.9444   34.4938   -2.6143 C   0  0  0  0  0  0  0  0  0  0  0  0
  -23.2652   33.0070   -2.8146 C   0  0  0  0  0  0  0  0  0  0  0  0
  -24.6571   32.5655   -2.3437 C   0  0  0  0  0  0  0  0  0  0  0  0
  -25.3091   31.4624   -3.1793 C   0  0  0  0  0  0  0  0  0  0  0  0
  -26.0082   31.8678   -4.4977 C   0  0  0  0  0  0  0  0  0  0  0  0
  -26.0862   33.3362   -4.9239 C   0  0  0  0  0  0  0  0  0  0  0  0
  -25.4720   33.6204   -6.0604 C   0  0  0  0  0  0  0  0  0  0  0  0
  -25.3605   34.9623   -6.7452 C   0  0  0  0  0  0  0  0  0  0  0  0
  -24.2503   35.8833   -6.2249 C   0  0  0  0  0  0  0  0  0  0  0  0
  -23.1896   35.1553   -5.6001 O   0  0  0  0  0  0  0  0  0  0  0  0
  -21.6691   35.6762   -7.2452 O   0  0  0  0  0  0  0  0  0  0  0  0
  -20.0689   33.4877   -7.5242 O   0  0  0  0  0  0  0  0  0  0  0  0
  -18.1267   31.9605   -3.4461 O   0  0  0  0  0  0  0  0  0  0  0  0
  -19.6971   33.5576   -1.6488 Cl  0  0  0  0  0  0  0  0  0  0  0  0
  -23.6518   35.1920   -1.9314 O   0  0  0  0  0  0  0  0  0  0  0  0
  -20.7014   34.0263   -7.9575 H   0  0  0  0  0  0  0  0  0  0  0  0
  -17.5396   31.3966   -3.9101 H   0  0  0  0  0  0  0  0  0  0  0  0
  1  2  1  0  0  0
  1 18  1  0  0  0
  1 19  2  0  0  0
  2  3  2  0  0  0
  2  7  1  0  0  0
  3  4  1  0  0  0
  3 20  1  0  0  0
  4  5  2  0  0  0
  5  6  1  0  0  0
  5 21  1  0  0  0
  6  7  2  0  0  0
  6 22  1  0  0  0
  7  8  1  0  0  0
  8  9  1  0  0  0
  9 10  1  0  0  0
  9 23  2  0  0  0
 10 11  1  0  0  0
 11 12  1  0  0  0
 12 13  1  0  0  0
 13 14  1  0  0  0
 14 15  2  0  0  0
 15 16  1  0  0  0
 16 17  1  0  0  0
 17 18  1  0  0  0
 20 24  1  0  0  0
 21 25  1  0  0  0
M  END
> <minimizedAffinity>
-7.31889

$$$$
2CGF_P2N_A_1214


 25 26  0  0  0  0  0  0  0  0999 V2000
  -21.5004   34.8164   -4.0029 C   0  0  0  0  0  0  0  0  0  0  0  0
  -22.6788   34.5801   -3.0945 C   0  0  0  0  0  0  0  0  0  0  0  0
  -22.5262   33.7143   -2.0036 C   0  0  0  0  0  0  0  0  0  0  0  0
  -23.5988   33.4424   -1.1586 C   0  0  0  0  0  0  0  0  0  0  0  0
  -24.8183   34.0454   -1.4341 C   0  0  0  0  0  0  0  0  0  0  0  0
  -24.9563   34.8967   -2.4988 C   0  0  0  0  0  0  0  0  0  0  0  0
  -23.9010   35.1620   -3.3592 C   0  0  0  0  0  0  0  0  0  0  0  0
  -24.0942   36.1050   -4.5383 C   0  0  0  0  0  0  0  0  0  0  0  0
  -24.7600   35.4746   -5.7791 C   0  0  0  0  0  0  0  0  0  0  0  0
  -25.1773   34.0023   -5.8875 C   0  0  0  0  0  0  0  0  0  0  0  0
  -25.5627   33.5302   -7.2955 C   0  0  0  0  0  0  0  0  0  0  0  0
  -25.1969   32.0808   -7.6206 C   0  0  0  0  0  0  0  0  0  0  0  0
  -23.7401   31.7765   -8.0403 C   0  0  0  0  0  0  0  0  0  0  0  0
  -22.7115   32.9027   -8.1736 C   0  0  0  0  0  0  0  0  0  0  0  0
  -21.6797   32.8158   -7.3505 C   0  0  0  0  0  0  0  0  0  0  0  0
  -20.5075   33.7608   -7.2282 C   0  0  0  0  0  0  0  0  0  0  0  0
  -20.7467   35.0080   -6.3687 C   0  0  0  0  0  0  0  0  0  0  0  0
  -21.7874   34.8130   -5.4073 O   0  0  0  0  0  0  0  0  0  0  0  0
  -20.3477   34.9067   -3.6161 O   0  0  0  0  0  0  0  0  0  0  0  0
  -21.3093   33.1441   -1.7730 O   0  0  0  0  0  0  0  0  0  0  0  0
  -25.8991   33.7987   -0.6592 O   0  0  0  0  0  0  0  0  0  0  0  0
  -26.5448   35.6514   -2.7563 Cl  0  0  0  0  0  0  0  0  0  0  0  0
  -24.9478   36.2391   -6.6927 O   0  0  0  0  0  0  0  0  0  0  0  0
  -20.5895   33.3292   -2.3436 H   0  0  0  0  0  0  0  0  0  0  0  0
  -25.8275   33.2197    0.0741 H   0  0  0  0  0  0  0  0  0  0  0  0
  1  2  1  0  0  0
  1 18  1  0  0  0
  1 19  2  0  0  0
  2  3  2  0  0  0
  2  7  1  0  0  0
  3  4  1  0  0  0
  3 20  1  0  0  0
  4  5  2  0  0  0
  5  6  1  0  0  0
  5 21  1  0  0  0
  6  7  2  0  0  0
  6 22  1  0  0  0
  7  8  1  0  0  0
  8  9  1  0  0  0
  9 10  1  0  0  0
  9 23  2  0  0  0
 10 11  1  0  0  0
 11 12  1  0  0  0
 12 13  1  0  0  0
 13 14  1  0  0  0
 14 15  2  0  0  0
 15 16  1  0  0  0
 16 17  1  0  0  0
 17 18  1  0  0  0
 20 24  1  0  0  0
 21 25  1  0  0  0
M  END
> <minimizedAffinity>
-7.23504

$$$$
2CGF_P2N_A_1214


 25 26  0  0  0  0  0  0  0  0999 V2000
  -25.1095   32.2210   -4.6174 C   0  0  0  0  0  0  0  0  0  0  0  0
  -25.4376   33.3847   -3.7186 C   0  0  0  0  0  0  0  0  0  0  0  0
  -26.5416   34.1883   -4.0321 C   0  0  0  0  0  0  0  0  0  0  0  0
  -26.8603   35.2931   -3.2470 C   0  0  0  0  0  0  0  0  0  0  0  0
  -26.0502   35.5763   -2.1560 C   0  0  0  0  0  0  0  0  0  0  0  0
  -24.9771   34.7804   -1.8526 C   0  0  0  0  0  0  0  0  0  0  0  0
  -24.6375   33.6876   -2.6367 C   0  0  0  0  0  0  0  0  0  0  0  0
  -23.4315   32.8320   -2.2750 C   0  0  0  0  0  0  0  0  0  0  0  0
  -22.0685   33.3976   -2.7249 C   0  0  0  0  0  0  0  0  0  0  0  0
  -21.8863   34.6982   -3.5177 C   0  0  0  0  0  0  0  0  0  0  0  0
  -20.4826   34.9259   -4.0938 C   0  0  0  0  0  0  0  0  0  0  0  0
  -20.4397   35.6489   -5.4412 C   0  0  0  0  0  0  0  0  0  0  0  0
  -20.7060   34.8195   -6.7188 C   0  0  0  0  0  0  0  0  0  0  0  0
  -20.9548   33.3111   -6.6361 C   0  0  0  0  0  0  0  0  0  0  0  0
  -22.1447   32.9181   -7.0598 C   0  0  0  0  0  0  0  0  0  0  0  0
  -22.6971   31.5128   -7.1036 C   0  0  0  0  0  0  0  0  0  0  0  0
  -23.2888   30.9904   -5.7890 C   0  0  0  0  0  0  0  0  0  0  0  0
  -23.7212   32.0489   -4.9300 O   0  0  0  0  0  0  0  0  0  0  0  0
  -25.9466   31.5108   -5.1476 O   0  0  0  0  0  0  0  0  0  0  0  0
  -27.3080   33.8717   -5.1144 O   0  0  0  0  0  0  0  0  0  0  0  0
  -26.3007   36.6502   -1.3728 O   0  0  0  0  0  0  0  0  0  0  0  0
  -24.0151   35.1974   -0.4173 Cl  0  0  0  0  0  0  0  0  0  0  0  0
  -21.1156   32.7349   -2.3972 O   0  0  0  0  0  0  0  0  0  0  0  0
  -27.0908   33.1275   -5.6407 H   0  0  0  0  0  0  0  0  0  0  0  0
  -27.0293   37.2083   -1.5618 H   0  0  0  0  0  0  0  0  0  0  0  0
  1  2  1  0  0  0
  1 18  1  0  0  0
  1 19  2  0  0  0
  2  3  2  0  0  0
  2  7  1  0  0  0
  3  4  1  0  0  0
  3 20  1  0  0  0
  4  5  2  0  0  0
  5  6  1  0  0  0
  5 21  1  0  0  0
  6  7  2  0  0  0
  6 22  1  0  0  0
  7  8  1  0  0  0
  8  9  1  0  0  0
  9 10  1  0  0  0
  9 23  2  0  0  0
 10 11  1  0  0  0
 11 12  1  0  0  0
 12 13  1  0  0  0
 13 14  1  0  0  0
 14 15  2  0  0  0
 15 16  1  0  0  0
 16 17  1  0  0  0
 17 18  1  0  0  0
 20 24  1  0  0  0
 21 25  1  0  0  0
M  END
> <minimizedAffinity>
-7.04814

$$$$
2CGF_P2N_A_1214


 25 26  0  0  0  0  0  0  0  0999 V2000
  -23.7630   32.5665   -4.6187 C   0  0  0  0  0  0  0  0  0  0  0  0
  -22.3713   32.8632   -4.1238 C   0  0  0  0  0  0  0  0  0  0  0  0
  -22.2184   33.5302   -2.9012 C   0  0  0  0  0  0  0  0  0  0  0  0
  -20.9513   33.8532   -2.4232 C   0  0  0  0  0  0  0  0  0  0  0  0
  -19.8519   33.5034   -3.1950 C   0  0  0  0  0  0  0  0  0  0  0  0
  -20.0106   32.8445   -4.3857 C   0  0  0  0  0  0  0  0  0  0  0  0
  -21.2677   32.5330   -4.8825 C   0  0  0  0  0  0  0  0  0  0  0  0
  -21.4059   31.8097   -6.2147 C   0  0  0  0  0  0  0  0  0  0  0  0
  -21.2927   32.7089   -7.4631 C   0  0  0  0  0  0  0  0  0  0  0  0
  -21.0985   34.2301   -7.4236 C   0  0  0  0  0  0  0  0  0  0  0  0
  -21.2883   34.9523   -8.7639 C   0  0  0  0  0  0  0  0  0  0  0  0
  -21.8961   36.3530   -8.6701 C   0  0  0  0  0  0  0  0  0  0  0  0
  -23.4306   36.4698   -8.5191 C   0  0  0  0  0  0  0  0  0  0  0  0
  -24.3149   35.2200   -8.5148 C   0  0  0  0  0  0  0  0  0  0  0  0
  -24.9917   35.0196   -7.3960 C   0  0  0  0  0  0  0  0  0  0  0  0
  -25.9382   33.8872   -7.0737 C   0  0  0  0  0  0  0  0  0  0  0  0
  -25.2803   32.5881   -6.5934 C   0  0  0  0  0  0  0  0  0  0  0  0
  -23.9935   32.8142   -6.0116 O   0  0  0  0  0  0  0  0  0  0  0  0
  -24.6878   32.2347   -3.8970 O   0  0  0  0  0  0  0  0  0  0  0  0
  -23.3279   33.8546   -2.1780 O   0  0  0  0  0  0  0  0  0  0  0  0
  -18.5992   33.8130   -2.7892 O   0  0  0  0  0  0  0  0  0  0  0  0
  -18.5459   32.4048   -5.2915 Cl  0  0  0  0  0  0  0  0  0  0  0  0
  -21.3608   32.1217   -8.5144 O   0  0  0  0  0  0  0  0  0  0  0  0
  -24.1792   33.6358   -2.5026 H   0  0  0  0  0  0  0  0  0  0  0  0
  -18.4673   34.2634   -1.9782 H   0  0  0  0  0  0  0  0  0  0  0  0
  1  2  1  0  0  0
  1 18  1  0  0  0
  1 19  2  0  0  0
  2  3  2  0  0  0
  2  7  1  0  0  0
  3  4  1  0  0  0
  3 20  1  0  0  0
  4  5  2  0  0  0
  5  6  1  0  0  0
  5 21  1  0  0  0
  6  7  2  0  0  0
  6 22  1  0  0  0
  7  8  1  0  0  0
  8  9  1  0  0  0
  9 10  1  0  0  0
  9 23  2  0  0  0
 10 11  1  0  0  0
 11 12  1  0  0  0
 12 13  1  0  0  0
 13 14  1  0  0  0
 14 15  2  0  0  0
 15 16  1  0  0  0
 16 17  1  0  0  0
 17 18  1  0  0  0
 20 24  1  0  0  0
 21 25  1  0  0  0
M  END
> <minimizedAffinity>
-7.03497

$$$$
2CGF_P2N_A_1214


 25 26  0  0  0  0  0  0  0  0999 V2000
  -22.0150   33.0776   -3.3090 C   0  0  0  0  0  0  0  0  0  0  0  0
  -21.3753   33.4180   -4.6298 C   0  0  0  0  0  0  0  0  0  0  0  0
  -20.4186   34.4407   -4.6720 C   0  0  0  0  0  0  0  0  0  0  0  0
  -19.8273   34.8093   -5.8773 C   0  0  0  0  0  0  0  0  0  0  0  0
  -20.2190   34.1420   -7.0296 C   0  0  0  0  0  0  0  0  0  0  0  0
  -21.1498   33.1379   -6.9778 C   0  0  0  0  0  0  0  0  0  0  0  0
  -21.7602   32.7730   -5.7867 C   0  0  0  0  0  0  0  0  0  0  0  0
  -22.7982   31.6598   -5.7690 C   0  0  0  0  0  0  0  0  0  0  0  0
  -24.2179   32.0810   -6.2016 C   0  0  0  0  0  0  0  0  0  0  0  0
  -24.6201   33.5097   -6.5893 C   0  0  0  0  0  0  0  0  0  0  0  0
  -26.1291   33.7564   -6.7166 C   0  0  0  0  0  0  0  0  0  0  0  0
  -26.6004   35.1494   -6.2953 C   0  0  0  0  0  0  0  0  0  0  0  0
  -26.7976   35.4235   -4.7863 C   0  0  0  0  0  0  0  0  0  0  0  0
  -26.5751   34.3157   -3.7531 C   0  0  0  0  0  0  0  0  0  0  0  0
  -25.6056   34.5501   -2.8842 C   0  0  0  0  0  0  0  0  0  0  0  0
  -25.1366   33.6632   -1.7549 C   0  0  0  0  0  0  0  0  0  0  0  0
  -24.1539   32.5531   -2.1463 C   0  0  0  0  0  0  0  0  0  0  0  0
  -23.4320   32.8638   -3.3412 O   0  0  0  0  0  0  0  0  0  0  0  0
  -21.4218   33.0747   -2.2439 O   0  0  0  0  0  0  0  0  0  0  0  0
  -20.0660   35.0688   -3.5143 O   0  0  0  0  0  0  0  0  0  0  0  0
  -19.6934   34.4751   -8.2306 O   0  0  0  0  0  0  0  0  0  0  0  0
  -21.5663   32.3142   -8.4967 Cl  0  0  0  0  0  0  0  0  0  0  0  0
  -25.0238   31.1841   -6.2254 O   0  0  0  0  0  0  0  0  0  0  0  0
  -20.4658   34.8182   -2.7048 H   0  0  0  0  0  0  0  0  0  0  0  0
  -19.0554   35.1587   -8.2895 H   0  0  0  0  0  0  0  0  0  0  0  0
  1  2  1  0  0  0
  1 18  1  0  0  0
  1 19  2  0  0  0
  2  3  2  0  0  0
  2  7  1  0  0  0
  3  4  1  0  0  0
  3 20  1  0  0  0
  4  5  2  0  0  0
  5  6  1  0  0  0
  5 21  1  0  0  0
  6  7  2  0  0  0
  6 22  1  0  0  0
  7  8  1  0  0  0
  8  9  1  0  0  0
  9 10  1  0  0  0
  9 23  2  0  0  0
 10 11  1  0  0  0
 11 12  1  0  0  0
 12 13  1  0  0  0
 13 14  1  0  0  0
 14 15  2  0  0  0
 15 16  1  0  0  0
 16 17  1  0  0  0
 17 18  1  0  0  0
 20 24  1  0  0  0
 21 25  1  0  0  0
M  END
> <minimizedAffinity>
-6.97269

$$$$
2CGF_P2N_A_1214


 25 26  0  0  0  0  0  0  0  0999 V2000
  -19.6044   34.3587   -7.3223 C   0  0  0  0  0  0  0  0  0  0  0  0
  -20.9205   34.8122   -7.8982 C   0  0  0  0  0  0  0  0  0  0  0  0
  -21.0635   36.1527   -8.2796 C   0  0  0  0  0  0  0  0  0  0  0  0
  -22.2732   36.6210   -8.7853 C   0  0  0  0  0  0  0  0  0  0  0  0
  -23.3288   35.7259   -8.8911 C   0  0  0  0  0  0  0  0  0  0  0  0
  -23.1776   34.4149   -8.5228 C   0  0  0  0  0  0  0  0  0  0  0  0
  -21.9837   33.9394   -8.0004 C   0  0  0  0  0  0  0  0  0  0  0  0
  -21.8557   32.4787   -7.5917 C   0  0  0  0  0  0  0  0  0  0  0  0
  -22.4349   32.1335   -6.2041 C   0  0  0  0  0  0  0  0  0  0  0  0
  -23.0651   33.1536   -5.2473 C   0  0  0  0  0  0  0  0  0  0  0  0
  -23.3214   32.6471   -3.8219 C   0  0  0  0  0  0  0  0  0  0  0  0
  -23.1528   33.6924   -2.7178 C   0  0  0  0  0  0  0  0  0  0  0  0
  -21.7201   34.0055   -2.2274 C   0  0  0  0  0  0  0  0  0  0  0  0
  -20.5147   33.2531   -2.7975 C   0  0  0  0  0  0  0  0  0  0  0  0
  -19.6356   34.0091   -3.4341 C   0  0  0  0  0  0  0  0  0  0  0  0
  -18.3549   33.5764   -4.1083 C   0  0  0  0  0  0  0  0  0  0  0  0
  -18.5070   33.0224   -5.5300 C   0  0  0  0  0  0  0  0  0  0  0  0
  -19.6894   33.5024   -6.1758 O   0  0  0  0  0  0  0  0  0  0  0  0
  -18.5177   34.7516   -7.7108 O   0  0  0  0  0  0  0  0  0  0  0  0
  -19.9989   36.9957   -8.1566 O   0  0  0  0  0  0  0  0  0  0  0  0
  -24.5326   36.1326   -9.3546 O   0  0  0  0  0  0  0  0  0  0  0  0
  -24.5717   33.3310   -8.7247 Cl  0  0  0  0  0  0  0  0  0  0  0  0
  -22.3674   30.9667   -5.9065 O   0  0  0  0  0  0  0  0  0  0  0  0
  -19.1861   36.6773   -7.8159 H   0  0  0  0  0  0  0  0  0  0  0  0
  -24.6585   37.0247   -9.6122 H   0  0  0  0  0  0  0  0  0  0  0  0
  1  2  1  0  0  0
  1 18  1  0  0  0
  1 19  2  0  0  0
  2  3  2  0  0  0
  2  7  1  0  0  0
  3  4  1  0  0  0
  3 20  1  0  0  0
  4  5  2  0  0  0
  5  6  1  0  0  0
  5 21  1  0  0  0
  6  7  2  0  0  0
  6 22  1  0  0  0
  7  8  1  0  0  0
  8  9  1  0  0  0
  9 10  1  0  0  0
  9 23  2  0  0  0
 10 11  1  0  0  0
 11 12  1  0  0  0
 12 13  1  0  0  0
 13 14  1  0  0  0
 14 15  2  0  0  0
 15 16  1  0  0  0
 16 17  1  0  0  0
 17 18  1  0  0  0
 20 24  1  0  0  0
 21 25  1  0  0  0
M  END
> <minimizedAffinity>
-6.97180

$$$$
2CGF_P2N_A_1214


 25 26  0  0  0  0  0  0  0  0999 V2000
  -24.6043   33.1925   -3.1045 C   0  0  0  0  0  0  0  0  0  0  0  0
  -24.9876   32.4278   -4.3446 C   0  0  0  0  0  0  0  0  0  0  0  0
  -25.4741   31.1211   -4.2075 C   0  0  0  0  0  0  0  0  0  0  0  0
  -25.8085   30.3675   -5.3294 C   0  0  0  0  0  0  0  0  0  0  0  0
  -25.6380   30.9447   -6.5802 C   0  0  0  0  0  0  0  0  0  0  0  0
  -25.1688   32.2259   -6.7044 C   0  0  0  0  0  0  0  0  0  0  0  0
  -24.8145   32.9812   -5.5961 C   0  0  0  0  0  0  0  0  0  0  0  0
  -24.2864   34.3979   -5.7732 C   0  0  0  0  0  0  0  0  0  0  0  0
  -22.7916   34.4986   -6.1413 C   0  0  0  0  0  0  0  0  0  0  0  0
  -21.8501   33.2964   -6.2886 C   0  0  0  0  0  0  0  0  0  0  0  0
  -20.3575   33.6382   -6.3856 C   0  0  0  0  0  0  0  0  0  0  0  0
  -19.4123   32.6222   -5.7418 C   0  0  0  0  0  0  0  0  0  0  0  0
  -19.2115   32.6868   -4.2099 C   0  0  0  0  0  0  0  0  0  0  0  0
  -19.9011   33.7686   -3.3742 C   0  0  0  0  0  0  0  0  0  0  0  0
  -20.7541   33.3158   -2.4703 C   0  0  0  0  0  0  0  0  0  0  0  0
  -21.5914   34.1164   -1.5008 C   0  0  0  0  0  0  0  0  0  0  0  0
  -22.9010   34.6817   -2.0637 C   0  0  0  0  0  0  0  0  0  0  0  0
  -23.3787   33.9317   -3.1839 O   0  0  0  0  0  0  0  0  0  0  0  0
  -25.2129   33.1322   -2.0499 O   0  0  0  0  0  0  0  0  0  0  0  0
  -25.6240   30.5956   -2.9583 O   0  0  0  0  0  0  0  0  0  0  0  0
  -25.9258   30.2497   -7.7043 O   0  0  0  0  0  0  0  0  0  0  0  0
  -25.0145   32.8971   -8.3430 Cl  0  0  0  0  0  0  0  0  0  0  0  0
  -22.3920   35.6222   -6.3212 O   0  0  0  0  0  0  0  0  0  0  0  0
  -25.3979   31.1054   -2.2054 H   0  0  0  0  0  0  0  0  0  0  0  0
  -26.2479   29.3719   -7.6429 H   0  0  0  0  0  0  0  0  0  0  0  0
  1  2  1  0  0  0
  1 18  1  0  0  0
  1 19  2  0  0  0
  2  3  2  0  0  0
  2  7  1  0  0  0
  3  4  1  0  0  0
  3 20  1  0  0  0
  4  5  2  0  0  0
  5  6  1  0  0  0
  5 21  1  0  0  0
  6  7  2  0  0  0
  6 22  1  0  0  0
  7  8  1  0  0  0
  8  9  1  0  0  0
  9 10  1  0  0  0
  9 23  2  0  0  0
 10 11  1  0  0  0
 11 12  1  0  0  0
 12 13  1  0  0  0
 13 14  1  0  0  0
 14 15  2  0  0  0
 15 16  1  0  0  0
 16 17  1  0  0  0
 17 18  1  0  0  0
 20 24  1  0  0  0
 21 25  1  0  0  0
M  END
> <minimizedAffinity>
-6.90614

$$$$
