3SHC_B01_H_3


 30 32  0  0  0  0  0  0  0  0999 V2000
   17.4223  -13.8182   22.6524 C   0  0  0  0  0  0  0  0  0  0  0  0
   16.3915  -13.2577   23.0054 O   0  0  0  0  0  0  0  0  0  0  0  0
   18.2539  -13.2837   21.7579 N   0  0  0  0  0  0  0  0  0  0  0  0
   17.9400  -11.9789   21.1671 C   0  0  0  0  0  0  0  0  0  0  0  0
   19.0333  -11.7617   20.1265 C   0  0  0  0  0  0  0  0  0  0  0  0
   19.7869  -13.0745   19.9888 C   0  0  0  0  0  0  0  0  0  0  0  0
   19.5018  -13.8629   21.2580 C   0  0  0  0  0  0  0  0  0  0  0  0
   16.6166  -16.0289   23.1573 N   0  0  0  0  0  0  0  0  0  0  0  0
   17.7833  -15.1656   23.2193 C   0  0  0  0  0  0  0  0  0  0  0  0
   16.8509  -16.9452   23.5394 H   0  0  0  0  0  0  0  0  0  0  0  0
   16.3204  -16.1310   22.1866 H   0  0  0  0  0  0  0  0  0  0  0  0
   18.2152  -15.0197   24.6747 C   0  0  0  0  0  0  0  0  0  0  0  0
   19.6331  -14.4941   24.7313 C   0  0  0  0  0  0  0  0  0  0  0  0
   19.8918  -13.2271   25.2538 C   0  0  0  0  0  0  0  0  0  0  0  0
   20.6797  -15.2737   24.2457 C   0  0  0  0  0  0  0  0  0  0  0  0
   21.1986  -12.7444   25.2981 C   0  0  0  0  0  0  0  0  0  0  0  0
   21.9833  -14.7933   24.2910 C   0  0  0  0  0  0  0  0  0  0  0  0
   22.2411  -13.5283   24.8193 C   0  0  0  0  0  0  0  0  0  0  0  0
   16.5869  -12.0068   20.5054 C   0  0  0  0  0  0  0  0  0  0  0  0
   16.4055  -12.7431   19.5478 O   0  0  0  0  0  0  0  0  0  0  0  0
   15.6172  -11.2295   21.0051 N   0  0  0  0  0  0  0  0  0  0  0  0
   15.8485  -10.6731   21.7836 H   0  0  0  0  0  0  0  0  0  0  0  0
   14.2451  -11.1294   20.5022 C   0  0  0  0  0  0  0  0  0  0  0  0
   13.2556  -10.9377   21.6350 C   0  0  0  0  0  0  0  0  0  0  0  0
   11.5467  -11.8337   22.9645 C   0  0  0  0  0  0  0  0  0  0  0  0
   11.4354  -10.6497   23.6941 C   0  0  0  0  0  0  0  0  0  0  0  0
   12.2676   -9.5793   23.3853 C   0  0  0  0  0  0  0  0  0  0  0  0
   13.1825   -9.7354   22.3418 C   0  0  0  0  0  0  0  0  0  0  0  0
   12.4376  -11.9590   21.9672 N   0  0  0  0  0  0  0  0  0  0  0  0
   12.1477   -8.0312   24.3207 Cl  0  0  0  0  0  0  0  0  0  0  0  0
 14 16  2  0  0  0
 14 13  1  0  0  0
 16 18  1  0  0  0
 18 17  2  0  0  0
 17 15  1  0  0  0
 15 13  2  0  0  0
 13 12  1  0  0  0
 12  9  1  0  0  0
  9  1  1  0  0  0
  9  8  1  0  0  0
  1  3  1  0  0  0
  1  2  2  0  0  0
  4 19  1  0  0  0
  4  5  1  0  0  0
  4  3  1  0  0  0
 19 21  1  0  0  0
 19 20  2  0  0  0
 23 24  1  0  0  0
 23 21  1  0  0  0
 24 28  2  0  0  0
 24 29  1  0  0  0
  5  6  1  0  0  0
  6  7  1  0  0  0
  7  3  1  0  0  0
 25 26  1  0  0  0
 25 29  2  0  0  0
 26 27  2  0  0  0
 27 28  1  0  0  0
 27 30  1  0  0  0
  8 10  1  0  0  0
  8 11  1  0  0  0
 21 22  1  0  0  0
M  END
> <minimizedAffinity>
-8.86698

$$$$
3SHC_B01_H_3


 30 32  0  0  0  0  0  0  0  0999 V2000
   17.0997  -13.9752   21.6013 C   0  0  0  0  0  0  0  0  0  0  0  0
   17.7480  -13.0559   21.1155 O   0  0  0  0  0  0  0  0  0  0  0  0
   16.0090  -14.4668   21.0133 N   0  0  0  0  0  0  0  0  0  0  0  0
   15.5560  -13.9001   19.7390 C   0  0  0  0  0  0  0  0  0  0  0  0
   14.2439  -14.6211   19.4493 C   0  0  0  0  0  0  0  0  0  0  0  0
   13.8715  -15.3936   20.7042 C   0  0  0  0  0  0  0  0  0  0  0  0
   15.1563  -15.5513   21.5028 C   0  0  0  0  0  0  0  0  0  0  0  0
   17.0927  -13.7054   23.9927 N   0  0  0  0  0  0  0  0  0  0  0  0
   17.5154  -14.5828   22.9148 C   0  0  0  0  0  0  0  0  0  0  0  0
   17.3699  -14.1085   24.8877 H   0  0  0  0  0  0  0  0  0  0  0  0
   16.0785  -13.5995   23.9670 H   0  0  0  0  0  0  0  0  0  0  0  0
   19.0325  -14.7319   22.9630 C   0  0  0  0  0  0  0  0  0  0  0  0
   19.5444  -14.2615   24.3071 C   0  0  0  0  0  0  0  0  0  0  0  0
   19.2460  -14.9823   25.4633 C   0  0  0  0  0  0  0  0  0  0  0  0
   20.3032  -13.0969   24.3893 C   0  0  0  0  0  0  0  0  0  0  0  0
   19.7143  -14.5418   26.7001 C   0  0  0  0  0  0  0  0  0  0  0  0
   20.7716  -12.6580   25.6222 C   0  0  0  0  0  0  0  0  0  0  0  0
   20.4773  -13.3831   26.7771 C   0  0  0  0  0  0  0  0  0  0  0  0
   15.3199  -12.4181   19.8705 C   0  0  0  0  0  0  0  0  0  0  0  0
   15.9506  -11.6478   19.1626 O   0  0  0  0  0  0  0  0  0  0  0  0
   14.4069  -11.9943   20.7542 N   0  0  0  0  0  0  0  0  0  0  0  0
   13.9394  -12.6845   21.2780 H   0  0  0  0  0  0  0  0  0  0  0  0
   14.0385  -10.6007   21.0146 C   0  0  0  0  0  0  0  0  0  0  0  0
   13.0314  -10.4987   22.1436 C   0  0  0  0  0  0  0  0  0  0  0  0
   11.4163  -11.5487   23.4775 C   0  0  0  0  0  0  0  0  0  0  0  0
   11.1854  -10.3754   24.1961 C   0  0  0  0  0  0  0  0  0  0  0  0
   11.9078   -9.2302   23.8795 C   0  0  0  0  0  0  0  0  0  0  0  0
   12.8368   -9.3035   22.8393 C   0  0  0  0  0  0  0  0  0  0  0  0
   12.3182  -11.5934   22.4832 N   0  0  0  0  0  0  0  0  0  0  0  0
   11.6315   -7.6935   24.8006 Cl  0  0  0  0  0  0  0  0  0  0  0  0
 14 16  2  0  0  0
 14 13  1  0  0  0
 16 18  1  0  0  0
 18 17  2  0  0  0
 17 15  1  0  0  0
 15 13  2  0  0  0
 13 12  1  0  0  0
 12  9  1  0  0  0
  9  1  1  0  0  0
  9  8  1  0  0  0
  1  3  1  0  0  0
  1  2  2  0  0  0
  4 19  1  0  0  0
  4  5  1  0  0  0
  4  3  1  0  0  0
 19 21  1  0  0  0
 19 20  2  0  0  0
 23 24  1  0  0  0
 23 21  1  0  0  0
 24 28  2  0  0  0
 24 29  1  0  0  0
  5  6  1  0  0  0
  6  7  1  0  0  0
  7  3  1  0  0  0
 25 26  1  0  0  0
 25 29  2  0  0  0
 26 27  2  0  0  0
 27 28  1  0  0  0
 27 30  1  0  0  0
  8 10  1  0  0  0
  8 11  1  0  0  0
 21 22  1  0  0  0
M  END
> <minimizedAffinity>
-8.48550

$$$$
3SHC_B01_H_3


 30 32  0  0  0  0  0  0  0  0999 V2000
   16.8486  -14.4852   22.1475 C   0  0  0  0  0  0  0  0  0  0  0  0
   16.2476  -13.4333   21.9640 O   0  0  0  0  0  0  0  0  0  0  0  0
   16.7352  -15.5245   21.3203 N   0  0  0  0  0  0  0  0  0  0  0  0
   15.8663  -15.4216   20.1437 C   0  0  0  0  0  0  0  0  0  0  0  0
   15.9003  -16.8150   19.5251 C   0  0  0  0  0  0  0  0  0  0  0  0
   16.5913  -17.7304   20.5224 C   0  0  0  0  0  0  0  0  0  0  0  0
   17.3951  -16.8254   21.4435 C   0  0  0  0  0  0  0  0  0  0  0  0
   17.0575  -14.1239   24.5176 N   0  0  0  0  0  0  0  0  0  0  0  0
   17.7429  -14.6463   23.3481 C   0  0  0  0  0  0  0  0  0  0  0  0
   17.6556  -14.2284   25.3372 H   0  0  0  0  0  0  0  0  0  0  0  0
   16.1897  -14.6401   24.6619 H   0  0  0  0  0  0  0  0  0  0  0  0
   19.0370  -13.8658   23.1423 C   0  0  0  0  0  0  0  0  0  0  0  0
   19.8793  -13.9431   24.3970 C   0  0  0  0  0  0  0  0  0  0  0  0
   20.3015  -15.1800   24.8840 C   0  0  0  0  0  0  0  0  0  0  0  0
   20.2201  -12.7753   25.0743 C   0  0  0  0  0  0  0  0  0  0  0  0
   21.0718  -15.2469   26.0437 C   0  0  0  0  0  0  0  0  0  0  0  0
   20.9895  -12.8414   26.2301 C   0  0  0  0  0  0  0  0  0  0  0  0
   21.4160  -14.0788   26.7127 C   0  0  0  0  0  0  0  0  0  0  0  0
   14.4604  -15.0648   20.5508 C   0  0  0  0  0  0  0  0  0  0  0  0
   13.8678  -15.7819   21.3424 O   0  0  0  0  0  0  0  0  0  0  0  0
   13.9113  -13.9553   20.0395 N   0  0  0  0  0  0  0  0  0  0  0  0
   14.4633  -13.4318   19.4145 H   0  0  0  0  0  0  0  0  0  0  0  0
   12.5668  -13.4474   20.3226 C   0  0  0  0  0  0  0  0  0  0  0  0
   12.6216  -12.1404   21.0894 C   0  0  0  0  0  0  0  0  0  0  0  0
   13.4442   -9.9519   21.2458 C   0  0  0  0  0  0  0  0  0  0  0  0
   12.7559   -9.7331   22.4395 C   0  0  0  0  0  0  0  0  0  0  0  0
   11.9706  -10.7514   22.9686 C   0  0  0  0  0  0  0  0  0  0  0  0
   11.9114  -11.9643   22.2789 C   0  0  0  0  0  0  0  0  0  0  0  0
   13.3678  -11.1273   20.6002 N   0  0  0  0  0  0  0  0  0  0  0  0
   11.0615  -10.4922   24.5154 Cl  0  0  0  0  0  0  0  0  0  0  0  0
 14 16  2  0  0  0
 14 13  1  0  0  0
 16 18  1  0  0  0
 18 17  2  0  0  0
 17 15  1  0  0  0
 15 13  2  0  0  0
 13 12  1  0  0  0
 12  9  1  0  0  0
  9  1  1  0  0  0
  9  8  1  0  0  0
  1  3  1  0  0  0
  1  2  2  0  0  0
  4 19  1  0  0  0
  4  5  1  0  0  0
  4  3  1  0  0  0
 19 21  1  0  0  0
 19 20  2  0  0  0
 23 24  1  0  0  0
 23 21  1  0  0  0
 24 28  2  0  0  0
 24 29  1  0  0  0
  5  6  1  0  0  0
  6  7  1  0  0  0
  7  3  1  0  0  0
 25 26  1  0  0  0
 25 29  2  0  0  0
 26 27  2  0  0  0
 27 28  1  0  0  0
 27 30  1  0  0  0
  8 10  1  0  0  0
  8 11  1  0  0  0
 21 22  1  0  0  0
M  END
> <minimizedAffinity>
-8.08221

$$$$
3SHC_B01_H_3


 30 32  0  0  0  0  0  0  0  0999 V2000
   16.7042  -15.7454   22.5130 C   0  0  0  0  0  0  0  0  0  0  0  0
   16.6951  -15.2820   21.3787 O   0  0  0  0  0  0  0  0  0  0  0  0
   16.1286  -16.9101   22.8118 N   0  0  0  0  0  0  0  0  0  0  0  0
   15.4581  -17.6776   21.7575 C   0  0  0  0  0  0  0  0  0  0  0  0
   14.8327  -18.8600   22.4896 C   0  0  0  0  0  0  0  0  0  0  0  0
   14.9595  -18.5821   23.9785 C   0  0  0  0  0  0  0  0  0  0  0  0
   16.0703  -17.5534   24.1254 C   0  0  0  0  0  0  0  0  0  0  0  0
   16.7979  -13.6554   23.7025 N   0  0  0  0  0  0  0  0  0  0  0  0
   17.3679  -14.9899   23.6337 C   0  0  0  0  0  0  0  0  0  0  0  0
   17.2412  -13.1349   24.4594 H   0  0  0  0  0  0  0  0  0  0  0  0
   15.7953  -13.7225   23.8777 H   0  0  0  0  0  0  0  0  0  0  0  0
   18.8657  -14.8761   23.3700 C   0  0  0  0  0  0  0  0  0  0  0  0
   19.5404  -14.2252   24.5578 C   0  0  0  0  0  0  0  0  0  0  0  0
   20.3344  -13.0923   24.3803 C   0  0  0  0  0  0  0  0  0  0  0  0
   19.3785  -14.7695   25.8292 C   0  0  0  0  0  0  0  0  0  0  0  0
   20.9591  -12.4998   25.4764 C   0  0  0  0  0  0  0  0  0  0  0  0
   20.0002  -14.1780   26.9228 C   0  0  0  0  0  0  0  0  0  0  0  0
   20.7893  -13.0416   26.7445 C   0  0  0  0  0  0  0  0  0  0  0  0
   14.3890  -16.8485   21.0947 C   0  0  0  0  0  0  0  0  0  0  0  0
   14.1834  -16.9850   19.8984 O   0  0  0  0  0  0  0  0  0  0  0  0
   13.6841  -15.9962   21.8500 N   0  0  0  0  0  0  0  0  0  0  0  0
   13.9111  -15.9558   22.8071 H   0  0  0  0  0  0  0  0  0  0  0  0
   12.6071  -15.1183   21.3861 C   0  0  0  0  0  0  0  0  0  0  0  0
   13.0161  -13.6599   21.4560 C   0  0  0  0  0  0  0  0  0  0  0  0
   14.5455  -11.9861   20.8643 C   0  0  0  0  0  0  0  0  0  0  0  0
   13.8099  -11.0145   21.5435 C   0  0  0  0  0  0  0  0  0  0  0  0
   12.6361  -11.3803   22.1933 C   0  0  0  0  0  0  0  0  0  0  0  0
   12.2455  -12.7202   22.1440 C   0  0  0  0  0  0  0  0  0  0  0  0
   14.1459  -13.2680   20.8295 N   0  0  0  0  0  0  0  0  0  0  0  0
   11.6582  -10.1371   23.0789 Cl  0  0  0  0  0  0  0  0  0  0  0  0
 14 16  2  0  0  0
 14 13  1  0  0  0
 16 18  1  0  0  0
 18 17  2  0  0  0
 17 15  1  0  0  0
 15 13  2  0  0  0
 13 12  1  0  0  0
 12  9  1  0  0  0
  9  1  1  0  0  0
  9  8  1  0  0  0
  1  3  1  0  0  0
  1  2  2  0  0  0
  4 19  1  0  0  0
  4  5  1  0  0  0
  4  3  1  0  0  0
 19 21  1  0  0  0
 19 20  2  0  0  0
 23 24  1  0  0  0
 23 21  1  0  0  0
 24 28  2  0  0  0
 24 29  1  0  0  0
  5  6  1  0  0  0
  6  7  1  0  0  0
  7  3  1  0  0  0
 25 26  1  0  0  0
 25 29  2  0  0  0
 26 27  2  0  0  0
 27 28  1  0  0  0
 27 30  1  0  0  0
  8 10  1  0  0  0
  8 11  1  0  0  0
 21 22  1  0  0  0
M  END
> <minimizedAffinity>
-7.93315

$$$$
3SHC_B01_H_3


 30 32  0  0  0  0  0  0  0  0999 V2000
   14.6335  -12.3940   21.0376 C   0  0  0  0  0  0  0  0  0  0  0  0
   15.4475  -11.8138   21.7461 O   0  0  0  0  0  0  0  0  0  0  0  0
   14.6243  -13.7201   20.9016 N   0  0  0  0  0  0  0  0  0  0  0  0
   15.6152  -14.5282   21.6193 C   0  0  0  0  0  0  0  0  0  0  0  0
   15.3701  -15.9512   21.1290 C   0  0  0  0  0  0  0  0  0  0  0  0
   14.4099  -15.8602   19.9543 C   0  0  0  0  0  0  0  0  0  0  0  0
   13.7098  -14.5159   20.0811 C   0  0  0  0  0  0  0  0  0  0  0  0
   14.0779  -11.4174   18.9095 N   0  0  0  0  0  0  0  0  0  0  0  0
   13.6037  -11.6089   20.2692 C   0  0  0  0  0  0  0  0  0  0  0  0
   13.3867  -10.8860   18.3800 H   0  0  0  0  0  0  0  0  0  0  0  0
   14.2197  -12.3257   18.4677 H   0  0  0  0  0  0  0  0  0  0  0  0
   13.3971  -10.2447   20.9190 C   0  0  0  0  0  0  0  0  0  0  0  0
   12.5479  -10.3997   22.1618 C   0  0  0  0  0  0  0  0  0  0  0  0
   11.8689  -11.5938   22.4036 C   0  0  0  0  0  0  0  0  0  0  0  0
   12.4336   -9.3403   23.0580 C   0  0  0  0  0  0  0  0  0  0  0  0
   11.0828  -11.7300   23.5465 C   0  0  0  0  0  0  0  0  0  0  0  0
   11.6508   -9.4761   24.1986 C   0  0  0  0  0  0  0  0  0  0  0  0
   10.9770  -10.6731   24.4421 C   0  0  0  0  0  0  0  0  0  0  0  0
   17.0132  -14.0886   21.2700 C   0  0  0  0  0  0  0  0  0  0  0  0
   17.3298  -13.9829   20.0950 O   0  0  0  0  0  0  0  0  0  0  0  0
   17.8617  -13.8102   22.2683 N   0  0  0  0  0  0  0  0  0  0  0  0
   17.5204  -13.9150   23.1858 H   0  0  0  0  0  0  0  0  0  0  0  0
   19.2496  -13.3647   22.1235 C   0  0  0  0  0  0  0  0  0  0  0  0
   20.1083  -13.8541   23.2733 C   0  0  0  0  0  0  0  0  0  0  0  0
   21.7342  -15.3503   24.0532 C   0  0  0  0  0  0  0  0  0  0  0  0
   21.7024  -14.7864   25.3290 C   0  0  0  0  0  0  0  0  0  0  0  0
   20.8492  -13.7173   25.5792 C   0  0  0  0  0  0  0  0  0  0  0  0
   20.0469  -13.2555   24.5335 C   0  0  0  0  0  0  0  0  0  0  0  0
   20.9542  -14.8851   23.0637 N   0  0  0  0  0  0  0  0  0  0  0  0
   20.7916  -12.9623   27.2263 Cl  0  0  0  0  0  0  0  0  0  0  0  0
 14 16  2  0  0  0
 14 13  1  0  0  0
 16 18  1  0  0  0
 18 17  2  0  0  0
 17 15  1  0  0  0
 15 13  2  0  0  0
 13 12  1  0  0  0
 12  9  1  0  0  0
  9  1  1  0  0  0
  9  8  1  0  0  0
  1  3  1  0  0  0
  1  2  2  0  0  0
  4 19  1  0  0  0
  4  5  1  0  0  0
  4  3  1  0  0  0
 19 21  1  0  0  0
 19 20  2  0  0  0
 23 24  1  0  0  0
 23 21  1  0  0  0
 24 28  2  0  0  0
 24 29  1  0  0  0
  5  6  1  0  0  0
  6  7  1  0  0  0
  7  3  1  0  0  0
 25 26  1  0  0  0
 25 29  2  0  0  0
 26 27  2  0  0  0
 27 28  1  0  0  0
 27 30  1  0  0  0
  8 10  1  0  0  0
  8 11  1  0  0  0
 21 22  1  0  0  0
M  END
> <minimizedAffinity>
-7.75214

$$$$
3SHC_B01_H_3


 30 32  0  0  0  0  0  0  0  0999 V2000
   17.2574  -13.6083   22.4328 C   0  0  0  0  0  0  0  0  0  0  0  0
   16.1818  -13.0264   22.5099 O   0  0  0  0  0  0  0  0  0  0  0  0
   18.2465  -13.1772   21.6498 N   0  0  0  0  0  0  0  0  0  0  0  0
   18.0580  -11.9647   20.8470 C   0  0  0  0  0  0  0  0  0  0  0  0
   19.3299  -11.8622   20.0120 C   0  0  0  0  0  0  0  0  0  0  0  0
   20.0879  -13.1676   20.1895 C   0  0  0  0  0  0  0  0  0  0  0  0
   19.5630  -13.7924   21.4731 C   0  0  0  0  0  0  0  0  0  0  0  0
   16.3847  -15.7752   23.0110 N   0  0  0  0  0  0  0  0  0  0  0  0
   17.4964  -14.8651   23.2268 C   0  0  0  0  0  0  0  0  0  0  0  0
   16.5371  -16.6307   23.5451 H   0  0  0  0  0  0  0  0  0  0  0  0
   16.3181  -16.0013   22.0186 H   0  0  0  0  0  0  0  0  0  0  0  0
   17.5845  -14.5338   24.7129 C   0  0  0  0  0  0  0  0  0  0  0  0
   19.0301  -14.5842   25.1574 C   0  0  0  0  0  0  0  0  0  0  0  0
   19.5941  -15.7890   25.5765 C   0  0  0  0  0  0  0  0  0  0  0  0
   19.7934  -13.4197   25.1615 C   0  0  0  0  0  0  0  0  0  0  0  0
   20.9242  -15.8295   25.9912 C   0  0  0  0  0  0  0  0  0  0  0  0
   21.1204  -13.4599   25.5736 C   0  0  0  0  0  0  0  0  0  0  0  0
   21.6848  -14.6668   25.9868 C   0  0  0  0  0  0  0  0  0  0  0  0
   16.8545  -12.1021   19.9514 C   0  0  0  0  0  0  0  0  0  0  0  0
   16.0851  -11.1603   19.8363 O   0  0  0  0  0  0  0  0  0  0  0  0
   16.6780  -13.2556   19.2939 N   0  0  0  0  0  0  0  0  0  0  0  0
   17.3512  -13.9592   19.4392 H   0  0  0  0  0  0  0  0  0  0  0  0
   15.5777  -13.5689   18.3790 C   0  0  0  0  0  0  0  0  0  0  0  0
   14.4451  -14.2734   19.1001 C   0  0  0  0  0  0  0  0  0  0  0  0
   12.3932  -14.1212   20.2213 C   0  0  0  0  0  0  0  0  0  0  0  0
   12.3498  -15.5018   20.4181 C   0  0  0  0  0  0  0  0  0  0  0  0
   13.3866  -16.2912   19.9327 C   0  0  0  0  0  0  0  0  0  0  0  0
   14.4411  -15.6596   19.2698 C   0  0  0  0  0  0  0  0  0  0  0  0
   13.4179  -13.5388   19.5773 N   0  0  0  0  0  0  0  0  0  0  0  0
   13.3530  -18.0880   20.1698 Cl  0  0  0  0  0  0  0  0  0  0  0  0
 14 16  2  0  0  0
 14 13  1  0  0  0
 16 18  1  0  0  0
 18 17  2  0  0  0
 17 15  1  0  0  0
 15 13  2  0  0  0
 13 12  1  0  0  0
 12  9  1  0  0  0
  9  1  1  0  0  0
  9  8  1  0  0  0
  1  3  1  0  0  0
  1  2  2  0  0  0
  4 19  1  0  0  0
  4  5  1  0  0  0
  4  3  1  0  0  0
 19 21  1  0  0  0
 19 20  2  0  0  0
 23 24  1  0  0  0
 23 21  1  0  0  0
 24 28  2  0  0  0
 24 29  1  0  0  0
  5  6  1  0  0  0
  6  7  1  0  0  0
  7  3  1  0  0  0
 25 26  1  0  0  0
 25 29  2  0  0  0
 26 27  2  0  0  0
 27 28  1  0  0  0
 27 30  1  0  0  0
  8 10  1  0  0  0
  8 11  1  0  0  0
 21 22  1  0  0  0
M  END
> <minimizedAffinity>
-7.53941

$$$$
3SHC_B01_H_3


 30 32  0  0  0  0  0  0  0  0999 V2000
   17.3824  -15.7921   22.1282 C   0  0  0  0  0  0  0  0  0  0  0  0
   17.8982  -15.6546   21.0253 O   0  0  0  0  0  0  0  0  0  0  0  0
   16.7299  -16.9012   22.4765 N   0  0  0  0  0  0  0  0  0  0  0  0
   16.6173  -18.0058   21.5188 C   0  0  0  0  0  0  0  0  0  0  0  0
   15.7209  -19.0226   22.2173 C   0  0  0  0  0  0  0  0  0  0  0  0
   15.1491  -18.3421   23.4502 C   0  0  0  0  0  0  0  0  0  0  0  0
   16.0711  -17.1716   23.7555 C   0  0  0  0  0  0  0  0  0  0  0  0
   16.3925  -13.7310   22.8786 N   0  0  0  0  0  0  0  0  0  0  0  0
   17.4583  -14.6821   23.1427 C   0  0  0  0  0  0  0  0  0  0  0  0
   16.4352  -12.9743   23.5612 H   0  0  0  0  0  0  0  0  0  0  0  0
   15.4907  -14.2024   22.9495 H   0  0  0  0  0  0  0  0  0  0  0  0
   18.8004  -13.9661   23.0323 C   0  0  0  0  0  0  0  0  0  0  0  0
   19.4141  -13.8269   24.4084 C   0  0  0  0  0  0  0  0  0  0  0  0
   20.3802  -12.8504   24.6507 C   0  0  0  0  0  0  0  0  0  0  0  0
   19.0225  -14.6873   25.4307 C   0  0  0  0  0  0  0  0  0  0  0  0
   20.9475  -12.7300   25.9181 C   0  0  0  0  0  0  0  0  0  0  0  0
   19.5869  -14.5666   26.6952 C   0  0  0  0  0  0  0  0  0  0  0  0
   20.5487  -13.5856   26.9376 C   0  0  0  0  0  0  0  0  0  0  0  0
   15.9763  -17.5362   20.2388 C   0  0  0  0  0  0  0  0  0  0  0  0
   16.4128  -17.9366   19.1705 O   0  0  0  0  0  0  0  0  0  0  0  0
   14.9308  -16.7027   20.3184 N   0  0  0  0  0  0  0  0  0  0  0  0
   14.6401  -16.4370   21.2207 H   0  0  0  0  0  0  0  0  0  0  0  0
   14.1793  -16.1494   19.1893 C   0  0  0  0  0  0  0  0  0  0  0  0
   14.8475  -14.9040   18.6399 C   0  0  0  0  0  0  0  0  0  0  0  0
   15.4266  -13.6079   16.7758 C   0  0  0  0  0  0  0  0  0  0  0  0
   16.0446  -12.6501   17.5803 C   0  0  0  0  0  0  0  0  0  0  0  0
   16.0565  -12.8254   18.9598 C   0  0  0  0  0  0  0  0  0  0  0  0
   15.4501  -13.9690   19.4841 C   0  0  0  0  0  0  0  0  0  0  0  0
   14.8475  -14.6977   17.3058 N   0  0  0  0  0  0  0  0  0  0  0  0
   16.8480  -11.5940   20.0290 Cl  0  0  0  0  0  0  0  0  0  0  0  0
 14 16  2  0  0  0
 14 13  1  0  0  0
 16 18  1  0  0  0
 18 17  2  0  0  0
 17 15  1  0  0  0
 15 13  2  0  0  0
 13 12  1  0  0  0
 12  9  1  0  0  0
  9  1  1  0  0  0
  9  8  1  0  0  0
  1  3  1  0  0  0
  1  2  2  0  0  0
  4 19  1  0  0  0
  4  5  1  0  0  0
  4  3  1  0  0  0
 19 21  1  0  0  0
 19 20  2  0  0  0
 23 24  1  0  0  0
 23 21  1  0  0  0
 24 28  2  0  0  0
 24 29  1  0  0  0
  5  6  1  0  0  0
  6  7  1  0  0  0
  7  3  1  0  0  0
 25 26  1  0  0  0
 25 29  2  0  0  0
 26 27  2  0  0  0
 27 28  1  0  0  0
 27 30  1  0  0  0
  8 10  1  0  0  0
  8 11  1  0  0  0
 21 22  1  0  0  0
M  END
> <minimizedAffinity>
-7.41372

$$$$
3SHC_B01_H_3


 30 32  0  0  0  0  0  0  0  0999 V2000
   17.2186  -14.7523   22.1733 C   0  0  0  0  0  0  0  0  0  0  0  0
   16.3721  -15.6321   22.2763 O   0  0  0  0  0  0  0  0  0  0  0  0
   16.9323  -13.5398   21.6989 N   0  0  0  0  0  0  0  0  0  0  0  0
   15.5607  -13.2307   21.2827 C   0  0  0  0  0  0  0  0  0  0  0  0
   15.6501  -11.8252   20.6981 C   0  0  0  0  0  0  0  0  0  0  0  0
   17.1264  -11.4858   20.5734 C   0  0  0  0  0  0  0  0  0  0  0  0
   17.8588  -12.4200   21.5244 C   0  0  0  0  0  0  0  0  0  0  0  0
   19.2005  -16.0264   21.6827 N   0  0  0  0  0  0  0  0  0  0  0  0
   18.6444  -15.0233   22.5744 C   0  0  0  0  0  0  0  0  0  0  0  0
   20.1671  -16.2173   21.9464 H   0  0  0  0  0  0  0  0  0  0  0  0
   19.1715  -15.6818   20.7231 H   0  0  0  0  0  0  0  0  0  0  0  0
   18.6920  -15.5506   24.0048 C   0  0  0  0  0  0  0  0  0  0  0  0
   19.4558  -14.5783   24.8771 C   0  0  0  0  0  0  0  0  0  0  0  0
   19.5293  -14.7799   26.2553 C   0  0  0  0  0  0  0  0  0  0  0  0
   20.0740  -13.4712   24.3017 C   0  0  0  0  0  0  0  0  0  0  0  0
   20.2286  -13.8782   27.0557 C   0  0  0  0  0  0  0  0  0  0  0  0
   20.7727  -12.5725   25.0994 C   0  0  0  0  0  0  0  0  0  0  0  0
   20.8503  -12.7787   26.4769 C   0  0  0  0  0  0  0  0  0  0  0  0
   15.0916  -14.2043   20.2331 C   0  0  0  0  0  0  0  0  0  0  0  0
   15.7524  -14.3504   19.2162 O   0  0  0  0  0  0  0  0  0  0  0  0
   13.9663  -14.8939   20.4613 N   0  0  0  0  0  0  0  0  0  0  0  0
   13.5009  -14.7193   21.3111 H   0  0  0  0  0  0  0  0  0  0  0  0
   13.3628  -15.8834   19.5655 C   0  0  0  0  0  0  0  0  0  0  0  0
   13.0275  -17.1641   20.3049 C   0  0  0  0  0  0  0  0  0  0  0  0
   11.6870  -19.0786   20.4725 C   0  0  0  0  0  0  0  0  0  0  0  0
   12.3735  -19.5119   21.6072 C   0  0  0  0  0  0  0  0  0  0  0  0
   13.4250  -18.7469   22.0997 C   0  0  0  0  0  0  0  0  0  0  0  0
   13.7457  -17.5614   21.4347 C   0  0  0  0  0  0  0  0  0  0  0  0
   12.0176  -17.9356   19.8495 N   0  0  0  0  0  0  0  0  0  0  0  0
   14.3374  -19.2891   23.5693 Cl  0  0  0  0  0  0  0  0  0  0  0  0
 14 16  2  0  0  0
 14 13  1  0  0  0
 16 18  1  0  0  0
 18 17  2  0  0  0
 17 15  1  0  0  0
 15 13  2  0  0  0
 13 12  1  0  0  0
 12  9  1  0  0  0
  9  1  1  0  0  0
  9  8  1  0  0  0
  1  3  1  0  0  0
  1  2  2  0  0  0
  4 19  1  0  0  0
  4  5  1  0  0  0
  4  3  1  0  0  0
 19 21  1  0  0  0
 19 20  2  0  0  0
 23 24  1  0  0  0
 23 21  1  0  0  0
 24 28  2  0  0  0
 24 29  1  0  0  0
  5  6  1  0  0  0
  6  7  1  0  0  0
  7  3  1  0  0  0
 25 26  1  0  0  0
 25 29  2  0  0  0
 26 27  2  0  0  0
 27 28  1  0  0  0
 27 30  1  0  0  0
  8 10  1  0  0  0
  8 11  1  0  0  0
 21 22  1  0  0  0
M  END
> <minimizedAffinity>
-7.07808

$$$$
3SHC_B01_H_3


 30 32  0  0  0  0  0  0  0  0999 V2000
   17.8741  -14.7950   21.4930 C   0  0  0  0  0  0  0  0  0  0  0  0
   17.8009  -15.9788   21.1852 O   0  0  0  0  0  0  0  0  0  0  0  0
   16.8160  -13.9846   21.4652 N   0  0  0  0  0  0  0  0  0  0  0  0
   15.5107  -14.5123   21.0557 C   0  0  0  0  0  0  0  0  0  0  0  0
   14.5986  -13.2905   21.0331 C   0  0  0  0  0  0  0  0  0  0  0  0
   15.4866  -12.0665   21.1871 C   0  0  0  0  0  0  0  0  0  0  0  0
   16.7874  -12.5602   21.8018 C   0  0  0  0  0  0  0  0  0  0  0  0
   20.0212  -14.0242   20.7266 N   0  0  0  0  0  0  0  0  0  0  0  0
   19.1942  -14.2013   21.9078 C   0  0  0  0  0  0  0  0  0  0  0  0
   20.9187  -13.6221   20.9971 H   0  0  0  0  0  0  0  0  0  0  0  0
   19.5511  -13.3978   20.0732 H   0  0  0  0  0  0  0  0  0  0  0  0
   19.9067  -15.1402   22.8756 C   0  0  0  0  0  0  0  0  0  0  0  0
   20.1546  -14.4238   24.1852 C   0  0  0  0  0  0  0  0  0  0  0  0
   20.8656  -13.2240   24.2054 C   0  0  0  0  0  0  0  0  0  0  0  0
   19.6833  -14.9736   25.3745 C   0  0  0  0  0  0  0  0  0  0  0  0
   21.0971  -12.5708   25.4148 C   0  0  0  0  0  0  0  0  0  0  0  0
   19.9126  -14.3218   26.5806 C   0  0  0  0  0  0  0  0  0  0  0  0
   20.6188  -13.1188   26.5986 C   0  0  0  0  0  0  0  0  0  0  0  0
   15.5932  -15.1283   19.6834 C   0  0  0  0  0  0  0  0  0  0  0  0
   15.8177  -14.4119   18.7198 O   0  0  0  0  0  0  0  0  0  0  0  0
   15.4332  -16.4532   19.5691 N   0  0  0  0  0  0  0  0  0  0  0  0
   15.2635  -16.9551   20.3989 H   0  0  0  0  0  0  0  0  0  0  0  0
   15.4868  -17.2257   18.3257 C   0  0  0  0  0  0  0  0  0  0  0  0
   14.0953  -17.5391   17.8111 C   0  0  0  0  0  0  0  0  0  0  0  0
   12.7508  -18.6260   16.2295 C   0  0  0  0  0  0  0  0  0  0  0  0
   11.5851  -18.1493   16.8300 C   0  0  0  0  0  0  0  0  0  0  0  0
   11.6818  -17.3471   17.9617 C   0  0  0  0  0  0  0  0  0  0  0  0
   12.9554  -17.0437   18.4478 C   0  0  0  0  0  0  0  0  0  0  0  0
   13.9640  -18.3219   16.7191 N   0  0  0  0  0  0  0  0  0  0  0  0
   10.1832  -16.7184   18.7649 Cl  0  0  0  0  0  0  0  0  0  0  0  0
 14 16  2  0  0  0
 14 13  1  0  0  0
 16 18  1  0  0  0
 18 17  2  0  0  0
 17 15  1  0  0  0
 15 13  2  0  0  0
 13 12  1  0  0  0
 12  9  1  0  0  0
  9  1  1  0  0  0
  9  8  1  0  0  0
  1  3  1  0  0  0
  1  2  2  0  0  0
  4 19  1  0  0  0
  4  5  1  0  0  0
  4  3  1  0  0  0
 19 21  1  0  0  0
 19 20  2  0  0  0
 23 24  1  0  0  0
 23 21  1  0  0  0
 24 28  2  0  0  0
 24 29  1  0  0  0
  5  6  1  0  0  0
  6  7  1  0  0  0
  7  3  1  0  0  0
 25 26  1  0  0  0
 25 29  2  0  0  0
 26 27  2  0  0  0
 27 28  1  0  0  0
 27 30  1  0  0  0
  8 10  1  0  0  0
  8 11  1  0  0  0
 21 22  1  0  0  0
M  END
> <minimizedAffinity>
-6.84746

$$$$
3SHC_B01_H_3


 30 32  0  0  0  0  0  0  0  0999 V2000
   15.8495  -14.0009   21.0086 C   0  0  0  0  0  0  0  0  0  0  0  0
   15.5602  -15.1264   21.3969 O   0  0  0  0  0  0  0  0  0  0  0  0
   17.1038  -13.6419   20.7346 N   0  0  0  0  0  0  0  0  0  0  0  0
   18.1873  -14.6164   20.8966 C   0  0  0  0  0  0  0  0  0  0  0  0
   19.4572  -13.8212   20.6128 C   0  0  0  0  0  0  0  0  0  0  0  0
   19.0615  -12.3552   20.5470 C   0  0  0  0  0  0  0  0  0  0  0  0
   17.5652  -12.3309   20.2750 C   0  0  0  0  0  0  0  0  0  0  0  0
   14.0446  -12.8307   22.0878 N   0  0  0  0  0  0  0  0  0  0  0  0
   14.7752  -12.9596   20.8387 C   0  0  0  0  0  0  0  0  0  0  0  0
   13.3138  -12.1269   21.9831 H   0  0  0  0  0  0  0  0  0  0  0  0
   14.6857  -12.5476   22.8290 H   0  0  0  0  0  0  0  0  0  0  0  0
   13.8069  -13.3844   19.7397 C   0  0  0  0  0  0  0  0  0  0  0  0
   14.4599  -13.1921   18.3882 C   0  0  0  0  0  0  0  0  0  0  0  0
   14.9043  -14.2955   17.6599 C   0  0  0  0  0  0  0  0  0  0  0  0
   14.6300  -11.9075   17.8787 C   0  0  0  0  0  0  0  0  0  0  0  0
   15.5110  -14.1133   16.4183 C   0  0  0  0  0  0  0  0  0  0  0  0
   15.2337  -11.7254   16.6399 C   0  0  0  0  0  0  0  0  0  0  0  0
   15.6724  -12.8303   15.9100 C   0  0  0  0  0  0  0  0  0  0  0  0
   18.2116  -15.1552   22.3033 C   0  0  0  0  0  0  0  0  0  0  0  0
   18.4539  -16.3384   22.4854 O   0  0  0  0  0  0  0  0  0  0  0  0
   17.9817  -14.3072   23.3143 N   0  0  0  0  0  0  0  0  0  0  0  0
   17.8025  -13.3687   23.0771 H   0  0  0  0  0  0  0  0  0  0  0  0
   17.9715  -14.6449   24.7397 C   0  0  0  0  0  0  0  0  0  0  0  0
   19.3622  -14.5547   25.3373 C   0  0  0  0  0  0  0  0  0  0  0  0
   21.0489  -13.2251   26.2740 C   0  0  0  0  0  0  0  0  0  0  0  0
   21.8864  -14.3287   26.4387 C   0  0  0  0  0  0  0  0  0  0  0  0
   21.4410  -15.5857   26.0446 C   0  0  0  0  0  0  0  0  0  0  0  0
   20.1644  -15.6879   25.4876 C   0  0  0  0  0  0  0  0  0  0  0  0
   19.8237  -13.3511   25.7383 N   0  0  0  0  0  0  0  0  0  0  0  0
   22.5067  -17.0374   26.2520 Cl  0  0  0  0  0  0  0  0  0  0  0  0
 14 16  2  0  0  0
 14 13  1  0  0  0
 16 18  1  0  0  0
 18 17  2  0  0  0
 17 15  1  0  0  0
 15 13  2  0  0  0
 13 12  1  0  0  0
 12  9  1  0  0  0
  9  1  1  0  0  0
  9  8  1  0  0  0
  1  3  1  0  0  0
  1  2  2  0  0  0
  4 19  1  0  0  0
  4  5  1  0  0  0
  4  3  1  0  0  0
 19 21  1  0  0  0
 19 20  2  0  0  0
 23 24  1  0  0  0
 23 21  1  0  0  0
 24 28  2  0  0  0
 24 29  1  0  0  0
  5  6  1  0  0  0
  6  7  1  0  0  0
  7  3  1  0  0  0
 25 26  1  0  0  0
 25 29  2  0  0  0
 26 27  2  0  0  0
 27 28  1  0  0  0
 27 30  1  0  0  0
  8 10  1  0  0  0
  8 11  1  0  0  0
 21 22  1  0  0  0
M  END
> <minimizedAffinity>
-6.81193

$$$$
