5LWD_79E_E_411


 38 38  0  0  0  0  0  0  0  0999 V2000
   10.4215   38.5197   -3.6891 C   0  0  0  0  0  0  0  0  0  0  0  0
    9.0564   39.1398   -3.9657 C   0  0  0  0  0  0  0  0  0  0  0  0
    8.9631   40.4534   -3.7640 N   0  0  0  0  0  0  0  0  0  0  0  0
    8.1080   38.4198   -4.2814 O   0  0  0  0  0  0  0  0  0  0  0  0
    9.7905   40.9477   -3.5633 H   0  0  0  0  0  0  0  0  0  0  0  0
    7.7130   41.2091   -3.8209 C   0  0  0  0  0  0  0  0  0  0  0  0
    6.9552   43.1753   -4.9501 O   0  0  0  0  0  0  0  0  0  0  0  0
    9.0145   42.3937   -5.4924 N   0  0  0  0  0  0  0  0  0  0  0  0
    7.8835   42.3720   -4.7905 C   0  0  0  0  0  0  0  0  0  0  0  0
    9.1812   43.1208   -6.1349 H   0  0  0  0  0  0  0  0  0  0  0  0
    9.6842   41.6828   -5.3688 H   0  0  0  0  0  0  0  0  0  0  0  0
    7.4922   42.0523   -2.5559 C   0  0  0  0  0  0  0  0  0  0  0  0
    8.6181   42.8376   -1.9778 C   0  0  0  0  0  0  0  0  0  0  0  0
    8.0584   44.0783   -1.3891 C   0  0  0  0  0  0  0  0  0  0  0  0
    9.2743   42.0269   -0.8693 C   0  0  0  0  0  0  0  0  0  0  0  0
   11.4479   39.0517   -4.5914 N   0  0  0  0  0  0  0  0  0  0  0  0
   11.7194   39.9550   -4.2033 H   0  0  0  0  0  0  0  0  0  0  0  0
   11.1993   39.3084   -6.1975 P   0  0  0  0  0  0  0  0  0  0  0  0
   11.0889   40.7668   -6.4092 O   0  0  0  0  0  0  0  0  0  0  0  0
    9.9950   38.5500   -6.7457 O   0  0  0  0  0  0  0  0  0  0  0  0
    9.8977   38.7385   -7.6922 H   0  0  0  0  0  0  0  0  0  0  0  0
   12.6992   38.6722   -6.9450 C   0  0  0  0  0  0  0  0  0  0  0  0
   14.5931   37.4814   -8.5510 O   0  0  0  0  0  0  0  0  0  0  0  0
   12.5578   38.4418   -8.3776 N   0  0  0  0  0  0  0  0  0  0  0  0
   13.5539   37.8378   -9.0435 C   0  0  0  0  0  0  0  0  0  0  0  0
   11.7422   38.7257   -8.8503 H   0  0  0  0  0  0  0  0  0  0  0  0
   13.2452   37.6757  -10.3389 O   0  0  0  0  0  0  0  0  0  0  0  0
   13.7837   38.6841  -11.2755 C   0  0  0  0  0  0  0  0  0  0  0  0
   13.8319   37.8779  -12.5469 C   0  0  0  0  0  0  0  0  0  0  0  0
   13.4219   36.5535  -12.5429 C   0  0  0  0  0  0  0  0  0  0  0  0
   14.2670   38.4328  -13.7464 C   0  0  0  0  0  0  0  0  0  0  0  0
   14.3047   37.6767  -14.9058 C   0  0  0  0  0  0  0  0  0  0  0  0
   13.9130   36.3463  -14.8827 C   0  0  0  0  0  0  0  0  0  0  0  0
   13.4718   35.7887  -13.7001 C   0  0  0  0  0  0  0  0  0  0  0  0
   10.8403   38.7695   -2.2429 C   0  0  0  0  0  0  0  0  0  0  0  0
    9.9177   38.2249   -1.1605 C   0  0  0  0  0  0  0  0  0  0  0  0
   10.3494   38.7226    0.2024 C   0  0  0  0  0  0  0  0  0  0  0  0
    9.8311   36.6953   -1.2122 C   0  0  0  0  0  0  0  0  0  0  0  0
 34 30  2  0  0  0
 34 33  1  0  0  0
 30 29  1  0  0  0
 33 32  2  0  0  0
 29 28  1  0  0  0
 29 31  2  0  0  0
 32 31  1  0  0  0
 28 27  1  0  0  0
 27 25  1  0  0  0
 25 23  2  0  0  0
 25 24  1  0  0  0
 24 22  1  0  0  0
 22 18  1  0  0  0
 19 18  2  0  0  0
 20 18  1  0  0  0
  8  9  1  0  0  0
 18 16  1  0  0  0
  7  9  2  0  0  0
  9  6  1  0  0  0
 16  1  1  0  0  0
  6  3  1  0  0  0
  6 12  1  0  0  0
  3  2  1  0  0  0
  2  4  2  0  0  0
  2  1  1  0  0  0
  1 35  1  0  0  0
 12 13  1  0  0  0
 35 36  1  0  0  0
 13 15  1  0  0  0
 13 14  1  0  0  0
 38 36  1  0  0  0
 36 37  1  0  0  0
 16 17  1  0  0  0
 24 26  1  0  0  0
  8 10  1  0  0  0
  8 11  1  0  0  0
  3  5  1  0  0  0
 20 21  1  0  0  0
M  END
> <minimizedAffinity>
-8.99389

$$$$
5LWD_79E_E_411


 38 38  0  0  0  0  0  0  0  0999 V2000
   10.0054   38.8448   -2.7591 C   0  0  0  0  0  0  0  0  0  0  0  0
    8.8972   39.8540   -3.0385 C   0  0  0  0  0  0  0  0  0  0  0  0
    9.1827   41.1241   -2.7554 N   0  0  0  0  0  0  0  0  0  0  0  0
    7.7963   39.4636   -3.4301 O   0  0  0  0  0  0  0  0  0  0  0  0
   10.1076   41.3409   -2.4970 H   0  0  0  0  0  0  0  0  0  0  0  0
    8.2132   42.2171   -2.8034 C   0  0  0  0  0  0  0  0  0  0  0  0
    8.7016   44.1487   -4.1247 O   0  0  0  0  0  0  0  0  0  0  0  0
    8.0339   42.2796   -5.2230 N   0  0  0  0  0  0  0  0  0  0  0  0
    8.3684   42.9563   -4.1266 C   0  0  0  0  0  0  0  0  0  0  0  0
    8.1130   42.7049   -6.1074 H   0  0  0  0  0  0  0  0  0  0  0  0
    7.7074   41.3537   -5.1496 H   0  0  0  0  0  0  0  0  0  0  0  0
    8.6163   43.3844   -1.8896 C   0  0  0  0  0  0  0  0  0  0  0  0
    7.6240   43.9680   -0.9444 C   0  0  0  0  0  0  0  0  0  0  0  0
    8.0999   45.3170   -0.5535 C   0  0  0  0  0  0  0  0  0  0  0  0
    6.2848   44.1118   -1.6533 C   0  0  0  0  0  0  0  0  0  0  0  0
   11.0325   38.8687   -3.8056 N   0  0  0  0  0  0  0  0  0  0  0  0
   11.6267   39.6705   -3.5949 H   0  0  0  0  0  0  0  0  0  0  0  0
   10.6892   38.9727   -5.4114 P   0  0  0  0  0  0  0  0  0  0  0  0
   10.5537   40.4044   -5.7517 O   0  0  0  0  0  0  0  0  0  0  0  0
    9.4623   38.1619   -5.8152 O   0  0  0  0  0  0  0  0  0  0  0  0
    9.3088   38.2604   -6.7679 H   0  0  0  0  0  0  0  0  0  0  0  0
   12.1493   38.2745   -6.1824 C   0  0  0  0  0  0  0  0  0  0  0  0
   12.4429   38.2486   -8.9204 O   0  0  0  0  0  0  0  0  0  0  0  0
   12.9006   39.2573   -6.9537 N   0  0  0  0  0  0  0  0  0  0  0  0
   12.9550   39.1365   -8.2889 C   0  0  0  0  0  0  0  0  0  0  0  0
   13.3620   39.9998   -6.5009 H   0  0  0  0  0  0  0  0  0  0  0  0
   13.6557   40.1391   -8.8401 O   0  0  0  0  0  0  0  0  0  0  0  0
   13.0095   40.8574   -9.9583 C   0  0  0  0  0  0  0  0  0  0  0  0
   12.4541   42.0534   -9.2303 C   0  0  0  0  0  0  0  0  0  0  0  0
   11.0947   42.1361   -8.9709 C   0  0  0  0  0  0  0  0  0  0  0  0
   13.2763   43.0858   -8.7900 C   0  0  0  0  0  0  0  0  0  0  0  0
   12.7485   44.1779   -8.1221 C   0  0  0  0  0  0  0  0  0  0  0  0
   11.3835   44.2587   -7.8892 C   0  0  0  0  0  0  0  0  0  0  0  0
   10.5603   43.2361   -8.3142 C   0  0  0  0  0  0  0  0  0  0  0  0
   10.6548   39.1232   -1.4063 C   0  0  0  0  0  0  0  0  0  0  0  0
   10.3067   38.1687   -0.2718 C   0  0  0  0  0  0  0  0  0  0  0  0
    9.5789   36.9540   -0.8068 C   0  0  0  0  0  0  0  0  0  0  0  0
    9.5116   38.8740    0.8330 C   0  0  0  0  0  0  0  0  0  0  0  0
 34 30  2  0  0  0
 34 33  1  0  0  0
 30 29  1  0  0  0
 33 32  2  0  0  0
 29 28  1  0  0  0
 29 31  2  0  0  0
 32 31  1  0  0  0
 28 27  1  0  0  0
 27 25  1  0  0  0
 25 23  2  0  0  0
 25 24  1  0  0  0
 24 22  1  0  0  0
 22 18  1  0  0  0
 19 18  2  0  0  0
 20 18  1  0  0  0
  8  9  1  0  0  0
 18 16  1  0  0  0
  7  9  2  0  0  0
  9  6  1  0  0  0
 16  1  1  0  0  0
  6  3  1  0  0  0
  6 12  1  0  0  0
  3  2  1  0  0  0
  2  4  2  0  0  0
  2  1  1  0  0  0
  1 35  1  0  0  0
 12 13  1  0  0  0
 35 36  1  0  0  0
 13 15  1  0  0  0
 13 14  1  0  0  0
 38 36  1  0  0  0
 36 37  1  0  0  0
 16 17  1  0  0  0
 24 26  1  0  0  0
  8 10  1  0  0  0
  8 11  1  0  0  0
  3  5  1  0  0  0
 20 21  1  0  0  0
M  END
> <minimizedAffinity>
-7.96531

$$$$
5LWD_79E_E_411


 38 38  0  0  0  0  0  0  0  0999 V2000
   13.4154   42.0839   -9.6899 C   0  0  0  0  0  0  0  0  0  0  0  0
   13.4370   41.0993  -10.8538 C   0  0  0  0  0  0  0  0  0  0  0  0
   13.5355   39.8122  -10.5246 N   0  0  0  0  0  0  0  0  0  0  0  0
   13.4376   41.5186  -12.0122 O   0  0  0  0  0  0  0  0  0  0  0  0
   13.4751   39.5756   -9.5708 H   0  0  0  0  0  0  0  0  0  0  0  0
   13.7273   38.7279  -11.4861 C   0  0  0  0  0  0  0  0  0  0  0  0
   14.1747   37.2905   -9.6290 O   0  0  0  0  0  0  0  0  0  0  0  0
   13.1123   36.3811  -11.4150 N   0  0  0  0  0  0  0  0  0  0  0  0
   13.6570   37.3965  -10.7486 C   0  0  0  0  0  0  0  0  0  0  0  0
   13.0395   35.4960  -10.9901 H   0  0  0  0  0  0  0  0  0  0  0  0
   12.7823   36.5152  -12.3328 H   0  0  0  0  0  0  0  0  0  0  0  0
   15.1907   38.6128  -11.9392 C   0  0  0  0  0  0  0  0  0  0  0  0
   15.5185   38.5479  -13.3907 C   0  0  0  0  0  0  0  0  0  0  0  0
   16.0628   37.1990  -13.6791 C   0  0  0  0  0  0  0  0  0  0  0  0
   14.2432   38.7403  -14.1991 C   0  0  0  0  0  0  0  0  0  0  0  0
   13.5260   41.3957   -8.3997 N   0  0  0  0  0  0  0  0  0  0  0  0
   13.3483   40.4101   -8.5932 H   0  0  0  0  0  0  0  0  0  0  0  0
   12.6039   41.7705   -7.0896 P   0  0  0  0  0  0  0  0  0  0  0  0
   11.8865   43.0275   -7.3878 O   0  0  0  0  0  0  0  0  0  0  0  0
   13.4073   41.8540   -5.7959 O   0  0  0  0  0  0  0  0  0  0  0  0
   12.8146   42.0768   -5.0611 H   0  0  0  0  0  0  0  0  0  0  0  0
   11.4580   40.3950   -6.9956 C   0  0  0  0  0  0  0  0  0  0  0  0
   11.5341   37.8516   -5.9425 O   0  0  0  0  0  0  0  0  0  0  0  0
   11.1122   40.0458   -5.6231 N   0  0  0  0  0  0  0  0  0  0  0  0
   11.2044   38.7657   -5.2318 C   0  0  0  0  0  0  0  0  0  0  0  0
   10.8150   40.7402   -4.9916 H   0  0  0  0  0  0  0  0  0  0  0  0
   10.8831   38.6284   -3.9365 O   0  0  0  0  0  0  0  0  0  0  0  0
    9.7134   39.3976   -3.4630 C   0  0  0  0  0  0  0  0  0  0  0  0
    9.5595   38.8339   -2.0747 C   0  0  0  0  0  0  0  0  0  0  0  0
    9.1674   37.5153   -1.9024 C   0  0  0  0  0  0  0  0  0  0  0  0
    9.8169   39.6015   -0.9431 C   0  0  0  0  0  0  0  0  0  0  0  0
    9.6702   39.0668    0.3257 C   0  0  0  0  0  0  0  0  0  0  0  0
    9.2553   37.7527    0.4840 C   0  0  0  0  0  0  0  0  0  0  0  0
    9.0057   36.9803   -0.6318 C   0  0  0  0  0  0  0  0  0  0  0  0
   14.5506   43.0954   -9.8228 C   0  0  0  0  0  0  0  0  0  0  0  0
   15.8805   42.7180   -9.1838 C   0  0  0  0  0  0  0  0  0  0  0  0
   16.4303   43.8781   -8.3818 C   0  0  0  0  0  0  0  0  0  0  0  0
   16.8839   42.2151  -10.2279 C   0  0  0  0  0  0  0  0  0  0  0  0
 34 30  2  0  0  0
 34 33  1  0  0  0
 30 29  1  0  0  0
 33 32  2  0  0  0
 29 28  1  0  0  0
 29 31  2  0  0  0
 32 31  1  0  0  0
 28 27  1  0  0  0
 27 25  1  0  0  0
 25 23  2  0  0  0
 25 24  1  0  0  0
 24 22  1  0  0  0
 22 18  1  0  0  0
 19 18  2  0  0  0
 20 18  1  0  0  0
  8  9  1  0  0  0
 18 16  1  0  0  0
  7  9  2  0  0  0
  9  6  1  0  0  0
 16  1  1  0  0  0
  6  3  1  0  0  0
  6 12  1  0  0  0
  3  2  1  0  0  0
  2  4  2  0  0  0
  2  1  1  0  0  0
  1 35  1  0  0  0
 12 13  1  0  0  0
 35 36  1  0  0  0
 13 15  1  0  0  0
 13 14  1  0  0  0
 38 36  1  0  0  0
 36 37  1  0  0  0
 16 17  1  0  0  0
 24 26  1  0  0  0
  8 10  1  0  0  0
  8 11  1  0  0  0
  3  5  1  0  0  0
 20 21  1  0  0  0
M  END
> <minimizedAffinity>
-7.96134

$$$$
5LWD_79E_E_411


 38 38  0  0  0  0  0  0  0  0999 V2000
   13.5613   39.5641   -9.7070 C   0  0  0  0  0  0  0  0  0  0  0  0
   13.4203   38.2980  -10.5446 C   0  0  0  0  0  0  0  0  0  0  0  0
   13.8692   38.3762  -11.7965 N   0  0  0  0  0  0  0  0  0  0  0  0
   12.8513   37.3116  -10.0745 O   0  0  0  0  0  0  0  0  0  0  0  0
   14.3551   39.1907  -12.0607 H   0  0  0  0  0  0  0  0  0  0  0  0
   13.6878   37.3324  -12.8037 C   0  0  0  0  0  0  0  0  0  0  0  0
   15.7582   36.2235  -12.3575 O   0  0  0  0  0  0  0  0  0  0  0  0
   13.8667   34.9760  -12.2504 N   0  0  0  0  0  0  0  0  0  0  0  0
   14.5258   36.1208  -12.4147 C   0  0  0  0  0  0  0  0  0  0  0  0
   14.3547   34.1588  -11.9989 H   0  0  0  0  0  0  0  0  0  0  0  0
   12.8913   34.9465  -12.3805 H   0  0  0  0  0  0  0  0  0  0  0  0
   14.4273   37.6587  -14.1101 C   0  0  0  0  0  0  0  0  0  0  0  0
   15.0047   39.0154  -14.3208 C   0  0  0  0  0  0  0  0  0  0  0  0
   16.3089   38.8581  -15.0089 C   0  0  0  0  0  0  0  0  0  0  0  0
   14.0752   39.8190  -15.2192 C   0  0  0  0  0  0  0  0  0  0  0  0
   13.2437   39.3157   -8.2970 N   0  0  0  0  0  0  0  0  0  0  0  0
   12.8693   38.3677   -8.2583 H   0  0  0  0  0  0  0  0  0  0  0  0
   12.2047   40.2457   -7.4235 P   0  0  0  0  0  0  0  0  0  0  0  0
   11.2703   40.8890   -8.3705 O   0  0  0  0  0  0  0  0  0  0  0  0
   12.9139   41.2583   -6.5303 O   0  0  0  0  0  0  0  0  0  0  0  0
   12.2548   41.7758   -6.0417 H   0  0  0  0  0  0  0  0  0  0  0  0
   11.3471   39.0454   -6.4051 C   0  0  0  0  0  0  0  0  0  0  0  0
    9.2454   38.3262   -4.7773 O   0  0  0  0  0  0  0  0  0  0  0  0
   11.1502   39.5091   -5.0370 N   0  0  0  0  0  0  0  0  0  0  0  0
   10.0871   39.0710   -4.3455 C   0  0  0  0  0  0  0  0  0  0  0  0
   11.7888   40.1356   -4.6260 H   0  0  0  0  0  0  0  0  0  0  0  0
   10.0785   39.5682   -3.0995 O   0  0  0  0  0  0  0  0  0  0  0  0
   11.0768   39.0130   -2.1619 C   0  0  0  0  0  0  0  0  0  0  0  0
   10.1697   38.4405   -1.1045 C   0  0  0  0  0  0  0  0  0  0  0  0
    9.9924   39.1141    0.0943 C   0  0  0  0  0  0  0  0  0  0  0  0
    9.4822   37.2470   -1.3013 C   0  0  0  0  0  0  0  0  0  0  0  0
    8.6523   36.7353   -0.3181 C   0  0  0  0  0  0  0  0  0  0  0  0
    8.5016   37.4081    0.8855 C   0  0  0  0  0  0  0  0  0  0  0  0
    9.1724   38.5969    1.0876 C   0  0  0  0  0  0  0  0  0  0  0  0
   14.9771   40.1236   -9.8158 C   0  0  0  0  0  0  0  0  0  0  0  0
   15.1403   41.6198   -9.5833 C   0  0  0  0  0  0  0  0  0  0  0  0
   14.0101   42.3838  -10.2394 C   0  0  0  0  0  0  0  0  0  0  0  0
   16.5143   42.1151  -10.0489 C   0  0  0  0  0  0  0  0  0  0  0  0
 34 30  2  0  0  0
 34 33  1  0  0  0
 30 29  1  0  0  0
 33 32  2  0  0  0
 29 28  1  0  0  0
 29 31  2  0  0  0
 32 31  1  0  0  0
 28 27  1  0  0  0
 27 25  1  0  0  0
 25 23  2  0  0  0
 25 24  1  0  0  0
 24 22  1  0  0  0
 22 18  1  0  0  0
 19 18  2  0  0  0
 20 18  1  0  0  0
  8  9  1  0  0  0
 18 16  1  0  0  0
  7  9  2  0  0  0
  9  6  1  0  0  0
 16  1  1  0  0  0
  6  3  1  0  0  0
  6 12  1  0  0  0
  3  2  1  0  0  0
  2  4  2  0  0  0
  2  1  1  0  0  0
  1 35  1  0  0  0
 12 13  1  0  0  0
 35 36  1  0  0  0
 13 15  1  0  0  0
 13 14  1  0  0  0
 38 36  1  0  0  0
 36 37  1  0  0  0
 16 17  1  0  0  0
 24 26  1  0  0  0
  8 10  1  0  0  0
  8 11  1  0  0  0
  3  5  1  0  0  0
 20 21  1  0  0  0
M  END
> <minimizedAffinity>
-7.90050

$$$$
5LWD_79E_E_411


 38 38  0  0  0  0  0  0  0  0999 V2000
   13.8524   41.6660   -9.8138 C   0  0  0  0  0  0  0  0  0  0  0  0
   14.4832   40.3425  -10.2319 C   0  0  0  0  0  0  0  0  0  0  0  0
   14.5837   40.1353  -11.5441 N   0  0  0  0  0  0  0  0  0  0  0  0
   14.7961   39.5142   -9.3753 O   0  0  0  0  0  0  0  0  0  0  0  0
   14.3543   40.8798  -12.1460 H   0  0  0  0  0  0  0  0  0  0  0  0
   15.0123   38.8754  -12.1490 C   0  0  0  0  0  0  0  0  0  0  0  0
   16.3822   38.4291  -14.0568 O   0  0  0  0  0  0  0  0  0  0  0  0
   15.0141   40.2356  -14.1592 N   0  0  0  0  0  0  0  0  0  0  0  0
   15.5047   39.1504  -13.5645 C   0  0  0  0  0  0  0  0  0  0  0  0
   15.2953   40.4650  -15.0744 H   0  0  0  0  0  0  0  0  0  0  0  0
   14.3700   40.8088  -13.6839 H   0  0  0  0  0  0  0  0  0  0  0  0
   13.8196   37.9878  -12.5359 C   0  0  0  0  0  0  0  0  0  0  0  0
   13.4979   36.7783  -11.7284 C   0  0  0  0  0  0  0  0  0  0  0  0
   13.1343   35.6854  -12.6625 C   0  0  0  0  0  0  0  0  0  0  0  0
   14.7340   36.3576  -10.9461 C   0  0  0  0  0  0  0  0  0  0  0  0
   13.4532   41.6508   -8.4027 N   0  0  0  0  0  0  0  0  0  0  0  0
   13.9494   40.8658   -7.9809 H   0  0  0  0  0  0  0  0  0  0  0  0
   11.8912   41.5163   -7.9032 P   0  0  0  0  0  0  0  0  0  0  0  0
   11.0272   41.5892   -9.0998 O   0  0  0  0  0  0  0  0  0  0  0  0
   11.5090   42.5490   -6.8480 O   0  0  0  0  0  0  0  0  0  0  0  0
   10.5819   42.4224   -6.5925 H   0  0  0  0  0  0  0  0  0  0  0  0
   11.8376   39.8756   -7.1829 C   0  0  0  0  0  0  0  0  0  0  0  0
   11.5582   37.8465   -5.3422 O   0  0  0  0  0  0  0  0  0  0  0  0
   10.6767   39.6781   -6.3233 N   0  0  0  0  0  0  0  0  0  0  0  0
   10.6722   38.6534   -5.4572 C   0  0  0  0  0  0  0  0  0  0  0  0
    9.9062   40.2886   -6.3777 H   0  0  0  0  0  0  0  0  0  0  0  0
    9.5479   38.6398   -4.7253 O   0  0  0  0  0  0  0  0  0  0  0  0
    9.3189   39.8069   -3.8481 C   0  0  0  0  0  0  0  0  0  0  0  0
    9.4223   39.1555   -2.4940 C   0  0  0  0  0  0  0  0  0  0  0  0
    9.7008   39.9252   -1.3749 C   0  0  0  0  0  0  0  0  0  0  0  0
    9.2294   37.7880   -2.3257 C   0  0  0  0  0  0  0  0  0  0  0  0
    9.3283   37.2059   -1.0732 C   0  0  0  0  0  0  0  0  0  0  0  0
    9.6299   37.9843    0.0346 C   0  0  0  0  0  0  0  0  0  0  0  0
    9.8147   39.3429   -0.1201 C   0  0  0  0  0  0  0  0  0  0  0  0
   14.8214   42.8206  -10.0530 C   0  0  0  0  0  0  0  0  0  0  0  0
   16.1264   42.7912   -9.2685 C   0  0  0  0  0  0  0  0  0  0  0  0
   16.2031   43.9720   -8.3245 C   0  0  0  0  0  0  0  0  0  0  0  0
   17.3417   42.7212  -10.2003 C   0  0  0  0  0  0  0  0  0  0  0  0
 34 30  2  0  0  0
 34 33  1  0  0  0
 30 29  1  0  0  0
 33 32  2  0  0  0
 29 28  1  0  0  0
 29 31  2  0  0  0
 32 31  1  0  0  0
 28 27  1  0  0  0
 27 25  1  0  0  0
 25 23  2  0  0  0
 25 24  1  0  0  0
 24 22  1  0  0  0
 22 18  1  0  0  0
 19 18  2  0  0  0
 20 18  1  0  0  0
  8  9  1  0  0  0
 18 16  1  0  0  0
  7  9  2  0  0  0
  9  6  1  0  0  0
 16  1  1  0  0  0
  6  3  1  0  0  0
  6 12  1  0  0  0
  3  2  1  0  0  0
  2  4  2  0  0  0
  2  1  1  0  0  0
  1 35  1  0  0  0
 12 13  1  0  0  0
 35 36  1  0  0  0
 13 15  1  0  0  0
 13 14  1  0  0  0
 38 36  1  0  0  0
 36 37  1  0  0  0
 16 17  1  0  0  0
 24 26  1  0  0  0
  8 10  1  0  0  0
  8 11  1  0  0  0
  3  5  1  0  0  0
 20 21  1  0  0  0
M  END
> <minimizedAffinity>
-7.78932

$$$$
5LWD_79E_E_411


 38 38  0  0  0  0  0  0  0  0999 V2000
   13.3104   41.3898   -9.6400 C   0  0  0  0  0  0  0  0  0  0  0  0
   13.7361   39.9829  -10.0448 C   0  0  0  0  0  0  0  0  0  0  0  0
   14.5811   39.9041  -11.0717 N   0  0  0  0  0  0  0  0  0  0  0  0
   13.2445   39.0060   -9.4776 O   0  0  0  0  0  0  0  0  0  0  0  0
   14.9570   40.7434  -11.4233 H   0  0  0  0  0  0  0  0  0  0  0  0
   14.9869   38.6537  -11.7110 C   0  0  0  0  0  0  0  0  0  0  0  0
   15.7014   38.8890  -13.9803 O   0  0  0  0  0  0  0  0  0  0  0  0
   17.2592   39.2050  -12.3620 N   0  0  0  0  0  0  0  0  0  0  0  0
   16.0210   38.9626  -12.7865 C   0  0  0  0  0  0  0  0  0  0  0  0
   17.9706   39.4108  -13.0107 H   0  0  0  0  0  0  0  0  0  0  0  0
   17.4635   39.1785  -11.3993 H   0  0  0  0  0  0  0  0  0  0  0  0
   13.8998   38.1078  -12.6492 C   0  0  0  0  0  0  0  0  0  0  0  0
   13.4016   36.7142  -12.4814 C   0  0  0  0  0  0  0  0  0  0  0  0
   13.4189   36.0567  -13.8105 C   0  0  0  0  0  0  0  0  0  0  0  0
   14.3406   35.9573  -11.5528 C   0  0  0  0  0  0  0  0  0  0  0  0
   13.8663   41.7670   -8.3364 N   0  0  0  0  0  0  0  0  0  0  0  0
   14.4014   40.9594   -8.0172 H   0  0  0  0  0  0  0  0  0  0  0  0
   12.9427   42.2295   -7.0557 P   0  0  0  0  0  0  0  0  0  0  0  0
   12.4189   43.5812   -7.3423 O   0  0  0  0  0  0  0  0  0  0  0  0
   13.6875   42.1658   -5.7263 O   0  0  0  0  0  0  0  0  0  0  0  0
   13.0966   42.4481   -5.0108 H   0  0  0  0  0  0  0  0  0  0  0  0
   11.6165   41.0233   -7.0579 C   0  0  0  0  0  0  0  0  0  0  0  0
   10.9335   38.4415   -6.3860 O   0  0  0  0  0  0  0  0  0  0  0  0
   11.2675   40.5710   -5.7166 N   0  0  0  0  0  0  0  0  0  0  0  0
   10.9655   39.2784   -5.5212 C   0  0  0  0  0  0  0  0  0  0  0  0
   11.2536   41.2057   -4.9641 H   0  0  0  0  0  0  0  0  0  0  0  0
   10.7031   39.0299   -4.2292 O   0  0  0  0  0  0  0  0  0  0  0  0
    9.4931   38.2305   -3.9447 C   0  0  0  0  0  0  0  0  0  0  0  0
    9.4936   38.2605   -2.4388 C   0  0  0  0  0  0  0  0  0  0  0  0
    9.0259   37.1682   -1.7244 C   0  0  0  0  0  0  0  0  0  0  0  0
    9.9696   39.3599   -1.7312 C   0  0  0  0  0  0  0  0  0  0  0  0
    9.9625   39.3702   -0.3466 C   0  0  0  0  0  0  0  0  0  0  0  0
    9.4708   38.2796    0.3554 C   0  0  0  0  0  0  0  0  0  0  0  0
    9.0042   37.1808   -0.3366 C   0  0  0  0  0  0  0  0  0  0  0  0
   13.7500   42.4057  -10.6907 C   0  0  0  0  0  0  0  0  0  0  0  0
   12.6494   43.2248  -11.3518 C   0  0  0  0  0  0  0  0  0  0  0  0
   11.3250   42.9897  -10.6573 C   0  0  0  0  0  0  0  0  0  0  0  0
   12.5662   42.9448  -12.8567 C   0  0  0  0  0  0  0  0  0  0  0  0
 34 30  2  0  0  0
 34 33  1  0  0  0
 30 29  1  0  0  0
 33 32  2  0  0  0
 29 28  1  0  0  0
 29 31  2  0  0  0
 32 31  1  0  0  0
 28 27  1  0  0  0
 27 25  1  0  0  0
 25 23  2  0  0  0
 25 24  1  0  0  0
 24 22  1  0  0  0
 22 18  1  0  0  0
 19 18  2  0  0  0
 20 18  1  0  0  0
  8  9  1  0  0  0
 18 16  1  0  0  0
  7  9  2  0  0  0
  9  6  1  0  0  0
 16  1  1  0  0  0
  6  3  1  0  0  0
  6 12  1  0  0  0
  3  2  1  0  0  0
  2  4  2  0  0  0
  2  1  1  0  0  0
  1 35  1  0  0  0
 12 13  1  0  0  0
 35 36  1  0  0  0
 13 15  1  0  0  0
 13 14  1  0  0  0
 38 36  1  0  0  0
 36 37  1  0  0  0
 16 17  1  0  0  0
 24 26  1  0  0  0
  8 10  1  0  0  0
  8 11  1  0  0  0
  3  5  1  0  0  0
 20 21  1  0  0  0
M  END
> <minimizedAffinity>
-7.74644

$$$$
5LWD_79E_E_411


 38 38  0  0  0  0  0  0  0  0999 V2000
   14.8924   40.1032  -10.5573 C   0  0  0  0  0  0  0  0  0  0  0  0
   14.8021   39.6037  -11.9950 C   0  0  0  0  0  0  0  0  0  0  0  0
   14.5030   38.3141  -12.1446 N   0  0  0  0  0  0  0  0  0  0  0  0
   15.0716   40.3634  -12.9266 O   0  0  0  0  0  0  0  0  0  0  0  0
   14.2536   37.8036  -11.3405 H   0  0  0  0  0  0  0  0  0  0  0  0
   14.5210   37.6070  -13.4239 C   0  0  0  0  0  0  0  0  0  0  0  0
   13.0678   36.1178  -12.2465 O   0  0  0  0  0  0  0  0  0  0  0  0
   13.5966   35.5793  -14.3857 N   0  0  0  0  0  0  0  0  0  0  0  0
   13.6323   36.3738  -13.3182 C   0  0  0  0  0  0  0  0  0  0  0  0
   13.0401   34.7673  -14.3765 H   0  0  0  0  0  0  0  0  0  0  0  0
   14.1268   35.8037  -15.1843 H   0  0  0  0  0  0  0  0  0  0  0  0
   15.8456   36.8630  -13.6517 C   0  0  0  0  0  0  0  0  0  0  0  0
   16.8906   37.4546  -14.5329 C   0  0  0  0  0  0  0  0  0  0  0  0
   17.8280   38.2253  -13.6806 C   0  0  0  0  0  0  0  0  0  0  0  0
   17.6627   36.3331  -15.2132 C   0  0  0  0  0  0  0  0  0  0  0  0
   14.9890   38.9917   -9.6056 N   0  0  0  0  0  0  0  0  0  0  0  0
   15.4004   38.2156  -10.1241 H   0  0  0  0  0  0  0  0  0  0  0  0
   13.6933   38.3641   -8.8091 P   0  0  0  0  0  0  0  0  0  0  0  0
   14.1991   37.3769   -7.8327 O   0  0  0  0  0  0  0  0  0  0  0  0
   12.6455   37.7701   -9.7447 O   0  0  0  0  0  0  0  0  0  0  0  0
   11.9085   37.4169   -9.2222 H   0  0  0  0  0  0  0  0  0  0  0  0
   13.0063   39.7907   -7.9686 C   0  0  0  0  0  0  0  0  0  0  0  0
   10.7105   38.4428   -7.2642 O   0  0  0  0  0  0  0  0  0  0  0  0
   12.5957   39.4925   -6.6019 N   0  0  0  0  0  0  0  0  0  0  0  0
   11.4561   38.8150   -6.3954 C   0  0  0  0  0  0  0  0  0  0  0  0
   13.1474   39.7844   -5.8405 H   0  0  0  0  0  0  0  0  0  0  0  0
   11.2486   38.5989   -5.0877 O   0  0  0  0  0  0  0  0  0  0  0  0
   10.1390   39.3496   -4.4639 C   0  0  0  0  0  0  0  0  0  0  0  0
   10.0799   38.6801   -3.1159 C   0  0  0  0  0  0  0  0  0  0  0  0
   10.8690   39.1469   -2.0759 C   0  0  0  0  0  0  0  0  0  0  0  0
    9.2349   37.6017   -2.8734 C   0  0  0  0  0  0  0  0  0  0  0  0
    9.1935   36.9984   -1.6278 C   0  0  0  0  0  0  0  0  0  0  0  0
   10.0050   37.4613   -0.6025 C   0  0  0  0  0  0  0  0  0  0  0  0
   10.8405   38.5356   -0.8301 C   0  0  0  0  0  0  0  0  0  0  0  0
   16.0977   41.0235  -10.3846 C   0  0  0  0  0  0  0  0  0  0  0  0
   15.8840   42.2803   -9.5516 C   0  0  0  0  0  0  0  0  0  0  0  0
   14.5281   42.8858   -9.8455 C   0  0  0  0  0  0  0  0  0  0  0  0
   17.0197   43.2897   -9.7544 C   0  0  0  0  0  0  0  0  0  0  0  0
 34 30  2  0  0  0
 34 33  1  0  0  0
 30 29  1  0  0  0
 33 32  2  0  0  0
 29 28  1  0  0  0
 29 31  2  0  0  0
 32 31  1  0  0  0
 28 27  1  0  0  0
 27 25  1  0  0  0
 25 23  2  0  0  0
 25 24  1  0  0  0
 24 22  1  0  0  0
 22 18  1  0  0  0
 19 18  2  0  0  0
 20 18  1  0  0  0
  8  9  1  0  0  0
 18 16  1  0  0  0
  7  9  2  0  0  0
  9  6  1  0  0  0
 16  1  1  0  0  0
  6  3  1  0  0  0
  6 12  1  0  0  0
  3  2  1  0  0  0
  2  4  2  0  0  0
  2  1  1  0  0  0
  1 35  1  0  0  0
 12 13  1  0  0  0
 35 36  1  0  0  0
 13 15  1  0  0  0
 13 14  1  0  0  0
 38 36  1  0  0  0
 36 37  1  0  0  0
 16 17  1  0  0  0
 24 26  1  0  0  0
  8 10  1  0  0  0
  8 11  1  0  0  0
  3  5  1  0  0  0
 20 21  1  0  0  0
M  END
> <minimizedAffinity>
-7.71933

$$$$
5LWD_79E_E_411


 38 38  0  0  0  0  0  0  0  0999 V2000
   11.7600   42.0290   -9.0039 C   0  0  0  0  0  0  0  0  0  0  0  0
   13.1641   41.7001   -9.4985 C   0  0  0  0  0  0  0  0  0  0  0  0
   13.2334   41.0308  -10.6483 N   0  0  0  0  0  0  0  0  0  0  0  0
   14.1417   41.9886   -8.8065 O   0  0  0  0  0  0  0  0  0  0  0  0
   12.3984   40.8934  -11.1515 H   0  0  0  0  0  0  0  0  0  0  0  0
   14.4677   40.4869  -11.2122 C   0  0  0  0  0  0  0  0  0  0  0  0
   14.7771   39.4673  -13.3523 O   0  0  0  0  0  0  0  0  0  0  0  0
   13.8376   41.5316  -13.3104 N   0  0  0  0  0  0  0  0  0  0  0  0
   14.3394   40.4439  -12.7298 C   0  0  0  0  0  0  0  0  0  0  0  0
   13.7308   41.5626  -14.2886 H   0  0  0  0  0  0  0  0  0  0  0  0
   13.5732   42.3050  -12.7615 H   0  0  0  0  0  0  0  0  0  0  0  0
   14.5818   38.9708  -10.9919 C   0  0  0  0  0  0  0  0  0  0  0  0
   13.4546   38.2211  -10.3705 C   0  0  0  0  0  0  0  0  0  0  0  0
   13.3276   36.9195  -11.0696 C   0  0  0  0  0  0  0  0  0  0  0  0
   13.7782   37.9570   -8.9068 C   0  0  0  0  0  0  0  0  0  0  0  0
   11.2086   40.9438   -8.1861 N   0  0  0  0  0  0  0  0  0  0  0  0
   10.2017   40.9563   -8.3482 H   0  0  0  0  0  0  0  0  0  0  0  0
   11.4006   40.8497   -6.5547 P   0  0  0  0  0  0  0  0  0  0  0  0
   10.3021   41.6130   -5.9266 O   0  0  0  0  0  0  0  0  0  0  0  0
   12.7742   41.3174   -6.0854 O   0  0  0  0  0  0  0  0  0  0  0  0
   12.8298   41.2399   -5.1201 H   0  0  0  0  0  0  0  0  0  0  0  0
   11.2205   39.0963   -6.2274 C   0  0  0  0  0  0  0  0  0  0  0  0
    9.1493   38.6908   -4.4584 O   0  0  0  0  0  0  0  0  0  0  0  0
   11.3767   38.7704   -4.8151 N   0  0  0  0  0  0  0  0  0  0  0  0
   10.2814   38.5848   -4.0626 C   0  0  0  0  0  0  0  0  0  0  0  0
   12.2740   38.6876   -4.4186 H   0  0  0  0  0  0  0  0  0  0  0  0
   10.6063   38.2607   -2.8020 O   0  0  0  0  0  0  0  0  0  0  0  0
    9.9649   37.0505   -2.2469 C   0  0  0  0  0  0  0  0  0  0  0  0
    9.5831   37.5473   -0.8772 C   0  0  0  0  0  0  0  0  0  0  0  0
    8.5310   36.9561   -0.1947 C   0  0  0  0  0  0  0  0  0  0  0  0
   10.2725   38.5861   -0.2597 C   0  0  0  0  0  0  0  0  0  0  0  0
    9.9077   39.0301    1.0001 C   0  0  0  0  0  0  0  0  0  0  0  0
    8.8387   38.4446    1.6623 C   0  0  0  0  0  0  0  0  0  0  0  0
    8.1536   37.4080    1.0622 C   0  0  0  0  0  0  0  0  0  0  0  0
   11.7671   43.3212   -8.1916 C   0  0  0  0  0  0  0  0  0  0  0  0
   10.8816   44.4518   -8.6984 C   0  0  0  0  0  0  0  0  0  0  0  0
    9.5266   43.9181   -9.1116 C   0  0  0  0  0  0  0  0  0  0  0  0
   11.5596   45.2341   -9.8290 C   0  0  0  0  0  0  0  0  0  0  0  0
 34 30  2  0  0  0
 34 33  1  0  0  0
 30 29  1  0  0  0
 33 32  2  0  0  0
 29 28  1  0  0  0
 29 31  2  0  0  0
 32 31  1  0  0  0
 28 27  1  0  0  0
 27 25  1  0  0  0
 25 23  2  0  0  0
 25 24  1  0  0  0
 24 22  1  0  0  0
 22 18  1  0  0  0
 19 18  2  0  0  0
 20 18  1  0  0  0
  8  9  1  0  0  0
 18 16  1  0  0  0
  7  9  2  0  0  0
  9  6  1  0  0  0
 16  1  1  0  0  0
  6  3  1  0  0  0
  6 12  1  0  0  0
  3  2  1  0  0  0
  2  4  2  0  0  0
  2  1  1  0  0  0
  1 35  1  0  0  0
 12 13  1  0  0  0
 35 36  1  0  0  0
 13 15  1  0  0  0
 13 14  1  0  0  0
 38 36  1  0  0  0
 36 37  1  0  0  0
 16 17  1  0  0  0
 24 26  1  0  0  0
  8 10  1  0  0  0
  8 11  1  0  0  0
  3  5  1  0  0  0
 20 21  1  0  0  0
M  END
> <minimizedAffinity>
-7.58494

$$$$
5LWD_79E_E_411


 38 38  0  0  0  0  0  0  0  0999 V2000
    8.6271   39.0020   -3.0918 C   0  0  0  0  0  0  0  0  0  0  0  0
    8.3984   40.4992   -2.9172 C   0  0  0  0  0  0  0  0  0  0  0  0
    7.6633   41.0887   -3.8591 N   0  0  0  0  0  0  0  0  0  0  0  0
    8.9424   41.0988   -1.9886 O   0  0  0  0  0  0  0  0  0  0  0  0
    7.2298   40.5141   -4.5307 H   0  0  0  0  0  0  0  0  0  0  0  0
    7.4580   42.5324   -3.9609 C   0  0  0  0  0  0  0  0  0  0  0  0
    6.5339   43.6579   -2.0649 O   0  0  0  0  0  0  0  0  0  0  0  0
    5.1254   42.3850   -3.3065 N   0  0  0  0  0  0  0  0  0  0  0  0
    6.3096   42.9332   -3.0432 C   0  0  0  0  0  0  0  0  0  0  0  0
    4.3456   42.6060   -2.7477 H   0  0  0  0  0  0  0  0  0  0  0  0
    5.0295   41.7587   -4.0600 H   0  0  0  0  0  0  0  0  0  0  0  0
    6.7847   42.9259   -5.2845 C   0  0  0  0  0  0  0  0  0  0  0  0
    7.3611   44.0175   -6.1181 C   0  0  0  0  0  0  0  0  0  0  0  0
    6.2570   44.9248   -6.5146 C   0  0  0  0  0  0  0  0  0  0  0  0
    8.3622   44.8056   -5.2853 C   0  0  0  0  0  0  0  0  0  0  0  0
    9.1926   38.6932   -4.4092 N   0  0  0  0  0  0  0  0  0  0  0  0
    9.0136   37.7010   -4.5640 H   0  0  0  0  0  0  0  0  0  0  0  0
   10.7742   38.9307   -4.7959 P   0  0  0  0  0  0  0  0  0  0  0  0
   11.2563   37.7172   -5.4879 O   0  0  0  0  0  0  0  0  0  0  0  0
   11.6371   39.2932   -3.5918 O   0  0  0  0  0  0  0  0  0  0  0  0
   12.5550   39.4208   -3.8784 H   0  0  0  0  0  0  0  0  0  0  0  0
   10.7091   40.3203   -5.9266 C   0  0  0  0  0  0  0  0  0  0  0  0
   12.1482   41.9917   -7.5756 O   0  0  0  0  0  0  0  0  0  0  0  0
   11.1778   39.9777   -7.2638 N   0  0  0  0  0  0  0  0  0  0  0  0
   11.8827   40.8823   -7.9605 C   0  0  0  0  0  0  0  0  0  0  0  0
   10.9798   39.0943   -7.6507 H   0  0  0  0  0  0  0  0  0  0  0  0
   12.2615   40.3924   -9.1506 O   0  0  0  0  0  0  0  0  0  0  0  0
   13.7052   40.1295   -9.3253 C   0  0  0  0  0  0  0  0  0  0  0  0
   13.6644   39.0977  -10.4219 C   0  0  0  0  0  0  0  0  0  0  0  0
   14.0365   39.4434  -11.7119 C   0  0  0  0  0  0  0  0  0  0  0  0
   13.2738   37.7855  -10.1745 C   0  0  0  0  0  0  0  0  0  0  0  0
   13.2422   36.8499  -11.1949 C   0  0  0  0  0  0  0  0  0  0  0  0
   13.5954   37.2150  -12.4856 C   0  0  0  0  0  0  0  0  0  0  0  0
   13.9924   38.5118  -12.7399 C   0  0  0  0  0  0  0  0  0  0  0  0
    9.5581   38.4719   -2.0047 C   0  0  0  0  0  0  0  0  0  0  0  0
    8.9166   37.6413   -0.9010 C   0  0  0  0  0  0  0  0  0  0  0  0
    9.2572   38.2141    0.4582 C   0  0  0  0  0  0  0  0  0  0  0  0
    9.3022   36.1620   -1.0137 C   0  0  0  0  0  0  0  0  0  0  0  0
 34 30  2  0  0  0
 34 33  1  0  0  0
 30 29  1  0  0  0
 33 32  2  0  0  0
 29 28  1  0  0  0
 29 31  2  0  0  0
 32 31  1  0  0  0
 28 27  1  0  0  0
 27 25  1  0  0  0
 25 23  2  0  0  0
 25 24  1  0  0  0
 24 22  1  0  0  0
 22 18  1  0  0  0
 19 18  2  0  0  0
 20 18  1  0  0  0
  8  9  1  0  0  0
 18 16  1  0  0  0
  7  9  2  0  0  0
  9  6  1  0  0  0
 16  1  1  0  0  0
  6  3  1  0  0  0
  6 12  1  0  0  0
  3  2  1  0  0  0
  2  4  2  0  0  0
  2  1  1  0  0  0
  1 35  1  0  0  0
 12 13  1  0  0  0
 35 36  1  0  0  0
 13 15  1  0  0  0
 13 14  1  0  0  0
 38 36  1  0  0  0
 36 37  1  0  0  0
 16 17  1  0  0  0
 24 26  1  0  0  0
  8 10  1  0  0  0
  8 11  1  0  0  0
  3  5  1  0  0  0
 20 21  1  0  0  0
M  END
> <minimizedAffinity>
-7.56621

$$$$
5LWD_79E_E_411


 38 38  0  0  0  0  0  0  0  0999 V2000
   14.7299   39.1996  -11.0882 C   0  0  0  0  0  0  0  0  0  0  0  0
   15.4657   40.3989  -11.6752 C   0  0  0  0  0  0  0  0  0  0  0  0
   16.7896   40.3985  -11.5262 N   0  0  0  0  0  0  0  0  0  0  0  0
   14.8271   41.3236  -12.1800 O   0  0  0  0  0  0  0  0  0  0  0  0
   17.2104   39.5892  -11.1560 H   0  0  0  0  0  0  0  0  0  0  0  0
   17.6586   41.5207  -11.8763 C   0  0  0  0  0  0  0  0  0  0  0  0
   18.7577   40.1051  -13.4585 O   0  0  0  0  0  0  0  0  0  0  0  0
   20.0659   41.4428  -12.1760 N   0  0  0  0  0  0  0  0  0  0  0  0
   18.8892   40.9851  -12.5977 C   0  0  0  0  0  0  0  0  0  0  0  0
   20.8966   41.1328  -12.6039 H   0  0  0  0  0  0  0  0  0  0  0  0
   20.1055   42.0912  -11.4363 H   0  0  0  0  0  0  0  0  0  0  0  0
   18.3924   42.0846  -10.6500 C   0  0  0  0  0  0  0  0  0  0  0  0
   18.0042   43.4107  -10.0939 C   0  0  0  0  0  0  0  0  0  0  0  0
   17.8818   44.3645  -11.2229 C   0  0  0  0  0  0  0  0  0  0  0  0
   16.6488   43.2882   -9.4122 C   0  0  0  0  0  0  0  0  0  0  0  0
   14.0068   39.5575   -9.8636 N   0  0  0  0  0  0  0  0  0  0  0  0
   14.6458   40.1400   -9.3226 H   0  0  0  0  0  0  0  0  0  0  0  0
   13.4060   38.4480   -8.8076 P   0  0  0  0  0  0  0  0  0  0  0  0
   14.4973   37.5109   -8.4688 O   0  0  0  0  0  0  0  0  0  0  0  0
   12.1674   37.7302   -9.3334 O   0  0  0  0  0  0  0  0  0  0  0  0
   11.8588   37.0912   -8.6721 H   0  0  0  0  0  0  0  0  0  0  0  0
   12.9625   39.4439   -7.3845 C   0  0  0  0  0  0  0  0  0  0  0  0
   10.8180   40.1794   -5.8212 O   0  0  0  0  0  0  0  0  0  0  0  0
   12.4086   38.6495   -6.2947 N   0  0  0  0  0  0  0  0  0  0  0  0
   11.3499   39.1188   -5.6171 C   0  0  0  0  0  0  0  0  0  0  0  0
   12.8062   37.7803   -6.0590 H   0  0  0  0  0  0  0  0  0  0  0  0
   10.9508   38.2503   -4.6756 O   0  0  0  0  0  0  0  0  0  0  0  0
    9.5200   38.2889   -4.3079 C   0  0  0  0  0  0  0  0  0  0  0  0
    9.6220   38.2281   -2.8064 C   0  0  0  0  0  0  0  0  0  0  0  0
   10.0688   39.3327   -2.0975 C   0  0  0  0  0  0  0  0  0  0  0  0
    9.2623   37.0869   -2.0964 C   0  0  0  0  0  0  0  0  0  0  0  0
    9.3625   37.0486   -0.7159 C   0  0  0  0  0  0  0  0  0  0  0  0
    9.8326   38.1532   -0.0210 C   0  0  0  0  0  0  0  0  0  0  0  0
   10.1840   39.2930   -0.7148 C   0  0  0  0  0  0  0  0  0  0  0  0
   13.7486   38.6229  -12.1050 C   0  0  0  0  0  0  0  0  0  0  0  0
   14.0021   37.1932  -12.5645 C   0  0  0  0  0  0  0  0  0  0  0  0
   15.1973   36.6093  -11.8421 C   0  0  0  0  0  0  0  0  0  0  0  0
   14.1551   37.1105  -14.0876 C   0  0  0  0  0  0  0  0  0  0  0  0
 34 30  2  0  0  0
 34 33  1  0  0  0
 30 29  1  0  0  0
 33 32  2  0  0  0
 29 28  1  0  0  0
 29 31  2  0  0  0
 32 31  1  0  0  0
 28 27  1  0  0  0
 27 25  1  0  0  0
 25 23  2  0  0  0
 25 24  1  0  0  0
 24 22  1  0  0  0
 22 18  1  0  0  0
 19 18  2  0  0  0
 20 18  1  0  0  0
  8  9  1  0  0  0
 18 16  1  0  0  0
  7  9  2  0  0  0
  9  6  1  0  0  0
 16  1  1  0  0  0
  6  3  1  0  0  0
  6 12  1  0  0  0
  3  2  1  0  0  0
  2  4  2  0  0  0
  2  1  1  0  0  0
  1 35  1  0  0  0
 12 13  1  0  0  0
 35 36  1  0  0  0
 13 15  1  0  0  0
 13 14  1  0  0  0
 38 36  1  0  0  0
 36 37  1  0  0  0
 16 17  1  0  0  0
 24 26  1  0  0  0
  8 10  1  0  0  0
  8 11  1  0  0  0
  3  5  1  0  0  0
 20 21  1  0  0  0
M  END
> <minimizedAffinity>
-7.33189

$$$$
