6D5J_FV4_B_2001


 27 30  0  0  0  0  0  0  0  0999 V2000
   36.2875   29.0237   23.7614 N   0  0  0  0  0  0  0  0  0  0  0  0
   35.5376   28.7805   22.6649 C   0  0  0  0  0  0  0  0  0  0  0  0
   35.3590   29.5029   24.7207 C   0  0  0  0  0  0  0  0  0  0  0  0
   35.5715   29.8990   26.0476 C   0  0  0  0  0  0  0  0  0  0  0  0
   34.4747   30.3092   26.7758 C   0  0  0  0  0  0  0  0  0  0  0  0
   32.9354   29.9569   24.8995 C   0  0  0  0  0  0  0  0  0  0  0  0
   34.1755   29.0844   22.8514 N   0  0  0  0  0  0  0  0  0  0  0  0
   34.0512   29.5398   24.1671 C   0  0  0  0  0  0  0  0  0  0  0  0
   33.2008   30.3198   26.1872 C   0  0  0  0  0  0  0  0  0  0  0  0
   31.8516   30.8015   27.1816 Cl  0  0  0  0  0  0  0  0  0  0  0  0
   36.9507   26.6795   19.2976 N   0  0  0  0  0  0  0  0  0  0  0  0
   37.3088   28.1085   19.4742 C   0  0  0  0  0  0  0  0  0  0  0  0
   35.5846   26.7930   21.2847 C   0  0  0  0  0  0  0  0  0  0  0  0
   37.2692   28.4416   20.9748 C   0  0  0  0  0  0  0  0  0  0  0  0
   35.6057   26.3532   19.8152 C   0  0  0  0  0  0  0  0  0  0  0  0
   35.9027   28.2201   21.4124 N   0  0  0  0  0  0  0  0  0  0  0  0
   37.6365   26.1090   19.7922 H   0  0  0  0  0  0  0  0  0  0  0  0
   33.0924   28.9701   21.9021 C   0  0  0  0  0  0  0  0  0  0  0  0
   31.7472   31.2770   19.2532 C   0  0  0  0  0  0  0  0  0  0  0  0
   33.7064   33.9721   21.1126 C   0  0  0  0  0  0  0  0  0  0  0  0
   33.1455   32.6268   20.7420 C   0  0  0  0  0  0  0  0  0  0  0  0
   32.0373   30.1465   20.0046 C   0  0  0  0  0  0  0  0  0  0  0  0
   30.8199   31.2309   18.0864 C   0  0  0  0  0  0  0  0  0  0  0  0
   32.3164   32.5015   19.6275 C   0  0  0  0  0  0  0  0  0  0  0  0
   33.4287   31.4809   21.4891 C   0  0  0  0  0  0  0  0  0  0  0  0
   32.8672   30.2457   21.1134 C   0  0  0  0  0  0  0  0  0  0  0  0
   32.0531   33.5581   18.8635 F   0  0  0  0  0  0  0  0  0  0  0  0
 23 19  1  0  0  0
 11 12  1  0  0  0
 11 15  1  0  0  0
 12 14  1  0  0  0
 27 24  1  0  0  0
 19 24  2  0  0  0
 19 22  1  0  0  0
 24 21  1  0  0  0
 15 13  1  0  0  0
 22 26  2  0  0  0
 14 16  1  0  0  0
 21 20  1  0  0  0
 21 25  2  0  0  0
 26 25  1  0  0  0
 26 18  1  0  0  0
 16 13  1  0  0  0
 16  2  1  0  0  0
 18  7  1  0  0  0
  2  7  1  0  0  0
  2  1  2  0  0  0
  7  8  1  0  0  0
  1  3  1  0  0  0
  8  3  2  0  0  0
  8  6  1  0  0  0
  3  4  1  0  0  0
  6  9  2  0  0  0
  4  5  2  0  0  0
  9  5  1  0  0  0
  9 10  1  0  0  0
 11 17  1  0  0  0
M  END
> <minimizedAffinity>
-10.19804

$$$$
6D5J_FV4_B_2001


 27 30  0  0  0  0  0  0  0  0999 V2000
   36.3212   29.2578   23.7830 N   0  0  0  0  0  0  0  0  0  0  0  0
   35.5668   28.9312   22.7116 C   0  0  0  0  0  0  0  0  0  0  0  0
   35.3826   29.7020   24.7493 C   0  0  0  0  0  0  0  0  0  0  0  0
   35.5955   30.1518   26.0589 C   0  0  0  0  0  0  0  0  0  0  0  0
   34.4888   30.5088   26.8000 C   0  0  0  0  0  0  0  0  0  0  0  0
   32.9380   29.9963   24.9708 C   0  0  0  0  0  0  0  0  0  0  0  0
   34.1913   29.1477   22.9206 N   0  0  0  0  0  0  0  0  0  0  0  0
   34.0639   29.6335   24.2252 C   0  0  0  0  0  0  0  0  0  0  0  0
   33.2051   30.4153   26.2410 C   0  0  0  0  0  0  0  0  0  0  0  0
   31.8473   30.8346   27.2520 Cl  0  0  0  0  0  0  0  0  0  0  0  0
   36.9453   26.7569   19.3768 N   0  0  0  0  0  0  0  0  0  0  0  0
   37.4376   28.1375   19.6068 C   0  0  0  0  0  0  0  0  0  0  0  0
   35.4877   26.9751   21.2887 C   0  0  0  0  0  0  0  0  0  0  0  0
   37.3474   28.4454   21.1107 C   0  0  0  0  0  0  0  0  0  0  0  0
   35.5468   26.5624   19.8124 C   0  0  0  0  0  0  0  0  0  0  0  0
   35.9428   28.3590   21.4677 N   0  0  0  0  0  0  0  0  0  0  0  0
   37.5399   26.1094   19.8941 H   0  0  0  0  0  0  0  0  0  0  0  0
   33.0988   28.9316   22.0004 C   0  0  0  0  0  0  0  0  0  0  0  0
   33.1641   32.5112   20.8470 C   0  0  0  0  0  0  0  0  0  0  0  0
   30.8763   31.2775   18.0536 C   0  0  0  0  0  0  0  0  0  0  0  0
   31.7338   31.2780   19.2890 C   0  0  0  0  0  0  0  0  0  0  0  0
   33.3738   31.3486   21.5758 C   0  0  0  0  0  0  0  0  0  0  0  0
   33.8243   33.7981   21.2093 C   0  0  0  0  0  0  0  0  0  0  0  0
   32.3358   32.4608   19.7179 C   0  0  0  0  0  0  0  0  0  0  0  0
   31.9538   30.1156   20.0319 C   0  0  0  0  0  0  0  0  0  0  0  0
   32.7779   30.1611   21.1725 C   0  0  0  0  0  0  0  0  0  0  0  0
   32.1208   33.5995   19.0648 F   0  0  0  0  0  0  0  0  0  0  0  0
 23 19  1  0  0  0
 11 12  1  0  0  0
 11 15  1  0  0  0
 12 14  1  0  0  0
 27 24  1  0  0  0
 19 24  2  0  0  0
 19 22  1  0  0  0
 24 21  1  0  0  0
 15 13  1  0  0  0
 22 26  2  0  0  0
 14 16  1  0  0  0
 21 20  1  0  0  0
 21 25  2  0  0  0
 26 25  1  0  0  0
 26 18  1  0  0  0
 16 13  1  0  0  0
 16  2  1  0  0  0
 18  7  1  0  0  0
  2  7  1  0  0  0
  2  1  2  0  0  0
  7  8  1  0  0  0
  1  3  1  0  0  0
  8  3  2  0  0  0
  8  6  1  0  0  0
  3  4  1  0  0  0
  6  9  2  0  0  0
  4  5  2  0  0  0
  9  5  1  0  0  0
  9 10  1  0  0  0
 11 17  1  0  0  0
M  END
> <minimizedAffinity>
-9.85485

$$$$
6D5J_FV4_B_2001


 27 30  0  0  0  0  0  0  0  0999 V2000
   36.9943   29.4220   23.9755 N   0  0  0  0  0  0  0  0  0  0  0  0
   35.6509   29.5447   23.9145 C   0  0  0  0  0  0  0  0  0  0  0  0
   37.3620   28.9591   22.6860 C   0  0  0  0  0  0  0  0  0  0  0  0
   38.6322   28.6697   22.1707 C   0  0  0  0  0  0  0  0  0  0  0  0
   38.7097   28.2498   20.8595 C   0  0  0  0  0  0  0  0  0  0  0  0
   36.2821   28.3819   20.5383 C   0  0  0  0  0  0  0  0  0  0  0  0
   35.1210   29.1778   22.6626 N   0  0  0  0  0  0  0  0  0  0  0  0
   36.2103   28.8093   21.8678 C   0  0  0  0  0  0  0  0  0  0  0  0
   37.5439   28.1258   20.0883 C   0  0  0  0  0  0  0  0  0  0  0  0
   37.7207   27.6390   18.4230 Cl  0  0  0  0  0  0  0  0  0  0  0  0
   33.1341   30.5134   27.1513 N   0  0  0  0  0  0  0  0  0  0  0  0
   32.5387   30.1655   25.8376 C   0  0  0  0  0  0  0  0  0  0  0  0
   35.3380   30.3220   26.1851 C   0  0  0  0  0  0  0  0  0  0  0  0
   33.5220   29.2589   25.0788 C   0  0  0  0  0  0  0  0  0  0  0  0
   34.4261   31.2202   27.0306 C   0  0  0  0  0  0  0  0  0  0  0  0
   34.7321   30.0359   24.8792 N   0  0  0  0  0  0  0  0  0  0  0  0
   33.2822   29.6532   27.6791 H   0  0  0  0  0  0  0  0  0  0  0  0
   33.7389   29.1637   22.2424 C   0  0  0  0  0  0  0  0  0  0  0  0
   32.1283   31.1903   19.5135 C   0  0  0  0  0  0  0  0  0  0  0  0
   33.7962   34.1626   21.2290 C   0  0  0  0  0  0  0  0  0  0  0  0
   33.3827   32.7492   20.9243 C   0  0  0  0  0  0  0  0  0  0  0  0
   32.5463   30.1326   20.3094 C   0  0  0  0  0  0  0  0  0  0  0  0
   31.2021   30.9917   18.3620 C   0  0  0  0  0  0  0  0  0  0  0  0
   32.5632   32.4849   19.8271 C   0  0  0  0  0  0  0  0  0  0  0  0
   33.7954   31.6752   21.7167 C   0  0  0  0  0  0  0  0  0  0  0  0
   33.3693   30.3708   21.4021 C   0  0  0  0  0  0  0  0  0  0  0  0
   32.1798   33.4716   19.0215 F   0  0  0  0  0  0  0  0  0  0  0  0
 23 19  1  0  0  0
 11 12  1  0  0  0
 11 15  1  0  0  0
 12 14  1  0  0  0
 27 24  1  0  0  0
 19 24  2  0  0  0
 19 22  1  0  0  0
 24 21  1  0  0  0
 15 13  1  0  0  0
 22 26  2  0  0  0
 14 16  1  0  0  0
 21 20  1  0  0  0
 21 25  2  0  0  0
 26 25  1  0  0  0
 26 18  1  0  0  0
 16 13  1  0  0  0
 16  2  1  0  0  0
 18  7  1  0  0  0
  2  7  1  0  0  0
  2  1  2  0  0  0
  7  8  1  0  0  0
  1  3  1  0  0  0
  8  3  2  0  0  0
  8  6  1  0  0  0
  3  4  1  0  0  0
  6  9  2  0  0  0
  4  5  2  0  0  0
  9  5  1  0  0  0
  9 10  1  0  0  0
 11 17  1  0  0  0
M  END
> <minimizedAffinity>
-9.24905

$$$$
6D5J_FV4_B_2001


 27 30  0  0  0  0  0  0  0  0999 V2000
   37.6774   28.9659   22.6124 N   0  0  0  0  0  0  0  0  0  0  0  0
   36.5292   29.5690   22.9886 C   0  0  0  0  0  0  0  0  0  0  0  0
   37.2573   27.9216   21.7492 C   0  0  0  0  0  0  0  0  0  0  0  0
   38.0231   26.9780   21.0521 C   0  0  0  0  0  0  0  0  0  0  0  0
   37.3530   26.0741   20.2549 C   0  0  0  0  0  0  0  0  0  0  0  0
   35.1565   27.0049   20.8229 C   0  0  0  0  0  0  0  0  0  0  0  0
   35.3842   28.9705   22.4287 N   0  0  0  0  0  0  0  0  0  0  0  0
   35.8418   27.9202   21.6278 C   0  0  0  0  0  0  0  0  0  0  0  0
   35.9536   26.1184   20.1604 C   0  0  0  0  0  0  0  0  0  0  0  0
   35.1759   24.9782   19.0943 Cl  0  0  0  0  0  0  0  0  0  0  0  0
   36.5593   33.0016   25.4311 N   0  0  0  0  0  0  0  0  0  0  0  0
   35.8443   31.7838   25.8861 C   0  0  0  0  0  0  0  0  0  0  0  0
   37.0812   31.8978   23.3486 C   0  0  0  0  0  0  0  0  0  0  0  0
   36.4936   30.5579   25.2225 C   0  0  0  0  0  0  0  0  0  0  0  0
   36.5152   33.1833   23.9653 C   0  0  0  0  0  0  0  0  0  0  0  0
   36.3213   30.7223   23.7903 N   0  0  0  0  0  0  0  0  0  0  0  0
   37.5348   32.9332   25.7209 H   0  0  0  0  0  0  0  0  0  0  0  0
   33.9985   29.3313   22.6201 C   0  0  0  0  0  0  0  0  0  0  0  0
   32.3291   30.8457   19.6089 C   0  0  0  0  0  0  0  0  0  0  0  0
   33.4346   34.1725   21.1154 C   0  0  0  0  0  0  0  0  0  0  0  0
   33.2457   32.6922   20.9296 C   0  0  0  0  0  0  0  0  0  0  0  0
   32.8298   29.9368   20.5308 C   0  0  0  0  0  0  0  0  0  0  0  0
   31.5278   30.4108   18.4289 C   0  0  0  0  0  0  0  0  0  0  0  0
   32.5549   32.2130   19.8167 C   0  0  0  0  0  0  0  0  0  0  0  0
   33.7437   31.7662   21.8493 C   0  0  0  0  0  0  0  0  0  0  0  0
   33.5280   30.3905   21.6420 C   0  0  0  0  0  0  0  0  0  0  0  0
   32.0990   33.0561   18.8943 F   0  0  0  0  0  0  0  0  0  0  0  0
 23 19  1  0  0  0
 11 12  1  0  0  0
 11 15  1  0  0  0
 12 14  1  0  0  0
 27 24  1  0  0  0
 19 24  2  0  0  0
 19 22  1  0  0  0
 24 21  1  0  0  0
 15 13  1  0  0  0
 22 26  2  0  0  0
 14 16  1  0  0  0
 21 20  1  0  0  0
 21 25  2  0  0  0
 26 25  1  0  0  0
 26 18  1  0  0  0
 16 13  1  0  0  0
 16  2  1  0  0  0
 18  7  1  0  0  0
  2  7  1  0  0  0
  2  1  2  0  0  0
  7  8  1  0  0  0
  1  3  1  0  0  0
  8  3  2  0  0  0
  8  6  1  0  0  0
  3  4  1  0  0  0
  6  9  2  0  0  0
  4  5  2  0  0  0
  9  5  1  0  0  0
  9 10  1  0  0  0
 11 17  1  0  0  0
M  END
> <minimizedAffinity>
-9.06156

$$$$
6D5J_FV4_B_2001


 27 30  0  0  0  0  0  0  0  0999 V2000
   36.9721   29.5297   23.9196 N   0  0  0  0  0  0  0  0  0  0  0  0
   35.6237   29.6000   23.8977 C   0  0  0  0  0  0  0  0  0  0  0  0
   37.3184   29.0531   22.6292 C   0  0  0  0  0  0  0  0  0  0  0  0
   38.5828   28.8008   22.0810 C   0  0  0  0  0  0  0  0  0  0  0  0
   38.6369   28.3556   20.7770 C   0  0  0  0  0  0  0  0  0  0  0  0
   36.1974   28.3883   20.5284 C   0  0  0  0  0  0  0  0  0  0  0  0
   35.0710   29.1859   22.6707 N   0  0  0  0  0  0  0  0  0  0  0  0
   36.1493   28.8417   21.8503 C   0  0  0  0  0  0  0  0  0  0  0  0
   37.4541   28.1704   20.0450 C   0  0  0  0  0  0  0  0  0  0  0  0
   37.5993   27.6544   18.3855 Cl  0  0  0  0  0  0  0  0  0  0  0  0
   33.1486   30.5246   27.1792 N   0  0  0  0  0  0  0  0  0  0  0  0
   32.5362   30.1843   25.8713 C   0  0  0  0  0  0  0  0  0  0  0  0
   35.3393   30.3556   26.1793 C   0  0  0  0  0  0  0  0  0  0  0  0
   33.5139   29.2906   25.0903 C   0  0  0  0  0  0  0  0  0  0  0  0
   34.4343   31.2406   27.0459 C   0  0  0  0  0  0  0  0  0  0  0  0
   34.7161   30.0769   24.8800 N   0  0  0  0  0  0  0  0  0  0  0  0
   33.3097   29.6608   27.6972 H   0  0  0  0  0  0  0  0  0  0  0  0
   33.6784   29.1100   22.2938 C   0  0  0  0  0  0  0  0  0  0  0  0
   33.4334   32.6261   20.9804 C   0  0  0  0  0  0  0  0  0  0  0  0
   31.1986   31.0863   18.2982 C   0  0  0  0  0  0  0  0  0  0  0  0
   32.0770   31.2123   19.5123 C   0  0  0  0  0  0  0  0  0  0  0  0
   33.7500   31.5189   21.7554 C   0  0  0  0  0  0  0  0  0  0  0  0
   33.9949   33.9768   21.2696 C   0  0  0  0  0  0  0  0  0  0  0  0
   32.5901   32.4577   19.8740 C   0  0  0  0  0  0  0  0  0  0  0  0
   32.4041   30.1067   20.3012 C   0  0  0  0  0  0  0  0  0  0  0  0
   33.2437   30.2704   21.4194 C   0  0  0  0  0  0  0  0  0  0  0  0
   32.2717   33.5443   19.1758 F   0  0  0  0  0  0  0  0  0  0  0  0
 23 19  1  0  0  0
 11 12  1  0  0  0
 11 15  1  0  0  0
 12 14  1  0  0  0
 27 24  1  0  0  0
 19 24  2  0  0  0
 19 22  1  0  0  0
 24 21  1  0  0  0
 15 13  1  0  0  0
 22 26  2  0  0  0
 14 16  1  0  0  0
 21 20  1  0  0  0
 21 25  2  0  0  0
 26 25  1  0  0  0
 26 18  1  0  0  0
 16 13  1  0  0  0
 16  2  1  0  0  0
 18  7  1  0  0  0
  2  7  1  0  0  0
  2  1  2  0  0  0
  7  8  1  0  0  0
  1  3  1  0  0  0
  8  3  2  0  0  0
  8  6  1  0  0  0
  3  4  1  0  0  0
  6  9  2  0  0  0
  4  5  2  0  0  0
  9  5  1  0  0  0
  9 10  1  0  0  0
 11 17  1  0  0  0
M  END
> <minimizedAffinity>
-8.97001

$$$$
6D5J_FV4_B_2001


 27 30  0  0  0  0  0  0  0  0999 V2000
   34.2412   32.5813   21.9982 N   0  0  0  0  0  0  0  0  0  0  0  0
   34.4769   31.3241   22.4314 C   0  0  0  0  0  0  0  0  0  0  0  0
   33.3213   32.4168   20.9311 C   0  0  0  0  0  0  0  0  0  0  0  0
   32.7157   33.3839   20.1182 C   0  0  0  0  0  0  0  0  0  0  0  0
   31.8313   32.9464   19.1549 C   0  0  0  0  0  0  0  0  0  0  0  0
   32.1292   30.5904   19.7669 C   0  0  0  0  0  0  0  0  0  0  0  0
   33.7716   30.3490   21.7004 N   0  0  0  0  0  0  0  0  0  0  0  0
   33.0233   31.0405   20.7433 C   0  0  0  0  0  0  0  0  0  0  0  0
   31.5626   31.5763   19.0138 C   0  0  0  0  0  0  0  0  0  0  0  0
   30.3954   31.0983   17.8094 Cl  0  0  0  0  0  0  0  0  0  0  0  0
   36.5900   30.4937   25.9803 N   0  0  0  0  0  0  0  0  0  0  0  0
   37.3334   30.6747   24.7090 C   0  0  0  0  0  0  0  0  0  0  0  0
   34.5100   30.7444   24.7809 C   0  0  0  0  0  0  0  0  0  0  0  0
   36.5006   31.5713   23.7779 C   0  0  0  0  0  0  0  0  0  0  0  0
   35.2644   29.8692   25.7900 C   0  0  0  0  0  0  0  0  0  0  0  0
   35.2583   30.8640   23.5239 N   0  0  0  0  0  0  0  0  0  0  0  0
   36.4595   31.4079   26.4134 H   0  0  0  0  0  0  0  0  0  0  0  0
   33.7916   28.9141   21.8667 C   0  0  0  0  0  0  0  0  0  0  0  0
   36.9715   27.8009   20.1943 C   0  0  0  0  0  0  0  0  0  0  0  0
   38.0916   26.8981   23.7284 C   0  0  0  0  0  0  0  0  0  0  0  0
   37.2321   27.3786   22.5917 C   0  0  0  0  0  0  0  0  0  0  0  0
   35.6907   28.2870   20.4184 C   0  0  0  0  0  0  0  0  0  0  0  0
   37.5831   27.7895   18.8344 C   0  0  0  0  0  0  0  0  0  0  0  0
   37.7208   27.3422   21.2859 C   0  0  0  0  0  0  0  0  0  0  0  0
   35.9417   27.8706   22.8025 C   0  0  0  0  0  0  0  0  0  0  0  0
   35.1801   28.3249   21.7091 C   0  0  0  0  0  0  0  0  0  0  0  0
   38.9280   26.8437   21.0338 F   0  0  0  0  0  0  0  0  0  0  0  0
 23 19  1  0  0  0
 11 12  1  0  0  0
 11 15  1  0  0  0
 12 14  1  0  0  0
 27 24  1  0  0  0
 19 24  2  0  0  0
 19 22  1  0  0  0
 24 21  1  0  0  0
 15 13  1  0  0  0
 22 26  2  0  0  0
 14 16  1  0  0  0
 21 20  1  0  0  0
 21 25  2  0  0  0
 26 25  1  0  0  0
 26 18  1  0  0  0
 16 13  1  0  0  0
 16  2  1  0  0  0
 18  7  1  0  0  0
  2  7  1  0  0  0
  2  1  2  0  0  0
  7  8  1  0  0  0
  1  3  1  0  0  0
  8  3  2  0  0  0
  8  6  1  0  0  0
  3  4  1  0  0  0
  6  9  2  0  0  0
  4  5  2  0  0  0
  9  5  1  0  0  0
  9 10  1  0  0  0
 11 17  1  0  0  0
M  END
> <minimizedAffinity>
-8.45736

$$$$
6D5J_FV4_B_2001


 27 30  0  0  0  0  0  0  0  0999 V2000
   38.3291   29.7283   25.1964 N   0  0  0  0  0  0  0  0  0  0  0  0
   37.2914   28.8651   25.1559 C   0  0  0  0  0  0  0  0  0  0  0  0
   37.8309   30.9034   24.5774 C   0  0  0  0  0  0  0  0  0  0  0  0
   38.4661   32.1319   24.3540 C   0  0  0  0  0  0  0  0  0  0  0  0
   37.7348   33.1274   23.7410 C   0  0  0  0  0  0  0  0  0  0  0  0
   35.7372   31.7185   23.5460 C   0  0  0  0  0  0  0  0  0  0  0  0
   36.1490   29.4067   24.5361 N   0  0  0  0  0  0  0  0  0  0  0  0
   36.4832   30.7137   24.1700 C   0  0  0  0  0  0  0  0  0  0  0  0
   36.4031   32.8949   23.3647 C   0  0  0  0  0  0  0  0  0  0  0  0
   35.5223   34.2145   22.6406 Cl  0  0  0  0  0  0  0  0  0  0  0  0
   37.1930   25.2261   27.2766 N   0  0  0  0  0  0  0  0  0  0  0  0
   37.9800   25.3233   26.0226 C   0  0  0  0  0  0  0  0  0  0  0  0
   36.4322   27.4945   26.9562 C   0  0  0  0  0  0  0  0  0  0  0  0
   38.3968   26.7893   25.8182 C   0  0  0  0  0  0  0  0  0  0  0  0
   35.9748   26.0622   27.2601 C   0  0  0  0  0  0  0  0  0  0  0  0
   37.1698   27.5545   25.6887 N   0  0  0  0  0  0  0  0  0  0  0  0
   37.7819   25.5251   28.0539 H   0  0  0  0  0  0  0  0  0  0  0  0
   34.8717   28.7746   24.2994 C   0  0  0  0  0  0  0  0  0  0  0  0
   34.9404   28.5184   20.5474 C   0  0  0  0  0  0  0  0  0  0  0  0
   31.4098   29.9523   20.7430 C   0  0  0  0  0  0  0  0  0  0  0  0
   32.7627   29.4502   21.1664 C   0  0  0  0  0  0  0  0  0  0  0  0
   35.3021   28.4720   21.8868 C   0  0  0  0  0  0  0  0  0  0  0  0
   35.8412   28.0165   19.4703 C   0  0  0  0  0  0  0  0  0  0  0  0
   33.6770   29.0187   20.2055 C   0  0  0  0  0  0  0  0  0  0  0  0
   33.1400   29.3976   22.5104 C   0  0  0  0  0  0  0  0  0  0  0  0
   34.4113   28.9042   22.8602 C   0  0  0  0  0  0  0  0  0  0  0  0
   33.3759   29.0894   18.9117 F   0  0  0  0  0  0  0  0  0  0  0  0
 23 19  1  0  0  0
 11 12  1  0  0  0
 11 15  1  0  0  0
 12 14  1  0  0  0
 27 24  1  0  0  0
 19 24  2  0  0  0
 19 22  1  0  0  0
 24 21  1  0  0  0
 15 13  1  0  0  0
 22 26  2  0  0  0
 14 16  1  0  0  0
 21 20  1  0  0  0
 21 25  2  0  0  0
 26 25  1  0  0  0
 26 18  1  0  0  0
 16 13  1  0  0  0
 16  2  1  0  0  0
 18  7  1  0  0  0
  2  7  1  0  0  0
  2  1  2  0  0  0
  7  8  1  0  0  0
  1  3  1  0  0  0
  8  3  2  0  0  0
  8  6  1  0  0  0
  3  4  1  0  0  0
  6  9  2  0  0  0
  4  5  2  0  0  0
  9  5  1  0  0  0
  9 10  1  0  0  0
 11 17  1  0  0  0
M  END
> <minimizedAffinity>
-7.76061

$$$$
6D5J_FV4_B_2001


 27 30  0  0  0  0  0  0  0  0999 V2000
   39.1014   29.6226   24.9208 N   0  0  0  0  0  0  0  0  0  0  0  0
   38.1263   28.6892   24.8797 C   0  0  0  0  0  0  0  0  0  0  0  0
   38.4722   30.8062   24.4567 C   0  0  0  0  0  0  0  0  0  0  0  0
   38.9995   32.0949   24.3019 C   0  0  0  0  0  0  0  0  0  0  0  0
   38.1517   33.0818   23.8449 C   0  0  0  0  0  0  0  0  0  0  0  0
   36.2472   31.5464   23.6736 C   0  0  0  0  0  0  0  0  0  0  0  0
   36.9007   29.1943   24.4050 N   0  0  0  0  0  0  0  0  0  0  0  0
   37.1112   30.5505   24.1395 C   0  0  0  0  0  0  0  0  0  0  0  0
   36.8122   32.7819   23.5533 C   0  0  0  0  0  0  0  0  0  0  0  0
   35.7839   34.0890   23.0284 Cl  0  0  0  0  0  0  0  0  0  0  0  0
   38.5640   24.8617   26.5850 N   0  0  0  0  0  0  0  0  0  0  0  0
   39.0033   25.0968   25.1875 C   0  0  0  0  0  0  0  0  0  0  0  0
   37.7532   27.1328   26.6953 C   0  0  0  0  0  0  0  0  0  0  0  0
   39.3582   26.5846   25.0293 C   0  0  0  0  0  0  0  0  0  0  0  0
   37.3848   25.6680   26.9629 C   0  0  0  0  0  0  0  0  0  0  0  0
   38.1414   27.3311   25.2937 N   0  0  0  0  0  0  0  0  0  0  0  0
   39.3334   25.0976   27.2117 H   0  0  0  0  0  0  0  0  0  0  0  0
   35.6548   28.4895   24.2098 C   0  0  0  0  0  0  0  0  0  0  0  0
   33.3514   29.1876   21.3193 C   0  0  0  0  0  0  0  0  0  0  0  0
   36.2667   27.9857   19.1708 C   0  0  0  0  0  0  0  0  0  0  0  0
   35.4480   28.3397   20.3816 C   0  0  0  0  0  0  0  0  0  0  0  0
   33.8673   29.0485   22.6004 C   0  0  0  0  0  0  0  0  0  0  0  0
   31.9932   29.7519   21.0738 C   0  0  0  0  0  0  0  0  0  0  0  0
   34.1476   28.8194   20.2265 C   0  0  0  0  0  0  0  0  0  0  0  0
   35.9544   28.2051   21.6766 C   0  0  0  0  0  0  0  0  0  0  0  0
   35.1566   28.5649   22.7794 C   0  0  0  0  0  0  0  0  0  0  0  0
   33.6103   28.9249   19.0142 F   0  0  0  0  0  0  0  0  0  0  0  0
 23 19  1  0  0  0
 11 12  1  0  0  0
 11 15  1  0  0  0
 12 14  1  0  0  0
 27 24  1  0  0  0
 19 24  2  0  0  0
 19 22  1  0  0  0
 24 21  1  0  0  0
 15 13  1  0  0  0
 22 26  2  0  0  0
 14 16  1  0  0  0
 21 20  1  0  0  0
 21 25  2  0  0  0
 26 25  1  0  0  0
 26 18  1  0  0  0
 16 13  1  0  0  0
 16  2  1  0  0  0
 18  7  1  0  0  0
  2  7  1  0  0  0
  2  1  2  0  0  0
  7  8  1  0  0  0
  1  3  1  0  0  0
  8  3  2  0  0  0
  8  6  1  0  0  0
  3  4  1  0  0  0
  6  9  2  0  0  0
  4  5  2  0  0  0
  9  5  1  0  0  0
  9 10  1  0  0  0
 11 17  1  0  0  0
M  END
> <minimizedAffinity>
-7.31998

$$$$
6D5J_FV4_B_2001


 27 30  0  0  0  0  0  0  0  0999 V2000
   33.2214   30.7900   24.0081 N   0  0  0  0  0  0  0  0  0  0  0  0
   33.4661   30.2096   22.8136 C   0  0  0  0  0  0  0  0  0  0  0  0
   33.9453   29.9985   24.9364 C   0  0  0  0  0  0  0  0  0  0  0  0
   34.0696   30.1414   26.3245 C   0  0  0  0  0  0  0  0  0  0  0  0
   34.8631   29.2324   26.9921 C   0  0  0  0  0  0  0  0  0  0  0  0
   35.4211   28.0151   24.9377 C   0  0  0  0  0  0  0  0  0  0  0  0
   34.2992   29.0787   22.9118 N   0  0  0  0  0  0  0  0  0  0  0  0
   34.6170   28.9413   24.2661 C   0  0  0  0  0  0  0  0  0  0  0  0
   35.5136   28.2101   26.2844 C   0  0  0  0  0  0  0  0  0  0  0  0
   36.5417   27.1270   27.1852 Cl  0  0  0  0  0  0  0  0  0  0  0  0
   31.7973   31.6764   19.2341 N   0  0  0  0  0  0  0  0  0  0  0  0
   31.9187   30.2122   19.4410 C   0  0  0  0  0  0  0  0  0  0  0  0
   32.9060   32.0505   21.3456 C   0  0  0  0  0  0  0  0  0  0  0  0
   31.9086   29.9285   20.9522 C   0  0  0  0  0  0  0  0  0  0  0  0
   32.8946   32.4411   19.8622 C   0  0  0  0  0  0  0  0  0  0  0  0
   33.0694   30.6008   21.5076 N   0  0  0  0  0  0  0  0  0  0  0  0
   30.9127   31.9890   19.6342 H   0  0  0  0  0  0  0  0  0  0  0  0
   34.7539   28.2047   21.8552 C   0  0  0  0  0  0  0  0  0  0  0  0
   38.0336   27.9308   20.0340 C   0  0  0  0  0  0  0  0  0  0  0  0
   39.4429   29.8382   23.0232 C   0  0  0  0  0  0  0  0  0  0  0  0
   38.4680   29.1284   22.1247 C   0  0  0  0  0  0  0  0  0  0  0  0
   36.6948   27.8105   20.3803 C   0  0  0  0  0  0  0  0  0  0  0  0
   38.5597   27.4244   18.7340 C   0  0  0  0  0  0  0  0  0  0  0  0
   38.9048   28.5798   20.9191 C   0  0  0  0  0  0  0  0  0  0  0  0
   37.1180   29.0000   22.4603 C   0  0  0  0  0  0  0  0  0  0  0  0
   36.2389   28.3414   21.5796 C   0  0  0  0  0  0  0  0  0  0  0  0
   40.1891   28.6424   20.5784 F   0  0  0  0  0  0  0  0  0  0  0  0
 23 19  1  0  0  0
 11 12  1  0  0  0
 11 15  1  0  0  0
 12 14  1  0  0  0
 27 24  1  0  0  0
 19 24  2  0  0  0
 19 22  1  0  0  0
 24 21  1  0  0  0
 15 13  1  0  0  0
 22 26  2  0  0  0
 14 16  1  0  0  0
 21 20  1  0  0  0
 21 25  2  0  0  0
 26 25  1  0  0  0
 26 18  1  0  0  0
 16 13  1  0  0  0
 16  2  1  0  0  0
 18  7  1  0  0  0
  2  7  1  0  0  0
  2  1  2  0  0  0
  7  8  1  0  0  0
  1  3  1  0  0  0
  8  3  2  0  0  0
  8  6  1  0  0  0
  3  4  1  0  0  0
  6  9  2  0  0  0
  4  5  2  0  0  0
  9  5  1  0  0  0
  9 10  1  0  0  0
 11 17  1  0  0  0
M  END
> <minimizedAffinity>
-7.21032

$$$$
