6D5J_FV4_B_2001
  RCSB PDB09151803293D
Coordinates from PDB:6D5J:B:2001 Model:1 without hydrogens
 26 29  0  0  0  0            999 V2000
   36.3860   28.7290   23.6230   N 0  0  0  0  0  0  0  0  0  0  0  0
   36.7360   26.6560   19.0300   N 0  0  0  0  0  0  0  0  0  0  0  0
   33.0440   28.9050   22.0520   C 0  0  0  0  0  0  0  0  0  0  0  0
   35.5290   28.5490   22.5950   C 0  0  0  0  0  0  0  0  0  0  0  0
   35.5780   29.2540   24.6640   C 0  0  0  0  0  0  0  0  0  0  0  0
   35.9310   29.6180   25.9700   C 0  0  0  0  0  0  0  0  0  0  0  0
   34.9310   30.0880   26.7950   C 0  0  0  0  0  0  0  0  0  0  0  0
   33.2140   29.8600   25.0590   C 0  0  0  0  0  0  0  0  0  0  0  0
   36.4950   28.1200   19.0380   C 0  0  0  0  0  0  0  0  0  0  0  0
   36.0340   26.5440   21.3370   C 0  0  0  0  0  0  0  0  0  0  0  0
   31.6570   31.3140   19.5180   C 0  0  0  0  0  0  0  0  0  0  0  0
   34.2110   28.9370   22.9030   N 0  0  0  0  0  0  0  0  0  0  0  0
   33.8710   33.8780   21.2740   C 0  0  0  0  0  0  0  0  0  0  0  0
   33.2170   32.5690   20.9270   C 0  0  0  0  0  0  0  0  0  0  0  0
   34.2320   29.3820   24.2280   C 0  0  0  0  0  0  0  0  0  0  0  0
   36.7220   28.6460   20.4650   C 0  0  0  0  0  0  0  0  0  0  0  0
   35.8440   25.9190   19.9490   C 0  0  0  0  0  0  0  0  0  0  0  0
   31.9340   30.1600   20.2380   C 0  0  0  0  0  0  0  0  0  0  0  0
   30.6560   31.3320   18.4130   C 0  0  0  0  0  0  0  0  0  0  0  0
   32.3130   32.5020   19.8670   C 0  0  0  0  0  0  0  0  0  0  0  0
   33.4860   31.4000   21.6430   C 0  0  0  0  0  0  0  0  0  0  0  0
   32.8370   30.2010   21.2920   C 0  0  0  0  0  0  0  0  0  0  0  0
   33.6140   30.1880   26.3210   C 0  0  0  0  0  0  0  0  0  0  0  0
   32.0580   33.5810   19.1320   F 0  0  0  0  0  0  0  0  0  0  0  0
   35.7460   27.9830   21.3110   N 0  0  0  0  0  0  0  0  0  0  0  0
   32.3910   30.7420   27.4340  Cl 0  0  0  0  0  0  0  0  0  0  0  0
 19 11  1  0  0  0  0
  2  9  1  0  0  0  0
  2 17  1  0  0  0  0
  9 16  1  0  0  0  0
 24 20  1  0  0  0  0
 11 20  2  0  0  0  0
 11 18  1  0  0  0  0
 20 14  1  0  0  0  0
 17 10  1  0  0  0  0
 18 22  2  0  0  0  0
 16 25  1  0  0  0  0
 14 13  1  0  0  0  0
 14 21  2  0  0  0  0
 22 21  1  0  0  0  0
 22  3  1  0  0  0  0
 25 10  1  0  0  0  0
 25  4  1  0  0  0  0
  3 12  1  0  0  0  0
  4 12  1  0  0  0  0
  4  1  2  0  0  0  0
 12 15  1  0  0  0  0
  1  5  1  0  0  0  0
 15  5  2  0  0  0  0
 15  8  1  0  0  0  0
  5  6  1  0  0  0  0
  8 23  2  0  0  0  0
  6  7  2  0  0  0  0
 23  7  1  0  0  0  0
 23 26  1  0  0  0  0
A    1
N1
A    2
N3
A    3
C4
A    4
C5
A    5
C6
A    6
C7
A    7
C8
A    8
C10
A    9
C13
A   10
C15
A   11
C17
A   12
N
A   13
C
A   14
C1
A   15
C11
A   16
C12
A   17
C14
A   18
C16
A   19
C18
A   20
C19
A   21
C2
A   22
C3
A   23
C9
A   24
F
A   25
N2
A   26
CL
M  END
>  <InstanceId>
6D5J_FV4_B_2001

>  <ChemCompId>
FV4

>  <PdbId>
6D5J

>  <ChainId>
B

>  <ResidueNumber>
2001

>  <InsertionCode>


>  <Model>
1

>  <AltIds>


>  <MissingHeavyAtoms>
0

>  <ObservedFormula>
C20 N4 F Cl

>  <Name>
6-chloro-1-[(4-fluoro-3,5-dimethylphenyl)methyl]-2-(piperazin-1-yl)-1H-benzimidazole

>  <SystematicName>
6-chloranyl-1-[(4-fluoranyl-3,5-dimethyl-phenyl)methyl]-2-piperazin-1-yl-benzimidazole

>  <Synonyms>


>  <Type>
NON-POLYMER

>  <Formula>
C20 H22 Cl F N4

>  <MolecularWeight>
372.867

>  <ModifiedDate>
2018-09-14

>  <Parent>


>  <OneLetterCode>


>  <SubcomponentList>


>  <AmbiguousFlag>
N

>  <InChI>
InChI=1S/C20H22ClFN4/c1-13-9-15(10-14(2)19(13)22)12-26-18-11-16(21)3-4-17(18)24-20(26)25-7-5-23-6-8-25/h3-4,9-11,23H,5-8,12H2,1-2H3

>  <InChIKey>
HQRYJQRNCCMWFK-UHFFFAOYSA-N

>  <SMILES>
Cc1cc(cc(c1F)C)Cn2c3cc(ccc3nc2N4CCNCC4)Cl

$$$$
