2VWM_LZI_A_1244


 42 46  0  0  0  0  0  0  0  0999 V2000
   15.3858    4.3841   25.0730 N   0  0  0  0  0  0  0  0  0  0  0  0
   15.6917    3.3678   24.0397 C   0  0  0  0  0  0  0  0  0  0  0  0
   14.3543    4.0694   25.8166 C   0  0  0  0  0  0  0  0  0  0  0  0
   13.8161    2.7204   25.4179 C   0  0  0  0  0  0  0  0  0  0  0  0
   14.8496    2.2147   24.4671 C   0  0  0  0  0  0  0  0  0  0  0  0
   15.1491    3.8153   22.7264 C   0  0  0  0  0  0  0  0  0  0  0  0
   16.0471    3.9882   21.6965 N   0  0  0  0  0  0  0  0  0  0  0  0
   13.9379    4.0403   22.5886 O   0  0  0  0  0  0  0  0  0  0  0  0
   17.0024    3.8621   21.8983 H   0  0  0  0  0  0  0  0  0  0  0  0
   15.6899    4.3408   20.3423 C   0  0  0  0  0  0  0  0  0  0  0  0
   15.8119    3.1412   19.3951 C   0  0  0  0  0  0  0  0  0  0  0  0
   16.9974    2.2303   19.5518 C   0  0  0  0  0  0  0  0  0  0  0  0
   16.9044    3.1413   18.3619 C   0  0  0  0  0  0  0  0  0  0  0  0
   13.7173    1.8077   26.5482 N   0  0  0  0  0  0  0  0  0  0  0  0
   12.5582    1.8252   27.2599 C   0  0  0  0  0  0  0  0  0  0  0  0
   11.6617    2.6079   26.9228 O   0  0  0  0  0  0  0  0  0  0  0  0
   14.4575    1.2041   26.7870 H   0  0  0  0  0  0  0  0  0  0  0  0
   12.4506    0.9279   28.3699 C   0  0  0  0  0  0  0  0  0  0  0  0
   13.2380   -0.1439   28.6651 C   0  0  0  0  0  0  0  0  0  0  0  0
   12.8107   -0.7831   29.8413 C   0  0  0  0  0  0  0  0  0  0  0  0
   11.7433   -0.1060   30.3727 C   0  0  0  0  0  0  0  0  0  0  0  0
   11.1747    1.2334   29.4882 S   0  0  0  0  0  0  0  0  0  0  0  0
   10.9393   -0.4146   31.8729 Cl  0  0  0  0  0  0  0  0  0  0  0  0
   15.7354    5.7975   24.8353 C   0  0  0  0  0  0  0  0  0  0  0  0
   16.2091    5.9861   27.3376 N   0  0  0  0  0  0  0  0  0  0  0  0
   16.1357    6.5780   26.0475 C   0  0  0  0  0  0  0  0  0  0  0  0
   16.4179    7.7767   25.9382 O   0  0  0  0  0  0  0  0  0  0  0  0
   16.0553    5.0223   27.4668 H   0  0  0  0  0  0  0  0  0  0  0  0
   17.0844    8.4845   30.5825 C   0  0  0  0  0  0  0  0  0  0  0  0
   15.7637    8.3763   30.1648 C   0  0  0  0  0  0  0  0  0  0  0  0
   15.5041    7.5451   29.1012 C   0  0  0  0  0  0  0  0  0  0  0  0
   14.2135    7.4457   28.6743 F   0  0  0  0  0  0  0  0  0  0  0  0
   18.1211    7.7876   29.9683 C   0  0  0  0  0  0  0  0  0  0  0  0
   17.8414    6.9636   28.8680 C   0  0  0  0  0  0  0  0  0  0  0  0
   16.5163    6.8468   28.4459 C   0  0  0  0  0  0  0  0  0  0  0  0
   18.0066   11.0251   30.3218 O   0  0  0  0  0  0  0  0  0  0  0  0
   17.8195   10.6636   31.5136 C   0  0  0  0  0  0  0  0  0  0  0  0
   18.0694   11.4771   32.6707 C   0  0  0  0  0  0  0  0  0  0  0  0
   17.8518   10.9999   33.9289 C   0  0  0  0  0  0  0  0  0  0  0  0
   17.3456    9.6780   34.1180 C   0  0  0  0  0  0  0  0  0  0  0  0
   17.1187    8.8770   33.0465 C   0  0  0  0  0  0  0  0  0  0  0  0
   17.3282    9.3421   31.7300 N   0  0  0  0  0  0  0  0  0  0  0  0
 36 37  2  0  0  0
 37 38  1  0  0  0
 37 42  1  0  0  0
 38 39  2  0  0  0
 39 40  1  0  0  0
 40 41  2  0  0  0
 41 42  1  0  0  0
 42 29  1  0  0  0
 29 30  1  0  0  0
 29 33  2  0  0  0
 30 31  2  0  0  0
 31 32  1  0  0  0
 31 35  1  0  0  0
 33 34  1  0  0  0
 34 35  2  0  0  0
 35 25  1  0  0  0
 25 26  1  0  0  0
 26 27  2  0  0  0
 26 24  1  0  0  0
 24  1  1  0  0  0
  1  2  1  0  0  0
  1  3  1  0  0  0
  2  6  1  0  0  0
  2  5  1  0  0  0
  6  7  1  0  0  0
  6  8  2  0  0  0
  7 10  1  0  0  0
  3  4  1  0  0  0
  4  5  1  0  0  0
  4 14  1  0  0  0
 14 15  1  0  0  0
 15 16  2  0  0  0
 15 18  1  0  0  0
 18 19  2  0  0  0
 18 22  1  0  0  0
 19 20  1  0  0  0
 20 21  2  0  0  0
 21 22  1  0  0  0
 21 23  1  0  0  0
 10 11  1  0  0  0
 11 12  1  0  0  0
 11 13  1  0  0  0
 12 13  1  0  0  0
 25 28  1  0  0  0
  7  9  1  0  0  0
 14 17  1  0  0  0
M  END
> <minimizedAffinity>
-10.21324

$$$$
2VWM_LZI_A_1244


 42 46  0  0  0  0  0  0  0  0999 V2000
   11.0931    6.1726   26.6668 N   0  0  0  0  0  0  0  0  0  0  0  0
   10.5129    4.8945   26.1936 C   0  0  0  0  0  0  0  0  0  0  0  0
   11.4595    6.9655   25.6907 C   0  0  0  0  0  0  0  0  0  0  0  0
   11.1255    6.3436   24.3602 C   0  0  0  0  0  0  0  0  0  0  0  0
   10.3037    5.1573   24.7414 C   0  0  0  0  0  0  0  0  0  0  0  0
   11.5414    3.8200   26.2783 C   0  0  0  0  0  0  0  0  0  0  0  0
   11.5330    3.0231   27.4014 N   0  0  0  0  0  0  0  0  0  0  0  0
   12.3786    3.6766   25.3753 O   0  0  0  0  0  0  0  0  0  0  0  0
   10.8865    3.2417   28.1110 H   0  0  0  0  0  0  0  0  0  0  0  0
   12.4030    1.8902   27.6146 C   0  0  0  0  0  0  0  0  0  0  0  0
   11.6880    0.7626   28.3686 C   0  0  0  0  0  0  0  0  0  0  0  0
   11.4118    0.9519   29.8340 C   0  0  0  0  0  0  0  0  0  0  0  0
   12.4579   -0.0290   29.3893 C   0  0  0  0  0  0  0  0  0  0  0  0
   10.3298    7.2276   23.5201 N   0  0  0  0  0  0  0  0  0  0  0  0
   10.9239    7.7182   22.3990 C   0  0  0  0  0  0  0  0  0  0  0  0
   12.0943    7.4010   22.1552 O   0  0  0  0  0  0  0  0  0  0  0  0
    9.4021    7.4602   23.7533 H   0  0  0  0  0  0  0  0  0  0  0  0
   10.1475    8.5843   21.5648 C   0  0  0  0  0  0  0  0  0  0  0  0
   10.2938    9.9257   21.3772 C   0  0  0  0  0  0  0  0  0  0  0  0
    9.3321   10.4242   20.4819 C   0  0  0  0  0  0  0  0  0  0  0  0
    8.5505    9.3947   20.0242 C   0  0  0  0  0  0  0  0  0  0  0  0
    8.8679    7.8520   20.6714 S   0  0  0  0  0  0  0  0  0  0  0  0
    7.3144    9.4652   18.8162 Cl  0  0  0  0  0  0  0  0  0  0  0  0
   11.7761    6.2267   27.9733 C   0  0  0  0  0  0  0  0  0  0  0  0
   14.0224    7.4313   27.8168 N   0  0  0  0  0  0  0  0  0  0  0  0
   13.2716    6.2292   27.9223 C   0  0  0  0  0  0  0  0  0  0  0  0
   13.8877    5.1588   27.9761 O   0  0  0  0  0  0  0  0  0  0  0  0
   13.5820    8.3116   27.8337 H   0  0  0  0  0  0  0  0  0  0  0  0
   18.1787    7.0712   27.4519 C   0  0  0  0  0  0  0  0  0  0  0  0
   17.6381    7.2754   28.7154 C   0  0  0  0  0  0  0  0  0  0  0  0
   16.2709    7.3845   28.8069 C   0  0  0  0  0  0  0  0  0  0  0  0
   15.7331    7.6013   30.0404 F   0  0  0  0  0  0  0  0  0  0  0  0
   17.3898    6.9736   26.3092 C   0  0  0  0  0  0  0  0  0  0  0  0
   15.9982    7.1128   26.4179 C   0  0  0  0  0  0  0  0  0  0  0  0
   15.4480    7.3137   27.6846 C   0  0  0  0  0  0  0  0  0  0  0  0
   19.8080    9.1087   26.6987 O   0  0  0  0  0  0  0  0  0  0  0  0
   20.4128    8.0391   26.9747 C   0  0  0  0  0  0  0  0  0  0  0  0
   21.8352    7.8537   26.9004 C   0  0  0  0  0  0  0  0  0  0  0  0
   22.4071    6.6543   27.2045 C   0  0  0  0  0  0  0  0  0  0  0  0
   21.5953    5.5584   27.6278 C   0  0  0  0  0  0  0  0  0  0  0  0
   20.2466    5.6948   27.6886 C   0  0  0  0  0  0  0  0  0  0  0  0
   19.6229    6.9248   27.3858 N   0  0  0  0  0  0  0  0  0  0  0  0
 36 37  2  0  0  0
 37 38  1  0  0  0
 37 42  1  0  0  0
 38 39  2  0  0  0
 39 40  1  0  0  0
 40 41  2  0  0  0
 41 42  1  0  0  0
 42 29  1  0  0  0
 29 30  1  0  0  0
 29 33  2  0  0  0
 30 31  2  0  0  0
 31 32  1  0  0  0
 31 35  1  0  0  0
 33 34  1  0  0  0
 34 35  2  0  0  0
 35 25  1  0  0  0
 25 26  1  0  0  0
 26 27  2  0  0  0
 26 24  1  0  0  0
 24  1  1  0  0  0
  1  2  1  0  0  0
  1  3  1  0  0  0
  2  6  1  0  0  0
  2  5  1  0  0  0
  6  7  1  0  0  0
  6  8  2  0  0  0
  7 10  1  0  0  0
  3  4  1  0  0  0
  4  5  1  0  0  0
  4 14  1  0  0  0
 14 15  1  0  0  0
 15 16  2  0  0  0
 15 18  1  0  0  0
 18 19  2  0  0  0
 18 22  1  0  0  0
 19 20  1  0  0  0
 20 21  2  0  0  0
 21 22  1  0  0  0
 21 23  1  0  0  0
 10 11  1  0  0  0
 11 12  1  0  0  0
 11 13  1  0  0  0
 12 13  1  0  0  0
 25 28  1  0  0  0
  7  9  1  0  0  0
 14 17  1  0  0  0
M  END
> <minimizedAffinity>
-9.03088

$$$$
2VWM_LZI_A_1244


 42 46  0  0  0  0  0  0  0  0999 V2000
   13.1851    4.7087   25.1244 N   0  0  0  0  0  0  0  0  0  0  0  0
   12.8351    3.2851   25.3368 C   0  0  0  0  0  0  0  0  0  0  0  0
   14.4606    4.8974   24.8937 C   0  0  0  0  0  0  0  0  0  0  0  0
   15.1862    3.5779   24.8645 C   0  0  0  0  0  0  0  0  0  0  0  0
   14.0741    2.5828   24.8971 C   0  0  0  0  0  0  0  0  0  0  0  0
   12.7013    3.0185   26.7965 C   0  0  0  0  0  0  0  0  0  0  0  0
   11.5035    2.5018   27.2381 N   0  0  0  0  0  0  0  0  0  0  0  0
   13.6326    3.2780   27.5724 O   0  0  0  0  0  0  0  0  0  0  0  0
   10.7831    2.3901   26.5764 H   0  0  0  0  0  0  0  0  0  0  0  0
   11.2267    2.1118   28.6009 C   0  0  0  0  0  0  0  0  0  0  0  0
   11.3853    0.5996   28.7992 C   0  0  0  0  0  0  0  0  0  0  0  0
   11.7149    0.0946   30.1761 C   0  0  0  0  0  0  0  0  0  0  0  0
   12.7526    0.0462   29.0920 C   0  0  0  0  0  0  0  0  0  0  0  0
   15.9558    3.3963   23.6418 N   0  0  0  0  0  0  0  0  0  0  0  0
   17.3018    3.5755   23.7239 C   0  0  0  0  0  0  0  0  0  0  0  0
   17.7979    3.8861   24.8135 O   0  0  0  0  0  0  0  0  0  0  0  0
   15.5209    3.1543   22.7923 H   0  0  0  0  0  0  0  0  0  0  0  0
   18.0668    3.3944   22.5278 C   0  0  0  0  0  0  0  0  0  0  0  0
   19.3460    3.7913   22.2786 C   0  0  0  0  0  0  0  0  0  0  0  0
   19.7479    3.4342   20.9803 C   0  0  0  0  0  0  0  0  0  0  0  0
   18.7382    2.7466   20.3575 C   0  0  0  0  0  0  0  0  0  0  0  0
   17.2891    2.5636   21.2329 S   0  0  0  0  0  0  0  0  0  0  0  0
   18.7814    1.9862   18.8043 Cl  0  0  0  0  0  0  0  0  0  0  0  0
   12.3739    5.7642   25.7601 C   0  0  0  0  0  0  0  0  0  0  0  0
   14.4843    6.9527   26.5698 N   0  0  0  0  0  0  0  0  0  0  0  0
   13.1032    6.6520   26.7189 C   0  0  0  0  0  0  0  0  0  0  0  0
   12.4970    7.1498   27.6744 O   0  0  0  0  0  0  0  0  0  0  0  0
   14.9957    6.6322   25.7920 H   0  0  0  0  0  0  0  0  0  0  0  0
   16.3153    9.2345   29.5662 C   0  0  0  0  0  0  0  0  0  0  0  0
   16.0859    7.8852   29.8055 C   0  0  0  0  0  0  0  0  0  0  0  0
   15.4886    7.1590   28.8029 C   0  0  0  0  0  0  0  0  0  0  0  0
   15.2449    5.8382   29.0354 F   0  0  0  0  0  0  0  0  0  0  0  0
   15.9674    9.8497   28.3669 C   0  0  0  0  0  0  0  0  0  0  0  0
   15.3354    9.0989   27.3646 C   0  0  0  0  0  0  0  0  0  0  0  0
   15.1060    7.7419   27.5965 C   0  0  0  0  0  0  0  0  0  0  0  0
   16.0162    8.5872   32.1863 O   0  0  0  0  0  0  0  0  0  0  0  0
   16.7676    9.5769   31.9816 C   0  0  0  0  0  0  0  0  0  0  0  0
   17.4218   10.3411   33.0067 C   0  0  0  0  0  0  0  0  0  0  0  0
   18.2092   11.4097   32.6961 C   0  0  0  0  0  0  0  0  0  0  0  0
   18.4163   11.7765   31.3316 C   0  0  0  0  0  0  0  0  0  0  0  0
   17.7960   11.0876   30.3406 C   0  0  0  0  0  0  0  0  0  0  0  0
   16.9787    9.9727   30.6276 N   0  0  0  0  0  0  0  0  0  0  0  0
 36 37  2  0  0  0
 37 38  1  0  0  0
 37 42  1  0  0  0
 38 39  2  0  0  0
 39 40  1  0  0  0
 40 41  2  0  0  0
 41 42  1  0  0  0
 42 29  1  0  0  0
 29 30  1  0  0  0
 29 33  2  0  0  0
 30 31  2  0  0  0
 31 32  1  0  0  0
 31 35  1  0  0  0
 33 34  1  0  0  0
 34 35  2  0  0  0
 35 25  1  0  0  0
 25 26  1  0  0  0
 26 27  2  0  0  0
 26 24  1  0  0  0
 24  1  1  0  0  0
  1  2  1  0  0  0
  1  3  1  0  0  0
  2  6  1  0  0  0
  2  5  1  0  0  0
  6  7  1  0  0  0
  6  8  2  0  0  0
  7 10  1  0  0  0
  3  4  1  0  0  0
  4  5  1  0  0  0
  4 14  1  0  0  0
 14 15  1  0  0  0
 15 16  2  0  0  0
 15 18  1  0  0  0
 18 19  2  0  0  0
 18 22  1  0  0  0
 19 20  1  0  0  0
 20 21  2  0  0  0
 21 22  1  0  0  0
 21 23  1  0  0  0
 10 11  1  0  0  0
 11 12  1  0  0  0
 11 13  1  0  0  0
 12 13  1  0  0  0
 25 28  1  0  0  0
  7  9  1  0  0  0
 14 17  1  0  0  0
M  END
> <minimizedAffinity>
-8.91589

$$$$
2VWM_LZI_A_1244


 42 46  0  0  0  0  0  0  0  0999 V2000
   13.0490    4.3664   27.3484 N   0  0  0  0  0  0  0  0  0  0  0  0
   11.7806    5.1165   27.4990 C   0  0  0  0  0  0  0  0  0  0  0  0
   14.1088    5.1359   27.3687 C   0  0  0  0  0  0  0  0  0  0  0  0
   13.7079    6.5701   27.5941 C   0  0  0  0  0  0  0  0  0  0  0  0
   12.2554    6.4648   27.9213 C   0  0  0  0  0  0  0  0  0  0  0  0
   11.1484    5.2976   26.1622 C   0  0  0  0  0  0  0  0  0  0  0  0
   11.5638    6.3711   25.4060 N   0  0  0  0  0  0  0  0  0  0  0  0
   10.2689    4.5170   25.7701 O   0  0  0  0  0  0  0  0  0  0  0  0
   12.2123    6.9910   25.8115 H   0  0  0  0  0  0  0  0  0  0  0  0
   11.1176    6.6542   24.0619 C   0  0  0  0  0  0  0  0  0  0  0  0
   12.0161    7.6893   23.3745 C   0  0  0  0  0  0  0  0  0  0  0  0
   11.8273    9.1386   23.7259 C   0  0  0  0  0  0  0  0  0  0  0  0
   11.4031    8.6331   22.3772 C   0  0  0  0  0  0  0  0  0  0  0  0
   14.4102    7.1710   28.7193 N   0  0  0  0  0  0  0  0  0  0  0  0
   15.2878    8.1719   28.4395 C   0  0  0  0  0  0  0  0  0  0  0  0
   15.4499    8.5127   27.2615 O   0  0  0  0  0  0  0  0  0  0  0  0
   14.2564    6.8660   29.6427 H   0  0  0  0  0  0  0  0  0  0  0  0
   15.9791    8.7715   29.5400 C   0  0  0  0  0  0  0  0  0  0  0  0
   16.0600    8.3279   30.8256 C   0  0  0  0  0  0  0  0  0  0  0  0
   16.8293    9.1965   31.6183 C   0  0  0  0  0  0  0  0  0  0  0  0
   17.3119   10.2210   30.8452 C   0  0  0  0  0  0  0  0  0  0  0  0
   16.8289   10.2352   29.2123 S   0  0  0  0  0  0  0  0  0  0  0  0
   18.4074   11.4735   31.3178 Cl  0  0  0  0  0  0  0  0  0  0  0  0
   13.0617    3.0922   26.6050 C   0  0  0  0  0  0  0  0  0  0  0  0
   14.9317    2.3263   25.0436 N   0  0  0  0  0  0  0  0  0  0  0  0
   13.7766    3.1167   25.2907 C   0  0  0  0  0  0  0  0  0  0  0  0
   13.3586    3.8404   24.3798 O   0  0  0  0  0  0  0  0  0  0  0  0
   15.2667    1.6879   25.7140 H   0  0  0  0  0  0  0  0  0  0  0  0
   16.8805    2.8090   21.3684 C   0  0  0  0  0  0  0  0  0  0  0  0
   17.4192    3.4240   22.4918 C   0  0  0  0  0  0  0  0  0  0  0  0
   16.7624    3.2443   23.6858 C   0  0  0  0  0  0  0  0  0  0  0  0
   17.2749    3.8576   24.7900 F   0  0  0  0  0  0  0  0  0  0  0  0
   15.7255    2.0339   21.4234 C   0  0  0  0  0  0  0  0  0  0  0  0
   15.0540    1.8824   22.6457 C   0  0  0  0  0  0  0  0  0  0  0  0
   15.5921    2.4938   23.7790 C   0  0  0  0  0  0  0  0  0  0  0  0
   16.2878    4.7898   19.6082 O   0  0  0  0  0  0  0  0  0  0  0  0
   17.2376    4.0456   19.2473 C   0  0  0  0  0  0  0  0  0  0  0  0
   17.9675    4.1786   18.0175 C   0  0  0  0  0  0  0  0  0  0  0  0
   18.9754    3.3178   17.6987 C   0  0  0  0  0  0  0  0  0  0  0  0
   19.3402    2.2734   18.6016 C   0  0  0  0  0  0  0  0  0  0  0  0
   18.6568    2.1082   19.7622 C   0  0  0  0  0  0  0  0  0  0  0  0
   17.6117    2.9854   20.1251 N   0  0  0  0  0  0  0  0  0  0  0  0
 36 37  2  0  0  0
 37 38  1  0  0  0
 37 42  1  0  0  0
 38 39  2  0  0  0
 39 40  1  0  0  0
 40 41  2  0  0  0
 41 42  1  0  0  0
 42 29  1  0  0  0
 29 30  1  0  0  0
 29 33  2  0  0  0
 30 31  2  0  0  0
 31 32  1  0  0  0
 31 35  1  0  0  0
 33 34  1  0  0  0
 34 35  2  0  0  0
 35 25  1  0  0  0
 25 26  1  0  0  0
 26 27  2  0  0  0
 26 24  1  0  0  0
 24  1  1  0  0  0
  1  2  1  0  0  0
  1  3  1  0  0  0
  2  6  1  0  0  0
  2  5  1  0  0  0
  6  7  1  0  0  0
  6  8  2  0  0  0
  7 10  1  0  0  0
  3  4  1  0  0  0
  4  5  1  0  0  0
  4 14  1  0  0  0
 14 15  1  0  0  0
 15 16  2  0  0  0
 15 18  1  0  0  0
 18 19  2  0  0  0
 18 22  1  0  0  0
 19 20  1  0  0  0
 20 21  2  0  0  0
 21 22  1  0  0  0
 21 23  1  0  0  0
 10 11  1  0  0  0
 11 12  1  0  0  0
 11 13  1  0  0  0
 12 13  1  0  0  0
 25 28  1  0  0  0
  7  9  1  0  0  0
 14 17  1  0  0  0
M  END
> <minimizedAffinity>
-8.87750

$$$$
2VWM_LZI_A_1244


 42 46  0  0  0  0  0  0  0  0999 V2000
   14.3471    4.0696   23.2927 N   0  0  0  0  0  0  0  0  0  0  0  0
   14.2835    2.6413   23.6797 C   0  0  0  0  0  0  0  0  0  0  0  0
   15.5215    4.4287   22.8371 C   0  0  0  0  0  0  0  0  0  0  0  0
   16.4506    3.2439   22.7984 C   0  0  0  0  0  0  0  0  0  0  0  0
   15.5442    2.0970   23.1001 C   0  0  0  0  0  0  0  0  0  0  0  0
   14.4191    2.5204   25.1585 C   0  0  0  0  0  0  0  0  0  0  0  0
   13.2848    2.2087   25.8746 N   0  0  0  0  0  0  0  0  0  0  0  0
   15.5120    2.7177   25.7092 O   0  0  0  0  0  0  0  0  0  0  0  0
   12.4371    2.1387   25.3788 H   0  0  0  0  0  0  0  0  0  0  0  0
   13.2476    1.9769   27.2996 C   0  0  0  0  0  0  0  0  0  0  0  0
   11.9401    1.3002   27.7281 C   0  0  0  0  0  0  0  0  0  0  0  0
   11.1160    1.9606   28.7980 C   0  0  0  0  0  0  0  0  0  0  0  0
   11.8555    0.6891   29.0995 C   0  0  0  0  0  0  0  0  0  0  0  0
   17.0467    3.0506   21.4840 N   0  0  0  0  0  0  0  0  0  0  0  0
   18.4037    2.9764   21.4234 C   0  0  0  0  0  0  0  0  0  0  0  0
   19.0553    3.0824   22.4694 O   0  0  0  0  0  0  0  0  0  0  0  0
   16.4917    2.9768   20.6742 H   0  0  0  0  0  0  0  0  0  0  0  0
   18.9980    2.7818   20.1359 C   0  0  0  0  0  0  0  0  0  0  0  0
   20.3189    2.6493   19.8299 C   0  0  0  0  0  0  0  0  0  0  0  0
   20.5085    2.4781   18.4481 C   0  0  0  0  0  0  0  0  0  0  0  0
   19.2923    2.4514   17.8154 C   0  0  0  0  0  0  0  0  0  0  0  0
   17.9196    2.6927   18.7938 S   0  0  0  0  0  0  0  0  0  0  0  0
   18.9799    2.1397   16.1428 Cl  0  0  0  0  0  0  0  0  0  0  0  0
   13.4716    5.0492   23.9637 C   0  0  0  0  0  0  0  0  0  0  0  0
   14.6528    5.3499   26.2078 N   0  0  0  0  0  0  0  0  0  0  0  0
   14.1293    5.8983   25.0056 C   0  0  0  0  0  0  0  0  0  0  0  0
   14.2311    7.1173   24.8271 O   0  0  0  0  0  0  0  0  0  0  0  0
   14.6525    4.3786   26.3686 H   0  0  0  0  0  0  0  0  0  0  0  0
   16.1815    8.0085   29.0595 C   0  0  0  0  0  0  0  0  0  0  0  0
   14.8113    7.7803   29.0314 C   0  0  0  0  0  0  0  0  0  0  0  0
   14.3374    6.8989   28.0890 C   0  0  0  0  0  0  0  0  0  0  0  0
   12.9926    6.6817   28.0435 F   0  0  0  0  0  0  0  0  0  0  0  0
   17.0612    7.3801   28.1825 C   0  0  0  0  0  0  0  0  0  0  0  0
   16.5571    6.5032   27.2106 C   0  0  0  0  0  0  0  0  0  0  0  0
   15.1821    6.2659   27.1795 C   0  0  0  0  0  0  0  0  0  0  0  0
   16.7716   10.6063   28.5337 O   0  0  0  0  0  0  0  0  0  0  0  0
   16.9570   10.2672   29.7323 C   0  0  0  0  0  0  0  0  0  0  0  0
   17.4493   11.1330   30.7672 C   0  0  0  0  0  0  0  0  0  0  0  0
   17.6342   10.6782   32.0389 C   0  0  0  0  0  0  0  0  0  0  0  0
   17.3169    9.3261   32.3712 C   0  0  0  0  0  0  0  0  0  0  0  0
   16.8694    8.4771   31.4119 C   0  0  0  0  0  0  0  0  0  0  0  0
   16.6616    8.9174   30.0866 N   0  0  0  0  0  0  0  0  0  0  0  0
 36 37  2  0  0  0
 37 38  1  0  0  0
 37 42  1  0  0  0
 38 39  2  0  0  0
 39 40  1  0  0  0
 40 41  2  0  0  0
 41 42  1  0  0  0
 42 29  1  0  0  0
 29 30  1  0  0  0
 29 33  2  0  0  0
 30 31  2  0  0  0
 31 32  1  0  0  0
 31 35  1  0  0  0
 33 34  1  0  0  0
 34 35  2  0  0  0
 35 25  1  0  0  0
 25 26  1  0  0  0
 26 27  2  0  0  0
 26 24  1  0  0  0
 24  1  1  0  0  0
  1  2  1  0  0  0
  1  3  1  0  0  0
  2  6  1  0  0  0
  2  5  1  0  0  0
  6  7  1  0  0  0
  6  8  2  0  0  0
  7 10  1  0  0  0
  3  4  1  0  0  0
  4  5  1  0  0  0
  4 14  1  0  0  0
 14 15  1  0  0  0
 15 16  2  0  0  0
 15 18  1  0  0  0
 18 19  2  0  0  0
 18 22  1  0  0  0
 19 20  1  0  0  0
 20 21  2  0  0  0
 21 22  1  0  0  0
 21 23  1  0  0  0
 10 11  1  0  0  0
 11 12  1  0  0  0
 11 13  1  0  0  0
 12 13  1  0  0  0
 25 28  1  0  0  0
  7  9  1  0  0  0
 14 17  1  0  0  0
M  END
> <minimizedAffinity>
-8.74611

$$$$
2VWM_LZI_A_1244


 42 46  0  0  0  0  0  0  0  0999 V2000
   15.8100    3.9778   24.7665 N   0  0  0  0  0  0  0  0  0  0  0  0
   15.2846    3.1891   23.6281 C   0  0  0  0  0  0  0  0  0  0  0  0
   15.0396    3.9320   25.8249 C   0  0  0  0  0  0  0  0  0  0  0  0
   13.8581    3.0329   25.5716 C   0  0  0  0  0  0  0  0  0  0  0  0
   14.1965    2.3946   24.2654 C   0  0  0  0  0  0  0  0  0  0  0  0
   14.6193    4.1015   22.6562 C   0  0  0  0  0  0  0  0  0  0  0  0
   13.8947    5.1539   23.1703 N   0  0  0  0  0  0  0  0  0  0  0  0
   14.7058    3.8949   21.4370 O   0  0  0  0  0  0  0  0  0  0  0  0
   13.8087    5.2135   24.1492 H   0  0  0  0  0  0  0  0  0  0  0  0
   13.2519    6.1765   22.3785 C   0  0  0  0  0  0  0  0  0  0  0  0
   13.1153    7.4909   23.1562 C   0  0  0  0  0  0  0  0  0  0  0  0
   13.2771    8.7818   22.4032 C   0  0  0  0  0  0  0  0  0  0  0  0
   14.3391    8.3388   23.3676 C   0  0  0  0  0  0  0  0  0  0  0  0
   13.7205    1.9997   26.5884 N   0  0  0  0  0  0  0  0  0  0  0  0
   12.6295    2.0680   27.3981 C   0  0  0  0  0  0  0  0  0  0  0  0
   11.8242    2.9932   27.2390 O   0  0  0  0  0  0  0  0  0  0  0  0
   14.3882    1.2828   26.6857 H   0  0  0  0  0  0  0  0  0  0  0  0
   12.4838    1.0537   28.3974 C   0  0  0  0  0  0  0  0  0  0  0  0
   13.2200   -0.0812   28.5585 C   0  0  0  0  0  0  0  0  0  0  0  0
   12.7677   -0.8320   29.6568 C   0  0  0  0  0  0  0  0  0  0  0  0
   11.7364   -0.1717   30.2737 C   0  0  0  0  0  0  0  0  0  0  0  0
   11.2290    1.2869   29.5563 S   0  0  0  0  0  0  0  0  0  0  0  0
   10.9250   -0.6143   31.7359 Cl  0  0  0  0  0  0  0  0  0  0  0  0
   16.6627    5.1540   24.5101 C   0  0  0  0  0  0  0  0  0  0  0  0
   17.2057    5.5845   26.9681 N   0  0  0  0  0  0  0  0  0  0  0  0
   16.8696    6.0699   25.6752 C   0  0  0  0  0  0  0  0  0  0  0  0
   16.7509    7.2909   25.5226 O   0  0  0  0  0  0  0  0  0  0  0  0
   17.3728    4.6274   27.1267 H   0  0  0  0  0  0  0  0  0  0  0  0
   17.4486    8.3604   30.0943 C   0  0  0  0  0  0  0  0  0  0  0  0
   16.2650    7.6527   29.9248 C   0  0  0  0  0  0  0  0  0  0  0  0
   16.2148    6.7442   28.8945 C   0  0  0  0  0  0  0  0  0  0  0  0
   15.0519    6.0574   28.7108 F   0  0  0  0  0  0  0  0  0  0  0  0
   18.5549    8.1733   29.2702 C   0  0  0  0  0  0  0  0  0  0  0  0
   18.4770    7.2604   28.2080 C   0  0  0  0  0  0  0  0  0  0  0  0
   17.2926    6.5429   28.0346 C   0  0  0  0  0  0  0  0  0  0  0  0
   17.9505   11.0078   29.7582 O   0  0  0  0  0  0  0  0  0  0  0  0
   17.7653   10.6654   30.9559 C   0  0  0  0  0  0  0  0  0  0  0  0
   17.8181   11.5525   32.0843 C   0  0  0  0  0  0  0  0  0  0  0  0
   17.6186   11.0936   33.3524 C   0  0  0  0  0  0  0  0  0  0  0  0
   17.3288    9.7138   33.5794 C   0  0  0  0  0  0  0  0  0  0  0  0
   17.2922    8.8461   32.5368 C   0  0  0  0  0  0  0  0  0  0  0  0
   17.4887    9.2895   31.2108 N   0  0  0  0  0  0  0  0  0  0  0  0
 36 37  2  0  0  0
 37 38  1  0  0  0
 37 42  1  0  0  0
 38 39  2  0  0  0
 39 40  1  0  0  0
 40 41  2  0  0  0
 41 42  1  0  0  0
 42 29  1  0  0  0
 29 30  1  0  0  0
 29 33  2  0  0  0
 30 31  2  0  0  0
 31 32  1  0  0  0
 31 35  1  0  0  0
 33 34  1  0  0  0
 34 35  2  0  0  0
 35 25  1  0  0  0
 25 26  1  0  0  0
 26 27  2  0  0  0
 26 24  1  0  0  0
 24  1  1  0  0  0
  1  2  1  0  0  0
  1  3  1  0  0  0
  2  6  1  0  0  0
  2  5  1  0  0  0
  6  7  1  0  0  0
  6  8  2  0  0  0
  7 10  1  0  0  0
  3  4  1  0  0  0
  4  5  1  0  0  0
  4 14  1  0  0  0
 14 15  1  0  0  0
 15 16  2  0  0  0
 15 18  1  0  0  0
 18 19  2  0  0  0
 18 22  1  0  0  0
 19 20  1  0  0  0
 20 21  2  0  0  0
 21 22  1  0  0  0
 21 23  1  0  0  0
 10 11  1  0  0  0
 11 12  1  0  0  0
 11 13  1  0  0  0
 12 13  1  0  0  0
 25 28  1  0  0  0
  7  9  1  0  0  0
 14 17  1  0  0  0
M  END
> <minimizedAffinity>
-8.41587

$$$$
2VWM_LZI_A_1244


 42 46  0  0  0  0  0  0  0  0999 V2000
   16.0702    4.0468   24.8957 N   0  0  0  0  0  0  0  0  0  0  0  0
   15.9281    2.9754   23.8827 C   0  0  0  0  0  0  0  0  0  0  0  0
   15.1285    4.0243   25.8059 C   0  0  0  0  0  0  0  0  0  0  0  0
   14.2004    2.8623   25.5676 C   0  0  0  0  0  0  0  0  0  0  0  0
   14.8968    2.0911   24.4960 C   0  0  0  0  0  0  0  0  0  0  0  0
   15.3131    3.5375   22.6476 C   0  0  0  0  0  0  0  0  0  0  0  0
   16.0768    3.5319   21.5015 N   0  0  0  0  0  0  0  0  0  0  0  0
   14.1665    4.0081   22.6725 O   0  0  0  0  0  0  0  0  0  0  0  0
   17.0045    3.2101   21.5730 H   0  0  0  0  0  0  0  0  0  0  0  0
   15.6165    3.9634   20.2024 C   0  0  0  0  0  0  0  0  0  0  0  0
   16.4061    3.2931   19.0718 C   0  0  0  0  0  0  0  0  0  0  0  0
   17.8894    3.5276   19.0055 C   0  0  0  0  0  0  0  0  0  0  0  0
   16.9854    4.1535   17.9830 C   0  0  0  0  0  0  0  0  0  0  0  0
   14.0541    2.0198   26.7462 N   0  0  0  0  0  0  0  0  0  0  0  0
   12.7877    1.7606   27.1699 C   0  0  0  0  0  0  0  0  0  0  0  0
   11.8375    2.2510   26.5482 O   0  0  0  0  0  0  0  0  0  0  0  0
   14.8379    1.6537   27.2162 H   0  0  0  0  0  0  0  0  0  0  0  0
   12.6345    0.9295   28.3251 C   0  0  0  0  0  0  0  0  0  0  0  0
   13.4194   -0.1100   28.7242 C   0  0  0  0  0  0  0  0  0  0  0  0
   12.9400   -0.6848   29.9136 C   0  0  0  0  0  0  0  0  0  0  0  0
   11.8378    0.0056   30.3480 C   0  0  0  0  0  0  0  0  0  0  0  0
   11.2984    1.2805   29.3564 S   0  0  0  0  0  0  0  0  0  0  0  0
   10.9611   -0.2259   31.8211 Cl  0  0  0  0  0  0  0  0  0  0  0  0
   16.7314    5.3145   24.5320 C   0  0  0  0  0  0  0  0  0  0  0  0
   14.7414    6.7504   23.8250 N   0  0  0  0  0  0  0  0  0  0  0  0
   15.8836    6.5423   24.6448 C   0  0  0  0  0  0  0  0  0  0  0  0
   16.1718    7.4109   25.4760 O   0  0  0  0  0  0  0  0  0  0  0  0
   14.4344    6.0612   23.1925 H   0  0  0  0  0  0  0  0  0  0  0  0
   12.7293   10.4010   24.2271 C   0  0  0  0  0  0  0  0  0  0  0  0
   12.2202    9.2864   24.8819 C   0  0  0  0  0  0  0  0  0  0  0  0
   12.9036    8.1025   24.7372 C   0  0  0  0  0  0  0  0  0  0  0  0
   12.4021    7.0002   25.3627 F   0  0  0  0  0  0  0  0  0  0  0  0
   13.8849   10.3489   23.4527 C   0  0  0  0  0  0  0  0  0  0  0  0
   14.5551    9.1267   23.2953 C   0  0  0  0  0  0  0  0  0  0  0  0
   14.0517    8.0039   23.9538 C   0  0  0  0  0  0  0  0  0  0  0  0
   13.2699   12.0763   26.2947 O   0  0  0  0  0  0  0  0  0  0  0  0
   12.3451   12.4727   25.5372 C   0  0  0  0  0  0  0  0  0  0  0  0
   11.5992   13.6874   25.7133 C   0  0  0  0  0  0  0  0  0  0  0  0
   10.6018   14.0340   24.8511 C   0  0  0  0  0  0  0  0  0  0  0  0
   10.2944   13.1977   23.7351 C   0  0  0  0  0  0  0  0  0  0  0  0
   10.9667   12.0333   23.5524 C   0  0  0  0  0  0  0  0  0  0  0  0
   12.0088   11.6476   24.4234 N   0  0  0  0  0  0  0  0  0  0  0  0
 36 37  2  0  0  0
 37 38  1  0  0  0
 37 42  1  0  0  0
 38 39  2  0  0  0
 39 40  1  0  0  0
 40 41  2  0  0  0
 41 42  1  0  0  0
 42 29  1  0  0  0
 29 30  1  0  0  0
 29 33  2  0  0  0
 30 31  2  0  0  0
 31 32  1  0  0  0
 31 35  1  0  0  0
 33 34  1  0  0  0
 34 35  2  0  0  0
 35 25  1  0  0  0
 25 26  1  0  0  0
 26 27  2  0  0  0
 26 24  1  0  0  0
 24  1  1  0  0  0
  1  2  1  0  0  0
  1  3  1  0  0  0
  2  6  1  0  0  0
  2  5  1  0  0  0
  6  7  1  0  0  0
  6  8  2  0  0  0
  7 10  1  0  0  0
  3  4  1  0  0  0
  4  5  1  0  0  0
  4 14  1  0  0  0
 14 15  1  0  0  0
 15 16  2  0  0  0
 15 18  1  0  0  0
 18 19  2  0  0  0
 18 22  1  0  0  0
 19 20  1  0  0  0
 20 21  2  0  0  0
 21 22  1  0  0  0
 21 23  1  0  0  0
 10 11  1  0  0  0
 11 12  1  0  0  0
 11 13  1  0  0  0
 12 13  1  0  0  0
 25 28  1  0  0  0
  7  9  1  0  0  0
 14 17  1  0  0  0
M  END
> <minimizedAffinity>
-8.32902

$$$$
2VWM_LZI_A_1244


 42 46  0  0  0  0  0  0  0  0999 V2000
   14.5259    5.8742   25.9669 N   0  0  0  0  0  0  0  0  0  0  0  0
   15.6883    6.0978   25.0764 C   0  0  0  0  0  0  0  0  0  0  0  0
   14.8229    5.9773   27.2385 C   0  0  0  0  0  0  0  0  0  0  0  0
   16.2729    6.3486   27.4070 C   0  0  0  0  0  0  0  0  0  0  0  0
   16.7039    6.6587   26.0120 C   0  0  0  0  0  0  0  0  0  0  0  0
   16.2238    4.7849   24.6190 C   0  0  0  0  0  0  0  0  0  0  0  0
   15.8629    4.3581   23.3603 N   0  0  0  0  0  0  0  0  0  0  0  0
   16.9463    4.1055   25.3627 O   0  0  0  0  0  0  0  0  0  0  0  0
   15.2273    4.9146   22.8547 H   0  0  0  0  0  0  0  0  0  0  0  0
   16.3486    3.1541   22.7276 C   0  0  0  0  0  0  0  0  0  0  0  0
   16.8762    3.4314   21.3149 C   0  0  0  0  0  0  0  0  0  0  0  0
   17.1102    2.2606   20.4016 C   0  0  0  0  0  0  0  0  0  0  0  0
   18.2788    3.0131   20.9696 C   0  0  0  0  0  0  0  0  0  0  0  0
   16.4484    7.5320   28.2370 N   0  0  0  0  0  0  0  0  0  0  0  0
   17.1269    7.3748   29.4055 C   0  0  0  0  0  0  0  0  0  0  0  0
   17.5486    6.2513   29.7052 O   0  0  0  0  0  0  0  0  0  0  0  0
   16.0914    8.4081   27.9643 H   0  0  0  0  0  0  0  0  0  0  0  0
   17.3082    8.5339   30.2255 C   0  0  0  0  0  0  0  0  0  0  0  0
   17.1781    8.6371   31.5776 C   0  0  0  0  0  0  0  0  0  0  0  0
   17.4336    9.9473   32.0169 C   0  0  0  0  0  0  0  0  0  0  0  0
   17.7843   10.7319   30.9485 C   0  0  0  0  0  0  0  0  0  0  0  0
   17.7565    9.9888   29.4166 S   0  0  0  0  0  0  0  0  0  0  0  0
   18.3133   12.3787   30.9776 Cl  0  0  0  0  0  0  0  0  0  0  0  0
   13.4211    5.0030   25.5232 C   0  0  0  0  0  0  0  0  0  0  0  0
   11.4511    6.3607   24.6302 N   0  0  0  0  0  0  0  0  0  0  0  0
   12.5864    5.5366   24.4018 C   0  0  0  0  0  0  0  0  0  0  0  0
   12.8837    5.2630   23.2335 O   0  0  0  0  0  0  0  0  0  0  0  0
   11.2101    6.6580   25.5373 H   0  0  0  0  0  0  0  0  0  0  0  0
    9.1922    7.4782   21.2857 C   0  0  0  0  0  0  0  0  0  0  0  0
   10.3329    8.2101   21.5915 C   0  0  0  0  0  0  0  0  0  0  0  0
   11.0585    7.8181   22.6912 C   0  0  0  0  0  0  0  0  0  0  0  0
   12.1700    8.5406   23.0081 F   0  0  0  0  0  0  0  0  0  0  0  0
    8.7807    6.3856   22.0437 C   0  0  0  0  0  0  0  0  0  0  0  0
    9.5191    6.0154   23.1775 C   0  0  0  0  0  0  0  0  0  0  0  0
   10.6686    6.7435   23.4880 C   0  0  0  0  0  0  0  0  0  0  0  0
    9.1850    6.0058   19.0042 O   0  0  0  0  0  0  0  0  0  0  0  0
    8.5109    7.0674   18.9356 C   0  0  0  0  0  0  0  0  0  0  0  0
    7.7945    7.5153   17.7741 C   0  0  0  0  0  0  0  0  0  0  0  0
    7.0998    8.6882   17.7825 C   0  0  0  0  0  0  0  0  0  0  0  0
    7.0542    9.4873   18.9651 C   0  0  0  0  0  0  0  0  0  0  0  0
    7.7371    9.1024   20.0727 C   0  0  0  0  0  0  0  0  0  0  0  0
    8.4617    7.8908   20.0993 N   0  0  0  0  0  0  0  0  0  0  0  0
 36 37  2  0  0  0
 37 38  1  0  0  0
 37 42  1  0  0  0
 38 39  2  0  0  0
 39 40  1  0  0  0
 40 41  2  0  0  0
 41 42  1  0  0  0
 42 29  1  0  0  0
 29 30  1  0  0  0
 29 33  2  0  0  0
 30 31  2  0  0  0
 31 32  1  0  0  0
 31 35  1  0  0  0
 33 34  1  0  0  0
 34 35  2  0  0  0
 35 25  1  0  0  0
 25 26  1  0  0  0
 26 27  2  0  0  0
 26 24  1  0  0  0
 24  1  1  0  0  0
  1  2  1  0  0  0
  1  3  1  0  0  0
  2  6  1  0  0  0
  2  5  1  0  0  0
  6  7  1  0  0  0
  6  8  2  0  0  0
  7 10  1  0  0  0
  3  4  1  0  0  0
  4  5  1  0  0  0
  4 14  1  0  0  0
 14 15  1  0  0  0
 15 16  2  0  0  0
 15 18  1  0  0  0
 18 19  2  0  0  0
 18 22  1  0  0  0
 19 20  1  0  0  0
 20 21  2  0  0  0
 21 22  1  0  0  0
 21 23  1  0  0  0
 10 11  1  0  0  0
 11 12  1  0  0  0
 11 13  1  0  0  0
 12 13  1  0  0  0
 25 28  1  0  0  0
  7  9  1  0  0  0
 14 17  1  0  0  0
M  END
> <minimizedAffinity>
-7.80806

$$$$
2VWM_LZI_A_1244


 42 46  0  0  0  0  0  0  0  0999 V2000
   13.6480    7.3516   24.4735 N   0  0  0  0  0  0  0  0  0  0  0  0
   12.4733    6.6586   25.0513 C   0  0  0  0  0  0  0  0  0  0  0  0
   13.4372    7.8006   23.2612 C   0  0  0  0  0  0  0  0  0  0  0  0
   12.0208    7.5132   22.8374 C   0  0  0  0  0  0  0  0  0  0  0  0
   11.3878    7.0200   24.0960 C   0  0  0  0  0  0  0  0  0  0  0  0
   12.6579    5.1850   24.9336 C   0  0  0  0  0  0  0  0  0  0  0  0
   12.5971    4.4450   26.0935 N   0  0  0  0  0  0  0  0  0  0  0  0
   12.8787    4.6637   23.8308 O   0  0  0  0  0  0  0  0  0  0  0  0
   12.4921    4.9339   26.9416 H   0  0  0  0  0  0  0  0  0  0  0  0
   12.6763    3.0043   26.1570 C   0  0  0  0  0  0  0  0  0  0  0  0
   12.7273    2.5045   27.6057 C   0  0  0  0  0  0  0  0  0  0  0  0
   12.5195    1.0373   27.8585 C   0  0  0  0  0  0  0  0  0  0  0  0
   11.4575    2.0232   28.2518 C   0  0  0  0  0  0  0  0  0  0  0  0
   11.3239    8.7100   22.3876 N   0  0  0  0  0  0  0  0  0  0  0  0
   10.8791    8.7223   21.1021 C   0  0  0  0  0  0  0  0  0  0  0  0
   11.0910    7.7356   20.3869 O   0  0  0  0  0  0  0  0  0  0  0  0
   11.1808    9.4771   22.9879 H   0  0  0  0  0  0  0  0  0  0  0  0
   10.1888    9.8929   20.6529 C   0  0  0  0  0  0  0  0  0  0  0  0
    9.0717    9.9654   19.8765 C   0  0  0  0  0  0  0  0  0  0  0  0
    8.6962   11.2996   19.6450 C   0  0  0  0  0  0  0  0  0  0  0  0
    9.5489   12.1412   20.3120 C   0  0  0  0  0  0  0  0  0  0  0  0
   10.8343   11.4101   21.1563 S   0  0  0  0  0  0  0  0  0  0  0  0
    9.4394   13.8621   20.4492 Cl  0  0  0  0  0  0  0  0  0  0  0  0
   15.0065    6.9747   24.9079 C   0  0  0  0  0  0  0  0  0  0  0  0
   15.9590    6.7825   27.2696 N   0  0  0  0  0  0  0  0  0  0  0  0
   15.4632    7.5761   26.1998 C   0  0  0  0  0  0  0  0  0  0  0  0
   15.4168    8.8017   26.3547 O   0  0  0  0  0  0  0  0  0  0  0  0
   16.0744    5.8096   27.1729 H   0  0  0  0  0  0  0  0  0  0  0  0
   16.9250    8.7558   30.8348 C   0  0  0  0  0  0  0  0  0  0  0  0
   17.9441    8.4776   29.9324 C   0  0  0  0  0  0  0  0  0  0  0  0
   17.5980    7.8342   28.7680 C   0  0  0  0  0  0  0  0  0  0  0  0
   18.5941    7.5427   27.8844 F   0  0  0  0  0  0  0  0  0  0  0  0
   15.5983    8.4110   30.5922 C   0  0  0  0  0  0  0  0  0  0  0  0
   15.2672    7.7320   29.4102 C   0  0  0  0  0  0  0  0  0  0  0  0
   16.2854    7.4533   28.4972 C   0  0  0  0  0  0  0  0  0  0  0  0
   17.8823   11.2962   30.7762 O   0  0  0  0  0  0  0  0  0  0  0  0
   17.8115   10.7977   31.9306 C   0  0  0  0  0  0  0  0  0  0  0  0
   18.2029   11.4637   33.1414 C   0  0  0  0  0  0  0  0  0  0  0  0
   18.1057   10.8429   34.3511 C   0  0  0  0  0  0  0  0  0  0  0  0
   17.5871    9.5151   34.4372 C   0  0  0  0  0  0  0  0  0  0  0  0
   17.2279    8.8509   33.3098 C   0  0  0  0  0  0  0  0  0  0  0  0
   17.3106    9.4668   32.0420 N   0  0  0  0  0  0  0  0  0  0  0  0
 36 37  2  0  0  0
 37 38  1  0  0  0
 37 42  1  0  0  0
 38 39  2  0  0  0
 39 40  1  0  0  0
 40 41  2  0  0  0
 41 42  1  0  0  0
 42 29  1  0  0  0
 29 30  1  0  0  0
 29 33  2  0  0  0
 30 31  2  0  0  0
 31 32  1  0  0  0
 31 35  1  0  0  0
 33 34  1  0  0  0
 34 35  2  0  0  0
 35 25  1  0  0  0
 25 26  1  0  0  0
 26 27  2  0  0  0
 26 24  1  0  0  0
 24  1  1  0  0  0
  1  2  1  0  0  0
  1  3  1  0  0  0
  2  6  1  0  0  0
  2  5  1  0  0  0
  6  7  1  0  0  0
  6  8  2  0  0  0
  7 10  1  0  0  0
  3  4  1  0  0  0
  4  5  1  0  0  0
  4 14  1  0  0  0
 14 15  1  0  0  0
 15 16  2  0  0  0
 15 18  1  0  0  0
 18 19  2  0  0  0
 18 22  1  0  0  0
 19 20  1  0  0  0
 20 21  2  0  0  0
 21 22  1  0  0  0
 21 23  1  0  0  0
 10 11  1  0  0  0
 11 12  1  0  0  0
 11 13  1  0  0  0
 12 13  1  0  0  0
 25 28  1  0  0  0
  7  9  1  0  0  0
 14 17  1  0  0  0
M  END
> <minimizedAffinity>
-7.79889

$$$$
2VWM_LZI_A_1244


 42 46  0  0  0  0  0  0  0  0999 V2000
   15.4787    4.9105   24.7981 N   0  0  0  0  0  0  0  0  0  0  0  0
   16.2373    3.7836   24.2076 C   0  0  0  0  0  0  0  0  0  0  0  0
   14.3054    4.5564   25.2603 C   0  0  0  0  0  0  0  0  0  0  0  0
   14.1042    3.0733   25.0919 C   0  0  0  0  0  0  0  0  0  0  0  0
   15.4511    2.5995   24.6566 C   0  0  0  0  0  0  0  0  0  0  0  0
   16.1153    3.8258   22.7234 C   0  0  0  0  0  0  0  0  0  0  0  0
   17.2815    3.7938   21.9914 N   0  0  0  0  0  0  0  0  0  0  0  0
   15.0019    3.9088   22.1848 O   0  0  0  0  0  0  0  0  0  0  0  0
   18.1318    3.8022   22.4875 H   0  0  0  0  0  0  0  0  0  0  0  0
   17.3483    3.7490   20.5494 C   0  0  0  0  0  0  0  0  0  0  0  0
   17.3501    2.3069   20.0284 C   0  0  0  0  0  0  0  0  0  0  0  0
   18.5950    1.7951   19.3591 C   0  0  0  0  0  0  0  0  0  0  0  0
   17.3655    2.0726   18.5431 C   0  0  0  0  0  0  0  0  0  0  0  0
   13.7466    2.4176   26.3419 N   0  0  0  0  0  0  0  0  0  0  0  0
   12.4284    2.3981   26.6769 C   0  0  0  0  0  0  0  0  0  0  0  0
   11.6113    2.9358   25.9198 O   0  0  0  0  0  0  0  0  0  0  0  0
   14.4294    2.0062   26.9197 H   0  0  0  0  0  0  0  0  0  0  0  0
   12.0673    1.7516   27.9017 C   0  0  0  0  0  0  0  0  0  0  0  0
   11.0821    2.0967   28.7771 C   0  0  0  0  0  0  0  0  0  0  0  0
   11.0397    1.2163   29.8716 C   0  0  0  0  0  0  0  0  0  0  0  0
   11.9839    0.2350   29.7111 C   0  0  0  0  0  0  0  0  0  0  0  0
   12.9783    0.3533   28.3339 S   0  0  0  0  0  0  0  0  0  0  0  0
   12.2470   -1.1498   30.7138 Cl  0  0  0  0  0  0  0  0  0  0  0  0
   15.7091    6.2833   24.3095 C   0  0  0  0  0  0  0  0  0  0  0  0
   15.8668    7.4216   26.5901 N   0  0  0  0  0  0  0  0  0  0  0  0
   16.3709    7.2125   25.2778 C   0  0  0  0  0  0  0  0  0  0  0  0
   17.3921    7.8222   24.9406 O   0  0  0  0  0  0  0  0  0  0  0  0
   15.0941    6.9132   26.9273 H   0  0  0  0  0  0  0  0  0  0  0  0
   17.8149   10.2737   28.9582 C   0  0  0  0  0  0  0  0  0  0  0  0
   18.3312    8.9846   28.9113 C   0  0  0  0  0  0  0  0  0  0  0  0
   17.6753    8.0703   28.1219 C   0  0  0  0  0  0  0  0  0  0  0  0
   18.1654    6.7990   28.0829 F   0  0  0  0  0  0  0  0  0  0  0  0
   16.6827   10.6509   28.2415 C   0  0  0  0  0  0  0  0  0  0  0  0
   16.0113    9.6981   27.4611 C   0  0  0  0  0  0  0  0  0  0  0  0
   16.5270    8.4024   27.4059 C   0  0  0  0  0  0  0  0  0  0  0  0
   17.2924   10.6252   31.5995 O   0  0  0  0  0  0  0  0  0  0  0  0
   18.2094   11.3634   31.1519 C   0  0  0  0  0  0  0  0  0  0  0  0
   18.9370   12.3330   31.9224 C   0  0  0  0  0  0  0  0  0  0  0  0
   19.9075   13.1024   31.3528 C   0  0  0  0  0  0  0  0  0  0  0  0
   20.2352   12.9394   29.9724 C   0  0  0  0  0  0  0  0  0  0  0  0
   19.5523   12.0466   29.2122 C   0  0  0  0  0  0  0  0  0  0  0  0
   18.5455   11.2304   29.7721 N   0  0  0  0  0  0  0  0  0  0  0  0
 36 37  2  0  0  0
 37 38  1  0  0  0
 37 42  1  0  0  0
 38 39  2  0  0  0
 39 40  1  0  0  0
 40 41  2  0  0  0
 41 42  1  0  0  0
 42 29  1  0  0  0
 29 30  1  0  0  0
 29 33  2  0  0  0
 30 31  2  0  0  0
 31 32  1  0  0  0
 31 35  1  0  0  0
 33 34  1  0  0  0
 34 35  2  0  0  0
 35 25  1  0  0  0
 25 26  1  0  0  0
 26 27  2  0  0  0
 26 24  1  0  0  0
 24  1  1  0  0  0
  1  2  1  0  0  0
  1  3  1  0  0  0
  2  6  1  0  0  0
  2  5  1  0  0  0
  6  7  1  0  0  0
  6  8  2  0  0  0
  7 10  1  0  0  0
  3  4  1  0  0  0
  4  5  1  0  0  0
  4 14  1  0  0  0
 14 15  1  0  0  0
 15 16  2  0  0  0
 15 18  1  0  0  0
 18 19  2  0  0  0
 18 22  1  0  0  0
 19 20  1  0  0  0
 20 21  2  0  0  0
 21 22  1  0  0  0
 21 23  1  0  0  0
 10 11  1  0  0  0
 11 12  1  0  0  0
 11 13  1  0  0  0
 12 13  1  0  0  0
 25 28  1  0  0  0
  7  9  1  0  0  0
 14 17  1  0  0  0
M  END
> <minimizedAffinity>
-7.72940

$$$$
