2VWM_LZI_A_1244
  RCSB PDB12061707093D
Coordinates from PDB:2VWM:A:1244 Model:1 without hydrogens
 39 43  0  0  0  0            999 V2000
   17.6140   10.9800   30.6350   O 0  0  0  0  0  0  0  0  0  0  0  0
   17.5410   10.5570   31.8190   C 0  0  0  0  0  0  0  0  0  0  0  0
   17.8390   11.3320   32.9910   C 0  0  0  0  0  0  0  0  0  0  0  0
   17.7470   10.7890   34.2380   C 0  0  0  0  0  0  0  0  0  0  0  0
   17.3270    9.4340   34.4020   C 0  0  0  0  0  0  0  0  0  0  0  0
   17.0580    8.6690   33.3140   C 0  0  0  0  0  0  0  0  0  0  0  0
   17.1380    9.2020   32.0090   N 0  0  0  0  0  0  0  0  0  0  0  0
   16.8490    8.3830   30.8440   C 0  0  0  0  0  0  0  0  0  0  0  0
   17.8510    7.5080   30.4430   C 0  0  0  0  0  0  0  0  0  0  0  0
   17.6130    6.7460   29.3240   C 0  0  0  0  0  0  0  0  0  0  0  0
   18.5840    5.8730   28.9330   F 0  0  0  0  0  0  0  0  0  0  0  0
   15.6450    8.5050   30.1560   C 0  0  0  0  0  0  0  0  0  0  0  0
   15.4090    7.7010   29.0310   C 0  0  0  0  0  0  0  0  0  0  0  0
   16.4130    6.8230   28.6200   C 0  0  0  0  0  0  0  0  0  0  0  0
   16.1980    6.0120   27.4540   N 0  0  0  0  0  0  0  0  0  0  0  0
   15.6940    6.6550   26.2910   C 0  0  0  0  0  0  0  0  0  0  0  0
   15.5460    7.8820   26.3200   O 0  0  0  0  0  0  0  0  0  0  0  0
   15.3470    5.8960   25.0490   C 0  0  0  0  0  0  0  0  0  0  0  0
   15.1000    4.4530   25.2310   N 0  0  0  0  0  0  0  0  0  0  0  0
   15.5340    3.4960   24.1870   C 0  0  0  0  0  0  0  0  0  0  0  0
   15.0200    3.9400   22.8610   C 0  0  0  0  0  0  0  0  0  0  0  0
   15.8250    3.7220   21.7650   N 0  0  0  0  0  0  0  0  0  0  0  0
   13.9190    4.5020   22.7680   O 0  0  0  0  0  0  0  0  0  0  0  0
   14.0630    4.0360   25.9140   C 0  0  0  0  0  0  0  0  0  0  0  0
   13.6530    2.6620   25.4530   C 0  0  0  0  0  0  0  0  0  0  0  0
   14.7670    2.2680   24.5410   C 0  0  0  0  0  0  0  0  0  0  0  0
   13.5740    1.7100   26.5520   N 0  0  0  0  0  0  0  0  0  0  0  0
   12.5700    1.8850   27.4530   C 0  0  0  0  0  0  0  0  0  0  0  0
   11.7900    2.8330   27.3020   O 0  0  0  0  0  0  0  0  0  0  0  0
   12.4820    0.9510   28.5340   C 0  0  0  0  0  0  0  0  0  0  0  0
   13.2730   -0.1310   28.7780   C 0  0  0  0  0  0  0  0  0  0  0  0
   12.8670   -0.8090   29.9400   C 0  0  0  0  0  0  0  0  0  0  0  0
   11.8110   -0.1490   30.5140   C 0  0  0  0  0  0  0  0  0  0  0  0
   11.2280    1.2200   29.6860   S 0  0  0  0  0  0  0  0  0  0  0  0
   11.0350   -0.5070   32.0180  Cl 0  0  0  0  0  0  0  0  0  0  0  0
   15.4560    4.0160   20.4000   C 0  0  0  0  0  0  0  0  0  0  0  0
   16.6630    3.9330   19.4580   C 0  0  0  0  0  0  0  0  0  0  0  0
   16.5000    3.1960   18.1580   C 0  0  0  0  0  0  0  0  0  0  0  0
   17.3350    2.6030   19.2560   C 0  0  0  0  0  0  0  0  0  0  0  0
  1  2  2  0  0  0  0
  2  3  1  0  0  0  0
  2  7  1  0  0  0  0
  3  4  2  0  0  0  0
  4  5  1  0  0  0  0
  5  6  2  0  0  0  0
  6  7  1  0  0  0  0
  7  8  1  0  0  0  0
  8  9  1  0  0  0  0
  8 12  2  0  0  0  0
  9 10  2  0  0  0  0
 10 11  1  0  0  0  0
 10 14  1  0  0  0  0
 12 13  1  0  0  0  0
 13 14  2  0  0  0  0
 14 15  1  0  0  0  0
 15 16  1  0  0  0  0
 16 17  2  0  0  0  0
 16 18  1  0  0  0  0
 18 19  1  0  0  0  0
 19 20  1  0  0  0  0
 19 24  1  0  0  0  0
 20 21  1  0  0  0  0
 20 26  1  0  0  0  0
 21 22  1  0  0  0  0
 21 23  2  0  0  0  0
 22 36  1  0  0  0  0
 24 25  1  0  0  0  0
 25 26  1  0  0  0  0
 25 27  1  0  0  0  0
 27 28  1  0  0  0  0
 28 29  2  0  0  0  0
 28 30  1  0  0  0  0
 30 31  2  0  0  0  0
 30 34  1  0  0  0  0
 31 32  1  0  0  0  0
 32 33  2  0  0  0  0
 33 34  1  0  0  0  0
 33 35  1  0  0  0  0
 36 37  1  0  0  0  0
 37 38  1  0  0  0  0
 37 39  1  0  0  0  0
 38 39  1  0  0  0  0
A    1
O30
A    2
C7
A    3
C28
A    4
C36
A    5
C35
A    6
C24
A    7
N2
A    8
C8
A    9
C11
A   10
C19
A   11
F39
A   12
C31
A   13
C34
A   14
C18
A   15
N15
A   16
C12
A   17
O33
A   18
C16
A   19
N1
A   20
C5
A   21
C10
A   22
N23
A   23
O32
A   24
C21
A   25
C17
A   26
C20
A   27
N13
A   28
C6
A   29
O29
A   30
C3
A   31
C14
A   32
C22
A   33
C9
A   34
S4
A   35
CL3
A   36
C37
A   37
C25
A   38
C27
A   39
C26
M  END
>  <InstanceId>
2VWM_LZI_A_1244

>  <ChemCompId>
LZI

>  <PdbId>
2VWM

>  <ChainId>
A

>  <ResidueNumber>
1244

>  <InsertionCode>


>  <Model>
1

>  <AltIds>


>  <MissingHeavyAtoms>
0

>  <ObservedFormula>
C27 N5 O4 S F Cl

>  <Name>
(4R)-4-{[(5-chlorothiophen-2-yl)carbonyl]amino}-N-(cyclopropylmethyl)-1-(2-{[2-fluoro-4-(2-oxopyridin-1(2H)-yl)phenyl]amino}-2-oxoethyl)-L-prolinamide

>  <SystematicName>
(1R,2S,4R)-4-[(5-chlorothiophen-2-yl)carbonylamino]-N-(cyclopropylmethyl)-1-[2-[[2-fluoro-4-(2-oxopyridin-1-yl)phenyl]amino]-2-oxo-ethyl]pyrrolidine-2-carboxamide

>  <Synonyms>


>  <Type>
non-polymer

>  <Formula>
C27 H27 Cl F N5 O4 S

>  <MolecularWeight>
572.051

>  <ModifiedDate>
2011-06-04

>  <Parent>


>  <OneLetterCode>


>  <SubcomponentList>


>  <AmbiguousFlag>


>  <InChI>
InChI=1S/C27H27ClFN5O4S/c28-23-9-8-22(39-23)27(38)31-17-11-21(26(37)30-13-16-4-5-16)33(14-17)15-24(35)32-20-7-6-18(12-19(20)29)34-10-2-1-3-25(34)36/h1-3,6-10,12,16-17,21H,4-5,11,13-15H2,(H,30,37)(H,31,38)(H,32,35)/t17-,21+/m1/s1

>  <InChIKey>
LRFNMAKOTZSBFP-UTKZUKDTSA-N

>  <SMILES>
c1cc(c(cc1N2C=CC=CC2=O)F)NC(=O)C[N@]3C[C@@H](C[C@H]3C(=O)NCC4CC4)NC(=O)c5ccc(s5)Cl

$$$$
