1JLR_GTP_A_303
  RCSB PDB12061702583D
Coordinates from PDB:1JLR:A:303 Model:1 without hydrogens
 32 34  0  0  0  0            999 V2000
   19.8720   86.7150   79.2050   P 0  0  0  0  0  0  0  0  0  0  0  0
   18.8560   85.7700   79.7280   O 0  0  0  0  0  0  0  0  0  0  0  0
   20.4990   85.8800   78.0870   O 0  0  0  0  0  0  0  0  0  0  0  0
   20.7800   86.8210   80.3740   O 0  0  0  0  0  0  0  0  0  0  0  0
   19.2310   88.1050   78.9700   O 0  0  0  0  0  0  0  0  0  0  0  0
   18.3740   88.8130   80.0230   P 0  0  0  0  0  0  0  0  0  0  0  0
   17.3270   88.0030   80.6750   O 0  0  0  0  0  0  0  0  0  0  0  0
   19.4630   89.3570   80.8310   O 0  0  0  0  0  0  0  0  0  0  0  0
   17.6600   89.9850   79.2110   O 0  0  0  0  0  0  0  0  0  0  0  0
   16.2510   89.7370   78.3850   P 0  0  0  0  0  0  0  0  0  0  0  0
   16.5800   88.7710   77.3010   O 0  0  0  0  0  0  0  0  0  0  0  0
   15.1870   89.3700   79.3180   O 0  0  0  0  0  0  0  0  0  0  0  0
   16.0330   91.0990   77.8260   O 0  0  0  0  0  0  0  0  0  0  0  0
   15.0160   91.4290   76.8510   C 0  0  0  0  0  0  0  0  0  0  0  0
   15.4590   91.0450   75.4390   C 0  0  0  0  0  0  0  0  0  0  0  0
   14.3490   90.6030   74.6030   O 0  0  0  0  0  0  0  0  0  0  0  0
   16.2090   92.1210   74.6500   C 0  0  0  0  0  0  0  0  0  0  0  0
   17.5630   91.7340   74.4580   O 0  0  0  0  0  0  0  0  0  0  0  0
   15.4290   92.2970   73.3300   C 0  0  0  0  0  0  0  0  0  0  0  0
   16.2380   92.1450   72.1780   O 0  0  0  0  0  0  0  0  0  0  0  0
   14.3320   91.2590   73.3420   C 0  0  0  0  0  0  0  0  0  0  0  0
   12.9730   91.8260   73.1040   N 0  0  0  0  0  0  0  0  0  0  0  0
   11.9660   91.3970   72.2750   C 0  0  0  0  0  0  0  0  0  0  0  0
   10.8960   92.1170   72.2860   N 0  0  0  0  0  0  0  0  0  0  0  0
   11.1500   93.1050   73.1610   C 0  0  0  0  0  0  0  0  0  0  0  0
   10.3380   94.2170   73.5940   C 0  0  0  0  0  0  0  0  0  0  0  0
    9.1670   94.4810   73.2000   O 0  0  0  0  0  0  0  0  0  0  0  0
   11.0020   95.0750   74.5770   N 0  0  0  0  0  0  0  0  0  0  0  0
   12.2830   94.8540   75.0570   C 0  0  0  0  0  0  0  0  0  0  0  0
   12.7490   95.7270   75.9500   N 0  0  0  0  0  0  0  0  0  0  0  0
   13.0490   93.8290   74.6650   N 0  0  0  0  0  0  0  0  0  0  0  0
   12.4380   92.9740   73.7090   C 0  0  0  0  0  0  0  0  0  0  0  0
  1  2  2  0  0  0  0
  1  3  1  0  0  0  0
  1  4  1  0  0  0  0
  1  5  1  0  0  0  0
  5  6  1  0  0  0  0
  6  7  2  0  0  0  0
  6  8  1  0  0  0  0
  6  9  1  0  0  0  0
  9 10  1  0  0  0  0
 10 11  2  0  0  0  0
 10 12  1  0  0  0  0
 10 13  1  0  0  0  0
 13 14  1  0  0  0  0
 14 15  1  0  0  0  0
 15 16  1  0  0  0  0
 15 17  1  0  0  0  0
 16 21  1  0  0  0  0
 17 18  1  0  0  0  0
 17 19  1  0  0  0  0
 19 20  1  0  0  0  0
 19 21  1  0  0  0  0
 21 22  1  0  0  0  0
 22 23  1  0  0  0  0
 22 32  1  0  0  0  0
 23 24  2  0  0  0  0
 24 25  1  0  0  0  0
 25 26  1  0  0  0  0
 25 32  2  0  0  0  0
 26 27  2  0  0  0  0
 26 28  1  0  0  0  0
 28 29  1  0  0  0  0
 29 30  1  0  0  0  0
 29 31  2  0  0  0  0
 31 32  1  0  0  0  0
A    1
PG
A    2
O1G
A    3
O2G
A    4
O3G
A    5
O3B
A    6
PB
A    7
O1B
A    8
O2B
A    9
O3A
A   10
PA
A   11
O1A
A   12
O2A
A   13
O5'
A   14
C5'
A   15
C4'
A   16
O4'
A   17
C3'
A   18
O3'
A   19
C2'
A   20
O2'
A   21
C1'
A   22
N9
A   23
C8
A   24
N7
A   25
C5
A   26
C6
A   27
O6
A   28
N1
A   29
C2
A   30
N2
A   31
N3
A   32
C4
M  END
>  <InstanceId>
1JLR_GTP_A_303

>  <ChemCompId>
GTP

>  <PdbId>
1JLR

>  <ChainId>
A

>  <ResidueNumber>
303

>  <InsertionCode>


>  <Model>
1

>  <AltIds>


>  <MissingHeavyAtoms>
0

>  <ObservedFormula>
C10 N5 O14 P3

>  <Name>
GUANOSINE-5'-TRIPHOSPHATE

>  <SystematicName>
[[(2R,3S,4R,5R)-5-(2-azanyl-6-oxidanylidene-1H-purin-9-yl)-3,4-bis(oxidanyl)oxolan-2-yl]methoxy-oxidanyl-phosphoryl] phosphono hydrogen phosphate

>  <Synonyms>


>  <Type>
NON-POLYMER

>  <Formula>
C10 H16 N5 O14 P3

>  <MolecularWeight>
523.18

>  <ModifiedDate>
2013-03-22

>  <Parent>
G

>  <OneLetterCode>
G

>  <SubcomponentList>


>  <AmbiguousFlag>
N

>  <InChI>
InChI=1S/C10H16N5O14P3/c11-10-13-7-4(8(18)14-10)12-2-15(7)9-6(17)5(16)3(27-9)1-26-31(22,23)29-32(24,25)28-30(19,20)21/h2-3,5-6,9,16-17H,1H2,(H,22,23)(H,24,25)(H2,19,20,21)(H3,11,13,14,18)/t3-,5-,6-,9-/m1/s1

>  <InChIKey>
XKMLYUALXHKNFT-UUOKFMHZSA-N

>  <SMILES>
c1nc2c(n1[C@H]3[C@@H]([C@@H]([C@H](O3)CO[P@](=O)(O)O[P@](=O)(O)OP(=O)(O)O)O)O)N=C(NC2=O)N

$$$$
