5BS4_4UX_A_201


 45 48  0  0  0  0  0  0  0  0999 V2000
   18.1385   24.1528   18.6672 C   0  0  0  0  0  0  0  0  0  0  0  0
   19.6425   24.6979   16.7920 C   0  0  0  0  0  0  0  0  0  0  0  0
   18.9181   25.0570   17.8472 N   0  0  0  0  0  0  0  0  0  0  0  0
   19.6391   23.6076   16.2139 O   0  0  0  0  0  0  0  0  0  0  0  0
   18.9110   26.0111   18.0900 H   0  0  0  0  0  0  0  0  0  0  0  0
   20.4228   25.6999   16.3580 O   0  0  0  0  0  0  0  0  0  0  0  0
   21.3263   28.7237   15.9861 O   0  0  0  0  0  0  0  0  0  0  0  0
   22.1723   27.9073   16.8169 C   0  0  0  0  0  0  0  0  0  0  0  0
   22.8382   26.8944   15.9168 C   0  0  0  0  0  0  0  0  0  0  0  0
   21.8706   26.7765   14.7371 C   0  0  0  0  0  0  0  0  0  0  0  0
   20.7628   25.7584   14.9732 C   0  0  0  0  0  0  0  0  0  0  0  0
   19.5974   26.4523   14.2694 C   0  0  0  0  0  0  0  0  0  0  0  0
   19.7756   27.8517   14.5203 O   0  0  0  0  0  0  0  0  0  0  0  0
   21.1665   28.1110   14.7060 C   0  0  0  0  0  0  0  0  0  0  0  0
   24.0921   27.4475   15.3728 N   0  0  0  0  0  0  0  0  0  0  0  0
   25.3186   26.8669   15.8902 C   0  0  0  0  0  0  0  0  0  0  0  0
   24.1082   28.4464   15.5785 H   0  0  0  0  0  0  0  0  0  0  0  0
   16.6660   24.2624   18.2709 C   0  0  0  0  0  0  0  0  0  0  0  0
   16.1334   25.5008   18.7531 O   0  0  0  0  0  0  0  0  0  0  0  0
   16.1660   25.5112   19.7225 H   0  0  0  0  0  0  0  0  0  0  0  0
   15.8022   23.1049   18.7320 C   0  0  0  0  0  0  0  0  0  0  0  0
   15.8184   22.0070   17.7810 N   0  0  0  0  0  0  0  0  0  0  0  0
   16.9086   19.8801   17.1704 O   0  0  0  0  0  0  0  0  0  0  0  0
   16.4827   20.6259   18.3506 S   0  0  0  0  0  0  0  0  0  0  0  0
   17.5859   21.0462   19.2912 O   0  0  0  0  0  0  0  0  0  0  0  0
   12.5444   17.6821   21.3982 N   0  0  0  0  0  0  0  0  0  0  0  0
   13.4718   18.3455   20.7340 C   0  0  0  0  0  0  0  0  0  0  0  0
   15.1002   20.1101   20.6380 C   0  0  0  0  0  0  0  0  0  0  0  0
   14.7281   18.6375   18.7455 C   0  0  0  0  0  0  0  0  0  0  0  0
   13.8002   17.8892   19.4484 C   0  0  0  0  0  0  0  0  0  0  0  0
   14.1625   19.3714   21.3713 C   0  0  0  0  0  0  0  0  0  0  0  0
   15.3289   19.7415   19.3096 C   0  0  0  0  0  0  0  0  0  0  0  0
   12.0491   16.9542   20.9576 H   0  0  0  0  0  0  0  0  0  0  0  0
   12.3477   17.9150   22.3343 H   0  0  0  0  0  0  0  0  0  0  0  0
   14.6907   21.7754   16.8924 C   0  0  0  0  0  0  0  0  0  0  0  0
   14.7497   22.5844   15.5817 C   0  0  0  0  0  0  0  0  0  0  0  0
   15.6746   21.8993   14.5528 C   0  0  0  0  0  0  0  0  0  0  0  0
   13.3508   22.6961   14.9388 C   0  0  0  0  0  0  0  0  0  0  0  0
   18.3934   24.4286   20.1662 C   0  0  0  0  0  0  0  0  0  0  0  0
   20.3987   22.8901   20.3422 C   0  0  0  0  0  0  0  0  0  0  0  0
   21.7459   22.6666   20.6662 C   0  0  0  0  0  0  0  0  0  0  0  0
   22.5317   23.7085   21.1465 C   0  0  0  0  0  0  0  0  0  0  0  0
   21.9985   24.9847   21.3444 C   0  0  0  0  0  0  0  0  0  0  0  0
   20.6589   25.2074   21.0093 C   0  0  0  0  0  0  0  0  0  0  0  0
   19.8745   24.1643   20.5050 C   0  0  0  0  0  0  0  0  0  0  0  0
 38 36  1  0  0  0
 37 36  1  0  0  0
 12 13  1  0  0  0
 12 11  1  0  0  0
 36 35  1  0  0  0
 13 14  1  0  0  0
 11 10  1  0  0  0
 11  6  1  0  0  0
 10 14  1  0  0  0
 10  9  1  0  0  0
  4  2  2  0  0  0
 14  7  1  0  0  0
 35 22  1  0  0  0
  6  2  1  0  0  0
  2  3  1  0  0  0
 23 24  2  0  0  0
  9 15  1  0  0  0
  9  8  1  0  0  0
  7  8  1  0  0  0
 22 24  1  0  0  0
 22 21  1  0  0  0
 15 16  1  0  0  0
  3  1  1  0  0  0
 18  1  1  0  0  0
 18 21  1  0  0  0
 18 19  1  0  0  0
 24 32  1  0  0  0
 24 25  2  0  0  0
 29 30  2  0  0  0
 29 32  1  0  0  0
  1 39  1  0  0  0
 30 27  1  0  0  0
 32 28  2  0  0  0
 44 43  2  0  0  0
 44 45  1  0  0  0
 39 45  1  0  0  0
 43 42  1  0  0  0
 45 40  2  0  0  0
 27 26  1  0  0  0
 27 31  2  0  0  0
 28 31  1  0  0  0
 42 41  2  0  0  0
 40 41  1  0  0  0
 26 33  1  0  0  0
 26 34  1  0  0  0
 19 20  1  0  0  0
  3  5  1  0  0  0
 15 17  1  0  0  0
M  END
> <minimizedAffinity>
-10.25351

$$$$
5BS4_4UX_A_201


 45 48  0  0  0  0  0  0  0  0999 V2000
   14.9179   22.4738   17.2627 C   0  0  0  0  0  0  0  0  0  0  0  0
   14.7261   20.5034   18.7313 C   0  0  0  0  0  0  0  0  0  0  0  0
   14.1938   21.5556   18.1173 N   0  0  0  0  0  0  0  0  0  0  0  0
   15.9233   20.2263   18.8457 O   0  0  0  0  0  0  0  0  0  0  0  0
   13.2335   21.7236   18.2542 H   0  0  0  0  0  0  0  0  0  0  0  0
   13.7865   19.7165   19.2780 O   0  0  0  0  0  0  0  0  0  0  0  0
   10.9983   18.2939   19.8257 O   0  0  0  0  0  0  0  0  0  0  0  0
   11.3390   18.5093   18.4437 C   0  0  0  0  0  0  0  0  0  0  0  0
   12.5021   17.6013   18.1240 C   0  0  0  0  0  0  0  0  0  0  0  0
   13.1658   17.3810   19.4852 C   0  0  0  0  0  0  0  0  0  0  0  0
   14.1775   18.4635   19.8380 C   0  0  0  0  0  0  0  0  0  0  0  0
   13.9495   18.5718   21.3451 C   0  0  0  0  0  0  0  0  0  0  0  0
   12.5422   18.3812   21.5352 O   0  0  0  0  0  0  0  0  0  0  0  0
   12.0421   17.5672   20.4752 C   0  0  0  0  0  0  0  0  0  0  0  0
   12.0092   16.2833   17.6833 N   0  0  0  0  0  0  0  0  0  0  0  0
   10.6747   16.2642   17.1106 C   0  0  0  0  0  0  0  0  0  0  0  0
   12.0108   15.6624   18.4926 H   0  0  0  0  0  0  0  0  0  0  0  0
   15.4879   23.6069   18.1161 C   0  0  0  0  0  0  0  0  0  0  0  0
   14.4162   24.4182   18.6090 O   0  0  0  0  0  0  0  0  0  0  0  0
   13.9543   24.8319   17.8630 H   0  0  0  0  0  0  0  0  0  0  0  0
   16.5171   24.4689   17.4116 C   0  0  0  0  0  0  0  0  0  0  0  0
   17.8301   23.8473   17.4074 N   0  0  0  0  0  0  0  0  0  0  0  0
   19.2428   22.3336   16.0667 O   0  0  0  0  0  0  0  0  0  0  0  0
   18.4283   23.5356   15.9181 S   0  0  0  0  0  0  0  0  0  0  0  0
   17.2345   23.4068   15.0035 O   0  0  0  0  0  0  0  0  0  0  0  0
   21.6114   28.0124   14.1042 N   0  0  0  0  0  0  0  0  0  0  0  0
   20.8639   26.9920   14.4804 C   0  0  0  0  0  0  0  0  0  0  0  0
   18.6950   26.0430   14.8928 C   0  0  0  0  0  0  0  0  0  0  0  0
   20.7201   24.7530   15.2446 C   0  0  0  0  0  0  0  0  0  0  0  0
   21.5169   25.7895   14.7909 C   0  0  0  0  0  0  0  0  0  0  0  0
   19.4784   27.1091   14.4320 C   0  0  0  0  0  0  0  0  0  0  0  0
   19.3523   24.8911   15.3333 C   0  0  0  0  0  0  0  0  0  0  0  0
   22.5929   27.9411   14.1342 H   0  0  0  0  0  0  0  0  0  0  0  0
   21.1876   28.8450   13.7936 H   0  0  0  0  0  0  0  0  0  0  0  0
   18.8502   24.2565   18.3597 C   0  0  0  0  0  0  0  0  0  0  0  0
   18.7350   23.5697   19.7348 C   0  0  0  0  0  0  0  0  0  0  0  0
   18.9669   22.0484   19.6118 C   0  0  0  0  0  0  0  0  0  0  0  0
   19.7933   24.1177   20.7157 C   0  0  0  0  0  0  0  0  0  0  0  0
   14.0123   22.9673   16.1119 C   0  0  0  0  0  0  0  0  0  0  0  0
   14.6221   21.1913   14.4109 C   0  0  0  0  0  0  0  0  0  0  0  0
   14.2632   20.1254   13.5713 C   0  0  0  0  0  0  0  0  0  0  0  0
   12.9450   19.6850   13.5250 C   0  0  0  0  0  0  0  0  0  0  0  0
   11.9484   20.3043   14.2834 C   0  0  0  0  0  0  0  0  0  0  0  0
   12.3112   21.3585   15.1283 C   0  0  0  0  0  0  0  0  0  0  0  0
   13.6416   21.7869   15.1913 C   0  0  0  0  0  0  0  0  0  0  0  0
 38 36  1  0  0  0
 37 36  1  0  0  0
 12 13  1  0  0  0
 12 11  1  0  0  0
 36 35  1  0  0  0
 13 14  1  0  0  0
 11 10  1  0  0  0
 11  6  1  0  0  0
 10 14  1  0  0  0
 10  9  1  0  0  0
  4  2  2  0  0  0
 14  7  1  0  0  0
 35 22  1  0  0  0
  6  2  1  0  0  0
  2  3  1  0  0  0
 23 24  2  0  0  0
  9 15  1  0  0  0
  9  8  1  0  0  0
  7  8  1  0  0  0
 22 24  1  0  0  0
 22 21  1  0  0  0
 15 16  1  0  0  0
  3  1  1  0  0  0
 18  1  1  0  0  0
 18 21  1  0  0  0
 18 19  1  0  0  0
 24 32  1  0  0  0
 24 25  2  0  0  0
 29 30  2  0  0  0
 29 32  1  0  0  0
  1 39  1  0  0  0
 30 27  1  0  0  0
 32 28  2  0  0  0
 44 43  2  0  0  0
 44 45  1  0  0  0
 39 45  1  0  0  0
 43 42  1  0  0  0
 45 40  2  0  0  0
 27 26  1  0  0  0
 27 31  2  0  0  0
 28 31  1  0  0  0
 42 41  2  0  0  0
 40 41  1  0  0  0
 26 33  1  0  0  0
 26 34  1  0  0  0
 19 20  1  0  0  0
  3  5  1  0  0  0
 15 17  1  0  0  0
M  END
> <minimizedAffinity>
-9.76952

$$$$
5BS4_4UX_A_201


 45 48  0  0  0  0  0  0  0  0999 V2000
   16.4732   21.9392   17.5091 C   0  0  0  0  0  0  0  0  0  0  0  0
   14.4515   21.3407   18.7859 C   0  0  0  0  0  0  0  0  0  0  0  0
   15.4168   21.0390   17.9231 N   0  0  0  0  0  0  0  0  0  0  0  0
   14.1653   22.4544   19.2343 O   0  0  0  0  0  0  0  0  0  0  0  0
   15.4133   20.1340   17.5356 H   0  0  0  0  0  0  0  0  0  0  0  0
   13.7438   20.2575   19.1419 O   0  0  0  0  0  0  0  0  0  0  0  0
   11.3871   18.3944   20.1778 O   0  0  0  0  0  0  0  0  0  0  0  0
   11.4330   18.6275   18.7580 C   0  0  0  0  0  0  0  0  0  0  0  0
   12.6595   17.9235   18.2295 C   0  0  0  0  0  0  0  0  0  0  0  0
   13.5837   17.8567   19.4474 C   0  0  0  0  0  0  0  0  0  0  0  0
   14.4393   19.1053   19.6165 C   0  0  0  0  0  0  0  0  0  0  0  0
   14.4688   19.2137   21.1405 C   0  0  0  0  0  0  0  0  0  0  0  0
   13.1727   18.7904   21.5807 O   0  0  0  0  0  0  0  0  0  0  0  0
   12.6399   17.8746   20.6249 C   0  0  0  0  0  0  0  0  0  0  0  0
   12.3315   16.5292   17.8792 N   0  0  0  0  0  0  0  0  0  0  0  0
   11.0052   16.3085   17.3300 C   0  0  0  0  0  0  0  0  0  0  0  0
   12.4171   15.9660   18.7252 H   0  0  0  0  0  0  0  0  0  0  0  0
   17.2614   22.3848   18.7409 C   0  0  0  0  0  0  0  0  0  0  0  0
   16.8644   23.7107   19.1071 O   0  0  0  0  0  0  0  0  0  0  0  0
   17.0894   24.3251   18.3910 H   0  0  0  0  0  0  0  0  0  0  0  0
   18.7677   22.3127   18.5843 C   0  0  0  0  0  0  0  0  0  0  0  0
   19.4210   23.5062   19.0932 N   0  0  0  0  0  0  0  0  0  0  0  0
   18.8235   24.1020   21.4111 O   0  0  0  0  0  0  0  0  0  0  0  0
   19.8718   23.4160   20.6623 S   0  0  0  0  0  0  0  0  0  0  0  0
   20.0391   21.9475   20.9684 O   0  0  0  0  0  0  0  0  0  0  0  0
   25.0085   25.9878   21.3436 N   0  0  0  0  0  0  0  0  0  0  0  0
   23.8482   25.3720   21.2180 C   0  0  0  0  0  0  0  0  0  0  0  0
   22.5919   23.3760   20.7570 C   0  0  0  0  0  0  0  0  0  0  0  0
   21.4809   25.4665   21.2901 C   0  0  0  0  0  0  0  0  0  0  0  0
   22.6881   26.1129   21.4904 C   0  0  0  0  0  0  0  0  0  0  0  0
   23.8277   24.0068   20.9505 C   0  0  0  0  0  0  0  0  0  0  0  0
   21.4350   24.1481   20.8933 C   0  0  0  0  0  0  0  0  0  0  0  0
   25.0354   26.9535   21.5328 H   0  0  0  0  0  0  0  0  0  0  0  0
   25.8474   25.4814   21.2480 H   0  0  0  0  0  0  0  0  0  0  0  0
   20.3620   24.2481   18.2693 C   0  0  0  0  0  0  0  0  0  0  0  0
   19.7848   25.5480   17.6751 C   0  0  0  0  0  0  0  0  0  0  0  0
   20.8857   26.6192   17.5204 C   0  0  0  0  0  0  0  0  0  0  0  0
   19.1882   25.2970   16.2738 C   0  0  0  0  0  0  0  0  0  0  0  0
   15.8906   23.1157   16.6939 C   0  0  0  0  0  0  0  0  0  0  0  0
   13.8619   22.7320   15.2256 C   0  0  0  0  0  0  0  0  0  0  0  0
   13.2770   22.2338   14.0509 C   0  0  0  0  0  0  0  0  0  0  0  0
   14.0619   21.6019   13.0927 C   0  0  0  0  0  0  0  0  0  0  0  0
   15.4340   21.4225   13.2853 C   0  0  0  0  0  0  0  0  0  0  0  0
   16.0161   21.9306   14.4513 C   0  0  0  0  0  0  0  0  0  0  0  0
   15.2299   22.5861   15.4050 C   0  0  0  0  0  0  0  0  0  0  0  0
 38 36  1  0  0  0
 37 36  1  0  0  0
 12 13  1  0  0  0
 12 11  1  0  0  0
 36 35  1  0  0  0
 13 14  1  0  0  0
 11 10  1  0  0  0
 11  6  1  0  0  0
 10 14  1  0  0  0
 10  9  1  0  0  0
  4  2  2  0  0  0
 14  7  1  0  0  0
 35 22  1  0  0  0
  6  2  1  0  0  0
  2  3  1  0  0  0
 23 24  2  0  0  0
  9 15  1  0  0  0
  9  8  1  0  0  0
  7  8  1  0  0  0
 22 24  1  0  0  0
 22 21  1  0  0  0
 15 16  1  0  0  0
  3  1  1  0  0  0
 18  1  1  0  0  0
 18 21  1  0  0  0
 18 19  1  0  0  0
 24 32  1  0  0  0
 24 25  2  0  0  0
 29 30  2  0  0  0
 29 32  1  0  0  0
  1 39  1  0  0  0
 30 27  1  0  0  0
 32 28  2  0  0  0
 44 43  2  0  0  0
 44 45  1  0  0  0
 39 45  1  0  0  0
 43 42  1  0  0  0
 45 40  2  0  0  0
 27 26  1  0  0  0
 27 31  2  0  0  0
 28 31  1  0  0  0
 42 41  2  0  0  0
 40 41  1  0  0  0
 26 33  1  0  0  0
 26 34  1  0  0  0
 19 20  1  0  0  0
  3  5  1  0  0  0
 15 17  1  0  0  0
M  END
> <minimizedAffinity>
-9.76791

$$$$
5BS4_4UX_A_201


 45 48  0  0  0  0  0  0  0  0999 V2000
   14.8484   21.7667   16.3591 C   0  0  0  0  0  0  0  0  0  0  0  0
   14.6539   20.1056   18.1697 C   0  0  0  0  0  0  0  0  0  0  0  0
   14.2315   21.1970   17.5391 N   0  0  0  0  0  0  0  0  0  0  0  0
   15.7171   19.5026   17.9984 O   0  0  0  0  0  0  0  0  0  0  0  0
   13.4382   21.6531   17.9022 H   0  0  0  0  0  0  0  0  0  0  0  0
   13.7741   19.6915   19.0946 O   0  0  0  0  0  0  0  0  0  0  0  0
   10.8612   18.4494   19.3599 O   0  0  0  0  0  0  0  0  0  0  0  0
   11.3861   18.5538   18.0235 C   0  0  0  0  0  0  0  0  0  0  0  0
   12.5257   17.5697   17.9134 C   0  0  0  0  0  0  0  0  0  0  0  0
   12.9978   17.4090   19.3602 C   0  0  0  0  0  0  0  0  0  0  0  0
   14.0177   18.4612   19.7755 C   0  0  0  0  0  0  0  0  0  0  0  0
   13.6072   18.6822   21.2308 C   0  0  0  0  0  0  0  0  0  0  0  0
   12.1785   18.5750   21.2473 O   0  0  0  0  0  0  0  0  0  0  0  0
   11.7704   17.7171   20.1825 C   0  0  0  0  0  0  0  0  0  0  0  0
   12.0171   16.2510   17.4929 N   0  0  0  0  0  0  0  0  0  0  0  0
   10.9408   16.2678   16.5179 C   0  0  0  0  0  0  0  0  0  0  0  0
   11.6780   15.7672   18.3244 H   0  0  0  0  0  0  0  0  0  0  0  0
   15.8429   22.8462   16.7867 C   0  0  0  0  0  0  0  0  0  0  0  0
   15.7149   23.9813   15.9236 O   0  0  0  0  0  0  0  0  0  0  0  0
   15.9480   23.7263   15.0172 H   0  0  0  0  0  0  0  0  0  0  0  0
   17.2868   22.3869   16.8386 C   0  0  0  0  0  0  0  0  0  0  0  0
   18.0895   23.2272   17.7101 N   0  0  0  0  0  0  0  0  0  0  0  0
   17.1048   23.0284   19.9630 O   0  0  0  0  0  0  0  0  0  0  0  0
   18.2978   22.6351   19.2199 S   0  0  0  0  0  0  0  0  0  0  0  0
   18.5096   21.1488   19.0635 O   0  0  0  0  0  0  0  0  0  0  0  0
   23.1084   24.8915   21.5069 N   0  0  0  0  0  0  0  0  0  0  0  0
   22.0153   24.3428   21.0115 C   0  0  0  0  0  0  0  0  0  0  0  0
   20.9188   22.4921   19.9404 C   0  0  0  0  0  0  0  0  0  0  0  0
   19.6973   24.5006   20.5425 C   0  0  0  0  0  0  0  0  0  0  0  0
   20.8180   25.0656   21.1254 C   0  0  0  0  0  0  0  0  0  0  0  0
   22.0691   23.0419   20.5211 C   0  0  0  0  0  0  0  0  0  0  0  0
   19.7566   23.2680   19.9301 C   0  0  0  0  0  0  0  0  0  0  0  0
   23.0824   25.8114   21.8568 H   0  0  0  0  0  0  0  0  0  0  0  0
   23.9500   24.3811   21.5265 H   0  0  0  0  0  0  0  0  0  0  0  0
   19.2615   23.9218   17.2013 C   0  0  0  0  0  0  0  0  0  0  0  0
   19.0220   25.4136   16.8961 C   0  0  0  0  0  0  0  0  0  0  0  0
   20.2492   26.2613   17.2946 C   0  0  0  0  0  0  0  0  0  0  0  0
   18.7802   25.6365   15.3880 C   0  0  0  0  0  0  0  0  0  0  0  0
   13.7682   22.2796   15.3802 C   0  0  0  0  0  0  0  0  0  0  0  0
   13.7282   20.1693   13.9787 C   0  0  0  0  0  0  0  0  0  0  0  0
   13.0321   19.0964   13.4004 C   0  0  0  0  0  0  0  0  0  0  0  0
   11.6611   18.9671   13.5935 C   0  0  0  0  0  0  0  0  0  0  0  0
   10.9434   19.9078   14.3364 C   0  0  0  0  0  0  0  0  0  0  0  0
   11.6416   20.9692   14.9216 C   0  0  0  0  0  0  0  0  0  0  0  0
   13.0247   21.0868   14.7456 C   0  0  0  0  0  0  0  0  0  0  0  0
 38 36  1  0  0  0
 37 36  1  0  0  0
 12 13  1  0  0  0
 12 11  1  0  0  0
 36 35  1  0  0  0
 13 14  1  0  0  0
 11 10  1  0  0  0
 11  6  1  0  0  0
 10 14  1  0  0  0
 10  9  1  0  0  0
  4  2  2  0  0  0
 14  7  1  0  0  0
 35 22  1  0  0  0
  6  2  1  0  0  0
  2  3  1  0  0  0
 23 24  2  0  0  0
  9 15  1  0  0  0
  9  8  1  0  0  0
  7  8  1  0  0  0
 22 24  1  0  0  0
 22 21  1  0  0  0
 15 16  1  0  0  0
  3  1  1  0  0  0
 18  1  1  0  0  0
 18 21  1  0  0  0
 18 19  1  0  0  0
 24 32  1  0  0  0
 24 25  2  0  0  0
 29 30  2  0  0  0
 29 32  1  0  0  0
  1 39  1  0  0  0
 30 27  1  0  0  0
 32 28  2  0  0  0
 44 43  2  0  0  0
 44 45  1  0  0  0
 39 45  1  0  0  0
 43 42  1  0  0  0
 45 40  2  0  0  0
 27 26  1  0  0  0
 27 31  2  0  0  0
 28 31  1  0  0  0
 42 41  2  0  0  0
 40 41  1  0  0  0
 26 33  1  0  0  0
 26 34  1  0  0  0
 19 20  1  0  0  0
  3  5  1  0  0  0
 15 17  1  0  0  0
M  END
> <minimizedAffinity>
-9.54991

$$$$
5BS4_4UX_A_201


 45 48  0  0  0  0  0  0  0  0999 V2000
   18.3736   25.4117   17.0864 C   0  0  0  0  0  0  0  0  0  0  0  0
   20.4678   25.6907   18.3562 C   0  0  0  0  0  0  0  0  0  0  0  0
   19.4503   24.9456   17.9358 N   0  0  0  0  0  0  0  0  0  0  0  0
   20.5878   26.9160   18.2706 O   0  0  0  0  0  0  0  0  0  0  0  0
   19.4268   24.0045   18.2239 H   0  0  0  0  0  0  0  0  0  0  0  0
   21.4184   24.9499   18.9465 O   0  0  0  0  0  0  0  0  0  0  0  0
   24.2909   24.8076   20.2980 O   0  0  0  0  0  0  0  0  0  0  0  0
   23.7569   26.1269   20.0822 C   0  0  0  0  0  0  0  0  0  0  0  0
   22.5842   26.2925   21.0186 C   0  0  0  0  0  0  0  0  0  0  0  0
   22.1210   24.8551   21.2660 C   0  0  0  0  0  0  0  0  0  0  0  0
   21.1407   24.3545   20.2134 C   0  0  0  0  0  0  0  0  0  0  0  0
   21.5723   22.8922   20.1095 C   0  0  0  0  0  0  0  0  0  0  0  0
   22.9967   22.9004   20.2638 O   0  0  0  0  0  0  0  0  0  0  0  0
   23.3658   24.0278   21.0569 C   0  0  0  0  0  0  0  0  0  0  0  0
   23.0448   26.8110   22.3199 N   0  0  0  0  0  0  0  0  0  0  0  0
   22.0417   26.8749   23.3682 C   0  0  0  0  0  0  0  0  0  0  0  0
   23.4023   27.7546   22.1715 H   0  0  0  0  0  0  0  0  0  0  0  0
   17.0579   24.7979   17.5652 C   0  0  0  0  0  0  0  0  0  0  0  0
   16.3513   25.7505   18.3671 O   0  0  0  0  0  0  0  0  0  0  0  0
   16.8717   25.9554   19.1596 H   0  0  0  0  0  0  0  0  0  0  0  0
   17.2102   23.4899   18.3166 C   0  0  0  0  0  0  0  0  0  0  0  0
   16.7385   22.3602   17.5347 N   0  0  0  0  0  0  0  0  0  0  0  0
   17.6259   20.1580   16.8658 O   0  0  0  0  0  0  0  0  0  0  0  0
   17.2582   20.9037   18.0654 S   0  0  0  0  0  0  0  0  0  0  0  0
   18.3839   21.1847   19.0308 O   0  0  0  0  0  0  0  0  0  0  0  0
   13.2155   18.2662   21.2536 N   0  0  0  0  0  0  0  0  0  0  0  0
   14.1085   18.8731   20.4949 C   0  0  0  0  0  0  0  0  0  0  0  0
   15.3287   19.0185   18.4298 C   0  0  0  0  0  0  0  0  0  0  0  0
   15.6742   20.6297   20.2112 C   0  0  0  0  0  0  0  0  0  0  0  0
   14.6944   20.0459   20.9949 C   0  0  0  0  0  0  0  0  0  0  0  0
   14.3343   18.4064   19.2038 C   0  0  0  0  0  0  0  0  0  0  0  0
   16.0112   20.1055   18.9825 C   0  0  0  0  0  0  0  0  0  0  0  0
   13.0472   18.5876   22.1689 H   0  0  0  0  0  0  0  0  0  0  0  0
   12.7175   17.4920   20.9044 H   0  0  0  0  0  0  0  0  0  0  0  0
   15.3799   22.3290   17.0168 C   0  0  0  0  0  0  0  0  0  0  0  0
   15.2414   22.8894   15.5875 C   0  0  0  0  0  0  0  0  0  0  0  0
   16.3321   22.3104   14.6609 C   0  0  0  0  0  0  0  0  0  0  0  0
   13.8741   22.5139   14.9776 C   0  0  0  0  0  0  0  0  0  0  0  0
   18.6880   25.1111   15.6035 C   0  0  0  0  0  0  0  0  0  0  0  0
   19.6723   27.3110   14.8219 C   0  0  0  0  0  0  0  0  0  0  0  0
   20.7637   28.0776   14.3845 C   0  0  0  0  0  0  0  0  0  0  0  0
   22.0215   27.4974   14.2623 C   0  0  0  0  0  0  0  0  0  0  0  0
   22.2236   26.1433   14.5411 C   0  0  0  0  0  0  0  0  0  0  0  0
   21.1368   25.3848   14.9883 C   0  0  0  0  0  0  0  0  0  0  0  0
   19.8761   25.9742   15.1325 C   0  0  0  0  0  0  0  0  0  0  0  0
 38 36  1  0  0  0
 37 36  1  0  0  0
 12 13  1  0  0  0
 12 11  1  0  0  0
 36 35  1  0  0  0
 13 14  1  0  0  0
 11 10  1  0  0  0
 11  6  1  0  0  0
 10 14  1  0  0  0
 10  9  1  0  0  0
  4  2  2  0  0  0
 14  7  1  0  0  0
 35 22  1  0  0  0
  6  2  1  0  0  0
  2  3  1  0  0  0
 23 24  2  0  0  0
  9 15  1  0  0  0
  9  8  1  0  0  0
  7  8  1  0  0  0
 22 24  1  0  0  0
 22 21  1  0  0  0
 15 16  1  0  0  0
  3  1  1  0  0  0
 18  1  1  0  0  0
 18 21  1  0  0  0
 18 19  1  0  0  0
 24 32  1  0  0  0
 24 25  2  0  0  0
 29 30  2  0  0  0
 29 32  1  0  0  0
  1 39  1  0  0  0
 30 27  1  0  0  0
 32 28  2  0  0  0
 44 43  2  0  0  0
 44 45  1  0  0  0
 39 45  1  0  0  0
 43 42  1  0  0  0
 45 40  2  0  0  0
 27 26  1  0  0  0
 27 31  2  0  0  0
 28 31  1  0  0  0
 42 41  2  0  0  0
 40 41  1  0  0  0
 26 33  1  0  0  0
 26 34  1  0  0  0
 19 20  1  0  0  0
  3  5  1  0  0  0
 15 17  1  0  0  0
M  END
> <minimizedAffinity>
-9.48243

$$$$
5BS4_4UX_A_201


 45 48  0  0  0  0  0  0  0  0999 V2000
   19.3749   23.9118   19.2833 C   0  0  0  0  0  0  0  0  0  0  0  0
   19.9729   24.7245   17.0344 C   0  0  0  0  0  0  0  0  0  0  0  0
   19.6720   24.9431   18.3107 N   0  0  0  0  0  0  0  0  0  0  0  0
   19.8730   23.6650   16.4094 O   0  0  0  0  0  0  0  0  0  0  0  0
   19.6494   25.8779   18.6185 H   0  0  0  0  0  0  0  0  0  0  0  0
   20.4073   25.8392   16.4261 O   0  0  0  0  0  0  0  0  0  0  0  0
   21.3831   28.8017   15.8185 O   0  0  0  0  0  0  0  0  0  0  0  0
   22.2176   28.0282   16.7003 C   0  0  0  0  0  0  0  0  0  0  0  0
   22.8470   26.9333   15.8729 C   0  0  0  0  0  0  0  0  0  0  0  0
   21.8632   26.7526   14.7147 C   0  0  0  0  0  0  0  0  0  0  0  0
   20.7326   25.7845   15.0377 C   0  0  0  0  0  0  0  0  0  0  0  0
   19.5772   26.4539   14.2947 C   0  0  0  0  0  0  0  0  0  0  0  0
   19.7939   27.8630   14.4376 O   0  0  0  0  0  0  0  0  0  0  0  0
   21.1930   28.0989   14.5898 C   0  0  0  0  0  0  0  0  0  0  0  0
   24.1083   27.4109   15.2767 N   0  0  0  0  0  0  0  0  0  0  0  0
   25.3276   26.9124   15.8881 C   0  0  0  0  0  0  0  0  0  0  0  0
   24.1193   28.4288   15.3423 H   0  0  0  0  0  0  0  0  0  0  0  0
   17.8691   23.6479   19.2878 C   0  0  0  0  0  0  0  0  0  0  0  0
   17.3590   23.8186   20.6146 O   0  0  0  0  0  0  0  0  0  0  0  0
   17.7622   23.1612   21.2031 H   0  0  0  0  0  0  0  0  0  0  0  0
   17.4659   22.2925   18.7411 C   0  0  0  0  0  0  0  0  0  0  0  0
   16.1776   22.3419   18.0718 N   0  0  0  0  0  0  0  0  0  0  0  0
   16.5546   23.8885   16.1875 O   0  0  0  0  0  0  0  0  0  0  0  0
   16.2633   22.4817   16.4450 S   0  0  0  0  0  0  0  0  0  0  0  0
   17.3196   21.5025   15.9935 O   0  0  0  0  0  0  0  0  0  0  0  0
   11.2200   20.8910   14.1000 N   0  0  0  0  0  0  0  0  0  0  0  0
   12.3910   21.2353   14.6017 C   0  0  0  0  0  0  0  0  0  0  0  0
   14.5771   20.6235   15.3900 C   0  0  0  0  0  0  0  0  0  0  0  0
   13.8462   22.9374   15.3782 C   0  0  0  0  0  0  0  0  0  0  0  0
   12.6382   22.6034   14.7915 C   0  0  0  0  0  0  0  0  0  0  0  0
   13.3609   20.2575   14.7987 C   0  0  0  0  0  0  0  0  0  0  0  0
   14.7709   21.9706   15.7070 C   0  0  0  0  0  0  0  0  0  0  0  0
   10.5259   21.5743   13.9563 H   0  0  0  0  0  0  0  0  0  0  0  0
   11.0404   19.9509   13.8695 H   0  0  0  0  0  0  0  0  0  0  0  0
   15.0752   21.5043   18.5167 C   0  0  0  0  0  0  0  0  0  0  0  0
   15.5183   20.2256   19.2545 C   0  0  0  0  0  0  0  0  0  0  0  0
   14.9402   20.1870   20.6856 C   0  0  0  0  0  0  0  0  0  0  0  0
   15.0153   18.9634   18.5220 C   0  0  0  0  0  0  0  0  0  0  0  0
   19.9345   24.3011   20.6701 C   0  0  0  0  0  0  0  0  0  0  0  0
   22.0925   23.1867   19.9490 C   0  0  0  0  0  0  0  0  0  0  0  0
   23.4937   23.1070   19.9631 C   0  0  0  0  0  0  0  0  0  0  0  0
   24.2393   24.0310   20.6871 C   0  0  0  0  0  0  0  0  0  0  0  0
   23.6185   25.0347   21.4348 C   0  0  0  0  0  0  0  0  0  0  0  0
   22.2224   25.1189   21.4091 C   0  0  0  0  0  0  0  0  0  0  0  0
   21.4735   24.2027   20.6627 C   0  0  0  0  0  0  0  0  0  0  0  0
 38 36  1  0  0  0
 37 36  1  0  0  0
 12 13  1  0  0  0
 12 11  1  0  0  0
 36 35  1  0  0  0
 13 14  1  0  0  0
 11 10  1  0  0  0
 11  6  1  0  0  0
 10 14  1  0  0  0
 10  9  1  0  0  0
  4  2  2  0  0  0
 14  7  1  0  0  0
 35 22  1  0  0  0
  6  2  1  0  0  0
  2  3  1  0  0  0
 23 24  2  0  0  0
  9 15  1  0  0  0
  9  8  1  0  0  0
  7  8  1  0  0  0
 22 24  1  0  0  0
 22 21  1  0  0  0
 15 16  1  0  0  0
  3  1  1  0  0  0
 18  1  1  0  0  0
 18 21  1  0  0  0
 18 19  1  0  0  0
 24 32  1  0  0  0
 24 25  2  0  0  0
 29 30  2  0  0  0
 29 32  1  0  0  0
  1 39  1  0  0  0
 30 27  1  0  0  0
 32 28  2  0  0  0
 44 43  2  0  0  0
 44 45  1  0  0  0
 39 45  1  0  0  0
 43 42  1  0  0  0
 45 40  2  0  0  0
 27 26  1  0  0  0
 27 31  2  0  0  0
 28 31  1  0  0  0
 42 41  2  0  0  0
 40 41  1  0  0  0
 26 33  1  0  0  0
 26 34  1  0  0  0
 19 20  1  0  0  0
  3  5  1  0  0  0
 15 17  1  0  0  0
M  END
> <minimizedAffinity>
-9.47680

$$$$
5BS4_4UX_A_201


 45 48  0  0  0  0  0  0  0  0999 V2000
   15.5148   21.0627   17.2249 C   0  0  0  0  0  0  0  0  0  0  0  0
   13.4650   21.6238   15.9763 C   0  0  0  0  0  0  0  0  0  0  0  0
   14.3711   20.7457   16.3947 N   0  0  0  0  0  0  0  0  0  0  0  0
   13.5225   22.8546   16.0470 O   0  0  0  0  0  0  0  0  0  0  0  0
   14.2560   19.8077   16.1189 H   0  0  0  0  0  0  0  0  0  0  0  0
   12.4102   21.0199   15.4073 O   0  0  0  0  0  0  0  0  0  0  0  0
    9.2507   20.9778   15.7448 O   0  0  0  0  0  0  0  0  0  0  0  0
    9.7427   21.2431   14.4181 C   0  0  0  0  0  0  0  0  0  0  0  0
   10.3790   19.9697   13.9152 C   0  0  0  0  0  0  0  0  0  0  0  0
   10.7765   19.2392   15.1998 C   0  0  0  0  0  0  0  0  0  0  0  0
   12.1458   19.6534   15.7224 C   0  0  0  0  0  0  0  0  0  0  0  0
   11.8937   19.5964   17.2286 C   0  0  0  0  0  0  0  0  0  0  0  0
   10.5463   20.0489   17.4097 O   0  0  0  0  0  0  0  0  0  0  0  0
    9.8002   19.7522   16.2300 C   0  0  0  0  0  0  0  0  0  0  0  0
    9.3674   19.1257   13.2527 N   0  0  0  0  0  0  0  0  0  0  0  0
    9.8152   17.8089   12.8347 C   0  0  0  0  0  0  0  0  0  0  0  0
    9.0403   19.6222   12.4239 H   0  0  0  0  0  0  0  0  0  0  0  0
   16.5161   21.8777   16.4063 C   0  0  0  0  0  0  0  0  0  0  0  0
   16.4001   21.5258   15.0234 O   0  0  0  0  0  0  0  0  0  0  0  0
   16.6344   20.5918   14.9067 H   0  0  0  0  0  0  0  0  0  0  0  0
   17.9562   21.7466   16.8619 C   0  0  0  0  0  0  0  0  0  0  0  0
   18.3651   22.8688   17.6887 N   0  0  0  0  0  0  0  0  0  0  0  0
   17.2215   23.0296   19.8683 O   0  0  0  0  0  0  0  0  0  0  0  0
   18.4646   22.5339   19.2859 S   0  0  0  0  0  0  0  0  0  0  0  0
   18.6869   21.0446   19.3906 O   0  0  0  0  0  0  0  0  0  0  0  0
   23.0828   25.1991   21.5296 N   0  0  0  0  0  0  0  0  0  0  0  0
   22.0360   24.5581   21.0449 C   0  0  0  0  0  0  0  0  0  0  0  0
   21.0865   22.6061   20.0139 C   0  0  0  0  0  0  0  0  0  0  0  0
   19.7144   24.5293   20.5684 C   0  0  0  0  0  0  0  0  0  0  0  0
   20.7870   25.1905   21.1404 C   0  0  0  0  0  0  0  0  0  0  0  0
   22.1899   23.2544   20.5840 C   0  0  0  0  0  0  0  0  0  0  0  0
   19.8689   23.2913   19.9841 C   0  0  0  0  0  0  0  0  0  0  0  0
   22.9859   26.1219   21.8586 H   0  0  0  0  0  0  0  0  0  0  0  0
   23.9605   24.7544   21.5621 H   0  0  0  0  0  0  0  0  0  0  0  0
   19.3904   23.7941   17.2331 C   0  0  0  0  0  0  0  0  0  0  0  0
   18.8760   25.2254   16.9829 C   0  0  0  0  0  0  0  0  0  0  0  0
   20.0402   26.2393   16.9964 C   0  0  0  0  0  0  0  0  0  0  0  0
   18.1900   25.3322   15.6043 C   0  0  0  0  0  0  0  0  0  0  0  0
   16.1182   19.7735   17.8266 C   0  0  0  0  0  0  0  0  0  0  0  0
   14.5554   18.1543   18.9907 C   0  0  0  0  0  0  0  0  0  0  0  0
   13.8017   17.7711   20.1111 C   0  0  0  0  0  0  0  0  0  0  0  0
   13.7957   18.5633   21.2539 C   0  0  0  0  0  0  0  0  0  0  0  0
   14.5092   19.7634   21.3059 C   0  0  0  0  0  0  0  0  0  0  0  0
   15.2690   20.1366   20.1924 C   0  0  0  0  0  0  0  0  0  0  0  0
   15.2926   19.3281   19.0507 C   0  0  0  0  0  0  0  0  0  0  0  0
 38 36  1  0  0  0
 37 36  1  0  0  0
 12 13  1  0  0  0
 12 11  1  0  0  0
 36 35  1  0  0  0
 13 14  1  0  0  0
 11 10  1  0  0  0
 11  6  1  0  0  0
 10 14  1  0  0  0
 10  9  1  0  0  0
  4  2  2  0  0  0
 14  7  1  0  0  0
 35 22  1  0  0  0
  6  2  1  0  0  0
  2  3  1  0  0  0
 23 24  2  0  0  0
  9 15  1  0  0  0
  9  8  1  0  0  0
  7  8  1  0  0  0
 22 24  1  0  0  0
 22 21  1  0  0  0
 15 16  1  0  0  0
  3  1  1  0  0  0
 18  1  1  0  0  0
 18 21  1  0  0  0
 18 19  1  0  0  0
 24 32  1  0  0  0
 24 25  2  0  0  0
 29 30  2  0  0  0
 29 32  1  0  0  0
  1 39  1  0  0  0
 30 27  1  0  0  0
 32 28  2  0  0  0
 44 43  2  0  0  0
 44 45  1  0  0  0
 39 45  1  0  0  0
 43 42  1  0  0  0
 45 40  2  0  0  0
 27 26  1  0  0  0
 27 31  2  0  0  0
 28 31  1  0  0  0
 42 41  2  0  0  0
 40 41  1  0  0  0
 26 33  1  0  0  0
 26 34  1  0  0  0
 19 20  1  0  0  0
  3  5  1  0  0  0
 15 17  1  0  0  0
M  END
> <minimizedAffinity>
-9.11729

$$$$
5BS4_4UX_A_201


 45 48  0  0  0  0  0  0  0  0999 V2000
   15.7581   21.4632   16.8648 C   0  0  0  0  0  0  0  0  0  0  0  0
   13.5132   21.8107   15.9080 C   0  0  0  0  0  0  0  0  0  0  0  0
   14.5465   21.0275   16.2015 N   0  0  0  0  0  0  0  0  0  0  0  0
   13.4641   23.0426   15.9643 O   0  0  0  0  0  0  0  0  0  0  0  0
   14.4833   20.0782   15.9486 H   0  0  0  0  0  0  0  0  0  0  0  0
   12.4520   21.1020   15.4925 O   0  0  0  0  0  0  0  0  0  0  0  0
    9.3133   20.7148   15.8035 O   0  0  0  0  0  0  0  0  0  0  0  0
    9.7922   20.9604   14.4683 C   0  0  0  0  0  0  0  0  0  0  0  0
   10.5780   19.7427   14.0449 C   0  0  0  0  0  0  0  0  0  0  0  0
   11.0366   19.1360   15.3728 C   0  0  0  0  0  0  0  0  0  0  0  0
   12.3412   19.7339   15.8831 C   0  0  0  0  0  0  0  0  0  0  0  0
   12.0740   19.7326   17.3877 C   0  0  0  0  0  0  0  0  0  0  0  0
   10.6809   20.0360   17.5305 O   0  0  0  0  0  0  0  0  0  0  0  0
    9.9922   19.5897   16.3631 C   0  0  0  0  0  0  0  0  0  0  0  0
    9.6802   18.7520   13.4229 N   0  0  0  0  0  0  0  0  0  0  0  0
   10.1894   17.3940   13.3474 C   0  0  0  0  0  0  0  0  0  0  0  0
    9.4807   19.0642   12.4726 H   0  0  0  0  0  0  0  0  0  0  0  0
   16.6167   22.2475   15.8725 C   0  0  0  0  0  0  0  0  0  0  0  0
   16.4815   21.6741   14.5676 O   0  0  0  0  0  0  0  0  0  0  0  0
   16.8206   20.7653   14.5771 H   0  0  0  0  0  0  0  0  0  0  0  0
   18.0812   22.3502   16.2512 C   0  0  0  0  0  0  0  0  0  0  0  0
   18.3354   23.4850   17.1217 N   0  0  0  0  0  0  0  0  0  0  0  0
   17.4139   24.6458   15.1499 O   0  0  0  0  0  0  0  0  0  0  0  0
   17.9832   24.9387   16.4615 S   0  0  0  0  0  0  0  0  0  0  0  0
   17.0599   25.6305   17.4348 O   0  0  0  0  0  0  0  0  0  0  0  0
   22.6924   28.2921   16.2565 N   0  0  0  0  0  0  0  0  0  0  0  0
   21.6352   27.5025   16.2721 C   0  0  0  0  0  0  0  0  0  0  0  0
   19.7976   26.4641   15.1234 C   0  0  0  0  0  0  0  0  0  0  0  0
   20.1813   26.0796   17.4885 C   0  0  0  0  0  0  0  0  0  0  0  0
   21.3300   26.8513   17.4770 C   0  0  0  0  0  0  0  0  0  0  0  0
   20.9548   27.2528   15.0845 C   0  0  0  0  0  0  0  0  0  0  0  0
   19.4142   25.9256   16.3546 C   0  0  0  0  0  0  0  0  0  0  0  0
   23.1818   28.4761   17.0907 H   0  0  0  0  0  0  0  0  0  0  0  0
   22.9917   28.6973   15.4106 H   0  0  0  0  0  0  0  0  0  0  0  0
   18.0356   23.4144   18.5430 C   0  0  0  0  0  0  0  0  0  0  0  0
   19.2321   22.9854   19.4149 C   0  0  0  0  0  0  0  0  0  0  0  0
   19.3127   23.8397   20.6983 C   0  0  0  0  0  0  0  0  0  0  0  0
   19.0958   21.5114   19.8524 C   0  0  0  0  0  0  0  0  0  0  0  0
   16.4923   20.2574   17.4934 C   0  0  0  0  0  0  0  0  0  0  0  0
   15.1109   18.4185   18.5561 C   0  0  0  0  0  0  0  0  0  0  0  0
   14.3496   17.9211   19.6252 C   0  0  0  0  0  0  0  0  0  0  0  0
   14.1525   18.6956   20.7631 C   0  0  0  0  0  0  0  0  0  0  0  0
   14.6773   19.9869   20.8590 C   0  0  0  0  0  0  0  0  0  0  0  0
   15.4456   20.4753   19.7970 C   0  0  0  0  0  0  0  0  0  0  0  0
   15.6624   19.6872   18.6615 C   0  0  0  0  0  0  0  0  0  0  0  0
 38 36  1  0  0  0
 37 36  1  0  0  0
 12 13  1  0  0  0
 12 11  1  0  0  0
 36 35  1  0  0  0
 13 14  1  0  0  0
 11 10  1  0  0  0
 11  6  1  0  0  0
 10 14  1  0  0  0
 10  9  1  0  0  0
  4  2  2  0  0  0
 14  7  1  0  0  0
 35 22  1  0  0  0
  6  2  1  0  0  0
  2  3  1  0  0  0
 23 24  2  0  0  0
  9 15  1  0  0  0
  9  8  1  0  0  0
  7  8  1  0  0  0
 22 24  1  0  0  0
 22 21  1  0  0  0
 15 16  1  0  0  0
  3  1  1  0  0  0
 18  1  1  0  0  0
 18 21  1  0  0  0
 18 19  1  0  0  0
 24 32  1  0  0  0
 24 25  2  0  0  0
 29 30  2  0  0  0
 29 32  1  0  0  0
  1 39  1  0  0  0
 30 27  1  0  0  0
 32 28  2  0  0  0
 44 43  2  0  0  0
 44 45  1  0  0  0
 39 45  1  0  0  0
 43 42  1  0  0  0
 45 40  2  0  0  0
 27 26  1  0  0  0
 27 31  2  0  0  0
 28 31  1  0  0  0
 42 41  2  0  0  0
 40 41  1  0  0  0
 26 33  1  0  0  0
 26 34  1  0  0  0
 19 20  1  0  0  0
  3  5  1  0  0  0
 15 17  1  0  0  0
M  END
> <minimizedAffinity>
-9.04301

$$$$
5BS4_4UX_A_201


 45 48  0  0  0  0  0  0  0  0999 V2000
   18.5405   23.0684   17.9918 C   0  0  0  0  0  0  0  0  0  0  0  0
   19.6645   24.3000   19.8072 C   0  0  0  0  0  0  0  0  0  0  0  0
   19.7022   23.5449   18.7137 N   0  0  0  0  0  0  0  0  0  0  0  0
   18.6800   24.5691   20.5010 O   0  0  0  0  0  0  0  0  0  0  0  0
   20.5880   23.2900   18.3679 H   0  0  0  0  0  0  0  0  0  0  0  0
   20.8800   24.7650   20.1347 O   0  0  0  0  0  0  0  0  0  0  0  0
   23.7075   25.1724   21.5265 O   0  0  0  0  0  0  0  0  0  0  0  0
   23.4129   23.8397   21.0687 C   0  0  0  0  0  0  0  0  0  0  0  0
   23.3980   23.8794   19.5595 C   0  0  0  0  0  0  0  0  0  0  0  0
   23.0623   25.3391   19.2454 C   0  0  0  0  0  0  0  0  0  0  0  0
   21.5645   25.6134   19.2137 C   0  0  0  0  0  0  0  0  0  0  0  0
   21.5301   27.0195   19.8112 C   0  0  0  0  0  0  0  0  0  0  0  0
   22.5556   27.0367   20.8117 O   0  0  0  0  0  0  0  0  0  0  0  0
   23.5671   26.0981   20.4481 C   0  0  0  0  0  0  0  0  0  0  0  0
   24.7549   23.6421   19.0334 N   0  0  0  0  0  0  0  0  0  0  0  0
   25.3961   22.4122   19.4640 C   0  0  0  0  0  0  0  0  0  0  0  0
   25.3445   24.4212   19.3267 H   0  0  0  0  0  0  0  0  0  0  0  0
   17.9887   21.8285   18.6955 C   0  0  0  0  0  0  0  0  0  0  0  0
   19.0420   21.1821   19.4185 O   0  0  0  0  0  0  0  0  0  0  0  0
   19.7200   20.8750   18.7965 H   0  0  0  0  0  0  0  0  0  0  0  0
   17.2983   20.8387   17.7777 C   0  0  0  0  0  0  0  0  0  0  0  0
   15.8696   21.0873   17.6926 N   0  0  0  0  0  0  0  0  0  0  0  0
   16.0832   20.5933   20.0999 O   0  0  0  0  0  0  0  0  0  0  0  0
   15.0800   21.0021   19.1217 S   0  0  0  0  0  0  0  0  0  0  0  0
   14.4660   22.3628   19.3452 O   0  0  0  0  0  0  0  0  0  0  0  0
   10.5729   17.3920   18.7786 N   0  0  0  0  0  0  0  0  0  0  0  0
   11.6275   18.1820   18.8506 C   0  0  0  0  0  0  0  0  0  0  0  0
   13.7299   18.7574   19.8623 C   0  0  0  0  0  0  0  0  0  0  0  0
   12.8022   20.0787   18.0505 C   0  0  0  0  0  0  0  0  0  0  0  0
   11.7219   19.2244   17.9161 C   0  0  0  0  0  0  0  0  0  0  0  0
   12.6451   17.8782   19.7495 C   0  0  0  0  0  0  0  0  0  0  0  0
   13.7560   19.8749   19.0235 C   0  0  0  0  0  0  0  0  0  0  0  0
    9.8466   17.5970   18.1463 H   0  0  0  0  0  0  0  0  0  0  0  0
   10.5123   16.5978   19.3572 H   0  0  0  0  0  0  0  0  0  0  0  0
   15.3446   22.1165   16.8093 C   0  0  0  0  0  0  0  0  0  0  0  0
   14.8673   21.5856   15.4432 C   0  0  0  0  0  0  0  0  0  0  0  0
   13.5342   22.2461   15.0310 C   0  0  0  0  0  0  0  0  0  0  0  0
   15.8973   21.9016   14.3379 C   0  0  0  0  0  0  0  0  0  0  0  0
   18.8905   22.8269   16.5061 C   0  0  0  0  0  0  0  0  0  0  0  0
   20.2894   24.7213   15.5717 C   0  0  0  0  0  0  0  0  0  0  0  0
   20.3948   25.9555   14.9117 C   0  0  0  0  0  0  0  0  0  0  0  0
   19.2510   26.6153   14.4757 C   0  0  0  0  0  0  0  0  0  0  0  0
   17.9786   26.0864   14.7066 C   0  0  0  0  0  0  0  0  0  0  0  0
   17.8772   24.8505   15.3538 C   0  0  0  0  0  0  0  0  0  0  0  0
   19.0294   24.1762   15.7725 C   0  0  0  0  0  0  0  0  0  0  0  0
 38 36  1  0  0  0
 37 36  1  0  0  0
 12 13  1  0  0  0
 12 11  1  0  0  0
 36 35  1  0  0  0
 13 14  1  0  0  0
 11 10  1  0  0  0
 11  6  1  0  0  0
 10 14  1  0  0  0
 10  9  1  0  0  0
  4  2  2  0  0  0
 14  7  1  0  0  0
 35 22  1  0  0  0
  6  2  1  0  0  0
  2  3  1  0  0  0
 23 24  2  0  0  0
  9 15  1  0  0  0
  9  8  1  0  0  0
  7  8  1  0  0  0
 22 24  1  0  0  0
 22 21  1  0  0  0
 15 16  1  0  0  0
  3  1  1  0  0  0
 18  1  1  0  0  0
 18 21  1  0  0  0
 18 19  1  0  0  0
 24 32  1  0  0  0
 24 25  2  0  0  0
 29 30  2  0  0  0
 29 32  1  0  0  0
  1 39  1  0  0  0
 30 27  1  0  0  0
 32 28  2  0  0  0
 44 43  2  0  0  0
 44 45  1  0  0  0
 39 45  1  0  0  0
 43 42  1  0  0  0
 45 40  2  0  0  0
 27 26  1  0  0  0
 27 31  2  0  0  0
 28 31  1  0  0  0
 42 41  2  0  0  0
 40 41  1  0  0  0
 26 33  1  0  0  0
 26 34  1  0  0  0
 19 20  1  0  0  0
  3  5  1  0  0  0
 15 17  1  0  0  0
M  END
> <minimizedAffinity>
-9.02491

$$$$
5BS4_4UX_A_201


 45 48  0  0  0  0  0  0  0  0999 V2000
   18.4275   23.3084   17.7060 C   0  0  0  0  0  0  0  0  0  0  0  0
   19.5739   24.3100   19.6447 C   0  0  0  0  0  0  0  0  0  0  0  0
   19.5901   23.7970   18.4184 N   0  0  0  0  0  0  0  0  0  0  0  0
   18.6424   24.2933   20.4541 O   0  0  0  0  0  0  0  0  0  0  0  0
   20.4593   23.7452   17.9590 H   0  0  0  0  0  0  0  0  0  0  0  0
   20.7493   24.8724   19.9660 O   0  0  0  0  0  0  0  0  0  0  0  0
   23.2408   26.8347   20.1659 O   0  0  0  0  0  0  0  0  0  0  0  0
   21.9911   27.3444   20.6667 C   0  0  0  0  0  0  0  0  0  0  0  0
   21.6559   26.5594   21.9121 C   0  0  0  0  0  0  0  0  0  0  0  0
   22.3969   25.2360   21.7085 C   0  0  0  0  0  0  0  0  0  0  0  0
   21.5906   24.2168   20.9141 C   0  0  0  0  0  0  0  0  0  0  0  0
   22.7069   23.5473   20.1136 C   0  0  0  0  0  0  0  0  0  0  0  0
   23.6339   24.5933   19.7983 O   0  0  0  0  0  0  0  0  0  0  0  0
   23.5529   25.5980   20.8084 C   0  0  0  0  0  0  0  0  0  0  0  0
   22.2644   27.1994   23.0930 N   0  0  0  0  0  0  0  0  0  0  0  0
   21.4940   27.1258   24.3219 C   0  0  0  0  0  0  0  0  0  0  0  0
   22.4101   28.1850   22.8740 H   0  0  0  0  0  0  0  0  0  0  0  0
   17.8894   22.0678   18.4190 C   0  0  0  0  0  0  0  0  0  0  0  0
   18.9536   21.4283   19.1320 O   0  0  0  0  0  0  0  0  0  0  0  0
   19.6262   21.1228   18.5034 H   0  0  0  0  0  0  0  0  0  0  0  0
   17.1936   21.0724   17.5114 C   0  0  0  0  0  0  0  0  0  0  0  0
   15.7574   21.2871   17.4754 N   0  0  0  0  0  0  0  0  0  0  0  0
   16.0688   20.8230   19.8779 O   0  0  0  0  0  0  0  0  0  0  0  0
   15.0206   21.1927   18.9319 S   0  0  0  0  0  0  0  0  0  0  0  0
   14.3747   22.5369   19.1648 O   0  0  0  0  0  0  0  0  0  0  0  0
   10.6176   17.4453   18.7455 N   0  0  0  0  0  0  0  0  0  0  0  0
   11.6494   18.2667   18.7893 C   0  0  0  0  0  0  0  0  0  0  0  0
   13.6418   19.0471   19.8831 C   0  0  0  0  0  0  0  0  0  0  0  0
   12.8643   20.0546   17.8169 C   0  0  0  0  0  0  0  0  0  0  0  0
   11.8135   19.1594   17.7192 C   0  0  0  0  0  0  0  0  0  0  0  0
   12.5849   18.1304   19.8101 C   0  0  0  0  0  0  0  0  0  0  0  0
   13.7279   20.0263   18.8898 C   0  0  0  0  0  0  0  0  0  0  0  0
    9.9493   17.5322   18.0278 H   0  0  0  0  0  0  0  0  0  0  0  0
   10.5161   16.7455   19.4305 H   0  0  0  0  0  0  0  0  0  0  0  0
   15.1776   22.2980   16.6054 C   0  0  0  0  0  0  0  0  0  0  0  0
   14.7442   21.7634   15.2261 C   0  0  0  0  0  0  0  0  0  0  0  0
   13.5046   22.5227   14.7059 C   0  0  0  0  0  0  0  0  0  0  0  0
   15.8675   21.9498   14.1841 C   0  0  0  0  0  0  0  0  0  0  0  0
   18.7701   23.0624   16.2194 C   0  0  0  0  0  0  0  0  0  0  0  0
   20.3057   24.8889   15.3679 C   0  0  0  0  0  0  0  0  0  0  0  0
   20.5045   26.1207   14.7252 C   0  0  0  0  0  0  0  0  0  0  0  0
   19.4173   26.8417   14.2437 C   0  0  0  0  0  0  0  0  0  0  0  0
   18.1102   26.3775   14.4111 C   0  0  0  0  0  0  0  0  0  0  0  0
   17.9159   25.1438   15.0412 C   0  0  0  0  0  0  0  0  0  0  0  0
   19.0116   24.4081   15.5058 C   0  0  0  0  0  0  0  0  0  0  0  0
 38 36  1  0  0  0
 37 36  1  0  0  0
 12 13  1  0  0  0
 12 11  1  0  0  0
 36 35  1  0  0  0
 13 14  1  0  0  0
 11 10  1  0  0  0
 11  6  1  0  0  0
 10 14  1  0  0  0
 10  9  1  0  0  0
  4  2  2  0  0  0
 14  7  1  0  0  0
 35 22  1  0  0  0
  6  2  1  0  0  0
  2  3  1  0  0  0
 23 24  2  0  0  0
  9 15  1  0  0  0
  9  8  1  0  0  0
  7  8  1  0  0  0
 22 24  1  0  0  0
 22 21  1  0  0  0
 15 16  1  0  0  0
  3  1  1  0  0  0
 18  1  1  0  0  0
 18 21  1  0  0  0
 18 19  1  0  0  0
 24 32  1  0  0  0
 24 25  2  0  0  0
 29 30  2  0  0  0
 29 32  1  0  0  0
  1 39  1  0  0  0
 30 27  1  0  0  0
 32 28  2  0  0  0
 44 43  2  0  0  0
 44 45  1  0  0  0
 39 45  1  0  0  0
 43 42  1  0  0  0
 45 40  2  0  0  0
 27 26  1  0  0  0
 27 31  2  0  0  0
 28 31  1  0  0  0
 42 41  2  0  0  0
 40 41  1  0  0  0
 26 33  1  0  0  0
 26 34  1  0  0  0
 19 20  1  0  0  0
  3  5  1  0  0  0
 15 17  1  0  0  0
M  END
> <minimizedAffinity>
-8.97708

$$$$
