3U92_KAI_A_258


 18 18  0  0  0  0  0  0  0  0999 V2000
   44.4631   34.8578   16.9422 N   0  0  0  0  0  0  0  0  0  0  0  0
   45.8353   35.3200   17.1983 C   0  0  0  0  0  0  0  0  0  0  0  0
   43.8846   34.5538   18.2357 C   0  0  0  0  0  0  0  0  0  0  0  0
   45.0007   34.6358   19.2282 C   0  0  0  0  0  0  0  0  0  0  0  0
   45.8330   35.7083   18.6405 C   0  0  0  0  0  0  0  0  0  0  0  0
   44.4758   34.0228   16.3565 H   0  0  0  0  0  0  0  0  0  0  0  0
   42.7826   35.5146   18.5810 C   0  0  0  0  0  0  0  0  0  0  0  0
   42.4662   35.6491   19.7878 O   0  0  0  0  0  0  0  0  0  0  0  0
   42.1925   36.1940   17.6857 O   0  0  0  0  0  0  0  0  0  0  0  0
   42.4316   36.0908   16.7856 H   0  0  0  0  0  0  0  0  0  0  0  0
   48.3959   35.9384   18.4892 C   0  0  0  0  0  0  0  0  0  0  0  0
   47.3556   36.0087   20.7494 C   0  0  0  0  0  0  0  0  0  0  0  0
   47.2396   35.8588   19.3252 C   0  0  0  0  0  0  0  0  0  0  0  0
   45.7775   33.3458   19.3845 C   0  0  0  0  0  0  0  0  0  0  0  0
   45.3258   32.3398   20.4610 C   0  0  0  0  0  0  0  0  0  0  0  0
   44.1182   32.3263   20.8466 O   0  0  0  0  0  0  0  0  0  0  0  0
   46.1738   31.5191   20.9706 O   0  0  0  0  0  0  0  0  0  0  0  0
   43.5009   32.9249   20.4745 H   0  0  0  0  0  0  0  0  0  0  0  0
  1  2  1  0  0  0
  1  3  1  0  0  0
  2  5  1  0  0  0
 11 13  2  0  0  0
 12 13  1  0  0  0
  3  4  1  0  0  0
  3  7  1  0  0  0
  4 14  1  0  0  0
  4  5  1  0  0  0
 14 15  1  0  0  0
  5 13  1  0  0  0
 15 16  1  0  0  0
 15 17  2  0  0  0
  7  8  2  0  0  0
  7  9  1  0  0  0
  1  6  1  0  0  0
 16 18  1  0  0  0
  9 10  1  0  0  0
M  END
> <minimizedAffinity>
-8.03295

$$$$
3U92_KAI_A_258


 18 18  0  0  0  0  0  0  0  0999 V2000
   45.8473   34.7751   21.1095 N   0  0  0  0  0  0  0  0  0  0  0  0
   46.8041   35.3062   20.1273 C   0  0  0  0  0  0  0  0  0  0  0  0
   44.8122   34.1017   20.3509 C   0  0  0  0  0  0  0  0  0  0  0  0
   45.0590   34.4316   18.9129 C   0  0  0  0  0  0  0  0  0  0  0  0
   46.5354   34.5213   18.8853 C   0  0  0  0  0  0  0  0  0  0  0  0
   45.4449   35.5359   21.6568 H   0  0  0  0  0  0  0  0  0  0  0  0
   44.8460   32.6172   20.5784 C   0  0  0  0  0  0  0  0  0  0  0  0
   43.9386   31.9159   20.0691 O   0  0  0  0  0  0  0  0  0  0  0  0
   45.7748   32.0718   21.2501 O   0  0  0  0  0  0  0  0  0  0  0  0
   46.4506   32.5989   21.6289 H   0  0  0  0  0  0  0  0  0  0  0  0
   48.1293   36.1088   17.6269 C   0  0  0  0  0  0  0  0  0  0  0  0
   46.6747   34.6107   16.2722 C   0  0  0  0  0  0  0  0  0  0  0  0
   47.1039   35.1166   17.5466 C   0  0  0  0  0  0  0  0  0  0  0  0
   44.4107   35.7226   18.4604 C   0  0  0  0  0  0  0  0  0  0  0  0
   42.8721   35.7969   18.4127 C   0  0  0  0  0  0  0  0  0  0  0  0
   42.2894   36.1592   17.3468 O   0  0  0  0  0  0  0  0  0  0  0  0
   42.1811   35.4969   19.4543 O   0  0  0  0  0  0  0  0  0  0  0  0
   42.7940   36.3777   16.5881 H   0  0  0  0  0  0  0  0  0  0  0  0
  1  2  1  0  0  0
  1  3  1  0  0  0
  2  5  1  0  0  0
 11 13  2  0  0  0
 12 13  1  0  0  0
  3  4  1  0  0  0
  3  7  1  0  0  0
  4 14  1  0  0  0
  4  5  1  0  0  0
 14 15  1  0  0  0
  5 13  1  0  0  0
 15 16  1  0  0  0
 15 17  2  0  0  0
  7  8  2  0  0  0
  7  9  1  0  0  0
  1  6  1  0  0  0
 16 18  1  0  0  0
  9 10  1  0  0  0
M  END
> <minimizedAffinity>
-7.77714

$$$$
3U92_KAI_A_258


 18 18  0  0  0  0  0  0  0  0999 V2000
   45.4935   31.4812   20.1271 N   0  0  0  0  0  0  0  0  0  0  0  0
   45.1519   32.9045   20.2671 C   0  0  0  0  0  0  0  0  0  0  0  0
   46.9134   31.4263   19.8427 C   0  0  0  0  0  0  0  0  0  0  0  0
   47.3520   32.8363   19.6036 C   0  0  0  0  0  0  0  0  0  0  0  0
   46.4607   33.5769   20.5232 C   0  0  0  0  0  0  0  0  0  0  0  0
   44.9640   31.0652   19.3609 H   0  0  0  0  0  0  0  0  0  0  0  0
   47.6754   30.8089   20.9808 C   0  0  0  0  0  0  0  0  0  0  0  0
   48.9098   30.6306   20.8436 O   0  0  0  0  0  0  0  0  0  0  0  0
   47.0999   30.4902   22.0664 O   0  0  0  0  0  0  0  0  0  0  0  0
   46.1779   30.6249   22.1650 H   0  0  0  0  0  0  0  0  0  0  0  0
   45.2638   35.8178   20.0874 C   0  0  0  0  0  0  0  0  0  0  0  0
   47.7263   35.8678   20.4467 C   0  0  0  0  0  0  0  0  0  0  0  0
   46.4978   35.1343   20.3159 C   0  0  0  0  0  0  0  0  0  0  0  0
   47.1847   33.2952   18.1706 C   0  0  0  0  0  0  0  0  0  0  0  0
   48.0320   32.6171   17.0764 C   0  0  0  0  0  0  0  0  0  0  0  0
   47.6792   32.6997   15.8617 O   0  0  0  0  0  0  0  0  0  0  0  0
   49.0922   31.9643   17.3961 O   0  0  0  0  0  0  0  0  0  0  0  0
   46.9062   33.1757   15.6296 H   0  0  0  0  0  0  0  0  0  0  0  0
  1  2  1  0  0  0
  1  3  1  0  0  0
  2  5  1  0  0  0
 11 13  2  0  0  0
 12 13  1  0  0  0
  3  4  1  0  0  0
  3  7  1  0  0  0
  4 14  1  0  0  0
  4  5  1  0  0  0
 14 15  1  0  0  0
  5 13  1  0  0  0
 15 16  1  0  0  0
 15 17  2  0  0  0
  7  8  2  0  0  0
  7  9  1  0  0  0
  1  6  1  0  0  0
 16 18  1  0  0  0
  9 10  1  0  0  0
M  END
> <minimizedAffinity>
-7.44716

$$$$
3U92_KAI_A_258


 18 18  0  0  0  0  0  0  0  0999 V2000
   44.5050   34.0039   20.6076 N   0  0  0  0  0  0  0  0  0  0  0  0
   45.4617   32.8875   20.6268 C   0  0  0  0  0  0  0  0  0  0  0  0
   44.8627   34.8310   19.4726 C   0  0  0  0  0  0  0  0  0  0  0  0
   46.1665   34.3060   18.9606 C   0  0  0  0  0  0  0  0  0  0  0  0
   46.0289   32.8608   19.2454 C   0  0  0  0  0  0  0  0  0  0  0  0
   44.5734   34.5419   21.4715 H   0  0  0  0  0  0  0  0  0  0  0  0
   43.8050   34.7837   18.4069 C   0  0  0  0  0  0  0  0  0  0  0  0
   42.6056   34.6847   18.7622 O   0  0  0  0  0  0  0  0  0  0  0  0
   44.1029   34.8613   17.1754 O   0  0  0  0  0  0  0  0  0  0  0  0
   44.9997   34.9351   16.9140 H   0  0  0  0  0  0  0  0  0  0  0  0
   47.8292   31.2464   20.1379 C   0  0  0  0  0  0  0  0  0  0  0  0
   48.0487   32.0471   17.7914 C   0  0  0  0  0  0  0  0  0  0  0  0
   47.3632   32.0528   19.0541 C   0  0  0  0  0  0  0  0  0  0  0  0
   47.3781   34.8995   19.6474 C   0  0  0  0  0  0  0  0  0  0  0  0
   48.2570   35.8925   18.8622 C   0  0  0  0  0  0  0  0  0  0  0  0
   49.2733   36.4109   19.4148 O   0  0  0  0  0  0  0  0  0  0  0  0
   47.9566   36.1983   17.6504 O   0  0  0  0  0  0  0  0  0  0  0  0
   49.4915   36.1873   20.2982 H   0  0  0  0  0  0  0  0  0  0  0  0
  1  2  1  0  0  0
  1  3  1  0  0  0
  2  5  1  0  0  0
 11 13  2  0  0  0
 12 13  1  0  0  0
  3  4  1  0  0  0
  3  7  1  0  0  0
  4 14  1  0  0  0
  4  5  1  0  0  0
 14 15  1  0  0  0
  5 13  1  0  0  0
 15 16  1  0  0  0
 15 17  2  0  0  0
  7  8  2  0  0  0
  7  9  1  0  0  0
  1  6  1  0  0  0
 16 18  1  0  0  0
  9 10  1  0  0  0
M  END
> <minimizedAffinity>
-7.40044

$$$$
3U92_KAI_A_258


 18 18  0  0  0  0  0  0  0  0999 V2000
   44.2305   32.4313   20.2150 N   0  0  0  0  0  0  0  0  0  0  0  0
   44.5065   33.7747   19.6847 C   0  0  0  0  0  0  0  0  0  0  0  0
   45.5083   31.8788   20.6176 C   0  0  0  0  0  0  0  0  0  0  0  0
   46.5544   32.8241   20.1178 C   0  0  0  0  0  0  0  0  0  0  0  0
   45.8520   34.1209   20.2329 C   0  0  0  0  0  0  0  0  0  0  0  0
   43.8055   31.8481   19.4941 H   0  0  0  0  0  0  0  0  0  0  0  0
   45.5903   31.7216   22.1094 C   0  0  0  0  0  0  0  0  0  0  0  0
   46.5111   31.0134   22.5838 O   0  0  0  0  0  0  0  0  0  0  0  0
   44.7670   32.3018   22.8819 O   0  0  0  0  0  0  0  0  0  0  0  0
   44.0807   32.8299   22.5238 H   0  0  0  0  0  0  0  0  0  0  0  0
   47.7707   35.8411   20.1681 C   0  0  0  0  0  0  0  0  0  0  0  0
   46.1955   35.7860   18.2416 C   0  0  0  0  0  0  0  0  0  0  0  0
   46.6065   35.3086   19.5329 C   0  0  0  0  0  0  0  0  0  0  0  0
   46.9977   32.5513   18.6962 C   0  0  0  0  0  0  0  0  0  0  0  0
   48.3126   31.7800   18.4698 C   0  0  0  0  0  0  0  0  0  0  0  0
   48.8428   31.1399   19.4270 O   0  0  0  0  0  0  0  0  0  0  0  0
   48.8733   31.7902   17.3132 O   0  0  0  0  0  0  0  0  0  0  0  0
   48.4333   31.1331   20.2698 H   0  0  0  0  0  0  0  0  0  0  0  0
  1  2  1  0  0  0
  1  3  1  0  0  0
  2  5  1  0  0  0
 11 13  2  0  0  0
 12 13  1  0  0  0
  3  4  1  0  0  0
  3  7  1  0  0  0
  4 14  1  0  0  0
  4  5  1  0  0  0
 14 15  1  0  0  0
  5 13  1  0  0  0
 15 16  1  0  0  0
 15 17  2  0  0  0
  7  8  2  0  0  0
  7  9  1  0  0  0
  1  6  1  0  0  0
 16 18  1  0  0  0
  9 10  1  0  0  0
M  END
> <minimizedAffinity>
-7.28626

$$$$
3U92_KAI_A_258


 18 18  0  0  0  0  0  0  0  0999 V2000
   46.0527   35.7286   16.9623 N   0  0  0  0  0  0  0  0  0  0  0  0
   45.3463   34.9588   17.9970 C   0  0  0  0  0  0  0  0  0  0  0  0
   47.4681   35.5076   17.1815 C   0  0  0  0  0  0  0  0  0  0  0  0
   47.5861   34.7790   18.4825 C   0  0  0  0  0  0  0  0  0  0  0  0
   46.3529   33.9620   18.4701 C   0  0  0  0  0  0  0  0  0  0  0  0
   45.8331   36.7209   17.0495 H   0  0  0  0  0  0  0  0  0  0  0  0
   48.0774   34.7144   16.0606 C   0  0  0  0  0  0  0  0  0  0  0  0
   47.3411   34.3736   15.1034 O   0  0  0  0  0  0  0  0  0  0  0  0
   49.3093   34.4080   16.0605 O   0  0  0  0  0  0  0  0  0  0  0  0
   49.8559   34.6644   16.7770 H   0  0  0  0  0  0  0  0  0  0  0  0
   44.8841   33.6632   20.5672 C   0  0  0  0  0  0  0  0  0  0  0  0
   46.8665   32.1788   20.3174 C   0  0  0  0  0  0  0  0  0  0  0  0
   46.0493   33.2615   19.8438 C   0  0  0  0  0  0  0  0  0  0  0  0
   47.6434   35.6887   19.6912 C   0  0  0  0  0  0  0  0  0  0  0  0
   48.9869   36.3531   20.0500 C   0  0  0  0  0  0  0  0  0  0  0  0
   49.7350   35.8312   20.9304 O   0  0  0  0  0  0  0  0  0  0  0  0
   49.3456   37.4378   19.4608 O   0  0  0  0  0  0  0  0  0  0  0  0
   49.4726   35.0406   21.3593 H   0  0  0  0  0  0  0  0  0  0  0  0
  1  2  1  0  0  0
  1  3  1  0  0  0
  2  5  1  0  0  0
 11 13  2  0  0  0
 12 13  1  0  0  0
  3  4  1  0  0  0
  3  7  1  0  0  0
  4 14  1  0  0  0
  4  5  1  0  0  0
 14 15  1  0  0  0
  5 13  1  0  0  0
 15 16  1  0  0  0
 15 17  2  0  0  0
  7  8  2  0  0  0
  7  9  1  0  0  0
  1  6  1  0  0  0
 16 18  1  0  0  0
  9 10  1  0  0  0
M  END
> <minimizedAffinity>
-7.15259

$$$$
3U92_KAI_A_258


 18 18  0  0  0  0  0  0  0  0999 V2000
   47.1510   33.0484   17.7637 N   0  0  0  0  0  0  0  0  0  0  0  0
   46.8385   33.0052   19.1999 C   0  0  0  0  0  0  0  0  0  0  0  0
   46.6049   34.2938   17.2626 C   0  0  0  0  0  0  0  0  0  0  0  0
   45.7841   34.8724   18.3712 C   0  0  0  0  0  0  0  0  0  0  0  0
   46.5443   34.4248   19.5587 C   0  0  0  0  0  0  0  0  0  0  0  0
   46.7210   32.2569   17.2853 H   0  0  0  0  0  0  0  0  0  0  0  0
   47.6947   35.2402   16.8461 C   0  0  0  0  0  0  0  0  0  0  0  0
   48.7709   34.7577   16.4177 O   0  0  0  0  0  0  0  0  0  0  0  0
   47.5355   36.4983   16.9025 O   0  0  0  0  0  0  0  0  0  0  0  0
   46.7304   36.8548   17.2230 H   0  0  0  0  0  0  0  0  0  0  0  0
   45.3391   33.5172   21.6487 C   0  0  0  0  0  0  0  0  0  0  0  0
   45.6290   35.9817   21.4546 C   0  0  0  0  0  0  0  0  0  0  0  0
   45.7863   34.6593   20.9153 C   0  0  0  0  0  0  0  0  0  0  0  0
   44.3550   34.3737   18.4002 C   0  0  0  0  0  0  0  0  0  0  0  0
   43.2147   35.4087   18.4598 C   0  0  0  0  0  0  0  0  0  0  0  0
   42.8386   35.9965   17.4015 O   0  0  0  0  0  0  0  0  0  0  0  0
   42.6496   35.6790   19.5822 O   0  0  0  0  0  0  0  0  0  0  0  0
   43.2512   35.7988   16.5838 H   0  0  0  0  0  0  0  0  0  0  0  0
  1  2  1  0  0  0
  1  3  1  0  0  0
  2  5  1  0  0  0
 11 13  2  0  0  0
 12 13  1  0  0  0
  3  4  1  0  0  0
  3  7  1  0  0  0
  4 14  1  0  0  0
  4  5  1  0  0  0
 14 15  1  0  0  0
  5 13  1  0  0  0
 15 16  1  0  0  0
 15 17  2  0  0  0
  7  8  2  0  0  0
  7  9  1  0  0  0
  1  6  1  0  0  0
 16 18  1  0  0  0
  9 10  1  0  0  0
M  END
> <minimizedAffinity>
-6.81914

$$$$
3U92_KAI_A_258


 18 18  0  0  0  0  0  0  0  0999 V2000
   45.0307   32.1847   20.1974 N   0  0  0  0  0  0  0  0  0  0  0  0
   45.0808   33.5149   20.8219 C   0  0  0  0  0  0  0  0  0  0  0  0
   46.1404   32.1263   19.2671 C   0  0  0  0  0  0  0  0  0  0  0  0
   46.7064   33.5092   19.1963 C   0  0  0  0  0  0  0  0  0  0  0  0
   46.4763   33.9875   20.5771 C   0  0  0  0  0  0  0  0  0  0  0  0
   44.1479   32.0610   19.7015 H   0  0  0  0  0  0  0  0  0  0  0  0
   47.1796   31.1393   19.7173 C   0  0  0  0  0  0  0  0  0  0  0  0
   48.2793   31.1155   19.1134 O   0  0  0  0  0  0  0  0  0  0  0  0
   46.9701   30.3579   20.6954 O   0  0  0  0  0  0  0  0  0  0  0  0
   46.1476   30.3788   21.1438 H   0  0  0  0  0  0  0  0  0  0  0  0
   45.7009   36.3232   21.3437 C   0  0  0  0  0  0  0  0  0  0  0  0
   48.0093   36.1057   20.4383 C   0  0  0  0  0  0  0  0  0  0  0  0
   46.7342   35.5270   20.7600 C   0  0  0  0  0  0  0  0  0  0  0  0
   46.0278   34.3973   18.1753 C   0  0  0  0  0  0  0  0  0  0  0  0
   46.8379   34.8628   16.9497 C   0  0  0  0  0  0  0  0  0  0  0  0
   47.0087   34.0775   15.9694 O   0  0  0  0  0  0  0  0  0  0  0  0
   47.3439   36.0442   16.9242 O   0  0  0  0  0  0  0  0  0  0  0  0
   46.6394   33.2166   15.9889 H   0  0  0  0  0  0  0  0  0  0  0  0
  1  2  1  0  0  0
  1  3  1  0  0  0
  2  5  1  0  0  0
 11 13  2  0  0  0
 12 13  1  0  0  0
  3  4  1  0  0  0
  3  7  1  0  0  0
  4 14  1  0  0  0
  4  5  1  0  0  0
 14 15  1  0  0  0
  5 13  1  0  0  0
 15 16  1  0  0  0
 15 17  2  0  0  0
  7  8  2  0  0  0
  7  9  1  0  0  0
  1  6  1  0  0  0
 16 18  1  0  0  0
  9 10  1  0  0  0
M  END
> <minimizedAffinity>
-6.76967

$$$$
3U92_KAI_A_258


 18 18  0  0  0  0  0  0  0  0999 V2000
   48.2161   32.1033   18.6272 N   0  0  0  0  0  0  0  0  0  0  0  0
   47.7207   33.0886   17.6546 C   0  0  0  0  0  0  0  0  0  0  0  0
   47.6569   32.4774   19.9109 C   0  0  0  0  0  0  0  0  0  0  0  0
   47.0089   33.8116   19.7176 C   0  0  0  0  0  0  0  0  0  0  0  0
   46.5337   33.7034   18.3208 C   0  0  0  0  0  0  0  0  0  0  0  0
   49.2350   32.1276   18.6659 H   0  0  0  0  0  0  0  0  0  0  0  0
   46.6633   31.4585   20.3921 C   0  0  0  0  0  0  0  0  0  0  0  0
   45.8221   31.8084   21.2549 O   0  0  0  0  0  0  0  0  0  0  0  0
   46.6520   30.2762   19.9304 O   0  0  0  0  0  0  0  0  0  0  0  0
   47.2819   30.0187   19.2862 H   0  0  0  0  0  0  0  0  0  0  0  0
   46.8090   35.6953   16.7081 C   0  0  0  0  0  0  0  0  0  0  0  0
   44.7571   35.6158   18.1149 C   0  0  0  0  0  0  0  0  0  0  0  0
   46.0248   35.0647   17.7228 C   0  0  0  0  0  0  0  0  0  0  0  0
   47.9511   34.9825   19.8996 C   0  0  0  0  0  0  0  0  0  0  0  0
   47.5083   36.1508   20.8020 C   0  0  0  0  0  0  0  0  0  0  0  0
   46.3209   36.1935   21.2438 O   0  0  0  0  0  0  0  0  0  0  0  0
   48.3409   37.0831   21.1018 O   0  0  0  0  0  0  0  0  0  0  0  0
   45.7148   35.5133   21.0247 H   0  0  0  0  0  0  0  0  0  0  0  0
  1  2  1  0  0  0
  1  3  1  0  0  0
  2  5  1  0  0  0
 11 13  2  0  0  0
 12 13  1  0  0  0
  3  4  1  0  0  0
  3  7  1  0  0  0
  4 14  1  0  0  0
  4  5  1  0  0  0
 14 15  1  0  0  0
  5 13  1  0  0  0
 15 16  1  0  0  0
 15 17  2  0  0  0
  7  8  2  0  0  0
  7  9  1  0  0  0
  1  6  1  0  0  0
 16 18  1  0  0  0
  9 10  1  0  0  0
M  END
> <minimizedAffinity>
-6.72109

$$$$
3U92_KAI_A_258


 18 18  0  0  0  0  0  0  0  0999 V2000
   46.2039   32.5443   19.6893 N   0  0  0  0  0  0  0  0  0  0  0  0
   46.4944   33.5817   20.6901 C   0  0  0  0  0  0  0  0  0  0  0  0
   46.6023   33.0888   18.4067 C   0  0  0  0  0  0  0  0  0  0  0  0
   46.9245   34.5307   18.6408 C   0  0  0  0  0  0  0  0  0  0  0  0
   47.4723   34.4860   20.0143 C   0  0  0  0  0  0  0  0  0  0  0  0
   45.2074   32.3268   19.6859 H   0  0  0  0  0  0  0  0  0  0  0  0
   47.7865   32.3546   17.8452 C   0  0  0  0  0  0  0  0  0  0  0  0
   48.0837   31.2392   18.3372 O   0  0  0  0  0  0  0  0  0  0  0  0
   48.4651   32.8308   16.8839 O   0  0  0  0  0  0  0  0  0  0  0  0
   48.2401   33.6641   16.5192 H   0  0  0  0  0  0  0  0  0  0  0  0
   48.8462   36.6452   20.3214 C   0  0  0  0  0  0  0  0  0  0  0  0
   46.6537   36.4884   21.4894 C   0  0  0  0  0  0  0  0  0  0  0  0
   47.6707   35.9057   20.6583 C   0  0  0  0  0  0  0  0  0  0  0  0
   45.7253   35.4498   18.5456 C   0  0  0  0  0  0  0  0  0  0  0  0
   44.3551   34.8386   18.1933 C   0  0  0  0  0  0  0  0  0  0  0  0
   43.9647   34.8150   16.9874 O   0  0  0  0  0  0  0  0  0  0  0  0
   43.6072   34.3582   19.1218 O   0  0  0  0  0  0  0  0  0  0  0  0
   44.5106   35.1655   16.3113 H   0  0  0  0  0  0  0  0  0  0  0  0
  1  2  1  0  0  0
  1  3  1  0  0  0
  2  5  1  0  0  0
 11 13  2  0  0  0
 12 13  1  0  0  0
  3  4  1  0  0  0
  3  7  1  0  0  0
  4 14  1  0  0  0
  4  5  1  0  0  0
 14 15  1  0  0  0
  5 13  1  0  0  0
 15 16  1  0  0  0
 15 17  2  0  0  0
  7  8  2  0  0  0
  7  9  1  0  0  0
  1  6  1  0  0  0
 16 18  1  0  0  0
  9 10  1  0  0  0
M  END
> <minimizedAffinity>
-6.54055

$$$$
