4GQL_R47_A_306


 59 62  0  0  0  0  0  0  0  0999 V2000
    9.5201   25.4470    2.7741 C   0  0  0  0  0  0  0  0  0  0  0  0
    7.7234   25.3379    1.2752 O   0  0  0  0  0  0  0  0  0  0  0  0
    8.8678   25.3243    1.5375 C   0  0  0  0  0  0  0  0  0  0  0  0
    9.7242   25.1865    0.4671 N   0  0  0  0  0  0  0  0  0  0  0  0
   10.6879   25.1038    0.6507 H   0  0  0  0  0  0  0  0  0  0  0  0
    9.2832   25.1562   -0.9219 C   0  0  0  0  0  0  0  0  0  0  0  0
    9.9772   24.0772   -1.7343 C   0  0  0  0  0  0  0  0  0  0  0  0
   10.2957   22.9978   -1.2195 O   0  0  0  0  0  0  0  0  0  0  0  0
   10.2330   24.3727   -3.0031 N   0  0  0  0  0  0  0  0  0  0  0  0
    9.9027   25.2177   -3.3854 H   0  0  0  0  0  0  0  0  0  0  0  0
   11.0002   23.4528   -3.8326 C   0  0  0  0  0  0  0  0  0  0  0  0
   12.4067   23.9530   -4.0311 C   0  0  0  0  0  0  0  0  0  0  0  0
   12.6898   25.1515   -3.8640 O   0  0  0  0  0  0  0  0  0  0  0  0
   13.2951   23.0228   -4.3645 N   0  0  0  0  0  0  0  0  0  0  0  0
   13.0086   22.0884   -4.4828 H   0  0  0  0  0  0  0  0  0  0  0  0
   14.2398   23.2681   -4.4933 H   0  0  0  0  0  0  0  0  0  0  0  0
   10.3612   23.3071   -5.2013 C   0  0  0  0  0  0  0  0  0  0  0  0
    9.4686   22.1391   -5.3047 C   0  0  0  0  0  0  0  0  0  0  0  0
    9.6413   21.4132   -6.6121 C   0  0  0  0  0  0  0  0  0  0  0  0
    9.6339   22.0831   -7.6660 O   0  0  0  0  0  0  0  0  0  0  0  0
    9.7908   20.1725   -6.5748 O   0  0  0  0  0  0  0  0  0  0  0  0
    9.7873   19.7247   -5.7517 H   0  0  0  0  0  0  0  0  0  0  0  0
    9.4788   26.5356   -1.5555 C   0  0  0  0  0  0  0  0  0  0  0  0
   10.3018   27.4521   -0.6653 C   0  0  0  0  0  0  0  0  0  0  0  0
   11.6618   27.8107   -1.2493 C   0  0  0  0  0  0  0  0  0  0  0  0
   12.1201   28.9580   -1.0430 O   0  0  0  0  0  0  0  0  0  0  0  0
   12.2890   26.9360   -1.8775 O   0  0  0  0  0  0  0  0  0  0  0  0
   11.9083   26.0900   -2.0090 H   0  0  0  0  0  0  0  0  0  0  0  0
    8.7010   26.4705    3.6460 C   0  0  0  0  0  0  0  0  0  0  0  0
    8.8487   28.1976    3.1032 P   0  0  0  0  0  0  0  0  0  0  0  0
    7.7243   28.4076    1.9929 O   0  0  0  0  0  0  0  0  0  0  0  0
   10.2625   28.5928    2.5841 O   0  0  0  0  0  0  0  0  0  0  0  0
    7.7589   29.3203    1.6662 H   0  0  0  0  0  0  0  0  0  0  0  0
    8.3918   29.1641    4.5616 C   0  0  0  0  0  0  0  0  0  0  0  0
    8.5164   30.6106    4.4844 C   0  0  0  0  0  0  0  0  0  0  0  0
    8.1449   31.3403    5.5944 C   0  0  0  0  0  0  0  0  0  0  0  0
    7.5614   30.6284    6.7782 C   0  0  0  0  0  0  0  0  0  0  0  0
    6.7829   31.2830    8.4363 Br  0  0  0  0  0  0  0  0  0  0  0  0
    7.4554   29.3167    6.7925 C   0  0  0  0  0  0  0  0  0  0  0  0
    7.9062   28.5405    5.6772 C   0  0  0  0  0  0  0  0  0  0  0  0
    9.4640   24.0457    3.4415 C   0  0  0  0  0  0  0  0  0  0  0  0
    7.4466   23.3085    6.3542 N   0  0  0  0  0  0  0  0  0  0  0  0
    8.5437   23.5266    5.6568 O   0  0  0  0  0  0  0  0  0  0  0  0
    7.0497   23.7632    4.2255 C   0  0  0  0  0  0  0  0  0  0  0  0
    6.4844   23.4679    5.5222 C   0  0  0  0  0  0  0  0  0  0  0  0
    8.3390   23.8495    4.3898 C   0  0  0  0  0  0  0  0  0  0  0  0
    5.0753   23.2376    5.8801 C   0  0  0  0  0  0  0  0  0  0  0  0
    4.0524   23.9479    5.1229 C   0  0  0  0  0  0  0  0  0  0  0  0
    2.7556   23.7281    5.4675 C   0  0  0  0  0  0  0  0  0  0  0  0
    2.4166   22.8189    6.5886 C   0  0  0  0  0  0  0  0  0  0  0  0
    3.4164   22.2189    7.2951 C   0  0  0  0  0  0  0  0  0  0  0  0
    4.8008   22.4352    6.9271 C   0  0  0  0  0  0  0  0  0  0  0  0
   -2.4477   24.2576    6.4676 Cl  0  0  0  0  0  0  0  0  0  0  0  0
   -1.2934   23.1646    7.0064 C   0  0  0  0  0  0  0  0  0  0  0  0
    0.0561   23.4727    6.6278 C   0  0  0  0  0  0  0  0  0  0  0  0
   -1.6575   22.0620    7.6398 C   0  0  0  0  0  0  0  0  0  0  0  0
   -0.6646   21.1118    8.0115 C   0  0  0  0  0  0  0  0  0  0  0  0
    0.6063   21.3963    7.6991 C   0  0  0  0  0  0  0  0  0  0  0  0
    1.0058   22.6044    6.9898 C   0  0  0  0  0  0  0  0  0  0  0  0
 38 37  1  0  0  0
 37 36  2  0  0  0
 37 39  1  0  0  0
 36 35  1  0  0  0
 39 40  2  0  0  0
 35 34  2  0  0  0
 40 34  1  0  0  0
 34 30  1  0  0  0
 32 30  2  0  0  0
 30 31  1  0  0  0
 30 29  1  0  0  0
 26 25  2  0  0  0
 29  1  1  0  0  0
 25 27  1  0  0  0
 25 24  1  0  0  0
 24 23  1  0  0  0
  1 41  1  0  0  0
  1  3  1  0  0  0
 41 46  1  0  0  0
  4  3  1  0  0  0
  4  6  1  0  0  0
 23  6  1  0  0  0
  3  2  2  0  0  0
 46 44  2  0  0  0
 46 43  1  0  0  0
 44 45  1  0  0  0
  6  7  1  0  0  0
 48 49  2  0  0  0
 48 47  1  0  0  0
 43 42  1  0  0  0
 45 42  2  0  0  0
 45 47  1  0  0  0
 49 50  1  0  0  0
 47 52  2  0  0  0
  7  8  2  0  0  0
  7  9  1  0  0  0
 53 54  1  0  0  0
 55 54  2  0  0  0
 55 59  1  0  0  0
 50 59  1  0  0  0
 50 51  2  0  0  0
 52 51  1  0  0  0
  9 11  1  0  0  0
 54 56  1  0  0  0
 59 58  2  0  0  0
 14 12  1  0  0  0
 56 57  2  0  0  0
 58 57  1  0  0  0
 12 11  1  0  0  0
 12 13  2  0  0  0
 11 17  1  0  0  0
 17 18  1  0  0  0
 18 19  1  0  0  0
 19 20  2  0  0  0
 19 21  1  0  0  0
 31 33  1  0  0  0
  4  5  1  0  0  0
 27 28  1  0  0  0
  9 10  1  0  0  0
 21 22  1  0  0  0
 14 15  1  0  0  0
 14 16  1  0  0  0
M  END
> <minimizedAffinity>
-11.22546

$$$$
4GQL_R47_A_306


 59 62  0  0  0  0  0  0  0  0999 V2000
    8.2192   25.2098    3.2729 C   0  0  0  0  0  0  0  0  0  0  0  0
    9.9518   26.5104    4.1636 O   0  0  0  0  0  0  0  0  0  0  0  0
    8.8366   26.3350    3.8407 C   0  0  0  0  0  0  0  0  0  0  0  0
    7.9869   27.4040    4.0234 N   0  0  0  0  0  0  0  0  0  0  0  0
    7.0306   27.2762    3.8276 H   0  0  0  0  0  0  0  0  0  0  0  0
    8.4247   28.7136    4.4906 C   0  0  0  0  0  0  0  0  0  0  0  0
    7.8561   29.0707    5.8525 C   0  0  0  0  0  0  0  0  0  0  0  0
    6.6339   29.1008    6.0449 O   0  0  0  0  0  0  0  0  0  0  0  0
    8.7409   29.3634    6.7981 N   0  0  0  0  0  0  0  0  0  0  0  0
    9.7033   29.2624    6.6166 H   0  0  0  0  0  0  0  0  0  0  0  0
    8.2948   29.8333    8.1031 C   0  0  0  0  0  0  0  0  0  0  0  0
    8.4522   31.3265    8.2197 C   0  0  0  0  0  0  0  0  0  0  0  0
    7.6649   32.0019    8.9040 O   0  0  0  0  0  0  0  0  0  0  0  0
    9.4910   31.8375    7.5675 N   0  0  0  0  0  0  0  0  0  0  0  0
   10.0794   31.2495    7.0411 H   0  0  0  0  0  0  0  0  0  0  0  0
    9.6722   32.8043    7.6107 H   0  0  0  0  0  0  0  0  0  0  0  0
    9.1112   29.1922    9.2101 C   0  0  0  0  0  0  0  0  0  0  0  0
    8.2855   28.4963   10.2129 C   0  0  0  0  0  0  0  0  0  0  0  0
    9.1208   27.9037   11.3161 C   0  0  0  0  0  0  0  0  0  0  0  0
    9.9595   28.6362   11.8815 O   0  0  0  0  0  0  0  0  0  0  0  0
    8.9263   26.7055   11.6155 O   0  0  0  0  0  0  0  0  0  0  0  0
    8.2815   26.2061   11.1541 H   0  0  0  0  0  0  0  0  0  0  0  0
    8.0712   29.7776    3.4487 C   0  0  0  0  0  0  0  0  0  0  0  0
    9.0426   30.9458    3.4857 C   0  0  0  0  0  0  0  0  0  0  0  0
   10.4125   30.6195    2.9058 C   0  0  0  0  0  0  0  0  0  0  0  0
   10.5488   29.5645    2.2445 O   0  0  0  0  0  0  0  0  0  0  0  0
   11.3398   31.4347    3.0752 O   0  0  0  0  0  0  0  0  0  0  0  0
   11.1942   32.2122    3.5774 H   0  0  0  0  0  0  0  0  0  0  0  0
    8.9893   24.8628    1.9443 C   0  0  0  0  0  0  0  0  0  0  0  0
    8.9984   26.2016    0.7167 P   0  0  0  0  0  0  0  0  0  0  0  0
   10.2621   27.1088    1.0645 O   0  0  0  0  0  0  0  0  0  0  0  0
    7.6826   27.0319    0.6568 O   0  0  0  0  0  0  0  0  0  0  0  0
   10.3150   27.8447    0.4347 H   0  0  0  0  0  0  0  0  0  0  0  0
    9.3175   25.3643   -0.8540 C   0  0  0  0  0  0  0  0  0  0  0  0
   10.0845   24.1295   -0.8220 C   0  0  0  0  0  0  0  0  0  0  0  0
   10.3041   23.4869   -2.0227 C   0  0  0  0  0  0  0  0  0  0  0  0
    9.6826   24.0354   -3.2722 C   0  0  0  0  0  0  0  0  0  0  0  0
    9.6143   23.3613   -5.0956 Br  0  0  0  0  0  0  0  0  0  0  0  0
    8.9829   25.1498   -3.2454 C   0  0  0  0  0  0  0  0  0  0  0  0
    8.8094   25.8678   -2.0191 C   0  0  0  0  0  0  0  0  0  0  0  0
    8.4014   24.0490    4.2886 C   0  0  0  0  0  0  0  0  0  0  0  0
    5.8687   22.1532    6.0458 N   0  0  0  0  0  0  0  0  0  0  0  0
    7.0602   22.4295    5.5543 O   0  0  0  0  0  0  0  0  0  0  0  0
    5.9515   24.1056    5.0080 C   0  0  0  0  0  0  0  0  0  0  0  0
    5.1445   23.1716    5.7595 C   0  0  0  0  0  0  0  0  0  0  0  0
    7.1565   23.6127    4.9692 C   0  0  0  0  0  0  0  0  0  0  0  0
    3.7062   23.2377    6.0652 C   0  0  0  0  0  0  0  0  0  0  0  0
    3.2101   22.4592    7.1931 C   0  0  0  0  0  0  0  0  0  0  0  0
    1.8789   22.5272    7.4608 C   0  0  0  0  0  0  0  0  0  0  0  0
    0.9794   23.3452    6.6122 C   0  0  0  0  0  0  0  0  0  0  0  0
    1.4897   24.0140    5.5393 C   0  0  0  0  0  0  0  0  0  0  0  0
    2.9090   23.9597    5.2536 C   0  0  0  0  0  0  0  0  0  0  0  0
   -3.2900   21.0361    8.0903 Cl  0  0  0  0  0  0  0  0  0  0  0  0
   -2.5335   22.4356    7.5556 C   0  0  0  0  0  0  0  0  0  0  0  0
   -1.1363   22.2942    7.2604 C   0  0  0  0  0  0  0  0  0  0  0  0
   -3.1905   23.5832    7.5237 C   0  0  0  0  0  0  0  0  0  0  0  0
   -2.5015   24.7704    7.1460 C   0  0  0  0  0  0  0  0  0  0  0  0
   -1.2046   24.6551    6.8319 C   0  0  0  0  0  0  0  0  0  0  0  0
   -0.4778   23.3935    6.8797 C   0  0  0  0  0  0  0  0  0  0  0  0
 38 37  1  0  0  0
 37 36  2  0  0  0
 37 39  1  0  0  0
 36 35  1  0  0  0
 39 40  2  0  0  0
 35 34  2  0  0  0
 40 34  1  0  0  0
 34 30  1  0  0  0
 32 30  2  0  0  0
 30 31  1  0  0  0
 30 29  1  0  0  0
 26 25  2  0  0  0
 29  1  1  0  0  0
 25 27  1  0  0  0
 25 24  1  0  0  0
 24 23  1  0  0  0
  1 41  1  0  0  0
  1  3  1  0  0  0
 41 46  1  0  0  0
  4  3  1  0  0  0
  4  6  1  0  0  0
 23  6  1  0  0  0
  3  2  2  0  0  0
 46 44  2  0  0  0
 46 43  1  0  0  0
 44 45  1  0  0  0
  6  7  1  0  0  0
 48 49  2  0  0  0
 48 47  1  0  0  0
 43 42  1  0  0  0
 45 42  2  0  0  0
 45 47  1  0  0  0
 49 50  1  0  0  0
 47 52  2  0  0  0
  7  8  2  0  0  0
  7  9  1  0  0  0
 53 54  1  0  0  0
 55 54  2  0  0  0
 55 59  1  0  0  0
 50 59  1  0  0  0
 50 51  2  0  0  0
 52 51  1  0  0  0
  9 11  1  0  0  0
 54 56  1  0  0  0
 59 58  2  0  0  0
 14 12  1  0  0  0
 56 57  2  0  0  0
 58 57  1  0  0  0
 12 11  1  0  0  0
 12 13  2  0  0  0
 11 17  1  0  0  0
 17 18  1  0  0  0
 18 19  1  0  0  0
 19 20  2  0  0  0
 19 21  1  0  0  0
 31 33  1  0  0  0
  4  5  1  0  0  0
 27 28  1  0  0  0
  9 10  1  0  0  0
 21 22  1  0  0  0
 14 15  1  0  0  0
 14 16  1  0  0  0
M  END
> <minimizedAffinity>
-11.21597

$$$$
4GQL_R47_A_306


 59 62  0  0  0  0  0  0  0  0999 V2000
    8.4523   25.6965    3.3291 C   0  0  0  0  0  0  0  0  0  0  0  0
   10.0228   27.3033    3.9911 O   0  0  0  0  0  0  0  0  0  0  0  0
    8.9251   26.9137    3.8435 C   0  0  0  0  0  0  0  0  0  0  0  0
    7.9264   27.7886    4.2112 N   0  0  0  0  0  0  0  0  0  0  0  0
    6.9941   27.4755    4.1656 H   0  0  0  0  0  0  0  0  0  0  0  0
    8.1728   29.1521    4.6640 C   0  0  0  0  0  0  0  0  0  0  0  0
    7.7330   29.3822    6.0990 C   0  0  0  0  0  0  0  0  0  0  0  0
    6.5590   29.1956    6.4434 O   0  0  0  0  0  0  0  0  0  0  0  0
    8.6698   29.8091    6.9375 N   0  0  0  0  0  0  0  0  0  0  0  0
    9.6035   29.8804    6.6335 H   0  0  0  0  0  0  0  0  0  0  0  0
    8.3229   30.1725    8.3051 C   0  0  0  0  0  0  0  0  0  0  0  0
    8.8813   31.5252    8.6602 C   0  0  0  0  0  0  0  0  0  0  0  0
    8.6007   32.0702    9.7413 O   0  0  0  0  0  0  0  0  0  0  0  0
    9.6963   32.0553    7.7545 N   0  0  0  0  0  0  0  0  0  0  0  0
    9.8797   31.5738    6.9156 H   0  0  0  0  0  0  0  0  0  0  0  0
   10.1169   32.9295    7.9224 H   0  0  0  0  0  0  0  0  0  0  0  0
    8.8896   29.1634    9.2867 C   0  0  0  0  0  0  0  0  0  0  0  0
    7.8953   28.6772   10.2596 C   0  0  0  0  0  0  0  0  0  0  0  0
    8.5462   28.0436   11.4600 C   0  0  0  0  0  0  0  0  0  0  0  0
    9.2064   26.9970   11.2913 O   0  0  0  0  0  0  0  0  0  0  0  0
    8.3973   28.6039   12.5677 O   0  0  0  0  0  0  0  0  0  0  0  0
    7.8895   29.3888   12.6312 H   0  0  0  0  0  0  0  0  0  0  0  0
    7.4949   30.1419    3.7135 C   0  0  0  0  0  0  0  0  0  0  0  0
    8.5113   30.9687    2.9435 C   0  0  0  0  0  0  0  0  0  0  0  0
    9.7452   31.3333    3.7584 C   0  0  0  0  0  0  0  0  0  0  0  0
    9.6074   32.0779    4.7561 O   0  0  0  0  0  0  0  0  0  0  0  0
   10.8427   30.8444    3.4272 O   0  0  0  0  0  0  0  0  0  0  0  0
   10.9009   30.2918    2.6727 H   0  0  0  0  0  0  0  0  0  0  0  0
    9.2662   25.3844    2.0182 C   0  0  0  0  0  0  0  0  0  0  0  0
    8.4804   25.9811    0.4931 P   0  0  0  0  0  0  0  0  0  0  0  0
    6.9450   26.2154    0.8519 O   0  0  0  0  0  0  0  0  0  0  0  0
    8.6558   25.0400   -0.7348 O   0  0  0  0  0  0  0  0  0  0  0  0
    6.4749   26.5369    0.0667 H   0  0  0  0  0  0  0  0  0  0  0  0
    9.2454   27.5929    0.1985 C   0  0  0  0  0  0  0  0  0  0  0  0
    8.4118   28.6505   -0.3500 C   0  0  0  0  0  0  0  0  0  0  0  0
    8.9989   29.8824   -0.5509 C   0  0  0  0  0  0  0  0  0  0  0  0
   10.4207   30.0952   -0.1244 C   0  0  0  0  0  0  0  0  0  0  0  0
   11.5431   31.6834   -0.0840 Br  0  0  0  0  0  0  0  0  0  0  0  0
   11.1287   29.1082    0.3822 C   0  0  0  0  0  0  0  0  0  0  0  0
   10.5555   27.8044    0.5272 C   0  0  0  0  0  0  0  0  0  0  0  0
    8.7686   24.6151    4.3981 C   0  0  0  0  0  0  0  0  0  0  0  0
    6.3861   22.1343    5.5234 N   0  0  0  0  0  0  0  0  0  0  0  0
    7.5360   22.6071    5.0853 O   0  0  0  0  0  0  0  0  0  0  0  0
    6.3785   24.3302    5.2520 C   0  0  0  0  0  0  0  0  0  0  0  0
    5.6359   23.1633    5.6705 C   0  0  0  0  0  0  0  0  0  0  0  0
    7.5806   23.9237    4.9584 C   0  0  0  0  0  0  0  0  0  0  0  0
    4.2237   23.0684    6.0750 C   0  0  0  0  0  0  0  0  0  0  0  0
    3.8849   22.1683    7.1701 C   0  0  0  0  0  0  0  0  0  0  0  0
    2.5762   22.0884    7.5299 C   0  0  0  0  0  0  0  0  0  0  0  0
    1.5460   22.8732    6.8080 C   0  0  0  0  0  0  0  0  0  0  0  0
    1.9130   23.6619    5.7583 C   0  0  0  0  0  0  0  0  0  0  0  0
    3.3065   23.7652    5.3759 C   0  0  0  0  0  0  0  0  0  0  0  0
   -3.0410   24.9902    7.2808 Cl  0  0  0  0  0  0  0  0  0  0  0  0
   -2.0733   23.6272    7.4327 C   0  0  0  0  0  0  0  0  0  0  0  0
   -0.6880   23.8296    7.1177 C   0  0  0  0  0  0  0  0  0  0  0  0
   -2.6089   22.4531    7.7226 C   0  0  0  0  0  0  0  0  0  0  0  0
   -1.7769   21.2985    7.7627 C   0  0  0  0  0  0  0  0  0  0  0  0
   -0.4736   21.4706    7.5067 C   0  0  0  0  0  0  0  0  0  0  0  0
    0.1139   22.7616    7.1744 C   0  0  0  0  0  0  0  0  0  0  0  0
 38 37  1  0  0  0
 37 36  2  0  0  0
 37 39  1  0  0  0
 36 35  1  0  0  0
 39 40  2  0  0  0
 35 34  2  0  0  0
 40 34  1  0  0  0
 34 30  1  0  0  0
 32 30  2  0  0  0
 30 31  1  0  0  0
 30 29  1  0  0  0
 26 25  2  0  0  0
 29  1  1  0  0  0
 25 27  1  0  0  0
 25 24  1  0  0  0
 24 23  1  0  0  0
  1 41  1  0  0  0
  1  3  1  0  0  0
 41 46  1  0  0  0
  4  3  1  0  0  0
  4  6  1  0  0  0
 23  6  1  0  0  0
  3  2  2  0  0  0
 46 44  2  0  0  0
 46 43  1  0  0  0
 44 45  1  0  0  0
  6  7  1  0  0  0
 48 49  2  0  0  0
 48 47  1  0  0  0
 43 42  1  0  0  0
 45 42  2  0  0  0
 45 47  1  0  0  0
 49 50  1  0  0  0
 47 52  2  0  0  0
  7  8  2  0  0  0
  7  9  1  0  0  0
 53 54  1  0  0  0
 55 54  2  0  0  0
 55 59  1  0  0  0
 50 59  1  0  0  0
 50 51  2  0  0  0
 52 51  1  0  0  0
  9 11  1  0  0  0
 54 56  1  0  0  0
 59 58  2  0  0  0
 14 12  1  0  0  0
 56 57  2  0  0  0
 58 57  1  0  0  0
 12 11  1  0  0  0
 12 13  2  0  0  0
 11 17  1  0  0  0
 17 18  1  0  0  0
 18 19  1  0  0  0
 19 20  2  0  0  0
 19 21  1  0  0  0
 31 33  1  0  0  0
  4  5  1  0  0  0
 27 28  1  0  0  0
  9 10  1  0  0  0
 21 22  1  0  0  0
 14 15  1  0  0  0
 14 16  1  0  0  0
M  END
> <minimizedAffinity>
-11.19495

$$$$
4GQL_R47_A_306


 59 62  0  0  0  0  0  0  0  0999 V2000
    9.2388   25.7949    2.5488 C   0  0  0  0  0  0  0  0  0  0  0  0
    7.7370   25.2913    0.8231 O   0  0  0  0  0  0  0  0  0  0  0  0
    8.7945   25.5963    1.2324 C   0  0  0  0  0  0  0  0  0  0  0  0
    9.7629   25.8185    0.2780 N   0  0  0  0  0  0  0  0  0  0  0  0
   10.6793   26.0110    0.5818 H   0  0  0  0  0  0  0  0  0  0  0  0
    9.5064   25.7846   -1.1566 C   0  0  0  0  0  0  0  0  0  0  0  0
   10.0693   24.5422   -1.8239 C   0  0  0  0  0  0  0  0  0  0  0  0
   10.2245   23.4920   -1.1877 O   0  0  0  0  0  0  0  0  0  0  0  0
   10.3969   24.6628   -3.1048 N   0  0  0  0  0  0  0  0  0  0  0  0
   10.1947   25.4977   -3.5856 H   0  0  0  0  0  0  0  0  0  0  0  0
   11.0543   23.5656   -3.8025 C   0  0  0  0  0  0  0  0  0  0  0  0
   12.5064   23.8788   -4.0500 C   0  0  0  0  0  0  0  0  0  0  0  0
   12.9614   25.0157   -3.8384 O   0  0  0  0  0  0  0  0  0  0  0  0
   13.2401   22.8561   -4.4761 N   0  0  0  0  0  0  0  0  0  0  0  0
   12.8208   21.9780   -4.6256 H   0  0  0  0  0  0  0  0  0  0  0  0
   14.2030   22.9766   -4.6423 H   0  0  0  0  0  0  0  0  0  0  0  0
   10.3968   23.3167   -5.1474 C   0  0  0  0  0  0  0  0  0  0  0  0
    9.3873   22.2437   -5.1112 C   0  0  0  0  0  0  0  0  0  0  0  0
    9.4388   21.3812   -6.3439 C   0  0  0  0  0  0  0  0  0  0  0  0
    8.3729   21.1597   -6.9556 O   0  0  0  0  0  0  0  0  0  0  0  0
   10.5520   20.9349   -6.6971 O   0  0  0  0  0  0  0  0  0  0  0  0
   11.3178   21.1360   -6.1962 H   0  0  0  0  0  0  0  0  0  0  0  0
   10.0530   27.0569   -1.8086 C   0  0  0  0  0  0  0  0  0  0  0  0
   11.3859   27.4697   -1.2065 C   0  0  0  0  0  0  0  0  0  0  0  0
   12.3208   28.1475   -2.1994 C   0  0  0  0  0  0  0  0  0  0  0  0
   13.1344   28.9989   -1.7730 O   0  0  0  0  0  0  0  0  0  0  0  0
   12.2711   27.8008   -3.3954 O   0  0  0  0  0  0  0  0  0  0  0  0
   11.6462   27.1596   -3.6718 H   0  0  0  0  0  0  0  0  0  0  0  0
    8.1453   26.6441    3.2983 C   0  0  0  0  0  0  0  0  0  0  0  0
    8.7386   28.2469    3.9134 P   0  0  0  0  0  0  0  0  0  0  0  0
   10.0668   27.9372    4.7387 O   0  0  0  0  0  0  0  0  0  0  0  0
    7.6983   29.0398    4.7579 O   0  0  0  0  0  0  0  0  0  0  0  0
   10.4282   28.7650    5.0923 H   0  0  0  0  0  0  0  0  0  0  0  0
    9.1993   29.1552    2.4192 C   0  0  0  0  0  0  0  0  0  0  0  0
   10.5641   29.6459    2.3160 C   0  0  0  0  0  0  0  0  0  0  0  0
   10.9119   30.3187    1.1631 C   0  0  0  0  0  0  0  0  0  0  0  0
    9.9101   30.4383    0.0537 C   0  0  0  0  0  0  0  0  0  0  0  0
   10.0470   31.1495   -1.7517 Br  0  0  0  0  0  0  0  0  0  0  0  0
    8.6907   29.9628    0.1907 C   0  0  0  0  0  0  0  0  0  0  0  0
    8.2926   29.3281    1.4106 C   0  0  0  0  0  0  0  0  0  0  0  0
    9.3291   24.3875    3.1993 C   0  0  0  0  0  0  0  0  0  0  0  0
    7.4613   23.2977    6.1011 N   0  0  0  0  0  0  0  0  0  0  0  0
    8.5222   23.5949    5.3775 O   0  0  0  0  0  0  0  0  0  0  0  0
    6.9567   24.0261    4.0737 C   0  0  0  0  0  0  0  0  0  0  0  0
    6.4580   23.5708    5.3512 C   0  0  0  0  0  0  0  0  0  0  0  0
    8.2541   24.0800    4.1757 C   0  0  0  0  0  0  0  0  0  0  0  0
    5.0669   23.3079    5.7545 C   0  0  0  0  0  0  0  0  0  0  0  0
    4.0039   23.9958    5.0328 C   0  0  0  0  0  0  0  0  0  0  0  0
    2.7245   23.7459    5.4190 C   0  0  0  0  0  0  0  0  0  0  0  0
    2.4431   22.8276    6.5486 C   0  0  0  0  0  0  0  0  0  0  0  0
    3.4789   22.2496    7.2207 C   0  0  0  0  0  0  0  0  0  0  0  0
    4.8452   22.4979    6.8082 C   0  0  0  0  0  0  0  0  0  0  0  0
   -2.4632   24.1213    6.5428 Cl  0  0  0  0  0  0  0  0  0  0  0  0
   -1.2619   23.0737    7.0686 C   0  0  0  0  0  0  0  0  0  0  0  0
    0.0663   23.4131    6.6445 C   0  0  0  0  0  0  0  0  0  0  0  0
   -1.5747   21.9740    7.7338 C   0  0  0  0  0  0  0  0  0  0  0  0
   -0.5438   21.0609    8.0946 C   0  0  0  0  0  0  0  0  0  0  0  0
    0.7086   21.3758    7.7395 C   0  0  0  0  0  0  0  0  0  0  0  0
    1.0514   22.5804    6.9953 C   0  0  0  0  0  0  0  0  0  0  0  0
 38 37  1  0  0  0
 37 36  2  0  0  0
 37 39  1  0  0  0
 36 35  1  0  0  0
 39 40  2  0  0  0
 35 34  2  0  0  0
 40 34  1  0  0  0
 34 30  1  0  0  0
 32 30  2  0  0  0
 30 31  1  0  0  0
 30 29  1  0  0  0
 26 25  2  0  0  0
 29  1  1  0  0  0
 25 27  1  0  0  0
 25 24  1  0  0  0
 24 23  1  0  0  0
  1 41  1  0  0  0
  1  3  1  0  0  0
 41 46  1  0  0  0
  4  3  1  0  0  0
  4  6  1  0  0  0
 23  6  1  0  0  0
  3  2  2  0  0  0
 46 44  2  0  0  0
 46 43  1  0  0  0
 44 45  1  0  0  0
  6  7  1  0  0  0
 48 49  2  0  0  0
 48 47  1  0  0  0
 43 42  1  0  0  0
 45 42  2  0  0  0
 45 47  1  0  0  0
 49 50  1  0  0  0
 47 52  2  0  0  0
  7  8  2  0  0  0
  7  9  1  0  0  0
 53 54  1  0  0  0
 55 54  2  0  0  0
 55 59  1  0  0  0
 50 59  1  0  0  0
 50 51  2  0  0  0
 52 51  1  0  0  0
  9 11  1  0  0  0
 54 56  1  0  0  0
 59 58  2  0  0  0
 14 12  1  0  0  0
 56 57  2  0  0  0
 58 57  1  0  0  0
 12 11  1  0  0  0
 12 13  2  0  0  0
 11 17  1  0  0  0
 17 18  1  0  0  0
 18 19  1  0  0  0
 19 20  2  0  0  0
 19 21  1  0  0  0
 31 33  1  0  0  0
  4  5  1  0  0  0
 27 28  1  0  0  0
  9 10  1  0  0  0
 21 22  1  0  0  0
 14 15  1  0  0  0
 14 16  1  0  0  0
M  END
> <minimizedAffinity>
-11.07693

$$$$
4GQL_R47_A_306


 59 62  0  0  0  0  0  0  0  0999 V2000
    8.3388   25.5258    3.4498 C   0  0  0  0  0  0  0  0  0  0  0  0
    9.7959   27.0208    4.5122 O   0  0  0  0  0  0  0  0  0  0  0  0
    8.7639   26.7289    4.0342 C   0  0  0  0  0  0  0  0  0  0  0  0
    7.8105   27.7234    4.0182 N   0  0  0  0  0  0  0  0  0  0  0  0
    6.9109   27.4995    3.6869 H   0  0  0  0  0  0  0  0  0  0  0  0
    8.0594   29.0886    4.4644 C   0  0  0  0  0  0  0  0  0  0  0  0
    7.7486   29.2903    5.9370 C   0  0  0  0  0  0  0  0  0  0  0  0
    6.6803   28.8969    6.4225 O   0  0  0  0  0  0  0  0  0  0  0  0
    8.6729   29.9235    6.6494 N   0  0  0  0  0  0  0  0  0  0  0  0
    9.5341   30.1595    6.2349 H   0  0  0  0  0  0  0  0  0  0  0  0
    8.4189   30.2709    8.0414 C   0  0  0  0  0  0  0  0  0  0  0  0
    8.8863   31.6710    8.3402 C   0  0  0  0  0  0  0  0  0  0  0  0
   10.0124   32.0595    7.9863 O   0  0  0  0  0  0  0  0  0  0  0  0
    8.0044   32.4378    8.9726 N   0  0  0  0  0  0  0  0  0  0  0  0
    7.1268   32.0715    9.2273 H   0  0  0  0  0  0  0  0  0  0  0  0
    8.2286   33.3723    9.1865 H   0  0  0  0  0  0  0  0  0  0  0  0
    9.1572   29.3261    8.9716 C   0  0  0  0  0  0  0  0  0  0  0  0
    8.3144   28.8101   10.0648 C   0  0  0  0  0  0  0  0  0  0  0  0
    9.1360   28.1963   11.1667 C   0  0  0  0  0  0  0  0  0  0  0  0
    9.8630   28.9468   11.8505 O   0  0  0  0  0  0  0  0  0  0  0  0
    9.0424   26.9625   11.3457 O   0  0  0  0  0  0  0  0  0  0  0  0
    8.4788   26.4512   10.7990 H   0  0  0  0  0  0  0  0  0  0  0  0
    7.2684   30.0682    3.5943 C   0  0  0  0  0  0  0  0  0  0  0  0
    7.8790   30.2105    2.2099 C   0  0  0  0  0  0  0  0  0  0  0  0
    6.8508   30.2151    1.0864 C   0  0  0  0  0  0  0  0  0  0  0  0
    5.9521   31.0875    1.0985 O   0  0  0  0  0  0  0  0  0  0  0  0
    6.9644   29.3754    0.1725 O   0  0  0  0  0  0  0  0  0  0  0  0
    7.6522   28.7398    0.2032 H   0  0  0  0  0  0  0  0  0  0  0  0
    9.2819   25.2317    2.2239 C   0  0  0  0  0  0  0  0  0  0  0  0
    8.7045   25.9379    0.6531 P   0  0  0  0  0  0  0  0  0  0  0  0
    7.3506   26.7095    0.9889 O   0  0  0  0  0  0  0  0  0  0  0  0
    8.5159   24.8993   -0.4914 O   0  0  0  0  0  0  0  0  0  0  0  0
    6.9966   27.1088    0.1788 H   0  0  0  0  0  0  0  0  0  0  0  0
    9.9636   27.1634    0.2257 C   0  0  0  0  0  0  0  0  0  0  0  0
   10.5832   27.0717   -1.0865 C   0  0  0  0  0  0  0  0  0  0  0  0
   11.5268   28.0239   -1.4114 C   0  0  0  0  0  0  0  0  0  0  0  0
   11.8050   29.1388   -0.4481 C   0  0  0  0  0  0  0  0  0  0  0  0
   12.9146   30.7306   -0.5856 Br  0  0  0  0  0  0  0  0  0  0  0  0
   11.2053   29.1854    0.7225 C   0  0  0  0  0  0  0  0  0  0  0  0
   10.2791   28.1626    1.1040 C   0  0  0  0  0  0  0  0  0  0  0  0
    8.5358   24.4216    4.5240 C   0  0  0  0  0  0  0  0  0  0  0  0
    5.9870   22.2233    5.8538 N   0  0  0  0  0  0  0  0  0  0  0  0
    7.1871   22.5939    5.4537 O   0  0  0  0  0  0  0  0  0  0  0  0
    6.0657   24.3249    5.1662 C   0  0  0  0  0  0  0  0  0  0  0  0
    5.2539   23.2667    5.7224 C   0  0  0  0  0  0  0  0  0  0  0  0
    7.2797   23.8605    5.0815 C   0  0  0  0  0  0  0  0  0  0  0  0
    3.8064   23.2623    5.9901 C   0  0  0  0  0  0  0  0  0  0  0  0
    2.9440   24.0297    5.1005 C   0  0  0  0  0  0  0  0  0  0  0  0
    1.6099   24.0192    5.3626 C   0  0  0  0  0  0  0  0  0  0  0  0
    1.0756   23.2726    6.5268 C   0  0  0  0  0  0  0  0  0  0  0  0
    1.9339   22.6124    7.3551 C   0  0  0  0  0  0  0  0  0  0  0  0
    3.3556   22.6054    7.0767 C   0  0  0  0  0  0  0  0  0  0  0  0
   -3.1084   20.8526    8.0707 Cl  0  0  0  0  0  0  0  0  0  0  0  0
   -2.3924   22.2775    7.5472 C   0  0  0  0  0  0  0  0  0  0  0  0
   -1.0019   22.1686    7.2098 C   0  0  0  0  0  0  0  0  0  0  0  0
   -3.0703   23.4132    7.5602 C   0  0  0  0  0  0  0  0  0  0  0  0
   -2.4135   24.6211    7.1906 C   0  0  0  0  0  0  0  0  0  0  0  0
   -1.1243   24.5368    6.8377 C   0  0  0  0  0  0  0  0  0  0  0  0
   -0.3741   23.2881    6.8361 C   0  0  0  0  0  0  0  0  0  0  0  0
 38 37  1  0  0  0
 37 36  2  0  0  0
 37 39  1  0  0  0
 36 35  1  0  0  0
 39 40  2  0  0  0
 35 34  2  0  0  0
 40 34  1  0  0  0
 34 30  1  0  0  0
 32 30  2  0  0  0
 30 31  1  0  0  0
 30 29  1  0  0  0
 26 25  2  0  0  0
 29  1  1  0  0  0
 25 27  1  0  0  0
 25 24  1  0  0  0
 24 23  1  0  0  0
  1 41  1  0  0  0
  1  3  1  0  0  0
 41 46  1  0  0  0
  4  3  1  0  0  0
  4  6  1  0  0  0
 23  6  1  0  0  0
  3  2  2  0  0  0
 46 44  2  0  0  0
 46 43  1  0  0  0
 44 45  1  0  0  0
  6  7  1  0  0  0
 48 49  2  0  0  0
 48 47  1  0  0  0
 43 42  1  0  0  0
 45 42  2  0  0  0
 45 47  1  0  0  0
 49 50  1  0  0  0
 47 52  2  0  0  0
  7  8  2  0  0  0
  7  9  1  0  0  0
 53 54  1  0  0  0
 55 54  2  0  0  0
 55 59  1  0  0  0
 50 59  1  0  0  0
 50 51  2  0  0  0
 52 51  1  0  0  0
  9 11  1  0  0  0
 54 56  1  0  0  0
 59 58  2  0  0  0
 14 12  1  0  0  0
 56 57  2  0  0  0
 58 57  1  0  0  0
 12 11  1  0  0  0
 12 13  2  0  0  0
 11 17  1  0  0  0
 17 18  1  0  0  0
 18 19  1  0  0  0
 19 20  2  0  0  0
 19 21  1  0  0  0
 31 33  1  0  0  0
  4  5  1  0  0  0
 27 28  1  0  0  0
  9 10  1  0  0  0
 21 22  1  0  0  0
 14 15  1  0  0  0
 14 16  1  0  0  0
M  END
> <minimizedAffinity>
-10.96993

$$$$
4GQL_R47_A_306


 59 62  0  0  0  0  0  0  0  0999 V2000
    9.1385   26.3344    3.0765 C   0  0  0  0  0  0  0  0  0  0  0  0
    9.8420   27.6634    4.8725 O   0  0  0  0  0  0  0  0  0  0  0  0
    9.4803   27.5078    3.7663 C   0  0  0  0  0  0  0  0  0  0  0  0
    9.3906   28.6501    3.0012 N   0  0  0  0  0  0  0  0  0  0  0  0
    9.0281   28.5714    2.0893 H   0  0  0  0  0  0  0  0  0  0  0  0
    9.8025   29.9688    3.4665 C   0  0  0  0  0  0  0  0  0  0  0  0
    8.6913   30.7092    4.1893 C   0  0  0  0  0  0  0  0  0  0  0  0
    7.8587   31.3777    3.5635 O   0  0  0  0  0  0  0  0  0  0  0  0
    8.6862   30.6102    5.5133 N   0  0  0  0  0  0  0  0  0  0  0  0
    9.3287   30.0147    5.9624 H   0  0  0  0  0  0  0  0  0  0  0  0
    7.7345   31.3786    6.3050 C   0  0  0  0  0  0  0  0  0  0  0  0
    8.3307   32.6925    6.7364 C   0  0  0  0  0  0  0  0  0  0  0  0
    7.6830   33.7494    6.6484 O   0  0  0  0  0  0  0  0  0  0  0  0
    9.5627   32.6190    7.2288 N   0  0  0  0  0  0  0  0  0  0  0  0
   10.0245   31.7506    7.2723 H   0  0  0  0  0  0  0  0  0  0  0  0
   10.0137   33.4330    7.5502 H   0  0  0  0  0  0  0  0  0  0  0  0
    7.3392   30.6148    7.5553 C   0  0  0  0  0  0  0  0  0  0  0  0
    8.0624   29.3402    7.7109 C   0  0  0  0  0  0  0  0  0  0  0  0
    9.0881   29.4063    8.8107 C   0  0  0  0  0  0  0  0  0  0  0  0
    8.8337   28.8352    9.8918 O   0  0  0  0  0  0  0  0  0  0  0  0
   10.1494   30.0263    8.5818 O   0  0  0  0  0  0  0  0  0  0  0  0
   10.2829   30.4351    7.7493 H   0  0  0  0  0  0  0  0  0  0  0  0
   10.3364   30.7878    2.2890 C   0  0  0  0  0  0  0  0  0  0  0  0
   11.3061   31.8648    2.7465 C   0  0  0  0  0  0  0  0  0  0  0  0
   12.6711   31.7824    2.0762 C   0  0  0  0  0  0  0  0  0  0  0  0
   13.6907   32.0395    2.7567 O   0  0  0  0  0  0  0  0  0  0  0  0
   12.7279   31.4220    0.8845 O   0  0  0  0  0  0  0  0  0  0  0  0
   11.9395   31.2395    0.4121 H   0  0  0  0  0  0  0  0  0  0  0  0
   10.0101   26.2801    1.7665 C   0  0  0  0  0  0  0  0  0  0  0  0
    9.0636   26.5006    0.2319 P   0  0  0  0  0  0  0  0  0  0  0  0
    9.1035   28.0614   -0.0893 O   0  0  0  0  0  0  0  0  0  0  0  0
    7.6070   25.9532    0.2871 O   0  0  0  0  0  0  0  0  0  0  0  0
    8.6093   28.2364   -0.9054 H   0  0  0  0  0  0  0  0  0  0  0  0
   10.0408   25.6392   -1.0223 C   0  0  0  0  0  0  0  0  0  0  0  0
    9.8258   24.2109   -1.1884 C   0  0  0  0  0  0  0  0  0  0  0  0
   10.5603   23.5669   -2.1624 C   0  0  0  0  0  0  0  0  0  0  0  0
   11.4687   24.3688   -3.0457 C   0  0  0  0  0  0  0  0  0  0  0  0
   12.5305   23.8845   -4.6020 Br  0  0  0  0  0  0  0  0  0  0  0  0
   11.6167   25.6638   -2.8643 C   0  0  0  0  0  0  0  0  0  0  0  0
   10.9177   26.3329   -1.8092 C   0  0  0  0  0  0  0  0  0  0  0  0
    9.5305   25.1504    4.0019 C   0  0  0  0  0  0  0  0  0  0  0  0
    7.2692   22.4538    4.8454 N   0  0  0  0  0  0  0  0  0  0  0  0
    8.3839   23.0235    4.4325 O   0  0  0  0  0  0  0  0  0  0  0  0
    7.1932   24.6642    4.9094 C   0  0  0  0  0  0  0  0  0  0  0  0
    6.5015   23.4245    5.1797 C   0  0  0  0  0  0  0  0  0  0  0  0
    8.3893   24.3451    4.5042 C   0  0  0  0  0  0  0  0  0  0  0  0
    5.1138   23.2248    5.6282 C   0  0  0  0  0  0  0  0  0  0  0  0
    4.0666   24.0040    4.9799 C   0  0  0  0  0  0  0  0  0  0  0  0
    2.7904   23.8115    5.4074 C   0  0  0  0  0  0  0  0  0  0  0  0
    2.4985   22.8621    6.5083 C   0  0  0  0  0  0  0  0  0  0  0  0
    3.5231   22.1963    7.1127 C   0  0  0  0  0  0  0  0  0  0  0  0
    4.8850   22.3833    6.6554 C   0  0  0  0  0  0  0  0  0  0  0  0
   -2.3563   24.3337    6.6133 Cl  0  0  0  0  0  0  0  0  0  0  0  0
   -1.1782   23.2552    7.1291 C   0  0  0  0  0  0  0  0  0  0  0  0
    0.1481   23.5361    6.6587 C   0  0  0  0  0  0  0  0  0  0  0  0
   -1.5103   22.1832    7.8292 C   0  0  0  0  0  0  0  0  0  0  0  0
   -0.5024   21.2415    8.1818 C   0  0  0  0  0  0  0  0  0  0  0  0
    0.7493   21.5023    7.7832 C   0  0  0  0  0  0  0  0  0  0  0  0
    1.1128   22.6762    7.0008 C   0  0  0  0  0  0  0  0  0  0  0  0
 38 37  1  0  0  0
 37 36  2  0  0  0
 37 39  1  0  0  0
 36 35  1  0  0  0
 39 40  2  0  0  0
 35 34  2  0  0  0
 40 34  1  0  0  0
 34 30  1  0  0  0
 32 30  2  0  0  0
 30 31  1  0  0  0
 30 29  1  0  0  0
 26 25  2  0  0  0
 29  1  1  0  0  0
 25 27  1  0  0  0
 25 24  1  0  0  0
 24 23  1  0  0  0
  1 41  1  0  0  0
  1  3  1  0  0  0
 41 46  1  0  0  0
  4  3  1  0  0  0
  4  6  1  0  0  0
 23  6  1  0  0  0
  3  2  2  0  0  0
 46 44  2  0  0  0
 46 43  1  0  0  0
 44 45  1  0  0  0
  6  7  1  0  0  0
 48 49  2  0  0  0
 48 47  1  0  0  0
 43 42  1  0  0  0
 45 42  2  0  0  0
 45 47  1  0  0  0
 49 50  1  0  0  0
 47 52  2  0  0  0
  7  8  2  0  0  0
  7  9  1  0  0  0
 53 54  1  0  0  0
 55 54  2  0  0  0
 55 59  1  0  0  0
 50 59  1  0  0  0
 50 51  2  0  0  0
 52 51  1  0  0  0
  9 11  1  0  0  0
 54 56  1  0  0  0
 59 58  2  0  0  0
 14 12  1  0  0  0
 56 57  2  0  0  0
 58 57  1  0  0  0
 12 11  1  0  0  0
 12 13  2  0  0  0
 11 17  1  0  0  0
 17 18  1  0  0  0
 18 19  1  0  0  0
 19 20  2  0  0  0
 19 21  1  0  0  0
 31 33  1  0  0  0
  4  5  1  0  0  0
 27 28  1  0  0  0
  9 10  1  0  0  0
 21 22  1  0  0  0
 14 15  1  0  0  0
 14 16  1  0  0  0
M  END
> <minimizedAffinity>
-10.88542

$$$$
4GQL_R47_A_306


 59 62  0  0  0  0  0  0  0  0999 V2000
    8.7907   26.3569    2.9953 C   0  0  0  0  0  0  0  0  0  0  0  0
   10.0827   27.1960    4.7598 O   0  0  0  0  0  0  0  0  0  0  0  0
    9.1696   27.2348    4.0226 C   0  0  0  0  0  0  0  0  0  0  0  0
    8.3357   28.3226    4.1617 N   0  0  0  0  0  0  0  0  0  0  0  0
    7.5225   28.3586    3.6081 H   0  0  0  0  0  0  0  0  0  0  0  0
    8.5902   29.4234    5.0829 C   0  0  0  0  0  0  0  0  0  0  0  0
    7.8375   29.2774    6.3935 C   0  0  0  0  0  0  0  0  0  0  0  0
    6.6080   29.1370    6.4100 O   0  0  0  0  0  0  0  0  0  0  0  0
    8.5706   29.3310    7.4991 N   0  0  0  0  0  0  0  0  0  0  0  0
    9.5518   29.3780    7.4344 H   0  0  0  0  0  0  0  0  0  0  0  0
    7.9302   29.3204    8.8078 C   0  0  0  0  0  0  0  0  0  0  0  0
    7.4692   30.7016    9.1922 C   0  0  0  0  0  0  0  0  0  0  0  0
    8.2842   31.5807    9.5196 O   0  0  0  0  0  0  0  0  0  0  0  0
    6.1566   30.8975    9.1263 N   0  0  0  0  0  0  0  0  0  0  0  0
    5.5616   30.1599    8.8598 H   0  0  0  0  0  0  0  0  0  0  0  0
    5.7792   31.7804    9.3439 H   0  0  0  0  0  0  0  0  0  0  0  0
    8.8986   28.8404    9.8732 C   0  0  0  0  0  0  0  0  0  0  0  0
    8.2273   28.3398   11.0858 C   0  0  0  0  0  0  0  0  0  0  0  0
    9.1456   27.4966   11.9295 C   0  0  0  0  0  0  0  0  0  0  0  0
   10.3589   27.7909   11.9582 O   0  0  0  0  0  0  0  0  0  0  0  0
    8.6429   26.5452   12.5661 O   0  0  0  0  0  0  0  0  0  0  0  0
    7.7238   26.3737   12.5041 H   0  0  0  0  0  0  0  0  0  0  0  0
    8.2593   30.7533    4.4015 C   0  0  0  0  0  0  0  0  0  0  0  0
    8.8973   30.8548    3.0259 C   0  0  0  0  0  0  0  0  0  0  0  0
    7.8924   30.8152    1.8823 C   0  0  0  0  0  0  0  0  0  0  0  0
    7.1798   29.7944    1.7443 O   0  0  0  0  0  0  0  0  0  0  0  0
    7.7861   31.8170    1.1487 O   0  0  0  0  0  0  0  0  0  0  0  0
    8.3400   32.5600    1.2872 H   0  0  0  0  0  0  0  0  0  0  0  0
    9.7134   26.6492    1.7536 C   0  0  0  0  0  0  0  0  0  0  0  0
    8.8253   26.7491    0.1722 P   0  0  0  0  0  0  0  0  0  0  0  0
    8.8682   28.2827   -0.2605 O   0  0  0  0  0  0  0  0  0  0  0  0
    7.3710   26.1944    0.2120 O   0  0  0  0  0  0  0  0  0  0  0  0
    8.4047   28.3935   -1.1053 H   0  0  0  0  0  0  0  0  0  0  0  0
    9.8551   25.8073   -0.9778 C   0  0  0  0  0  0  0  0  0  0  0  0
    9.6051   24.3803   -1.1014 C   0  0  0  0  0  0  0  0  0  0  0  0
   10.3813   23.6746   -1.9970 C   0  0  0  0  0  0  0  0  0  0  0  0
   11.3721   24.4114   -2.8478 C   0  0  0  0  0  0  0  0  0  0  0  0
   12.5187   23.8310   -4.3081 Br  0  0  0  0  0  0  0  0  0  0  0  0
   11.5500   25.7079   -2.7082 C   0  0  0  0  0  0  0  0  0  0  0  0
   10.8046   26.4410   -1.7302 C   0  0  0  0  0  0  0  0  0  0  0  0
    9.0736   24.9216    3.5169 C   0  0  0  0  0  0  0  0  0  0  0  0
    7.2270   22.9530    5.9277 N   0  0  0  0  0  0  0  0  0  0  0  0
    8.2806   23.4118    5.2820 O   0  0  0  0  0  0  0  0  0  0  0  0
    6.7190   24.4666    4.3957 C   0  0  0  0  0  0  0  0  0  0  0  0
    6.2299   23.5922    5.4371 C   0  0  0  0  0  0  0  0  0  0  0  0
    8.0168   24.3549    4.3918 C   0  0  0  0  0  0  0  0  0  0  0  0
    4.8379   23.3220    5.8322 C   0  0  0  0  0  0  0  0  0  0  0  0
    3.7746   23.9844    5.0873 C   0  0  0  0  0  0  0  0  0  0  0  0
    2.4942   23.7280    5.4663 C   0  0  0  0  0  0  0  0  0  0  0  0
    2.2118   22.8286    6.6107 C   0  0  0  0  0  0  0  0  0  0  0  0
    3.2471   22.2749    7.3035 C   0  0  0  0  0  0  0  0  0  0  0  0
    4.6147   22.5300    6.8992 C   0  0  0  0  0  0  0  0  0  0  0  0
   -2.6905   24.1372    6.6280 Cl  0  0  0  0  0  0  0  0  0  0  0  0
   -1.4934   23.0734    7.1302 C   0  0  0  0  0  0  0  0  0  0  0  0
   -0.1634   23.4189    6.7167 C   0  0  0  0  0  0  0  0  0  0  0  0
   -1.8107   21.9590    7.7681 C   0  0  0  0  0  0  0  0  0  0  0  0
   -0.7831   21.0342    8.1085 C   0  0  0  0  0  0  0  0  0  0  0  0
    0.4708   21.3538    7.7632 C   0  0  0  0  0  0  0  0  0  0  0  0
    0.8186   22.5749    7.0490 C   0  0  0  0  0  0  0  0  0  0  0  0
 38 37  1  0  0  0
 37 36  2  0  0  0
 37 39  1  0  0  0
 36 35  1  0  0  0
 39 40  2  0  0  0
 35 34  2  0  0  0
 40 34  1  0  0  0
 34 30  1  0  0  0
 32 30  2  0  0  0
 30 31  1  0  0  0
 30 29  1  0  0  0
 26 25  2  0  0  0
 29  1  1  0  0  0
 25 27  1  0  0  0
 25 24  1  0  0  0
 24 23  1  0  0  0
  1 41  1  0  0  0
  1  3  1  0  0  0
 41 46  1  0  0  0
  4  3  1  0  0  0
  4  6  1  0  0  0
 23  6  1  0  0  0
  3  2  2  0  0  0
 46 44  2  0  0  0
 46 43  1  0  0  0
 44 45  1  0  0  0
  6  7  1  0  0  0
 48 49  2  0  0  0
 48 47  1  0  0  0
 43 42  1  0  0  0
 45 42  2  0  0  0
 45 47  1  0  0  0
 49 50  1  0  0  0
 47 52  2  0  0  0
  7  8  2  0  0  0
  7  9  1  0  0  0
 53 54  1  0  0  0
 55 54  2  0  0  0
 55 59  1  0  0  0
 50 59  1  0  0  0
 50 51  2  0  0  0
 52 51  1  0  0  0
  9 11  1  0  0  0
 54 56  1  0  0  0
 59 58  2  0  0  0
 14 12  1  0  0  0
 56 57  2  0  0  0
 58 57  1  0  0  0
 12 11  1  0  0  0
 12 13  2  0  0  0
 11 17  1  0  0  0
 17 18  1  0  0  0
 18 19  1  0  0  0
 19 20  2  0  0  0
 19 21  1  0  0  0
 31 33  1  0  0  0
  4  5  1  0  0  0
 27 28  1  0  0  0
  9 10  1  0  0  0
 21 22  1  0  0  0
 14 15  1  0  0  0
 14 16  1  0  0  0
M  END
> <minimizedAffinity>
-10.86832

$$$$
4GQL_R47_A_306


 59 62  0  0  0  0  0  0  0  0999 V2000
    9.0322   25.7637    3.0796 C   0  0  0  0  0  0  0  0  0  0  0  0
    7.8331   25.8725    1.0704 O   0  0  0  0  0  0  0  0  0  0  0  0
    8.8273   25.8102    1.6920 C   0  0  0  0  0  0  0  0  0  0  0  0
    9.9920   25.8005    0.9561 N   0  0  0  0  0  0  0  0  0  0  0  0
   10.8437   25.6823    1.4356 H   0  0  0  0  0  0  0  0  0  0  0  0
   10.0338   25.9556   -0.4927 C   0  0  0  0  0  0  0  0  0  0  0  0
   10.3390   24.6544   -1.2133 C   0  0  0  0  0  0  0  0  0  0  0  0
   10.2068   23.5639   -0.6431 O   0  0  0  0  0  0  0  0  0  0  0  0
   10.7692   24.7647   -2.4645 N   0  0  0  0  0  0  0  0  0  0  0  0
   10.7961   25.6487   -2.8971 H   0  0  0  0  0  0  0  0  0  0  0  0
   11.2016   23.5841   -3.2007 C   0  0  0  0  0  0  0  0  0  0  0  0
   12.4368   23.8778   -4.0107 C   0  0  0  0  0  0  0  0  0  0  0  0
   12.8206   25.0456   -4.1927 O   0  0  0  0  0  0  0  0  0  0  0  0
   13.0742   22.8089   -4.4763 N   0  0  0  0  0  0  0  0  0  0  0  0
   12.7194   21.9079   -4.2984 H   0  0  0  0  0  0  0  0  0  0  0  0
   13.9012   22.9179   -4.9992 H   0  0  0  0  0  0  0  0  0  0  0  0
   10.1172   23.1234   -4.1573 C   0  0  0  0  0  0  0  0  0  0  0  0
    9.8262   24.1014   -5.2205 C   0  0  0  0  0  0  0  0  0  0  0  0
    9.0942   25.3058   -4.6918 C   0  0  0  0  0  0  0  0  0  0  0  0
    9.6032   26.4323   -4.8693 O   0  0  0  0  0  0  0  0  0  0  0  0
    8.0062   25.1161   -4.1057 O   0  0  0  0  0  0  0  0  0  0  0  0
    7.6750   24.2456   -4.0030 H   0  0  0  0  0  0  0  0  0  0  0  0
   11.0437   27.0434   -0.8662 C   0  0  0  0  0  0  0  0  0  0  0  0
   10.3854   28.4088   -0.9750 C   0  0  0  0  0  0  0  0  0  0  0  0
   10.5870   29.2837    0.2551 C   0  0  0  0  0  0  0  0  0  0  0  0
   10.4787   30.5255    0.1329 O   0  0  0  0  0  0  0  0  0  0  0  0
   10.8121   28.7299    1.3486 O   0  0  0  0  0  0  0  0  0  0  0  0
   10.8857   27.7970    1.3950 H   0  0  0  0  0  0  0  0  0  0  0  0
    7.8686   26.5761    3.7611 C   0  0  0  0  0  0  0  0  0  0  0  0
    8.4260   28.0157    4.7184 P   0  0  0  0  0  0  0  0  0  0  0  0
    9.9980   27.8340    4.9113 O   0  0  0  0  0  0  0  0  0  0  0  0
    7.6903   28.2125    6.0765 O   0  0  0  0  0  0  0  0  0  0  0  0
   10.3498   28.5811    5.4201 H   0  0  0  0  0  0  0  0  0  0  0  0
    8.1498   29.4202    3.6134 C   0  0  0  0  0  0  0  0  0  0  0  0
    7.4491   29.1737    2.3635 C   0  0  0  0  0  0  0  0  0  0  0  0
    7.2241   30.2552    1.5374 C   0  0  0  0  0  0  0  0  0  0  0  0
    7.6301   31.6242    1.9950 C   0  0  0  0  0  0  0  0  0  0  0  0
    7.3558   33.3886    1.2233 Br  0  0  0  0  0  0  0  0  0  0  0  0
    8.2485   31.7965    3.1439 C   0  0  0  0  0  0  0  0  0  0  0  0
    8.5556   30.6740    3.9776 C   0  0  0  0  0  0  0  0  0  0  0  0
    8.9227   24.2699    3.4902 C   0  0  0  0  0  0  0  0  0  0  0  0
    7.0041   23.1155    6.3334 N   0  0  0  0  0  0  0  0  0  0  0  0
    8.0782   23.3970    5.6231 O   0  0  0  0  0  0  0  0  0  0  0  0
    6.5359   23.9854    4.3536 C   0  0  0  0  0  0  0  0  0  0  0  0
    6.0156   23.4844    5.6052 C   0  0  0  0  0  0  0  0  0  0  0  0
    7.8345   23.9642    4.4524 C   0  0  0  0  0  0  0  0  0  0  0  0
    4.6132   23.2731    5.9992 C   0  0  0  0  0  0  0  0  0  0  0  0
    4.3415   22.3455    7.0900 C   0  0  0  0  0  0  0  0  0  0  0  0
    3.0412   22.1577    7.4402 C   0  0  0  0  0  0  0  0  0  0  0  0
    1.9553   22.8573    6.7124 C   0  0  0  0  0  0  0  0  0  0  0  0
    2.2639   23.6760    5.6669 C   0  0  0  0  0  0  0  0  0  0  0  0
    3.6470   23.8942    5.2948 C   0  0  0  0  0  0  0  0  0  0  0  0
   -2.8673   24.4339    6.7586 Cl  0  0  0  0  0  0  0  0  0  0  0  0
   -1.7488   23.2439    7.1459 C   0  0  0  0  0  0  0  0  0  0  0  0
   -0.3873   23.5647    6.8254 C   0  0  0  0  0  0  0  0  0  0  0  0
   -2.1495   22.0733    7.6136 C   0  0  0  0  0  0  0  0  0  0  0  0
   -1.1866   21.0526    7.8545 C   0  0  0  0  0  0  0  0  0  0  0  0
    0.0950   21.3429    7.5956 C   0  0  0  0  0  0  0  0  0  0  0  0
    0.5347   22.6276    7.0681 C   0  0  0  0  0  0  0  0  0  0  0  0
 38 37  1  0  0  0
 37 36  2  0  0  0
 37 39  1  0  0  0
 36 35  1  0  0  0
 39 40  2  0  0  0
 35 34  2  0  0  0
 40 34  1  0  0  0
 34 30  1  0  0  0
 32 30  2  0  0  0
 30 31  1  0  0  0
 30 29  1  0  0  0
 26 25  2  0  0  0
 29  1  1  0  0  0
 25 27  1  0  0  0
 25 24  1  0  0  0
 24 23  1  0  0  0
  1 41  1  0  0  0
  1  3  1  0  0  0
 41 46  1  0  0  0
  4  3  1  0  0  0
  4  6  1  0  0  0
 23  6  1  0  0  0
  3  2  2  0  0  0
 46 44  2  0  0  0
 46 43  1  0  0  0
 44 45  1  0  0  0
  6  7  1  0  0  0
 48 49  2  0  0  0
 48 47  1  0  0  0
 43 42  1  0  0  0
 45 42  2  0  0  0
 45 47  1  0  0  0
 49 50  1  0  0  0
 47 52  2  0  0  0
  7  8  2  0  0  0
  7  9  1  0  0  0
 53 54  1  0  0  0
 55 54  2  0  0  0
 55 59  1  0  0  0
 50 59  1  0  0  0
 50 51  2  0  0  0
 52 51  1  0  0  0
  9 11  1  0  0  0
 54 56  1  0  0  0
 59 58  2  0  0  0
 14 12  1  0  0  0
 56 57  2  0  0  0
 58 57  1  0  0  0
 12 11  1  0  0  0
 12 13  2  0  0  0
 11 17  1  0  0  0
 17 18  1  0  0  0
 18 19  1  0  0  0
 19 20  2  0  0  0
 19 21  1  0  0  0
 31 33  1  0  0  0
  4  5  1  0  0  0
 27 28  1  0  0  0
  9 10  1  0  0  0
 21 22  1  0  0  0
 14 15  1  0  0  0
 14 16  1  0  0  0
M  END
> <minimizedAffinity>
-10.69006

$$$$
4GQL_R47_A_306


 59 62  0  0  0  0  0  0  0  0999 V2000
    9.2871   25.5320    2.7699 C   0  0  0  0  0  0  0  0  0  0  0  0
    8.7008   24.4916    0.7548 O   0  0  0  0  0  0  0  0  0  0  0  0
    9.1682   25.3679    1.3812 C   0  0  0  0  0  0  0  0  0  0  0  0
    9.6676   26.4239    0.6506 N   0  0  0  0  0  0  0  0  0  0  0  0
   10.1273   27.1476    1.1345 H   0  0  0  0  0  0  0  0  0  0  0  0
    9.5533   26.5295   -0.7988 C   0  0  0  0  0  0  0  0  0  0  0  0
   10.8335   26.1423   -1.5178 C   0  0  0  0  0  0  0  0  0  0  0  0
   11.9334   26.5532   -1.1266 O   0  0  0  0  0  0  0  0  0  0  0  0
   10.6936   25.3660   -2.5857 N   0  0  0  0  0  0  0  0  0  0  0  0
    9.8058   25.0108   -2.8202 H   0  0  0  0  0  0  0  0  0  0  0  0
   11.8473   25.0370   -3.4124 C   0  0  0  0  0  0  0  0  0  0  0  0
   11.9840   26.0075   -4.5558 C   0  0  0  0  0  0  0  0  0  0  0  0
   12.6139   27.0704   -4.4218 O   0  0  0  0  0  0  0  0  0  0  0  0
   11.4116   25.6255   -5.6924 N   0  0  0  0  0  0  0  0  0  0  0  0
   10.9255   24.7705   -5.7357 H   0  0  0  0  0  0  0  0  0  0  0  0
   11.4737   26.1974   -6.4914 H   0  0  0  0  0  0  0  0  0  0  0  0
   11.7051   23.6447   -3.9992 C   0  0  0  0  0  0  0  0  0  0  0  0
   10.4516   22.9749   -3.6096 C   0  0  0  0  0  0  0  0  0  0  0  0
    9.4314   23.0031   -4.7162 C   0  0  0  0  0  0  0  0  0  0  0  0
    9.2745   21.9716   -5.4023 O   0  0  0  0  0  0  0  0  0  0  0  0
    8.7862   24.0602   -4.8875 O   0  0  0  0  0  0  0  0  0  0  0  0
    8.9492   24.8026   -4.3395 H   0  0  0  0  0  0  0  0  0  0  0  0
    9.1128   27.9448   -1.1798 C   0  0  0  0  0  0  0  0  0  0  0  0
    8.8561   28.0715   -2.6724 C   0  0  0  0  0  0  0  0  0  0  0  0
    9.5789   29.2458   -3.3188 C   0  0  0  0  0  0  0  0  0  0  0  0
    8.9250   30.2805   -3.5848 O   0  0  0  0  0  0  0  0  0  0  0  0
   10.8046   29.1506   -3.5229 O   0  0  0  0  0  0  0  0  0  0  0  0
   11.2550   28.3573   -3.3090 H   0  0  0  0  0  0  0  0  0  0  0  0
    8.0369   26.3525    3.2621 C   0  0  0  0  0  0  0  0  0  0  0  0
    8.4512   27.8415    4.2164 P   0  0  0  0  0  0  0  0  0  0  0  0
    9.8499   27.5390    4.9186 O   0  0  0  0  0  0  0  0  0  0  0  0
    7.3639   28.2737    5.2436 O   0  0  0  0  0  0  0  0  0  0  0  0
   10.1202   28.3074    5.4452 H   0  0  0  0  0  0  0  0  0  0  0  0
    8.7118   29.1173    2.9615 C   0  0  0  0  0  0  0  0  0  0  0  0
   10.0802   29.4202    2.5747 C   0  0  0  0  0  0  0  0  0  0  0  0
   10.2676   30.3794    1.6013 C   0  0  0  0  0  0  0  0  0  0  0  0
    9.0715   30.9948    0.9385 C   0  0  0  0  0  0  0  0  0  0  0  0
    8.9035   32.2335   -0.5518 Br  0  0  0  0  0  0  0  0  0  0  0  0
    7.8517   30.6746    1.3148 C   0  0  0  0  0  0  0  0  0  0  0  0
    7.6428   29.7360    2.3754 C   0  0  0  0  0  0  0  0  0  0  0  0
    9.2397   24.1073    3.3865 C   0  0  0  0  0  0  0  0  0  0  0  0
    7.3115   23.2487    6.3262 N   0  0  0  0  0  0  0  0  0  0  0  0
    8.3879   23.4773    5.6004 O   0  0  0  0  0  0  0  0  0  0  0  0
    6.8490   23.8490    4.2474 C   0  0  0  0  0  0  0  0  0  0  0  0
    6.3241   23.4895    5.5449 C   0  0  0  0  0  0  0  0  0  0  0  0
    8.1458   23.8857    4.3650 C   0  0  0  0  0  0  0  0  0  0  0  0
    4.9228   23.2799    5.9439 C   0  0  0  0  0  0  0  0  0  0  0  0
    4.6552   22.3653    7.0467 C   0  0  0  0  0  0  0  0  0  0  0  0
    3.3559   22.1788    7.4013 C   0  0  0  0  0  0  0  0  0  0  0  0
    2.2671   22.8667    6.6667 C   0  0  0  0  0  0  0  0  0  0  0  0
    2.5721   23.6730    5.6105 C   0  0  0  0  0  0  0  0  0  0  0  0
    3.9540   23.8898    5.2334 C   0  0  0  0  0  0  0  0  0  0  0  0
   -2.5868   24.3387    6.5330 Cl  0  0  0  0  0  0  0  0  0  0  0  0
   -1.4487   23.2102    7.0312 C   0  0  0  0  0  0  0  0  0  0  0  0
   -0.0905   23.5313    6.6970 C   0  0  0  0  0  0  0  0  0  0  0  0
   -1.8305   22.0757    7.5939 C   0  0  0  0  0  0  0  0  0  0  0  0
   -0.8497   21.1000    7.9303 C   0  0  0  0  0  0  0  0  0  0  0  0
    0.4285   21.3943    7.6593 C   0  0  0  0  0  0  0  0  0  0  0  0
    0.8477   22.6382    7.0276 C   0  0  0  0  0  0  0  0  0  0  0  0
 38 37  1  0  0  0
 37 36  2  0  0  0
 37 39  1  0  0  0
 36 35  1  0  0  0
 39 40  2  0  0  0
 35 34  2  0  0  0
 40 34  1  0  0  0
 34 30  1  0  0  0
 32 30  2  0  0  0
 30 31  1  0  0  0
 30 29  1  0  0  0
 26 25  2  0  0  0
 29  1  1  0  0  0
 25 27  1  0  0  0
 25 24  1  0  0  0
 24 23  1  0  0  0
  1 41  1  0  0  0
  1  3  1  0  0  0
 41 46  1  0  0  0
  4  3  1  0  0  0
  4  6  1  0  0  0
 23  6  1  0  0  0
  3  2  2  0  0  0
 46 44  2  0  0  0
 46 43  1  0  0  0
 44 45  1  0  0  0
  6  7  1  0  0  0
 48 49  2  0  0  0
 48 47  1  0  0  0
 43 42  1  0  0  0
 45 42  2  0  0  0
 45 47  1  0  0  0
 49 50  1  0  0  0
 47 52  2  0  0  0
  7  8  2  0  0  0
  7  9  1  0  0  0
 53 54  1  0  0  0
 55 54  2  0  0  0
 55 59  1  0  0  0
 50 59  1  0  0  0
 50 51  2  0  0  0
 52 51  1  0  0  0
  9 11  1  0  0  0
 54 56  1  0  0  0
 59 58  2  0  0  0
 14 12  1  0  0  0
 56 57  2  0  0  0
 58 57  1  0  0  0
 12 11  1  0  0  0
 12 13  2  0  0  0
 11 17  1  0  0  0
 17 18  1  0  0  0
 18 19  1  0  0  0
 19 20  2  0  0  0
 19 21  1  0  0  0
 31 33  1  0  0  0
  4  5  1  0  0  0
 27 28  1  0  0  0
  9 10  1  0  0  0
 21 22  1  0  0  0
 14 15  1  0  0  0
 14 16  1  0  0  0
M  END
> <minimizedAffinity>
-10.38403

$$$$
4GQL_R47_A_306


 59 62  0  0  0  0  0  0  0  0999 V2000
    8.1790   25.3378    3.2784 C   0  0  0  0  0  0  0  0  0  0  0  0
    9.3472   26.8603    4.6216 O   0  0  0  0  0  0  0  0  0  0  0  0
    8.4120   26.5195    3.9987 C   0  0  0  0  0  0  0  0  0  0  0  0
    7.3735   27.4229    3.9381 N   0  0  0  0  0  0  0  0  0  0  0  0
    6.5452   27.1489    3.4819 H   0  0  0  0  0  0  0  0  0  0  0  0
    7.4325   28.7616    4.5118 C   0  0  0  0  0  0  0  0  0  0  0  0
    8.3201   29.7022    3.7161 C   0  0  0  0  0  0  0  0  0  0  0  0
    9.5214   29.8262    3.9866 O   0  0  0  0  0  0  0  0  0  0  0  0
    7.7272   30.3848    2.7438 N   0  0  0  0  0  0  0  0  0  0  0  0
    6.7848   30.2047    2.5233 H   0  0  0  0  0  0  0  0  0  0  0  0
    8.4642   31.3990    2.0017 C   0  0  0  0  0  0  0  0  0  0  0  0
    8.1825   32.7746    2.5459 C   0  0  0  0  0  0  0  0  0  0  0  0
    7.8806   33.7132    1.7895 O   0  0  0  0  0  0  0  0  0  0  0  0
    8.2572   32.8851    3.8680 N   0  0  0  0  0  0  0  0  0  0  0  0
    8.5021   32.1035    4.4142 H   0  0  0  0  0  0  0  0  0  0  0  0
    8.0677   33.7486    4.3013 H   0  0  0  0  0  0  0  0  0  0  0  0
    8.0636   31.3873    0.5380 C   0  0  0  0  0  0  0  0  0  0  0  0
    6.7127   30.8447    0.3094 C   0  0  0  0  0  0  0  0  0  0  0  0
    6.6676   29.9343   -0.8886 C   0  0  0  0  0  0  0  0  0  0  0  0
    7.5151   29.0206   -0.9693 O   0  0  0  0  0  0  0  0  0  0  0  0
    5.7759   30.1364   -1.7413 O   0  0  0  0  0  0  0  0  0  0  0  0
    5.1674   30.8394   -1.6252 H   0  0  0  0  0  0  0  0  0  0  0  0
    7.8854   28.6780    5.9714 C   0  0  0  0  0  0  0  0  0  0  0  0
    7.2566   29.7714    6.8192 C   0  0  0  0  0  0  0  0  0  0  0  0
    8.2028   30.9234    7.1300 C   0  0  0  0  0  0  0  0  0  0  0  0
    7.8418   32.0894    6.8490 O   0  0  0  0  0  0  0  0  0  0  0  0
    9.2862   30.6688    7.6908 O   0  0  0  0  0  0  0  0  0  0  0  0
    9.5171   29.7812    7.8829 H   0  0  0  0  0  0  0  0  0  0  0  0
    9.2734   25.2430    2.1506 C   0  0  0  0  0  0  0  0  0  0  0  0
    8.7553   25.9278    0.5499 P   0  0  0  0  0  0  0  0  0  0  0  0
    7.3641   26.6598    0.8140 O   0  0  0  0  0  0  0  0  0  0  0  0
    8.6552   24.8811   -0.5984 O   0  0  0  0  0  0  0  0  0  0  0  0
    7.0398   27.0464   -0.0144 H   0  0  0  0  0  0  0  0  0  0  0  0
    9.9978   27.1889    0.1812 C   0  0  0  0  0  0  0  0  0  0  0  0
   10.6806   27.1158   -1.1003 C   0  0  0  0  0  0  0  0  0  0  0  0
   11.6109   28.0946   -1.3812 C   0  0  0  0  0  0  0  0  0  0  0  0
   11.8119   29.2163   -0.4065 C   0  0  0  0  0  0  0  0  0  0  0  0
   12.8810   30.8391   -0.4928 Br  0  0  0  0  0  0  0  0  0  0  0  0
   11.1568   29.2449    0.7346 C   0  0  0  0  0  0  0  0  0  0  0  0
   10.2432   28.1960    1.0728 C   0  0  0  0  0  0  0  0  0  0  0  0
    8.3731   24.1669    4.2801 C   0  0  0  0  0  0  0  0  0  0  0  0
    5.8819   22.2392    6.0618 N   0  0  0  0  0  0  0  0  0  0  0  0
    7.0720   22.5460    5.5853 O   0  0  0  0  0  0  0  0  0  0  0  0
    5.9064   24.1473    4.9419 C   0  0  0  0  0  0  0  0  0  0  0  0
    5.1221   23.2119    5.7153 C   0  0  0  0  0  0  0  0  0  0  0  0
    7.1319   23.7062    4.9513 C   0  0  0  0  0  0  0  0  0  0  0  0
    3.6753   23.2282    5.9859 C   0  0  0  0  0  0  0  0  0  0  0  0
    2.8257   24.0315    5.1157 C   0  0  0  0  0  0  0  0  0  0  0  0
    1.4921   24.0398    5.3803 C   0  0  0  0  0  0  0  0  0  0  0  0
    0.9460   23.2770    6.5285 C   0  0  0  0  0  0  0  0  0  0  0  0
    1.7933   22.5824    7.3398 C   0  0  0  0  0  0  0  0  0  0  0  0
    3.2142   22.5553    7.0583 C   0  0  0  0  0  0  0  0  0  0  0  0
   -3.2626   20.9200    8.1024 Cl  0  0  0  0  0  0  0  0  0  0  0  0
   -2.5310   22.3319    7.5654 C   0  0  0  0  0  0  0  0  0  0  0  0
   -1.1427   22.2035    7.2256 C   0  0  0  0  0  0  0  0  0  0  0  0
   -3.1953   23.4757    7.5706 C   0  0  0  0  0  0  0  0  0  0  0  0
   -2.5251   24.6725    7.1895 C   0  0  0  0  0  0  0  0  0  0  0  0
   -1.2378   24.5699    6.8342 C   0  0  0  0  0  0  0  0  0  0  0  0
   -0.5026   23.3123    6.8412 C   0  0  0  0  0  0  0  0  0  0  0  0
 38 37  1  0  0  0
 37 36  2  0  0  0
 37 39  1  0  0  0
 36 35  1  0  0  0
 39 40  2  0  0  0
 35 34  2  0  0  0
 40 34  1  0  0  0
 34 30  1  0  0  0
 32 30  2  0  0  0
 30 31  1  0  0  0
 30 29  1  0  0  0
 26 25  2  0  0  0
 29  1  1  0  0  0
 25 27  1  0  0  0
 25 24  1  0  0  0
 24 23  1  0  0  0
  1 41  1  0  0  0
  1  3  1  0  0  0
 41 46  1  0  0  0
  4  3  1  0  0  0
  4  6  1  0  0  0
 23  6  1  0  0  0
  3  2  2  0  0  0
 46 44  2  0  0  0
 46 43  1  0  0  0
 44 45  1  0  0  0
  6  7  1  0  0  0
 48 49  2  0  0  0
 48 47  1  0  0  0
 43 42  1  0  0  0
 45 42  2  0  0  0
 45 47  1  0  0  0
 49 50  1  0  0  0
 47 52  2  0  0  0
  7  8  2  0  0  0
  7  9  1  0  0  0
 53 54  1  0  0  0
 55 54  2  0  0  0
 55 59  1  0  0  0
 50 59  1  0  0  0
 50 51  2  0  0  0
 52 51  1  0  0  0
  9 11  1  0  0  0
 54 56  1  0  0  0
 59 58  2  0  0  0
 14 12  1  0  0  0
 56 57  2  0  0  0
 58 57  1  0  0  0
 12 11  1  0  0  0
 12 13  2  0  0  0
 11 17  1  0  0  0
 17 18  1  0  0  0
 18 19  1  0  0  0
 19 20  2  0  0  0
 19 21  1  0  0  0
 31 33  1  0  0  0
  4  5  1  0  0  0
 27 28  1  0  0  0
  9 10  1  0  0  0
 21 22  1  0  0  0
 14 15  1  0  0  0
 14 16  1  0  0  0
M  END
> <minimizedAffinity>
-10.22850

$$$$
