3TTP_017_A_201
  RCSB PDB12061710563D
Coordinates from PDB:3TTP:A:201 Model:1 without hydrogens
 38 41  0  0  0  0            999 V2000
  -10.1180   15.7390   35.0410   N 0  0  0  0  0  0  0  0  0  0  0  0
   -9.8680   15.5250   33.7290   C 0  0  0  0  0  0  0  0  0  0  0  0
   -9.2720   16.5370   33.0040   C 0  0  0  0  0  0  0  0  0  0  0  0
   -9.0040   16.3610   31.6610   C 0  0  0  0  0  0  0  0  0  0  0  0
   -9.3320   15.1620   31.0310   C 0  0  0  0  0  0  0  0  0  0  0  0
   -9.9280   14.1320   31.7540   C 0  0  0  0  0  0  0  0  0  0  0  0
  -10.1930   14.3100   33.1160   C 0  0  0  0  0  0  0  0  0  0  0  0
   -9.0120   15.0020   29.4820   S 0  0  0  0  0  0  0  0  0  0  0  0
   -7.7980   15.7080   29.1980   O 0  0  0  0  0  0  0  0  0  0  0  0
   -8.7770   13.6090   29.2320   O 0  0  0  0  0  0  0  0  0  0  0  0
  -10.2060   15.5340   28.5050   N 0  0  0  0  0  0  0  0  0  0  0  0
  -11.5450   14.9960   28.8260   C 0  0  0  0  0  0  0  0  0  0  0  0
  -12.3850   14.7400   27.5670   C 0  0  0  0  0  0  0  0  0  0  0  0
  -11.5830   14.1430   26.4120   C 0  0  0  0  0  0  0  0  0  0  0  0
  -13.5540   13.8200   27.8920   C 0  0  0  0  0  0  0  0  0  0  0  0
  -10.2440   17.0030   28.4310   C 0  0  0  0  0  0  0  0  0  0  0  0
   -9.9630   17.4030   26.9750   C 0  0  0  0  0  0  0  0  0  0  0  0
  -10.3090   18.7700   26.7610   O 0  0  0  0  0  0  0  0  0  0  0  0
   -8.5200   17.1360   26.5300   C 0  0  0  0  0  0  0  0  0  0  0  0
   -8.4960   17.3790   25.0930   N 0  0  0  0  0  0  0  0  0  0  0  0
   -8.3800   16.4490   24.1390   C 0  0  0  0  0  0  0  0  0  0  0  0
   -8.2800   15.2430   24.3030   O 0  0  0  0  0  0  0  0  0  0  0  0
   -8.3830   16.9510   22.7820   O 0  0  0  0  0  0  0  0  0  0  0  0
   -7.9640   16.0660   21.7630   C 0  0  0  0  0  0  0  0  0  0  0  0
   -8.9760   16.3060   20.6720   C 0  0  0  0  0  0  0  0  0  0  0  0
   -8.4460   17.4010   19.9050   O 0  0  0  0  0  0  0  0  0  0  0  0
   -7.1030   17.7070   20.2910   C 0  0  0  0  0  0  0  0  0  0  0  0
   -7.0080   18.9160   21.0680   O 0  0  0  0  0  0  0  0  0  0  0  0
   -6.1270   18.7650   22.1960   C 0  0  0  0  0  0  0  0  0  0  0  0
   -5.7280   17.2740   22.2030   C 0  0  0  0  0  0  0  0  0  0  0  0
   -6.6560   16.5920   21.2020   C 0  0  0  0  0  0  0  0  0  0  0  0
   -7.5180   18.1280   27.1180   C 0  0  0  0  0  0  0  0  0  0  0  0
   -5.5040   18.6740   25.7120   C 0  0  0  0  0  0  0  0  0  0  0  0
   -4.2300   18.3740   25.2270   C 0  0  0  0  0  0  0  0  0  0  0  0
   -3.6020   17.1960   25.6110   C 0  0  0  0  0  0  0  0  0  0  0  0
   -4.2400   16.3220   26.4870   C 0  0  0  0  0  0  0  0  0  0  0  0
   -5.5040   16.6240   26.9850   C 0  0  0  0  0  0  0  0  0  0  0  0
   -6.1430   17.7990   26.5910   C 0  0  0  0  0  0  0  0  0  0  0  0
  1  2  1  0  0  0  0
  2  3  2  0  0  0  0
  2  7  1  0  0  0  0
  3  4  1  0  0  0  0
  4  5  2  0  0  0  0
  5  6  1  0  0  0  0
  5  8  1  0  0  0  0
  6  7  2  0  0  0  0
  8  9  2  0  0  0  0
  8 10  2  0  0  0  0
  8 11  1  0  0  0  0
 11 12  1  0  0  0  0
 11 16  1  0  0  0  0
 12 13  1  0  0  0  0
 13 14  1  0  0  0  0
 13 15  1  0  0  0  0
 16 17  1  0  0  0  0
 17 18  1  0  0  0  0
 17 19  1  0  0  0  0
 19 20  1  0  0  0  0
 19 32  1  0  0  0  0
 20 21  1  0  0  0  0
 21 22  2  0  0  0  0
 21 23  1  0  0  0  0
 23 24  1  0  0  0  0
 24 25  1  0  0  0  0
 24 31  1  0  0  0  0
 25 26  1  0  0  0  0
 26 27  1  0  0  0  0
 27 28  1  0  0  0  0
 27 31  1  0  0  0  0
 28 29  1  0  0  0  0
 29 30  1  0  0  0  0
 30 31  1  0  0  0  0
 32 38  1  0  0  0  0
 33 34  2  0  0  0  0
 33 38  1  0  0  0  0
 34 35  1  0  0  0  0
 35 36  2  0  0  0  0
 36 37  1  0  0  0  0
 37 38  2  0  0  0  0
A    1
N1
A    2
C2
A    3
C3
A    4
C4
A    5
C5
A    6
C6
A    7
C7
A    8
S8
A    9
O9
A   10
O10
A   11
N11
A   12
C12
A   13
C13
A   14
C14
A   15
C15
A   16
C16
A   17
C17
A   18
O18
A   19
C19
A   20
N20
A   21
C21
A   22
O22
A   23
O23
A   24
C24
A   25
C25
A   26
O26
A   27
C27
A   28
O28
A   29
C29
A   30
C30
A   31
C31
A   32
C32
A   33
C33
A   34
C34
A   35
C35
A   36
C36
A   37
C37
A   38
C38
M  END
>  <InstanceId>
3TTP_017_A_201

>  <ChemCompId>
017

>  <PdbId>
3TTP

>  <ChainId>
A

>  <ResidueNumber>
201

>  <InsertionCode>


>  <Model>
1

>  <AltIds>


>  <MissingHeavyAtoms>
0

>  <ObservedFormula>
C27 N3 O7 S

>  <Name>
(3R,3AS,6AR)-HEXAHYDROFURO[2,3-B]FURAN-3-YL(1S,2R)-3-[[(4-AMINOPHENYL)SULFONYL](ISOBUTYL)AMINO]-1-BENZYL-2-HYDROXYPROPYLCARBAMATE

>  <SystematicName>
[(3R,3aS,6aR)-2,3,3a,4,5,6a-hexahydrofuro[2,3-b]furan-3-yl] N-[(2S,3R)-4-[(4-aminophenyl)sulfonyl-(2-methylpropyl)amino]-3-hydroxy-1-phenyl-butan-2-yl]carbamate

>  <Synonyms>
Darunavir, TMC114, UIC-94017

>  <Type>
NON-POLYMER

>  <Formula>
C27 H37 N3 O7 S

>  <MolecularWeight>
547.664

>  <ModifiedDate>
2011-06-04

>  <Parent>


>  <OneLetterCode>


>  <SubcomponentList>


>  <AmbiguousFlag>
N

>  <InChI>
InChI=1S/C27H37N3O7S/c1-18(2)15-30(38(33,34)21-10-8-20(28)9-11-21)16-24(31)23(14-19-6-4-3-5-7-19)29-27(32)37-25-17-36-26-22(25)12-13-35-26/h3-11,18,22-26,31H,12-17,28H2,1-2H3,(H,29,32)/t22-,23-,24+,25-,26+/m0/s1

>  <InChIKey>
CJBJHOAVZSMMDJ-HEXNFIEUSA-N

>  <SMILES>
CC(C)C[N@@](C[C@H]([C@H](Cc1ccccc1)NC(=O)O[C@H]2CO[C@@H]3[C@H]2CCO3)O)S(=O)(=O)c4ccc(cc4)N

$$$$
