3SU3_SU3_A_1
  RCSB PDB12061710473D
Coordinates from PDB:3SU3:A:1 Model:1 without hydrogens
 53 58  0  0  0  0            999 V2000
  -13.2190   -8.3130   14.3380   C 0  0  0  0  0  0  0  0  0  0  0  0
  -15.0790   -9.7590   13.7600   N 0  0  0  0  0  0  0  0  0  0  0  0
  -13.3390   -7.5650   13.3610   O 0  0  0  0  0  0  0  0  0  0  0  0
  -13.7070   -9.7720   14.3220   C 0  0  0  0  0  0  0  0  0  0  0  0
  -12.9280  -10.6360   13.3500   C 0  0  0  0  0  0  0  0  0  0  0  0
  -13.9840  -11.6500   12.8710   C 0  0  0  0  0  0  0  0  0  0  0  0
  -16.0620   -9.0130   14.2580   C 0  0  0  0  0  0  0  0  0  0  0  0
  -15.8160   -8.2300   15.1840   O 0  0  0  0  0  0  0  0  0  0  0  0
  -17.4310   -9.0000   13.5910   C 0  0  0  0  0  0  0  0  0  0  0  0
  -18.4000   -9.2590   14.6430   N 0  0  0  0  0  0  0  0  0  0  0  0
  -18.9750  -10.4380   14.7670   C 0  0  0  0  0  0  0  0  0  0  0  0
  -19.8220  -10.5200   15.8160   O 0  0  0  0  0  0  0  0  0  0  0  0
  -17.7390   -7.6800   12.8350   C 0  0  0  0  0  0  0  0  0  0  0  0
  -18.8040  -11.3830   13.9980   O 0  0  0  0  0  0  0  0  0  0  0  0
  -13.5000  -13.6400   14.0880   C 0  0  0  0  0  0  0  0  0  0  0  0
  -12.5560  -13.8710   13.3280   O 0  0  0  0  0  0  0  0  0  0  0  0
  -13.7400  -14.4130   15.1000   N 0  0  0  0  0  0  0  0  0  0  0  0
  -13.5890   -4.2510   15.7440   C 0  0  0  0  0  0  0  0  0  0  0  0
  -14.1100   -4.0390   14.3250   C 0  0  0  0  0  0  0  0  0  0  0  0
  -19.0700   -7.8420   12.0710   C 0  0  0  0  0  0  0  0  0  0  0  0
  -12.5750   -7.9490   15.4400   N 0  0  0  0  0  0  0  0  0  0  0  0
  -12.2610   -6.5640   15.7520   C 0  0  0  0  0  0  0  0  0  0  0  0
  -11.0250   -5.9310   15.1330   C 0  0  0  0  0  0  0  0  0  0  0  0
  -13.5350   -5.7320   16.1000   C 0  0  0  0  0  0  0  0  0  0  0  0
  -12.5770   -6.1350   17.1940   C 0  0  0  0  0  0  0  0  0  0  0  0
  -13.0680  -15.6580   15.4860   C 0  0  0  0  0  0  0  0  0  0  0  0
  -13.7280  -16.0780   16.7650   C 0  0  0  0  0  0  0  0  0  0  0  0
  -14.7170  -15.1550   17.0970   C 0  0  0  0  0  0  0  0  0  0  0  0
  -14.8080  -14.0710   16.0480   C 0  0  0  0  0  0  0  0  0  0  0  0
  -13.4780  -17.1660   17.5880   C 0  0  0  0  0  0  0  0  0  0  0  0
  -14.2250  -17.3170   18.7390   C 0  0  0  0  0  0  0  0  0  0  0  0
  -15.2190  -16.3950   19.0610   C 0  0  0  0  0  0  0  0  0  0  0  0
  -15.4890  -15.2870   18.2460   C 0  0  0  0  0  0  0  0  0  0  0  0
  -16.5500  -14.2330   18.6400   C 0  0  0  0  0  0  0  0  0  0  0  0
  -10.2820   -6.7090   14.3950   N 0  0  0  0  0  0  0  0  0  0  0  0
  -10.7840   -4.7530   15.3860   O 0  0  0  0  0  0  0  0  0  0  0  0
   -9.0150   -6.0210   13.7240   S 0  0  0  0  0  0  0  0  0  0  0  0
   -8.2750   -7.3320   12.7560   C 0  0  0  0  0  0  0  0  0  0  0  0
   -9.4100   -4.9620   12.7680   O 0  0  0  0  0  0  0  0  0  0  0  0
   -8.0200   -5.5670   14.6980   O 0  0  0  0  0  0  0  0  0  0  0  0
   -6.8370   -7.0640   12.2970   C 0  0  0  0  0  0  0  0  0  0  0  0
   -7.1230   -8.0160   13.4560   C 0  0  0  0  0  0  0  0  0  0  0  0
  -17.9710  -14.6730   18.8470   C 0  0  0  0  0  0  0  0  0  0  0  0
  -18.8060  -13.3900   18.9040   C 0  0  0  0  0  0  0  0  0  0  0  0
  -19.0990  -12.8450   17.5000   C 0  0  0  0  0  0  0  0  0  0  0  0
  -20.4820  -12.2120   17.3980   C 0  0  0  0  0  0  0  0  0  0  0  0
  -20.6070  -11.7050   15.9920   C 0  0  0  0  0  0  0  0  0  0  0  0
  -21.5870  -13.2630   17.5820   C 0  0  0  0  0  0  0  0  0  0  0  0
  -20.6460  -11.0700   18.4220   C 0  0  0  0  0  0  0  0  0  0  0  0
  -17.8570   -6.4700   13.7530   C 0  0  0  0  0  0  0  0  0  0  0  0
  -16.6270   -7.4330   11.8020   C 0  0  0  0  0  0  0  0  0  0  0  0
  -15.2130  -10.7720   12.6760   C 0  0  0  0  0  0  0  0  0  0  0  0
  -14.2840  -12.5550   13.9460   O 0  0  0  0  0  0  0  0  0  0  0  0
  1 21  1  0  0  0  0
  2  7  1  0  0  0  0
  2  4  1  0  0  0  0
  3  1  2  0  0  0  0
  4  1  1  0  0  0  0
  5  4  1  0  0  0  0
  6  5  1  0  0  0  0
  6 53  1  0  0  0  0
  7  8  2  0  0  0  0
  9  7  1  0  0  0  0
  9 10  1  0  0  0  0
 10 11  1  0  0  0  0
 11 12  1  0  0  0  0
 12 47  1  0  0  0  0
 13  9  1  0  0  0  0
 13 50  1  0  0  0  0
 14 11  2  0  0  0  0
 15 17  1  0  0  0  0
 16 15  2  0  0  0  0
 17 26  1  0  0  0  0
 17 29  1  0  0  0  0
 18 24  1  0  0  0  0
 19 18  1  0  0  0  0
 20 13  1  0  0  0  0
 21 22  1  0  0  0  0
 22 24  1  0  0  0  0
 22 25  1  0  0  0  0
 23 22  1  0  0  0  0
 23 36  2  0  0  0  0
 24 25  1  0  0  0  0
 26 27  1  0  0  0  0
 27 28  2  0  0  0  0
 27 30  1  0  0  0  0
 28 33  1  0  0  0  0
 29 28  1  0  0  0  0
 30 31  2  0  0  0  0
 31 32  1  0  0  0  0
 33 32  2  0  0  0  0
 33 34  1  0  0  0  0
 34 43  1  0  0  0  0
 35 23  1  0  0  0  0
 37 35  1  0  0  0  0
 37 40  2  0  0  0  0
 38 37  1  0  0  0  0
 38 42  1  0  0  0  0
 39 37  2  0  0  0  0
 41 38  1  0  0  0  0
 41 42  1  0  0  0  0
 43 44  1  0  0  0  0
 45 44  1  0  0  0  0
 46 45  1  0  0  0  0
 46 48  1  0  0  0  0
 46 49  1  0  0  0  0
 47 46  1  0  0  0  0
 51 13  1  0  0  0  0
 52  2  1  0  0  0  0
 52  6  1  0  0  0  0
 53 15  1  0  0  0  0
A    1
C
A    2
N
A    3
O
A    4
CA
A    5
CB
A    6
CG
A    7
CAF
A    8
OAG
A    9
CAH
A   10
NAI
A   11
CAJ
A   12
OAK
A   13
CAL
A   14
OAM
A   15
CAO
A   16
OAP
A   17
NAQ
A   18
CAR
A   19
CAS
A   20
CAT
A   21
NAV
A   22
CAX
A   23
CAY
A   24
CAZ
A   25
CBA
A   26
CBB
A   27
CBC
A   28
CBD
A   29
CBE
A   30
CBF
A   31
CBG
A   32
CBH
A   33
CBI
A   34
CBJ
A   35
NBK
A   36
OBL
A   37
SBM
A   38
CBN
A   39
OBO
A   40
OBP
A   41
CBQ
A   42
CBR
A   43
CBS
A   44
CBT
A   45
CBU
A   46
CBV
A   47
CBW
A   48
CBX
A   49
CBY
A   50
CBZ
A   51
CCA
A   52
CD1
A   53
OD2
M  END
>  <InstanceId>
3SU3_SU3_A_1

>  <ChemCompId>
SU3

>  <PdbId>
3SU3

>  <ChainId>
A

>  <ResidueNumber>
1

>  <InsertionCode>


>  <Model>
1

>  <AltIds>


>  <MissingHeavyAtoms>
0

>  <ObservedFormula>
C38 N5 O9 S

>  <Name>
(5R,7S,10S)-10-tert-butyl-N-{(1R,2R)-1-[(cyclopropylsulfonyl)carbamoyl]-2-ethylcyclopropyl}-15,15-dimethyl-3,9,12-trioxo-6,7,9,10,11,12,14,15,16,17,18,19-dodecahydro-1H,5H-2,23:5,8-dimethano-4,13,2,8,11-benzodioxatriazacyclohenicosine-7(3H)-carboxamide

>  <SystematicName>


>  <Synonyms>
vaniprevir, MK-7009

>  <Type>
NON-POLYMER

>  <Formula>
C38 H55 N5 O9 S

>  <MolecularWeight>
757.936

>  <ModifiedDate>
2012-08-31

>  <Parent>


>  <OneLetterCode>


>  <SubcomponentList>


>  <AmbiguousFlag>
N

>  <InChI>
InChI=1S/C38H55N5O9S/c1-7-25-18-38(25,33(46)41-53(49,50)27-14-15-27)40-31(44)29-17-26-20-43(29)32(45)30(36(2,3)4)39-34(47)51-22-37(5,6)16-9-8-11-23-12-10-13-24-19-42(21-28(23)24)35(48)52-26/h10,12-13,25-27,29-30H,7-9,11,14-22H2,1-6H3,(H,39,47)(H,40,44)(H,41,46)/t25-,26-,29+,30-,38-/m1/s1

>  <InChIKey>
KUQWGLQLLVFLSM-ONAXAZCASA-N

>  <SMILES>
CC[C@@H]1C[C@@]1(C(=O)NS(=O)(=O)C2CC2)NC(=O)[C@@H]3C[C@@H]4CN3C(=O)[C@@H](NC(=O)OCC(CCCCc5cccc6c5CN(C6)C(=O)O4)(C)C)C(C)(C)C

$$$$
