5E89_TD2_A_302


 51 56  0  0  0  0  0  0  0  0999 V2000
   15.5642   -8.6161   -3.5857 S   0  0  0  0  0  0  0  0  0  0  0  0
   16.0056   -8.1900   -1.9607 C   0  0  0  0  0  0  0  0  0  0  0  0
   16.0285   -9.4791   -1.1844 C   0  0  0  0  0  0  0  0  0  0  0  0
   16.5211   -9.2016    0.2088 C   0  0  0  0  0  0  0  0  0  0  0  0
   17.8476   -8.4584    0.1242 C   0  0  0  0  0  0  0  0  0  0  0  0
   17.6917   -7.1985   -0.7014 C   0  0  0  0  0  0  0  0  0  0  0  0
   17.2663   -7.5776   -1.9953 O   0  0  0  0  0  0  0  0  0  0  0  0
   18.8442   -9.3019   -0.4458 O   0  0  0  0  0  0  0  0  0  0  0  0
   14.7060  -10.0026   -1.0993 O   0  0  0  0  0  0  0  0  0  0  0  0
   18.5772   -9.5575   -1.3426 H   0  0  0  0  0  0  0  0  0  0  0  0
   14.1320   -9.3599   -0.6539 H   0  0  0  0  0  0  0  0  0  0  0  0
   16.9425  -12.6470    1.2249 N   0  0  0  0  0  0  0  0  0  0  0  0
   16.6882  -10.4318    0.9929 N   0  0  0  0  0  0  0  0  0  0  0  0
   16.8227  -11.6240    0.2791 N   0  0  0  0  0  0  0  0  0  0  0  0
   16.8752  -12.0290    2.4183 C   0  0  0  0  0  0  0  0  0  0  0  0
   16.7259  -10.6674    2.2752 C   0  0  0  0  0  0  0  0  0  0  0  0
   16.9812  -12.8819    3.6413 C   0  0  0  0  0  0  0  0  0  0  0  0
   15.8488  -13.2258    4.3716 C   0  0  0  0  0  0  0  0  0  0  0  0
   15.9672  -14.0210    5.5031 C   0  0  0  0  0  0  0  0  0  0  0  0
   17.2177  -14.4828    5.8999 C   0  0  0  0  0  0  0  0  0  0  0  0
   18.3256  -14.1559    5.1677 C   0  0  0  0  0  0  0  0  0  0  0  0
   18.2322  -13.3369    4.0560 C   0  0  0  0  0  0  0  0  0  0  0  0
   19.5103  -14.6207    5.6020 F   0  0  0  0  0  0  0  0  0  0  0  0
   19.0013   -6.4413   -0.8017 C   0  0  0  0  0  0  0  0  0  0  0  0
   19.5092   -6.2881    0.5046 O   0  0  0  0  0  0  0  0  0  0  0  0
   19.6427   -7.1619    0.9042 H   0  0  0  0  0  0  0  0  0  0  0  0
   14.1078   -7.6724   -3.7439 C   0  0  0  0  0  0  0  0  0  0  0  0
   14.4108   -6.3313   -3.3542 O   0  0  0  0  0  0  0  0  0  0  0  0
   13.2987   -5.4783   -3.4509 C   0  0  0  0  0  0  0  0  0  0  0  0
   12.1620   -5.9226   -2.5601 C   0  0  0  0  0  0  0  0  0  0  0  0
   12.4473   -5.7410   -1.1708 O   0  0  0  0  0  0  0  0  0  0  0  0
   11.8605   -7.3662   -2.8653 C   0  0  0  0  0  0  0  0  0  0  0  0
   13.0953   -8.2368   -2.7768 C   0  0  0  0  0  0  0  0  0  0  0  0
   12.7527   -9.5823   -3.1080 O   0  0  0  0  0  0  0  0  0  0  0  0
   13.2191   -6.2754   -0.9267 H   0  0  0  0  0  0  0  0  0  0  0  0
   12.3777   -9.6098   -4.0021 H   0  0  0  0  0  0  0  0  0  0  0  0
   10.7860   -7.8349   -1.9984 N   0  0  0  0  0  0  0  0  0  0  0  0
   10.4880   -8.9062   -1.3080 C   0  0  0  0  0  0  0  0  0  0  0  0
    9.2645   -8.6465   -0.7068 C   0  0  0  0  0  0  0  0  0  0  0  0
    8.8289   -7.4392   -1.0779 N   0  0  0  0  0  0  0  0  0  0  0  0
    9.7909   -6.8911   -1.8940 N   0  0  0  0  0  0  0  0  0  0  0  0
    8.4885   -9.6099    0.1085 C   0  0  0  0  0  0  0  0  0  0  0  0
    9.1228  -10.1217    1.2185 C   0  0  0  0  0  0  0  0  0  0  0  0
    8.5123  -11.0748    2.0080 C   0  0  0  0  0  0  0  0  0  0  0  0
    7.2599  -11.5449    1.6568 C   0  0  0  0  0  0  0  0  0  0  0  0
    6.6349  -11.0721    0.5058 C   0  0  0  0  0  0  0  0  0  0  0  0
    7.2551  -10.1142   -0.2908 C   0  0  0  0  0  0  0  0  0  0  0  0
    9.2403  -11.4223    3.1033 F   0  0  0  0  0  0  0  0  0  0  0  0
   13.7002   -4.0502   -3.0799 C   0  0  0  0  0  0  0  0  0  0  0  0
   12.4948   -3.3069   -2.9796 O   0  0  0  0  0  0  0  0  0  0  0  0
   11.9213   -3.7099   -2.3091 H   0  0  0  0  0  0  0  0  0  0  0  0
 50 49  1  0  0  0
 49 29  1  0  0  0
 29 28  1  0  0  0
 29 30  1  0  0  0
 28 27  1  0  0  0
 25 24  1  0  0  0
  6 24  1  0  0  0
  6  7  1  0  0  0
  6  5  1  0  0  0
 30 31  1  0  0  0
 30 32  1  0  0  0
  7  2  1  0  0  0
  5  4  1  0  0  0
  5  8  1  0  0  0
  2  3  1  0  0  0
  2  1  1  0  0  0
  4  3  1  0  0  0
  4 13  1  0  0  0
 14 13  1  0  0  0
 14 12  2  0  0  0
 27  1  1  0  0  0
 27 33  1  0  0  0
  9  3  1  0  0  0
 32 33  1  0  0  0
 32 37  1  0  0  0
 13 16  1  0  0  0
 12 15  1  0  0  0
 33 34  1  0  0  0
 41 37  1  0  0  0
 41 40  2  0  0  0
 37 38  1  0  0  0
 16 15  2  0  0  0
 40 39  1  0  0  0
 15 17  1  0  0  0
 38 39  2  0  0  0
 39 42  1  0  0  0
 18 17  2  0  0  0
 18 19  1  0  0  0
 17 22  1  0  0  0
 19 20  2  0  0  0
 42 43  2  0  0  0
 42 47  1  0  0  0
 22 21  2  0  0  0
 43 44  1  0  0  0
 47 46  2  0  0  0
 20 21  1  0  0  0
 21 23  1  0  0  0
 44 48  1  0  0  0
 44 45  2  0  0  0
 46 45  1  0  0  0
 25 26  1  0  0  0
 50 51  1  0  0  0
  8 10  1  0  0  0
 31 35  1  0  0  0
 34 36  1  0  0  0
  9 11  1  0  0  0
M  END
> <minimizedAffinity>
-8.28196

$$$$
5E89_TD2_A_302


 51 56  0  0  0  0  0  0  0  0999 V2000
   11.0622   -9.0676    0.1993 S   0  0  0  0  0  0  0  0  0  0  0  0
   12.1478   -8.9885   -1.1543 C   0  0  0  0  0  0  0  0  0  0  0  0
   13.4638   -8.5083   -0.6044 C   0  0  0  0  0  0  0  0  0  0  0  0
   14.4896   -8.5297   -1.7036 C   0  0  0  0  0  0  0  0  0  0  0  0
   14.5047   -9.9143   -2.3372 C   0  0  0  0  0  0  0  0  0  0  0  0
   13.1194  -10.2838   -2.8246 C   0  0  0  0  0  0  0  0  0  0  0  0
   12.2498  -10.2716   -1.7099 O   0  0  0  0  0  0  0  0  0  0  0  0
   14.9698  -10.8770   -1.3957 O   0  0  0  0  0  0  0  0  0  0  0  0
   13.3225   -7.1668   -0.1454 O   0  0  0  0  0  0  0  0  0  0  0  0
   14.3736  -10.8954   -0.6307 H   0  0  0  0  0  0  0  0  0  0  0  0
   13.0471   -6.6001   -0.8829 H   0  0  0  0  0  0  0  0  0  0  0  0
   17.4248   -8.0613    0.3571 N   0  0  0  0  0  0  0  0  0  0  0  0
   15.8321   -8.1902   -1.2154 N   0  0  0  0  0  0  0  0  0  0  0  0
   16.1157   -8.4911    0.1180 N   0  0  0  0  0  0  0  0  0  0  0  0
   17.8409   -7.5419   -0.8124 C   0  0  0  0  0  0  0  0  0  0  0  0
   16.8645   -7.6276   -1.7800 C   0  0  0  0  0  0  0  0  0  0  0  0
   19.2315   -6.9962   -0.8664 C   0  0  0  0  0  0  0  0  0  0  0  0
   19.5801   -5.8590   -0.1457 C   0  0  0  0  0  0  0  0  0  0  0  0
   20.8772   -5.3688   -0.2065 C   0  0  0  0  0  0  0  0  0  0  0  0
   21.8311   -6.0219   -0.9798 C   0  0  0  0  0  0  0  0  0  0  0  0
   21.4869   -7.1499   -1.6723 C   0  0  0  0  0  0  0  0  0  0  0  0
   20.1909   -7.6348   -1.6510 C   0  0  0  0  0  0  0  0  0  0  0  0
   22.4454   -7.7353   -2.4119 F   0  0  0  0  0  0  0  0  0  0  0  0
   13.1087  -11.6609   -3.4587 C   0  0  0  0  0  0  0  0  0  0  0  0
   13.0695  -12.6117   -2.4183 O   0  0  0  0  0  0  0  0  0  0  0  0
   12.2745  -12.4703   -1.8809 H   0  0  0  0  0  0  0  0  0  0  0  0
    9.6642   -8.3060   -0.5096 C   0  0  0  0  0  0  0  0  0  0  0  0
    9.0482   -9.2515   -1.3864 O   0  0  0  0  0  0  0  0  0  0  0  0
    7.8990   -8.7378   -2.0103 C   0  0  0  0  0  0  0  0  0  0  0  0
    8.2059   -7.5249   -2.8575 C   0  0  0  0  0  0  0  0  0  0  0  0
    8.9567   -7.8479   -4.0307 O   0  0  0  0  0  0  0  0  0  0  0  0
    8.9421   -6.5271   -2.0029 C   0  0  0  0  0  0  0  0  0  0  0  0
   10.1529   -7.1369   -1.3303 C   0  0  0  0  0  0  0  0  0  0  0  0
   10.7868   -6.1546   -0.5114 O   0  0  0  0  0  0  0  0  0  0  0  0
    9.8094   -8.2321   -3.7733 H   0  0  0  0  0  0  0  0  0  0  0  0
   10.1559   -5.8286    0.1494 H   0  0  0  0  0  0  0  0  0  0  0  0
    9.2806   -5.3551   -2.8015 N   0  0  0  0  0  0  0  0  0  0  0  0
    9.5270   -5.0677   -4.0544 C   0  0  0  0  0  0  0  0  0  0  0  0
    9.7879   -3.7052   -4.0908 C   0  0  0  0  0  0  0  0  0  0  0  0
    9.7331   -3.2042   -2.8534 N   0  0  0  0  0  0  0  0  0  0  0  0
    9.3957   -4.2365   -2.0095 N   0  0  0  0  0  0  0  0  0  0  0  0
   10.2027   -2.9437   -5.2921 C   0  0  0  0  0  0  0  0  0  0  0  0
    9.1969   -2.5634   -6.1524 C   0  0  0  0  0  0  0  0  0  0  0  0
    9.4829   -1.9073   -7.3322 C   0  0  0  0  0  0  0  0  0  0  0  0
   10.8016   -1.6607   -7.6683 C   0  0  0  0  0  0  0  0  0  0  0  0
   11.8271   -2.0903   -6.8299 C   0  0  0  0  0  0  0  0  0  0  0  0
   11.5356   -2.7557   -5.6428 C   0  0  0  0  0  0  0  0  0  0  0  0
    8.3764   -1.5381   -8.0321 F   0  0  0  0  0  0  0  0  0  0  0  0
    7.2534   -9.8128   -2.8856 C   0  0  0  0  0  0  0  0  0  0  0  0
    8.3060  -10.6570   -3.3273 O   0  0  0  0  0  0  0  0  0  0  0  0
    8.7598  -11.0370   -2.5589 H   0  0  0  0  0  0  0  0  0  0  0  0
 50 49  1  0  0  0
 49 29  1  0  0  0
 29 28  1  0  0  0
 29 30  1  0  0  0
 28 27  1  0  0  0
 25 24  1  0  0  0
  6 24  1  0  0  0
  6  7  1  0  0  0
  6  5  1  0  0  0
 30 31  1  0  0  0
 30 32  1  0  0  0
  7  2  1  0  0  0
  5  4  1  0  0  0
  5  8  1  0  0  0
  2  3  1  0  0  0
  2  1  1  0  0  0
  4  3  1  0  0  0
  4 13  1  0  0  0
 14 13  1  0  0  0
 14 12  2  0  0  0
 27  1  1  0  0  0
 27 33  1  0  0  0
  9  3  1  0  0  0
 32 33  1  0  0  0
 32 37  1  0  0  0
 13 16  1  0  0  0
 12 15  1  0  0  0
 33 34  1  0  0  0
 41 37  1  0  0  0
 41 40  2  0  0  0
 37 38  1  0  0  0
 16 15  2  0  0  0
 40 39  1  0  0  0
 15 17  1  0  0  0
 38 39  2  0  0  0
 39 42  1  0  0  0
 18 17  2  0  0  0
 18 19  1  0  0  0
 17 22  1  0  0  0
 19 20  2  0  0  0
 42 43  2  0  0  0
 42 47  1  0  0  0
 22 21  2  0  0  0
 43 44  1  0  0  0
 47 46  2  0  0  0
 20 21  1  0  0  0
 21 23  1  0  0  0
 44 48  1  0  0  0
 44 45  2  0  0  0
 46 45  1  0  0  0
 25 26  1  0  0  0
 50 51  1  0  0  0
  8 10  1  0  0  0
 31 35  1  0  0  0
 34 36  1  0  0  0
  9 11  1  0  0  0
M  END
> <minimizedAffinity>
-8.26343

$$$$
5E89_TD2_A_302


 51 56  0  0  0  0  0  0  0  0999 V2000
   15.6185   -8.6130   -3.6799 S   0  0  0  0  0  0  0  0  0  0  0  0
   14.1688   -7.6762   -3.8743 C   0  0  0  0  0  0  0  0  0  0  0  0
   13.1311   -8.3301   -3.0021 C   0  0  0  0  0  0  0  0  0  0  0  0
   11.8779   -7.4996   -3.0278 C   0  0  0  0  0  0  0  0  0  0  0  0
   12.2310   -6.0624   -2.6692 C   0  0  0  0  0  0  0  0  0  0  0  0
   13.2994   -5.5355   -3.6040 C   0  0  0  0  0  0  0  0  0  0  0  0
   14.4390   -6.3614   -3.4699 O   0  0  0  0  0  0  0  0  0  0  0  0
   12.6786   -5.9922   -1.3185 O   0  0  0  0  0  0  0  0  0  0  0  0
   12.8264   -9.6225   -3.5189 O   0  0  0  0  0  0  0  0  0  0  0  0
   13.4722   -6.5396   -1.2120 H   0  0  0  0  0  0  0  0  0  0  0  0
   12.4895   -9.5375   -4.4245 H   0  0  0  0  0  0  0  0  0  0  0  0
    9.1578   -7.7717   -0.6596 N   0  0  0  0  0  0  0  0  0  0  0  0
   10.8572   -8.0079   -2.1026 N   0  0  0  0  0  0  0  0  0  0  0  0
   10.0185   -7.0650   -1.5054 N   0  0  0  0  0  0  0  0  0  0  0  0
    9.5180   -9.0614   -0.7932 C   0  0  0  0  0  0  0  0  0  0  0  0
   10.5574   -9.2065   -1.6850 C   0  0  0  0  0  0  0  0  0  0  0  0
    8.7574  -10.0735    0.0015 C   0  0  0  0  0  0  0  0  0  0  0  0
    7.6380  -10.7040   -0.5310 C   0  0  0  0  0  0  0  0  0  0  0  0
    6.9463  -11.6431    0.2215 C   0  0  0  0  0  0  0  0  0  0  0  0
    7.3798  -11.9614    1.5042 C   0  0  0  0  0  0  0  0  0  0  0  0
    8.4916  -11.3510    2.0158 C   0  0  0  0  0  0  0  0  0  0  0  0
    9.1749  -10.3880    1.2941 C   0  0  0  0  0  0  0  0  0  0  0  0
    8.8602  -11.6885    3.2641 F   0  0  0  0  0  0  0  0  0  0  0  0
   13.6695   -4.1048   -3.2652 C   0  0  0  0  0  0  0  0  0  0  0  0
   12.4804   -3.4190   -2.9432 O   0  0  0  0  0  0  0  0  0  0  0  0
   12.0499   -3.8541   -2.1907 H   0  0  0  0  0  0  0  0  0  0  0  0
   15.9888   -8.2269   -2.0213 C   0  0  0  0  0  0  0  0  0  0  0  0
   17.2660   -7.5864   -1.9957 O   0  0  0  0  0  0  0  0  0  0  0  0
   17.6608   -7.2246   -0.6968 C   0  0  0  0  0  0  0  0  0  0  0  0
   17.7791   -8.4228    0.2161 C   0  0  0  0  0  0  0  0  0  0  0  0
   18.8887   -9.2613   -0.1162 O   0  0  0  0  0  0  0  0  0  0  0  0
   16.4850   -9.1906    0.1561 C   0  0  0  0  0  0  0  0  0  0  0  0
   16.0892   -9.5295   -1.2648 C   0  0  0  0  0  0  0  0  0  0  0  0
   14.8427  -10.2250   -1.2579 O   0  0  0  0  0  0  0  0  0  0  0  0
   18.7758   -9.6054   -1.0161 H   0  0  0  0  0  0  0  0  0  0  0  0
   14.1663   -9.6720   -0.8366 H   0  0  0  0  0  0  0  0  0  0  0  0
   16.5782  -10.3727    1.0046 N   0  0  0  0  0  0  0  0  0  0  0  0
   16.4474  -10.6760    2.2711 C   0  0  0  0  0  0  0  0  0  0  0  0
   16.6906  -12.0389    2.3658 C   0  0  0  0  0  0  0  0  0  0  0  0
   17.0025  -12.5243    1.1608 N   0  0  0  0  0  0  0  0  0  0  0  0
   16.9241  -11.4813    0.2676 N   0  0  0  0  0  0  0  0  0  0  0  0
   16.7374  -12.8156    3.6266 C   0  0  0  0  0  0  0  0  0  0  0  0
   17.9843  -13.0132    4.1770 C   0  0  0  0  0  0  0  0  0  0  0  0
   18.1444  -13.7778    5.3145 C   0  0  0  0  0  0  0  0  0  0  0  0
   17.0393  -14.3807    5.8871 C   0  0  0  0  0  0  0  0  0  0  0  0
   15.7830  -14.2304    5.3057 C   0  0  0  0  0  0  0  0  0  0  0  0
   15.6254  -13.4623    4.1558 C   0  0  0  0  0  0  0  0  0  0  0  0
   19.4258  -13.8150    5.7697 F   0  0  0  0  0  0  0  0  0  0  0  0
   19.0023   -6.4921   -0.7422 C   0  0  0  0  0  0  0  0  0  0  0  0
   19.4170   -6.3289    0.6058 O   0  0  0  0  0  0  0  0  0  0  0  0
   19.4910   -7.1987    1.0288 H   0  0  0  0  0  0  0  0  0  0  0  0
 50 49  1  0  0  0
 49 29  1  0  0  0
 29 28  1  0  0  0
 29 30  1  0  0  0
 28 27  1  0  0  0
 25 24  1  0  0  0
  6 24  1  0  0  0
  6  7  1  0  0  0
  6  5  1  0  0  0
 30 31  1  0  0  0
 30 32  1  0  0  0
  7  2  1  0  0  0
  5  4  1  0  0  0
  5  8  1  0  0  0
  2  3  1  0  0  0
  2  1  1  0  0  0
  4  3  1  0  0  0
  4 13  1  0  0  0
 14 13  1  0  0  0
 14 12  2  0  0  0
 27  1  1  0  0  0
 27 33  1  0  0  0
  9  3  1  0  0  0
 32 33  1  0  0  0
 32 37  1  0  0  0
 13 16  1  0  0  0
 12 15  1  0  0  0
 33 34  1  0  0  0
 41 37  1  0  0  0
 41 40  2  0  0  0
 37 38  1  0  0  0
 16 15  2  0  0  0
 40 39  1  0  0  0
 15 17  1  0  0  0
 38 39  2  0  0  0
 39 42  1  0  0  0
 18 17  2  0  0  0
 18 19  1  0  0  0
 17 22  1  0  0  0
 19 20  2  0  0  0
 42 43  2  0  0  0
 42 47  1  0  0  0
 22 21  2  0  0  0
 43 44  1  0  0  0
 47 46  2  0  0  0
 20 21  1  0  0  0
 21 23  1  0  0  0
 44 48  1  0  0  0
 44 45  2  0  0  0
 46 45  1  0  0  0
 25 26  1  0  0  0
 50 51  1  0  0  0
  8 10  1  0  0  0
 31 35  1  0  0  0
 34 36  1  0  0  0
  9 11  1  0  0  0
M  END
> <minimizedAffinity>
-8.17680

$$$$
5E89_TD2_A_302


 51 56  0  0  0  0  0  0  0  0999 V2000
   17.1704   -8.9014    0.0302 S   0  0  0  0  0  0  0  0  0  0  0  0
   18.5067   -9.6524   -0.7868 C   0  0  0  0  0  0  0  0  0  0  0  0
   19.4972   -8.5531   -1.0613 C   0  0  0  0  0  0  0  0  0  0  0  0
   20.7379   -9.1526   -1.6631 C   0  0  0  0  0  0  0  0  0  0  0  0
   21.2312  -10.2752   -0.7602 C   0  0  0  0  0  0  0  0  0  0  0  0
   20.1343  -11.2970   -0.5460 C   0  0  0  0  0  0  0  0  0  0  0  0
   19.0387  -10.6374    0.0571 O   0  0  0  0  0  0  0  0  0  0  0  0
   21.6613   -9.7434    0.4895 O   0  0  0  0  0  0  0  0  0  0  0  0
   18.9382   -7.6373   -1.9989 O   0  0  0  0  0  0  0  0  0  0  0  0
   20.9163   -9.3020    0.9267 H   0  0  0  0  0  0  0  0  0  0  0  0
   18.7288   -8.1052   -2.8224 H   0  0  0  0  0  0  0  0  0  0  0  0
   22.6782   -6.1004   -1.6815 N   0  0  0  0  0  0  0  0  0  0  0  0
   21.8014   -8.1570   -1.8469 N   0  0  0  0  0  0  0  0  0  0  0  0
   21.5486   -6.8668   -1.3776 N   0  0  0  0  0  0  0  0  0  0  0  0
   23.5207   -6.9493   -2.2980 C   0  0  0  0  0  0  0  0  0  0  0  0
   22.9843   -8.2143   -2.3932 C   0  0  0  0  0  0  0  0  0  0  0  0
   24.8400   -6.4061   -2.7438 C   0  0  0  0  0  0  0  0  0  0  0  0
   25.8734   -6.2066   -1.8348 C   0  0  0  0  0  0  0  0  0  0  0  0
   27.0922   -5.7036   -2.2684 C   0  0  0  0  0  0  0  0  0  0  0  0
   27.2832   -5.4096   -3.6144 C   0  0  0  0  0  0  0  0  0  0  0  0
   26.2690   -5.6244   -4.5065 C   0  0  0  0  0  0  0  0  0  0  0  0
   25.0360   -6.0935   -4.0884 C   0  0  0  0  0  0  0  0  0  0  0  0
   26.5044   -5.3133   -5.7933 F   0  0  0  0  0  0  0  0  0  0  0  0
   20.6016  -12.4252    0.3525 C   0  0  0  0  0  0  0  0  0  0  0  0
   20.0387  -12.2183    1.6286 O   0  0  0  0  0  0  0  0  0  0  0  0
   19.0714  -12.2085    1.5576 H   0  0  0  0  0  0  0  0  0  0  0  0
   15.9069   -9.2314   -1.1237 C   0  0  0  0  0  0  0  0  0  0  0  0
   16.4206   -8.9508   -2.4273 O   0  0  0  0  0  0  0  0  0  0  0  0
   15.4776   -9.1911   -3.4407 C   0  0  0  0  0  0  0  0  0  0  0  0
   14.2450   -8.3310   -3.2862 C   0  0  0  0  0  0  0  0  0  0  0  0
   14.4991   -6.9502   -3.5573 O   0  0  0  0  0  0  0  0  0  0  0  0
   13.7116   -8.5181   -1.8904 C   0  0  0  0  0  0  0  0  0  0  0  0
   14.7725   -8.2770   -0.8383 C   0  0  0  0  0  0  0  0  0  0  0  0
   14.2167   -8.5014    0.4571 O   0  0  0  0  0  0  0  0  0  0  0  0
   15.1560   -6.6128   -2.9285 H   0  0  0  0  0  0  0  0  0  0  0  0
   13.8803   -9.4095    0.5118 H   0  0  0  0  0  0  0  0  0  0  0  0
   12.5369   -7.6758   -1.6991 N   0  0  0  0  0  0  0  0  0  0  0  0
   11.2683   -7.6849   -2.0211 C   0  0  0  0  0  0  0  0  0  0  0  0
   10.7303   -6.5205   -1.4915 C   0  0  0  0  0  0  0  0  0  0  0  0
   11.6928   -5.8119   -0.8944 N   0  0  0  0  0  0  0  0  0  0  0  0
   12.8577   -6.5356   -0.9998 N   0  0  0  0  0  0  0  0  0  0  0  0
    9.3346   -6.0594   -1.6774 C   0  0  0  0  0  0  0  0  0  0  0  0
    9.1256   -4.7000   -1.6086 C   0  0  0  0  0  0  0  0  0  0  0  0
    7.8541   -4.1721   -1.7034 C   0  0  0  0  0  0  0  0  0  0  0  0
    6.7738   -5.0257   -1.8348 C   0  0  0  0  0  0  0  0  0  0  0  0
    6.9717   -6.4039   -1.8506 C   0  0  0  0  0  0  0  0  0  0  0  0
    8.2549   -6.9334   -1.7502 C   0  0  0  0  0  0  0  0  0  0  0  0
    7.8266   -2.8121   -1.6896 F   0  0  0  0  0  0  0  0  0  0  0  0
   16.1041   -8.9314   -4.8113 C   0  0  0  0  0  0  0  0  0  0  0  0
   17.1399   -7.9823   -4.6064 O   0  0  0  0  0  0  0  0  0  0  0  0
   17.7832   -8.3374   -3.9732 H   0  0  0  0  0  0  0  0  0  0  0  0
 50 49  1  0  0  0
 49 29  1  0  0  0
 29 28  1  0  0  0
 29 30  1  0  0  0
 28 27  1  0  0  0
 25 24  1  0  0  0
  6 24  1  0  0  0
  6  7  1  0  0  0
  6  5  1  0  0  0
 30 31  1  0  0  0
 30 32  1  0  0  0
  7  2  1  0  0  0
  5  4  1  0  0  0
  5  8  1  0  0  0
  2  3  1  0  0  0
  2  1  1  0  0  0
  4  3  1  0  0  0
  4 13  1  0  0  0
 14 13  1  0  0  0
 14 12  2  0  0  0
 27  1  1  0  0  0
 27 33  1  0  0  0
  9  3  1  0  0  0
 32 33  1  0  0  0
 32 37  1  0  0  0
 13 16  1  0  0  0
 12 15  1  0  0  0
 33 34  1  0  0  0
 41 37  1  0  0  0
 41 40  2  0  0  0
 37 38  1  0  0  0
 16 15  2  0  0  0
 40 39  1  0  0  0
 15 17  1  0  0  0
 38 39  2  0  0  0
 39 42  1  0  0  0
 18 17  2  0  0  0
 18 19  1  0  0  0
 17 22  1  0  0  0
 19 20  2  0  0  0
 42 43  2  0  0  0
 42 47  1  0  0  0
 22 21  2  0  0  0
 43 44  1  0  0  0
 47 46  2  0  0  0
 20 21  1  0  0  0
 21 23  1  0  0  0
 44 48  1  0  0  0
 44 45  2  0  0  0
 46 45  1  0  0  0
 25 26  1  0  0  0
 50 51  1  0  0  0
  8 10  1  0  0  0
 31 35  1  0  0  0
 34 36  1  0  0  0
  9 11  1  0  0  0
M  END
> <minimizedAffinity>
-7.95453

$$$$
5E89_TD2_A_302


 51 56  0  0  0  0  0  0  0  0999 V2000
   20.8164  -10.3828   -1.5289 S   0  0  0  0  0  0  0  0  0  0  0  0
   22.3157   -9.5100   -1.6150 C   0  0  0  0  0  0  0  0  0  0  0  0
   23.1065   -9.9213   -0.4024 C   0  0  0  0  0  0  0  0  0  0  0  0
   24.4709   -9.2934   -0.4730 C   0  0  0  0  0  0  0  0  0  0  0  0
   25.1006   -9.6317   -1.8176 C   0  0  0  0  0  0  0  0  0  0  0  0
   24.1952   -9.1886   -2.9476 C   0  0  0  0  0  0  0  0  0  0  0  0
   22.9623   -9.8662   -2.8068 O   0  0  0  0  0  0  0  0  0  0  0  0
   25.3469  -11.0323   -1.9027 O   0  0  0  0  0  0  0  0  0  0  0  0
   22.4519   -9.4473    0.7712 O   0  0  0  0  0  0  0  0  0  0  0  0
   24.5081  -11.5134   -1.8262 H   0  0  0  0  0  0  0  0  0  0  0  0
   22.3834   -8.4804    0.7349 H   0  0  0  0  0  0  0  0  0  0  0  0
   25.8409  -11.0031    2.4047 N   0  0  0  0  0  0  0  0  0  0  0  0
   25.3463   -9.7462    0.6154 N   0  0  0  0  0  0  0  0  0  0  0  0
   24.8568  -10.7596    1.4415 N   0  0  0  0  0  0  0  0  0  0  0  0
   26.8367  -10.1471    2.1107 C   0  0  0  0  0  0  0  0  0  0  0  0
   26.5352   -9.3800    1.0073 C   0  0  0  0  0  0  0  0  0  0  0  0
   28.0508  -10.1794    2.9821 C   0  0  0  0  0  0  0  0  0  0  0  0
   28.6639  -11.3847    3.3071 C   0  0  0  0  0  0  0  0  0  0  0  0
   29.7921  -11.3940    4.1156 C   0  0  0  0  0  0  0  0  0  0  0  0
   30.3157  -10.1966    4.5915 C   0  0  0  0  0  0  0  0  0  0  0  0
   29.7189   -9.0132    4.2540 C   0  0  0  0  0  0  0  0  0  0  0  0
   28.5741   -8.9855    3.4768 C   0  0  0  0  0  0  0  0  0  0  0  0
   30.2604   -7.8867    4.7499 F   0  0  0  0  0  0  0  0  0  0  0  0
   24.8007   -9.5168   -4.2983 C   0  0  0  0  0  0  0  0  0  0  0  0
   24.3477  -10.7989   -4.6712 O   0  0  0  0  0  0  0  0  0  0  0  0
   23.3787  -10.7992   -4.7153 H   0  0  0  0  0  0  0  0  0  0  0  0
   19.7013   -9.0469   -1.6234 C   0  0  0  0  0  0  0  0  0  0  0  0
   20.2910   -7.9359   -0.9452 O   0  0  0  0  0  0  0  0  0  0  0  0
   19.4712   -6.7951   -0.9672 C   0  0  0  0  0  0  0  0  0  0  0  0
   18.1421   -7.0367   -0.2903 C   0  0  0  0  0  0  0  0  0  0  0  0
   18.2639   -7.1821    1.1270 O   0  0  0  0  0  0  0  0  0  0  0  0
   17.5146   -8.2591   -0.9067 C   0  0  0  0  0  0  0  0  0  0  0  0
   18.4477   -9.4505   -0.8853 C   0  0  0  0  0  0  0  0  0  0  0  0
   17.8108  -10.5642   -1.5108 O   0  0  0  0  0  0  0  0  0  0  0  0
   18.8228   -7.9494    1.3264 H   0  0  0  0  0  0  0  0  0  0  0  0
   17.5737  -10.3311   -2.4221 H   0  0  0  0  0  0  0  0  0  0  0  0
   16.2417   -8.5376   -0.2525 N   0  0  0  0  0  0  0  0  0  0  0  0
   14.9739   -8.2664   -0.4319 C   0  0  0  0  0  0  0  0  0  0  0  0
   14.2999   -8.8727    0.6187 C   0  0  0  0  0  0  0  0  0  0  0  0
   15.1779   -9.4645    1.4337 N   0  0  0  0  0  0  0  0  0  0  0  0
   16.4282   -9.2778    0.8918 N   0  0  0  0  0  0  0  0  0  0  0  0
   12.8455   -8.7652    0.8799 C   0  0  0  0  0  0  0  0  0  0  0  0
   12.4614   -8.7490    2.2023 C   0  0  0  0  0  0  0  0  0  0  0  0
   11.1271   -8.7172    2.5531 C   0  0  0  0  0  0  0  0  0  0  0  0
   10.1646   -8.7365    1.5602 C   0  0  0  0  0  0  0  0  0  0  0  0
   10.5439   -8.8077    0.2222 C   0  0  0  0  0  0  0  0  0  0  0  0
   11.8903   -8.8442   -0.1282 C   0  0  0  0  0  0  0  0  0  0  0  0
   10.9186   -8.6319    3.8946 F   0  0  0  0  0  0  0  0  0  0  0  0
   20.1807   -5.6272   -0.2808 C   0  0  0  0  0  0  0  0  0  0  0  0
   21.5286   -5.6584   -0.7253 O   0  0  0  0  0  0  0  0  0  0  0  0
   21.5522   -5.5816   -1.6920 H   0  0  0  0  0  0  0  0  0  0  0  0
 50 49  1  0  0  0
 49 29  1  0  0  0
 29 28  1  0  0  0
 29 30  1  0  0  0
 28 27  1  0  0  0
 25 24  1  0  0  0
  6 24  1  0  0  0
  6  7  1  0  0  0
  6  5  1  0  0  0
 30 31  1  0  0  0
 30 32  1  0  0  0
  7  2  1  0  0  0
  5  4  1  0  0  0
  5  8  1  0  0  0
  2  3  1  0  0  0
  2  1  1  0  0  0
  4  3  1  0  0  0
  4 13  1  0  0  0
 14 13  1  0  0  0
 14 12  2  0  0  0
 27  1  1  0  0  0
 27 33  1  0  0  0
  9  3  1  0  0  0
 32 33  1  0  0  0
 32 37  1  0  0  0
 13 16  1  0  0  0
 12 15  1  0  0  0
 33 34  1  0  0  0
 41 37  1  0  0  0
 41 40  2  0  0  0
 37 38  1  0  0  0
 16 15  2  0  0  0
 40 39  1  0  0  0
 15 17  1  0  0  0
 38 39  2  0  0  0
 39 42  1  0  0  0
 18 17  2  0  0  0
 18 19  1  0  0  0
 17 22  1  0  0  0
 19 20  2  0  0  0
 42 43  2  0  0  0
 42 47  1  0  0  0
 22 21  2  0  0  0
 43 44  1  0  0  0
 47 46  2  0  0  0
 20 21  1  0  0  0
 21 23  1  0  0  0
 44 48  1  0  0  0
 44 45  2  0  0  0
 46 45  1  0  0  0
 25 26  1  0  0  0
 50 51  1  0  0  0
  8 10  1  0  0  0
 31 35  1  0  0  0
 34 36  1  0  0  0
  9 11  1  0  0  0
M  END
> <minimizedAffinity>
-7.87592

$$$$
5E89_TD2_A_302


 51 56  0  0  0  0  0  0  0  0999 V2000
   23.5884   -9.7117   -3.7057 S   0  0  0  0  0  0  0  0  0  0  0  0
   22.0369   -9.5525   -2.9410 C   0  0  0  0  0  0  0  0  0  0  0  0
   21.9882  -10.6133   -1.8745 C   0  0  0  0  0  0  0  0  0  0  0  0
   20.7159  -10.4575   -1.0884 C   0  0  0  0  0  0  0  0  0  0  0  0
   20.6137   -9.0205   -0.5951 C   0  0  0  0  0  0  0  0  0  0  0  0
   20.7009   -8.0578   -1.7608 C   0  0  0  0  0  0  0  0  0  0  0  0
   21.9453   -8.2624   -2.4002 O   0  0  0  0  0  0  0  0  0  0  0  0
   21.6499   -8.7522    0.3451 O   0  0  0  0  0  0  0  0  0  0  0  0
   21.9848  -11.8995   -2.4878 O   0  0  0  0  0  0  0  0  0  0  0  0
   22.5127   -8.8701   -0.0822 H   0  0  0  0  0  0  0  0  0  0  0  0
   21.2112  -11.9793   -3.0675 H   0  0  0  0  0  0  0  0  0  0  0  0
   21.5568  -12.6256    1.6817 N   0  0  0  0  0  0  0  0  0  0  0  0
   20.6519  -11.3814    0.0510 N   0  0  0  0  0  0  0  0  0  0  0  0
   21.8628  -11.7312    0.6511 N   0  0  0  0  0  0  0  0  0  0  0  0
   20.2182  -12.7580    1.6431 C   0  0  0  0  0  0  0  0  0  0  0  0
   19.6622  -11.9881    0.6456 C   0  0  0  0  0  0  0  0  0  0  0  0
   19.5878  -13.6657    2.6496 C   0  0  0  0  0  0  0  0  0  0  0  0
   19.1043  -14.9159    2.2789 C   0  0  0  0  0  0  0  0  0  0  0  0
   18.5245  -15.7458    3.2284 C   0  0  0  0  0  0  0  0  0  0  0  0
   18.4373  -15.3310    4.5532 C   0  0  0  0  0  0  0  0  0  0  0  0
   18.9304  -14.1078    4.9151 C   0  0  0  0  0  0  0  0  0  0  0  0
   19.4816  -13.2526    3.9770 C   0  0  0  0  0  0  0  0  0  0  0  0
   18.8107  -13.7529    6.2066 F   0  0  0  0  0  0  0  0  0  0  0  0
   20.6033   -6.6187   -1.2940 C   0  0  0  0  0  0  0  0  0  0  0  0
   21.9159   -6.1233   -1.1540 O   0  0  0  0  0  0  0  0  0  0  0  0
   22.3761   -6.1819   -2.0059 H   0  0  0  0  0  0  0  0  0  0  0  0
   24.1470   -8.0670   -3.5657 C   0  0  0  0  0  0  0  0  0  0  0  0
   24.8237   -7.7300   -4.7784 O   0  0  0  0  0  0  0  0  0  0  0  0
   25.3125   -6.4128   -4.7739 C   0  0  0  0  0  0  0  0  0  0  0  0
   26.3103   -6.1802   -3.6633 C   0  0  0  0  0  0  0  0  0  0  0  0
   27.5471   -6.8637   -3.8818 O   0  0  0  0  0  0  0  0  0  0  0  0
   25.6787   -6.6082   -2.3649 C   0  0  0  0  0  0  0  0  0  0  0  0
   25.1422   -8.0218   -2.4314 C   0  0  0  0  0  0  0  0  0  0  0  0
   24.5286   -8.3561   -1.1868 O   0  0  0  0  0  0  0  0  0  0  0  0
   27.3863   -7.8196   -3.9175 H   0  0  0  0  0  0  0  0  0  0  0  0
   23.8143   -7.7272   -0.9991 H   0  0  0  0  0  0  0  0  0  0  0  0
   26.6296   -6.4247   -1.2750 N   0  0  0  0  0  0  0  0  0  0  0  0
   27.0963   -5.4449   -0.5434 C   0  0  0  0  0  0  0  0  0  0  0  0
   28.0093   -6.0196    0.3294 C   0  0  0  0  0  0  0  0  0  0  0  0
   28.1054   -7.3289    0.0810 N   0  0  0  0  0  0  0  0  0  0  0  0
   27.2217   -7.6181   -0.9325 N   0  0  0  0  0  0  0  0  0  0  0  0
   28.8548   -5.2795    1.2950 C   0  0  0  0  0  0  0  0  0  0  0  0
   28.7232   -5.6334    2.6194 C   0  0  0  0  0  0  0  0  0  0  0  0
   29.4168   -4.9616    3.6054 C   0  0  0  0  0  0  0  0  0  0  0  0
   30.2278   -3.8966    3.2580 C   0  0  0  0  0  0  0  0  0  0  0  0
   30.3240   -3.4980    1.9273 C   0  0  0  0  0  0  0  0  0  0  0  0
   29.6198   -4.1747    0.9357 C   0  0  0  0  0  0  0  0  0  0  0  0
   29.2325   -5.4792    4.8498 F   0  0  0  0  0  0  0  0  0  0  0  0
   25.9707   -6.0938   -6.1168 C   0  0  0  0  0  0  0  0  0  0  0  0
   26.7038   -4.8925   -5.9299 O   0  0  0  0  0  0  0  0  0  0  0  0
   27.3577   -5.0191   -5.2247 H   0  0  0  0  0  0  0  0  0  0  0  0
 50 49  1  0  0  0
 49 29  1  0  0  0
 29 28  1  0  0  0
 29 30  1  0  0  0
 28 27  1  0  0  0
 25 24  1  0  0  0
  6 24  1  0  0  0
  6  7  1  0  0  0
  6  5  1  0  0  0
 30 31  1  0  0  0
 30 32  1  0  0  0
  7  2  1  0  0  0
  5  4  1  0  0  0
  5  8  1  0  0  0
  2  3  1  0  0  0
  2  1  1  0  0  0
  4  3  1  0  0  0
  4 13  1  0  0  0
 14 13  1  0  0  0
 14 12  2  0  0  0
 27  1  1  0  0  0
 27 33  1  0  0  0
  9  3  1  0  0  0
 32 33  1  0  0  0
 32 37  1  0  0  0
 13 16  1  0  0  0
 12 15  1  0  0  0
 33 34  1  0  0  0
 41 37  1  0  0  0
 41 40  2  0  0  0
 37 38  1  0  0  0
 16 15  2  0  0  0
 40 39  1  0  0  0
 15 17  1  0  0  0
 38 39  2  0  0  0
 39 42  1  0  0  0
 18 17  2  0  0  0
 18 19  1  0  0  0
 17 22  1  0  0  0
 19 20  2  0  0  0
 42 43  2  0  0  0
 42 47  1  0  0  0
 22 21  2  0  0  0
 43 44  1  0  0  0
 47 46  2  0  0  0
 20 21  1  0  0  0
 21 23  1  0  0  0
 44 48  1  0  0  0
 44 45  2  0  0  0
 46 45  1  0  0  0
 25 26  1  0  0  0
 50 51  1  0  0  0
  8 10  1  0  0  0
 31 35  1  0  0  0
 34 36  1  0  0  0
  9 11  1  0  0  0
M  END
> <minimizedAffinity>
-7.85379

$$$$
5E89_TD2_A_302


 51 56  0  0  0  0  0  0  0  0999 V2000
   17.7104   -8.0771   -2.3386 S   0  0  0  0  0  0  0  0  0  0  0  0
   18.1264   -9.7377   -2.0446 C   0  0  0  0  0  0  0  0  0  0  0  0
   17.8070   -9.9963   -0.5967 C   0  0  0  0  0  0  0  0  0  0  0  0
   18.0309  -11.4532   -0.2999 C   0  0  0  0  0  0  0  0  0  0  0  0
   17.2508  -12.2874   -1.3070 C   0  0  0  0  0  0  0  0  0  0  0  0
   17.6479  -11.9120   -2.7193 C   0  0  0  0  0  0  0  0  0  0  0  0
   17.3592  -10.5399   -2.9009 O   0  0  0  0  0  0  0  0  0  0  0  0
   15.8515  -12.0955   -1.1203 O   0  0  0  0  0  0  0  0  0  0  0  0
   18.6829   -9.2288    0.2243 O   0  0  0  0  0  0  0  0  0  0  0  0
   15.6319  -11.1610   -1.2593 H   0  0  0  0  0  0  0  0  0  0  0  0
   19.6016   -9.4796    0.0397 H   0  0  0  0  0  0  0  0  0  0  0  0
   17.0635  -11.3343    3.1831 N   0  0  0  0  0  0  0  0  0  0  0  0
   17.6230  -11.8097    1.0649 N   0  0  0  0  0  0  0  0  0  0  0  0
   17.4159  -10.7576    1.9589 N   0  0  0  0  0  0  0  0  0  0  0  0
   17.0785  -12.6614    2.9612 C   0  0  0  0  0  0  0  0  0  0  0  0
   17.4155  -12.9526    1.6580 C   0  0  0  0  0  0  0  0  0  0  0  0
   16.7311  -13.5543    4.1086 C   0  0  0  0  0  0  0  0  0  0  0  0
   17.2461  -13.3172    5.3785 C   0  0  0  0  0  0  0  0  0  0  0  0
   16.9098  -14.1561    6.4320 C   0  0  0  0  0  0  0  0  0  0  0  0
   16.0487  -15.2275    6.2193 C   0  0  0  0  0  0  0  0  0  0  0  0
   15.5315  -15.4452    4.9721 C   0  0  0  0  0  0  0  0  0  0  0  0
   15.8811  -14.6400    3.9022 C   0  0  0  0  0  0  0  0  0  0  0  0
   14.7126  -16.5009    4.8205 F   0  0  0  0  0  0  0  0  0  0  0  0
   16.8823  -12.7290   -3.7414 C   0  0  0  0  0  0  0  0  0  0  0  0
   15.6809  -12.0467   -4.0229 O   0  0  0  0  0  0  0  0  0  0  0  0
   15.8840  -11.1625   -4.3663 H   0  0  0  0  0  0  0  0  0  0  0  0
   16.2866   -8.3072   -3.3168 C   0  0  0  0  0  0  0  0  0  0  0  0
   16.5418   -7.7370   -4.6020 O   0  0  0  0  0  0  0  0  0  0  0  0
   15.4519   -7.8743   -5.4779 C   0  0  0  0  0  0  0  0  0  0  0  0
   14.2128   -7.1846   -4.9564 C   0  0  0  0  0  0  0  0  0  0  0  0
   14.3244   -5.7593   -4.9799 O   0  0  0  0  0  0  0  0  0  0  0  0
   13.9485   -7.6827   -3.5600 C   0  0  0  0  0  0  0  0  0  0  0  0
   15.1610   -7.5403   -2.6656 C   0  0  0  0  0  0  0  0  0  0  0  0
   14.8593   -8.0582   -1.3701 O   0  0  0  0  0  0  0  0  0  0  0  0
   15.0589   -5.4830   -4.4099 H   0  0  0  0  0  0  0  0  0  0  0  0
   14.5978   -8.9891   -1.4469 H   0  0  0  0  0  0  0  0  0  0  0  0
   12.7740   -7.0116   -3.0159 N   0  0  0  0  0  0  0  0  0  0  0  0
   11.4713   -7.1030   -3.1037 C   0  0  0  0  0  0  0  0  0  0  0  0
   10.9611   -6.1031   -2.2879 C   0  0  0  0  0  0  0  0  0  0  0  0
   11.9659   -5.4022   -1.7546 N   0  0  0  0  0  0  0  0  0  0  0  0
   13.1387   -5.9718   -2.1927 N   0  0  0  0  0  0  0  0  0  0  0  0
    9.5257   -5.7686   -2.1375 C   0  0  0  0  0  0  0  0  0  0  0  0
    9.2155   -4.4295   -2.0531 C   0  0  0  0  0  0  0  0  0  0  0  0
    7.9159   -4.0140   -1.8466 C   0  0  0  0  0  0  0  0  0  0  0  0
    6.9191   -4.9595   -1.6882 C   0  0  0  0  0  0  0  0  0  0  0  0
    7.2329   -6.3158   -1.7181 C   0  0  0  0  0  0  0  0  0  0  0  0
    8.5453   -6.7317   -1.9221 C   0  0  0  0  0  0  0  0  0  0  0  0
    7.7679   -2.6618   -1.8599 F   0  0  0  0  0  0  0  0  0  0  0  0
   15.8074   -7.3008   -6.8502 C   0  0  0  0  0  0  0  0  0  0  0  0
   16.7387   -6.2544   -6.6195 O   0  0  0  0  0  0  0  0  0  0  0  0
   17.5161   -6.6088   -6.1603 H   0  0  0  0  0  0  0  0  0  0  0  0
 50 49  1  0  0  0
 49 29  1  0  0  0
 29 28  1  0  0  0
 29 30  1  0  0  0
 28 27  1  0  0  0
 25 24  1  0  0  0
  6 24  1  0  0  0
  6  7  1  0  0  0
  6  5  1  0  0  0
 30 31  1  0  0  0
 30 32  1  0  0  0
  7  2  1  0  0  0
  5  4  1  0  0  0
  5  8  1  0  0  0
  2  3  1  0  0  0
  2  1  1  0  0  0
  4  3  1  0  0  0
  4 13  1  0  0  0
 14 13  1  0  0  0
 14 12  2  0  0  0
 27  1  1  0  0  0
 27 33  1  0  0  0
  9  3  1  0  0  0
 32 33  1  0  0  0
 32 37  1  0  0  0
 13 16  1  0  0  0
 12 15  1  0  0  0
 33 34  1  0  0  0
 41 37  1  0  0  0
 41 40  2  0  0  0
 37 38  1  0  0  0
 16 15  2  0  0  0
 40 39  1  0  0  0
 15 17  1  0  0  0
 38 39  2  0  0  0
 39 42  1  0  0  0
 18 17  2  0  0  0
 18 19  1  0  0  0
 17 22  1  0  0  0
 19 20  2  0  0  0
 42 43  2  0  0  0
 42 47  1  0  0  0
 22 21  2  0  0  0
 43 44  1  0  0  0
 47 46  2  0  0  0
 20 21  1  0  0  0
 21 23  1  0  0  0
 44 48  1  0  0  0
 44 45  2  0  0  0
 46 45  1  0  0  0
 25 26  1  0  0  0
 50 51  1  0  0  0
  8 10  1  0  0  0
 31 35  1  0  0  0
 34 36  1  0  0  0
  9 11  1  0  0  0
M  END
> <minimizedAffinity>
-7.79212

$$$$
5E89_TD2_A_302


 51 56  0  0  0  0  0  0  0  0999 V2000
   26.3731  -12.4403    0.6701 S   0  0  0  0  0  0  0  0  0  0  0  0
   25.5477  -13.6891    1.5512 C   0  0  0  0  0  0  0  0  0  0  0  0
   24.1746  -13.1497    1.8492 C   0  0  0  0  0  0  0  0  0  0  0  0
   23.3593  -14.2270    2.5091 C   0  0  0  0  0  0  0  0  0  0  0  0
   23.4030  -15.4790    1.6434 C   0  0  0  0  0  0  0  0  0  0  0  0
   24.8374  -15.8992    1.4002 C   0  0  0  0  0  0  0  0  0  0  0  0
   25.4961  -14.8341    0.7439 O   0  0  0  0  0  0  0  0  0  0  0  0
   22.7421  -15.2391    0.4043 O   0  0  0  0  0  0  0  0  0  0  0  0
   24.2842  -12.0512    2.7500 O   0  0  0  0  0  0  0  0  0  0  0  0
   23.1926  -14.5221   -0.0689 H   0  0  0  0  0  0  0  0  0  0  0  0
   24.7072  -12.3474    3.5712 H   0  0  0  0  0  0  0  0  0  0  0  0
   20.1170  -12.6502    2.2214 N   0  0  0  0  0  0  0  0  0  0  0  0
   21.9657  -13.8160    2.7210 N   0  0  0  0  0  0  0  0  0  0  0  0
   21.4278  -12.9074    1.8076 N   0  0  0  0  0  0  0  0  0  0  0  0
   19.9470  -13.3974    3.3275 C   0  0  0  0  0  0  0  0  0  0  0  0
   21.0807  -14.1186    3.6300 C   0  0  0  0  0  0  0  0  0  0  0  0
   18.6154  -13.3321    4.0034 C   0  0  0  0  0  0  0  0  0  0  0  0
   17.4850  -12.9081    3.3130 C   0  0  0  0  0  0  0  0  0  0  0  0
   16.2565  -12.8566    3.9571 C   0  0  0  0  0  0  0  0  0  0  0  0
   16.1545  -13.2399    5.2903 C   0  0  0  0  0  0  0  0  0  0  0  0
   17.2663  -13.6728    5.9589 C   0  0  0  0  0  0  0  0  0  0  0  0
   18.5058  -13.6993    5.3439 C   0  0  0  0  0  0  0  0  0  0  0  0
   17.1128  -14.0213    7.2486 F   0  0  0  0  0  0  0  0  0  0  0  0
   24.9070  -17.1443    0.5379 C   0  0  0  0  0  0  0  0  0  0  0  0
   23.8617  -18.0018    0.9379 O   0  0  0  0  0  0  0  0  0  0  0  0
   23.0112  -17.5489    0.8263 H   0  0  0  0  0  0  0  0  0  0  0  0
   27.6515  -12.0888    1.8010 C   0  0  0  0  0  0  0  0  0  0  0  0
   27.3555  -12.7702    3.0217 O   0  0  0  0  0  0  0  0  0  0  0  0
   28.3337  -12.5579    4.0076 C   0  0  0  0  0  0  0  0  0  0  0  0
   28.4685  -11.0972    4.3697 C   0  0  0  0  0  0  0  0  0  0  0  0
   27.3353  -10.6002    5.0862 O   0  0  0  0  0  0  0  0  0  0  0  0
   28.6909  -10.3158    3.1017 C   0  0  0  0  0  0  0  0  0  0  0  0
   27.6286  -10.6021    2.0625 C   0  0  0  0  0  0  0  0  0  0  0  0
   27.9119   -9.8604    0.8764 O   0  0  0  0  0  0  0  0  0  0  0  0
   26.5427  -10.6790    4.5325 H   0  0  0  0  0  0  0  0  0  0  0  0
   28.7901  -10.1043    0.5446 H   0  0  0  0  0  0  0  0  0  0  0  0
   28.7945   -8.8955    3.4146 N   0  0  0  0  0  0  0  0  0  0  0  0
   29.6907   -8.0631    3.8806 C   0  0  0  0  0  0  0  0  0  0  0  0
   29.0748   -6.8202    3.9210 C   0  0  0  0  0  0  0  0  0  0  0  0
   27.8066   -6.9340    3.5162 N   0  0  0  0  0  0  0  0  0  0  0  0
   27.6043   -8.2502    3.1720 N   0  0  0  0  0  0  0  0  0  0  0  0
   29.6802   -5.5808    4.4616 C   0  0  0  0  0  0  0  0  0  0  0  0
   28.9686   -4.9317    5.4460 C   0  0  0  0  0  0  0  0  0  0  0  0
   29.4125   -3.7348    5.9701 C   0  0  0  0  0  0  0  0  0  0  0  0
   30.5706   -3.1651    5.4730 C   0  0  0  0  0  0  0  0  0  0  0  0
   31.2666   -3.7878    4.4401 C   0  0  0  0  0  0  0  0  0  0  0  0
   30.8139   -4.9926    3.9105 C   0  0  0  0  0  0  0  0  0  0  0  0
   28.6357   -3.2619    6.9817 F   0  0  0  0  0  0  0  0  0  0  0  0
   27.9926  -13.3587    5.2648 C   0  0  0  0  0  0  0  0  0  0  0  0
   26.5984  -13.6209    5.2084 O   0  0  0  0  0  0  0  0  0  0  0  0
   26.3943  -14.1120    4.3972 H   0  0  0  0  0  0  0  0  0  0  0  0
 50 49  1  0  0  0
 49 29  1  0  0  0
 29 28  1  0  0  0
 29 30  1  0  0  0
 28 27  1  0  0  0
 25 24  1  0  0  0
  6 24  1  0  0  0
  6  7  1  0  0  0
  6  5  1  0  0  0
 30 31  1  0  0  0
 30 32  1  0  0  0
  7  2  1  0  0  0
  5  4  1  0  0  0
  5  8  1  0  0  0
  2  3  1  0  0  0
  2  1  1  0  0  0
  4  3  1  0  0  0
  4 13  1  0  0  0
 14 13  1  0  0  0
 14 12  2  0  0  0
 27  1  1  0  0  0
 27 33  1  0  0  0
  9  3  1  0  0  0
 32 33  1  0  0  0
 32 37  1  0  0  0
 13 16  1  0  0  0
 12 15  1  0  0  0
 33 34  1  0  0  0
 41 37  1  0  0  0
 41 40  2  0  0  0
 37 38  1  0  0  0
 16 15  2  0  0  0
 40 39  1  0  0  0
 15 17  1  0  0  0
 38 39  2  0  0  0
 39 42  1  0  0  0
 18 17  2  0  0  0
 18 19  1  0  0  0
 17 22  1  0  0  0
 19 20  2  0  0  0
 42 43  2  0  0  0
 42 47  1  0  0  0
 22 21  2  0  0  0
 43 44  1  0  0  0
 47 46  2  0  0  0
 20 21  1  0  0  0
 21 23  1  0  0  0
 44 48  1  0  0  0
 44 45  2  0  0  0
 46 45  1  0  0  0
 25 26  1  0  0  0
 50 51  1  0  0  0
  8 10  1  0  0  0
 31 35  1  0  0  0
 34 36  1  0  0  0
  9 11  1  0  0  0
M  END
> <minimizedAffinity>
-7.71075

$$$$
5E89_TD2_A_302


 51 56  0  0  0  0  0  0  0  0999 V2000
   20.2359  -10.7178   -1.0875 S   0  0  0  0  0  0  0  0  0  0  0  0
   19.5769   -9.1536   -1.4563 C   0  0  0  0  0  0  0  0  0  0  0  0
   18.0934   -9.2629   -1.2279 C   0  0  0  0  0  0  0  0  0  0  0  0
   17.4694   -7.9076   -1.4135 C   0  0  0  0  0  0  0  0  0  0  0  0
   18.2005   -6.9032   -0.5328 C   0  0  0  0  0  0  0  0  0  0  0  0
   19.6821   -6.9112   -0.8459 C   0  0  0  0  0  0  0  0  0  0  0  0
   20.1703   -8.2152   -0.6003 O   0  0  0  0  0  0  0  0  0  0  0  0
   17.9848   -7.2108    0.8414 O   0  0  0  0  0  0  0  0  0  0  0  0
   17.5322  -10.1532   -2.1885 O   0  0  0  0  0  0  0  0  0  0  0  0
   18.3307   -8.0966    1.0326 H   0  0  0  0  0  0  0  0  0  0  0  0
   17.7040   -9.8155   -3.0815 H   0  0  0  0  0  0  0  0  0  0  0  0
   13.9200   -7.2164   -1.3401 N   0  0  0  0  0  0  0  0  0  0  0  0
   16.0378   -7.9072   -1.0872 N   0  0  0  0  0  0  0  0  0  0  0  0
   15.2170   -7.0664   -1.8412 N   0  0  0  0  0  0  0  0  0  0  0  0
   14.0324   -8.1127   -0.3428 C   0  0  0  0  0  0  0  0  0  0  0  0
   15.3324   -8.5419   -0.1924 C   0  0  0  0  0  0  0  0  0  0  0  0
   12.7845   -8.4842    0.3916 C   0  0  0  0  0  0  0  0  0  0  0  0
   11.6639   -8.9429   -0.2925 C   0  0  0  0  0  0  0  0  0  0  0  0
   10.5152   -9.2855    0.4073 C   0  0  0  0  0  0  0  0  0  0  0  0
   10.4891   -9.1801    1.7940 C   0  0  0  0  0  0  0  0  0  0  0  0
   11.6001   -8.7452    2.4625 C   0  0  0  0  0  0  0  0  0  0  0  0
   12.7433   -8.3673    1.7803 C   0  0  0  0  0  0  0  0  0  0  0  0
   11.5164   -8.6526    3.8015 F   0  0  0  0  0  0  0  0  0  0  0  0
   20.4327   -5.9192    0.0207 C   0  0  0  0  0  0  0  0  0  0  0  0
   21.4944   -5.3971   -0.7463 O   0  0  0  0  0  0  0  0  0  0  0  0
   21.1390   -4.9665   -1.5395 H   0  0  0  0  0  0  0  0  0  0  0  0
   21.8966  -10.4427   -1.5383 C   0  0  0  0  0  0  0  0  0  0  0  0
   22.3016  -11.5145   -2.3923 O   0  0  0  0  0  0  0  0  0  0  0  0
   23.6330  -11.3866   -2.8221 C   0  0  0  0  0  0  0  0  0  0  0  0
   24.6063  -11.3865   -1.6663 C   0  0  0  0  0  0  0  0  0  0  0  0
   24.7104  -12.6645   -1.0335 O   0  0  0  0  0  0  0  0  0  0  0  0
   24.1712  -10.3313   -0.6839 C   0  0  0  0  0  0  0  0  0  0  0  0
   22.7230  -10.4954   -0.2760 C   0  0  0  0  0  0  0  0  0  0  0  0
   22.3622   -9.4502    0.6266 O   0  0  0  0  0  0  0  0  0  0  0  0
   23.8467  -12.9175   -0.6717 H   0  0  0  0  0  0  0  0  0  0  0  0
   22.5022   -8.5909    0.1989 H   0  0  0  0  0  0  0  0  0  0  0  0
   25.0745  -10.3268    0.4606 N   0  0  0  0  0  0  0  0  0  0  0  0
   26.1882   -9.7412    0.8208 C   0  0  0  0  0  0  0  0  0  0  0  0
   26.4889  -10.2331    2.0831 C   0  0  0  0  0  0  0  0  0  0  0  0
   25.5721  -11.1358    2.4435 N   0  0  0  0  0  0  0  0  0  0  0  0
   24.6462  -11.2050    1.4287 N   0  0  0  0  0  0  0  0  0  0  0  0
   27.7114   -9.9163    2.8576 C   0  0  0  0  0  0  0  0  0  0  0  0
   28.5916   -9.0312    2.2758 C   0  0  0  0  0  0  0  0  0  0  0  0
   29.7903   -8.7195    2.8843 C   0  0  0  0  0  0  0  0  0  0  0  0
   30.1241   -9.3327    4.0781 C   0  0  0  0  0  0  0  0  0  0  0  0
   29.2641  -10.2695    4.6455 C   0  0  0  0  0  0  0  0  0  0  0  0
   28.0579  -10.5851    4.0271 C   0  0  0  0  0  0  0  0  0  0  0  0
   30.5105   -7.7773    2.2179 F   0  0  0  0  0  0  0  0  0  0  0  0
   23.9866  -12.5269   -3.7777 C   0  0  0  0  0  0  0  0  0  0  0  0
   23.2706  -13.6665   -3.3260 O   0  0  0  0  0  0  0  0  0  0  0  0
   22.3202  -13.4724   -3.3265 H   0  0  0  0  0  0  0  0  0  0  0  0
 50 49  1  0  0  0
 49 29  1  0  0  0
 29 28  1  0  0  0
 29 30  1  0  0  0
 28 27  1  0  0  0
 25 24  1  0  0  0
  6 24  1  0  0  0
  6  7  1  0  0  0
  6  5  1  0  0  0
 30 31  1  0  0  0
 30 32  1  0  0  0
  7  2  1  0  0  0
  5  4  1  0  0  0
  5  8  1  0  0  0
  2  3  1  0  0  0
  2  1  1  0  0  0
  4  3  1  0  0  0
  4 13  1  0  0  0
 14 13  1  0  0  0
 14 12  2  0  0  0
 27  1  1  0  0  0
 27 33  1  0  0  0
  9  3  1  0  0  0
 32 33  1  0  0  0
 32 37  1  0  0  0
 13 16  1  0  0  0
 12 15  1  0  0  0
 33 34  1  0  0  0
 41 37  1  0  0  0
 41 40  2  0  0  0
 37 38  1  0  0  0
 16 15  2  0  0  0
 40 39  1  0  0  0
 15 17  1  0  0  0
 38 39  2  0  0  0
 39 42  1  0  0  0
 18 17  2  0  0  0
 18 19  1  0  0  0
 17 22  1  0  0  0
 19 20  2  0  0  0
 42 43  2  0  0  0
 42 47  1  0  0  0
 22 21  2  0  0  0
 43 44  1  0  0  0
 47 46  2  0  0  0
 20 21  1  0  0  0
 21 23  1  0  0  0
 44 48  1  0  0  0
 44 45  2  0  0  0
 46 45  1  0  0  0
 25 26  1  0  0  0
 50 51  1  0  0  0
  8 10  1  0  0  0
 31 35  1  0  0  0
 34 36  1  0  0  0
  9 11  1  0  0  0
M  END
> <minimizedAffinity>
-7.67647

$$$$
5E89_TD2_A_302


 51 56  0  0  0  0  0  0  0  0999 V2000
   25.9042  -12.0039    0.6562 S   0  0  0  0  0  0  0  0  0  0  0  0
   27.3152  -11.8597    1.6589 C   0  0  0  0  0  0  0  0  0  0  0  0
   27.4392  -10.3978    1.9945 C   0  0  0  0  0  0  0  0  0  0  0  0
   28.5753  -10.2135    2.9620 C   0  0  0  0  0  0  0  0  0  0  0  0
   28.3705  -11.1476    4.1470 C   0  0  0  0  0  0  0  0  0  0  0  0
   28.2365  -12.5787    3.6704 C   0  0  0  0  0  0  0  0  0  0  0  0
   27.1210  -12.6447    2.8041 O   0  0  0  0  0  0  0  0  0  0  0  0
   27.2113  -10.7606    4.8791 O   0  0  0  0  0  0  0  0  0  0  0  0
   27.7332   -9.6646    0.8086 O   0  0  0  0  0  0  0  0  0  0  0  0
   26.4319  -10.8175    4.3044 H   0  0  0  0  0  0  0  0  0  0  0  0
   28.5647   -9.9867    0.4270 H   0  0  0  0  0  0  0  0  0  0  0  0
   27.9709   -6.7097    3.6245 N   0  0  0  0  0  0  0  0  0  0  0  0
   28.6826   -8.8269    3.4331 N   0  0  0  0  0  0  0  0  0  0  0  0
   27.6406   -7.9613    3.0954 N   0  0  0  0  0  0  0  0  0  0  0  0
   29.1578   -6.8896    4.2324 C   0  0  0  0  0  0  0  0  0  0  0  0
   29.5913   -8.1921    4.1203 C   0  0  0  0  0  0  0  0  0  0  0  0
   29.7719   -5.7049    4.9060 C   0  0  0  0  0  0  0  0  0  0  0  0
   31.1532   -5.5779    5.0066 C   0  0  0  0  0  0  0  0  0  0  0  0
   31.7048   -4.4692    5.6336 C   0  0  0  0  0  0  0  0  0  0  0  0
   30.8756   -3.4798    6.1515 C   0  0  0  0  0  0  0  0  0  0  0  0
   29.5185   -3.6017    6.0339 C   0  0  0  0  0  0  0  0  0  0  0  0
   28.9488   -4.7155    5.4421 C   0  0  0  0  0  0  0  0  0  0  0  0
   28.7640   -2.6214    6.5613 F   0  0  0  0  0  0  0  0  0  0  0  0
   28.0296  -13.5287    4.8337 C   0  0  0  0  0  0  0  0  0  0  0  0
   26.6407  -13.7008    5.0050 O   0  0  0  0  0  0  0  0  0  0  0  0
   26.2565  -14.0604    4.1901 H   0  0  0  0  0  0  0  0  0  0  0  0
   25.0921  -13.3015    1.4891 C   0  0  0  0  0  0  0  0  0  0  0  0
   25.0862  -14.4399    0.6254 O   0  0  0  0  0  0  0  0  0  0  0  0
   24.4560  -15.5531    1.2064 C   0  0  0  0  0  0  0  0  0  0  0  0
   23.0082  -15.2774    1.5394 C   0  0  0  0  0  0  0  0  0  0  0  0
   22.1884  -15.1547    0.3743 O   0  0  0  0  0  0  0  0  0  0  0  0
   22.9471  -14.0272    2.3769 C   0  0  0  0  0  0  0  0  0  0  0  0
   23.6651  -12.8672    1.7217 C   0  0  0  0  0  0  0  0  0  0  0  0
   23.6009  -11.7252    2.5756 O   0  0  0  0  0  0  0  0  0  0  0  0
   22.4988  -14.4087   -0.1623 H   0  0  0  0  0  0  0  0  0  0  0  0
   24.0045  -11.9384    3.4314 H   0  0  0  0  0  0  0  0  0  0  0  0
   21.5574  -13.7161    2.6899 N   0  0  0  0  0  0  0  0  0  0  0  0
   20.6495  -14.0795    3.5598 C   0  0  0  0  0  0  0  0  0  0  0  0
   19.5099  -13.3503    3.2516 C   0  0  0  0  0  0  0  0  0  0  0  0
   19.7399  -12.5903    2.1770 N   0  0  0  0  0  0  0  0  0  0  0  0
   21.0484  -12.7942    1.8052 N   0  0  0  0  0  0  0  0  0  0  0  0
   18.1949  -13.4920    3.9192 C   0  0  0  0  0  0  0  0  0  0  0  0
   18.2145  -13.5968    5.2922 C   0  0  0  0  0  0  0  0  0  0  0  0
   17.0500  -13.7976    6.0050 C   0  0  0  0  0  0  0  0  0  0  0  0
   15.8531  -13.9292    5.3247 C   0  0  0  0  0  0  0  0  0  0  0  0
   15.8322  -13.8787    3.9333 C   0  0  0  0  0  0  0  0  0  0  0  0
   17.0090  -13.6806    3.2171 C   0  0  0  0  0  0  0  0  0  0  0  0
   17.2314  -13.8065    7.3531 F   0  0  0  0  0  0  0  0  0  0  0  0
   24.5353  -16.7524    0.2609 C   0  0  0  0  0  0  0  0  0  0  0  0
   23.6499  -17.7331    0.7804 O   0  0  0  0  0  0  0  0  0  0  0  0
   22.7533  -17.3660    0.8288 H   0  0  0  0  0  0  0  0  0  0  0  0
 50 49  1  0  0  0
 49 29  1  0  0  0
 29 28  1  0  0  0
 29 30  1  0  0  0
 28 27  1  0  0  0
 25 24  1  0  0  0
  6 24  1  0  0  0
  6  7  1  0  0  0
  6  5  1  0  0  0
 30 31  1  0  0  0
 30 32  1  0  0  0
  7  2  1  0  0  0
  5  4  1  0  0  0
  5  8  1  0  0  0
  2  3  1  0  0  0
  2  1  1  0  0  0
  4  3  1  0  0  0
  4 13  1  0  0  0
 14 13  1  0  0  0
 14 12  2  0  0  0
 27  1  1  0  0  0
 27 33  1  0  0  0
  9  3  1  0  0  0
 32 33  1  0  0  0
 32 37  1  0  0  0
 13 16  1  0  0  0
 12 15  1  0  0  0
 33 34  1  0  0  0
 41 37  1  0  0  0
 41 40  2  0  0  0
 37 38  1  0  0  0
 16 15  2  0  0  0
 40 39  1  0  0  0
 15 17  1  0  0  0
 38 39  2  0  0  0
 39 42  1  0  0  0
 18 17  2  0  0  0
 18 19  1  0  0  0
 17 22  1  0  0  0
 19 20  2  0  0  0
 42 43  2  0  0  0
 42 47  1  0  0  0
 22 21  2  0  0  0
 43 44  1  0  0  0
 47 46  2  0  0  0
 20 21  1  0  0  0
 21 23  1  0  0  0
 44 48  1  0  0  0
 44 45  2  0  0  0
 46 45  1  0  0  0
 25 26  1  0  0  0
 50 51  1  0  0  0
  8 10  1  0  0  0
 31 35  1  0  0  0
 34 36  1  0  0  0
  9 11  1  0  0  0
M  END
> <minimizedAffinity>
-7.57777

$$$$
