1OXR_AIN_A_141


 14 14  0  0  0  0  0  0  0  0999 V2000
   11.6727   15.9599    0.2115 C   0  0  0  0  0  0  0  0  0  0  0  0
   10.6187   16.1227   -0.7043 C   0  0  0  0  0  0  0  0  0  0  0  0
    9.3513   15.6384   -0.3881 C   0  0  0  0  0  0  0  0  0  0  0  0
    9.0985   15.0373    0.8315 C   0  0  0  0  0  0  0  0  0  0  0  0
   10.0756   14.8972    1.7903 C   0  0  0  0  0  0  0  0  0  0  0  0
   11.3690   15.3432    1.5599 C   0  0  0  0  0  0  0  0  0  0  0  0
   14.1254   15.9831    0.4163 O   0  0  0  0  0  0  0  0  0  0  0  0
   13.0265   16.5281   -0.0872 C   0  0  0  0  0  0  0  0  0  0  0  0
   13.1839   17.5619   -0.7126 O   0  0  0  0  0  0  0  0  0  0  0  0
   14.0708   15.1872    0.9077 H   0  0  0  0  0  0  0  0  0  0  0  0
   12.4266   15.2358    2.4388 O   0  0  0  0  0  0  0  0  0  0  0  0
   12.7093   16.0116    3.6625 C   0  0  0  0  0  0  0  0  0  0  0  0
   12.8576   15.3913    4.7074 O   0  0  0  0  0  0  0  0  0  0  0  0
   12.8244   17.5134    3.6795 C   0  0  0  0  0  0  0  0  0  0  0  0
  7  8  1  0  0  0
  8  9  2  0  0  0
  8  1  1  0  0  0
  1  2  1  0  0  0
  1  6  2  0  0  0
  2  3  2  0  0  0
  3  4  1  0  0  0
  4  5  2  0  0  0
  5  6  1  0  0  0
  6 11  1  0  0  0
 11 12  1  0  0  0
 12 13  2  0  0  0
 12 14  1  0  0  0
  7 10  1  0  0  0
M  END
> <minimizedAffinity>
-7.03173

$$$$
1OXR_AIN_A_141


 14 14  0  0  0  0  0  0  0  0999 V2000
    8.9060   14.8601    2.1792 C   0  0  0  0  0  0  0  0  0  0  0  0
    7.5583   15.0939    2.5037 C   0  0  0  0  0  0  0  0  0  0  0  0
    7.1821   15.2079    3.8401 C   0  0  0  0  0  0  0  0  0  0  0  0
    8.1182   15.1387    4.8557 C   0  0  0  0  0  0  0  0  0  0  0  0
    9.4590   14.9652    4.5990 C   0  0  0  0  0  0  0  0  0  0  0  0
    9.9244   14.8344    3.2986 C   0  0  0  0  0  0  0  0  0  0  0  0
   10.4285   14.1339    0.3868 O   0  0  0  0  0  0  0  0  0  0  0  0
    9.3367   14.7952    0.7457 C   0  0  0  0  0  0  0  0  0  0  0  0
    8.7775   15.4187   -0.1393 O   0  0  0  0  0  0  0  0  0  0  0  0
   10.9041   13.6351    1.0216 H   0  0  0  0  0  0  0  0  0  0  0  0
   11.2386   14.6370    2.9294 O   0  0  0  0  0  0  0  0  0  0  0  0
   12.3061   15.6306    2.7006 C   0  0  0  0  0  0  0  0  0  0  0  0
   12.8439   15.6443    1.6010 O   0  0  0  0  0  0  0  0  0  0  0  0
   12.7539   16.6168    3.7475 C   0  0  0  0  0  0  0  0  0  0  0  0
  7  8  1  0  0  0
  8  9  2  0  0  0
  8  1  1  0  0  0
  1  2  1  0  0  0
  1  6  2  0  0  0
  2  3  2  0  0  0
  3  4  1  0  0  0
  4  5  2  0  0  0
  5  6  1  0  0  0
  6 11  1  0  0  0
 11 12  1  0  0  0
 12 13  2  0  0  0
 12 14  1  0  0  0
  7 10  1  0  0  0
M  END
> <minimizedAffinity>
-6.41421

$$$$
1OXR_AIN_A_141


 14 14  0  0  0  0  0  0  0  0999 V2000
   12.2952   16.6429    1.4389 C   0  0  0  0  0  0  0  0  0  0  0  0
   13.0777   17.2599    2.4306 C   0  0  0  0  0  0  0  0  0  0  0  0
   13.0125   16.7996    3.7438 C   0  0  0  0  0  0  0  0  0  0  0  0
   12.2235   15.7160    4.0843 C   0  0  0  0  0  0  0  0  0  0  0  0
   11.4767   15.0371    3.1489 C   0  0  0  0  0  0  0  0  0  0  0  0
   11.4740   15.4294    1.8181 C   0  0  0  0  0  0  0  0  0  0  0  0
   11.3362   17.5237   -0.6498 O   0  0  0  0  0  0  0  0  0  0  0  0
   12.3989   17.0863    0.0115 C   0  0  0  0  0  0  0  0  0  0  0  0
   13.4225   16.9757   -0.6401 O   0  0  0  0  0  0  0  0  0  0  0  0
   10.5185   17.6302   -0.2047 H   0  0  0  0  0  0  0  0  0  0  0  0
   10.7500   14.8363    0.8050 O   0  0  0  0  0  0  0  0  0  0  0  0
    9.3031   14.9096    0.5215 C   0  0  0  0  0  0  0  0  0  0  0  0
    8.9418   15.6122   -0.4135 O   0  0  0  0  0  0  0  0  0  0  0  0
    8.2666   14.1645    1.3213 C   0  0  0  0  0  0  0  0  0  0  0  0
  7  8  1  0  0  0
  8  9  2  0  0  0
  8  1  1  0  0  0
  1  2  1  0  0  0
  1  6  2  0  0  0
  2  3  2  0  0  0
  3  4  1  0  0  0
  4  5  2  0  0  0
  5  6  1  0  0  0
  6 11  1  0  0  0
 11 12  1  0  0  0
 12 13  2  0  0  0
 12 14  1  0  0  0
  7 10  1  0  0  0
M  END
> <minimizedAffinity>
-6.21504

$$$$
1OXR_AIN_A_141


 14 14  0  0  0  0  0  0  0  0999 V2000
   10.9588   15.4714    2.8934 C   0  0  0  0  0  0  0  0  0  0  0  0
    9.9437   15.3497    3.8582 C   0  0  0  0  0  0  0  0  0  0  0  0
    8.6450   15.0455    3.4562 C   0  0  0  0  0  0  0  0  0  0  0  0
    8.3423   14.8172    2.1262 C   0  0  0  0  0  0  0  0  0  0  0  0
    9.3028   14.8686    1.1420 C   0  0  0  0  0  0  0  0  0  0  0  0
   10.6215   15.1719    1.4486 C   0  0  0  0  0  0  0  0  0  0  0  0
   13.3885   15.1089    2.7412 O   0  0  0  0  0  0  0  0  0  0  0  0
   12.3718   15.7383    3.3141 C   0  0  0  0  0  0  0  0  0  0  0  0
   12.6541   16.4570    4.2566 O   0  0  0  0  0  0  0  0  0  0  0  0
   13.2369   14.5414    2.0112 H   0  0  0  0  0  0  0  0  0  0  0  0
   11.6570   15.2700    0.5427 O   0  0  0  0  0  0  0  0  0  0  0  0
   12.2148   16.4680   -0.1153 C   0  0  0  0  0  0  0  0  0  0  0  0
   13.4301   16.6138   -0.0951 O   0  0  0  0  0  0  0  0  0  0  0  0
   11.3641   17.5031   -0.8037 C   0  0  0  0  0  0  0  0  0  0  0  0
  7  8  1  0  0  0
  8  9  2  0  0  0
  8  1  1  0  0  0
  1  2  1  0  0  0
  1  6  2  0  0  0
  2  3  2  0  0  0
  3  4  1  0  0  0
  4  5  2  0  0  0
  5  6  1  0  0  0
  6 11  1  0  0  0
 11 12  1  0  0  0
 12 13  2  0  0  0
 12 14  1  0  0  0
  7 10  1  0  0  0
M  END
> <minimizedAffinity>
-6.17318

$$$$
1OXR_AIN_A_141


 14 14  0  0  0  0  0  0  0  0999 V2000
   10.8910   15.8888    0.2302 C   0  0  0  0  0  0  0  0  0  0  0  0
    9.5542   15.7715   -0.1888 C   0  0  0  0  0  0  0  0  0  0  0  0
    8.6717   14.9775    0.5402 C   0  0  0  0  0  0  0  0  0  0  0  0
    9.0750   14.3348    1.6964 C   0  0  0  0  0  0  0  0  0  0  0  0
   10.3553   14.4543    2.1867 C   0  0  0  0  0  0  0  0  0  0  0  0
   11.3041   15.2182    1.5227 C   0  0  0  0  0  0  0  0  0  0  0  0
   11.4617   17.9898   -0.9179 O   0  0  0  0  0  0  0  0  0  0  0  0
   11.8371   16.7862   -0.5076 C   0  0  0  0  0  0  0  0  0  0  0  0
   12.9488   16.4285   -0.8552 O   0  0  0  0  0  0  0  0  0  0  0  0
   10.6176   18.3225   -0.6837 H   0  0  0  0  0  0  0  0  0  0  0  0
   12.6162   15.3898    1.9119 O   0  0  0  0  0  0  0  0  0  0  0  0
   13.2440   16.5283    2.6112 C   0  0  0  0  0  0  0  0  0  0  0  0
   14.4148   16.7774    2.3547 O   0  0  0  0  0  0  0  0  0  0  0  0
   12.5145   17.3867    3.6112 C   0  0  0  0  0  0  0  0  0  0  0  0
  7  8  1  0  0  0
  8  9  2  0  0  0
  8  1  1  0  0  0
  1  2  1  0  0  0
  1  6  2  0  0  0
  2  3  2  0  0  0
  3  4  1  0  0  0
  4  5  2  0  0  0
  5  6  1  0  0  0
  6 11  1  0  0  0
 11 12  1  0  0  0
 12 13  2  0  0  0
 12 14  1  0  0  0
  7 10  1  0  0  0
M  END
> <minimizedAffinity>
-6.14669

$$$$
1OXR_AIN_A_141


 14 14  0  0  0  0  0  0  0  0999 V2000
   11.5049   16.0607    1.4701 C   0  0  0  0  0  0  0  0  0  0  0  0
   12.5415   16.8963    1.9211 C   0  0  0  0  0  0  0  0  0  0  0  0
   12.9449   16.8346    3.2531 C   0  0  0  0  0  0  0  0  0  0  0  0
   12.3734   15.9337    4.1332 C   0  0  0  0  0  0  0  0  0  0  0  0
   11.3924   15.0531    3.7383 C   0  0  0  0  0  0  0  0  0  0  0  0
   10.9230   15.0481    2.4327 C   0  0  0  0  0  0  0  0  0  0  0  0
   10.8039   14.9476   -0.6102 O   0  0  0  0  0  0  0  0  0  0  0  0
   11.1005   16.0717    0.0275 C   0  0  0  0  0  0  0  0  0  0  0  0
   11.1201   17.0810   -0.6548 O   0  0  0  0  0  0  0  0  0  0  0  0
   10.7726   14.1371   -0.1412 H   0  0  0  0  0  0  0  0  0  0  0  0
    9.9329   14.2263    1.9360 O   0  0  0  0  0  0  0  0  0  0  0  0
    8.4812   14.4706    1.8256 C   0  0  0  0  0  0  0  0  0  0  0  0
    7.9601   14.3142    0.7290 O   0  0  0  0  0  0  0  0  0  0  0  0
    7.6249   14.8958    2.9897 C   0  0  0  0  0  0  0  0  0  0  0  0
  7  8  1  0  0  0
  8  9  2  0  0  0
  8  1  1  0  0  0
  1  2  1  0  0  0
  1  6  2  0  0  0
  2  3  2  0  0  0
  3  4  1  0  0  0
  4  5  2  0  0  0
  5  6  1  0  0  0
  6 11  1  0  0  0
 11 12  1  0  0  0
 12 13  2  0  0  0
 12 14  1  0  0  0
  7 10  1  0  0  0
M  END
> <minimizedAffinity>
-6.02517

$$$$
1OXR_AIN_A_141


 14 14  0  0  0  0  0  0  0  0999 V2000
    9.9562   14.8325    2.2041 C   0  0  0  0  0  0  0  0  0  0  0  0
    8.6581   14.7484    1.6712 C   0  0  0  0  0  0  0  0  0  0  0  0
    8.4256   15.1520    0.3583 C   0  0  0  0  0  0  0  0  0  0  0  0
    9.4583   15.5945   -0.4480 C   0  0  0  0  0  0  0  0  0  0  0  0
   10.7587   15.6485   -0.0010 C   0  0  0  0  0  0  0  0  0  0  0  0
   11.0829   15.2735    1.2947 C   0  0  0  0  0  0  0  0  0  0  0  0
   11.1223   13.3876    3.8199 O   0  0  0  0  0  0  0  0  0  0  0  0
   10.2346   14.3462    3.5936 C   0  0  0  0  0  0  0  0  0  0  0  0
    9.6006   14.7237    4.5633 O   0  0  0  0  0  0  0  0  0  0  0  0
   11.6416   13.0541    3.1149 H   0  0  0  0  0  0  0  0  0  0  0  0
   12.3445   15.3071    1.8513 O   0  0  0  0  0  0  0  0  0  0  0  0
   13.4105   16.3161    1.6939 C   0  0  0  0  0  0  0  0  0  0  0  0
   14.1525   16.2129    0.7258 O   0  0  0  0  0  0  0  0  0  0  0  0
   13.6196   17.4534    2.6593 C   0  0  0  0  0  0  0  0  0  0  0  0
  7  8  1  0  0  0
  8  9  2  0  0  0
  8  1  1  0  0  0
  1  2  1  0  0  0
  1  6  2  0  0  0
  2  3  2  0  0  0
  3  4  1  0  0  0
  4  5  2  0  0  0
  5  6  1  0  0  0
  6 11  1  0  0  0
 11 12  1  0  0  0
 12 13  2  0  0  0
 12 14  1  0  0  0
  7 10  1  0  0  0
M  END
> <minimizedAffinity>
-5.98921

$$$$
1OXR_AIN_A_141


 14 14  0  0  0  0  0  0  0  0999 V2000
   11.9664   15.6947    1.8403 C   0  0  0  0  0  0  0  0  0  0  0  0
   12.4053   16.5778    0.8385 C   0  0  0  0  0  0  0  0  0  0  0  0
   11.6605   16.7174   -0.3305 C   0  0  0  0  0  0  0  0  0  0  0  0
   10.4709   16.0346   -0.5072 C   0  0  0  0  0  0  0  0  0  0  0  0
    9.9619   15.1974    0.4591 C   0  0  0  0  0  0  0  0  0  0  0  0
   10.6393   14.9915    1.6523 C   0  0  0  0  0  0  0  0  0  0  0  0
   12.1020   15.6496    4.2974 O   0  0  0  0  0  0  0  0  0  0  0  0
   12.7230   15.5782    3.1281 C   0  0  0  0  0  0  0  0  0  0  0  0
   13.9390   15.5157    3.1746 O   0  0  0  0  0  0  0  0  0  0  0  0
   11.1669   15.6999    4.3289 H   0  0  0  0  0  0  0  0  0  0  0  0
   10.2328   14.1621    2.6766 O   0  0  0  0  0  0  0  0  0  0  0  0
    8.9587   14.1504    3.4222 C   0  0  0  0  0  0  0  0  0  0  0  0
    8.2039   13.2035    3.2432 O   0  0  0  0  0  0  0  0  0  0  0  0
    8.5547   15.2380    4.3829 C   0  0  0  0  0  0  0  0  0  0  0  0
  7  8  1  0  0  0
  8  9  2  0  0  0
  8  1  1  0  0  0
  1  2  1  0  0  0
  1  6  2  0  0  0
  2  3  2  0  0  0
  3  4  1  0  0  0
  4  5  2  0  0  0
  5  6  1  0  0  0
  6 11  1  0  0  0
 11 12  1  0  0  0
 12 13  2  0  0  0
 12 14  1  0  0  0
  7 10  1  0  0  0
M  END
> <minimizedAffinity>
-5.74630

$$$$
1OXR_AIN_A_141


 14 14  0  0  0  0  0  0  0  0999 V2000
   12.5383   13.5066    4.5505 C   0  0  0  0  0  0  0  0  0  0  0  0
   11.3124   12.9884    5.0032 C   0  0  0  0  0  0  0  0  0  0  0  0
   10.1442   13.7248    4.8196 C   0  0  0  0  0  0  0  0  0  0  0  0
   10.1603   14.9401    4.1598 C   0  0  0  0  0  0  0  0  0  0  0  0
   11.3201   15.4742    3.6465 C   0  0  0  0  0  0  0  0  0  0  0  0
   12.5323   14.8145    3.7888 C   0  0  0  0  0  0  0  0  0  0  0  0
   14.9541   13.2803    4.9635 O   0  0  0  0  0  0  0  0  0  0  0  0
   13.7942   12.7010    4.6859 C   0  0  0  0  0  0  0  0  0  0  0  0
   13.8390   11.5059    4.4523 O   0  0  0  0  0  0  0  0  0  0  0  0
   14.9864   14.1976    5.1520 H   0  0  0  0  0  0  0  0  0  0  0  0
   13.7534   15.2662    3.3336 O   0  0  0  0  0  0  0  0  0  0  0  0
   14.0625   16.4334    2.4843 C   0  0  0  0  0  0  0  0  0  0  0  0
   14.3173   16.2268    1.3049 O   0  0  0  0  0  0  0  0  0  0  0  0
   14.0747   17.8489    2.9994 C   0  0  0  0  0  0  0  0  0  0  0  0
  7  8  1  0  0  0
  8  9  2  0  0  0
  8  1  1  0  0  0
  1  2  1  0  0  0
  1  6  2  0  0  0
  2  3  2  0  0  0
  3  4  1  0  0  0
  4  5  2  0  0  0
  5  6  1  0  0  0
  6 11  1  0  0  0
 11 12  1  0  0  0
 12 13  2  0  0  0
 12 14  1  0  0  0
  7 10  1  0  0  0
M  END
> <minimizedAffinity>
-5.72736

$$$$
1OXR_AIN_A_141


 14 14  0  0  0  0  0  0  0  0999 V2000
    9.4786   14.0613    3.9286 C   0  0  0  0  0  0  0  0  0  0  0  0
    8.8123   14.2967    5.1438 C   0  0  0  0  0  0  0  0  0  0  0  0
    7.5796   14.9456    5.1383 C   0  0  0  0  0  0  0  0  0  0  0  0
    6.9759   15.3255    3.9536 C   0  0  0  0  0  0  0  0  0  0  0  0
    7.5529   15.0747    2.7297 C   0  0  0  0  0  0  0  0  0  0  0  0
    8.7832   14.4400    2.6386 C   0  0  0  0  0  0  0  0  0  0  0  0
   10.9448   12.2511    3.1340 O   0  0  0  0  0  0  0  0  0  0  0  0
   10.7755   13.3114    3.9119 C   0  0  0  0  0  0  0  0  0  0  0  0
   11.6936   13.5658    4.6716 O   0  0  0  0  0  0  0  0  0  0  0  0
   10.2748   12.0030    2.5278 H   0  0  0  0  0  0  0  0  0  0  0  0
    9.4597   14.1583    1.4701 O   0  0  0  0  0  0  0  0  0  0  0  0
   10.3548   15.0219    0.6750 C   0  0  0  0  0  0  0  0  0  0  0  0
   11.5171   15.1288    1.0440 O   0  0  0  0  0  0  0  0  0  0  0  0
    9.9056   15.7650   -0.5559 C   0  0  0  0  0  0  0  0  0  0  0  0
  7  8  1  0  0  0
  8  9  2  0  0  0
  8  1  1  0  0  0
  1  2  1  0  0  0
  1  6  2  0  0  0
  2  3  2  0  0  0
  3  4  1  0  0  0
  4  5  2  0  0  0
  5  6  1  0  0  0
  6 11  1  0  0  0
 11 12  1  0  0  0
 12 13  2  0  0  0
 12 14  1  0  0  0
  7 10  1  0  0  0
M  END
> <minimizedAffinity>
-5.63060

$$$$
