1SWG_BTN_A_600
  RCSB PDB12061704023D
Coordinates from PDB:1SWG:A:600 Model:1 without hydrogens
 16 17  0  0  0  0            999 V2000
   13.8230   15.4720   18.2480   C 0  0  0  0  0  0  0  0  0  0  0  0
   14.0450   15.9210   17.0920   O 0  0  0  0  0  0  0  0  0  0  0  0
   14.7540   15.0090   18.9720   O 0  0  0  0  0  0  0  0  0  0  0  0
   12.4110   15.4940   18.7050   C 0  0  0  0  0  0  0  0  0  0  0  0
   11.5780   16.5940   18.0180   C 0  0  0  0  0  0  0  0  0  0  0  0
   11.8760   17.9300   18.6780   C 0  0  0  0  0  0  0  0  0  0  0  0
   11.1330   19.1590   18.1180   C 0  0  0  0  0  0  0  0  0  0  0  0
   11.4950   20.4790   18.7970   C 0  0  0  0  0  0  0  0  0  0  0  0
   11.0380   20.5580   20.5830   S 0  0  0  0  0  0  0  0  0  0  0  0
   11.4720   22.3320   20.5860   C 0  0  0  0  0  0  0  0  0  0  0  0
   10.9390   22.9040   19.2940   C 0  0  0  0  0  0  0  0  0  0  0  0
    9.5410   23.3110   19.3310   N 0  0  0  0  0  0  0  0  0  0  0  0
    8.7770   22.5910   18.5060   C 0  0  0  0  0  0  0  0  0  0  0  0
    7.5460   22.7020   18.2980   O 0  0  0  0  0  0  0  0  0  0  0  0
    9.5720   21.7110   17.8520   N 0  0  0  0  0  0  0  0  0  0  0  0
   10.9550   21.7700   18.2320   C 0  0  0  0  0  0  0  0  0  0  0  0
  1  2  2  0  0  0  0
  1  3  1  0  0  0  0
  1  4  1  0  0  0  0
  4  5  1  0  0  0  0
  5  6  1  0  0  0  0
  6  7  1  0  0  0  0
  7  8  1  0  0  0  0
  8  9  1  0  0  0  0
  8 16  1  0  0  0  0
  9 10  1  0  0  0  0
 10 11  1  0  0  0  0
 11 12  1  0  0  0  0
 11 16  1  0  0  0  0
 12 13  1  0  0  0  0
 13 14  2  0  0  0  0
 13 15  1  0  0  0  0
 15 16  1  0  0  0  0
A    1
C11
A    2
O11
A    3
O12
A    4
C10
A    5
C9
A    6
C8
A    7
C7
A    8
C2
A    9
S1
A   10
C6
A   11
C5
A   12
N1
A   13
C3
A   14
O3
A   15
N2
A   16
C4
M  END
>  <InstanceId>
1SWG_BTN_A_600

>  <ChemCompId>
BTN

>  <PdbId>
1SWG

>  <ChainId>
A

>  <ResidueNumber>
600

>  <InsertionCode>


>  <Model>
1

>  <AltIds>


>  <MissingHeavyAtoms>
0

>  <ObservedFormula>
C10 N2 O3 S

>  <Name>
BIOTIN

>  <SystematicName>
5-[(3aS,4S,6aR)-2-oxidanylidene-1,3,3a,4,6,6a-hexahydrothieno[3,4-d]imidazol-4-yl]pentanoic acid

>  <Synonyms>


>  <Type>
NON-POLYMER

>  <Formula>
C10 H16 N2 O3 S

>  <MolecularWeight>
244.311

>  <ModifiedDate>
2014-04-29

>  <Parent>


>  <OneLetterCode>


>  <SubcomponentList>


>  <AmbiguousFlag>
N

>  <InChI>
InChI=1S/C10H16N2O3S/c13-8(14)4-2-1-3-7-9-6(5-16-7)11-10(15)12-9/h6-7,9H,1-5H2,(H,13,14)(H2,11,12,15)/t6-,7-,9-/m0/s1

>  <InChIKey>
YBJHBAHKTGYVGT-ZKWXMUAHSA-N

>  <SMILES>
C1[C@H]2[C@@H]([C@@H](S1)CCCCC(=O)O)NC(=O)N2

$$$$
