5G1Z_U53_A_1001


 22 23  0  0  0  0  0  0  0  0999 V2000
   21.3354   46.2604   61.8136 C   0  0  0  0  0  0  0  0  0  0  0  0
   21.4148   47.2799   62.7392 C   0  0  0  0  0  0  0  0  0  0  0  0
   22.5622   47.6865   63.2838 N   0  0  0  0  0  0  0  0  0  0  0  0
   23.7481   47.2092   62.8682 C   0  0  0  0  0  0  0  0  0  0  0  0
   24.9341   47.6846   63.4232 C   0  0  0  0  0  0  0  0  0  0  0  0
   26.0859   47.0879   62.9546 C   0  0  0  0  0  0  0  0  0  0  0  0
   22.5384   45.6571   61.2794 C   0  0  0  0  0  0  0  0  0  0  0  0
   23.7853   46.1623   61.8462 C   0  0  0  0  0  0  0  0  0  0  0  0
   24.9617   45.6142   61.4122 C   0  0  0  0  0  0  0  0  0  0  0  0
   26.1162   46.0850   61.9681 C   0  0  0  0  0  0  0  0  0  0  0  0
   19.6398   44.7816   61.4388 O   0  0  0  0  0  0  0  0  0  0  0  0
   20.0224   45.9156   61.2243 C   0  0  0  0  0  0  0  0  0  0  0  0
   19.2901   46.6607   60.2431 O   0  0  0  0  0  0  0  0  0  0  0  0
   17.8616   46.4691   60.2302 C   0  0  0  0  0  0  0  0  0  0  0  0
   17.1736   47.7229   60.6702 C   0  0  0  0  0  0  0  0  0  0  0  0
   27.2952   45.5053   61.5213 O   0  0  0  0  0  0  0  0  0  0  0  0
   27.2330   44.3620   60.6251 C   0  0  0  0  0  0  0  0  0  0  0  0
   22.5297   44.3688   60.1543 S   0  0  0  0  0  0  0  0  0  0  0  0
   23.0648   44.9076   58.5479 C   0  0  0  0  0  0  0  0  0  0  0  0
   22.0401   45.9364   58.0936 C   0  0  0  0  0  0  0  0  0  0  0  0
   22.0882   46.0852   56.6629 C   0  0  0  0  0  0  0  0  0  0  0  0
   22.0818   46.1144   55.5072 N   0  0  0  0  0  0  0  0  0  0  0  0
 11 12  2  0  0  0
 18 19  1  0  0  0
 18  7  1  0  0  0
 14 15  1  0  0  0
 14 13  1  0  0  0
 19 20  1  0  0  0
 12 13  1  0  0  0
 12  1  1  0  0  0
 17 16  1  0  0  0
  7  1  2  0  0  0
  7  8  1  0  0  0
 22 21  3  0  0  0
  1  2  1  0  0  0
  9  8  2  0  0  0
  9 10  1  0  0  0
 21 20  1  0  0  0
  8  4  1  0  0  0
 16 10  1  0  0  0
 10  6  2  0  0  0
  2  3  2  0  0  0
  4  3  1  0  0  0
  4  5  2  0  0  0
  6  5  1  0  0  0
M  END
> <minimizedAffinity>
-8.07204

$$$$
5G1Z_U53_A_1001


 22 23  0  0  0  0  0  0  0  0999 V2000
   25.4747   45.5065   61.7161 C   0  0  0  0  0  0  0  0  0  0  0  0
   25.4625   46.6752   62.4485 C   0  0  0  0  0  0  0  0  0  0  0  0
   24.3456   47.3388   62.7497 N   0  0  0  0  0  0  0  0  0  0  0  0
   23.1304   46.8402   62.4639 C   0  0  0  0  0  0  0  0  0  0  0  0
   21.9790   47.5334   62.8303 C   0  0  0  0  0  0  0  0  0  0  0  0
   20.7906   46.9506   62.4425 C   0  0  0  0  0  0  0  0  0  0  0  0
   24.2342   44.8601   61.3424 C   0  0  0  0  0  0  0  0  0  0  0  0
   23.0237   45.5744   61.7373 C   0  0  0  0  0  0  0  0  0  0  0  0
   21.8138   45.0386   61.3881 C   0  0  0  0  0  0  0  0  0  0  0  0
   20.6935   45.7306   61.7481 C   0  0  0  0  0  0  0  0  0  0  0  0
   27.3812   45.1916   60.5043 O   0  0  0  0  0  0  0  0  0  0  0  0
   26.7598   44.8124   61.4782 C   0  0  0  0  0  0  0  0  0  0  0  0
   27.2206   43.6050   62.0981 O   0  0  0  0  0  0  0  0  0  0  0  0
   27.8688   42.6504   61.2344 C   0  0  0  0  0  0  0  0  0  0  0  0
   29.2653   42.3976   61.7086 C   0  0  0  0  0  0  0  0  0  0  0  0
   19.4792   45.1741   61.3722 O   0  0  0  0  0  0  0  0  0  0  0  0
   18.4044   46.0443   60.9230 C   0  0  0  0  0  0  0  0  0  0  0  0
   24.1586   43.4285   60.4094 S   0  0  0  0  0  0  0  0  0  0  0  0
   24.5549   43.7433   58.7061 C   0  0  0  0  0  0  0  0  0  0  0  0
   23.2942   43.4149   57.9202 C   0  0  0  0  0  0  0  0  0  0  0  0
   22.8945   44.5485   57.1287 C   0  0  0  0  0  0  0  0  0  0  0  0
   22.5601   45.3951   56.4159 N   0  0  0  0  0  0  0  0  0  0  0  0
 11 12  2  0  0  0
 18 19  1  0  0  0
 18  7  1  0  0  0
 14 15  1  0  0  0
 14 13  1  0  0  0
 19 20  1  0  0  0
 12 13  1  0  0  0
 12  1  1  0  0  0
 17 16  1  0  0  0
  7  1  2  0  0  0
  7  8  1  0  0  0
 22 21  3  0  0  0
  1  2  1  0  0  0
  9  8  2  0  0  0
  9 10  1  0  0  0
 21 20  1  0  0  0
  8  4  1  0  0  0
 16 10  1  0  0  0
 10  6  2  0  0  0
  2  3  2  0  0  0
  4  3  1  0  0  0
  4  5  2  0  0  0
  6  5  1  0  0  0
M  END
> <minimizedAffinity>
-7.64694

$$$$
5G1Z_U53_A_1001


 22 23  0  0  0  0  0  0  0  0999 V2000
   24.4680   45.0534   58.1664 C   0  0  0  0  0  0  0  0  0  0  0  0
   25.6341   45.5555   57.6274 C   0  0  0  0  0  0  0  0  0  0  0  0
   26.8333   45.3780   58.1831 N   0  0  0  0  0  0  0  0  0  0  0  0
   27.0041   44.5809   59.2520 C   0  0  0  0  0  0  0  0  0  0  0  0
   28.2750   44.3774   59.7850 C   0  0  0  0  0  0  0  0  0  0  0  0
   28.3227   43.5801   60.9094 C   0  0  0  0  0  0  0  0  0  0  0  0
   24.5081   44.1779   59.3189 C   0  0  0  0  0  0  0  0  0  0  0  0
   25.8393   43.9486   59.8727 C   0  0  0  0  0  0  0  0  0  0  0  0
   25.9499   43.1573   60.9837 C   0  0  0  0  0  0  0  0  0  0  0  0
   27.2001   42.9706   61.4993 C   0  0  0  0  0  0  0  0  0  0  0  0
   23.1303   44.7504   56.3440 O   0  0  0  0  0  0  0  0  0  0  0  0
   23.1901   45.2562   57.4481 C   0  0  0  0  0  0  0  0  0  0  0  0
   22.1401   46.1705   57.7884 O   0  0  0  0  0  0  0  0  0  0  0  0
   22.5416   47.5222   58.0872 C   0  0  0  0  0  0  0  0  0  0  0  0
   22.8505   48.2557   56.8201 C   0  0  0  0  0  0  0  0  0  0  0  0
   27.2856   42.1749   62.6330 O   0  0  0  0  0  0  0  0  0  0  0  0
   28.5923   41.8666   63.1911 C   0  0  0  0  0  0  0  0  0  0  0  0
   23.1100   43.5380   60.0683 S   0  0  0  0  0  0  0  0  0  0  0  0
   22.1903   44.8029   60.9118 C   0  0  0  0  0  0  0  0  0  0  0  0
   23.2209   45.6338   61.6617 C   0  0  0  0  0  0  0  0  0  0  0  0
   22.5632   46.6211   62.4765 C   0  0  0  0  0  0  0  0  0  0  0  0
   22.1252   47.4351   63.1711 N   0  0  0  0  0  0  0  0  0  0  0  0
 11 12  2  0  0  0
 18 19  1  0  0  0
 18  7  1  0  0  0
 14 15  1  0  0  0
 14 13  1  0  0  0
 19 20  1  0  0  0
 12 13  1  0  0  0
 12  1  1  0  0  0
 17 16  1  0  0  0
  7  1  2  0  0  0
  7  8  1  0  0  0
 22 21  3  0  0  0
  1  2  1  0  0  0
  9  8  2  0  0  0
  9 10  1  0  0  0
 21 20  1  0  0  0
  8  4  1  0  0  0
 16 10  1  0  0  0
 10  6  2  0  0  0
  2  3  2  0  0  0
  4  3  1  0  0  0
  4  5  2  0  0  0
  6  5  1  0  0  0
M  END
> <minimizedAffinity>
-7.35314

$$$$
5G1Z_U53_A_1001


 22 23  0  0  0  0  0  0  0  0999 V2000
   26.4074   44.9006   58.2198 C   0  0  0  0  0  0  0  0  0  0  0  0
   26.1164   45.2865   56.9280 C   0  0  0  0  0  0  0  0  0  0  0  0
   24.8916   45.6249   56.5233 N   0  0  0  0  0  0  0  0  0  0  0  0
   23.8687   45.7357   57.3884 C   0  0  0  0  0  0  0  0  0  0  0  0
   22.6097   46.1350   56.9455 C   0  0  0  0  0  0  0  0  0  0  0  0
   21.6265   46.1663   57.9122 C   0  0  0  0  0  0  0  0  0  0  0  0
   25.3965   44.9726   59.2539 C   0  0  0  0  0  0  0  0  0  0  0  0
   24.0786   45.4053   58.7985 C   0  0  0  0  0  0  0  0  0  0  0  0
   23.0649   45.4650   59.7160 C   0  0  0  0  0  0  0  0  0  0  0  0
   21.8350   45.8522   59.2679 C   0  0  0  0  0  0  0  0  0  0  0  0
   28.4798   45.5558   58.9114 O   0  0  0  0  0  0  0  0  0  0  0  0
   27.8078   44.5953   58.5882 C   0  0  0  0  0  0  0  0  0  0  0  0
   28.5143   43.3680   58.3676 O   0  0  0  0  0  0  0  0  0  0  0  0
   27.8033   42.1552   58.6858 C   0  0  0  0  0  0  0  0  0  0  0  0
   28.0633   41.7682   60.1076 C   0  0  0  0  0  0  0  0  0  0  0  0
   20.8204   45.8930   60.2137 O   0  0  0  0  0  0  0  0  0  0  0  0
   20.8867   45.0131   61.3693 C   0  0  0  0  0  0  0  0  0  0  0  0
   25.6634   44.4847   60.8715 S   0  0  0  0  0  0  0  0  0  0  0  0
   26.2239   45.8410   61.8734 C   0  0  0  0  0  0  0  0  0  0  0  0
   24.9880   46.6790   62.1648 C   0  0  0  0  0  0  0  0  0  0  0  0
   25.2764   47.6472   63.1899 C   0  0  0  0  0  0  0  0  0  0  0  0
   25.5902   48.3703   64.0357 N   0  0  0  0  0  0  0  0  0  0  0  0
 11 12  2  0  0  0
 18 19  1  0  0  0
 18  7  1  0  0  0
 14 15  1  0  0  0
 14 13  1  0  0  0
 19 20  1  0  0  0
 12 13  1  0  0  0
 12  1  1  0  0  0
 17 16  1  0  0  0
  7  1  2  0  0  0
  7  8  1  0  0  0
 22 21  3  0  0  0
  1  2  1  0  0  0
  9  8  2  0  0  0
  9 10  1  0  0  0
 21 20  1  0  0  0
  8  4  1  0  0  0
 16 10  1  0  0  0
 10  6  2  0  0  0
  2  3  2  0  0  0
  4  3  1  0  0  0
  4  5  2  0  0  0
  6  5  1  0  0  0
M  END
> <minimizedAffinity>
-6.99960

$$$$
5G1Z_U53_A_1001


 22 23  0  0  0  0  0  0  0  0999 V2000
   22.1898   46.0039   60.8947 C   0  0  0  0  0  0  0  0  0  0  0  0
   22.5138   47.1250   61.6300 C   0  0  0  0  0  0  0  0  0  0  0  0
   23.7039   47.3052   62.2040 N   0  0  0  0  0  0  0  0  0  0  0  0
   24.7230   46.4535   61.9968 C   0  0  0  0  0  0  0  0  0  0  0  0
   25.9691   46.6903   62.5728 C   0  0  0  0  0  0  0  0  0  0  0  0
   26.9240   45.7248   62.3312 C   0  0  0  0  0  0  0  0  0  0  0  0
   23.1949   45.0056   60.5950 C   0  0  0  0  0  0  0  0  0  0  0  0
   24.5073   45.2563   61.1833 C   0  0  0  0  0  0  0  0  0  0  0  0
   25.4980   44.3368   60.9694 C   0  0  0  0  0  0  0  0  0  0  0  0
   26.7127   44.5778   61.5440 C   0  0  0  0  0  0  0  0  0  0  0  0
   20.7994   46.3778   59.1258 O   0  0  0  0  0  0  0  0  0  0  0  0
   20.8607   45.9179   60.2497 C   0  0  0  0  0  0  0  0  0  0  0  0
   19.6123   45.5966   60.8762 O   0  0  0  0  0  0  0  0  0  0  0  0
   18.6580   46.6711   60.9873 C   0  0  0  0  0  0  0  0  0  0  0  0
   17.3679   46.2782   60.3390 C   0  0  0  0  0  0  0  0  0  0  0  0
   27.6975   43.6254   61.3235 O   0  0  0  0  0  0  0  0  0  0  0  0
   27.7190   42.9002   60.0635 C   0  0  0  0  0  0  0  0  0  0  0  0
   22.8713   43.5728   59.7184 S   0  0  0  0  0  0  0  0  0  0  0  0
   23.6879   43.5802   58.1403 C   0  0  0  0  0  0  0  0  0  0  0  0
   23.6725   45.0280   57.6728 C   0  0  0  0  0  0  0  0  0  0  0  0
   25.0183   45.5030   57.4873 C   0  0  0  0  0  0  0  0  0  0  0  0
   26.1088   45.8839   57.4388 N   0  0  0  0  0  0  0  0  0  0  0  0
 11 12  2  0  0  0
 18 19  1  0  0  0
 18  7  1  0  0  0
 14 15  1  0  0  0
 14 13  1  0  0  0
 19 20  1  0  0  0
 12 13  1  0  0  0
 12  1  1  0  0  0
 17 16  1  0  0  0
  7  1  2  0  0  0
  7  8  1  0  0  0
 22 21  3  0  0  0
  1  2  1  0  0  0
  9  8  2  0  0  0
  9 10  1  0  0  0
 21 20  1  0  0  0
  8  4  1  0  0  0
 16 10  1  0  0  0
 10  6  2  0  0  0
  2  3  2  0  0  0
  4  3  1  0  0  0
  4  5  2  0  0  0
  6  5  1  0  0  0
M  END
> <minimizedAffinity>
-6.93270

$$$$
5G1Z_U53_A_1001


 22 23  0  0  0  0  0  0  0  0999 V2000
   23.6598   45.5671   58.8240 C   0  0  0  0  0  0  0  0  0  0  0  0
   24.3451   45.3370   57.6493 C   0  0  0  0  0  0  0  0  0  0  0  0
   25.4589   44.6067   57.5825 N   0  0  0  0  0  0  0  0  0  0  0  0
   25.9250   43.9325   58.6480 C   0  0  0  0  0  0  0  0  0  0  0  0
   27.0659   43.1408   58.5385 C   0  0  0  0  0  0  0  0  0  0  0  0
   27.4787   42.5356   59.7072 C   0  0  0  0  0  0  0  0  0  0  0  0
   24.0549   44.9019   60.0480 C   0  0  0  0  0  0  0  0  0  0  0  0
   25.2412   44.0585   59.9358 C   0  0  0  0  0  0  0  0  0  0  0  0
   25.6925   43.4244   61.0614 C   0  0  0  0  0  0  0  0  0  0  0  0
   26.8146   42.6562   60.9418 C   0  0  0  0  0  0  0  0  0  0  0  0
   22.5369   47.5403   58.6056 O   0  0  0  0  0  0  0  0  0  0  0  0
   22.4020   46.3461   58.7901 C   0  0  0  0  0  0  0  0  0  0  0  0
   21.0989   45.9064   59.1937 O   0  0  0  0  0  0  0  0  0  0  0  0
   20.3020   46.8579   59.9265 C   0  0  0  0  0  0  0  0  0  0  0  0
   18.9153   46.3274   60.1129 C   0  0  0  0  0  0  0  0  0  0  0  0
   27.2602   42.0334   62.0991 O   0  0  0  0  0  0  0  0  0  0  0  0
   28.5606   41.3830   62.1036 C   0  0  0  0  0  0  0  0  0  0  0  0
   23.2813   45.1543   61.5525 S   0  0  0  0  0  0  0  0  0  0  0  0
   23.9416   46.5753   62.3904 C   0  0  0  0  0  0  0  0  0  0  0  0
   22.7729   47.5340   62.5637 C   0  0  0  0  0  0  0  0  0  0  0  0
   21.7154   46.8973   63.3036 C   0  0  0  0  0  0  0  0  0  0  0  0
   20.8356   46.4781   63.9256 N   0  0  0  0  0  0  0  0  0  0  0  0
 11 12  2  0  0  0
 18 19  1  0  0  0
 18  7  1  0  0  0
 14 15  1  0  0  0
 14 13  1  0  0  0
 19 20  1  0  0  0
 12 13  1  0  0  0
 12  1  1  0  0  0
 17 16  1  0  0  0
  7  1  2  0  0  0
  7  8  1  0  0  0
 22 21  3  0  0  0
  1  2  1  0  0  0
  9  8  2  0  0  0
  9 10  1  0  0  0
 21 20  1  0  0  0
  8  4  1  0  0  0
 16 10  1  0  0  0
 10  6  2  0  0  0
  2  3  2  0  0  0
  4  3  1  0  0  0
  4  5  2  0  0  0
  6  5  1  0  0  0
M  END
> <minimizedAffinity>
-6.84194

$$$$
5G1Z_U53_A_1001


 22 23  0  0  0  0  0  0  0  0999 V2000
   23.1609   45.4038   58.7766 C   0  0  0  0  0  0  0  0  0  0  0  0
   23.6834   44.9232   57.5940 C   0  0  0  0  0  0  0  0  0  0  0  0
   24.7944   44.1885   57.5297 N   0  0  0  0  0  0  0  0  0  0  0  0
   25.4184   43.7551   58.6387 C   0  0  0  0  0  0  0  0  0  0  0  0
   26.5520   42.9511   58.5424 C   0  0  0  0  0  0  0  0  0  0  0  0
   27.1357   42.6076   59.7439 C   0  0  0  0  0  0  0  0  0  0  0  0
   23.7361   45.0136   60.0468 C   0  0  0  0  0  0  0  0  0  0  0  0
   24.9154   44.1582   59.9525 C   0  0  0  0  0  0  0  0  0  0  0  0
   25.5320   43.7770   61.1133 C   0  0  0  0  0  0  0  0  0  0  0  0
   26.6449   42.9939   61.0048 C   0  0  0  0  0  0  0  0  0  0  0  0
   21.9885   47.3213   58.3883 O   0  0  0  0  0  0  0  0  0  0  0  0
   21.8923   46.1654   58.7532 C   0  0  0  0  0  0  0  0  0  0  0  0
   20.6410   45.7836   59.3387 O   0  0  0  0  0  0  0  0  0  0  0  0
   19.9367   46.8091   60.0666 C   0  0  0  0  0  0  0  0  0  0  0  0
   18.5246   46.3814   60.3153 C   0  0  0  0  0  0  0  0  0  0  0  0
   27.2600   42.6305   62.1944 O   0  0  0  0  0  0  0  0  0  0  0  0
   28.3257   41.6416   62.1734 C   0  0  0  0  0  0  0  0  0  0  0  0
   23.1709   45.5873   61.5558 S   0  0  0  0  0  0  0  0  0  0  0  0
   23.4120   47.3406   61.7143 C   0  0  0  0  0  0  0  0  0  0  0  0
   23.5676   47.6041   63.2047 C   0  0  0  0  0  0  0  0  0  0  0  0
   24.9342   47.9380   63.5086 C   0  0  0  0  0  0  0  0  0  0  0  0
   26.0098   48.1894   63.8498 N   0  0  0  0  0  0  0  0  0  0  0  0
 11 12  2  0  0  0
 18 19  1  0  0  0
 18  7  1  0  0  0
 14 15  1  0  0  0
 14 13  1  0  0  0
 19 20  1  0  0  0
 12 13  1  0  0  0
 12  1  1  0  0  0
 17 16  1  0  0  0
  7  1  2  0  0  0
  7  8  1  0  0  0
 22 21  3  0  0  0
  1  2  1  0  0  0
  9  8  2  0  0  0
  9 10  1  0  0  0
 21 20  1  0  0  0
  8  4  1  0  0  0
 16 10  1  0  0  0
 10  6  2  0  0  0
  2  3  2  0  0  0
  4  3  1  0  0  0
  4  5  2  0  0  0
  6  5  1  0  0  0
M  END
> <minimizedAffinity>
-6.73729

$$$$
5G1Z_U53_A_1001


 22 23  0  0  0  0  0  0  0  0999 V2000
   25.9485   45.0009   58.4983 C   0  0  0  0  0  0  0  0  0  0  0  0
   25.3629   45.2846   57.2821 C   0  0  0  0  0  0  0  0  0  0  0  0
   24.1008   45.6963   57.1557 N   0  0  0  0  0  0  0  0  0  0  0  0
   23.3432   45.9872   58.2273 C   0  0  0  0  0  0  0  0  0  0  0  0
   22.0423   46.4585   58.0653 C   0  0  0  0  0  0  0  0  0  0  0  0
   21.3437   46.6767   59.2343 C   0  0  0  0  0  0  0  0  0  0  0  0
   25.2432   45.2686   59.7342 C   0  0  0  0  0  0  0  0  0  0  0  0
   23.8846   45.7775   59.5707 C   0  0  0  0  0  0  0  0  0  0  0  0
   23.1459   46.0219   60.6965 C   0  0  0  0  0  0  0  0  0  0  0  0
   21.8709   46.4781   60.5237 C   0  0  0  0  0  0  0  0  0  0  0  0
   28.1675   45.5214   58.5837 O   0  0  0  0  0  0  0  0  0  0  0  0
   27.3728   44.6020   58.5426 C   0  0  0  0  0  0  0  0  0  0  0  0
   27.9167   43.2999   58.2910 O   0  0  0  0  0  0  0  0  0  0  0  0
   29.3519   43.2157   58.1890 C   0  0  0  0  0  0  0  0  0  0  0  0
   29.7362   42.5966   56.8821 C   0  0  0  0  0  0  0  0  0  0  0  0
   21.1373   46.7067   61.6792 O   0  0  0  0  0  0  0  0  0  0  0  0
   21.8190   47.1711   62.8766 C   0  0  0  0  0  0  0  0  0  0  0  0
   25.8821   44.9178   61.2816 S   0  0  0  0  0  0  0  0  0  0  0  0
   26.1549   43.1744   61.4901 C   0  0  0  0  0  0  0  0  0  0  0  0
   27.6284   43.0247   61.8385 C   0  0  0  0  0  0  0  0  0  0  0  0
   27.8184   41.8982   62.7139 C   0  0  0  0  0  0  0  0  0  0  0  0
   28.0178   41.0563   63.4808 N   0  0  0  0  0  0  0  0  0  0  0  0
 11 12  2  0  0  0
 18 19  1  0  0  0
 18  7  1  0  0  0
 14 15  1  0  0  0
 14 13  1  0  0  0
 19 20  1  0  0  0
 12 13  1  0  0  0
 12  1  1  0  0  0
 17 16  1  0  0  0
  7  1  2  0  0  0
  7  8  1  0  0  0
 22 21  3  0  0  0
  1  2  1  0  0  0
  9  8  2  0  0  0
  9 10  1  0  0  0
 21 20  1  0  0  0
  8  4  1  0  0  0
 16 10  1  0  0  0
 10  6  2  0  0  0
  2  3  2  0  0  0
  4  3  1  0  0  0
  4  5  2  0  0  0
  6  5  1  0  0  0
M  END
> <minimizedAffinity>
-6.73235

$$$$
5G1Z_U53_A_1001


 22 23  0  0  0  0  0  0  0  0999 V2000
   26.5992   44.5737   59.6886 C   0  0  0  0  0  0  0  0  0  0  0  0
   27.4179   45.0077   60.7102 C   0  0  0  0  0  0  0  0  0  0  0  0
   27.0037   45.8147   61.6877 N   0  0  0  0  0  0  0  0  0  0  0  0
   25.7115   46.1627   61.8148 C   0  0  0  0  0  0  0  0  0  0  0  0
   25.2987   46.9707   62.8719 C   0  0  0  0  0  0  0  0  0  0  0  0
   23.9600   47.3026   62.8732 C   0  0  0  0  0  0  0  0  0  0  0  0
   25.1832   44.8763   59.7023 C   0  0  0  0  0  0  0  0  0  0  0  0
   24.7419   45.7101   60.8164 C   0  0  0  0  0  0  0  0  0  0  0  0
   23.4213   46.0640   60.8757 C   0  0  0  0  0  0  0  0  0  0  0  0
   23.0310   46.8606   61.9133 C   0  0  0  0  0  0  0  0  0  0  0  0
   26.8382   42.4679   58.8456 O   0  0  0  0  0  0  0  0  0  0  0  0
   27.1350   43.6350   58.6778 C   0  0  0  0  0  0  0  0  0  0  0  0
   28.1463   43.9011   57.6977 O   0  0  0  0  0  0  0  0  0  0  0  0
   29.3637   43.1379   57.8120 C   0  0  0  0  0  0  0  0  0  0  0  0
   29.6393   42.4197   56.5286 C   0  0  0  0  0  0  0  0  0  0  0  0
   21.6901   47.2164   61.9453 O   0  0  0  0  0  0  0  0  0  0  0  0
   20.8676   46.7977   63.0689 C   0  0  0  0  0  0  0  0  0  0  0  0
   24.1044   44.4048   58.4615 S   0  0  0  0  0  0  0  0  0  0  0  0
   24.3896   45.3272   56.9697 C   0  0  0  0  0  0  0  0  0  0  0  0
   23.0371   45.8992   56.5716 C   0  0  0  0  0  0  0  0  0  0  0  0
   22.7159   47.0325   57.3984 C   0  0  0  0  0  0  0  0  0  0  0  0
   22.4884   48.0018   57.9862 N   0  0  0  0  0  0  0  0  0  0  0  0
 11 12  2  0  0  0
 18 19  1  0  0  0
 18  7  1  0  0  0
 14 15  1  0  0  0
 14 13  1  0  0  0
 19 20  1  0  0  0
 12 13  1  0  0  0
 12  1  1  0  0  0
 17 16  1  0  0  0
  7  1  2  0  0  0
  7  8  1  0  0  0
 22 21  3  0  0  0
  1  2  1  0  0  0
  9  8  2  0  0  0
  9 10  1  0  0  0
 21 20  1  0  0  0
  8  4  1  0  0  0
 16 10  1  0  0  0
 10  6  2  0  0  0
  2  3  2  0  0  0
  4  3  1  0  0  0
  4  5  2  0  0  0
  6  5  1  0  0  0
M  END
> <minimizedAffinity>
-6.69623

$$$$
5G1Z_U53_A_1001


 22 23  0  0  0  0  0  0  0  0999 V2000
   26.7166   45.4129   60.6567 C   0  0  0  0  0  0  0  0  0  0  0  0
   26.8378   45.8405   61.9624 C   0  0  0  0  0  0  0  0  0  0  0  0
   25.8432   46.4153   62.6398 N   0  0  0  0  0  0  0  0  0  0  0  0
   24.6022   46.5036   62.1309 C   0  0  0  0  0  0  0  0  0  0  0  0
   23.5712   47.0685   62.8783 C   0  0  0  0  0  0  0  0  0  0  0  0
   22.3532   47.1502   62.2365 C   0  0  0  0  0  0  0  0  0  0  0  0
   25.4335   45.4505   59.9869 C   0  0  0  0  0  0  0  0  0  0  0  0
   24.3456   46.0275   60.7710 C   0  0  0  0  0  0  0  0  0  0  0  0
   23.1108   46.1258   60.1893 C   0  0  0  0  0  0  0  0  0  0  0  0
   22.1107   46.6864   60.9304 C   0  0  0  0  0  0  0  0  0  0  0  0
   28.4918   45.4223   59.2246 O   0  0  0  0  0  0  0  0  0  0  0  0
   27.8603   44.7365   60.0053 C   0  0  0  0  0  0  0  0  0  0  0  0
   28.1456   43.3319   59.9954 O   0  0  0  0  0  0  0  0  0  0  0  0
   28.7312   42.7903   61.1959 C   0  0  0  0  0  0  0  0  0  0  0  0
   28.2793   41.3775   61.3928 C   0  0  0  0  0  0  0  0  0  0  0  0
   20.8710   46.7868   60.3150 O   0  0  0  0  0  0  0  0  0  0  0  0
   19.6660   46.7487   61.1279 C   0  0  0  0  0  0  0  0  0  0  0  0
   25.2018   44.9702   58.3616 S   0  0  0  0  0  0  0  0  0  0  0  0
   24.6483   43.2850   58.2565 C   0  0  0  0  0  0  0  0  0  0  0  0
   23.1374   43.3550   58.0912 C   0  0  0  0  0  0  0  0  0  0  0  0
   22.7934   44.3275   57.0877 C   0  0  0  0  0  0  0  0  0  0  0  0
   22.4797   45.1660   56.3560 N   0  0  0  0  0  0  0  0  0  0  0  0
 11 12  2  0  0  0
 18 19  1  0  0  0
 18  7  1  0  0  0
 14 15  1  0  0  0
 14 13  1  0  0  0
 19 20  1  0  0  0
 12 13  1  0  0  0
 12  1  1  0  0  0
 17 16  1  0  0  0
  7  1  2  0  0  0
  7  8  1  0  0  0
 22 21  3  0  0  0
  1  2  1  0  0  0
  9  8  2  0  0  0
  9 10  1  0  0  0
 21 20  1  0  0  0
  8  4  1  0  0  0
 16 10  1  0  0  0
 10  6  2  0  0  0
  2  3  2  0  0  0
  4  3  1  0  0  0
  4  5  2  0  0  0
  6  5  1  0  0  0
M  END
> <minimizedAffinity>
-6.55730

$$$$
